WRS.pdb
     RDKit          3D

 32 33  0  0  1  0  0  0  0  0999 V2000
   27.2255  -19.2467  -10.4268 N   0  0  0  0  0  0  0  0  0  0  0  0
   26.6828  -20.3895  -11.1367 C   0  0  1  0  0  0  0  0  0  0  0  0
   26.1724  -21.3350  -10.0912 C   0  0  0  0  0  0  0  0  0  0  0  0
   26.4173  -20.7217   -8.7579 C   0  0  0  0  0  0  0  0  0  0  0  0
   25.4945  -20.1285   -7.9060 C   0  0  0  0  0  0  0  0  0  0  0  0
   26.1819  -19.7218   -6.8326 N   0  0  0  0  0  0  0  0  0  0  0  0
   27.4829  -20.0232   -6.9567 C   0  0  0  0  0  0  0  0  0  0  0  0
   28.6028  -19.8327   -6.1523 C   0  0  0  0  0  0  0  0  0  0  0  0
   29.8403  -20.2557   -6.5393 C   0  0  0  0  0  0  0  0  0  0  0  0
   30.0224  -20.8946   -7.7576 C   0  0  0  0  0  0  0  0  0  0  0  0
   28.9296  -21.0892   -8.5602 C   0  0  0  0  0  0  0  0  0  0  0  0
   27.6719  -20.6679   -8.1843 C   0  0  0  0  0  0  0  0  0  0  0  0
   25.6500  -19.9138  -12.0694 C   0  0  0  0  0  0  0  0  0  0  0  0
   24.6445  -19.3388  -11.5858 O   0  0  0  0  0  0  0  0  0  0  0  0
   29.4923  -17.2124  -17.2170 N   0  0  0  0  0  0  0  0  0  0  0  0
   28.6663  -18.3182  -17.6327 C   0  0  0  0  0  0  0  0  0  0  0  0
   29.2446  -19.3615  -18.1068 N   0  0  0  0  0  0  0  0  0  0  0  0
   27.2530  -18.2616  -17.5232 N   0  0  0  0  0  0  0  0  0  0  0  0
   26.6406  -17.2111  -16.7358 C   0  0  0  0  0  0  0  0  0  0  0  0
   26.1290  -17.7725  -15.4074 C   0  0  0  0  0  0  0  0  0  0  0  0
   25.1909  -18.8974  -15.5762 C   0  0  0  0  0  0  0  0  0  0  0  0
   24.6598  -19.5333  -14.3236 C   0  0  2  0  0  0  0  0  0  0  0  0
   25.6994  -20.0515  -13.4687 N   0  0  0  0  0  0  0  0  0  0  0  0
   23.6925  -20.6042  -14.7084 C   0  0  0  0  0  0  0  0  0  0  0  0
   24.0423  -21.5951  -15.3597 O   0  0  0  0  0  0  0  0  0  0  0  0
   28.7266  -20.1977  -18.4366 O   0  0  0  0  0  0  0  0  0  0  0  0
   19.6287  -20.4164  -13.3249 C   0  0  0  0  0  0  0  0  0  0  0  0
   20.3861  -21.5896  -13.3539 C   0  0  1  0  0  0  0  0  0  0  0  0
   21.3260  -21.4659  -14.5299 N   0  0  0  0  0  0  0  0  0  0  0  0
   22.3556  -20.4707  -14.3146 C   0  0  0  0  0  0  0  0  0  0  0  0
   20.6138  -21.2636  -15.8032 O   0  0  0  0  0  0  0  0  0  0  0  0
   20.7618  -20.2209  -16.4771 O   0  0  0  0  0  0  0  0  0  0  0  0
  2  1  1  1
  2  3  1  0
  4  5  2  0
  4  3  1  0
  6  5  1  0
  7 12  2  0
  7  6  1  0
  8  7  1  0
  9 10  1  0
  9  8  2  0
 10 11  2  0
 11 12  1  0
 12  4  1  0
 13  2  1  0
 13 14  2  0
 16 17  2  0
 16 15  1  0
 18 16  1  0
 19 18  1  0
 20 21  1  0
 20 19  1  0
 22 21  1  6
 22 23  1  0
 23 13  1  0
 24 22  1  0
 25 24  2  0
 26 27  1  0
 28 27  1  1
 28 29  1  0
 28 30  1  0
 29 24  1  0
 30 32  1  0
 31 30  2  0
M  END
$$$$
