RMP.pdb
     RDKit          3D

 27 27  0  0  1  0  0  0  0  0999 V2000
   16.7157  -15.4643  -14.2319 N   0  0  0  0  0  0  0  0  0  0  0  0
   16.9797  -15.9112  -15.5513 C   0  0  0  0  0  0  0  0  0  0  0  0
   16.2915  -16.8906  -16.0336 N   0  0  0  0  0  0  0  0  0  0  0  0
   17.9771  -15.3261  -16.3750 N   0  0  0  0  0  0  0  0  0  0  0  0
   18.7196  -14.1576  -15.9563 C   0  0  0  0  0  0  0  0  0  0  0  0
   19.6670  -13.6475  -17.0130 C   0  0  0  0  0  0  0  0  0  0  0  0
   20.4321  -12.4279  -16.5133 C   0  0  0  0  0  0  0  0  0  0  0  0
   19.4825  -11.2388  -16.5966 C   0  0  2  0  0  0  0  0  0  0  0  0
   18.9043  -11.3132  -17.9293 N   0  0  0  0  0  0  0  0  0  0  0  0
   20.2435   -9.9617  -16.4193 C   0  0  0  0  0  0  0  0  0  0  0  0
   20.9260   -9.7888  -15.3800 O   0  0  0  0  0  0  0  0  0  0  0  0
   16.3858  -17.1680  -17.0546 C   0  0  0  0  0  0  0  0  0  0  0  0
   22.5342   -6.6639  -21.3924 S   0  0  0  0  0  0  0  0  0  0  0  0
   22.6542   -5.3353  -20.1680 C   0  0  0  0  0  0  0  0  0  0  0  0
   22.2873   -5.9590  -18.4922 C   0  0  0  0  0  0  0  0  0  0  0  0
   21.3950   -7.1417  -18.6086 C   0  0  2  0  0  0  0  0  0  0  0  0
   20.9609   -7.6984  -17.2550 N   0  0  0  0  0  0  0  0  0  0  0  0
   20.2209   -8.9132  -17.4124 C   0  0  0  0  0  0  0  0  0  0  0  0
   20.3264   -6.6871  -16.4176 O   0  0  0  0  0  0  0  0  0  0  0  0
   19.3099   -6.1326  -16.9778 N   0  0  0  0  0  0  0  0  0  0  0  0
   20.6524   -6.2545  -15.1422 C   0  0  0  0  0  0  0  0  0  0  0  0
   21.4828   -6.9120  -14.1057 C   0  0  0  0  0  0  0  0  0  0  0  0
   22.3820   -5.7363  -13.6968 C   0  0  0  0  0  0  0  0  0  0  0  0
   21.6599   -4.4717  -14.1889 C   0  0  2  0  0  0  0  0  0  0  0  0
   20.2585   -5.0668  -14.4314 C   0  0  0  0  0  0  0  0  0  0  0  0
   19.2875   -4.1504  -14.9320 O   0  0  0  0  0  0  0  0  0  0  0  0
   19.5563   -3.6665  -16.2641 O   0  0  0  0  0  0  0  0  0  0  0  0
  1  2  1  0
  2  3  2  0
  4  2  1  0
  5  4  1  0
  6  5  1  0
  7  6  1  0
  8  7  1  0
  8  9  1  6
 10  8  1  0
 10 11  2  0
 13 12  1  0
 14 13  1  0
 14 15  1  0
 16 17  1  0
 16 15  1  1
 17 10  1  0
 18 16  1  0
 19 18  2  0
 20 18  1  0
 20 21  1  0
 22 21  1  0
 23 22  1  0
 24 23  1  0
 24 20  1  0
 24 25  1  6
 25 26  1  0
 27 25  2  0
M  END
$$$$
