RMP.pdb
     RDKit          3D

 27 27  0  0  1  0  0  0  0  0999 V2000
   28.9167  -23.3314  -19.3398 N   0  0  0  0  0  0  0  0  0  0  0  0
   29.0077  -22.7641  -20.6360 C   0  0  0  0  0  0  0  0  0  0  0  0
   28.6100  -23.4516  -21.6532 N   0  0  0  0  0  0  0  0  0  0  0  0
   29.5225  -21.4618  -20.8698 N   0  0  0  0  0  0  0  0  0  0  0  0
   30.0823  -20.6627  -19.8021 C   0  0  0  0  0  0  0  0  0  0  0  0
   29.1963  -19.5117  -19.3963 C   0  0  0  0  0  0  0  0  0  0  0  0
   29.3351  -19.2182  -17.9073 C   0  0  0  0  0  0  0  0  0  0  0  0
   28.5575  -20.2978  -17.1640 C   0  0  2  0  0  0  0  0  0  0  0  0
   27.5155  -20.7141  -18.0897 N   0  0  0  0  0  0  0  0  0  0  0  0
   27.9603  -19.7303  -15.9138 C   0  0  0  0  0  0  0  0  0  0  0  0
   28.7060  -19.1759  -15.0698 O   0  0  0  0  0  0  0  0  0  0  0  0
   28.8131  -23.1223  -22.6425 C   0  0  0  0  0  0  0  0  0  0  0  0
   23.8468  -15.3903  -13.9446 S   0  0  0  0  0  0  0  0  0  0  0  0
   25.3315  -15.3587  -14.9807 C   0  0  0  0  0  0  0  0  0  0  0  0
   26.2630  -16.9214  -14.8316 C   0  0  0  0  0  0  0  0  0  0  0  0
   25.3083  -18.0177  -14.5233 C   0  0  2  0  0  0  0  0  0  0  0  0
   25.9847  -19.3803  -14.3939 N   0  0  0  0  0  0  0  0  0  0  0  0
   26.5431  -19.7975  -15.6438 C   0  0  0  0  0  0  0  0  0  0  0  0
   25.1316  -20.3621  -13.7346 O   0  0  0  0  0  0  0  0  0  0  0  0
   24.0713  -20.6423  -14.4066 N   0  0  0  0  0  0  0  0  0  0  0  0
   25.2982  -21.0172  -12.5249 C   0  0  0  0  0  0  0  0  0  0  0  0
   26.5216  -21.6050  -11.9302 C   0  0  0  0  0  0  0  0  0  0  0  0
   26.4349  -21.0259  -10.5106 C   0  0  0  0  0  0  0  0  0  0  0  0
   24.9733  -20.5848  -10.3318 C   0  0  2  0  0  0  0  0  0  0  0  0
   24.3381  -21.3542  -11.5072 C   0  0  0  0  0  0  0  0  0  0  0  0
   22.9349  -21.1620  -11.6717 O   0  0  0  0  0  0  0  0  0  0  0  0
   22.1158  -22.0990  -10.9424 O   0  0  0  0  0  0  0  0  0  0  0  0
  1  2  1  0
  2  3  2  0
  4  2  1  0
  5  4  1  0
  6  5  1  0
  7  6  1  0
  8  7  1  0
  8  9  1  6
 10  8  1  0
 10 11  2  0
 13 12  1  0
 14 13  1  0
 14 15  1  0
 16 17  1  0
 16 15  1  1
 17 10  1  0
 18 16  1  0
 19 18  2  0
 20 18  1  0
 20 21  1  0
 22 21  1  0
 23 22  1  0
 24 23  1  0
 24 20  1  0
 24 25  1  6
 25 26  1  0
 27 25  2  0
M  END
$$$$
