RMP.pdb
     RDKit          3D

 27 27  0  0  1  0  0  0  0  0999 V2000
   16.6501  -22.4908  -12.1371 N   0  0  0  0  0  0  0  0  0  0  0  0
   16.8913  -21.3810  -11.2884 C   0  0  0  0  0  0  0  0  0  0  0  0
   16.7131  -21.5106  -10.0168 N   0  0  0  0  0  0  0  0  0  0  0  0
   17.3230  -20.1200  -11.7774 N   0  0  0  0  0  0  0  0  0  0  0  0
   17.5261  -19.8812  -13.1894 C   0  0  0  0  0  0  0  0  0  0  0  0
   18.7003  -20.6393  -13.7558 C   0  0  0  0  0  0  0  0  0  0  0  0
   20.0128  -20.1072  -13.1931 C   0  0  0  0  0  0  0  0  0  0  0  0
   21.1386  -20.7954  -13.9558 C   0  0  2  0  0  0  0  0  0  0  0  0
   20.9122  -22.2183  -13.7553 N   0  0  0  0  0  0  0  0  0  0  0  0
   22.4641  -20.3850  -13.3938 C   0  0  0  0  0  0  0  0  0  0  0  0
   22.5059  -19.5524  -12.4553 O   0  0  0  0  0  0  0  0  0  0  0  0
   17.0098  -20.7414   -9.3469 C   0  0  0  0  0  0  0  0  0  0  0  0
   24.6974  -20.4467   -8.8863 S   0  0  0  0  0  0  0  0  0  0  0  0
   26.0592  -20.0646  -10.0169 C   0  0  0  0  0  0  0  0  0  0  0  0
   26.3071  -21.4166  -11.2180 C   0  0  0  0  0  0  0  0  0  0  0  0
   25.0470  -21.6136  -11.9806 C   0  0  2  0  0  0  0  0  0  0  0  0
   24.9520  -20.7245  -13.2180 N   0  0  0  0  0  0  0  0  0  0  0  0
   23.7076  -20.9203  -13.8972 C   0  0  0  0  0  0  0  0  0  0  0  0
   26.1405  -20.8150  -14.0581 O   0  0  0  0  0  0  0  0  0  0  0  0
   26.6869  -21.9793  -14.0364 N   0  0  0  0  0  0  0  0  0  0  0  0
   26.7442  -19.8543  -14.8536 C   0  0  0  0  0  0  0  0  0  0  0  0
   26.3436  -18.4501  -15.1062 C   0  0  0  0  0  0  0  0  0  0  0  0
   27.6911  -17.7445  -14.8952 C   0  0  0  0  0  0  0  0  0  0  0  0
   28.7581  -18.8444  -15.0166 C   0  0  2  0  0  0  0  0  0  0  0  0
   27.9087  -19.9378  -15.6949 C   0  0  0  0  0  0  0  0  0  0  0  0
   28.5905  -21.1629  -15.9549 O   0  0  0  0  0  0  0  0  0  0  0  0
   28.8231  -21.4300  -17.3532 O   0  0  0  0  0  0  0  0  0  0  0  0
  1  2  1  0
  2  3  2  0
  4  2  1  0
  5  4  1  0
  6  5  1  0
  7  6  1  0
  8  7  1  0
  8  9  1  1
 10  8  1  0
 10 11  2  0
 13 12  1  0
 14 13  1  0
 14 15  1  0
 16 17  1  0
 16 15  1  1
 17 10  1  0
 18 16  1  0
 19 18  2  0
 20 18  1  0
 20 21  1  0
 22 21  1  0
 23 22  1  0
 24 23  1  0
 24 20  1  0
 24 25  1  1
 25 26  1  0
 27 25  2  0
M  END
$$$$
