RMP.pdb
     RDKit          3D

 27 27  0  0  1  0  0  0  0  0999 V2000
   24.3357  -13.8992  -18.7898 N   0  0  0  0  0  0  0  0  0  0  0  0
   24.1155  -13.7770  -17.3945 C   0  0  0  0  0  0  0  0  0  0  0  0
   23.5333  -12.7189  -16.9396 N   0  0  0  0  0  0  0  0  0  0  0  0
   24.5111  -14.7741  -16.4646 N   0  0  0  0  0  0  0  0  0  0  0  0
   24.4268  -16.1833  -16.7790 C   0  0  0  0  0  0  0  0  0  0  0  0
   24.9434  -17.0692  -15.6733 C   0  0  0  0  0  0  0  0  0  0  0  0
   26.2947  -16.5768  -15.1693 C   0  0  0  0  0  0  0  0  0  0  0  0
   27.2935  -17.7067  -15.3900 C   0  0  2  0  0  0  0  0  0  0  0  0
   27.3693  -17.8635  -16.8341 N   0  0  0  0  0  0  0  0  0  0  0  0
   26.7963  -18.9633  -14.7455 C   0  0  0  0  0  0  0  0  0  0  0  0
   26.4026  -19.9127  -15.4661 O   0  0  0  0  0  0  0  0  0  0  0  0
   23.3564  -12.6030  -15.8986 C   0  0  0  0  0  0  0  0  0  0  0  0
   25.3916  -20.0379   -7.9673 S   0  0  0  0  0  0  0  0  0  0  0  0
   26.3691  -21.3667   -8.7140 C   0  0  0  0  0  0  0  0  0  0  0  0
   26.0120  -21.5142  -10.4980 C   0  0  0  0  0  0  0  0  0  0  0  0
   26.4931  -20.2867  -11.1835 C   0  0  2  0  0  0  0  0  0  0  0  0
   26.2458  -20.3075  -12.6898 N   0  0  0  0  0  0  0  0  0  0  0  0
   26.7554  -19.1230  -13.3106 C   0  0  0  0  0  0  0  0  0  0  0  0
   24.8647  -20.6385  -13.0202 O   0  0  0  0  0  0  0  0  0  0  0  0
   24.0119  -19.8346  -12.4900 N   0  0  0  0  0  0  0  0  0  0  0  0
   24.3572  -21.6634  -13.8026 C   0  0  0  0  0  0  0  0  0  0  0  0
   24.9960  -22.4087  -14.9128 C   0  0  0  0  0  0  0  0  0  0  0  0
   24.6580  -23.8484  -14.4989 C   0  0  0  0  0  0  0  0  0  0  0  0
   23.4978  -23.7300  -13.4975 C   0  0  2  0  0  0  0  0  0  0  0  0
   23.0584  -22.2833  -13.7994 C   0  0  0  0  0  0  0  0  0  0  0  0
   21.9718  -21.8015  -13.0118 O   0  0  0  0  0  0  0  0  0  0  0  0
   20.6919  -22.3752  -13.3483 O   0  0  0  0  0  0  0  0  0  0  0  0
  1  2  1  0
  2  3  2  0
  4  2  1  0
  5  4  1  0
  6  5  1  0
  7  6  1  0
  8  7  1  0
  8  9  1  6
 10  8  1  0
 10 11  2  0
 13 12  1  0
 14 13  1  0
 14 15  1  0
 16 17  1  0
 16 15  1  6
 17 10  1  0
 18 16  1  0
 19 18  2  0
 20 18  1  0
 20 21  1  0
 22 21  1  0
 23 22  1  0
 24 23  1  0
 24 20  1  0
 24 25  1  1
 25 26  1  0
 27 25  2  0
M  END
$$$$
