RMP.pdb
     RDKit          3D

 27 27  0  0  1  0  0  0  0  0999 V2000
   31.4673  -19.2957  -19.3175 N   0  0  0  0  0  0  0  0  0  0  0  0
   30.4216  -18.4884  -19.8324 C   0  0  0  0  0  0  0  0  0  0  0  0
   30.3950  -18.2229  -21.0950 N   0  0  0  0  0  0  0  0  0  0  0  0
   29.3925  -17.9516  -19.0150 N   0  0  0  0  0  0  0  0  0  0  0  0
   29.1089  -18.4855  -17.7010 C   0  0  0  0  0  0  0  0  0  0  0  0
   29.4170  -19.9568  -17.5800 C   0  0  0  0  0  0  0  0  0  0  0  0
   29.0539  -20.4755  -16.1938 C   0  0  0  0  0  0  0  0  0  0  0  0
   27.5638  -20.2229  -15.9975 C   0  0  2  0  0  0  0  0  0  0  0  0
   27.4495  -18.7859  -15.8027 N   0  0  0  0  0  0  0  0  0  0  0  0
   27.0731  -20.9621  -14.7915 C   0  0  0  0  0  0  0  0  0  0  0  0
   27.1986  -22.2100  -14.7388 O   0  0  0  0  0  0  0  0  0  0  0  0
   29.6608  -17.5681  -21.4956 C   0  0  0  0  0  0  0  0  0  0  0  0
   27.5915  -19.5791   -8.7599 S   0  0  0  0  0  0  0  0  0  0  0  0
   26.0359  -20.4871   -8.5740 C   0  0  0  0  0  0  0  0  0  0  0  0
   25.5335  -21.2486  -10.1549 C   0  0  0  0  0  0  0  0  0  0  0  0
   26.2527  -20.5668  -11.2622 C   0  0  1  0  0  0  0  0  0  0  0  0
   25.7601  -20.9889  -12.6442 N   0  0  0  0  0  0  0  0  0  0  0  0
   26.4567  -20.2828  -13.6759 C   0  0  0  0  0  0  0  0  0  0  0  0
   24.3056  -20.9637  -12.7456 O   0  0  0  0  0  0  0  0  0  0  0  0
   23.7936  -19.8400  -12.3857 N   0  0  0  0  0  0  0  0  0  0  0  0
   23.4249  -21.9482  -13.1645 C   0  0  0  0  0  0  0  0  0  0  0  0
   23.6800  -23.1576  -13.9818 C   0  0  0  0  0  0  0  0  0  0  0  0
   22.9534  -24.2122  -13.1345 C   0  0  0  0  0  0  0  0  0  0  0  0
   21.9986  -23.4250  -12.2227 C   0  0  2  0  0  0  0  0  0  0  0  0
   22.0051  -22.0745  -12.9665 C   0  0  0  0  0  0  0  0  0  0  0  0
   21.2114  -21.0498  -12.3723 O   0  0  0  0  0  0  0  0  0  0  0  0
   19.7885  -21.2454  -12.5061 O   0  0  0  0  0  0  0  0  0  0  0  0
  1  2  1  0
  2  3  2  0
  4  2  1  0
  5  4  1  0
  6  5  1  0
  7  6  1  0
  8  7  1  0
  8  9  1  1
 10  8  1  0
 10 11  2  0
 13 12  1  0
 14 13  1  0
 14 15  1  0
 16 17  1  0
 16 15  1  6
 17 10  1  0
 18 16  1  0
 19 18  2  0
 20 18  1  0
 20 21  1  0
 22 21  1  0
 23 22  1  0
 24 23  1  0
 24 20  1  0
 24 25  1  1
 25 26  1  0
 27 25  2  0
M  END
$$$$
