RMP.pdb
     RDKit          3D

 27 27  0  0  1  0  0  0  0  0999 V2000
   26.5493  -15.4804  -17.5078 N   0  0  0  0  0  0  0  0  0  0  0  0
   26.1955  -16.8260  -17.7807 C   0  0  0  0  0  0  0  0  0  0  0  0
   25.1415  -17.0693  -18.4845 N   0  0  0  0  0  0  0  0  0  0  0  0
   26.9538  -17.9299  -17.3097 N   0  0  0  0  0  0  0  0  0  0  0  0
   28.0853  -17.7535  -16.4263 C   0  0  0  0  0  0  0  0  0  0  0  0
   27.6853  -17.4689  -15.0004 C   0  0  0  0  0  0  0  0  0  0  0  0
   26.9201  -18.6452  -14.4059 C   0  0  0  0  0  0  0  0  0  0  0  0
   27.9480  -19.5690  -13.7634 C   0  0  2  0  0  0  0  0  0  0  0  0
   28.3161  -20.5074  -14.8121 N   0  0  0  0  0  0  0  0  0  0  0  0
   27.3362  -20.2865  -12.6005 C   0  0  0  0  0  0  0  0  0  0  0  0
   26.7642  -21.3884  -12.7864 O   0  0  0  0  0  0  0  0  0  0  0  0
   24.8834  -18.0657  -18.7471 C   0  0  0  0  0  0  0  0  0  0  0  0
   26.7332  -20.7586   -4.6748 S   0  0  0  0  0  0  0  0  0  0  0  0
   27.3921  -19.9108   -6.1328 C   0  0  0  0  0  0  0  0  0  0  0  0
   26.6106  -20.5369   -7.6589 C   0  0  0  0  0  0  0  0  0  0  0  0
   27.2888  -19.9211   -8.8289 C   0  0  1  0  0  0  0  0  0  0  0  0
   26.7074  -20.3771  -10.1649 N   0  0  0  0  0  0  0  0  0  0  0  0
   27.3834  -19.7510  -11.2600 C   0  0  0  0  0  0  0  0  0  0  0  0
   25.2525  -20.2846  -10.1967 O   0  0  0  0  0  0  0  0  0  0  0  0
   24.8001  -19.2351   -9.6064 N   0  0  0  0  0  0  0  0  0  0  0  0
   24.3177  -21.1399  -10.7578 C   0  0  0  0  0  0  0  0  0  0  0  0
   24.4494  -22.0519  -11.9184 C   0  0  0  0  0  0  0  0  0  0  0  0
   23.8482  -23.3331  -11.3224 C   0  0  0  0  0  0  0  0  0  0  0  0
   23.0364  -22.8794  -10.0985 C   0  0  2  0  0  0  0  0  0  0  0  0
   22.9405  -21.3727  -10.4112 C   0  0  0  0  0  0  0  0  0  0  0  0
   22.2434  -20.5940   -9.4412 O   0  0  0  0  0  0  0  0  0  0  0  0
   20.9706  -20.0844   -9.8896 O   0  0  0  0  0  0  0  0  0  0  0  0
  1  2  1  0
  2  3  2  0
  4  2  1  0
  5  4  1  0
  6  5  1  0
  7  6  1  0
  8  7  1  0
  8  9  1  6
 10  8  1  0
 10 11  2  0
 13 12  1  0
 14 13  1  0
 14 15  1  0
 16 17  1  0
 16 15  1  6
 17 10  1  0
 18 16  1  0
 19 18  2  0
 20 18  1  0
 20 21  1  0
 22 21  1  0
 23 22  1  0
 24 23  1  0
 24 20  1  0
 24 25  1  1
 25 26  1  0
 27 25  2  0
M  END
$$$$
