RMP.pdb
     RDKit          3D

 27 27  0  0  1  0  0  0  0  0999 V2000
   28.2273  -19.9606  -21.7553 N   0  0  0  0  0  0  0  0  0  0  0  0
   28.2441  -19.0985  -20.6298 C   0  0  0  0  0  0  0  0  0  0  0  0
   28.0115  -17.8402  -20.7973 N   0  0  0  0  0  0  0  0  0  0  0  0
   28.5089  -19.5595  -19.3134 N   0  0  0  0  0  0  0  0  0  0  0  0
   29.3875  -18.8395  -18.4180 C   0  0  0  0  0  0  0  0  0  0  0  0
   28.6538  -18.1506  -17.2948 C   0  0  0  0  0  0  0  0  0  0  0  0
   27.4961  -19.0073  -16.7964 C   0  0  0  0  0  0  0  0  0  0  0  0
   28.0913  -20.0854  -15.8984 C   0  0  2  0  0  0  0  0  0  0  0  0
   28.6388  -21.0751  -16.8130 N   0  0  0  0  0  0  0  0  0  0  0  0
   27.0206  -20.6886  -15.0432 C   0  0  0  0  0  0  0  0  0  0  0  0
   26.2252  -21.5202  -15.5446 O   0  0  0  0  0  0  0  0  0  0  0  0
   28.1101  -17.1586  -19.9885 C   0  0  0  0  0  0  0  0  0  0  0  0
   26.2704  -19.3472   -8.4822 S   0  0  0  0  0  0  0  0  0  0  0  0
   25.6970  -21.0502   -8.7051 C   0  0  0  0  0  0  0  0  0  0  0  0
   25.1854  -21.3442  -10.4325 C   0  0  0  0  0  0  0  0  0  0  0  0
   26.2138  -20.7696  -11.3384 C   0  0  1  0  0  0  0  0  0  0  0  0
   25.8771  -20.9516  -12.8163 N   0  0  0  0  0  0  0  0  0  0  0  0
   26.8712  -20.3451  -13.6483 C   0  0  0  0  0  0  0  0  0  0  0  0
   24.5000  -20.5809  -13.1208 O   0  0  0  0  0  0  0  0  0  0  0  0
   24.1565  -19.4510  -12.6109 N   0  0  0  0  0  0  0  0  0  0  0  0
   23.5399  -21.2520  -13.8610 C   0  0  0  0  0  0  0  0  0  0  0  0
   23.7007  -22.1124  -15.0568 C   0  0  0  0  0  0  0  0  0  0  0  0
   22.8413  -23.3148  -14.6398 C   0  0  0  0  0  0  0  0  0  0  0  0
   21.9389  -22.8051  -13.5045 C   0  0  2  0  0  0  0  0  0  0  0  0
   22.1084  -21.2876  -13.7174 C   0  0  0  0  0  0  0  0  0  0  0  0
   21.4016  -20.4618  -12.7946 O   0  0  0  0  0  0  0  0  0  0  0  0
   22.0119  -20.3677  -11.4910 O   0  0  0  0  0  0  0  0  0  0  0  0
  1  2  1  0
  2  3  2  0
  4  2  1  0
  5  4  1  0
  6  5  1  0
  7  6  1  0
  8  7  1  0
  8  9  1  6
 10  8  1  0
 10 11  2  0
 13 12  1  0
 14 13  1  0
 14 15  1  0
 16 17  1  0
 16 15  1  6
 17 10  1  0
 18 16  1  0
 19 18  2  0
 20 18  1  0
 20 21  1  0
 22 21  1  0
 23 22  1  0
 24 23  1  0
 24 20  1  0
 24 25  1  1
 25 26  1  0
 27 25  2  0
M  END
$$$$
