RMP.pdb
     RDKit          3D

 27 27  0  0  1  0  0  0  0  0999 V2000
   25.8102  -23.9906  -16.2958 N   0  0  0  0  0  0  0  0  0  0  0  0
   24.7988  -24.2327  -15.3321 C   0  0  0  0  0  0  0  0  0  0  0  0
   24.6559  -25.4234  -14.8552 N   0  0  0  0  0  0  0  0  0  0  0  0
   23.9259  -23.2160  -14.8632 N   0  0  0  0  0  0  0  0  0  0  0  0
   24.1282  -21.8245  -15.2018 C   0  0  0  0  0  0  0  0  0  0  0  0
   25.5332  -21.3473  -14.9326 C   0  0  0  0  0  0  0  0  0  0  0  0
   25.6111  -20.6119  -13.6000 C   0  0  0  0  0  0  0  0  0  0  0  0
   26.8970  -21.0603  -12.9159 C   0  0  2  0  0  0  0  0  0  0  0  0
   27.2576  -22.3060  -13.5747 N   0  0  0  0  0  0  0  0  0  0  0  0
   26.6497  -21.2846  -11.4564 C   0  0  0  0  0  0  0  0  0  0  0  0
   26.3252  -22.4284  -11.0538 O   0  0  0  0  0  0  0  0  0  0  0  0
   23.9791  -25.6102  -14.0581 C   0  0  0  0  0  0  0  0  0  0  0  0
   28.4512  -19.3910   -4.7244 S   0  0  0  0  0  0  0  0  0  0  0  0
   27.3157  -18.4025   -5.7307 C   0  0  0  0  0  0  0  0  0  0  0  0
   26.3204  -19.4695   -6.8274 C   0  0  0  0  0  0  0  0  0  0  0  0
   26.8296  -19.3318   -8.2167 C   0  0  2  0  0  0  0  0  0  0  0  0
   26.1576  -20.2896   -9.1973 N   0  0  0  0  0  0  0  0  0  0  0  0
   26.7746  -20.2214  -10.4868 C   0  0  0  0  0  0  0  0  0  0  0  0
   24.7054  -20.1572   -9.1942 O   0  0  0  0  0  0  0  0  0  0  0  0
   24.2975  -19.0568   -9.7207 N   0  0  0  0  0  0  0  0  0  0  0  0
   23.7331  -21.0238   -8.7212 C   0  0  0  0  0  0  0  0  0  0  0  0
   23.8632  -22.4235   -8.2523 C   0  0  0  0  0  0  0  0  0  0  0  0
   23.0678  -22.3424   -6.9413 C   0  0  0  0  0  0  0  0  0  0  0  0
   22.2064  -21.0745   -7.0571 C   0  0  2  0  0  0  0  0  0  0  0  0
   22.3127  -20.8425   -8.5776 C   0  0  0  0  0  0  0  0  0  0  0  0
   21.6249  -19.6930   -9.0664 O   0  0  0  0  0  0  0  0  0  0  0  0
   20.4757  -19.9902   -9.8860 O   0  0  0  0  0  0  0  0  0  0  0  0
  1  2  1  0
  2  3  2  0
  4  2  1  0
  5  4  1  0
  6  5  1  0
  7  6  1  0
  8  7  1  0
  8  9  1  6
 10  8  1  0
 10 11  2  0
 13 12  1  0
 14 13  1  0
 14 15  1  0
 16 17  1  0
 16 15  1  1
 17 10  1  0
 18 16  1  0
 19 18  2  0
 20 18  1  0
 20 21  1  0
 22 21  1  0
 23 22  1  0
 24 23  1  0
 24 20  1  0
 24 25  1  1
 25 26  1  0
 27 25  2  0
M  END
$$$$
