RMP.pdb
     RDKit          3D

 27 27  0  0  1  0  0  0  0  0999 V2000
   28.0346  -26.8286  -15.3972 N   0  0  0  0  0  0  0  0  0  0  0  0
   27.6427  -26.4677  -16.7111 C   0  0  0  0  0  0  0  0  0  0  0  0
   26.4386  -26.7205  -17.1005 N   0  0  0  0  0  0  0  0  0  0  0  0
   28.5228  -25.8359  -17.6286 N   0  0  0  0  0  0  0  0  0  0  0  0
   29.5596  -24.9297  -17.1863 C   0  0  0  0  0  0  0  0  0  0  0  0
   29.3834  -23.5265  -17.7103 C   0  0  0  0  0  0  0  0  0  0  0  0
   29.0441  -22.5631  -16.5793 C   0  0  0  0  0  0  0  0  0  0  0  0
   27.6320  -22.0505  -16.8364 C   0  0  2  0  0  0  0  0  0  0  0  0
   27.7319  -21.2759  -18.0636 N   0  0  0  0  0  0  0  0  0  0  0  0
   27.1856  -21.1859  -15.6986 C   0  0  0  0  0  0  0  0  0  0  0  0
   27.7690  -20.0949  -15.4861 O   0  0  0  0  0  0  0  0  0  0  0  0
   26.1402  -26.5243  -18.1009 C   0  0  0  0  0  0  0  0  0  0  0  0
   21.6346  -19.1862  -16.8202 S   0  0  0  0  0  0  0  0  0  0  0  0
   22.6771  -17.9386  -16.0231 C   0  0  0  0  0  0  0  0  0  0  0  0
   23.6788  -18.6820  -14.6904 C   0  0  0  0  0  0  0  0  0  0  0  0
   24.5418  -19.7402  -15.2765 C   0  0  2  0  0  0  0  0  0  0  0  0
   25.2337  -20.5996  -14.2213 N   0  0  0  0  0  0  0  0  0  0  0  0
   26.0958  -21.5661  -14.8303 C   0  0  0  0  0  0  0  0  0  0  0  0
   24.2968  -21.1325  -13.2392 O   0  0  0  0  0  0  0  0  0  0  0  0
   23.1953  -21.5420  -13.7621 N   0  0  0  0  0  0  0  0  0  0  0  0
   24.4228  -21.2583  -11.8649 C   0  0  0  0  0  0  0  0  0  0  0  0
   25.6177  -21.5878  -11.0527 C   0  0  0  0  0  0  0  0  0  0  0  0
   25.5239  -20.4922   -9.9808 C   0  0  0  0  0  0  0  0  0  0  0  0
   24.0733  -19.9863  -10.0314 C   0  0  2  0  0  0  0  0  0  0  0  0
   23.4357  -21.1450  -10.8239 C   0  0  0  0  0  0  0  0  0  0  0  0
   22.0419  -21.0047  -11.0897 O   0  0  0  0  0  0  0  0  0  0  0  0
   21.1833  -21.4698  -10.0280 O   0  0  0  0  0  0  0  0  0  0  0  0
  1  2  1  0
  2  3  2  0
  4  2  1  0
  5  4  1  0
  6  5  1  0
  7  6  1  0
  8  7  1  0
  8  9  1  6
 10  8  1  0
 10 11  2  0
 13 12  1  0
 14 13  1  0
 14 15  1  0
 16 17  1  0
 16 15  1  1
 17 10  1  0
 18 16  1  0
 19 18  2  0
 20 18  1  0
 20 21  1  0
 22 21  1  0
 23 22  1  0
 24 23  1  0
 24 20  1  0
 24 25  1  6
 25 26  1  0
 27 25  2  0
M  END
$$$$
