RMP.pdb
     RDKit          3D

 27 27  0  0  1  0  0  0  0  0999 V2000
   27.6884  -16.1040  -15.0526 N   0  0  0  0  0  0  0  0  0  0  0  0
   26.8560  -16.7728  -15.9855 C   0  0  0  0  0  0  0  0  0  0  0  0
   27.2188  -16.8332  -17.2225 N   0  0  0  0  0  0  0  0  0  0  0  0
   25.6285  -17.3844  -15.6186 N   0  0  0  0  0  0  0  0  0  0  0  0
   25.5361  -18.8026  -15.3499 C   0  0  0  0  0  0  0  0  0  0  0  0
   25.6627  -19.1377  -13.8850 C   0  0  0  0  0  0  0  0  0  0  0  0
   27.1271  -19.2220  -13.4717 C   0  0  0  0  0  0  0  0  0  0  0  0
   27.3519  -20.6179  -12.9026 C   0  0  2  0  0  0  0  0  0  0  0  0
   26.7449  -21.5193  -13.8694 N   0  0  0  0  0  0  0  0  0  0  0  0
   26.6824  -20.7415  -11.5691 C   0  0  0  0  0  0  0  0  0  0  0  0
   25.7030  -21.5160  -11.4394 O   0  0  0  0  0  0  0  0  0  0  0  0
   26.6061  -17.3153  -17.9439 C   0  0  0  0  0  0  0  0  0  0  0  0
   27.4870  -20.1780   -4.0848 S   0  0  0  0  0  0  0  0  0  0  0  0
   27.9809  -19.8235   -5.7904 C   0  0  0  0  0  0  0  0  0  0  0  0
   26.5539  -19.2563   -6.7772 C   0  0  0  0  0  0  0  0  0  0  0  0
   26.9999  -19.0364   -8.1775 C   0  0  2  0  0  0  0  0  0  0  0  0
   26.4847  -20.1010   -9.1430 N   0  0  0  0  0  0  0  0  0  0  0  0
   27.1296  -19.9954  -10.4162 C   0  0  0  0  0  0  0  0  0  0  0  0
   25.0280  -20.1522   -9.1854 O   0  0  0  0  0  0  0  0  0  0  0  0
   24.4961  -19.0586   -9.6044 N   0  0  0  0  0  0  0  0  0  0  0  0
   24.1629  -21.1817   -8.8508 C   0  0  0  0  0  0  0  0  0  0  0  0
   24.4407  -22.6254   -8.6648 C   0  0  0  0  0  0  0  0  0  0  0  0
   23.7156  -22.8687   -7.3332 C   0  0  0  0  0  0  0  0  0  0  0  0
   22.7417  -21.6906   -7.1705 C   0  0  2  0  0  0  0  0  0  0  0  0
   22.7423  -21.1683   -8.6211 C   0  0  0  0  0  0  0  0  0  0  0  0
   21.9307  -20.0192   -8.8535 O   0  0  0  0  0  0  0  0  0  0  0  0
   20.5115  -20.2730   -8.8064 O   0  0  0  0  0  0  0  0  0  0  0  0
  1  2  1  0
  2  3  2  0
  4  2  1  0
  5  4  1  0
  6  5  1  0
  7  6  1  0
  8  7  1  0
  8  9  1  6
 10  8  1  0
 10 11  2  0
 13 12  1  0
 14 13  1  0
 14 15  1  0
 16 17  1  0
 16 15  1  1
 17 10  1  0
 18 16  1  0
 19 18  2  0
 20 18  1  0
 20 21  1  0
 22 21  1  0
 23 22  1  0
 24 23  1  0
 24 20  1  0
 24 25  1  1
 25 26  1  0
 27 25  2  0
M  END
$$$$
