LTE.pdb
     RDKit          3D

 25 24  0  0  1  0  0  0  0  0999 V2000
   30.8278  -15.5058  -18.5020 C   0  0  0  0  0  0  0  0  0  0  0  0
   30.7958  -16.6763  -19.4878 C   0  0  2  0  0  0  0  0  0  0  0  0
   31.6512  -16.3009  -20.6519 C   0  0  0  0  0  0  0  0  0  0  0  0
   29.3645  -17.0137  -19.8636 C   0  0  0  0  0  0  0  0  0  0  0  0
   28.5973  -17.3263  -18.6135 C   0  0  2  0  0  0  0  0  0  0  0  0
   29.2430  -18.4191  -17.9171 N   0  0  0  0  0  0  0  0  0  0  0  0
   27.1635  -17.5706  -18.8445 C   0  0  0  0  0  0  0  0  0  0  0  0
   26.4879  -16.7538  -19.5222 O   0  0  0  0  0  0  0  0  0  0  0  0
   25.5077  -20.2876  -20.7292 C   0  0  0  0  0  0  0  0  0  0  0  0
   24.9222  -20.3180  -19.3572 C   0  0  1  0  0  0  0  0  0  0  0  0
   25.5126  -21.3923  -18.6556 O   0  0  0  0  0  0  0  0  0  0  0  0
   25.0964  -19.0227  -18.5965 C   0  0  2  0  0  0  0  0  0  0  0  0
   26.4627  -18.6999  -18.3410 N   0  0  0  0  0  0  0  0  0  0  0  0
   24.3206  -19.1504  -17.3298 C   0  0  0  0  0  0  0  0  0  0  0  0
   24.8873  -19.3917  -16.2328 O   0  0  0  0  0  0  0  0  0  0  0  0
   22.9270  -19.0003  -17.3486 N   0  0  0  0  0  0  0  0  0  0  0  0
   22.0906  -19.1970  -16.1173 C   0  0  1  0  0  0  0  0  0  0  0  0
   20.7095  -19.3054  -16.6316 C   0  0  0  0  0  0  0  0  0  0  0  0
   19.6007  -19.6531  -15.7314 C   0  0  0  0  0  0  0  0  0  0  0  0
   19.0475  -18.6294  -14.8606 C   0  0  0  0  0  0  0  0  0  0  0  0
   19.3225  -17.4179  -15.0505 O   0  0  0  0  0  0  0  0  0  0  0  0
   22.6307  -20.3405  -15.3832 C   0  0  0  0  0  0  0  0  0  0  0  0
   22.9737  -21.5447  -16.0298 O   0  0  0  0  0  0  0  0  0  0  0  0
   18.2057  -18.9388  -13.8029 O   0  0  0  0  0  0  0  0  0  0  0  0
   22.8128  -20.3068  -14.1581 O   0  0  0  0  0  0  0  0  0  0  0  0
  2  1  1  1
  2  3  1  0
  4  5  1  0
  4  2  1  0
  5  6  1  6
  7  5  1  0
  7  8  2  0
 10  9  1  6
 10 12  1  0
 11 10  1  0
 12 13  1  1
 13  7  1  0
 14 12  1  0
 15 14  2  0
 16 14  1  0
 17 16  1  0
 17 22  1  0
 17 18  1  6
 19 20  1  0
 19 18  1  0
 20 21  2  0
 22 23  1  0
 24 20  1  0
 25 22  2  0
M  END
$$$$
