LTE.pdb
     RDKit          3D

 25 24  0  0  1  0  0  0  0  0999 V2000
   19.7686  -12.3944  -20.8971 C   0  0  0  0  0  0  0  0  0  0  0  0
   18.8370  -12.8369  -19.7661 C   0  0  2  0  0  0  0  0  0  0  0  0
   17.4360  -12.6677  -20.2520 C   0  0  0  0  0  0  0  0  0  0  0  0
   19.1416  -12.0643  -18.4957 C   0  0  0  0  0  0  0  0  0  0  0  0
   20.5463  -12.3707  -18.0687 C   0  0  2  0  0  0  0  0  0  0  0  0
   20.6820  -13.7968  -17.8594 N   0  0  0  0  0  0  0  0  0  0  0  0
   20.9975  -11.5828  -16.9093 C   0  0  0  0  0  0  0  0  0  0  0  0
   20.5637  -11.8516  -15.7593 O   0  0  0  0  0  0  0  0  0  0  0  0
   24.2720  -11.1545  -15.2534 C   0  0  0  0  0  0  0  0  0  0  0  0
   23.8321   -9.7821  -15.6397 C   0  0  1  0  0  0  0  0  0  0  0  0
   24.5797   -9.3877  -16.7713 O   0  0  0  0  0  0  0  0  0  0  0  0
   22.3490   -9.6776  -15.9158 C   0  0  2  0  0  0  0  0  0  0  0  0
   21.9186  -10.5039  -16.9967 N   0  0  0  0  0  0  0  0  0  0  0  0
   22.0519   -8.2401  -16.1770 C   0  0  0  0  0  0  0  0  0  0  0  0
   21.6466   -7.8459  -17.3009 O   0  0  0  0  0  0  0  0  0  0  0  0
   22.2243   -7.2966  -15.1549 N   0  0  0  0  0  0  0  0  0  0  0  0
   21.8325   -5.8576  -15.3284 C   0  0  1  0  0  0  0  0  0  0  0  0
   20.3778   -5.9070  -15.5835 C   0  0  0  0  0  0  0  0  0  0  0  0
   19.5703   -4.6791  -15.5520 C   0  0  0  0  0  0  0  0  0  0  0  0
   18.1360   -4.7687  -15.7688 C   0  0  0  0  0  0  0  0  0  0  0  0
   17.5930   -5.8838  -15.9715 O   0  0  0  0  0  0  0  0  0  0  0  0
   22.2880   -5.1209  -14.1503 C   0  0  0  0  0  0  0  0  0  0  0  0
   22.6047   -3.7488  -14.2076 O   0  0  0  0  0  0  0  0  0  0  0  0
   17.3185   -3.6485  -15.7593 O   0  0  0  0  0  0  0  0  0  0  0  0
   22.4180   -5.6661  -13.0454 O   0  0  0  0  0  0  0  0  0  0  0  0
  2  1  1  6
  2  3  1  0
  4  5  1  0
  4  2  1  0
  5  6  1  1
  7  5  1  0
  7  8  2  0
 10  9  1  6
 10 12  1  0
 11 10  1  0
 12 13  1  6
 13  7  1  0
 14 12  1  0
 15 14  2  0
 16 14  1  0
 17 16  1  0
 17 22  1  0
 17 18  1  1
 19 20  1  0
 19 18  1  0
 20 21  2  0
 22 23  1  0
 24 20  1  0
 25 22  2  0
M  END
$$$$
