LTE.pdb
     RDKit          3D

 25 24  0  0  1  0  0  0  0  0999 V2000
   15.6177  -11.2310  -18.4575 C   0  0  0  0  0  0  0  0  0  0  0  0
   16.6636  -12.3290  -18.2491 C   0  0  2  0  0  0  0  0  0  0  0  0
   15.9430  -13.6360  -18.2523 C   0  0  0  0  0  0  0  0  0  0  0  0
   17.4574  -12.0710  -16.9815 C   0  0  0  0  0  0  0  0  0  0  0  0
   18.8079  -11.5377  -17.3569 C   0  0  2  0  0  0  0  0  0  0  0  0
   19.5541  -12.5687  -18.0470 N   0  0  0  0  0  0  0  0  0  0  0  0
   19.5526  -10.9617  -16.2244 C   0  0  0  0  0  0  0  0  0  0  0  0
   19.7395  -11.6431  -15.1834 O   0  0  0  0  0  0  0  0  0  0  0  0
   23.0272   -9.8441  -16.1655 C   0  0  0  0  0  0  0  0  0  0  0  0
   22.1846   -9.7446  -14.9382 C   0  0  1  0  0  0  0  0  0  0  0  0
   22.9325   -9.0667  -13.9504 O   0  0  0  0  0  0  0  0  0  0  0  0
   20.8577   -9.0572  -15.1697 C   0  0  2  0  0  0  0  0  0  0  0  0
   20.0942   -9.6477  -16.2207 N   0  0  0  0  0  0  0  0  0  0  0  0
   21.1501   -7.6221  -15.4486 C   0  0  0  0  0  0  0  0  0  0  0  0
   21.6467   -7.2529  -16.5440 O   0  0  0  0  0  0  0  0  0  0  0  0
   20.8698   -6.6526  -14.4759 N   0  0  0  0  0  0  0  0  0  0  0  0
   21.2008   -5.2026  -14.6817 C   0  0  1  0  0  0  0  0  0  0  0  0
   19.8871   -4.5261  -14.6679 C   0  0  0  0  0  0  0  0  0  0  0  0
   19.0098   -4.5708  -15.8465 C   0  0  0  0  0  0  0  0  0  0  0  0
   17.7054   -3.9331  -15.7833 C   0  0  0  0  0  0  0  0  0  0  0  0
   16.7263   -4.4278  -16.3967 O   0  0  0  0  0  0  0  0  0  0  0  0
   22.1731   -4.8127  -13.6615 C   0  0  0  0  0  0  0  0  0  0  0  0
   22.9193   -3.6214  -13.7620 O   0  0  0  0  0  0  0  0  0  0  0  0
   17.4873   -2.7734  -15.0548 O   0  0  0  0  0  0  0  0  0  0  0  0
   22.3885   -5.5097  -12.6601 O   0  0  0  0  0  0  0  0  0  0  0  0
  2  1  1  1
  2  3  1  0
  4  5  1  0
  4  2  1  0
  5  6  1  1
  7  5  1  0
  7  8  2  0
 10  9  1  6
 10 12  1  0
 11 10  1  0
 12 13  1  6
 13  7  1  0
 14 12  1  0
 15 14  2  0
 16 14  1  0
 17 16  1  0
 17 22  1  0
 17 18  1  1
 19 20  1  0
 19 18  1  0
 20 21  2  0
 22 23  1  0
 24 20  1  0
 25 22  2  0
M  END
$$$$
