LTE.pdb
     RDKit          3D

 25 24  0  0  1  0  0  0  0  0999 V2000
   19.3731  -17.2958  -17.6116 C   0  0  0  0  0  0  0  0  0  0  0  0
   19.2768  -16.7525  -19.0394 C   0  0  2  0  0  0  0  0  0  0  0  0
   19.5291  -17.8939  -19.9674 C   0  0  0  0  0  0  0  0  0  0  0  0
   20.2311  -15.5876  -19.2285 C   0  0  0  0  0  0  0  0  0  0  0  0
   19.8393  -14.4845  -18.2910 C   0  0  2  0  0  0  0  0  0  0  0  0
   18.4030  -14.3077  -18.3346 N   0  0  0  0  0  0  0  0  0  0  0  0
   20.5718  -13.2272  -18.5174 C   0  0  0  0  0  0  0  0  0  0  0  0
   21.8298  -13.2265  -18.5322 O   0  0  0  0  0  0  0  0  0  0  0  0
   18.8760   -9.9713  -20.6611 C   0  0  0  0  0  0  0  0  0  0  0  0
   20.3241  -10.2050  -20.3880 C   0  0  1  0  0  0  0  0  0  0  0  0
   21.0096   -8.9891  -20.6036 O   0  0  0  0  0  0  0  0  0  0  0  0
   20.5998  -10.7351  -18.9989 C   0  0  2  0  0  0  0  0  0  0  0  0
   19.9405  -11.9713  -18.7276 N   0  0  0  0  0  0  0  0  0  0  0  0
   20.1876   -9.6748  -18.0352 C   0  0  0  0  0  0  0  0  0  0  0  0
   18.9938   -9.5590  -17.6556 O   0  0  0  0  0  0  0  0  0  0  0  0
   21.1432   -8.7804  -17.5335 N   0  0  0  0  0  0  0  0  0  0  0  0
   20.8100   -7.7798  -16.4647 C   0  0  1  0  0  0  0  0  0  0  0  0
   20.3651   -8.6051  -15.3226 C   0  0  0  0  0  0  0  0  0  0  0  0
   20.1550   -8.0006  -13.9992 C   0  0  0  0  0  0  0  0  0  0  0  0
   19.6432   -8.8248  -12.9171 C   0  0  0  0  0  0  0  0  0  0  0  0
   19.4627  -10.0567  -13.0880 O   0  0  0  0  0  0  0  0  0  0  0  0
   21.9798   -6.9251  -16.2666 C   0  0  0  0  0  0  0  0  0  0  0  0
   21.9244   -5.7602  -15.4754 O   0  0  0  0  0  0  0  0  0  0  0  0
   19.3395   -8.2980  -11.6708 O   0  0  0  0  0  0  0  0  0  0  0  0
   23.0757   -7.1828  -16.7839 O   0  0  0  0  0  0  0  0  0  0  0  0
  2  1  1  1
  2  3  1  0
  4  5  1  0
  4  2  1  0
  5  6  1  6
  7  5  1  0
  7  8  2  0
 10  9  1  1
 10 12  1  0
 11 10  1  0
 12 13  1  1
 13  7  1  0
 14 12  1  0
 15 14  2  0
 16 14  1  0
 17 16  1  0
 17 22  1  0
 17 18  1  1
 19 20  1  0
 19 18  1  0
 20 21  2  0
 22 23  1  0
 24 20  1  0
 25 22  2  0
M  END
$$$$
