LTE.pdb
     RDKit          3D

 25 24  0  0  1  0  0  0  0  0999 V2000
   26.6303  -18.4053  -13.8291 C   0  0  0  0  0  0  0  0  0  0  0  0
   27.5935  -19.4770  -13.3129 C   0  0  2  0  0  0  0  0  0  0  0  0
   28.8011  -19.4492  -14.1897 C   0  0  0  0  0  0  0  0  0  0  0  0
   26.9048  -20.8285  -13.2625 C   0  0  0  0  0  0  0  0  0  0  0  0
   25.6319  -20.6936  -12.4811 C   0  0  2  0  0  0  0  0  0  0  0  0
   25.7802  -21.3635  -11.2063 N   0  0  0  0  0  0  0  0  0  0  0  0
   24.4357  -21.1360  -13.2174 C   0  0  0  0  0  0  0  0  0  0  0  0
   24.5437  -21.9844  -14.1402 O   0  0  0  0  0  0  0  0  0  0  0  0
   21.3820  -22.9075  -11.8436 C   0  0  0  0  0  0  0  0  0  0  0  0
   20.9251  -21.6690  -12.5389 C   0  0  1  0  0  0  0  0  0  0  0  0
   20.6471  -20.6947  -11.5548 O   0  0  0  0  0  0  0  0  0  0  0  0
   21.9191  -21.1405  -13.5486 C   0  0  2  0  0  0  0  0  0  0  0  0
   23.1233  -20.6589  -12.9533 N   0  0  0  0  0  0  0  0  0  0  0  0
   21.2291  -20.0708  -14.3246 C   0  0  0  0  0  0  0  0  0  0  0  0
   21.5067  -18.8549  -14.1590 O   0  0  0  0  0  0  0  0  0  0  0  0
   20.2465  -20.4150  -15.2631 N   0  0  0  0  0  0  0  0  0  0  0  0
   19.5504  -19.3804  -16.0995 C   0  0  1  0  0  0  0  0  0  0  0  0
   19.6621  -19.8961  -17.4798 C   0  0  0  0  0  0  0  0  0  0  0  0
   19.0370  -19.1782  -18.5999 C   0  0  0  0  0  0  0  0  0  0  0  0
   19.0841  -19.7620  -19.9300 C   0  0  0  0  0  0  0  0  0  0  0  0
   18.1733  -20.5373  -20.3157 O   0  0  0  0  0  0  0  0  0  0  0  0
   18.2066  -19.1900  -15.5552 C   0  0  0  0  0  0  0  0  0  0  0  0
   17.4634  -18.0184  -15.8021 O   0  0  0  0  0  0  0  0  0  0  0  0
   20.1158  -19.4922  -20.8164 O   0  0  0  0  0  0  0  0  0  0  0  0
   17.6563  -20.0482  -14.8512 O   0  0  0  0  0  0  0  0  0  0  0  0
  2  1  1  6
  2  3  1  0
  4  5  1  0
  4  2  1  0
  5  6  1  1
  7  5  1  0
  7  8  2  0
 10  9  1  1
 10 12  1  0
 11 10  1  0
 12 13  1  1
 13  7  1  0
 14 12  1  0
 15 14  2  0
 16 14  1  0
 17 16  1  0
 17 22  1  0
 17 18  1  6
 19 20  1  0
 19 18  1  0
 20 21  2  0
 22 23  1  0
 24 20  1  0
 25 22  2  0
M  END
$$$$
