LTE.pdb
     RDKit          3D

 25 24  0  0  1  0  0  0  0  0999 V2000
   23.6040  -13.7491  -15.0020 C   0  0  0  0  0  0  0  0  0  0  0  0
   24.1794  -13.6374  -16.4160 C   0  0  2  0  0  0  0  0  0  0  0  0
   25.6554  -13.4605  -16.2828 C   0  0  0  0  0  0  0  0  0  0  0  0
   23.4954  -12.5183  -17.1796 C   0  0  0  0  0  0  0  0  0  0  0  0
   22.0158  -12.7636  -17.1747 C   0  0  2  0  0  0  0  0  0  0  0  0
   21.7161  -13.8953  -18.0263 N   0  0  0  0  0  0  0  0  0  0  0  0
   21.2174  -11.5733  -17.5129 C   0  0  0  0  0  0  0  0  0  0  0  0
   21.3713  -11.0089  -18.6267 O   0  0  0  0  0  0  0  0  0  0  0  0
   17.6648  -10.9813  -18.1807 C   0  0  0  0  0  0  0  0  0  0  0  0
   18.0070  -10.0864  -17.0370 C   0  0  1  0  0  0  0  0  0  0  0  0
   17.4960  -10.6722  -15.8577 O   0  0  0  0  0  0  0  0  0  0  0  0
   19.4890   -9.8177  -16.9015 C   0  0  2  0  0  0  0  0  0  0  0  0
   20.2527  -10.9953  -16.6439 N   0  0  0  0  0  0  0  0  0  0  0  0
   19.6547   -8.8119  -15.8137 C   0  0  0  0  0  0  0  0  0  0  0  0
   20.2407   -9.0972  -14.7376 O   0  0  0  0  0  0  0  0  0  0  0  0
   19.1500   -7.5150  -15.9817 N   0  0  0  0  0  0  0  0  0  0  0  0
   19.3404   -6.4482  -14.9425 C   0  0  1  0  0  0  0  0  0  0  0  0
   20.8065   -6.2860  -14.8549 C   0  0  0  0  0  0  0  0  0  0  0  0
   21.4565   -5.0690  -15.3621 C   0  0  0  0  0  0  0  0  0  0  0  0
   22.3358   -4.3165  -14.4830 C   0  0  0  0  0  0  0  0  0  0  0  0
   22.4906   -4.6690  -13.2866 O   0  0  0  0  0  0  0  0  0  0  0  0
   18.5536   -5.2826  -15.3433 C   0  0  0  0  0  0  0  0  0  0  0  0
   18.2710   -4.2322  -14.4472 O   0  0  0  0  0  0  0  0  0  0  0  0
   23.0314   -3.1987  -14.9184 O   0  0  0  0  0  0  0  0  0  0  0  0
   18.0973   -5.1615  -16.4888 O   0  0  0  0  0  0  0  0  0  0  0  0
  2  1  1  1
  2  3  1  0
  4  5  1  0
  4  2  1  0
  5  6  1  6
  7  5  1  0
  7  8  2  0
 10  9  1  6
 10 12  1  0
 11 10  1  0
 12 13  1  1
 13  7  1  0
 14 12  1  0
 15 14  2  0
 16 14  1  0
 17 16  1  0
 17 22  1  0
 17 18  1  6
 19 20  1  0
 19 18  1  0
 20 21  2  0
 22 23  1  0
 24 20  1  0
 25 22  2  0
M  END
$$$$
