SED.pdb
     RDKit          3D

 24 23  0  0  1  0  0  0  0  0999 V2000
   23.2345  -12.3095  -18.0941 O   0  0  0  0  0  0  0  0  0  0  0  0
   22.0306  -11.7768  -17.7089 C   0  0  0  0  0  0  0  0  0  0  0  0
   20.8847  -12.2130  -18.6003 C   0  0  2  0  0  0  0  0  0  0  0  0
   21.0897  -11.7763  -19.9458 N   0  0  0  0  0  0  0  0  0  0  0  0
   19.6069  -11.7139  -18.0228 C   0  0  0  0  0  0  0  0  0  0  0  0
   18.9580  -10.8461  -18.6607 O   0  0  0  0  0  0  0  0  0  0  0  0
   19.0845  -12.1659  -16.7923 N   0  0  0  0  0  0  0  0  0  0  0  0
   17.8246  -11.7013  -16.3079 C   0  0  1  0  0  0  0  0  0  0  0  0
   17.2355  -12.5703  -15.2287 C   0  0  0  0  0  0  0  0  0  0  0  0
   16.7158  -13.8827  -15.6911 C   0  0  0  0  0  0  0  0  0  0  0  0
   16.2456  -14.7802  -14.6274 C   0  0  0  0  0  0  0  0  0  0  0  0
   16.9486  -15.6545  -14.0632 O   0  0  0  0  0  0  0  0  0  0  0  0
   18.0223  -10.3528  -15.6960 C   0  0  0  0  0  0  0  0  0  0  0  0
   19.1158  -10.0676  -15.1645 O   0  0  0  0  0  0  0  0  0  0  0  0
   14.9105  -14.6330  -14.2277 O   0  0  0  0  0  0  0  0  0  0  0  0
   17.0245   -9.3613  -15.6831 N   0  0  0  0  0  0  0  0  0  0  0  0
   17.2384   -8.0048  -15.1999 C   0  0  1  0  0  0  0  0  0  0  0  0
   18.4156   -7.3568  -15.8482 C   0  0  0  0  0  0  0  0  0  0  0  0
   18.5229   -5.9565  -15.4032 C   0  0  0  0  0  0  0  0  0  0  0  0
   18.3302   -5.6508  -14.2194 O   0  0  0  0  0  0  0  0  0  0  0  0
   15.9656   -7.2785  -15.3268 C   0  0  0  0  0  0  0  0  0  0  0  0
   14.9738   -7.8346  -15.8394 O   0  0  0  0  0  0  0  0  0  0  0  0
   18.8425   -4.9782  -16.3216 O   0  0  0  0  0  0  0  0  0  0  0  0
   15.8412   -5.9772  -14.8854 O   0  0  0  0  0  0  0  0  0  0  0  0
  2  1  1  0
  2  3  1  0
  3  4  1  6
  5  3  1  0
  5  6  2  0
  7  5  1  0
  8  7  1  0
  8 13  1  0
  8  9  1  1
 10 11  1  0
 10  9  1  0
 11 12  2  0
 13 16  1  0
 14 13  2  0
 15 11  1  0
 16 17  1  0
 17 21  1  0
 17 18  1  6
 19 18  1  0
 20 19  2  0
 21 22  2  0
 21 24  1  0
 23 19  1  0
M  END
$$$$
