SED.pdb
     RDKit          3D

 24 23  0  0  1  0  0  0  0  0999 V2000
   14.5632   -5.9271  -17.5330 O   0  0  0  0  0  0  0  0  0  0  0  0
   13.2645   -6.3666  -17.4896 C   0  0  0  0  0  0  0  0  0  0  0  0
   13.1571   -7.8486  -17.1897 C   0  0  2  0  0  0  0  0  0  0  0  0
   11.7930   -8.2754  -17.2067 N   0  0  0  0  0  0  0  0  0  0  0  0
   13.8304   -8.1287  -15.8922 C   0  0  0  0  0  0  0  0  0  0  0  0
   13.3635   -7.6060  -14.8482 O   0  0  0  0  0  0  0  0  0  0  0  0
   14.9694   -8.9530  -15.7730 N   0  0  0  0  0  0  0  0  0  0  0  0
   15.6222   -9.1362  -14.5166 C   0  0  1  0  0  0  0  0  0  0  0  0
   15.6927  -10.5746  -14.0775 C   0  0  0  0  0  0  0  0  0  0  0  0
   14.3938  -11.1759  -13.6805 C   0  0  0  0  0  0  0  0  0  0  0  0
   14.4424  -12.6045  -13.3414 C   0  0  0  0  0  0  0  0  0  0  0  0
   13.4541  -13.2909  -12.9822 O   0  0  0  0  0  0  0  0  0  0  0  0
   17.0356   -8.6702  -14.6467 C   0  0  0  0  0  0  0  0  0  0  0  0
   17.6475   -8.8392  -15.7222 O   0  0  0  0  0  0  0  0  0  0  0  0
   15.6941  -13.2279  -13.4321 O   0  0  0  0  0  0  0  0  0  0  0  0
   17.7346   -8.0365  -13.6033 N   0  0  0  0  0  0  0  0  0  0  0  0
   19.1232   -7.6105  -13.7019 C   0  0  1  0  0  0  0  0  0  0  0  0
   20.0321   -8.7374  -14.0628 C   0  0  0  0  0  0  0  0  0  0  0  0
   21.4049   -8.2338  -14.2426 C   0  0  0  0  0  0  0  0  0  0  0  0
   21.7739   -7.1881  -13.6926 O   0  0  0  0  0  0  0  0  0  0  0  0
   19.1713   -6.4454  -14.5985 C   0  0  0  0  0  0  0  0  0  0  0  0
   18.1223   -5.9980  -15.1035 O   0  0  0  0  0  0  0  0  0  0  0  0
   22.2856   -8.9406  -15.0346 O   0  0  0  0  0  0  0  0  0  0  0  0
   20.3675   -5.8266  -14.8985 O   0  0  0  0  0  0  0  0  0  0  0  0
  2  1  1  0
  2  3  1  0
  3  4  1  1
  5  3  1  0
  5  6  2  0
  7  5  1  0
  8  7  1  0
  8 13  1  0
  8  9  1  6
 10 11  1  0
 10  9  1  0
 11 12  2  0
 13 16  1  0
 14 13  2  0
 15 11  1  0
 16 17  1  0
 17 21  1  0
 17 18  1  6
 19 18  1  0
 20 19  2  0
 21 22  2  0
 21 24  1  0
 23 19  1  0
M  END
$$$$
