SED.pdb
     RDKit          3D

 24 23  0  0  1  0  0  0  0  0999 V2000
   25.2214  -11.8119  -16.2148 O   0  0  0  0  0  0  0  0  0  0  0  0
   24.3336  -12.4472  -15.3843 C   0  0  0  0  0  0  0  0  0  0  0  0
   23.0627  -12.8669  -16.0961 C   0  0  2  0  0  0  0  0  0  0  0  0
   23.3616  -13.6332  -17.2652 N   0  0  0  0  0  0  0  0  0  0  0  0
   22.2541  -11.6538  -16.3957 C   0  0  0  0  0  0  0  0  0  0  0  0
   22.2339  -11.2219  -17.5765 O   0  0  0  0  0  0  0  0  0  0  0  0
   21.5065  -10.9610  -15.4197 N   0  0  0  0  0  0  0  0  0  0  0  0
   20.6578   -9.8694  -15.7746 C   0  0  1  0  0  0  0  0  0  0  0  0
   19.2537  -10.0006  -15.2472 C   0  0  0  0  0  0  0  0  0  0  0  0
   18.2972   -8.9779  -15.7427 C   0  0  0  0  0  0  0  0  0  0  0  0
   16.9519   -9.0422  -15.1560 C   0  0  0  0  0  0  0  0  0  0  0  0
   16.5172   -8.2651  -14.2705 O   0  0  0  0  0  0  0  0  0  0  0  0
   21.2154   -8.6222  -15.1702 C   0  0  0  0  0  0  0  0  0  0  0  0
   21.8199   -8.6788  -14.0789 O   0  0  0  0  0  0  0  0  0  0  0  0
   16.1072  -10.0529  -15.6342 O   0  0  0  0  0  0  0  0  0  0  0  0
   21.0966   -7.3568  -15.7732 N   0  0  0  0  0  0  0  0  0  0  0  0
   21.7475   -6.1562  -15.2688 C   0  0  1  0  0  0  0  0  0  0  0  0
   21.9119   -5.1191  -16.3288 C   0  0  0  0  0  0  0  0  0  0  0  0
   22.6282   -3.9542  -15.7809 C   0  0  0  0  0  0  0  0  0  0  0  0
   22.0424   -2.8800  -15.5935 O   0  0  0  0  0  0  0  0  0  0  0  0
   21.0190   -5.7235  -14.0665 C   0  0  0  0  0  0  0  0  0  0  0  0
   21.5842   -5.0127  -13.2116 O   0  0  0  0  0  0  0  0  0  0  0  0
   23.9683   -4.0678  -15.4745 O   0  0  0  0  0  0  0  0  0  0  0  0
   19.7054   -6.0911  -13.8590 O   0  0  0  0  0  0  0  0  0  0  0  0
  2  1  1  0
  2  3  1  0
  3  4  1  6
  5  3  1  0
  5  6  2  0
  7  5  1  0
  8  7  1  0
  8 13  1  0
  8  9  1  1
 10 11  1  0
 10  9  1  0
 11 12  2  0
 13 16  1  0
 14 13  2  0
 15 11  1  0
 16 17  1  0
 17 21  1  0
 17 18  1  6
 19 18  1  0
 20 19  2  0
 21 22  2  0
 21 24  1  0
 23 19  1  0
M  END
$$$$
