SED.pdb
     RDKit          3D

 24 23  0  0  1  0  0  0  0  0999 V2000
   15.4205   -9.6433  -16.6811 O   0  0  0  0  0  0  0  0  0  0  0  0
   16.5816   -9.4032  -15.9915 C   0  0  0  0  0  0  0  0  0  0  0  0
   17.5644  -10.5539  -16.0798 C   0  0  2  0  0  0  0  0  0  0  0  0
   17.1036  -11.6779  -15.3264 N   0  0  0  0  0  0  0  0  0  0  0  0
   18.9049  -10.0787  -15.6407 C   0  0  0  0  0  0  0  0  0  0  0  0
   19.1802  -10.1075  -14.4141 O   0  0  0  0  0  0  0  0  0  0  0  0
   19.8858   -9.5961  -16.5329 N   0  0  0  0  0  0  0  0  0  0  0  0
   21.1519   -9.1347  -16.0617 C   0  0  1  0  0  0  0  0  0  0  0  0
   22.3010   -9.5008  -16.9630 C   0  0  0  0  0  0  0  0  0  0  0  0
   22.6565  -10.9430  -16.9751 C   0  0  0  0  0  0  0  0  0  0  0  0
   23.7616  -11.3082  -17.8716 C   0  0  0  0  0  0  0  0  0  0  0  0
   24.9803  -11.2156  -17.5832 O   0  0  0  0  0  0  0  0  0  0  0  0
   21.1211   -7.6419  -16.0108 C   0  0  0  0  0  0  0  0  0  0  0  0
   20.6545   -6.9983  -16.9741 O   0  0  0  0  0  0  0  0  0  0  0  0
   23.4073  -11.7936  -19.1375 O   0  0  0  0  0  0  0  0  0  0  0  0
   21.5985   -6.9007  -14.9147 N   0  0  0  0  0  0  0  0  0  0  0  0
   21.4837   -5.4535  -14.8053 C   0  0  1  0  0  0  0  0  0  0  0  0
   20.0860   -4.9824  -15.0308 C   0  0  0  0  0  0  0  0  0  0  0  0
   20.0126   -3.5242  -14.8339 C   0  0  0  0  0  0  0  0  0  0  0  0
   20.8580   -2.7730  -15.3369 O   0  0  0  0  0  0  0  0  0  0  0  0
   22.0893   -5.0518  -13.5264 C   0  0  0  0  0  0  0  0  0  0  0  0
   22.4990   -5.9168  -12.7267 O   0  0  0  0  0  0  0  0  0  0  0  0
   18.9868   -2.9952  -14.0786 O   0  0  0  0  0  0  0  0  0  0  0  0
   22.2166   -3.7209  -13.1857 O   0  0  0  0  0  0  0  0  0  0  0  0
  2  1  1  0
  2  3  1  0
  3  4  1  1
  5  3  1  0
  5  6  2  0
  7  5  1  0
  8  7  1  0
  8 13  1  0
  8  9  1  6
 10 11  1  0
 10  9  1  0
 11 12  2  0
 13 16  1  0
 14 13  2  0
 15 11  1  0
 16 17  1  0
 17 21  1  0
 17 18  1  1
 19 18  1  0
 20 19  2  0
 21 22  2  0
 21 24  1  0
 23 19  1  0
M  END
$$$$
