SED.pdb
     RDKit          3D

 24 23  0  0  1  0  0  0  0  0999 V2000
   34.1977   -4.6475  -13.7386 O   0  0  0  0  0  0  0  0  0  0  0  0
   33.8395   -5.2350  -14.9252 C   0  0  0  0  0  0  0  0  0  0  0  0
   34.6190   -6.5036  -15.2098 C   0  0  2  0  0  0  0  0  0  0  0  0
   36.0080   -6.2194  -15.3918 N   0  0  0  0  0  0  0  0  0  0  0  0
   34.0140   -7.1885  -16.3847 C   0  0  0  0  0  0  0  0  0  0  0  0
   34.4988   -6.9678  -17.5238 O   0  0  0  0  0  0  0  0  0  0  0  0
   32.9211   -8.0756  -16.2858 N   0  0  0  0  0  0  0  0  0  0  0  0
   32.3215   -8.6438  -17.4501 C   0  0  1  0  0  0  0  0  0  0  0  0
   32.2715  -10.1485  -17.4297 C   0  0  0  0  0  0  0  0  0  0  0  0
   31.5713  -10.7705  -18.5825 C   0  0  0  0  0  0  0  0  0  0  0  0
   31.5354  -12.2392  -18.5753 C   0  0  0  0  0  0  0  0  0  0  0  0
   30.6924  -12.9395  -19.1883 O   0  0  0  0  0  0  0  0  0  0  0  0
   30.9032   -8.1804  -17.5245 C   0  0  0  0  0  0  0  0  0  0  0  0
   30.2120   -8.1308  -16.4856 O   0  0  0  0  0  0  0  0  0  0  0  0
   32.5242  -12.8866  -17.8223 O   0  0  0  0  0  0  0  0  0  0  0  0
   30.2857   -7.7870  -18.7256 N   0  0  0  0  0  0  0  0  0  0  0  0
   28.9055   -7.3323  -18.8144 C   0  0  1  0  0  0  0  0  0  0  0  0
   28.6839   -6.4357  -19.9862 C   0  0  0  0  0  0  0  0  0  0  0  0
   27.2928   -5.9508  -19.9880 C   0  0  0  0  0  0  0  0  0  0  0  0
   26.5961   -6.0191  -18.9672 O   0  0  0  0  0  0  0  0  0  0  0  0
   28.0384   -8.5188  -18.7514 C   0  0  0  0  0  0  0  0  0  0  0  0
   28.4449   -9.6171  -19.1807 O   0  0  0  0  0  0  0  0  0  0  0  0
   26.7654   -5.4149  -21.1444 O   0  0  0  0  0  0  0  0  0  0  0  0
   26.7671   -8.4443  -18.2205 O   0  0  0  0  0  0  0  0  0  0  0  0
  2  1  1  0
  2  3  1  0
  3  4  1  6
  5  3  1  0
  5  6  2  0
  7  5  1  0
  8  7  1  0
  8 13  1  0
  8  9  1  1
 10 11  1  0
 10  9  1  0
 11 12  2  0
 13 16  1  0
 14 13  2  0
 15 11  1  0
 16 17  1  0
 17 21  1  0
 17 18  1  6
 19 18  1  0
 20 19  2  0
 21 22  2  0
 21 24  1  0
 23 19  1  0
M  END
$$$$
