SED.pdb
     RDKit          3D

 24 23  0  0  1  0  0  0  0  0999 V2000
    9.7889  -12.1742  -11.0318 O   0  0  0  0  0  0  0  0  0  0  0  0
   11.0668  -11.8018  -10.7003 C   0  0  0  0  0  0  0  0  0  0  0  0
   12.1197  -12.6774  -11.3505 C   0  0  2  0  0  0  0  0  0  0  0  0
   12.0724  -14.0067  -10.8273 N   0  0  0  0  0  0  0  0  0  0  0  0
   13.4529  -12.0388  -11.1767 C   0  0  0  0  0  0  0  0  0  0  0  0
   14.0340  -12.1540  -10.0676 O   0  0  0  0  0  0  0  0  0  0  0  0
   14.1004  -11.3085  -12.1958 N   0  0  0  0  0  0  0  0  0  0  0  0
   15.3728  -10.6998  -11.9758 C   0  0  1  0  0  0  0  0  0  0  0  0
   16.1877  -10.5345  -13.2311 C   0  0  0  0  0  0  0  0  0  0  0  0
   17.5070   -9.8785  -13.0431 C   0  0  0  0  0  0  0  0  0  0  0  0
   18.3154   -9.7370  -14.2616 C   0  0  0  0  0  0  0  0  0  0  0  0
   19.2727  -10.4853  -14.5787 O   0  0  0  0  0  0  0  0  0  0  0  0
   15.1511   -9.3236  -11.4384 C   0  0  0  0  0  0  0  0  0  0  0  0
   14.2205   -8.6241  -11.8906 O   0  0  0  0  0  0  0  0  0  0  0  0
   17.9763   -8.6823  -15.1198 O   0  0  0  0  0  0  0  0  0  0  0  0
   15.9484   -8.7558  -10.4282 N   0  0  0  0  0  0  0  0  0  0  0  0
   15.7439   -7.4175   -9.8928 C   0  0  1  0  0  0  0  0  0  0  0  0
   15.9162   -7.3729   -8.4114 C   0  0  0  0  0  0  0  0  0  0  0  0
   15.7051   -5.9983   -7.9253 C   0  0  0  0  0  0  0  0  0  0  0  0
   16.6381   -5.3481   -7.4367 O   0  0  0  0  0  0  0  0  0  0  0  0
   16.5959   -6.4943  -10.6580 C   0  0  0  0  0  0  0  0  0  0  0  0
   16.4731   -5.2615  -10.5143 O   0  0  0  0  0  0  0  0  0  0  0  0
   14.4499   -5.4339   -8.0184 O   0  0  0  0  0  0  0  0  0  0  0  0
   17.5419   -6.9672  -11.5441 O   0  0  0  0  0  0  0  0  0  0  0  0
  2  1  1  0
  2  3  1  0
  3  4  1  1
  5  3  1  0
  5  6  2  0
  7  5  1  0
  8  7  1  0
  8 13  1  0
  8  9  1  6
 10 11  1  0
 10  9  1  0
 11 12  2  0
 13 16  1  0
 14 13  2  0
 15 11  1  0
 16 17  1  0
 17 21  1  0
 17 18  1  1
 19 18  1  0
 20 19  2  0
 21 22  2  0
 21 24  1  0
 23 19  1  0
M  END
$$$$
