SED.pdb
     RDKit          3D

 24 23  0  0  1  0  0  0  0  0999 V2000
   14.7923  -10.6899  -15.0451 O   0  0  0  0  0  0  0  0  0  0  0  0
   16.0382  -10.2429  -14.6853 C   0  0  0  0  0  0  0  0  0  0  0  0
   16.9645  -10.0706  -15.8728 C   0  0  2  0  0  0  0  0  0  0  0  0
   17.0883  -11.2918  -16.6053 N   0  0  0  0  0  0  0  0  0  0  0  0
   18.2749   -9.5539  -15.3918 C   0  0  0  0  0  0  0  0  0  0  0  0
   18.4161   -9.3254  -14.1634 O   0  0  0  0  0  0  0  0  0  0  0  0
   19.3705   -9.3066  -16.2461 N   0  0  0  0  0  0  0  0  0  0  0  0
   20.6057   -8.8020  -15.7384 C   0  0  1  0  0  0  0  0  0  0  0  0
   21.8066   -9.2278  -16.5405 C   0  0  0  0  0  0  0  0  0  0  0  0
   23.1092   -8.7153  -16.0437 C   0  0  0  0  0  0  0  0  0  0  0  0
   24.2816   -9.1133  -16.8343 C   0  0  0  0  0  0  0  0  0  0  0  0
   25.0820   -8.3158  -17.3824 O   0  0  0  0  0  0  0  0  0  0  0  0
   20.5684   -7.3100  -15.8035 C   0  0  0  0  0  0  0  0  0  0  0  0
   20.4967   -6.7395  -16.9121 O   0  0  0  0  0  0  0  0  0  0  0  0
   24.5050  -10.4895  -16.9748 O   0  0  0  0  0  0  0  0  0  0  0  0
   20.6104   -6.4900  -14.6612 N   0  0  0  0  0  0  0  0  0  0  0  0
   20.6371   -5.0352  -14.7104 C   0  0  1  0  0  0  0  0  0  0  0  0
   19.3188   -4.4369  -14.3496 C   0  0  0  0  0  0  0  0  0  0  0  0
   19.4227   -2.9674  -14.3418 C   0  0  0  0  0  0  0  0  0  0  0  0
   19.3397   -2.3313  -13.2832 O   0  0  0  0  0  0  0  0  0  0  0  0
   21.7810   -4.5810  -13.9049 C   0  0  0  0  0  0  0  0  0  0  0  0
   22.0577   -3.3668  -13.8359 O   0  0  0  0  0  0  0  0  0  0  0  0
   19.6150   -2.2972  -15.5320 O   0  0  0  0  0  0  0  0  0  0  0  0
   22.5668   -5.4800  -13.2136 O   0  0  0  0  0  0  0  0  0  0  0  0
  2  1  1  0
  2  3  1  0
  3  4  1  1
  5  3  1  0
  5  6  2  0
  7  5  1  0
  8  7  1  0
  8 13  1  0
  8  9  1  6
 10 11  1  0
 10  9  1  0
 11 12  2  0
 13 16  1  0
 14 13  2  0
 15 11  1  0
 16 17  1  0
 17 21  1  0
 17 18  1  1
 19 18  1  0
 20 19  2  0
 21 22  2  0
 21 24  1  0
 23 19  1  0
M  END
$$$$
