SED.pdb
     RDKit          3D

 24 23  0  0  1  0  0  0  0  0999 V2000
   12.7069   -7.8118  -13.1467 O   0  0  0  0  0  0  0  0  0  0  0  0
   13.8620   -8.4107  -12.7123 C   0  0  0  0  0  0  0  0  0  0  0  0
   14.2094   -9.6564  -13.5030 C   0  0  2  0  0  0  0  0  0  0  0  0
   13.4743  -10.7856  -13.0258 N   0  0  0  0  0  0  0  0  0  0  0  0
   15.6821   -9.8661  -13.4511 C   0  0  0  0  0  0  0  0  0  0  0  0
   16.1825  -10.3560  -12.4068 O   0  0  0  0  0  0  0  0  0  0  0  0
   16.5483   -9.5423  -14.5169 N   0  0  0  0  0  0  0  0  0  0  0  0
   17.9421   -9.8448  -14.4557 C   0  0  1  0  0  0  0  0  0  0  0  0
   18.4004  -10.7973  -15.5279 C   0  0  0  0  0  0  0  0  0  0  0  0
   19.8122  -11.2438  -15.4116 C   0  0  0  0  0  0  0  0  0  0  0  0
   20.2456  -12.2202  -16.4201 C   0  0  0  0  0  0  0  0  0  0  0  0
   19.7438  -13.3605  -16.5772 O   0  0  0  0  0  0  0  0  0  0  0  0
   18.7092   -8.5801  -14.6660 C   0  0  0  0  0  0  0  0  0  0  0  0
   18.2444   -7.6891  -15.4074 O   0  0  0  0  0  0  0  0  0  0  0  0
   21.2984  -11.8298  -17.2586 O   0  0  0  0  0  0  0  0  0  0  0  0
   19.9548   -8.3279  -14.0628 N   0  0  0  0  0  0  0  0  0  0  0  0
   20.7141   -7.1012  -14.2575 C   0  0  1  0  0  0  0  0  0  0  0  0
   20.9133   -6.3554  -12.9806 C   0  0  0  0  0  0  0  0  0  0  0  0
   21.7070   -5.1398  -13.2309 C   0  0  0  0  0  0  0  0  0  0  0  0
   21.4576   -4.4072  -14.1969 O   0  0  0  0  0  0  0  0  0  0  0  0
   21.9432   -7.4468  -14.9879 C   0  0  0  0  0  0  0  0  0  0  0  0
   22.7802   -6.5635  -15.2617 O   0  0  0  0  0  0  0  0  0  0  0  0
   22.7398   -4.8189  -12.3746 O   0  0  0  0  0  0  0  0  0  0  0  0
   22.1957   -8.7443  -15.3831 O   0  0  0  0  0  0  0  0  0  0  0  0
  2  1  1  0
  2  3  1  0
  3  4  1  1
  5  3  1  0
  5  6  2  0
  7  5  1  0
  8  7  1  0
  8 13  1  0
  8  9  1  6
 10 11  1  0
 10  9  1  0
 11 12  2  0
 13 16  1  0
 14 13  2  0
 15 11  1  0
 16 17  1  0
 17 21  1  0
 17 18  1  1
 19 18  1  0
 20 19  2  0
 21 22  2  0
 21 24  1  0
 23 19  1  0
M  END
$$$$
