SED.pdb
     RDKit          3D

 24 23  0  0  1  0  0  0  0  0999 V2000
   17.7670  -28.3358   -5.4613 O   0  0  0  0  0  0  0  0  0  0  0  0
   17.2970  -27.2123   -6.0925 C   0  0  0  0  0  0  0  0  0  0  0  0
   18.1538  -25.9900   -5.8285 C   0  0  2  0  0  0  0  0  0  0  0  0
   17.8226  -25.3961   -4.5713 N   0  0  0  0  0  0  0  0  0  0  0  0
   18.0077  -25.0430   -6.9675 C   0  0  0  0  0  0  0  0  0  0  0  0
   17.6847  -23.8529   -6.7213 O   0  0  0  0  0  0  0  0  0  0  0  0
   18.2136  -25.4130   -8.3135 N   0  0  0  0  0  0  0  0  0  0  0  0
   18.1035  -24.4578   -9.3687 C   0  0  1  0  0  0  0  0  0  0  0  0
   18.8495  -24.8489  -10.6167 C   0  0  0  0  0  0  0  0  0  0  0  0
   18.7351  -23.8895  -11.7450 C   0  0  0  0  0  0  0  0  0  0  0  0
   19.4804  -24.2559  -12.9568 C   0  0  0  0  0  0  0  0  0  0  0  0
   20.3644  -23.5466  -13.4975 O   0  0  0  0  0  0  0  0  0  0  0  0
   16.6655  -24.3496   -9.7591 C   0  0  0  0  0  0  0  0  0  0  0  0
   15.9930  -25.3860   -9.9415 O   0  0  0  0  0  0  0  0  0  0  0  0
   19.1660  -25.4926  -13.5360 O   0  0  0  0  0  0  0  0  0  0  0  0
   16.0086  -23.1186   -9.9376 N   0  0  0  0  0  0  0  0  0  0  0  0
   14.8033  -22.9534  -10.7373 C   0  0  1  0  0  0  0  0  0  0  0  0
   15.1120  -22.7475  -12.1824 C   0  0  0  0  0  0  0  0  0  0  0  0
   15.1516  -21.3060  -12.4841 C   0  0  0  0  0  0  0  0  0  0  0  0
   14.6135  -20.4852  -11.7298 O   0  0  0  0  0  0  0  0  0  0  0  0
   13.9077  -24.0805  -10.4349 C   0  0  0  0  0  0  0  0  0  0  0  0
   12.7999  -23.8760   -9.8995 O   0  0  0  0  0  0  0  0  0  0  0  0
   15.7979  -20.8713  -13.6225 O   0  0  0  0  0  0  0  0  0  0  0  0
   14.2697  -25.3778  -10.7342 O   0  0  0  0  0  0  0  0  0  0  0  0
  2  1  1  0
  2  3  1  0
  3  4  1  1
  5  3  1  0
  5  6  2  0
  7  5  1  0
  8  7  1  0
  8 13  1  0
  8  9  1  6
 10 11  1  0
 10  9  1  0
 11 12  2  0
 13 16  1  0
 14 13  2  0
 15 11  1  0
 16 17  1  0
 17 21  1  0
 17 18  1  6
 19 18  1  0
 20 19  2  0
 21 22  2  0
 21 24  1  0
 23 19  1  0
M  END
$$$$
