SED.pdb
     RDKit          3D

 24 23  0  0  1  0  0  0  0  0999 V2000
   16.3294  -10.1883  -14.8244 O   0  0  0  0  0  0  0  0  0  0  0  0
   16.3864  -10.7818  -16.0598 C   0  0  0  0  0  0  0  0  0  0  0  0
   17.4708  -11.8369  -16.1536 C   0  0  2  0  0  0  0  0  0  0  0  0
   17.3039  -12.8320  -15.1412 N   0  0  0  0  0  0  0  0  0  0  0  0
   18.7999  -11.1700  -16.0900 C   0  0  0  0  0  0  0  0  0  0  0  0
   19.4398  -11.2079  -15.0081 O   0  0  0  0  0  0  0  0  0  0  0  0
   19.3808  -10.4952  -17.1847 N   0  0  0  0  0  0  0  0  0  0  0  0
   20.7018   -9.9594  -17.1073 C   0  0  1  0  0  0  0  0  0  0  0  0
   21.3753   -9.8189  -18.4466 C   0  0  0  0  0  0  0  0  0  0  0  0
   21.7566  -11.0989  -19.0966 C   0  0  0  0  0  0  0  0  0  0  0  0
   22.4336  -10.9654  -20.3936 C   0  0  0  0  0  0  0  0  0  0  0  0
   23.6754  -10.8599  -20.5475 O   0  0  0  0  0  0  0  0  0  0  0  0
   20.6196   -8.5817  -16.5354 C   0  0  0  0  0  0  0  0  0  0  0  0
   19.5997   -7.8885  -16.7327 O   0  0  0  0  0  0  0  0  0  0  0  0
   21.6142  -10.9575  -21.5304 O   0  0  0  0  0  0  0  0  0  0  0  0
   21.6488   -8.0056  -15.7688 N   0  0  0  0  0  0  0  0  0  0  0  0
   21.5267   -6.7286  -15.0804 C   0  0  1  0  0  0  0  0  0  0  0  0
   22.1812   -6.7485  -13.7397 C   0  0  0  0  0  0  0  0  0  0  0  0
   22.0668   -5.4223  -13.1085 C   0  0  0  0  0  0  0  0  0  0  0  0
   21.0280   -5.0844  -12.5264 O   0  0  0  0  0  0  0  0  0  0  0  0
   21.9943   -5.6788  -15.9984 C   0  0  0  0  0  0  0  0  0  0  0  0
   22.8334   -5.9454  -16.8819 O   0  0  0  0  0  0  0  0  0  0  0  0
   23.1338   -4.5503  -13.1699 O   0  0  0  0  0  0  0  0  0  0  0  0
   21.5195   -4.3868  -15.9038 O   0  0  0  0  0  0  0  0  0  0  0  0
  2  1  1  0
  2  3  1  0
  3  4  1  1
  5  3  1  0
  5  6  2  0
  7  5  1  0
  8  7  1  0
  8 13  1  0
  8  9  1  6
 10 11  1  0
 10  9  1  0
 11 12  2  0
 13 16  1  0
 14 13  2  0
 15 11  1  0
 16 17  1  0
 17 21  1  0
 17 18  1  1
 19 18  1  0
 20 19  2  0
 21 22  2  0
 21 24  1  0
 23 19  1  0
M  END
$$$$
