PII.pdb
     RDKit          3D

 24 24  0  0  1  0  0  0  0  0999 V2000
    6.5156  -17.4642   22.3152 N   0  0  0  0  0  0  0  0  0  0  0  0
    5.6953  -18.0841   21.3141 C   0  0  0  0  0  0  0  0  0  0  0  0
    5.7408  -17.1506   20.1450 C   0  0  0  0  0  0  0  0  0  0  0  0
    6.8928  -16.1830   20.3972 C   0  0  0  0  0  0  0  0  0  0  0  0
    7.5796  -16.8349   21.5668 C   0  0  1  0  0  0  0  0  0  0  0  0
    8.3333  -15.8888   22.4071 C   0  0  0  0  0  0  0  0  0  0  0  0
    9.4051  -15.4167   21.9566 O   0  0  0  0  0  0  0  0  0  0  0  0
    5.2666  -12.8219   25.3686 C   0  0  0  0  0  0  0  0  0  0  0  0
    6.3618  -13.4116   24.5529 C   0  0  0  0  0  0  0  0  0  0  0  0
    7.5926  -13.7743   25.3361 C   0  0  2  0  0  0  0  0  0  0  0  0
    8.0762  -12.5583   26.0561 C   0  0  0  0  0  0  0  0  0  0  0  0
    8.5858  -14.4123   24.4425 C   0  0  2  0  0  0  0  0  0  0  0  0
    7.9258  -15.4725   23.7008 N   0  0  0  0  0  0  0  0  0  0  0  0
    9.7638  -14.9654   25.1718 C   0  0  0  0  0  0  0  0  0  0  0  0
   10.8511  -14.3418   25.2689 O   0  0  0  0  0  0  0  0  0  0  0  0
    9.9725  -13.6430   29.2997 C   0  0  0  0  0  0  0  0  0  0  0  0
   10.4918  -14.4175   28.0898 C   0  0  0  0  0  0  0  0  0  0  0  0
   10.0949  -15.8679   28.1738 C   0  0  2  0  0  0  0  0  0  0  0  0
   10.5951  -16.4573   29.4734 C   0  0  0  0  0  0  0  0  0  0  0  0
   10.5152  -16.5922   26.9510 C   0  0  2  0  0  0  0  0  0  0  0  0
    9.6951  -16.2363   25.7911 N   0  0  0  0  0  0  0  0  0  0  0  0
   10.3933  -18.0485   27.1456 C   0  0  0  0  0  0  0  0  0  0  0  0
    9.4482  -18.7720   26.7517 O   0  0  0  0  0  0  0  0  0  0  0  0
   11.4049  -18.7589   27.8347 O   0  0  0  0  0  0  0  0  0  0  0  0
  1  5  1  0
  2  1  1  0
  2  3  1  0
  3  4  1  0
  5  4  1  0
  5  6  1  1
  7  6  2  0
  9  8  1  0
  9 10  1  0
 10 12  1  0
 10 11  1  6
 12 13  1  1
 13  6  1  0
 14 12  1  0
 14 15  2  0
 16 17  1  0
 17 18  1  0
 18 19  1  1
 18 20  1  0
 20 21  1  6
 20 22  1  0
 21 14  1  0
 22 24  1  0
 23 22  2  0
M  END
$$$$
