PII.pdb
     RDKit          3D

 24 24  0  0  1  0  0  0  0  0999 V2000
    8.2802  -14.8892   20.2289 N   0  0  0  0  0  0  0  0  0  0  0  0
    7.5779  -15.4260   19.0984 C   0  0  0  0  0  0  0  0  0  0  0  0
    6.8692  -16.6356   19.6227 C   0  0  0  0  0  0  0  0  0  0  0  0
    6.9090  -16.5454   21.1449 C   0  0  0  0  0  0  0  0  0  0  0  0
    7.4002  -15.1376   21.3479 C   0  0  1  0  0  0  0  0  0  0  0  0
    8.0994  -14.9385   22.6288 C   0  0  0  0  0  0  0  0  0  0  0  0
    9.3468  -15.0733   22.6526 O   0  0  0  0  0  0  0  0  0  0  0  0
    6.1122  -11.5671   26.3600 C   0  0  0  0  0  0  0  0  0  0  0  0
    7.0696  -12.3721   25.5552 C   0  0  0  0  0  0  0  0  0  0  0  0
    7.2940  -13.7665   26.0699 C   0  0  2  0  0  0  0  0  0  0  0  0
    7.8219  -13.6817   27.4645 C   0  0  0  0  0  0  0  0  0  0  0  0
    8.1440  -14.5209   25.1208 C   0  0  2  0  0  0  0  0  0  0  0  0
    7.4526  -14.6022   23.8460 N   0  0  0  0  0  0  0  0  0  0  0  0
    8.4843  -15.8927   25.5979 C   0  0  0  0  0  0  0  0  0  0  0  0
    7.6149  -16.7869   25.7569 O   0  0  0  0  0  0  0  0  0  0  0  0
   12.5068  -18.4165   23.3306 C   0  0  0  0  0  0  0  0  0  0  0  0
   11.2367  -17.9963   24.0681 C   0  0  0  0  0  0  0  0  0  0  0  0
   11.4468  -18.0368   25.5590 C   0  0  2  0  0  0  0  0  0  0  0  0
   11.9708  -19.3969   25.9617 C   0  0  0  0  0  0  0  0  0  0  0  0
   10.2208  -17.5993   26.2675 C   0  0  2  0  0  0  0  0  0  0  0  0
    9.8242  -16.2402   25.8934 N   0  0  0  0  0  0  0  0  0  0  0  0
   10.4359  -17.6090   27.7260 C   0  0  0  0  0  0  0  0  0  0  0  0
   10.7399  -16.6218   28.4365 O   0  0  0  0  0  0  0  0  0  0  0  0
   10.3021  -18.8149   28.4545 O   0  0  0  0  0  0  0  0  0  0  0  0
  1  5  1  0
  2  1  1  0
  2  3  1  0
  3  4  1  0
  5  4  1  0
  5  6  1  1
  7  6  2  0
  9  8  1  0
  9 10  1  0
 10 12  1  0
 10 11  1  1
 12 13  1  6
 13  6  1  0
 14 12  1  0
 14 15  2  0
 16 17  1  0
 17 18  1  0
 18 19  1  1
 18 20  1  0
 20 21  1  6
 20 22  1  0
 21 14  1  0
 22 24  1  0
 23 22  2  0
M  END
$$$$
