PII.pdb
     RDKit          3D

 24 24  0  0  1  0  0  0  0  0999 V2000
    6.7608  -18.4591   20.8031 N   0  0  0  0  0  0  0  0  0  0  0  0
    6.1786  -19.5100   20.0182 C   0  0  0  0  0  0  0  0  0  0  0  0
    6.7683  -19.3441   18.6525 C   0  0  0  0  0  0  0  0  0  0  0  0
    7.9588  -18.4014   18.7972 C   0  0  0  0  0  0  0  0  0  0  0  0
    8.1073  -18.3354   20.2933 C   0  0  1  0  0  0  0  0  0  0  0  0
    8.7429  -17.0937   20.7661 C   0  0  0  0  0  0  0  0  0  0  0  0
    9.9925  -17.0016   20.6970 O   0  0  0  0  0  0  0  0  0  0  0  0
    6.8128  -12.6399   19.1528 C   0  0  0  0  0  0  0  0  0  0  0  0
    7.7438  -13.6469   19.7285 C   0  0  0  0  0  0  0  0  0  0  0  0
    7.8430  -13.6146   21.2281 C   0  0  2  0  0  0  0  0  0  0  0  0
    8.3192  -12.2621   21.6463 C   0  0  0  0  0  0  0  0  0  0  0  0
    8.6719  -14.7467   21.7006 C   0  0  2  0  0  0  0  0  0  0  0  0
    8.0321  -15.9871   21.2981 N   0  0  0  0  0  0  0  0  0  0  0  0
    8.8838  -14.7450   23.1773 C   0  0  0  0  0  0  0  0  0  0  0  0
    9.9343  -14.3028   23.7078 O   0  0  0  0  0  0  0  0  0  0  0  0
    6.1527  -11.9783   26.2309 C   0  0  0  0  0  0  0  0  0  0  0  0
    7.2256  -12.8989   25.6521 C   0  0  0  0  0  0  0  0  0  0  0  0
    7.0339  -14.3124   26.1357 C   0  0  2  0  0  0  0  0  0  0  0  0
    7.0151  -14.3342   27.6475 C   0  0  0  0  0  0  0  0  0  0  0  0
    8.0258  -15.2152   25.5052 C   0  0  2  0  0  0  0  0  0  0  0  0
    7.8890  -15.2513   24.0476 N   0  0  0  0  0  0  0  0  0  0  0  0
    7.8550  -16.5943   25.9973 C   0  0  0  0  0  0  0  0  0  0  0  0
    7.0858  -17.4614   25.5195 O   0  0  0  0  0  0  0  0  0  0  0  0
    8.6003  -17.0470   27.1119 O   0  0  0  0  0  0  0  0  0  0  0  0
  1  5  1  0
  2  1  1  0
  2  3  1  0
  3  4  1  0
  5  4  1  0
  5  6  1  6
  7  6  2  0
  9  8  1  0
  9 10  1  0
 10 12  1  0
 10 11  1  6
 12 13  1  1
 13  6  1  0
 14 12  1  0
 14 15  2  0
 16 17  1  0
 17 18  1  0
 18 19  1  1
 18 20  1  0
 20 21  1  6
 20 22  1  0
 21 14  1  0
 22 24  1  0
 23 22  2  0
M  END
$$$$
