PII.pdb
     RDKit          3D

 24 24  0  0  1  0  0  0  0  0999 V2000
    7.1515  -15.3847   20.7394 N   0  0  0  0  0  0  0  0  0  0  0  0
    6.8240  -15.2239   19.3515 C   0  0  0  0  0  0  0  0  0  0  0  0
    7.3379  -13.8658   18.9881 C   0  0  0  0  0  0  0  0  0  0  0  0
    8.2728  -13.4322   20.1127 C   0  0  0  0  0  0  0  0  0  0  0  0
    8.4228  -14.7136   20.8872 C   0  0  1  0  0  0  0  0  0  0  0  0
    8.7526  -14.5062   22.3076 C   0  0  0  0  0  0  0  0  0  0  0  0
    9.9112  -14.1226   22.5993 O   0  0  0  0  0  0  0  0  0  0  0  0
    5.0505  -12.2099   25.2534 C   0  0  0  0  0  0  0  0  0  0  0  0
    6.3427  -12.7072   24.7099 C   0  0  0  0  0  0  0  0  0  0  0  0
    6.8817  -13.9249   25.4073 C   0  0  2  0  0  0  0  0  0  0  0  0
    6.9965  -13.6281   26.8666 C   0  0  0  0  0  0  0  0  0  0  0  0
    8.1363  -14.3629   24.7543 C   0  0  2  0  0  0  0  0  0  0  0  0
    7.8416  -14.7124   23.3756 N   0  0  0  0  0  0  0  0  0  0  0  0
    8.7841  -15.5187   25.4398 C   0  0  0  0  0  0  0  0  0  0  0  0
    8.6157  -16.7067   25.0644 O   0  0  0  0  0  0  0  0  0  0  0  0
   11.8134  -14.5023   30.1716 C   0  0  0  0  0  0  0  0  0  0  0  0
   10.7484  -15.0577   29.2276 C   0  0  0  0  0  0  0  0  0  0  0  0
   11.3766  -15.9096   28.1561 C   0  0  2  0  0  0  0  0  0  0  0  0
   12.5206  -15.1574   27.5143 C   0  0  0  0  0  0  0  0  0  0  0  0
   10.3437  -16.4062   27.2165 C   0  0  2  0  0  0  0  0  0  0  0  0
    9.6268  -15.3120   26.5581 N   0  0  0  0  0  0  0  0  0  0  0  0
    9.3436  -17.2200   27.9312 C   0  0  0  0  0  0  0  0  0  0  0  0
    8.1684  -16.8786   28.2035 O   0  0  0  0  0  0  0  0  0  0  0  0
    9.6771  -18.5200   28.3802 O   0  0  0  0  0  0  0  0  0  0  0  0
  1  5  1  0
  2  1  1  0
  2  3  1  0
  3  4  1  0
  5  4  1  0
  5  6  1  1
  7  6  2  0
  9  8  1  0
  9 10  1  0
 10 12  1  0
 10 11  1  1
 12 13  1  6
 13  6  1  0
 14 12  1  0
 14 15  2  0
 16 17  1  0
 17 18  1  0
 18 19  1  6
 18 20  1  0
 20 21  1  1
 20 22  1  0
 21 14  1  0
 22 24  1  0
 23 22  2  0
M  END
$$$$
