PII.pdb
     RDKit          3D

 24 24  0  0  1  0  0  0  0  0999 V2000
    7.2721  -15.2847   20.6778 N   0  0  0  0  0  0  0  0  0  0  0  0
    6.9300  -15.1367   19.2920 C   0  0  0  0  0  0  0  0  0  0  0  0
    7.4129  -13.7700   18.9187 C   0  0  0  0  0  0  0  0  0  0  0  0
    8.3479  -13.3123   20.0337 C   0  0  0  0  0  0  0  0  0  0  0  0
    8.5305  -14.5870   20.8123 C   0  0  1  0  0  0  0  0  0  0  0  0
    8.8675  -14.3667   22.2291 C   0  0  0  0  0  0  0  0  0  0  0  0
   10.0230  -13.9661   22.5101 O   0  0  0  0  0  0  0  0  0  0  0  0
    5.3545  -11.8626   25.2535 C   0  0  0  0  0  0  0  0  0  0  0  0
    6.6210  -12.4244   24.7124 C   0  0  0  0  0  0  0  0  0  0  0  0
    7.0299  -13.7350   25.3247 C   0  0  2  0  0  0  0  0  0  0  0  0
    7.1094  -13.5658   26.8065 C   0  0  0  0  0  0  0  0  0  0  0  0
    8.2700  -14.2244   24.6805 C   0  0  2  0  0  0  0  0  0  0  0  0
    7.9669  -14.5784   23.3048 N   0  0  0  0  0  0  0  0  0  0  0  0
    8.8745  -15.3948   25.3806 C   0  0  0  0  0  0  0  0  0  0  0  0
    8.8870  -16.5479   24.8799 O   0  0  0  0  0  0  0  0  0  0  0  0
   11.0137  -13.7868   29.9251 C   0  0  0  0  0  0  0  0  0  0  0  0
   11.2863  -14.5014   28.6028 C   0  0  0  0  0  0  0  0  0  0  0  0
   10.7430  -15.9058   28.6329 C   0  0  2  0  0  0  0  0  0  0  0  0
   11.7684  -16.8345   29.2432 C   0  0  0  0  0  0  0  0  0  0  0  0
   10.2545  -16.3018   27.2909 C   0  0  2  0  0  0  0  0  0  0  0  0
    9.4659  -15.2428   26.6575 N   0  0  0  0  0  0  0  0  0  0  0  0
    9.3933  -17.4946   27.3859 C   0  0  0  0  0  0  0  0  0  0  0  0
    8.1894  -17.5131   27.7354 O   0  0  0  0  0  0  0  0  0  0  0  0
    9.9127  -18.7716   27.0663 O   0  0  0  0  0  0  0  0  0  0  0  0
  1  5  1  0
  2  1  1  0
  2  3  1  0
  3  4  1  0
  5  4  1  0
  5  6  1  1
  7  6  2  0
  9  8  1  0
  9 10  1  0
 10 12  1  0
 10 11  1  1
 12 13  1  6
 13  6  1  0
 14 12  1  0
 14 15  2  0
 16 17  1  0
 17 18  1  0
 18 19  1  6
 18 20  1  0
 20 21  1  1
 20 22  1  0
 21 14  1  0
 22 24  1  0
 23 22  2  0
M  END
$$$$
