VKW.pdb
     RDKit          3D

 31 32  0  0  1  0  0  0  0  0999 V2000
    4.5167  -20.3084   22.1860 C   0  0  0  0  0  0  0  0  0  0  0  0
    5.7220  -19.4016   22.2492 C   0  0  2  0  0  0  0  0  0  0  0  0
    5.6673  -18.4534   23.4295 C   0  0  0  0  0  0  0  0  0  0  0  0
    5.9614  -18.6549   20.9526 C   0  0  2  0  0  0  0  0  0  0  0  0
    6.1326  -19.6682   19.9065 N   0  0  0  0  0  0  0  0  0  0  0  0
    7.1736  -17.8278   20.9682 C   0  0  0  0  0  0  0  0  0  0  0  0
    8.3238  -18.3740   20.9606 O   0  0  0  0  0  0  0  0  0  0  0  0
    7.1919  -16.4177   20.9907 N   0  0  0  0  0  0  0  0  0  0  0  0
    8.4008  -15.6344   21.3549 C   0  0  1  0  0  0  0  0  0  0  0  0
    8.3859  -14.3635   20.5364 C   0  0  0  0  0  0  0  0  0  0  0  0
    8.3288  -14.6594   19.0737 C   0  0  0  0  0  0  0  0  0  0  0  0
    8.3369  -13.3786   18.2437 C   0  0  0  0  0  0  0  0  0  0  0  0
    8.1438  -13.6590   16.7733 C   0  0  0  0  0  0  0  0  0  0  0  0
    7.9821  -12.4102   16.0262 N   0  0  0  0  0  0  0  0  0  0  0  0
    8.3512  -15.3059   22.7827 C   0  0  0  0  0  0  0  0  0  0  0  0
    7.8045  -14.2075   23.1440 O   0  0  0  0  0  0  0  0  0  0  0  0
    8.8550  -16.1081   23.8169 N   0  0  0  0  0  0  0  0  0  0  0  0
   10.0526  -15.7502   24.5667 C   0  0  1  0  0  0  0  0  0  0  0  0
    9.7619  -14.5061   25.4028 C   0  0  0  0  0  0  0  0  0  0  0  0
    8.3098  -14.4605   25.6919 C   0  0  0  0  0  0  0  0  0  0  0  0
    7.3961  -15.5046   25.6449 C   0  0  0  0  0  0  0  0  0  0  0  0
    6.1806  -15.0390   25.9732 N   0  0  0  0  0  0  0  0  0  0  0  0
    6.2670  -13.7278   26.2334 C   0  0  0  0  0  0  0  0  0  0  0  0
    5.3147  -12.8185   26.6052 C   0  0  0  0  0  0  0  0  0  0  0  0
    5.6425  -11.4813   26.8246 C   0  0  0  0  0  0  0  0  0  0  0  0
    6.9622  -11.1230   26.6499 C   0  0  0  0  0  0  0  0  0  0  0  0
    7.9280  -12.0375   26.2745 C   0  0  0  0  0  0  0  0  0  0  0  0
    7.5782  -13.3426   26.0661 C   0  0  0  0  0  0  0  0  0  0  0  0
   10.5789  -16.8366   25.3865 C   0  0  0  0  0  0  0  0  0  0  0  0
   11.7281  -16.7034   26.1221 O   0  0  0  0  0  0  0  0  0  0  0  0
    9.9898  -17.9597   25.4536 O   0  0  0  0  0  0  0  0  0  0  0  0
  2  1  1  6
  2  3  1  0
  4  2  1  0
  4  5  1  6
  6  4  1  0
  6  7  2  0
  8  6  1  0
  9  8  1  0
 10 11  1  0
  9 10  1  6
 12 13  1  0
 12 11  1  0
 13 14  1  0
 15 16  2  0
 15  9  1  0
 17 15  1  0
 18 17  1  0
 18 29  1  0
 18 19  1  1
 20 19  1  0
 20 21  2  0
 22 21  1  0
 23 22  1  0
 24 23  2  0
 25 24  1  0
 26 25  2  0
 26 27  1  0
 27 28  2  0
 28 23  1  0
 28 20  1  0
 29 31  2  0
 29 30  1  0
M  END
$$$$
