VKW.pdb
     RDKit          3D

 31 32  0  0  1  0  0  0  0  0999 V2000
    6.8266  -19.4585   19.4415 C   0  0  0  0  0  0  0  0  0  0  0  0
    7.9048  -20.3262   20.0445 C   0  0  2  0  0  0  0  0  0  0  0  0
    7.4306  -21.7433   20.2936 C   0  0  0  0  0  0  0  0  0  0  0  0
    8.5131  -19.7208   21.2933 C   0  0  2  0  0  0  0  0  0  0  0  0
    7.5037  -19.8305   22.3514 N   0  0  0  0  0  0  0  0  0  0  0  0
    8.8501  -18.2995   21.1509 C   0  0  0  0  0  0  0  0  0  0  0  0
    9.8690  -17.9459   20.4741 O   0  0  0  0  0  0  0  0  0  0  0  0
    8.1205  -17.2334   21.7166 N   0  0  0  0  0  0  0  0  0  0  0  0
    8.5757  -15.8207   21.6474 C   0  0  1  0  0  0  0  0  0  0  0  0
    7.3463  -14.9495   21.5258 C   0  0  0  0  0  0  0  0  0  0  0  0
    7.6965  -13.5780   21.0498 C   0  0  0  0  0  0  0  0  0  0  0  0
    7.9736  -13.5611   19.5491 C   0  0  0  0  0  0  0  0  0  0  0  0
    8.3354  -12.1803   19.0586 C   0  0  0  0  0  0  0  0  0  0  0  0
    8.7145  -12.2172   17.6448 N   0  0  0  0  0  0  0  0  0  0  0  0
    9.3012  -15.4866   22.8767 C   0  0  0  0  0  0  0  0  0  0  0  0
    9.8547  -14.3376   22.9730 O   0  0  0  0  0  0  0  0  0  0  0  0
    9.4430  -16.3294   23.9887 N   0  0  0  0  0  0  0  0  0  0  0  0
   10.1945  -15.9348   25.1736 C   0  0  1  0  0  0  0  0  0  0  0  0
    9.3480  -16.2118   26.4137 C   0  0  0  0  0  0  0  0  0  0  0  0
    8.0297  -15.5586   26.2407 C   0  0  0  0  0  0  0  0  0  0  0  0
    6.8374  -16.1370   25.8271 C   0  0  0  0  0  0  0  0  0  0  0  0
    5.8800  -15.1964   25.7991 N   0  0  0  0  0  0  0  0  0  0  0  0
    6.4038  -14.0238   26.1799 C   0  0  0  0  0  0  0  0  0  0  0  0
    5.8385  -12.7848   26.3112 C   0  0  0  0  0  0  0  0  0  0  0  0
    6.5927  -11.6897   26.7305 C   0  0  0  0  0  0  0  0  0  0  0  0
    7.9251  -11.9145   27.0038 C   0  0  0  0  0  0  0  0  0  0  0  0
    8.5010  -13.1640   26.8729 C   0  0  0  0  0  0  0  0  0  0  0  0
    7.7375  -14.2202   26.4599 C   0  0  0  0  0  0  0  0  0  0  0  0
   11.5091  -16.5606   25.2708 C   0  0  0  0  0  0  0  0  0  0  0  0
   12.3770  -16.2777   26.2936 O   0  0  0  0  0  0  0  0  0  0  0  0
   11.9075  -17.4002   24.4052 O   0  0  0  0  0  0  0  0  0  0  0  0
  2  1  1  1
  2  3  1  0
  4  2  1  0
  4  5  1  1
  6  4  1  0
  6  7  2  0
  8  6  1  0
  9  8  1  0
 10 11  1  0
  9 10  1  1
 12 13  1  0
 12 11  1  0
 13 14  1  0
 15 16  2  0
 15  9  1  0
 17 15  1  0
 18 17  1  0
 18 29  1  0
 18 19  1  1
 20 19  1  0
 20 21  2  0
 22 21  1  0
 23 22  1  0
 24 23  2  0
 25 24  1  0
 26 25  2  0
 26 27  1  0
 27 28  2  0
 28 23  1  0
 28 20  1  0
 29 31  2  0
 29 30  1  0
M  END
$$$$
