VKW.pdb
     RDKit          3D

 31 32  0  0  1  0  0  0  0  0999 V2000
    7.5646  -12.6756   18.2970 C   0  0  0  0  0  0  0  0  0  0  0  0
    7.9322  -13.5877   19.4424 C   0  0  2  0  0  0  0  0  0  0  0  0
    8.7921  -12.8926   20.4782 C   0  0  0  0  0  0  0  0  0  0  0  0
    8.5665  -14.8833   18.9787 C   0  0  2  0  0  0  0  0  0  0  0  0
    7.6380  -15.4886   18.0184 N   0  0  0  0  0  0  0  0  0  0  0  0
    8.7765  -15.8527   20.0603 C   0  0  0  0  0  0  0  0  0  0  0  0
    7.7802  -16.3761   20.6560 O   0  0  0  0  0  0  0  0  0  0  0  0
   10.0350  -16.2846   20.5280 N   0  0  0  0  0  0  0  0  0  0  0  0
   10.1956  -17.1417   21.7310 C   0  0  1  0  0  0  0  0  0  0  0  0
   10.9209  -18.3976   21.3043 C   0  0  0  0  0  0  0  0  0  0  0  0
   10.2206  -19.6227   21.7929 C   0  0  0  0  0  0  0  0  0  0  0  0
   10.9032  -20.8933   21.2937 C   0  0  0  0  0  0  0  0  0  0  0  0
   10.2099  -22.1380   21.7916 C   0  0  0  0  0  0  0  0  0  0  0  0
   10.8712  -23.3386   21.2769 N   0  0  0  0  0  0  0  0  0  0  0  0
   10.9913  -16.4248   22.7319 C   0  0  0  0  0  0  0  0  0  0  0  0
   12.0866  -16.9459   23.1374 O   0  0  0  0  0  0  0  0  0  0  0  0
   10.6577  -15.1849   23.2961 N   0  0  0  0  0  0  0  0  0  0  0  0
    9.7049  -15.0594   24.3920 C   0  0  1  0  0  0  0  0  0  0  0  0
    8.2988  -14.9175   23.8140 C   0  0  0  0  0  0  0  0  0  0  0  0
    7.3823  -14.4988   24.8998 C   0  0  0  0  0  0  0  0  0  0  0  0
    6.4408  -15.2698   25.5680 C   0  0  0  0  0  0  0  0  0  0  0  0
    5.8160  -14.5071   26.4791 N   0  0  0  0  0  0  0  0  0  0  0  0
    6.3155  -13.2651   26.4305 C   0  0  0  0  0  0  0  0  0  0  0  0
    6.0101  -12.1426   27.1506 C   0  0  0  0  0  0  0  0  0  0  0  0
    6.6734  -10.9377   26.9222 C   0  0  0  0  0  0  0  0  0  0  0  0
    7.6440  -10.9328   25.9431 C   0  0  0  0  0  0  0  0  0  0  0  0
    7.9563  -12.0639   25.2129 C   0  0  0  0  0  0  0  0  0  0  0  0
    7.2898  -13.2320   25.4582 C   0  0  0  0  0  0  0  0  0  0  0  0
    9.7788  -16.1470   25.3620 C   0  0  0  0  0  0  0  0  0  0  0  0
   10.0253  -15.9219   26.6917 O   0  0  0  0  0  0  0  0  0  0  0  0
    9.6165  -17.3571   25.0124 O   0  0  0  0  0  0  0  0  0  0  0  0
  2  1  1  6
  2  3  1  0
  4  2  1  0
  4  5  1  6
  6  4  1  0
  6  7  2  0
  8  6  1  0
  9  8  1  0
 10 11  1  0
  9 10  1  6
 12 13  1  0
 12 11  1  0
 13 14  1  0
 15 16  2  0
 15  9  1  0
 17 15  1  0
 18 17  1  0
 18 29  1  0
 18 19  1  6
 20 19  1  0
 20 21  2  0
 22 21  1  0
 23 22  1  0
 24 23  2  0
 25 24  1  0
 26 25  2  0
 26 27  1  0
 27 28  2  0
 28 23  1  0
 28 20  1  0
 29 31  2  0
 29 30  1  0
M  END
$$$$
