VKW.pdb
     RDKit          3D

 31 32  0  0  1  0  0  0  0  0999 V2000
    7.6301  -12.1771   18.2262 C   0  0  0  0  0  0  0  0  0  0  0  0
    8.0078  -13.1907   19.2793 C   0  0  2  0  0  0  0  0  0  0  0  0
    9.0133  -12.6426   20.2711 C   0  0  0  0  0  0  0  0  0  0  0  0
    8.4776  -14.5036   18.6863 C   0  0  2  0  0  0  0  0  0  0  0  0
    7.3898  -14.9964   17.8351 N   0  0  0  0  0  0  0  0  0  0  0  0
    8.7524  -15.5359   19.6926 C   0  0  0  0  0  0  0  0  0  0  0  0
    7.7948  -16.1836   20.2262 O   0  0  0  0  0  0  0  0  0  0  0  0
   10.0360  -15.9007   20.1492 N   0  0  0  0  0  0  0  0  0  0  0  0
   10.2598  -16.9878   21.1370 C   0  0  1  0  0  0  0  0  0  0  0  0
   11.3786  -17.8589   20.6127 C   0  0  0  0  0  0  0  0  0  0  0  0
   11.2599  -19.2592   21.1178 C   0  0  0  0  0  0  0  0  0  0  0  0
   12.3582  -20.1535   20.5490 C   0  0  0  0  0  0  0  0  0  0  0  0
   12.2960  -21.5513   21.1149 C   0  0  0  0  0  0  0  0  0  0  0  0
   13.4243  -22.3527   20.6372 N   0  0  0  0  0  0  0  0  0  0  0  0
   10.6492  -16.3998   22.4221 C   0  0  0  0  0  0  0  0  0  0  0  0
   11.2087  -15.2498   22.4297 O   0  0  0  0  0  0  0  0  0  0  0  0
   10.4542  -16.9939   23.6775 N   0  0  0  0  0  0  0  0  0  0  0  0
    9.6732  -16.3538   24.7287 C   0  0  1  0  0  0  0  0  0  0  0  0
    8.3919  -15.7879   24.1210 C   0  0  0  0  0  0  0  0  0  0  0  0
    7.6022  -15.1464   25.1977 C   0  0  0  0  0  0  0  0  0  0  0  0
    6.8326  -15.7621   26.1755 C   0  0  0  0  0  0  0  0  0  0  0  0
    6.2768  -14.8201   26.9539 N   0  0  0  0  0  0  0  0  0  0  0  0
    6.6557  -13.6107   26.5201 C   0  0  0  0  0  0  0  0  0  0  0  0
    6.3576  -12.3558   26.9765 C   0  0  0  0  0  0  0  0  0  0  0  0
    6.8763  -11.2211   26.3544 C   0  0  0  0  0  0  0  0  0  0  0  0
    7.6976  -11.4237   25.2658 C   0  0  0  0  0  0  0  0  0  0  0  0
    8.0019  -12.6890   24.8008 C   0  0  0  0  0  0  0  0  0  0  0  0
    7.4792  -13.7842   25.4304 C   0  0  0  0  0  0  0  0  0  0  0  0
    9.3891  -17.2261   25.8634 C   0  0  0  0  0  0  0  0  0  0  0  0
    8.9414  -18.5116   25.7000 O   0  0  0  0  0  0  0  0  0  0  0  0
    9.5460  -16.8281   27.0592 O   0  0  0  0  0  0  0  0  0  0  0  0
  2  1  1  6
  2  3  1  0
  4  2  1  0
  4  5  1  6
  6  4  1  0
  6  7  2  0
  8  6  1  0
  9  8  1  0
 10 11  1  0
  9 10  1  6
 12 13  1  0
 12 11  1  0
 13 14  1  0
 15 16  2  0
 15  9  1  0
 17 15  1  0
 18 17  1  0
 18 29  1  0
 18 19  1  6
 20 19  1  0
 20 21  2  0
 22 21  1  0
 23 22  1  0
 24 23  2  0
 25 24  1  0
 26 25  2  0
 26 27  1  0
 27 28  2  0
 28 23  1  0
 28 20  1  0
 29 31  2  0
 29 30  1  0
M  END
$$$$
