VKW.pdb
     RDKit          3D

 31 32  0  0  1  0  0  0  0  0999 V2000
    7.2165  -12.4991   19.3342 C   0  0  0  0  0  0  0  0  0  0  0  0
    7.6284  -13.4333   20.4462 C   0  0  2  0  0  0  0  0  0  0  0  0
    8.4916  -12.7464   21.4847 C   0  0  0  0  0  0  0  0  0  0  0  0
    8.2844  -14.6996   19.9341 C   0  0  2  0  0  0  0  0  0  0  0  0
    7.3648  -15.2854   18.9534 N   0  0  0  0  0  0  0  0  0  0  0  0
    8.5137  -15.7044   20.9789 C   0  0  0  0  0  0  0  0  0  0  0  0
    7.5291  -16.3005   21.5236 O   0  0  0  0  0  0  0  0  0  0  0  0
    9.7793  -16.0956   21.4629 N   0  0  0  0  0  0  0  0  0  0  0  0
    9.9535  -17.1242   22.5208 C   0  0  1  0  0  0  0  0  0  0  0  0
   11.1287  -17.9900   22.1277 C   0  0  0  0  0  0  0  0  0  0  0  0
   10.7541  -18.9622   21.0577 C   0  0  0  0  0  0  0  0  0  0  0  0
   11.9786  -19.4366   20.2799 C   0  0  0  0  0  0  0  0  0  0  0  0
   11.6145  -20.4412   19.2141 C   0  0  0  0  0  0  0  0  0  0  0  0
   10.8328  -21.5397   19.7851 N   0  0  0  0  0  0  0  0  0  0  0  0
   10.2311  -16.4608   23.7982 C   0  0  0  0  0  0  0  0  0  0  0  0
   11.1354  -15.5573   23.8400 O   0  0  0  0  0  0  0  0  0  0  0  0
    9.5755  -16.7272   25.0091 N   0  0  0  0  0  0  0  0  0  0  0  0
   10.0907  -16.2638   26.2915 C   0  0  1  0  0  0  0  0  0  0  0  0
    8.9282  -16.1186   27.2706 C   0  0  0  0  0  0  0  0  0  0  0  0
    7.8539  -15.3371   26.6151 C   0  0  0  0  0  0  0  0  0  0  0  0
    6.8106  -15.8098   25.8307 C   0  0  0  0  0  0  0  0  0  0  0  0
    6.0607  -14.7723   25.4265 N   0  0  0  0  0  0  0  0  0  0  0  0
    6.5764  -13.6383   25.9189 C   0  0  0  0  0  0  0  0  0  0  0  0
    6.1763  -12.3363   25.7898 C   0  0  0  0  0  0  0  0  0  0  0  0
    6.8820  -11.3018   26.4028 C   0  0  0  0  0  0  0  0  0  0  0  0
    7.9935  -11.6522   27.1393 C   0  0  0  0  0  0  0  0  0  0  0  0
    8.4018  -12.9658   27.2729 C   0  0  0  0  0  0  0  0  0  0  0  0
    7.6907  -13.9601   26.6607 C   0  0  0  0  0  0  0  0  0  0  0  0
   11.1502  -17.1055   26.8377 C   0  0  0  0  0  0  0  0  0  0  0  0
   11.5549  -18.2604   26.2197 O   0  0  0  0  0  0  0  0  0  0  0  0
   11.7465  -16.8011   27.9169 O   0  0  0  0  0  0  0  0  0  0  0  0
  2  1  1  6
  2  3  1  0
  4  2  1  0
  4  5  1  6
  6  4  1  0
  6  7  2  0
  8  6  1  0
  9  8  1  0
 10 11  1  0
  9 10  1  6
 12 13  1  0
 12 11  1  0
 13 14  1  0
 15 16  2  0
 15  9  1  0
 17 15  1  0
 18 17  1  0
 18 29  1  0
 18 19  1  1
 20 19  1  0
 20 21  2  0
 22 21  1  0
 23 22  1  0
 24 23  2  0
 25 24  1  0
 26 25  2  0
 26 27  1  0
 27 28  2  0
 28 23  1  0
 28 20  1  0
 29 31  2  0
 29 30  1  0
M  END
$$$$
