VKW.pdb
     RDKit          3D

 31 32  0  0  1  0  0  0  0  0999 V2000
    6.8757  -14.4601   19.1400 C   0  0  0  0  0  0  0  0  0  0  0  0
    7.6660  -13.3488   19.7877 C   0  0  2  0  0  0  0  0  0  0  0  0
    7.9640  -12.2178   18.8248 C   0  0  0  0  0  0  0  0  0  0  0  0
    8.9284  -13.8451   20.4631 C   0  0  2  0  0  0  0  0  0  0  0  0
    9.8102  -14.3390   19.4006 N   0  0  0  0  0  0  0  0  0  0  0  0
    8.6966  -14.9546   21.3953 C   0  0  0  0  0  0  0  0  0  0  0  0
    7.9417  -14.7952   22.4083 O   0  0  0  0  0  0  0  0  0  0  0  0
    9.2537  -16.2445   21.2740 N   0  0  0  0  0  0  0  0  0  0  0  0
    9.1315  -17.2770   22.3354 C   0  0  1  0  0  0  0  0  0  0  0  0
    9.8487  -18.5169   21.8519 C   0  0  0  0  0  0  0  0  0  0  0  0
    9.7174  -19.6375   22.8304 C   0  0  0  0  0  0  0  0  0  0  0  0
    8.6364  -20.6273   22.4047 C   0  0  0  0  0  0  0  0  0  0  0  0
    8.4941  -21.7633   23.3882 C   0  0  0  0  0  0  0  0  0  0  0  0
    7.3628  -22.6200   23.0276 N   0  0  0  0  0  0  0  0  0  0  0  0
    9.7636  -16.7848   23.5629 C   0  0  0  0  0  0  0  0  0  0  0  0
   10.8630  -16.1374   23.4734 O   0  0  0  0  0  0  0  0  0  0  0  0
    9.2584  -16.9566   24.8599 N   0  0  0  0  0  0  0  0  0  0  0  0
    9.9532  -16.4546   26.0388 C   0  0  1  0  0  0  0  0  0  0  0  0
    8.9409  -16.2531   27.1639 C   0  0  0  0  0  0  0  0  0  0  0  0
    7.8190  -15.4346   26.6482 C   0  0  0  0  0  0  0  0  0  0  0  0
    6.6279  -15.8745   26.0870 C   0  0  0  0  0  0  0  0  0  0  0  0
    5.8844  -14.8101   25.7456 N   0  0  0  0  0  0  0  0  0  0  0  0
    6.5468  -13.6902   26.0638 C   0  0  0  0  0  0  0  0  0  0  0  0
    6.2114  -12.3721   25.9151 C   0  0  0  0  0  0  0  0  0  0  0  0
    7.0754  -11.3582   26.3265 C   0  0  0  0  0  0  0  0  0  0  0  0
    8.2746  -11.7456   26.8857 C   0  0  0  0  0  0  0  0  0  0  0  0
    8.6182  -13.0755   27.0381 C   0  0  0  0  0  0  0  0  0  0  0  0
    7.7514  -14.0490   26.6258 C   0  0  0  0  0  0  0  0  0  0  0  0
   11.0687  -17.2934   26.4648 C   0  0  0  0  0  0  0  0  0  0  0  0
   11.3670  -18.4791   25.8448 O   0  0  0  0  0  0  0  0  0  0  0  0
   11.8159  -16.9573   27.4352 O   0  0  0  0  0  0  0  0  0  0  0  0
  2  1  1  6
  2  3  1  0
  4  2  1  0
  4  5  1  6
  6  4  1  0
  6  7  2  0
  8  6  1  0
  9  8  1  0
 10 11  1  0
  9 10  1  6
 12 13  1  0
 12 11  1  0
 13 14  1  0
 15 16  2  0
 15  9  1  0
 17 15  1  0
 18 17  1  0
 18 29  1  0
 18 19  1  1
 20 19  1  0
 20 21  2  0
 22 21  1  0
 23 22  1  0
 24 23  2  0
 25 24  1  0
 26 25  2  0
 26 27  1  0
 27 28  2  0
 28 23  1  0
 28 20  1  0
 29 31  2  0
 29 30  1  0
M  END
$$$$
