VKW.pdb
     RDKit          3D

 31 32  0  0  1  0  0  0  0  0999 V2000
    7.7996  -12.3209   18.2683 C   0  0  0  0  0  0  0  0  0  0  0  0
    7.9959  -13.2796   19.4178 C   0  0  2  0  0  0  0  0  0  0  0  0
    8.8993  -12.7113   20.4931 C   0  0  0  0  0  0  0  0  0  0  0  0
    8.4686  -14.6464   18.9659 C   0  0  2  0  0  0  0  0  0  0  0  0
    7.4958  -15.1252   17.9784 N   0  0  0  0  0  0  0  0  0  0  0  0
    8.5213  -15.6356   20.0487 C   0  0  0  0  0  0  0  0  0  0  0  0
    7.4456  -16.0847   20.5610 O   0  0  0  0  0  0  0  0  0  0  0  0
    9.7040  -16.1654   20.6052 N   0  0  0  0  0  0  0  0  0  0  0  0
    9.6983  -17.1871   21.6840 C   0  0  1  0  0  0  0  0  0  0  0  0
   10.5868  -18.3265   21.2392 C   0  0  0  0  0  0  0  0  0  0  0  0
    9.9455  -19.1233   20.1509 C   0  0  0  0  0  0  0  0  0  0  0  0
   10.8495  -20.2611   19.6844 C   0  0  0  0  0  0  0  0  0  0  0  0
   10.2045  -21.0822   18.5946 C   0  0  0  0  0  0  0  0  0  0  0  0
   11.0461  -22.2280   18.2444 N   0  0  0  0  0  0  0  0  0  0  0  0
   10.2308  -16.5935   22.9140 C   0  0  0  0  0  0  0  0  0  0  0  0
   11.3647  -16.0032   22.8731 O   0  0  0  0  0  0  0  0  0  0  0  0
    9.5927  -16.6074   24.1629 N   0  0  0  0  0  0  0  0  0  0  0  0
   10.2881  -16.2611   25.3962 C   0  0  1  0  0  0  0  0  0  0  0  0
    9.9181  -14.8334   25.7910 C   0  0  0  0  0  0  0  0  0  0  0  0
    8.4609  -14.7785   26.0517 C   0  0  0  0  0  0  0  0  0  0  0  0
    7.5386  -15.8127   25.9686 C   0  0  0  0  0  0  0  0  0  0  0  0
    6.3211  -15.3409   26.2804 N   0  0  0  0  0  0  0  0  0  0  0  0
    6.4146  -14.0351   26.5644 C   0  0  0  0  0  0  0  0  0  0  0  0
    5.4635  -13.1229   26.9324 C   0  0  0  0  0  0  0  0  0  0  0  0
    5.7993  -11.7928   27.1810 C   0  0  0  0  0  0  0  0  0  0  0  0
    7.1257  -11.4445   27.0389 C   0  0  0  0  0  0  0  0  0  0  0  0
    8.0902  -12.3620   26.6675 C   0  0  0  0  0  0  0  0  0  0  0  0
    7.7324  -13.6599   26.4300 C   0  0  0  0  0  0  0  0  0  0  0  0
   10.0492  -17.1988   26.4884 C   0  0  0  0  0  0  0  0  0  0  0  0
    9.3148  -18.3439   26.3182 O   0  0  0  0  0  0  0  0  0  0  0  0
   10.5153  -16.9919   27.6515 O   0  0  0  0  0  0  0  0  0  0  0  0
  2  1  1  6
  2  3  1  0
  4  2  1  0
  4  5  1  6
  6  4  1  0
  6  7  2  0
  8  6  1  0
  9  8  1  0
 10 11  1  0
  9 10  1  6
 12 13  1  0
 12 11  1  0
 13 14  1  0
 15 16  2  0
 15  9  1  0
 17 15  1  0
 18 17  1  0
 18 29  1  0
 18 19  1  1
 20 19  1  0
 20 21  2  0
 22 21  1  0
 23 22  1  0
 24 23  2  0
 25 24  1  0
 26 25  2  0
 26 27  1  0
 27 28  2  0
 28 23  1  0
 28 20  1  0
 29 31  2  0
 29 30  1  0
M  END
$$$$
