HWA.pdb
     RDKit          3D

 30 32  0  0  1  0  0  0  0  0999 V2000
    8.4668  -15.7543   19.7600 N   0  0  0  0  0  0  0  0  0  0  0  0
    8.4179  -16.8452   20.6819 C   0  0  1  0  0  0  0  0  0  0  0  0
    9.0125  -18.1160   20.1646 C   0  0  0  0  0  0  0  0  0  0  0  0
    8.5854  -18.4747   18.8182 C   0  0  0  0  0  0  0  0  0  0  0  0
    7.8097  -17.7434   17.9567 C   0  0  0  0  0  0  0  0  0  0  0  0
    7.6589  -18.4595   16.8088 N   0  0  0  0  0  0  0  0  0  0  0  0
    8.3261  -19.5930   16.9734 C   0  0  0  0  0  0  0  0  0  0  0  0
    8.8871  -19.6123   18.1785 N   0  0  0  0  0  0  0  0  0  0  0  0
    9.1065  -16.5342   21.9726 C   0  0  0  0  0  0  0  0  0  0  0  0
   10.0885  -15.7507   21.9678 O   0  0  0  0  0  0  0  0  0  0  0  0
    8.6776  -17.0982   23.1800 N   0  0  0  0  0  0  0  0  0  0  0  0
    9.2894  -16.7658   24.4736 C   0  0  1  0  0  0  0  0  0  0  0  0
    8.2282  -16.7844   25.5607 C   0  0  0  0  0  0  0  0  0  0  0  0
    7.3294  -15.6295   25.4889 C   0  0  0  0  0  0  0  0  0  0  0  0
    6.0255  -15.5886   25.0492 C   0  0  0  0  0  0  0  0  0  0  0  0
    5.5810  -14.3278   25.1550 N   0  0  0  0  0  0  0  0  0  0  0  0
    6.5361  -13.5185   25.6491 C   0  0  0  0  0  0  0  0  0  0  0  0
    6.5781  -12.1723   25.9395 C   0  0  0  0  0  0  0  0  0  0  0  0
    7.7504  -11.6603   26.4471 C   0  0  0  0  0  0  0  0  0  0  0  0
    8.8703  -12.4207   26.6759 C   0  0  0  0  0  0  0  0  0  0  0  0
    8.7761  -13.7756   26.3659 C   0  0  0  0  0  0  0  0  0  0  0  0
    7.6340  -14.3392   25.8581 C   0  0  0  0  0  0  0  0  0  0  0  0
   10.2424  -17.8621   24.7667 C   0  0  0  0  0  0  0  0  0  0  0  0
    9.9091  -19.0335   24.4725 O   0  0  0  0  0  0  0  0  0  0  0  0
   13.8420  -18.4309   25.5855 C   0  0  0  0  0  0  0  0  0  0  0  0
   12.3751  -18.7956   25.6757 C   0  0  2  0  0  0  0  0  0  0  0  0
   11.5124  -17.6652   25.3618 N   0  0  0  0  0  0  0  0  0  0  0  0
   12.0248  -19.3865   26.9922 C   0  0  0  0  0  0  0  0  0  0  0  0
   12.5856  -20.4349   27.3965 O   0  0  0  0  0  0  0  0  0  0  0  0
   11.0706  -18.8267   27.8461 O   0  0  0  0  0  0  0  0  0  0  0  0
  2  3  1  0
  2  1  1  6
  4  3  1  0
  4  8  1  0
  5  6  1  0
  5  4  2  0
  6  7  1  0
  7  8  2  0
  9  2  1  0
 10  9  2  0
 11  9  1  0
 12 11  1  0
 12 13  1  1
 13 14  1  0
 14 15  2  0
 15 16  1  0
 17 16  1  0
 18 17  2  0
 19 18  1  0
 20 21  1  0
 20 19  2  0
 21 22  2  0
 22 14  1  0
 22 17  1  0
 23 24  2  0
 23 12  1  0
 26 25  1  1
 26 27  1  0
 27 23  1  0
 28 26  1  0
 29 28  2  0
 30 28  1  0
M  END
$$$$
