HWA.pdb
     RDKit          3D

 30 32  0  0  1  0  0  0  0  0999 V2000
    8.2191  -12.6201   18.0744 N   0  0  0  0  0  0  0  0  0  0  0  0
    8.0891  -13.9396   18.6080 C   0  0  1  0  0  0  0  0  0  0  0  0
    8.9377  -14.9656   17.9275 C   0  0  0  0  0  0  0  0  0  0  0  0
    8.6832  -15.1044   16.4992 C   0  0  0  0  0  0  0  0  0  0  0  0
    7.7958  -14.3994   15.7284 C   0  0  0  0  0  0  0  0  0  0  0  0
    7.8871  -14.8570   14.4495 N   0  0  0  0  0  0  0  0  0  0  0  0
    8.8053  -15.8129   14.4488 C   0  0  0  0  0  0  0  0  0  0  0  0
    9.2905  -15.9697   15.6765 N   0  0  0  0  0  0  0  0  0  0  0  0
    8.4143  -14.0010   20.0665 C   0  0  0  0  0  0  0  0  0  0  0  0
    9.4160  -13.3762   20.4959 O   0  0  0  0  0  0  0  0  0  0  0  0
    7.6255  -14.7390   20.9570 N   0  0  0  0  0  0  0  0  0  0  0  0
    7.9021  -14.8022   22.3984 C   0  0  1  0  0  0  0  0  0  0  0  0
    6.6310  -15.1648   23.1474 C   0  0  0  0  0  0  0  0  0  0  0  0
    6.8186  -15.1768   24.6005 C   0  0  0  0  0  0  0  0  0  0  0  0
    6.8667  -16.2620   25.4460 C   0  0  0  0  0  0  0  0  0  0  0  0
    7.0539  -15.8175   26.6974 N   0  0  0  0  0  0  0  0  0  0  0  0
    7.1336  -14.4744   26.7262 C   0  0  0  0  0  0  0  0  0  0  0  0
    7.3165  -13.5591   27.7398 C   0  0  0  0  0  0  0  0  0  0  0  0
    7.3482  -12.2250   27.4034 C   0  0  0  0  0  0  0  0  0  0  0  0
    7.2075  -11.7667   26.1171 C   0  0  0  0  0  0  0  0  0  0  0  0
    7.0252  -12.7321   25.1293 C   0  0  0  0  0  0  0  0  0  0  0  0
    6.9854  -14.0742   25.4070 C   0  0  0  0  0  0  0  0  0  0  0  0
    8.8575  -15.9202   22.5808 C   0  0  0  0  0  0  0  0  0  0  0  0
    8.7233  -16.9391   21.8641 O   0  0  0  0  0  0  0  0  0  0  0  0
   12.0959  -16.8895   22.9272 C   0  0  0  0  0  0  0  0  0  0  0  0
   10.7920  -17.0604   23.6779 C   0  0  2  0  0  0  0  0  0  0  0  0
    9.9174  -15.9069   23.5201 N   0  0  0  0  0  0  0  0  0  0  0  0
   11.0090  -17.3748   25.1129 C   0  0  0  0  0  0  0  0  0  0  0  0
   11.7509  -18.3276   25.4577 O   0  0  0  0  0  0  0  0  0  0  0  0
   10.4151  -16.6475   26.1479 O   0  0  0  0  0  0  0  0  0  0  0  0
  2  3  1  0
  2  1  1  6
  4  3  1  0
  4  8  1  0
  5  6  1  0
  5  4  2  0
  6  7  1  0
  7  8  2  0
  9  2  1  0
 10  9  2  0
 11  9  1  0
 12 11  1  0
 12 13  1  1
 13 14  1  0
 14 15  2  0
 15 16  1  0
 17 16  1  0
 18 17  2  0
 19 18  1  0
 20 21  1  0
 20 19  2  0
 21 22  2  0
 22 14  1  0
 22 17  1  0
 23 24  2  0
 23 12  1  0
 26 25  1  1
 26 27  1  0
 27 23  1  0
 28 26  1  0
 29 28  2  0
 30 28  1  0
M  END
$$$$
