HWA.pdb
     RDKit          3D

 30 32  0  0  1  0  0  0  0  0999 V2000
   10.5090  -18.1533   21.5619 N   0  0  0  0  0  0  0  0  0  0  0  0
   11.1684  -16.8859   21.6004 C   0  0  1  0  0  0  0  0  0  0  0  0
   10.9527  -16.0421   20.3849 C   0  0  0  0  0  0  0  0  0  0  0  0
   11.3835  -16.6626   19.1386 C   0  0  0  0  0  0  0  0  0  0  0  0
   11.8889  -17.9234   18.9550 C   0  0  0  0  0  0  0  0  0  0  0  0
   12.1592  -18.0839   17.6305 N   0  0  0  0  0  0  0  0  0  0  0  0
   11.8256  -16.9498   17.0307 C   0  0  0  0  0  0  0  0  0  0  0  0
   11.3579  -16.0882   17.9287 N   0  0  0  0  0  0  0  0  0  0  0  0
   10.7591  -16.0642   22.7812 C   0  0  0  0  0  0  0  0  0  0  0  0
   11.1413  -14.8699   22.8563 O   0  0  0  0  0  0  0  0  0  0  0  0
    9.9612  -16.6005   23.7989 N   0  0  0  0  0  0  0  0  0  0  0  0
    9.5438  -15.8234   24.9736 C   0  0  1  0  0  0  0  0  0  0  0  0
    8.1401  -16.2338   25.3855 C   0  0  0  0  0  0  0  0  0  0  0  0
    7.1339  -15.2294   25.0312 C   0  0  0  0  0  0  0  0  0  0  0  0
    6.1667  -15.2977   24.0541 C   0  0  0  0  0  0  0  0  0  0  0  0
    5.4614  -14.1573   24.0741 N   0  0  0  0  0  0  0  0  0  0  0  0
    5.9171  -13.3239   25.0275 C   0  0  0  0  0  0  0  0  0  0  0  0
    5.5425  -12.0640   25.4406 C   0  0  0  0  0  0  0  0  0  0  0  0
    6.2470  -11.4904   26.4744 C   0  0  0  0  0  0  0  0  0  0  0  0
    7.2962  -12.1085   27.1082 C   0  0  0  0  0  0  0  0  0  0  0  0
    7.6352  -13.3808   26.6531 C   0  0  0  0  0  0  0  0  0  0  0  0
    6.9684  -14.0002   25.6276 C   0  0  0  0  0  0  0  0  0  0  0  0
   10.4598  -16.2186   26.0695 C   0  0  0  0  0  0  0  0  0  0  0  0
   11.1490  -17.2546   25.9229 O   0  0  0  0  0  0  0  0  0  0  0  0
   11.5450  -15.0127   29.5014 C   0  0  0  0  0  0  0  0  0  0  0  0
   11.4266  -16.0055   28.3641 C   0  0  2  0  0  0  0  0  0  0  0  0
   10.6038  -15.4934   27.2774 N   0  0  0  0  0  0  0  0  0  0  0  0
   10.9394  -17.3302   28.8256 C   0  0  0  0  0  0  0  0  0  0  0  0
    9.7359  -17.6589   28.6815 O   0  0  0  0  0  0  0  0  0  0  0  0
   11.7696  -18.2742   29.4359 O   0  0  0  0  0  0  0  0  0  0  0  0
  2  3  1  0
  2  1  1  6
  4  3  1  0
  4  8  1  0
  5  6  1  0
  5  4  2  0
  6  7  1  0
  7  8  2  0
  9  2  1  0
 10  9  2  0
 11  9  1  0
 12 11  1  0
 12 13  1  1
 13 14  1  0
 14 15  2  0
 15 16  1  0
 17 16  1  0
 18 17  2  0
 19 18  1  0
 20 21  1  0
 20 19  2  0
 21 22  2  0
 22 14  1  0
 22 17  1  0
 23 24  2  0
 23 12  1  0
 26 25  1  1
 26 27  1  0
 27 23  1  0
 28 26  1  0
 29 28  2  0
 30 28  1  0
M  END
$$$$
