HWA.pdb
     RDKit          3D

 30 32  0  0  1  0  0  0  0  0999 V2000
    8.2296  -16.7307   21.5368 N   0  0  0  0  0  0  0  0  0  0  0  0
    9.1834  -15.6720   21.6472 C   0  0  1  0  0  0  0  0  0  0  0  0
    8.6709  -14.3341   21.2190 C   0  0  0  0  0  0  0  0  0  0  0  0
    8.2950  -14.2567   19.8130 C   0  0  0  0  0  0  0  0  0  0  0  0
    8.3699  -15.2433   18.8645 C   0  0  0  0  0  0  0  0  0  0  0  0
    7.9157  -14.7350   17.6861 N   0  0  0  0  0  0  0  0  0  0  0  0
    7.5757  -13.4749   17.9176 C   0  0  0  0  0  0  0  0  0  0  0  0
    7.7998  -13.1770   19.1937 N   0  0  0  0  0  0  0  0  0  0  0  0
    9.7044  -15.5150   23.0403 C   0  0  0  0  0  0  0  0  0  0  0  0
   10.5968  -14.6601   23.2660 O   0  0  0  0  0  0  0  0  0  0  0  0
    9.2172  -16.3005   24.0917 N   0  0  0  0  0  0  0  0  0  0  0  0
    9.7638  -16.2321   25.4536 C   0  0  1  0  0  0  0  0  0  0  0  0
    8.6459  -16.4290   26.4635 C   0  0  0  0  0  0  0  0  0  0  0  0
    7.5192  -15.5195   26.2395 C   0  0  0  0  0  0  0  0  0  0  0  0
    6.2560  -15.8216   25.7832 C   0  0  0  0  0  0  0  0  0  0  0  0
    5.5421  -14.6878   25.7276 N   0  0  0  0  0  0  0  0  0  0  0  0
    6.2766  -13.6340   26.1290 C   0  0  0  0  0  0  0  0  0  0  0  0
    6.0112  -12.2875   26.2515 C   0  0  0  0  0  0  0  0  0  0  0  0
    7.0223  -11.4716   26.7055 C   0  0  0  0  0  0  0  0  0  0  0  0
    8.2719  -11.9315   27.0392 C   0  0  0  0  0  0  0  0  0  0  0  0
    8.4892  -13.3003   26.8976 C   0  0  0  0  0  0  0  0  0  0  0  0
    7.5189  -14.1595   26.4502 C   0  0  0  0  0  0  0  0  0  0  0  0
   10.6839  -17.3867   25.5813 C   0  0  0  0  0  0  0  0  0  0  0  0
   10.9171  -17.8366   26.7271 O   0  0  0  0  0  0  0  0  0  0  0  0
   11.7924  -20.4015   24.1044 C   0  0  0  0  0  0  0  0  0  0  0  0
   12.2781  -19.0908   24.6867 C   0  0  2  0  0  0  0  0  0  0  0  0
   11.3185  -18.0149   24.4820 N   0  0  0  0  0  0  0  0  0  0  0  0
   13.6208  -18.7145   24.1759 C   0  0  0  0  0  0  0  0  0  0  0  0
   13.7432  -17.9032   23.2251 O   0  0  0  0  0  0  0  0  0  0  0  0
   14.8068  -19.2272   24.7082 O   0  0  0  0  0  0  0  0  0  0  0  0
  2  3  1  0
  2  1  1  1
  4  3  1  0
  4  8  1  0
  5  6  1  0
  5  4  2  0
  6  7  1  0
  7  8  2  0
  9  2  1  0
 10  9  2  0
 11  9  1  0
 12 11  1  0
 12 13  1  1
 13 14  1  0
 14 15  2  0
 15 16  1  0
 17 16  1  0
 18 17  2  0
 19 18  1  0
 20 21  1  0
 20 19  2  0
 21 22  2  0
 22 14  1  0
 22 17  1  0
 23 24  2  0
 23 12  1  0
 26 25  1  6
 26 27  1  0
 27 23  1  0
 28 26  1  0
 29 28  2  0
 30 28  1  0
M  END
$$$$
