HWA.pdb
     RDKit          3D

 30 32  0  0  1  0  0  0  0  0999 V2000
    8.4542  -16.4243   18.7091 N   0  0  0  0  0  0  0  0  0  0  0  0
    9.2592  -15.2923   19.0453 C   0  0  1  0  0  0  0  0  0  0  0  0
    8.9111  -14.0450   18.2977 C   0  0  0  0  0  0  0  0  0  0  0  0
    8.7098  -14.2383   16.8673 C   0  0  0  0  0  0  0  0  0  0  0  0
    8.8533  -15.3938   16.1441 C   0  0  0  0  0  0  0  0  0  0  0  0
    8.5664  -15.1185   14.8422 N   0  0  0  0  0  0  0  0  0  0  0  0
    8.2578  -13.8308   14.7814 C   0  0  0  0  0  0  0  0  0  0  0  0
    8.3409  -13.2920   15.9939 N   0  0  0  0  0  0  0  0  0  0  0  0
    9.1983  -14.9599   20.5023 C   0  0  0  0  0  0  0  0  0  0  0  0
    9.8627  -13.9855   20.9349 O   0  0  0  0  0  0  0  0  0  0  0  0
    8.4174  -15.7123   21.3877 N   0  0  0  0  0  0  0  0  0  0  0  0
    8.3927  -15.4614   22.8350 C   0  0  1  0  0  0  0  0  0  0  0  0
    6.9548  -15.4356   23.3248 C   0  0  0  0  0  0  0  0  0  0  0  0
    6.8499  -15.0785   24.7419 C   0  0  0  0  0  0  0  0  0  0  0  0
    6.5188  -15.8889   25.8043 C   0  0  0  0  0  0  0  0  0  0  0  0
    6.5422  -15.1518   26.9243 N   0  0  0  0  0  0  0  0  0  0  0  0
    6.8765  -13.8760   26.6563 C   0  0  0  0  0  0  0  0  0  0  0  0
    7.0343  -12.7546   27.4411 C   0  0  0  0  0  0  0  0  0  0  0  0
    7.3918  -11.5799   26.8195 C   0  0  0  0  0  0  0  0  0  0  0  0
    7.5968  -11.4733   25.4663 C   0  0  0  0  0  0  0  0  0  0  0  0
    7.4246  -12.6355   24.7177 C   0  0  0  0  0  0  0  0  0  0  0  0
    7.0693  -13.8326   25.2839 C   0  0  0  0  0  0  0  0  0  0  0  0
    9.0530  -16.6306   23.4620 C   0  0  0  0  0  0  0  0  0  0  0  0
    8.8600  -17.7619   22.9593 O   0  0  0  0  0  0  0  0  0  0  0  0
   11.9549  -17.8910   24.5937 C   0  0  0  0  0  0  0  0  0  0  0  0
   10.5495  -17.7308   25.1341 C   0  0  2  0  0  0  0  0  0  0  0  0
    9.8921  -16.5464   24.5997 N   0  0  0  0  0  0  0  0  0  0  0  0
   10.5162  -17.7372   26.6187 C   0  0  0  0  0  0  0  0  0  0  0  0
   10.0361  -16.7671   27.2556 O   0  0  0  0  0  0  0  0  0  0  0  0
   11.0056  -18.7986   27.3846 O   0  0  0  0  0  0  0  0  0  0  0  0
  2  3  1  0
  2  1  1  1
  4  3  1  0
  4  8  1  0
  5  6  1  0
  5  4  2  0
  6  7  1  0
  7  8  2  0
  9  2  1  0
 10  9  2  0
 11  9  1  0
 12 11  1  0
 12 13  1  1
 13 14  1  0
 14 15  2  0
 15 16  1  0
 17 16  1  0
 18 17  2  0
 19 18  1  0
 20 21  1  0
 20 19  2  0
 21 22  2  0
 22 14  1  0
 22 17  1  0
 23 24  2  0
 23 12  1  0
 26 25  1  1
 26 27  1  0
 27 23  1  0
 28 26  1  0
 29 28  2  0
 30 28  1  0
M  END
$$$$
