HWA.pdb
     RDKit          3D

 30 32  0  0  1  0  0  0  0  0999 V2000
   10.4340  -18.2251   21.1257 N   0  0  0  0  0  0  0  0  0  0  0  0
   10.9272  -16.8843   21.0836 C   0  0  1  0  0  0  0  0  0  0  0  0
   10.5633  -16.1328   19.8431 C   0  0  0  0  0  0  0  0  0  0  0  0
   11.0915  -16.7106   18.6139 C   0  0  0  0  0  0  0  0  0  0  0  0
   11.8647  -17.8338   18.4743 C   0  0  0  0  0  0  0  0  0  0  0  0
   12.1303  -18.0047   17.1502 N   0  0  0  0  0  0  0  0  0  0  0  0
   11.5331  -17.0109   16.5077 C   0  0  0  0  0  0  0  0  0  0  0  0
   10.9054  -16.2268   17.3787 N   0  0  0  0  0  0  0  0  0  0  0  0
   10.4578  -16.0659   22.2440 C   0  0  0  0  0  0  0  0  0  0  0  0
   10.7473  -14.8442   22.2868 O   0  0  0  0  0  0  0  0  0  0  0  0
    9.7050  -16.6350   23.2781 N   0  0  0  0  0  0  0  0  0  0  0  0
    9.2140  -15.8574   24.4238 C   0  0  1  0  0  0  0  0  0  0  0  0
    7.9497  -16.4976   24.9717 C   0  0  0  0  0  0  0  0  0  0  0  0
    6.9398  -15.5082   25.3564 C   0  0  0  0  0  0  0  0  0  0  0  0
    5.6189  -15.7189   25.6820 C   0  0  0  0  0  0  0  0  0  0  0  0
    5.0585  -14.5351   25.9702 N   0  0  0  0  0  0  0  0  0  0  0  0
    5.9519  -13.5357   25.8509 C   0  0  0  0  0  0  0  0  0  0  0  0
    5.8754  -12.1719   26.0318 C   0  0  0  0  0  0  0  0  0  0  0  0
    7.0144  -11.4299   25.8169 C   0  0  0  0  0  0  0  0  0  0  0  0
    8.2128  -11.9792   25.4341 C   0  0  0  0  0  0  0  0  0  0  0  0
    8.2374  -13.3618   25.2648 C   0  0  0  0  0  0  0  0  0  0  0  0
    7.1335  -14.1500   25.4650 C   0  0  0  0  0  0  0  0  0  0  0  0
   10.2571  -15.9716   25.4702 C   0  0  0  0  0  0  0  0  0  0  0  0
   11.0107  -16.9724   25.4509 O   0  0  0  0  0  0  0  0  0  0  0  0
   10.6406  -14.4387   28.8820 C   0  0  0  0  0  0  0  0  0  0  0  0
   11.0297  -15.3978   27.7766 C   0  0  2  0  0  0  0  0  0  0  0  0
   10.4544  -15.0143   26.4951 N   0  0  0  0  0  0  0  0  0  0  0  0
   10.6960  -16.8051   28.1131 C   0  0  0  0  0  0  0  0  0  0  0  0
    9.5134  -17.2213   28.0393 O   0  0  0  0  0  0  0  0  0  0  0  0
   11.6545  -17.7353   28.5241 O   0  0  0  0  0  0  0  0  0  0  0  0
  2  3  1  0
  2  1  1  6
  4  3  1  0
  4  8  1  0
  5  6  1  0
  5  4  2  0
  6  7  1  0
  7  8  2  0
  9  2  1  0
 10  9  2  0
 11  9  1  0
 12 11  1  0
 12 13  1  1
 13 14  1  0
 14 15  2  0
 15 16  1  0
 17 16  1  0
 18 17  2  0
 19 18  1  0
 20 21  1  0
 20 19  2  0
 21 22  2  0
 22 14  1  0
 22 17  1  0
 23 24  2  0
 23 12  1  0
 26 25  1  1
 26 27  1  0
 27 23  1  0
 28 26  1  0
 29 28  2  0
 30 28  1  0
M  END
$$$$
