HWA.pdb
     RDKit          3D

 30 32  0  0  1  0  0  0  0  0999 V2000
    8.0906  -16.5419   21.2771 N   0  0  0  0  0  0  0  0  0  0  0  0
    9.1220  -15.5572   21.3735 C   0  0  1  0  0  0  0  0  0  0  0  0
    8.7047  -14.1847   20.9517 C   0  0  0  0  0  0  0  0  0  0  0  0
    8.3497  -14.0711   19.5427 C   0  0  0  0  0  0  0  0  0  0  0  0
    8.4139  -15.0408   18.5761 C   0  0  0  0  0  0  0  0  0  0  0  0
    7.9878  -14.4991   17.4022 N   0  0  0  0  0  0  0  0  0  0  0  0
    7.6748  -13.2359   17.6538 C   0  0  0  0  0  0  0  0  0  0  0  0
    7.8886  -12.9681   18.9384 N   0  0  0  0  0  0  0  0  0  0  0  0
    9.6728  -15.4401   22.7590 C   0  0  0  0  0  0  0  0  0  0  0  0
   10.4844  -14.5168   23.0177 O   0  0  0  0  0  0  0  0  0  0  0  0
    9.3013  -16.3373   23.7675 N   0  0  0  0  0  0  0  0  0  0  0  0
    9.8342  -16.2608   25.1344 C   0  0  1  0  0  0  0  0  0  0  0  0
    8.7023  -16.4269   26.1342 C   0  0  0  0  0  0  0  0  0  0  0  0
    7.5829  -15.5186   25.8723 C   0  0  0  0  0  0  0  0  0  0  0  0
    6.3334  -15.8231   25.3813 C   0  0  0  0  0  0  0  0  0  0  0  0
    5.6218  -14.6894   25.2983 N   0  0  0  0  0  0  0  0  0  0  0  0
    6.3448  -13.6335   25.7148 C   0  0  0  0  0  0  0  0  0  0  0  0
    6.0765  -12.2862   25.8218 C   0  0  0  0  0  0  0  0  0  0  0  0
    7.0742  -11.4679   26.3002 C   0  0  0  0  0  0  0  0  0  0  0  0
    8.3135  -11.9261   26.6727 C   0  0  0  0  0  0  0  0  0  0  0  0
    8.5342  -13.2958   26.5454 C   0  0  0  0  0  0  0  0  0  0  0  0
    7.5770  -14.1573   26.0749 C   0  0  0  0  0  0  0  0  0  0  0  0
   10.7339  -17.4285   25.2864 C   0  0  0  0  0  0  0  0  0  0  0  0
   11.0371  -17.7980   26.4445 O   0  0  0  0  0  0  0  0  0  0  0  0
   12.1178  -20.2461   23.2079 C   0  0  0  0  0  0  0  0  0  0  0  0
   12.0927  -19.3386   24.4198 C   0  0  2  0  0  0  0  0  0  0  0  0
   11.2741  -18.1550   24.1973 N   0  0  0  0  0  0  0  0  0  0  0  0
   13.4583  -18.9676   24.8700 C   0  0  0  0  0  0  0  0  0  0  0  0
   14.0797  -19.6814   25.6956 O   0  0  0  0  0  0  0  0  0  0  0  0
   14.1242  -17.8266   24.4145 O   0  0  0  0  0  0  0  0  0  0  0  0
  2  3  1  0
  2  1  1  1
  4  3  1  0
  4  8  1  0
  5  6  1  0
  5  4  2  0
  6  7  1  0
  7  8  2  0
  9  2  1  0
 10  9  2  0
 11  9  1  0
 12 11  1  0
 12 13  1  1
 13 14  1  0
 14 15  2  0
 15 16  1  0
 17 16  1  0
 18 17  2  0
 19 18  1  0
 20 21  1  0
 20 19  2  0
 21 22  2  0
 22 14  1  0
 22 17  1  0
 23 24  2  0
 23 12  1  0
 26 25  1  6
 26 27  1  0
 27 23  1  0
 28 26  1  0
 29 28  2  0
 30 28  1  0
M  END
$$$$
