HWA.pdb
     RDKit          3D

 30 32  0  0  1  0  0  0  0  0999 V2000
    8.4874  -16.9978   21.1736 N   0  0  0  0  0  0  0  0  0  0  0  0
    9.2915  -15.8358   21.3875 C   0  0  1  0  0  0  0  0  0  0  0  0
    8.6565  -14.5569   20.9433 C   0  0  0  0  0  0  0  0  0  0  0  0
    8.2598  -14.5385   19.5410 C   0  0  0  0  0  0  0  0  0  0  0  0
    8.4128  -15.5311   18.6083 C   0  0  0  0  0  0  0  0  0  0  0  0
    7.9019  -15.0867   17.4274 N   0  0  0  0  0  0  0  0  0  0  0  0
    7.4525  -13.8583   17.6419 C   0  0  0  0  0  0  0  0  0  0  0  0
    7.6628  -13.5188   18.9100 N   0  0  0  0  0  0  0  0  0  0  0  0
    9.6709  -15.6596   22.8234 C   0  0  0  0  0  0  0  0  0  0  0  0
   10.3032  -14.6296   23.1663 O   0  0  0  0  0  0  0  0  0  0  0  0
    9.3352  -16.6180   23.7871 N   0  0  0  0  0  0  0  0  0  0  0  0
    9.6685  -16.4645   25.2096 C   0  0  1  0  0  0  0  0  0  0  0  0
    8.4256  -16.6925   26.0532 C   0  0  0  0  0  0  0  0  0  0  0  0
    7.4115  -15.6543   25.8523 C   0  0  0  0  0  0  0  0  0  0  0  0
    6.1465  -15.7871   25.3257 C   0  0  0  0  0  0  0  0  0  0  0  0
    5.5580  -14.5821   25.3254 N   0  0  0  0  0  0  0  0  0  0  0  0
    6.3786  -13.6433   25.8317 C   0  0  0  0  0  0  0  0  0  0  0  0
    6.2494  -12.2878   26.0422 C   0  0  0  0  0  0  0  0  0  0  0  0
    7.3175  -11.6182   26.5944 C   0  0  0  0  0  0  0  0  0  0  0  0
    8.4955  -12.2313   26.9424 C   0  0  0  0  0  0  0  0  0  0  0  0
    8.5753  -13.6025   26.7094 C   0  0  0  0  0  0  0  0  0  0  0  0
    7.5429  -14.3198   26.1621 C   0  0  0  0  0  0  0  0  0  0  0  0
   10.6226  -17.5540   25.5239 C   0  0  0  0  0  0  0  0  0  0  0  0
   11.0364  -17.6597   26.7018 O   0  0  0  0  0  0  0  0  0  0  0  0
   13.3328  -19.4513   24.2024 C   0  0  0  0  0  0  0  0  0  0  0  0
   12.0209  -19.5450   24.9528 C   0  0  2  0  0  0  0  0  0  0  0  0
   11.0973  -18.4866   24.5696 N   0  0  0  0  0  0  0  0  0  0  0  0
   12.2184  -19.5759   26.4242 C   0  0  0  0  0  0  0  0  0  0  0  0
   12.9483  -20.4478   26.9573 O   0  0  0  0  0  0  0  0  0  0  0  0
   11.6185  -18.6578   27.2903 O   0  0  0  0  0  0  0  0  0  0  0  0
  2  3  1  0
  2  1  1  1
  4  3  1  0
  4  8  1  0
  5  6  1  0
  5  4  2  0
  6  7  1  0
  7  8  2  0
  9  2  1  0
 10  9  2  0
 11  9  1  0
 12 11  1  0
 12 13  1  1
 13 14  1  0
 14 15  2  0
 15 16  1  0
 17 16  1  0
 18 17  2  0
 19 18  1  0
 20 21  1  0
 20 19  2  0
 21 22  2  0
 22 14  1  0
 22 17  1  0
 23 24  2  0
 23 12  1  0
 26 25  1  6
 26 27  1  0
 27 23  1  0
 28 26  1  0
 29 28  2  0
 30 28  1  0
M  END
$$$$
