HKK.pdb
     RDKit          3D

 29 29  0  0  1  0  0  0  0  0999 V2000
    9.7602  -14.2046   17.5829 N   0  0  0  0  0  0  0  0  0  0  0  0
   10.4557  -15.2777   18.2604 C   0  0  1  0  0  0  0  0  0  0  0  0
   11.8024  -14.8123   18.7305 C   0  0  0  0  0  0  0  0  0  0  0  0
   12.8473  -15.1027   17.7319 C   0  0  0  0  0  0  0  0  0  0  0  0
   12.5622  -15.6916   16.4967 C   0  0  0  0  0  0  0  0  0  0  0  0
   13.7365  -15.8121   15.8384 N   0  0  0  0  0  0  0  0  0  0  0  0
   14.6987  -15.3173   16.6386 C   0  0  0  0  0  0  0  0  0  0  0  0
   14.1639  -14.8841   17.7921 N   0  0  0  0  0  0  0  0  0  0  0  0
    9.6702  -15.6516   19.4924 C   0  0  0  0  0  0  0  0  0  0  0  0
    9.0838  -14.7445   20.1131 O   0  0  0  0  0  0  0  0  0  0  0  0
    9.5883  -16.9698   19.9433 N   0  0  0  0  0  0  0  0  0  0  0  0
    8.8950  -17.3673   21.0983 C   0  0  1  0  0  0  0  0  0  0  0  0
    8.3467  -18.7526   21.1580 C   0  0  0  0  0  0  0  0  0  0  0  0
    7.6456  -19.1664   19.9043 C   0  0  0  0  0  0  0  0  0  0  0  0
    7.2169  -20.6425   19.9669 C   0  0  0  0  0  0  0  0  0  0  0  0
    6.3811  -20.9195   18.7243 C   0  0  0  0  0  0  0  0  0  0  0  0
    5.9912  -22.3004   18.7284 N   0  0  0  0  0  0  0  0  0  0  0  0
    9.7040  -17.0807   22.3118 C   0  0  0  0  0  0  0  0  0  0  0  0
   10.9709  -17.1710   22.2001 O   0  0  0  0  0  0  0  0  0  0  0  0
    9.1181  -16.7268   23.5285 N   0  0  0  0  0  0  0  0  0  0  0  0
   10.0342  -16.3607   24.6596 C   0  0  1  0  0  0  0  0  0  0  0  0
    9.2528  -15.4479   25.5218 C   0  0  0  0  0  0  0  0  0  0  0  0
    9.7387  -14.9540   26.8066 C   0  0  0  0  0  0  0  0  0  0  0  0
    8.8924  -14.0801   27.6600 C   0  0  0  0  0  0  0  0  0  0  0  0
    9.5474  -13.7307   28.9787 C   0  0  0  0  0  0  0  0  0  0  0  0
    8.7832  -12.7388   29.7101 N   0  0  0  0  0  0  0  0  0  0  0  0
   10.3856  -17.6927   25.1988 C   0  0  0  0  0  0  0  0  0  0  0  0
    9.6975  -18.8733   25.0183 O   0  0  0  0  0  0  0  0  0  0  0  0
   11.4299  -17.8132   25.9235 O   0  0  0  0  0  0  0  0  0  0  0  0
  2  3  1  0
  2  1  1  1
  3  4  1  0
  4  5  2  0
  4  8  1  0
  5  6  1  0
  6  7  1  0
  8  7  2  0
  9  2  1  0
  9 11  1  0
 10  9  2  0
 12 11  1  0
 13 14  1  0
 12 13  1  6
 15 14  1  0
 16 15  1  0
 16 17  1  0
 18 12  1  0
 18 19  2  0
 20 18  1  0
 21 20  1  0
 21 27  1  0
 21 22  1  1
 23 22  1  0
 24 23  1  0
 25 24  1  0
 26 25  1  0
 27 28  1  0
 29 27  2  0
M  END
$$$$
