HKK.pdb
     RDKit          3D

 29 29  0  0  1  0  0  0  0  0999 V2000
    5.6265  -14.4674   21.1546 N   0  0  0  0  0  0  0  0  0  0  0  0
    6.7113  -15.4245   21.1920 C   0  0  1  0  0  0  0  0  0  0  0  0
    8.0331  -14.7191   21.1125 C   0  0  0  0  0  0  0  0  0  0  0  0
    8.2687  -14.1753   19.7626 C   0  0  0  0  0  0  0  0  0  0  0  0
    7.3350  -13.3699   19.1043 C   0  0  0  0  0  0  0  0  0  0  0  0
    7.8676  -13.0522   17.9033 N   0  0  0  0  0  0  0  0  0  0  0  0
    9.0763  -13.6393   17.8315 C   0  0  0  0  0  0  0  0  0  0  0  0
    9.3260  -14.3240   18.9597 N   0  0  0  0  0  0  0  0  0  0  0  0
    6.6758  -16.1330   22.5230 C   0  0  0  0  0  0  0  0  0  0  0  0
    6.2318  -15.5121   23.5075 O   0  0  0  0  0  0  0  0  0  0  0  0
    7.1223  -17.4469   22.6715 N   0  0  0  0  0  0  0  0  0  0  0  0
    7.0560  -18.1721   23.8724 C   0  0  1  0  0  0  0  0  0  0  0  0
    6.8188  -19.6426   23.8039 C   0  0  0  0  0  0  0  0  0  0  0  0
    6.7828  -20.2998   25.1460 C   0  0  0  0  0  0  0  0  0  0  0  0
    6.4561  -21.7981   25.0242 C   0  0  0  0  0  0  0  0  0  0  0  0
    6.4466  -22.3709   26.4352 C   0  0  0  0  0  0  0  0  0  0  0  0
    6.1138  -23.7649   26.3656 N   0  0  0  0  0  0  0  0  0  0  0  0
    8.2423  -17.8806   24.7192 C   0  0  0  0  0  0  0  0  0  0  0  0
    9.3868  -17.9621   24.1634 O   0  0  0  0  0  0  0  0  0  0  0  0
    8.1258  -17.5313   26.0658 N   0  0  0  0  0  0  0  0  0  0  0  0
    9.3636  -17.0559   26.7691 C   0  0  1  0  0  0  0  0  0  0  0  0
    8.9023  -16.0354   27.7351 C   0  0  0  0  0  0  0  0  0  0  0  0
    9.7790  -15.4259   28.7303 C   0  0  0  0  0  0  0  0  0  0  0  0
    9.2627  -14.4131   29.6871 C   0  0  0  0  0  0  0  0  0  0  0  0
   10.3224  -13.9111   30.6437 C   0  0  0  0  0  0  0  0  0  0  0  0
   11.0486  -12.7825   30.0945 N   0  0  0  0  0  0  0  0  0  0  0  0
    9.9045  -18.3240   27.3055 C   0  0  0  0  0  0  0  0  0  0  0  0
    9.1959  -19.4590   27.6366 O   0  0  0  0  0  0  0  0  0  0  0  0
   11.1610  -18.4264   27.5082 O   0  0  0  0  0  0  0  0  0  0  0  0
  2  3  1  0
  2  1  1  1
  3  4  1  0
  4  5  2  0
  4  8  1  0
  5  6  1  0
  6  7  1  0
  8  7  2  0
  9  2  1  0
  9 11  1  0
 10  9  2  0
 12 11  1  0
 13 14  1  0
 12 13  1  6
 15 14  1  0
 16 15  1  0
 16 17  1  0
 18 12  1  0
 18 19  2  0
 20 18  1  0
 21 20  1  0
 21 27  1  0
 21 22  1  1
 23 22  1  0
 24 23  1  0
 25 24  1  0
 26 25  1  0
 27 28  1  0
 29 27  2  0
M  END
$$$$
