HKK.pdb
     RDKit          3D

 29 29  0  0  1  0  0  0  0  0999 V2000
    7.4188  -18.2883   16.5208 N   0  0  0  0  0  0  0  0  0  0  0  0
    8.5480  -17.4559   16.8763 C   0  0  1  0  0  0  0  0  0  0  0  0
    8.2162  -16.0079   16.6656 C   0  0  0  0  0  0  0  0  0  0  0  0
    8.1472  -15.6783   15.2303 C   0  0  0  0  0  0  0  0  0  0  0  0
    8.3333  -16.6370   14.2303 C   0  0  0  0  0  0  0  0  0  0  0  0
    8.2040  -15.9992   13.0457 N   0  0  0  0  0  0  0  0  0  0  0  0
    7.9495  -14.7048   13.3116 C   0  0  0  0  0  0  0  0  0  0  0  0
    7.9137  -14.5034   14.6390 N   0  0  0  0  0  0  0  0  0  0  0  0
    8.8227  -17.6294   18.3491 C   0  0  0  0  0  0  0  0  0  0  0  0
    7.8503  -17.7616   19.1166 O   0  0  0  0  0  0  0  0  0  0  0  0
   10.1211  -17.6446   18.8607 N   0  0  0  0  0  0  0  0  0  0  0  0
   10.4393  -17.9343   20.1977 C   0  0  1  0  0  0  0  0  0  0  0  0
   10.5775  -19.3625   20.6031 C   0  0  0  0  0  0  0  0  0  0  0  0
   11.9622  -19.7242   21.0348 C   0  0  0  0  0  0  0  0  0  0  0  0
   12.0246  -21.1721   21.5508 C   0  0  0  0  0  0  0  0  0  0  0  0
   13.4561  -21.4246   22.0051 C   0  0  0  0  0  0  0  0  0  0  0  0
   13.5244  -22.7203   22.6178 N   0  0  0  0  0  0  0  0  0  0  0  0
   11.6338  -17.1596   20.6248 C   0  0  0  0  0  0  0  0  0  0  0  0
   12.7698  -17.5738   20.2205 O   0  0  0  0  0  0  0  0  0  0  0  0
   11.5336  -16.0260   21.4333 N   0  0  0  0  0  0  0  0  0  0  0  0
   12.2369  -16.0545   22.7590 C   0  0  1  0  0  0  0  0  0  0  0  0
   11.3263  -16.7756   23.6744 C   0  0  0  0  0  0  0  0  0  0  0  0
   11.7706  -17.3853   24.9240 C   0  0  0  0  0  0  0  0  0  0  0  0
   10.8112  -18.0838   25.8181 C   0  0  0  0  0  0  0  0  0  0  0  0
   11.4585  -18.6129   27.0795 C   0  0  0  0  0  0  0  0  0  0  0  0
   10.4924  -19.2586   27.9470 N   0  0  0  0  0  0  0  0  0  0  0  0
   13.5170  -16.7037   22.4008 C   0  0  0  0  0  0  0  0  0  0  0  0
   14.7831  -16.3224   22.7903 O   0  0  0  0  0  0  0  0  0  0  0  0
   13.5012  -17.7314   21.6434 O   0  0  0  0  0  0  0  0  0  0  0  0
  2  3  1  0
  2  1  1  1
  3  4  1  0
  4  5  2  0
  4  8  1  0
  5  6  1  0
  6  7  1  0
  8  7  2  0
  9  2  1  0
  9 11  1  0
 10  9  2  0
 12 11  1  0
 13 14  1  0
 12 13  1  6
 15 14  1  0
 16 15  1  0
 16 17  1  0
 18 12  1  0
 18 19  2  0
 20 18  1  0
 21 20  1  0
 21 27  1  0
 21 22  1  1
 23 22  1  0
 24 23  1  0
 25 24  1  0
 26 25  1  0
 27 28  1  0
 29 27  2  0
M  END
$$$$
