HKK.pdb
     RDKit          3D

 29 29  0  0  1  0  0  0  0  0999 V2000
    5.9287  -15.6257   19.3417 N   0  0  0  0  0  0  0  0  0  0  0  0
    7.2072  -15.7443   20.0092 C   0  0  1  0  0  0  0  0  0  0  0  0
    7.8719  -14.4027   20.1065 C   0  0  0  0  0  0  0  0  0  0  0  0
    8.2810  -13.9108   18.7783 C   0  0  0  0  0  0  0  0  0  0  0  0
    8.1322  -14.6739   17.6168 C   0  0  0  0  0  0  0  0  0  0  0  0
    8.6032  -13.9274   16.5931 N   0  0  0  0  0  0  0  0  0  0  0  0
    9.0222  -12.7570   17.1086 C   0  0  0  0  0  0  0  0  0  0  0  0
    8.8287  -12.7409   18.4376 N   0  0  0  0  0  0  0  0  0  0  0  0
    6.9654  -16.2134   21.4220 C   0  0  0  0  0  0  0  0  0  0  0  0
    6.0250  -15.7009   22.0585 O   0  0  0  0  0  0  0  0  0  0  0  0
    7.7595  -17.1927   22.0204 N   0  0  0  0  0  0  0  0  0  0  0  0
    7.5513  -17.6953   23.3153 C   0  0  1  0  0  0  0  0  0  0  0  0
    7.8745  -19.1258   23.5841 C   0  0  0  0  0  0  0  0  0  0  0  0
    7.6571  -19.5245   25.0083 C   0  0  0  0  0  0  0  0  0  0  0  0
    8.0922  -20.9797   25.2522 C   0  0  0  0  0  0  0  0  0  0  0  0
    7.8435  -21.2811   26.7242 C   0  0  0  0  0  0  0  0  0  0  0  0
    8.2564  -22.6281   26.9960 N   0  0  0  0  0  0  0  0  0  0  0  0
    8.2083  -16.8208   24.3217 C   0  0  0  0  0  0  0  0  0  0  0  0
    9.4414  -16.5518   24.1408 O   0  0  0  0  0  0  0  0  0  0  0  0
    7.5197  -16.3080   25.4225 N   0  0  0  0  0  0  0  0  0  0  0  0
    8.2773  -15.4135   26.3599 C   0  0  1  0  0  0  0  0  0  0  0  0
    7.2926  -14.4205   26.8412 C   0  0  0  0  0  0  0  0  0  0  0  0
    7.0598  -13.1420   26.1764 C   0  0  0  0  0  0  0  0  0  0  0  0
    6.5110  -11.9803   26.9228 C   0  0  0  0  0  0  0  0  0  0  0  0
    6.3132  -10.7592   26.0511 C   0  0  0  0  0  0  0  0  0  0  0  0
    5.7442   -9.6542   26.7980 N   0  0  0  0  0  0  0  0  0  0  0  0
    8.8103  -16.3902   27.3348 C   0  0  0  0  0  0  0  0  0  0  0  0
    9.9453  -16.2635   28.1065 O   0  0  0  0  0  0  0  0  0  0  0  0
    8.1894  -17.4916   27.5127 O   0  0  0  0  0  0  0  0  0  0  0  0
  2  3  1  0
  2  1  1  6
  3  4  1  0
  4  5  2  0
  4  8  1  0
  5  6  1  0
  6  7  1  0
  8  7  2  0
  9  2  1  0
  9 11  1  0
 10  9  2  0
 12 11  1  0
 13 14  1  0
 12 13  1  6
 15 14  1  0
 16 15  1  0
 16 17  1  0
 18 12  1  0
 18 19  2  0
 20 18  1  0
 21 20  1  0
 21 27  1  0
 21 22  1  1
 23 22  1  0
 24 23  1  0
 25 24  1  0
 26 25  1  0
 27 28  1  0
 29 27  2  0
M  END
$$$$
