HKK.pdb
     RDKit          3D

 29 29  0  0  1  0  0  0  0  0999 V2000
    7.4058  -17.1143   18.1013 N   0  0  0  0  0  0  0  0  0  0  0  0
    8.0871  -16.2139   19.0064 C   0  0  1  0  0  0  0  0  0  0  0  0
    7.5995  -14.8086   18.8105 C   0  0  0  0  0  0  0  0  0  0  0  0
    7.7484  -14.3815   17.4073 C   0  0  0  0  0  0  0  0  0  0  0  0
    8.9915  -14.0866   16.8403 C   0  0  0  0  0  0  0  0  0  0  0  0
    8.7636  -13.7334   15.5557 N   0  0  0  0  0  0  0  0  0  0  0  0
    7.4363  -13.8095   15.3472 C   0  0  0  0  0  0  0  0  0  0  0  0
    6.8133  -14.2033   16.4700 N   0  0  0  0  0  0  0  0  0  0  0  0
    7.7353  -16.6032   20.4204 C   0  0  0  0  0  0  0  0  0  0  0  0
    6.8769  -15.9277   21.0195 O   0  0  0  0  0  0  0  0  0  0  0  0
    8.3409  -17.6857   21.0600 N   0  0  0  0  0  0  0  0  0  0  0  0
    8.0627  -18.0795   22.3792 C   0  0  1  0  0  0  0  0  0  0  0  0
    7.7721  -19.5173   22.6466 C   0  0  0  0  0  0  0  0  0  0  0  0
    6.3972  -19.7535   23.1836 C   0  0  0  0  0  0  0  0  0  0  0  0
    5.3588  -19.8122   22.0501 C   0  0  0  0  0  0  0  0  0  0  0  0
    4.0067  -20.0869   22.6948 C   0  0  0  0  0  0  0  0  0  0  0  0
    2.9834  -19.9493   21.6984 N   0  0  0  0  0  0  0  0  0  0  0  0
    9.1208  -17.5878   23.3001 C   0  0  0  0  0  0  0  0  0  0  0  0
   10.3142  -17.5612   22.8521 O   0  0  0  0  0  0  0  0  0  0  0  0
    8.8372  -17.1698   24.6015 N   0  0  0  0  0  0  0  0  0  0  0  0
    9.9983  -16.8294   25.4897 C   0  0  1  0  0  0  0  0  0  0  0  0
    9.4782  -15.8408   26.4589 C   0  0  0  0  0  0  0  0  0  0  0  0
   10.2559  -15.3508   27.5929 C   0  0  0  0  0  0  0  0  0  0  0  0
    9.6761  -14.3784   28.5552 C   0  0  0  0  0  0  0  0  0  0  0  0
   10.6204  -14.0336   29.6864 C   0  0  0  0  0  0  0  0  0  0  0  0
   10.0534  -13.0351   30.5720 N   0  0  0  0  0  0  0  0  0  0  0  0
   10.3824  -18.1640   25.9991 C   0  0  0  0  0  0  0  0  0  0  0  0
   11.6333  -18.5713   26.4105 O   0  0  0  0  0  0  0  0  0  0  0  0
    9.4935  -19.0770   26.0797 O   0  0  0  0  0  0  0  0  0  0  0  0
  2  3  1  0
  2  1  1  6
  3  4  1  0
  4  5  2  0
  4  8  1  0
  5  6  1  0
  6  7  1  0
  8  7  2  0
  9  2  1  0
  9 11  1  0
 10  9  2  0
 12 11  1  0
 13 14  1  0
 12 13  1  6
 15 14  1  0
 16 15  1  0
 16 17  1  0
 18 12  1  0
 18 19  2  0
 20 18  1  0
 21 20  1  0
 21 27  1  0
 21 22  1  1
 23 22  1  0
 24 23  1  0
 25 24  1  0
 26 25  1  0
 27 28  1  0
 29 27  2  0
M  END
$$$$
