HKK.pdb
     RDKit          3D

 29 29  0  0  1  0  0  0  0  0999 V2000
   15.7136  -13.8972   18.0162 N   0  0  0  0  0  0  0  0  0  0  0  0
   14.5593  -14.6635   17.5983 C   0  0  1  0  0  0  0  0  0  0  0  0
   14.9301  -16.1049   17.4086 C   0  0  0  0  0  0  0  0  0  0  0  0
   15.2840  -16.3859   16.0052 C   0  0  0  0  0  0  0  0  0  0  0  0
   15.0245  -15.4828   14.9705 C   0  0  0  0  0  0  0  0  0  0  0  0
   15.4725  -16.0530   13.8297 N   0  0  0  0  0  0  0  0  0  0  0  0
   15.9842  -17.2544   14.1548 C   0  0  0  0  0  0  0  0  0  0  0  0
   15.8725  -17.4626   15.4770 N   0  0  0  0  0  0  0  0  0  0  0  0
   13.5333  -14.6202   18.7029 C   0  0  0  0  0  0  0  0  0  0  0  0
   13.9378  -14.5233   19.8772 O   0  0  0  0  0  0  0  0  0  0  0  0
   12.1640  -14.6851   18.4409 N   0  0  0  0  0  0  0  0  0  0  0  0
   11.1669  -14.5994   19.4264 C   0  0  1  0  0  0  0  0  0  0  0  0
    9.7581  -14.3699   18.9955 C   0  0  0  0  0  0  0  0  0  0  0  0
    8.8020  -14.2464   20.1380 C   0  0  0  0  0  0  0  0  0  0  0  0
    7.3601  -14.0502   19.6392 C   0  0  0  0  0  0  0  0  0  0  0  0
    6.4780  -13.8893   20.8702 C   0  0  0  0  0  0  0  0  0  0  0  0
    5.1225  -13.6895   20.4442 N   0  0  0  0  0  0  0  0  0  0  0  0
   11.2418  -15.7683   20.3414 C   0  0  0  0  0  0  0  0  0  0  0  0
   11.5900  -16.8838   19.8315 O   0  0  0  0  0  0  0  0  0  0  0  0
   10.9470  -15.6664   21.7021 N   0  0  0  0  0  0  0  0  0  0  0  0
   11.1594  -16.8855   22.5516 C   0  0  1  0  0  0  0  0  0  0  0  0
   11.0420  -16.4185   23.9499 C   0  0  0  0  0  0  0  0  0  0  0  0
   11.1513  -17.3106   25.1001 C   0  0  0  0  0  0  0  0  0  0  0  0
   11.1202  -16.7782   26.4870 C   0  0  0  0  0  0  0  0  0  0  0  0
   11.3680  -17.8431   27.5333 C   0  0  0  0  0  0  0  0  0  0  0  0
   11.2337  -17.3152   28.8771 N   0  0  0  0  0  0  0  0  0  0  0  0
   10.1124  -17.7931   22.0334 C   0  0  0  0  0  0  0  0  0  0  0  0
   10.1779  -19.1656   21.9244 O   0  0  0  0  0  0  0  0  0  0  0  0
    9.0092  -17.2980   21.6232 O   0  0  0  0  0  0  0  0  0  0  0  0
  2  3  1  0
  2  1  1  1
  3  4  1  0
  4  5  2  0
  4  8  1  0
  5  6  1  0
  6  7  1  0
  8  7  2  0
  9  2  1  0
  9 11  1  0
 10  9  2  0
 12 11  1  0
 13 14  1  0
 12 13  1  6
 15 14  1  0
 16 15  1  0
 16 17  1  0
 18 12  1  0
 18 19  2  0
 20 18  1  0
 21 20  1  0
 21 27  1  0
 21 22  1  1
 23 22  1  0
 24 23  1  0
 25 24  1  0
 26 25  1  0
 27 28  1  0
 29 27  2  0
M  END
$$$$
