HKK.pdb
     RDKit          3D

 29 29  0  0  1  0  0  0  0  0999 V2000
    9.5769  -19.5579   17.8827 N   0  0  0  0  0  0  0  0  0  0  0  0
   10.4107  -19.2005   19.0102 C   0  0  1  0  0  0  0  0  0  0  0  0
   11.2198  -17.9771   18.6944 C   0  0  0  0  0  0  0  0  0  0  0  0
   12.4526  -18.3249   17.9646 C   0  0  0  0  0  0  0  0  0  0  0  0
   12.8145  -19.6467   17.6896 C   0  0  0  0  0  0  0  0  0  0  0  0
   13.9850  -19.6015   17.0153 N   0  0  0  0  0  0  0  0  0  0  0  0
   14.3236  -18.3057   16.8840 C   0  0  0  0  0  0  0  0  0  0  0  0
   13.3952  -17.5242   17.4596 N   0  0  0  0  0  0  0  0  0  0  0  0
    9.5155  -18.8425   20.1701 C   0  0  0  0  0  0  0  0  0  0  0  0
    8.4028  -18.3410   19.9206 O   0  0  0  0  0  0  0  0  0  0  0  0
    9.9016  -19.0578   21.4939 N   0  0  0  0  0  0  0  0  0  0  0  0
    9.0409  -18.9352   22.5969 C   0  0  1  0  0  0  0  0  0  0  0  0
    8.8520  -20.1163   23.4872 C   0  0  0  0  0  0  0  0  0  0  0  0
    7.9131  -19.8587   24.6215 C   0  0  0  0  0  0  0  0  0  0  0  0
    7.7947  -21.0891   25.5372 C   0  0  0  0  0  0  0  0  0  0  0  0
    6.7160  -20.7795   26.5667 C   0  0  0  0  0  0  0  0  0  0  0  0
    6.6020  -21.8923   27.4652 N   0  0  0  0  0  0  0  0  0  0  0  0
    9.3967  -17.7362   23.4002 C   0  0  0  0  0  0  0  0  0  0  0  0
   10.6377  -17.4988   23.5709 O   0  0  0  0  0  0  0  0  0  0  0  0
    8.4268  -16.8965   23.9506 N   0  0  0  0  0  0  0  0  0  0  0  0
    8.9017  -15.7058   24.7314 C   0  0  1  0  0  0  0  0  0  0  0  0
    7.6871  -14.9139   25.0228 C   0  0  0  0  0  0  0  0  0  0  0  0
    7.6981  -13.7146   25.8548 C   0  0  0  0  0  0  0  0  0  0  0  0
    6.4440  -12.9712   26.1419 C   0  0  0  0  0  0  0  0  0  0  0  0
    6.6500  -11.8121   27.0929 C   0  0  0  0  0  0  0  0  0  0  0  0
    5.4180  -11.0830   27.3236 N   0  0  0  0  0  0  0  0  0  0  0  0
    9.5959  -16.3536   25.8657 C   0  0  0  0  0  0  0  0  0  0  0  0
    9.3126  -17.5808   26.4258 O   0  0  0  0  0  0  0  0  0  0  0  0
   10.5684  -15.7459   26.4270 O   0  0  0  0  0  0  0  0  0  0  0  0
  2  3  1  0
  2  1  1  6
  3  4  1  0
  4  5  2  0
  4  8  1  0
  5  6  1  0
  6  7  1  0
  8  7  2  0
  9  2  1  0
  9 11  1  0
 10  9  2  0
 12 11  1  0
 13 14  1  0
 12 13  1  1
 15 14  1  0
 16 15  1  0
 16 17  1  0
 18 12  1  0
 18 19  2  0
 20 18  1  0
 21 20  1  0
 21 27  1  0
 21 22  1  1
 23 22  1  0
 24 23  1  0
 25 24  1  0
 26 25  1  0
 27 28  1  0
 29 27  2  0
M  END
$$$$
