HKK.pdb
     RDKit          3D

 29 29  0  0  1  0  0  0  0  0999 V2000
   10.9601  -15.4513   20.3781 N   0  0  0  0  0  0  0  0  0  0  0  0
   10.0012  -15.0864   21.3986 C   0  0  1  0  0  0  0  0  0  0  0  0
    8.6507  -15.6533   21.0730 C   0  0  0  0  0  0  0  0  0  0  0  0
    7.9037  -14.7664   20.1626 C   0  0  0  0  0  0  0  0  0  0  0  0
    8.4662  -13.6125   19.6097 C   0  0  0  0  0  0  0  0  0  0  0  0
    7.5163  -13.0455   18.8331 N   0  0  0  0  0  0  0  0  0  0  0  0
    6.4193  -13.8213   18.9088 C   0  0  0  0  0  0  0  0  0  0  0  0
    6.6488  -14.8698   19.7162 N   0  0  0  0  0  0  0  0  0  0  0  0
   10.4321  -15.7106   22.7023 C   0  0  0  0  0  0  0  0  0  0  0  0
   11.3010  -16.6026   22.6677 O   0  0  0  0  0  0  0  0  0  0  0  0
    9.8868  -15.3161   23.9249 N   0  0  0  0  0  0  0  0  0  0  0  0
   10.3945  -15.7014   25.1765 C   0  0  1  0  0  0  0  0  0  0  0  0
   10.0106  -14.9039   26.3764 C   0  0  0  0  0  0  0  0  0  0  0  0
   10.6840  -15.3598   27.6307 C   0  0  0  0  0  0  0  0  0  0  0  0
   10.2572  -14.5034   28.8352 C   0  0  0  0  0  0  0  0  0  0  0  0
   10.9897  -15.0480   30.0543 C   0  0  0  0  0  0  0  0  0  0  0  0
   10.6413  -14.2520   31.1962 N   0  0  0  0  0  0  0  0  0  0  0  0
   10.1406  -17.1463   25.4155 C   0  0  0  0  0  0  0  0  0  0  0  0
    8.9358  -17.5497   25.3091 O   0  0  0  0  0  0  0  0  0  0  0  0
   11.1651  -18.0361   25.7430 N   0  0  0  0  0  0  0  0  0  0  0  0
   10.7952  -19.4768   25.9444 C   0  0  1  0  0  0  0  0  0  0  0  0
   11.8180  -20.2539   25.2115 C   0  0  0  0  0  0  0  0  0  0  0  0
   11.8563  -20.3471   23.7553 C   0  0  0  0  0  0  0  0  0  0  0  0
   12.9124  -21.1331   23.0664 C   0  0  0  0  0  0  0  0  0  0  0  0
   12.8037  -21.0725   21.5582 C   0  0  0  0  0  0  0  0  0  0  0  0
   13.8653  -21.8213   20.9141 N   0  0  0  0  0  0  0  0  0  0  0  0
   10.7766  -19.5738   27.4204 C   0  0  0  0  0  0  0  0  0  0  0  0
   10.0795  -20.4822   28.1877 O   0  0  0  0  0  0  0  0  0  0  0  0
   11.4611  -18.7420   28.1058 O   0  0  0  0  0  0  0  0  0  0  0  0
  2  3  1  0
  2  1  1  6
  3  4  1  0
  4  5  2  0
  4  8  1  0
  5  6  1  0
  6  7  1  0
  8  7  2  0
  9  2  1  0
  9 11  1  0
 10  9  2  0
 12 11  1  0
 13 14  1  0
 12 13  1  1
 15 14  1  0
 16 15  1  0
 16 17  1  0
 18 12  1  0
 18 19  2  0
 20 18  1  0
 21 20  1  0
 21 27  1  0
 21 22  1  6
 23 22  1  0
 24 23  1  0
 25 24  1  0
 26 25  1  0
 27 28  1  0
 29 27  2  0
M  END
$$$$
