WFA.pdb
     RDKit          3D

 31 33  0  0  1  0  0  0  0  0999 V2000
   27.0304  -21.5640  -13.5488 N   0  0  0  0  0  0  0  0  0  0  0  0
   27.0938  -20.4359  -12.6479 C   0  0  1  0  0  0  0  0  0  0  0  0
   25.9961  -19.4204  -12.8707 C   0  0  0  0  0  0  0  0  0  0  0  0
   26.1233  -18.6977  -14.1468 C   0  0  0  0  0  0  0  0  0  0  0  0
   25.0643  -18.2487  -14.9094 C   0  0  0  0  0  0  0  0  0  0  0  0
   25.6130  -17.6793  -15.9942 N   0  0  0  0  0  0  0  0  0  0  0  0
   26.9640  -17.7532  -15.9413 C   0  0  0  0  0  0  0  0  0  0  0  0
   27.9432  -17.3119  -16.8054 C   0  0  0  0  0  0  0  0  0  0  0  0
   29.2581  -17.5285  -16.4742 C   0  0  0  0  0  0  0  0  0  0  0  0
   29.6292  -18.1673  -15.3154 C   0  0  0  0  0  0  0  0  0  0  0  0
   28.6565  -18.6066  -14.4560 C   0  0  0  0  0  0  0  0  0  0  0  0
   27.3360  -18.4069  -14.7573 C   0  0  0  0  0  0  0  0  0  0  0  0
   27.1197  -20.9451  -11.2726 C   0  0  0  0  0  0  0  0  0  0  0  0
   26.7328  -22.1168  -10.9947 O   0  0  0  0  0  0  0  0  0  0  0  0
   27.5752  -20.1843  -10.1470 N   0  0  0  0  0  0  0  0  0  0  0  0
   27.3917  -20.6146   -8.7719 C   0  0  1  0  0  0  0  0  0  0  0  0
   28.2492  -19.6404   -7.9774 C   0  0  0  0  0  0  0  0  0  0  0  0
   28.3038  -19.8840   -6.5457 C   0  0  0  0  0  0  0  0  0  0  0  0
   27.5777  -19.0843   -5.6925 C   0  0  0  0  0  0  0  0  0  0  0  0
   27.5996  -19.2856   -4.3082 C   0  0  0  0  0  0  0  0  0  0  0  0
   28.3589  -20.3008   -3.7749 C   0  0  0  0  0  0  0  0  0  0  0  0
   29.0862  -21.1019   -4.6276 C   0  0  0  0  0  0  0  0  0  0  0  0
   29.0540  -20.8916   -5.9826 C   0  0  0  0  0  0  0  0  0  0  0  0
   26.0049  -20.5140   -8.2953 C   0  0  0  0  0  0  0  0  0  0  0  0
   25.7614  -20.7411   -7.0820 O   0  0  0  0  0  0  0  0  0  0  0  0
   22.6255  -19.5668   -9.5894 C   0  0  0  0  0  0  0  0  0  0  0  0
   23.5786  -20.1582   -8.5437 C   0  0  2  0  0  0  0  0  0  0  0  0
   24.8894  -20.1702   -9.1147 N   0  0  0  0  0  0  0  0  0  0  0  0
   23.0573  -21.4675   -8.1353 C   0  0  0  0  0  0  0  0  0  0  0  0
   21.8083  -21.5281   -7.5553 O   0  0  0  0  0  0  0  0  0  0  0  0
   23.7008  -22.5166   -8.2941 O   0  0  0  0  0  0  0  0  0  0  0  0
  2  1  1  6
  2  3  1  0
  2 13  1  0
  3  4  1  0
  4  5  2  0
  6  5  1  0
  7  6  1  0
  8  7  2  0
  9  8  1  0
 10 11  1  0
 10  9  2  0
 11 12  2  0
 12  7  1  0
 12  4  1  0
 13 14  2  0
 15 13  1  0
 15 16  1  0
 16 17  1  1
 18 17  1  0
 19 18  2  0
 20 19  1  0
 21 22  1  0
 21 20  2  0
 22 23  2  0
 23 18  1  0
 24 16  1  0
 24 25  2  0
 27 26  1  6
 27 28  1  0
 28 24  1  0
 29 27  1  0
 29 30  1  0
 31 29  2  0
M  END
$$$$
