WFA.pdb
     RDKit          3D

 31 33  0  0  1  0  0  0  0  0999 V2000
   25.0939  -19.3091  -17.0518 N   0  0  0  0  0  0  0  0  0  0  0  0
   24.0856  -19.0230  -16.0570 C   0  0  1  0  0  0  0  0  0  0  0  0
   22.6877  -18.9201  -16.6237 C   0  0  0  0  0  0  0  0  0  0  0  0
   22.3620  -17.5755  -17.1265 C   0  0  0  0  0  0  0  0  0  0  0  0
   22.4895  -17.1708  -18.4398 C   0  0  0  0  0  0  0  0  0  0  0  0
   22.1225  -15.8797  -18.4597 N   0  0  0  0  0  0  0  0  0  0  0  0
   21.7724  -15.4629  -17.2199 C   0  0  0  0  0  0  0  0  0  0  0  0
   21.3299  -14.2447  -16.7505 C   0  0  0  0  0  0  0  0  0  0  0  0
   21.0397  -14.1215  -15.4140 C   0  0  0  0  0  0  0  0  0  0  0  0
   21.1748  -15.1672  -14.5326 C   0  0  0  0  0  0  0  0  0  0  0  0
   21.6149  -16.3785  -14.9982 C   0  0  0  0  0  0  0  0  0  0  0  0
   21.9134  -16.5340  -16.3252 C   0  0  0  0  0  0  0  0  0  0  0  0
   24.1897  -20.0271  -14.9929 C   0  0  0  0  0  0  0  0  0  0  0  0
   24.4219  -21.2430  -15.2526 O   0  0  0  0  0  0  0  0  0  0  0  0
   24.0442  -19.7319  -13.5982 N   0  0  0  0  0  0  0  0  0  0  0  0
   24.0950  -20.7490  -12.5626 C   0  0  1  0  0  0  0  0  0  0  0  0
   25.0020  -20.1351  -11.5061 C   0  0  0  0  0  0  0  0  0  0  0  0
   26.4272  -20.2473  -11.7680 C   0  0  0  0  0  0  0  0  0  0  0  0
   27.0397  -19.3335  -12.5954 C   0  0  0  0  0  0  0  0  0  0  0  0
   28.4093  -19.4032  -12.8721 C   0  0  0  0  0  0  0  0  0  0  0  0
   29.1720  -20.4014  -12.3121 C   0  0  0  0  0  0  0  0  0  0  0  0
   28.5603  -21.3165  -11.4838 C   0  0  0  0  0  0  0  0  0  0  0  0
   27.2163  -21.2345  -11.2224 C   0  0  0  0  0  0  0  0  0  0  0  0
   22.7918  -21.0410  -11.9486 C   0  0  0  0  0  0  0  0  0  0  0  0
   21.9698  -20.1014  -11.7918 O   0  0  0  0  0  0  0  0  0  0  0  0
   21.0925  -21.5564   -9.6457 C   0  0  0  0  0  0  0  0  0  0  0  0
   21.1024  -22.4770  -10.8721 C   0  0  2  0  0  0  0  0  0  0  0  0
   22.3745  -22.3317  -11.5085 N   0  0  0  0  0  0  0  0  0  0  0  0
   19.9402  -22.1460  -11.7043 C   0  0  0  0  0  0  0  0  0  0  0  0
   20.1562  -21.6944  -12.9886 O   0  0  0  0  0  0  0  0  0  0  0  0
   18.7753  -22.2588  -11.2919 O   0  0  0  0  0  0  0  0  0  0  0  0
  2  1  1  6
  2  3  1  0
  2 13  1  0
  3  4  1  0
  4  5  2  0
  6  5  1  0
  7  6  1  0
  8  7  2  0
  9  8  1  0
 10 11  1  0
 10  9  2  0
 11 12  2  0
 12  7  1  0
 12  4  1  0
 13 14  2  0
 15 13  1  0
 15 16  1  0
 16 17  1  1
 18 17  1  0
 19 18  2  0
 20 19  1  0
 21 22  1  0
 21 20  2  0
 22 23  2  0
 23 18  1  0
 24 16  1  0
 24 25  2  0
 27 26  1  1
 27 28  1  0
 28 24  1  0
 29 27  1  0
 29 30  1  0
 31 29  2  0
M  END
$$$$
