WFA.pdb
     RDKit          3D

 31 33  0  0  1  0  0  0  0  0999 V2000
   26.0980  -21.0267  -13.0714 N   0  0  0  0  0  0  0  0  0  0  0  0
   25.2830  -20.8011  -11.8996 C   0  0  1  0  0  0  0  0  0  0  0  0
   23.9766  -21.5620  -11.9148 C   0  0  0  0  0  0  0  0  0  0  0  0
   23.2142  -21.3826  -13.1611 C   0  0  0  0  0  0  0  0  0  0  0  0
   22.9654  -22.3770  -14.0852 C   0  0  0  0  0  0  0  0  0  0  0  0
   22.2745  -21.7893  -15.0747 N   0  0  0  0  0  0  0  0  0  0  0  0
   22.0818  -20.4757  -14.8087 C   0  0  0  0  0  0  0  0  0  0  0  0
   21.4366  -19.4805  -15.5113 C   0  0  0  0  0  0  0  0  0  0  0  0
   21.3972  -18.2171  -14.9749 C   0  0  0  0  0  0  0  0  0  0  0  0
   21.9766  -17.9127  -13.7665 C   0  0  0  0  0  0  0  0  0  0  0  0
   22.6184  -18.9012  -13.0674 C   0  0  0  0  0  0  0  0  0  0  0  0
   22.6761  -20.1713  -13.5751 C   0  0  0  0  0  0  0  0  0  0  0  0
   26.0921  -21.0943  -10.7118 C   0  0  0  0  0  0  0  0  0  0  0  0
   26.5322  -22.2580  -10.4832 O   0  0  0  0  0  0  0  0  0  0  0  0
   26.4513  -20.1165   -9.7279 N   0  0  0  0  0  0  0  0  0  0  0  0
   27.0438  -20.4603   -8.4471 C   0  0  1  0  0  0  0  0  0  0  0  0
   27.7319  -19.1730   -8.0171 C   0  0  0  0  0  0  0  0  0  0  0  0
   28.4181  -19.2316   -6.7373 C   0  0  0  0  0  0  0  0  0  0  0  0
   29.4113  -20.1642   -6.5413 C   0  0  0  0  0  0  0  0  0  0  0  0
   30.0989  -20.2533   -5.3261 C   0  0  0  0  0  0  0  0  0  0  0  0
   29.7855  -19.3967   -4.2966 C   0  0  0  0  0  0  0  0  0  0  0  0
   28.7917  -18.4629   -4.4914 C   0  0  0  0  0  0  0  0  0  0  0  0
   28.1269  -18.3883   -5.6889 C   0  0  0  0  0  0  0  0  0  0  0  0
   26.0638  -20.8339   -7.4174 C   0  0  0  0  0  0  0  0  0  0  0  0
   25.0836  -20.0737   -7.2070 O   0  0  0  0  0  0  0  0  0  0  0  0
   25.3224  -23.6612   -5.0902 C   0  0  0  0  0  0  0  0  0  0  0  0
   25.1808  -22.2134   -5.5756 C   0  0  2  0  0  0  0  0  0  0  0  0
   26.1350  -22.0154   -6.6217 N   0  0  0  0  0  0  0  0  0  0  0  0
   25.3226  -21.3245   -4.4169 C   0  0  0  0  0  0  0  0  0  0  0  0
   24.2031  -21.0363   -3.6661 O   0  0  0  0  0  0  0  0  0  0  0  0
   26.4118  -20.8262   -4.0926 O   0  0  0  0  0  0  0  0  0  0  0  0
  2  1  1  6
  2  3  1  0
  2 13  1  0
  3  4  1  0
  4  5  2  0
  6  5  1  0
  7  6  1  0
  8  7  2  0
  9  8  1  0
 10 11  1  0
 10  9  2  0
 11 12  2  0
 12  7  1  0
 12  4  1  0
 13 14  2  0
 15 13  1  0
 15 16  1  0
 16 17  1  1
 18 17  1  0
 19 18  2  0
 20 19  1  0
 21 22  1  0
 21 20  2  0
 22 23  2  0
 23 18  1  0
 24 16  1  0
 24 25  2  0
 27 26  1  1
 27 28  1  0
 28 24  1  0
 29 27  1  0
 29 30  1  0
 31 29  2  0
M  END
$$$$
