WFA.pdb
     RDKit          3D

 31 33  0  0  1  0  0  0  0  0999 V2000
   25.9509  -18.8729  -12.4193 N   0  0  0  0  0  0  0  0  0  0  0  0
   25.7372  -20.2805  -12.1719 C   0  0  1  0  0  0  0  0  0  0  0  0
   25.9541  -21.1492  -13.3902 C   0  0  0  0  0  0  0  0  0  0  0  0
   25.3244  -20.6113  -14.6070 C   0  0  0  0  0  0  0  0  0  0  0  0
   25.9995  -20.2703  -15.7614 C   0  0  0  0  0  0  0  0  0  0  0  0
   25.0663  -19.7966  -16.6021 N   0  0  0  0  0  0  0  0  0  0  0  0
   23.8421  -19.8275  -16.0241 C   0  0  0  0  0  0  0  0  0  0  0  0
   22.5976  -19.4569  -16.4868 C   0  0  0  0  0  0  0  0  0  0  0  0
   21.5146  -19.6142  -15.6574 C   0  0  0  0  0  0  0  0  0  0  0  0
   21.6290  -20.1267  -14.3874 C   0  0  0  0  0  0  0  0  0  0  0  0
   22.8658  -20.4951  -13.9265 C   0  0  0  0  0  0  0  0  0  0  0  0
   23.9660  -20.3502  -14.7284 C   0  0  0  0  0  0  0  0  0  0  0  0
   26.5756  -20.6818  -11.0372 C   0  0  0  0  0  0  0  0  0  0  0  0
   27.0367  -21.8555  -10.9392 O   0  0  0  0  0  0  0  0  0  0  0  0
   26.9420  -19.8051   -9.9646 N   0  0  0  0  0  0  0  0  0  0  0  0
   27.1048  -20.2545   -8.5931 C   0  0  1  0  0  0  0  0  0  0  0  0
   27.9613  -19.1664   -7.9621 C   0  0  0  0  0  0  0  0  0  0  0  0
   28.3282  -19.3900   -6.5737 C   0  0  0  0  0  0  0  0  0  0  0  0
   29.2861  -20.3298   -6.2672 C   0  0  0  0  0  0  0  0  0  0  0  0
   29.6708  -20.5748   -4.9446 C   0  0  0  0  0  0  0  0  0  0  0  0
   29.0873  -19.8686   -3.9188 C   0  0  0  0  0  0  0  0  0  0  0  0
   28.1285  -18.9277   -4.2240 C   0  0  0  0  0  0  0  0  0  0  0  0
   27.7623  -18.6992   -5.5260 C   0  0  0  0  0  0  0  0  0  0  0  0
   25.8442  -20.3518   -7.8434 C   0  0  0  0  0  0  0  0  0  0  0  0
   25.0161  -19.4079   -7.9219 O   0  0  0  0  0  0  0  0  0  0  0  0
   23.1204  -21.4368   -7.4276 C   0  0  0  0  0  0  0  0  0  0  0  0
   24.2114  -21.4377   -6.3500 C   0  0  2  0  0  0  0  0  0  0  0  0
   25.4755  -21.4549   -7.0180 N   0  0  0  0  0  0  0  0  0  0  0  0
   23.9620  -22.5650   -5.4446 C   0  0  0  0  0  0  0  0  0  0  0  0
   22.7881  -22.5833   -4.7223 O   0  0  0  0  0  0  0  0  0  0  0  0
   24.7691  -23.4976   -5.3085 O   0  0  0  0  0  0  0  0  0  0  0  0
  2  1  1  6
  2  3  1  0
  2 13  1  0
  3  4  1  0
  4  5  2  0
  6  5  1  0
  7  6  1  0
  8  7  2  0
  9  8  1  0
 10 11  1  0
 10  9  2  0
 11 12  2  0
 12  7  1  0
 12  4  1  0
 13 14  2  0
 15 13  1  0
 15 16  1  0
 16 17  1  1
 18 17  1  0
 19 18  2  0
 20 19  1  0
 21 22  1  0
 21 20  2  0
 22 23  2  0
 23 18  1  0
 24 16  1  0
 24 25  2  0
 27 26  1  6
 27 28  1  0
 28 24  1  0
 29 27  1  0
 29 30  1  0
 31 29  2  0
M  END
$$$$
