WFA.pdb
     RDKit          3D

 31 33  0  0  1  0  0  0  0  0999 V2000
   25.1703  -19.2499  -11.8150 N   0  0  0  0  0  0  0  0  0  0  0  0
   26.1819  -20.2572  -12.0394 C   0  0  1  0  0  0  0  0  0  0  0  0
   26.1432  -21.3882  -11.0368 C   0  0  0  0  0  0  0  0  0  0  0  0
   26.3124  -20.9375   -9.6457 C   0  0  0  0  0  0  0  0  0  0  0  0
   25.2816  -20.5832   -8.7991 C   0  0  0  0  0  0  0  0  0  0  0  0
   25.8669  -20.2075   -7.6509 N   0  0  0  0  0  0  0  0  0  0  0  0
   27.2137  -20.3120   -7.7441 C   0  0  0  0  0  0  0  0  0  0  0  0
   28.2207  -20.0506   -6.8398 C   0  0  0  0  0  0  0  0  0  0  0  0
   29.5214  -20.2627   -7.2254 C   0  0  0  0  0  0  0  0  0  0  0  0
   29.8517  -20.7249   -8.4767 C   0  0  0  0  0  0  0  0  0  0  0  0
   28.8513  -20.9848   -9.3765 C   0  0  0  0  0  0  0  0  0  0  0  0
   27.5440  -20.7831   -9.0234 C   0  0  0  0  0  0  0  0  0  0  0  0
   26.0652  -20.7274  -13.4239 C   0  0  0  0  0  0  0  0  0  0  0  0
   24.9397  -20.8443  -13.9891 O   0  0  0  0  0  0  0  0  0  0  0  0
   27.1847  -21.0861  -14.2433 N   0  0  0  0  0  0  0  0  0  0  0  0
   27.0734  -21.3497  -15.6672 C   0  0  1  0  0  0  0  0  0  0  0  0
   28.2175  -20.5458  -16.2677 C   0  0  0  0  0  0  0  0  0  0  0  0
   27.9650  -19.1227  -16.4207 C   0  0  0  0  0  0  0  0  0  0  0  0
   29.0222  -18.2412  -16.4182 C   0  0  0  0  0  0  0  0  0  0  0  0
   28.8242  -16.8641  -16.5652 C   0  0  0  0  0  0  0  0  0  0  0  0
   27.5508  -16.3668  -16.7162 C   0  0  0  0  0  0  0  0  0  0  0  0
   26.4918  -17.2478  -16.7189 C   0  0  0  0  0  0  0  0  0  0  0  0
   26.7027  -18.5954  -16.5738 C   0  0  0  0  0  0  0  0  0  0  0  0
   27.2542  -22.7630  -16.0284 C   0  0  0  0  0  0  0  0  0  0  0  0
   28.2763  -23.0974  -16.6814 O   0  0  0  0  0  0  0  0  0  0  0  0
   25.7699  -26.0988  -15.3173 C   0  0  0  0  0  0  0  0  0  0  0  0
   26.5806  -25.1287  -16.1853 C   0  0  2  0  0  0  0  0  0  0  0  0
   26.3456  -23.8086  -15.6890 N   0  0  0  0  0  0  0  0  0  0  0  0
   26.2115  -25.3493  -17.5881 C   0  0  0  0  0  0  0  0  0  0  0  0
   26.5598  -26.5438  -18.1815 O   0  0  0  0  0  0  0  0  0  0  0  0
   25.5992  -24.5002  -18.2544 O   0  0  0  0  0  0  0  0  0  0  0  0
  2  1  1  1
  2  3  1  0
  2 13  1  0
  3  4  1  0
  4  5  2  0
  6  5  1  0
  7  6  1  0
  8  7  2  0
  9  8  1  0
 10 11  1  0
 10  9  2  0
 11 12  2  0
 12  7  1  0
 12  4  1  0
 13 14  2  0
 15 13  1  0
 15 16  1  0
 16 17  1  6
 18 17  1  0
 19 18  2  0
 20 19  1  0
 21 22  1  0
 21 20  2  0
 22 23  2  0
 23 18  1  0
 24 16  1  0
 24 25  2  0
 27 26  1  1
 27 28  1  0
 28 24  1  0
 29 27  1  0
 29 30  1  0
 31 29  2  0
M  END
$$$$
