WFA.pdb
     RDKit          3D

 31 33  0  0  1  0  0  0  0  0999 V2000
   22.4154  -36.4652  -10.3941 N   0  0  0  0  0  0  0  0  0  0  0  0
   21.8769  -36.5117   -9.0539 C   0  0  1  0  0  0  0  0  0  0  0  0
   21.0522  -37.7479   -8.7751 C   0  0  0  0  0  0  0  0  0  0  0  0
   19.8008  -37.7982   -9.5486 C   0  0  0  0  0  0  0  0  0  0  0  0
   19.6406  -38.4584  -10.7499 C   0  0  0  0  0  0  0  0  0  0  0  0
   18.3728  -38.2271  -11.1257 N   0  0  0  0  0  0  0  0  0  0  0  0
   17.7372  -37.4540  -10.2137 C   0  0  0  0  0  0  0  0  0  0  0  0
   16.4492  -36.9657  -10.1606 C   0  0  0  0  0  0  0  0  0  0  0  0
   16.0816  -36.1976   -9.0833 C   0  0  0  0  0  0  0  0  0  0  0  0
   16.9504  -35.9009   -8.0608 C   0  0  0  0  0  0  0  0  0  0  0  0
   18.2311  -36.3856   -8.1128 C   0  0  0  0  0  0  0  0  0  0  0  0
   18.6293  -37.1539   -9.1737 C   0  0  0  0  0  0  0  0  0  0  0  0
   22.9843  -36.3476   -8.1061 C   0  0  0  0  0  0  0  0  0  0  0  0
   24.1203  -36.8600   -8.3224 O   0  0  0  0  0  0  0  0  0  0  0  0
   22.8857  -35.6100   -6.8815 N   0  0  0  0  0  0  0  0  0  0  0  0
   23.9841  -35.4864   -5.9393 C   0  0  1  0  0  0  0  0  0  0  0  0
   24.1884  -33.9826   -5.8273 C   0  0  0  0  0  0  0  0  0  0  0  0
   24.8236  -33.3538   -6.9734 C   0  0  0  0  0  0  0  0  0  0  0  0
   26.1143  -33.6963   -7.3072 C   0  0  0  0  0  0  0  0  0  0  0  0
   26.7623  -33.1174   -8.4037 C   0  0  0  0  0  0  0  0  0  0  0  0
   26.1071  -32.1844   -9.1731 C   0  0  0  0  0  0  0  0  0  0  0  0
   24.8153  -31.8407   -8.8402 C   0  0  0  0  0  0  0  0  0  0  0  0
   24.1939  -32.4175   -7.7619 C   0  0  0  0  0  0  0  0  0  0  0  0
   23.6861  -36.0193   -4.6022 C   0  0  0  0  0  0  0  0  0  0  0  0
   22.6149  -35.6785   -4.0371 O   0  0  0  0  0  0  0  0  0  0  0  0
   25.3272  -38.1030   -1.9653 C   0  0  0  0  0  0  0  0  0  0  0  0
   24.1463  -37.3320   -2.5675 C   0  0  2  0  0  0  0  0  0  0  0  0
   24.5308  -36.9123   -3.8792 N   0  0  0  0  0  0  0  0  0  0  0  0
   23.7824  -36.2530   -1.6423 C   0  0  0  0  0  0  0  0  0  0  0  0
   23.1573  -36.5823   -0.4586 O   0  0  0  0  0  0  0  0  0  0  0  0
   24.0176  -35.0599   -1.8892 O   0  0  0  0  0  0  0  0  0  0  0  0
  2  1  1  6
  2  3  1  0
  2 13  1  0
  3  4  1  0
  4  5  2  0
  6  5  1  0
  7  6  1  0
  8  7  2  0
  9  8  1  0
 10 11  1  0
 10  9  2  0
 11 12  2  0
 12  7  1  0
 12  4  1  0
 13 14  2  0
 15 13  1  0
 15 16  1  0
 16 17  1  1
 18 17  1  0
 19 18  2  0
 20 19  1  0
 21 22  1  0
 21 20  2  0
 22 23  2  0
 23 18  1  0
 24 16  1  0
 24 25  2  0
 27 26  1  1
 27 28  1  0
 28 24  1  0
 29 27  1  0
 29 30  1  0
 31 29  2  0
M  END
$$$$
