PDR.pdb
     RDKit          3D

 27 27  0  0  1  0  0  0  0  0999 V2000
   26.3490  -21.9583  -16.4675 N   0  0  0  0  0  0  0  0  0  0  0  0
   26.5620  -20.6599  -17.0891 C   0  0  0  0  0  0  0  0  0  0  0  0
   27.6394  -20.0474  -16.2539 C   0  0  0  0  0  0  0  0  0  0  0  0
   27.4972  -20.6924  -14.9126 C   0  0  0  0  0  0  0  0  0  0  0  0
   26.4099  -21.7491  -15.0564 C   0  0  1  0  0  0  0  0  0  0  0  0
   25.1557  -21.1113  -14.5280 C   0  0  0  0  0  0  0  0  0  0  0  0
   25.1190  -20.8185  -13.3230 O   0  0  0  0  0  0  0  0  0  0  0  0
   24.0438  -20.8406  -15.3388 N   0  0  0  0  0  0  0  0  0  0  0  0
   22.8454  -20.2042  -14.8410 C   0  0  1  0  0  0  0  0  0  0  0  0
   22.4965  -18.9490  -15.5808 C   0  0  0  0  0  0  0  0  0  0  0  0
   21.3950  -18.1907  -14.9507 C   0  0  0  0  0  0  0  0  0  0  0  0
   20.9490  -17.1993  -15.5988 O   0  0  0  0  0  0  0  0  0  0  0  0
   21.6833  -21.1153  -14.9138 C   0  0  0  0  0  0  0  0  0  0  0  0
   21.4753  -21.6963  -16.0220 O   0  0  0  0  0  0  0  0  0  0  0  0
   20.8253  -18.4672  -13.7424 O   0  0  0  0  0  0  0  0  0  0  0  0
   17.7944  -26.6053   -9.2948 N   0  0  0  0  0  0  0  0  0  0  0  0
   18.8458  -26.7893  -10.2477 C   0  0  0  0  0  0  0  0  0  0  0  0
   19.5470  -27.8611  -10.1238 N   0  0  0  0  0  0  0  0  0  0  0  0
   19.0682  -25.8132  -11.2613 N   0  0  0  0  0  0  0  0  0  0  0  0
   18.1412  -24.7012  -11.3139 C   0  0  0  0  0  0  0  0  0  0  0  0
   18.2623  -23.8084  -12.4661 C   0  0  0  0  0  0  0  0  0  0  0  0
   19.3616  -22.8965  -12.6949 C   0  0  0  0  0  0  0  0  0  0  0  0
   19.6257  -22.3120  -14.0092 C   0  0  2  0  0  0  0  0  0  0  0  0
   20.8071  -21.3792  -13.8597 N   0  0  0  0  0  0  0  0  0  0  0  0
   18.5449  -21.5054  -14.5665 C   0  0  0  0  0  0  0  0  0  0  0  0
   17.5753  -22.0151  -15.3786 O   0  0  0  0  0  0  0  0  0  0  0  0
   18.4590  -20.2367  -14.3156 O   0  0  0  0  0  0  0  0  0  0  0  0
  1  2  1  0
  2  3  1  0
  4  3  1  0
  5  1  1  0
  5  4  1  0
  5  6  1  6
  7  6  2  0
  8  6  1  0
  9  8  1  0
  9 10  1  6
 11 10  1  0
 11 12  2  0
 13  9  1  0
 13 14  2  0
 15 11  1  0
 17 18  2  0
 17 16  1  0
 19 17  1  0
 20 19  1  0
 21 20  1  0
 22 21  1  0
 23 22  1  1
 23 24  1  0
 24 13  1  0
 25 23  1  0
 26 25  1  0
 27 25  2  0
M  END
$$$$
