PDR.pdb
     RDKit          3D

 27 27  0  0  1  0  0  0  0  0999 V2000
   16.3773  -13.4846  -16.6700 N   0  0  0  0  0  0  0  0  0  0  0  0
   17.6152  -14.2441  -16.7614 C   0  0  0  0  0  0  0  0  0  0  0  0
   17.5451  -15.1653  -15.5867 C   0  0  0  0  0  0  0  0  0  0  0  0
   16.6786  -14.4565  -14.5956 C   0  0  0  0  0  0  0  0  0  0  0  0
   16.1788  -13.1944  -15.2861 C   0  0  1  0  0  0  0  0  0  0  0  0
   17.0795  -12.0900  -14.8085 C   0  0  0  0  0  0  0  0  0  0  0  0
   17.2684  -11.9851  -13.5869 O   0  0  0  0  0  0  0  0  0  0  0  0
   17.7033  -11.1890  -15.6838 N   0  0  0  0  0  0  0  0  0  0  0  0
   18.5327  -10.0972  -15.2269 C   0  0  1  0  0  0  0  0  0  0  0  0
   19.5552   -9.6740  -16.2368 C   0  0  0  0  0  0  0  0  0  0  0  0
   20.5309   -8.7004  -15.7025 C   0  0  0  0  0  0  0  0  0  0  0  0
   20.4061   -8.3877  -14.4824 O   0  0  0  0  0  0  0  0  0  0  0  0
   17.7185   -8.9135  -14.8776 C   0  0  0  0  0  0  0  0  0  0  0  0
   17.0193   -8.4016  -15.8040 O   0  0  0  0  0  0  0  0  0  0  0  0
   21.5432   -8.1172  -16.4068 O   0  0  0  0  0  0  0  0  0  0  0  0
   13.2160   -8.6943   -8.0904 N   0  0  0  0  0  0  0  0  0  0  0  0
   14.1456   -7.6072   -8.1277 C   0  0  0  0  0  0  0  0  0  0  0  0
   14.2708   -6.9261   -7.0432 N   0  0  0  0  0  0  0  0  0  0  0  0
   14.8713   -7.3305   -9.3221 N   0  0  0  0  0  0  0  0  0  0  0  0
   14.0971   -6.9417  -10.4831 C   0  0  0  0  0  0  0  0  0  0  0  0
   14.8455   -6.7302  -11.7219 C   0  0  0  0  0  0  0  0  0  0  0  0
   16.0767   -7.4047  -12.0707 C   0  0  0  0  0  0  0  0  0  0  0  0
   16.7875   -7.1285  -13.3186 C   0  0  2  0  0  0  0  0  0  0  0  0
   17.6649   -8.3249  -13.6131 N   0  0  0  0  0  0  0  0  0  0  0  0
   17.6787   -5.9734  -13.2912 C   0  0  0  0  0  0  0  0  0  0  0  0
   19.0093   -6.0637  -13.0070 O   0  0  0  0  0  0  0  0  0  0  0  0
   17.2350   -4.7800  -13.5339 O   0  0  0  0  0  0  0  0  0  0  0  0
  1  2  1  0
  2  3  1  0
  4  3  1  0
  5  1  1  0
  5  4  1  0
  5  6  1  1
  7  6  2  0
  8  6  1  0
  9  8  1  0
  9 10  1  6
 11 10  1  0
 11 12  2  0
 13  9  1  0
 13 14  2  0
 15 11  1  0
 17 18  2  0
 17 16  1  0
 19 17  1  0
 20 19  1  0
 21 20  1  0
 22 21  1  0
 23 22  1  1
 23 24  1  0
 24 13  1  0
 25 23  1  0
 26 25  1  0
 27 25  2  0
M  END
$$$$
