PDR.pdb
     RDKit          3D

 27 27  0  0  1  0  0  0  0  0999 V2000
   28.8988  -22.0758  -12.4631 N   0  0  0  0  0  0  0  0  0  0  0  0
   29.8780  -21.1134  -12.9453 C   0  0  0  0  0  0  0  0  0  0  0  0
   30.2616  -20.3607  -11.7125 C   0  0  0  0  0  0  0  0  0  0  0  0
   29.0721  -20.4677  -10.8131 C   0  0  0  0  0  0  0  0  0  0  0  0
   28.0817  -21.3860  -11.5169 C   0  0  1  0  0  0  0  0  0  0  0  0
   27.0928  -20.4741  -12.1874 C   0  0  0  0  0  0  0  0  0  0  0  0
   26.5085  -19.6366  -11.4830 O   0  0  0  0  0  0  0  0  0  0  0  0
   26.8134  -20.5376  -13.5603 N   0  0  0  0  0  0  0  0  0  0  0  0
   25.8317  -19.6929  -14.2017 C   0  0  1  0  0  0  0  0  0  0  0  0
   26.1976  -19.3314  -15.6088 C   0  0  0  0  0  0  0  0  0  0  0  0
   27.3839  -18.4534  -15.6931 C   0  0  0  0  0  0  0  0  0  0  0  0
   27.4898  -17.5603  -14.8025 O   0  0  0  0  0  0  0  0  0  0  0  0
   24.5017  -20.3382  -14.2269 C   0  0  0  0  0  0  0  0  0  0  0  0
   24.4663  -21.5922  -14.0391 O   0  0  0  0  0  0  0  0  0  0  0  0
   28.3632  -18.5245  -16.6401 O   0  0  0  0  0  0  0  0  0  0  0  0
   20.3448  -23.0254   -8.3400 N   0  0  0  0  0  0  0  0  0  0  0  0
   19.3620  -23.3352   -9.3327 C   0  0  0  0  0  0  0  0  0  0  0  0
   18.4472  -24.1720   -8.9882 N   0  0  0  0  0  0  0  0  0  0  0  0
   19.4315  -22.7269  -10.6190 N   0  0  0  0  0  0  0  0  0  0  0  0
   20.6726  -22.0636  -10.9632 C   0  0  0  0  0  0  0  0  0  0  0  0
   20.7607  -21.5110  -12.3146 C   0  0  0  0  0  0  0  0  0  0  0  0
   21.9248  -20.8521  -12.8652 C   0  0  0  0  0  0  0  0  0  0  0  0
   21.9555  -20.3471  -14.2375 C   0  0  2  0  0  0  0  0  0  0  0  0
   23.2938  -19.6721  -14.4406 N   0  0  0  0  0  0  0  0  0  0  0  0
   20.9463  -19.3438  -14.5600 C   0  0  0  0  0  0  0  0  0  0  0  0
   21.2004  -18.0041  -14.5652 O   0  0  0  0  0  0  0  0  0  0  0  0
   19.7319  -19.6872  -14.8558 O   0  0  0  0  0  0  0  0  0  0  0  0
  1  2  1  0
  2  3  1  0
  4  3  1  0
  5  1  1  0
  5  4  1  0
  5  6  1  6
  7  6  2  0
  8  6  1  0
  9  8  1  0
  9 10  1  6
 11 10  1  0
 11 12  2  0
 13  9  1  0
 13 14  2  0
 15 11  1  0
 17 18  2  0
 17 16  1  0
 19 17  1  0
 20 19  1  0
 21 20  1  0
 22 21  1  0
 23 22  1  1
 23 24  1  0
 24 13  1  0
 25 23  1  0
 26 25  1  0
 27 25  2  0
M  END
$$$$
