PDR.pdb
     RDKit          3D

 27 27  0  0  1  0  0  0  0  0999 V2000
   29.1435  -22.2058  -11.9351 N   0  0  0  0  0  0  0  0  0  0  0  0
   30.0394  -21.0913  -12.2049 C   0  0  0  0  0  0  0  0  0  0  0  0
   30.2790  -20.5027  -10.8523 C   0  0  0  0  0  0  0  0  0  0  0  0
   29.0634  -20.8600  -10.0586 C   0  0  0  0  0  0  0  0  0  0  0  0
   28.2117  -21.7508  -10.9535 C   0  0  1  0  0  0  0  0  0  0  0  0
   27.1677  -20.8464  -11.5461 C   0  0  0  0  0  0  0  0  0  0  0  0
   26.4898  -20.1577  -10.7680 O   0  0  0  0  0  0  0  0  0  0  0  0
   26.9383  -20.7566  -12.9268 N   0  0  0  0  0  0  0  0  0  0  0  0
   25.9043  -19.9243  -13.4985 C   0  0  1  0  0  0  0  0  0  0  0  0
   26.1823  -19.5344  -14.9181 C   0  0  0  0  0  0  0  0  0  0  0  0
   25.2443  -18.5153  -15.4347 C   0  0  0  0  0  0  0  0  0  0  0  0
   25.5092  -18.0294  -16.5730 O   0  0  0  0  0  0  0  0  0  0  0  0
   24.5889  -20.5982  -13.4590 C   0  0  0  0  0  0  0  0  0  0  0  0
   24.4969  -21.7171  -14.0494 O   0  0  0  0  0  0  0  0  0  0  0  0
   24.1292  -18.0598  -14.7941 O   0  0  0  0  0  0  0  0  0  0  0  0
   19.6673  -23.2943   -7.7360 N   0  0  0  0  0  0  0  0  0  0  0  0
   18.7502  -23.5674   -8.7997 C   0  0  0  0  0  0  0  0  0  0  0  0
   17.7494  -24.3227   -8.5104 N   0  0  0  0  0  0  0  0  0  0  0  0
   18.9724  -23.0122  -10.0928 N   0  0  0  0  0  0  0  0  0  0  0  0
   20.2876  -22.4631  -10.3522 C   0  0  0  0  0  0  0  0  0  0  0  0
   20.3280  -21.1338  -10.9610 C   0  0  0  0  0  0  0  0  0  0  0  0
   21.5233  -20.4852  -11.4542 C   0  0  0  0  0  0  0  0  0  0  0  0
   22.1802  -20.9039  -12.6920 C   0  0  2  0  0  0  0  0  0  0  0  0
   23.4518  -20.0955  -12.8243 N   0  0  0  0  0  0  0  0  0  0  0  0
   21.4232  -20.6654  -13.9164 C   0  0  0  0  0  0  0  0  0  0  0  0
   20.6832  -21.6285  -14.5362 O   0  0  0  0  0  0  0  0  0  0  0  0
   21.4254  -19.5024  -14.4886 O   0  0  0  0  0  0  0  0  0  0  0  0
  1  2  1  0
  2  3  1  0
  4  3  1  0
  5  1  1  0
  5  4  1  0
  5  6  1  6
  7  6  2  0
  8  6  1  0
  9  8  1  0
  9 10  1  6
 11 10  1  0
 11 12  2  0
 13  9  1  0
 13 14  2  0
 15 11  1  0
 17 18  2  0
 17 16  1  0
 19 17  1  0
 20 19  1  0
 21 20  1  0
 22 21  1  0
 23 22  1  1
 23 24  1  0
 24 13  1  0
 25 23  1  0
 26 25  1  0
 27 25  2  0
M  END
$$$$
