PDR.pdb
     RDKit          3D

 27 27  0  0  1  0  0  0  0  0999 V2000
   26.8349  -20.8207  -14.8564 N   0  0  0  0  0  0  0  0  0  0  0  0
   27.0230  -20.0192  -16.0563 C   0  0  0  0  0  0  0  0  0  0  0  0
   27.7158  -18.7950  -15.5515 C   0  0  0  0  0  0  0  0  0  0  0  0
   27.2939  -18.6786  -14.1219 C   0  0  0  0  0  0  0  0  0  0  0  0
   26.4600  -19.9160  -13.8172 C   0  0  1  0  0  0  0  0  0  0  0  0
   25.0278  -19.4779  -13.9429 C   0  0  0  0  0  0  0  0  0  0  0  0
   24.6158  -18.6137  -13.1539 O   0  0  0  0  0  0  0  0  0  0  0  0
   24.1560  -20.0051  -14.9068 N   0  0  0  0  0  0  0  0  0  0  0  0
   22.7508  -19.6713  -14.9609 C   0  0  1  0  0  0  0  0  0  0  0  0
   22.3499  -19.0255  -16.2519 C   0  0  0  0  0  0  0  0  0  0  0  0
   20.9916  -18.4436  -16.2129 C   0  0  0  0  0  0  0  0  0  0  0  0
   20.4641  -18.3172  -15.0694 O   0  0  0  0  0  0  0  0  0  0  0  0
   21.9061  -20.8693  -14.7677 C   0  0  0  0  0  0  0  0  0  0  0  0
   22.2168  -21.9060  -15.4293 O   0  0  0  0  0  0  0  0  0  0  0  0
   20.2671  -18.0358  -17.2946 O   0  0  0  0  0  0  0  0  0  0  0  0
   19.7069  -23.4799   -8.5615 N   0  0  0  0  0  0  0  0  0  0  0  0
   18.9599  -24.5235   -9.1941 C   0  0  0  0  0  0  0  0  0  0  0  0
   19.2423  -25.7262   -8.8342 N   0  0  0  0  0  0  0  0  0  0  0  0
   17.9670  -24.2023  -10.1640 N   0  0  0  0  0  0  0  0  0  0  0  0
   18.3852  -24.1944  -11.5509 C   0  0  0  0  0  0  0  0  0  0  0  0
   18.0548  -22.9964  -12.3223 C   0  0  0  0  0  0  0  0  0  0  0  0
   19.0038  -21.9791  -12.7185 C   0  0  0  0  0  0  0  0  0  0  0  0
   19.9199  -22.1669  -13.8430 C   0  0  2  0  0  0  0  0  0  0  0  0
   20.8016  -20.9400  -13.9171 N   0  0  0  0  0  0  0  0  0  0  0  0
   19.2893  -22.2882  -15.1533 C   0  0  0  0  0  0  0  0  0  0  0  0
   19.1915  -23.4690  -15.8282 O   0  0  0  0  0  0  0  0  0  0  0  0
   18.7884  -21.2542  -15.7531 O   0  0  0  0  0  0  0  0  0  0  0  0
  1  2  1  0
  2  3  1  0
  4  3  1  0
  5  1  1  0
  5  4  1  0
  5  6  1  6
  7  6  2  0
  8  6  1  0
  9  8  1  0
  9 10  1  6
 11 10  1  0
 11 12  2  0
 13  9  1  0
 13 14  2  0
 15 11  1  0
 17 18  2  0
 17 16  1  0
 19 17  1  0
 20 19  1  0
 21 20  1  0
 22 21  1  0
 23 22  1  1
 23 24  1  0
 24 13  1  0
 25 23  1  0
 26 25  1  0
 27 25  2  0
M  END
$$$$
