PDR.pdb
     RDKit          3D

 27 27  0  0  1  0  0  0  0  0999 V2000
   35.1381  -34.5285   -1.3987 N   0  0  0  0  0  0  0  0  0  0  0  0
   36.1852  -34.5364   -0.3882 C   0  0  0  0  0  0  0  0  0  0  0  0
   37.2051  -35.4720   -0.9520 C   0  0  0  0  0  0  0  0  0  0  0  0
   36.4308  -36.3918   -1.8407 C   0  0  0  0  0  0  0  0  0  0  0  0
   34.9979  -35.8758   -1.8503 C   0  0  1  0  0  0  0  0  0  0  0  0
   34.2563  -36.7270   -0.8582 C   0  0  0  0  0  0  0  0  0  0  0  0
   34.0877  -37.9244   -1.1353 O   0  0  0  0  0  0  0  0  0  0  0  0
   33.7567  -36.2207    0.3506 N   0  0  0  0  0  0  0  0  0  0  0  0
   33.0261  -37.0305    1.2988 C   0  0  1  0  0  0  0  0  0  0  0  0
   33.3312  -36.6847    2.7243 C   0  0  0  0  0  0  0  0  0  0  0  0
   32.6955  -37.6023    3.6933 C   0  0  0  0  0  0  0  0  0  0  0  0
   32.4594  -38.7775    3.2870 O   0  0  0  0  0  0  0  0  0  0  0  0
   31.5664  -36.9047    1.1006 C   0  0  0  0  0  0  0  0  0  0  0  0
   30.8208  -37.6054    1.8504 O   0  0  0  0  0  0  0  0  0  0  0  0
   32.3457  -37.2916    4.9749 O   0  0  0  0  0  0  0  0  0  0  0  0
   29.4111  -33.8302   -6.2599 N   0  0  0  0  0  0  0  0  0  0  0  0
   30.1094  -35.0752   -6.1617 C   0  0  0  0  0  0  0  0  0  0  0  0
   30.6849  -35.4927   -7.2342 N   0  0  0  0  0  0  0  0  0  0  0  0
   30.1397  -35.7799   -4.9239 N   0  0  0  0  0  0  0  0  0  0  0  0
   29.5001  -35.1417   -3.7916 C   0  0  0  0  0  0  0  0  0  0  0  0
   29.6052  -35.8373   -2.5092 C   0  0  0  0  0  0  0  0  0  0  0  0
   29.1670  -35.3021   -1.2388 C   0  0  0  0  0  0  0  0  0  0  0  0
   29.4524  -35.9750    0.0280 C   0  0  2  0  0  0  0  0  0  0  0  0
   30.9561  -36.0777    0.1562 N   0  0  0  0  0  0  0  0  0  0  0  0
   28.9453  -37.3383    0.1431 C   0  0  0  0  0  0  0  0  0  0  0  0
   29.5217  -38.4045   -0.4816 O   0  0  0  0  0  0  0  0  0  0  0  0
   27.8948  -37.6037    0.8545 O   0  0  0  0  0  0  0  0  0  0  0  0
  1  2  1  0
  2  3  1  0
  4  3  1  0
  5  1  1  0
  5  4  1  0
  5  6  1  1
  7  6  2  0
  8  6  1  0
  9  8  1  0
  9 10  1  1
 11 10  1  0
 11 12  2  0
 13  9  1  0
 13 14  2  0
 15 11  1  0
 17 18  2  0
 17 16  1  0
 19 17  1  0
 20 19  1  0
 21 20  1  0
 22 21  1  0
 23 22  1  6
 23 24  1  0
 24 13  1  0
 25 23  1  0
 26 25  1  0
 27 25  2  0
M  END
$$$$
