PER.pdb
     RDKit          3D

 28 28  0  0  1  0  0  0  0  0999 V2000
   27.0192  -19.1140  -16.1328 N   0  0  0  0  0  0  0  0  0  0  0  0
   28.3662  -18.5903  -16.2594 C   0  0  0  0  0  0  0  0  0  0  0  0
   28.1922  -17.1287  -16.6100 C   0  0  0  0  0  0  0  0  0  0  0  0
   26.7320  -16.8182  -16.3335 C   0  0  0  0  0  0  0  0  0  0  0  0
   26.2830  -18.0510  -15.5707 C   0  0  1  0  0  0  0  0  0  0  0  0
   24.7988  -18.1894  -15.6004 C   0  0  0  0  0  0  0  0  0  0  0  0
   24.1017  -17.2941  -15.0900 O   0  0  0  0  0  0  0  0  0  0  0  0
   24.1322  -19.3061  -16.1877 N   0  0  0  0  0  0  0  0  0  0  0  0
   22.7285  -19.5345  -16.2479 C   0  0  1  0  0  0  0  0  0  0  0  0
   22.2836  -20.0919  -17.6212 C   0  0  0  0  0  0  0  0  0  0  0  0
   22.7757  -19.2273  -18.7616 C   0  0  0  0  0  0  0  0  0  0  0  0
   22.3523  -19.8489  -20.0414 C   0  0  0  0  0  0  0  0  0  0  0  0
   21.1578  -19.7450  -20.4168 O   0  0  0  0  0  0  0  0  0  0  0  0
   22.2405  -20.4802  -15.1590 C   0  0  0  0  0  0  0  0  0  0  0  0
   23.1402  -21.0622  -14.5535 O   0  0  0  0  0  0  0  0  0  0  0  0
   23.2277  -20.5498  -20.8475 O   0  0  0  0  0  0  0  0  0  0  0  0
   18.1928  -22.2684   -9.2889 N   0  0  0  0  0  0  0  0  0  0  0  0
   19.3910  -22.5849   -8.5658 C   0  0  0  0  0  0  0  0  0  0  0  0
   19.2926  -23.4073   -7.5797 N   0  0  0  0  0  0  0  0  0  0  0  0
   20.5981  -22.0052   -8.9439 N   0  0  0  0  0  0  0  0  0  0  0  0
   20.6615  -20.9786   -9.9763 C   0  0  0  0  0  0  0  0  0  0  0  0
   20.1427  -21.5687  -11.2698 C   0  0  0  0  0  0  0  0  0  0  0  0
   20.7322  -20.9198  -12.4576 C   0  0  0  0  0  0  0  0  0  0  0  0
   20.2209  -21.3382  -13.7970 C   0  0  2  0  0  0  0  0  0  0  0  0
   20.8887  -20.6639  -14.8717 N   0  0  0  0  0  0  0  0  0  0  0  0
   18.7571  -21.4790  -13.8866 C   0  0  0  0  0  0  0  0  0  0  0  0
   17.9206  -22.5366  -13.5853 O   0  0  0  0  0  0  0  0  0  0  0  0
   18.0651  -20.4621  -14.3149 O   0  0  0  0  0  0  0  0  0  0  0  0
  1  2  1  0
  3  2  1  0
  4  3  1  0
  4  5  1  0
  5  6  1  6
  5  1  1  0
  6  7  2  0
  8  9  1  0
  8  6  1  0
  9 10  1  6
 11 10  1  0
 12 11  1  0
 13 12  2  0
 14 15  2  0
 14  9  1  0
 16 12  1  0
 18 17  1  0
 19 18  2  0
 20 18  1  0
 21 22  1  0
 21 20  1  0
 22 23  1  0
 24 23  1  1
 24 25  1  0
 24 26  1  0
 25 14  1  0
 26 27  1  0
 28 26  2  0
M  END
$$$$
