PER.pdb
     RDKit          3D

 28 28  0  0  1  0  0  0  0  0999 V2000
   22.0035  -20.6589  -13.3109 N   0  0  0  0  0  0  0  0  0  0  0  0
   23.3616  -20.2580  -13.6259 C   0  0  0  0  0  0  0  0  0  0  0  0
   23.9926  -21.4703  -14.2753 C   0  0  0  0  0  0  0  0  0  0  0  0
   22.8381  -22.4014  -14.5994 C   0  0  0  0  0  0  0  0  0  0  0  0
   21.6337  -21.5055  -14.3760 C   0  0  1  0  0  0  0  0  0  0  0  0
   20.3949  -22.3112  -14.1776 C   0  0  0  0  0  0  0  0  0  0  0  0
   20.0108  -23.0581  -15.0955 O   0  0  0  0  0  0  0  0  0  0  0  0
   19.6209  -22.2675  -12.9797 N   0  0  0  0  0  0  0  0  0  0  0  0
   18.4556  -23.0286  -12.6814 C   0  0  1  0  0  0  0  0  0  0  0  0
   18.2120  -23.1555  -11.1586 C   0  0  0  0  0  0  0  0  0  0  0  0
   19.1545  -24.1544  -10.5229 C   0  0  0  0  0  0  0  0  0  0  0  0
   18.8683  -24.2128   -9.0676 C   0  0  0  0  0  0  0  0  0  0  0  0
   17.9098  -23.5512   -8.5962 O   0  0  0  0  0  0  0  0  0  0  0  0
   17.2006  -22.4581  -13.3279 C   0  0  0  0  0  0  0  0  0  0  0  0
   17.1546  -21.2283  -13.3456 O   0  0  0  0  0  0  0  0  0  0  0  0
   19.6238  -24.9723   -8.1959 O   0  0  0  0  0  0  0  0  0  0  0  0
   17.1970  -18.7826  -18.9689 N   0  0  0  0  0  0  0  0  0  0  0  0
   15.8887  -19.3138  -18.7145 C   0  0  0  0  0  0  0  0  0  0  0  0
   14.8869  -18.7206  -19.2650 N   0  0  0  0  0  0  0  0  0  0  0  0
   15.7447  -20.4308  -17.8972 N   0  0  0  0  0  0  0  0  0  0  0  0
   16.9005  -21.1560  -17.3854 C   0  0  0  0  0  0  0  0  0  0  0  0
   16.4059  -22.3636  -16.6188 C   0  0  0  0  0  0  0  0  0  0  0  0
   15.2616  -22.0412  -15.7434 C   0  0  0  0  0  0  0  0  0  0  0  0
   15.0002  -22.9499  -14.5874 C   0  0  2  0  0  0  0  0  0  0  0  0
   16.1943  -23.2640  -13.8585 N   0  0  0  0  0  0  0  0  0  0  0  0
   14.0615  -24.0514  -14.8635 C   0  0  0  0  0  0  0  0  0  0  0  0
   12.8537  -24.0763  -15.5340 O   0  0  0  0  0  0  0  0  0  0  0  0
   14.3635  -25.2419  -14.4300 O   0  0  0  0  0  0  0  0  0  0  0  0
  1  2  1  0
  3  2  1  0
  4  3  1  0
  4  5  1  0
  5  6  1  1
  5  1  1  0
  6  7  2  0
  8  9  1  0
  8  6  1  0
  9 10  1  1
 11 10  1  0
 12 11  1  0
 13 12  2  0
 14 15  2  0
 14  9  1  0
 16 12  1  0
 18 17  1  0
 19 18  2  0
 20 18  1  0
 21 22  1  0
 21 20  1  0
 22 23  1  0
 24 23  1  6
 24 25  1  0
 24 26  1  0
 25 14  1  0
 26 27  1  0
 28 26  2  0
M  END
$$$$
