PER.pdb
     RDKit          3D

 28 28  0  0  1  0  0  0  0  0999 V2000
   24.8729  -23.5868  -17.2366 N   0  0  0  0  0  0  0  0  0  0  0  0
   26.0392  -24.4485  -17.2791 C   0  0  0  0  0  0  0  0  0  0  0  0
   26.8242  -24.1154  -16.0292 C   0  0  0  0  0  0  0  0  0  0  0  0
   25.8777  -23.3048  -15.1620 C   0  0  0  0  0  0  0  0  0  0  0  0
   24.5487  -23.5056  -15.8668 C   0  0  1  0  0  0  0  0  0  0  0  0
   23.5720  -22.4467  -15.4825 C   0  0  0  0  0  0  0  0  0  0  0  0
   23.3098  -22.2802  -14.2778 O   0  0  0  0  0  0  0  0  0  0  0  0
   22.9167  -21.6093  -16.4340 N   0  0  0  0  0  0  0  0  0  0  0  0
   21.9141  -20.6331  -16.1729 C   0  0  1  0  0  0  0  0  0  0  0  0
   21.9312  -19.4835  -17.2085 C   0  0  0  0  0  0  0  0  0  0  0  0
   23.3382  -18.9978  -17.4817 C   0  0  0  0  0  0  0  0  0  0  0  0
   23.2858  -17.9876  -18.5680 C   0  0  0  0  0  0  0  0  0  0  0  0
   23.0646  -16.7834  -18.2860 O   0  0  0  0  0  0  0  0  0  0  0  0
   20.5131  -21.2276  -16.1305 C   0  0  0  0  0  0  0  0  0  0  0  0
   20.2407  -21.9506  -17.0886 O   0  0  0  0  0  0  0  0  0  0  0  0
   23.4694  -18.3203  -19.8959 O   0  0  0  0  0  0  0  0  0  0  0  0
   18.9965  -22.0786   -9.5681 N   0  0  0  0  0  0  0  0  0  0  0  0
   17.6890  -22.0946  -10.1589 C   0  0  0  0  0  0  0  0  0  0  0  0
   16.7793  -21.3644   -9.6132 N   0  0  0  0  0  0  0  0  0  0  0  0
   17.4484  -22.8825  -11.2803 N   0  0  0  0  0  0  0  0  0  0  0  0
   18.4937  -23.7083  -11.8713 C   0  0  0  0  0  0  0  0  0  0  0  0
   18.8331  -23.1462  -13.2350 C   0  0  0  0  0  0  0  0  0  0  0  0
   17.9943  -21.9832  -13.5860 C   0  0  0  0  0  0  0  0  0  0  0  0
   18.2420  -21.3272  -14.9046 C   0  0  2  0  0  0  0  0  0  0  0  0
   19.6198  -20.9763  -15.0900 N   0  0  0  0  0  0  0  0  0  0  0  0
   17.2274  -20.3373  -15.3060 C   0  0  0  0  0  0  0  0  0  0  0  0
   17.3460  -19.0278  -15.7303 O   0  0  0  0  0  0  0  0  0  0  0  0
   15.9751  -20.6945  -15.2840 O   0  0  0  0  0  0  0  0  0  0  0  0
  1  2  1  0
  3  2  1  0
  4  3  1  0
  4  5  1  0
  5  6  1  6
  5  1  1  0
  6  7  2  0
  8  9  1  0
  8  6  1  0
  9 10  1  6
 11 10  1  0
 12 11  1  0
 13 12  2  0
 14 15  2  0
 14  9  1  0
 16 12  1  0
 18 17  1  0
 19 18  2  0
 20 18  1  0
 21 22  1  0
 21 20  1  0
 22 23  1  0
 24 23  1  1
 24 25  1  0
 24 26  1  0
 25 14  1  0
 26 27  1  0
 28 26  2  0
M  END
$$$$
