PER.pdb
     RDKit          3D

 28 28  0  0  1  0  0  0  0  0999 V2000
   26.2532  -18.3261  -17.5285 N   0  0  0  0  0  0  0  0  0  0  0  0
   27.6013  -18.1449  -18.0326 C   0  0  0  0  0  0  0  0  0  0  0  0
   28.2614  -17.1874  -17.0647 C   0  0  0  0  0  0  0  0  0  0  0  0
   27.3412  -17.1347  -15.8582 C   0  0  0  0  0  0  0  0  0  0  0  0
   26.3975  -18.2926  -16.1264 C   0  0  1  0  0  0  0  0  0  0  0  0
   25.1399  -18.1537  -15.3377 C   0  0  0  0  0  0  0  0  0  0  0  0
   25.2153  -18.0507  -14.1001 O   0  0  0  0  0  0  0  0  0  0  0  0
   23.8441  -18.1341  -15.9349 N   0  0  0  0  0  0  0  0  0  0  0  0
   22.5919  -18.0217  -15.2675 C   0  0  1  0  0  0  0  0  0  0  0  0
   21.6129  -17.0827  -16.0118 C   0  0  0  0  0  0  0  0  0  0  0  0
   20.3204  -16.9015  -15.2457 C   0  0  0  0  0  0  0  0  0  0  0  0
   19.3820  -16.1137  -16.0836 C   0  0  0  0  0  0  0  0  0  0  0  0
   18.9754  -16.5877  -17.1738 O   0  0  0  0  0  0  0  0  0  0  0  0
   21.9123  -19.3689  -15.0640 C   0  0  0  0  0  0  0  0  0  0  0  0
   21.8986  -20.0852  -16.0647 O   0  0  0  0  0  0  0  0  0  0  0  0
   18.9324  -14.8618  -15.7119 O   0  0  0  0  0  0  0  0  0  0  0  0
   17.2112  -23.0625  -10.2792 N   0  0  0  0  0  0  0  0  0  0  0  0
   18.1400  -23.9540   -9.6457 C   0  0  0  0  0  0  0  0  0  0  0  0
   17.7179  -25.1291   -9.3303 N   0  0  0  0  0  0  0  0  0  0  0  0
   19.4418  -23.5307   -9.3963 N   0  0  0  0  0  0  0  0  0  0  0  0
   19.9265  -22.2379   -9.8628 C   0  0  0  0  0  0  0  0  0  0  0  0
   19.9159  -22.2412  -11.3762 C   0  0  0  0  0  0  0  0  0  0  0  0
   20.5102  -21.0144  -11.9430 C   0  0  0  0  0  0  0  0  0  0  0  0
   20.7399  -20.9775  -13.4183 C   0  0  2  0  0  0  0  0  0  0  0  0
   21.3590  -19.7564  -13.8444 N   0  0  0  0  0  0  0  0  0  0  0  0
   19.6279  -21.4973  -14.2329 C   0  0  0  0  0  0  0  0  0  0  0  0
   19.3035  -22.7826  -14.6225 O   0  0  0  0  0  0  0  0  0  0  0  0
   18.7556  -20.6494  -14.6983 O   0  0  0  0  0  0  0  0  0  0  0  0
  1  2  1  0
  3  2  1  0
  4  3  1  0
  4  5  1  0
  5  6  1  1
  5  1  1  0
  6  7  2  0
  8  9  1  0
  8  6  1  0
  9 10  1  6
 11 10  1  0
 12 11  1  0
 13 12  2  0
 14 15  2  0
 14  9  1  0
 16 12  1  0
 18 17  1  0
 19 18  2  0
 20 18  1  0
 21 22  1  0
 21 20  1  0
 22 23  1  0
 24 23  1  1
 24 25  1  0
 24 26  1  0
 25 14  1  0
 26 27  1  0
 28 26  2  0
M  END
$$$$
