PER.pdb
     RDKit          3D

 28 28  0  0  1  0  0  0  0  0999 V2000
   21.4020   -9.9509  -15.7665 N   0  0  0  0  0  0  0  0  0  0  0  0
   22.0935  -11.0411  -16.4282 C   0  0  0  0  0  0  0  0  0  0  0  0
   23.4072  -11.1831  -15.6911 C   0  0  0  0  0  0  0  0  0  0  0  0
   23.2462  -10.3705  -14.4188 C   0  0  0  0  0  0  0  0  0  0  0  0
   21.7553  -10.0869  -14.4083 C   0  0  1  0  0  0  0  0  0  0  0  0
   21.4355   -8.9290  -13.5251 C   0  0  0  0  0  0  0  0  0  0  0  0
   21.5896   -9.0501  -12.2966 O   0  0  0  0  0  0  0  0  0  0  0  0
   20.9563   -7.6799  -14.0214 N   0  0  0  0  0  0  0  0  0  0  0  0
   20.6432   -6.5170  -13.2627 C   0  0  1  0  0  0  0  0  0  0  0  0
   20.8826   -5.2136  -14.0616 C   0  0  0  0  0  0  0  0  0  0  0  0
   20.5948   -3.9849  -13.2263 C   0  0  0  0  0  0  0  0  0  0  0  0
   20.9283   -2.7809  -14.0280 C   0  0  0  0  0  0  0  0  0  0  0  0
   22.0404   -2.7098  -14.6082 O   0  0  0  0  0  0  0  0  0  0  0  0
   19.2085   -6.5174  -12.7531 C   0  0  0  0  0  0  0  0  0  0  0  0
   18.3798   -6.9094  -13.5743 O   0  0  0  0  0  0  0  0  0  0  0  0
   20.0566   -1.7182  -14.1626 O   0  0  0  0  0  0  0  0  0  0  0  0
   13.1180  -10.8185  -11.8537 N   0  0  0  0  0  0  0  0  0  0  0  0
   13.7137  -10.9552  -10.5555 C   0  0  0  0  0  0  0  0  0  0  0  0
   13.3469  -11.9567   -9.8337 N   0  0  0  0  0  0  0  0  0  0  0  0
   14.6501  -10.0206  -10.1244 N   0  0  0  0  0  0  0  0  0  0  0  0
   14.8801   -8.7791  -10.8521 C   0  0  0  0  0  0  0  0  0  0  0  0
   15.8571   -7.9357  -10.0618 C   0  0  0  0  0  0  0  0  0  0  0  0
   17.0874   -7.6423  -10.8233 C   0  0  0  0  0  0  0  0  0  0  0  0
   17.6673   -6.2720  -10.6952 C   0  0  2  0  0  0  0  0  0  0  0  0
   18.8676   -6.1128  -11.4632 N   0  0  0  0  0  0  0  0  0  0  0  0
   17.6537   -5.7171   -9.3305 C   0  0  0  0  0  0  0  0  0  0  0  0
   18.6675   -5.2122   -8.5391 O   0  0  0  0  0  0  0  0  0  0  0  0
   16.5154   -5.6587   -8.7002 O   0  0  0  0  0  0  0  0  0  0  0  0
  1  2  1  0
  3  2  1  0
  4  3  1  0
  4  5  1  0
  5  6  1  1
  5  1  1  0
  6  7  2  0
  8  9  1  0
  8  6  1  0
  9 10  1  6
 11 10  1  0
 12 11  1  0
 13 12  2  0
 14 15  2  0
 14  9  1  0
 16 12  1  0
 18 17  1  0
 19 18  2  0
 20 18  1  0
 21 22  1  0
 21 20  1  0
 22 23  1  0
 24 23  1  1
 24 25  1  0
 24 26  1  0
 25 14  1  0
 26 27  1  0
 28 26  2  0
M  END
$$$$
