PER.pdb
     RDKit          3D

 28 28  0  0  1  0  0  0  0  0999 V2000
   27.0917  -17.6373  -16.2739 N   0  0  0  0  0  0  0  0  0  0  0  0
   28.0912  -17.0348  -17.1355 C   0  0  0  0  0  0  0  0  0  0  0  0
   29.2087  -18.0516  -17.2182 C   0  0  0  0  0  0  0  0  0  0  0  0
   28.6273  -19.3369  -16.6567 C   0  0  0  0  0  0  0  0  0  0  0  0
   27.1468  -19.0117  -16.5836 C   0  0  1  0  0  0  0  0  0  0  0  0
   26.4419  -19.9280  -15.6420 C   0  0  0  0  0  0  0  0  0  0  0  0
   26.3366  -21.1312  -15.9407 O   0  0  0  0  0  0  0  0  0  0  0  0
   25.8763  -19.4912  -14.4070 N   0  0  0  0  0  0  0  0  0  0  0  0
   25.1912  -20.2874  -13.4464 C   0  0  1  0  0  0  0  0  0  0  0  0
   25.6964  -20.0328  -12.0061 C   0  0  0  0  0  0  0  0  0  0  0  0
   24.9769  -20.9035  -10.9990 C   0  0  0  0  0  0  0  0  0  0  0  0
   25.5639  -20.6573   -9.6580 C   0  0  0  0  0  0  0  0  0  0  0  0
   26.5759  -19.9208   -9.5490 O   0  0  0  0  0  0  0  0  0  0  0  0
   23.6837  -20.0759  -13.4765 C   0  0  0  0  0  0  0  0  0  0  0  0
   23.3160  -18.9891  -13.0310 O   0  0  0  0  0  0  0  0  0  0  0  0
   25.0392  -21.2141   -8.5082 O   0  0  0  0  0  0  0  0  0  0  0  0
   22.1826  -26.6739  -13.4444 N   0  0  0  0  0  0  0  0  0  0  0  0
   20.8897  -26.6728  -12.8220 C   0  0  0  0  0  0  0  0  0  0  0  0
   20.6909  -27.5045  -11.8591 N   0  0  0  0  0  0  0  0  0  0  0  0
   19.9100  -25.7915  -13.2687 N   0  0  0  0  0  0  0  0  0  0  0  0
   20.1962  -24.7800  -14.2781 C   0  0  0  0  0  0  0  0  0  0  0  0
   20.5895  -23.4995  -13.5736 C   0  0  0  0  0  0  0  0  0  0  0  0
   20.8637  -22.4007  -14.5207 C   0  0  0  0  0  0  0  0  0  0  0  0
   21.3676  -21.1132  -13.9559 C   0  0  2  0  0  0  0  0  0  0  0  0
   22.7990  -21.0323  -13.9727 N   0  0  0  0  0  0  0  0  0  0  0  0
   20.6740  -20.6551  -12.7395 C   0  0  0  0  0  0  0  0  0  0  0  0
   21.0132  -20.7503  -11.4035 O   0  0  0  0  0  0  0  0  0  0  0  0
   19.5342  -20.0396  -12.8746 O   0  0  0  0  0  0  0  0  0  0  0  0
  1  2  1  0
  3  2  1  0
  4  3  1  0
  4  5  1  0
  5  6  1  1
  5  1  1  0
  6  7  2  0
  8  9  1  0
  8  6  1  0
  9 10  1  1
 11 10  1  0
 12 11  1  0
 13 12  2  0
 14 15  2  0
 14  9  1  0
 16 12  1  0
 18 17  1  0
 19 18  2  0
 20 18  1  0
 21 22  1  0
 21 20  1  0
 22 23  1  0
 24 23  1  1
 24 25  1  0
 24 26  1  0
 25 14  1  0
 26 27  1  0
 28 26  2  0
M  END
$$$$
