PER.pdb
     RDKit          3D

 28 28  0  0  1  0  0  0  0  0999 V2000
   27.5621  -18.7495  -18.2624 N   0  0  0  0  0  0  0  0  0  0  0  0
   28.9185  -18.3001  -18.5127 C   0  0  0  0  0  0  0  0  0  0  0  0
   28.9060  -16.8164  -18.2158 C   0  0  0  0  0  0  0  0  0  0  0  0
   27.6014  -16.5626  -17.4818 C   0  0  0  0  0  0  0  0  0  0  0  0
   27.1332  -17.9716  -17.1675 C   0  0  1  0  0  0  0  0  0  0  0  0
   25.6720  -17.9983  -16.8724 C   0  0  0  0  0  0  0  0  0  0  0  0
   25.2559  -17.4304  -15.8467 O   0  0  0  0  0  0  0  0  0  0  0  0
   24.7196  -18.6487  -17.7126 N   0  0  0  0  0  0  0  0  0  0  0  0
   23.3153  -18.7489  -17.5025 C   0  0  1  0  0  0  0  0  0  0  0  0
   22.5302  -18.8631  -18.8311 C   0  0  0  0  0  0  0  0  0  0  0  0
   22.3997  -17.5223  -19.5205 C   0  0  0  0  0  0  0  0  0  0  0  0
   21.5837  -17.7004  -20.7476 C   0  0  0  0  0  0  0  0  0  0  0  0
   20.6666  -16.8818  -21.0076 O   0  0  0  0  0  0  0  0  0  0  0  0
   22.9375  -19.9252  -16.6127 C   0  0  0  0  0  0  0  0  0  0  0  0
   23.4823  -20.9859  -16.9174 O   0  0  0  0  0  0  0  0  0  0  0  0
   21.7904  -18.7449  -21.6272 O   0  0  0  0  0  0  0  0  0  0  0  0
   25.4095  -21.6151   -9.6034 N   0  0  0  0  0  0  0  0  0  0  0  0
   26.3365  -21.5662  -10.6974 C   0  0  0  0  0  0  0  0  0  0  0  0
   27.3157  -22.4026  -10.6870 N   0  0  0  0  0  0  0  0  0  0  0  0
   26.1535  -20.6354  -11.7154 N   0  0  0  0  0  0  0  0  0  0  0  0
   25.0606  -19.6719  -11.6812 C   0  0  0  0  0  0  0  0  0  0  0  0
   23.8185  -20.3383  -12.2325 C   0  0  0  0  0  0  0  0  0  0  0  0
   23.5584  -19.9637  -13.6366 C   0  0  0  0  0  0  0  0  0  0  0  0
   22.1723  -20.1596  -14.1571 C   0  0  2  0  0  0  0  0  0  0  0  0
   22.0534  -19.8053  -15.5413 N   0  0  0  0  0  0  0  0  0  0  0  0
   21.0997  -19.7208  -13.2474 C   0  0  0  0  0  0  0  0  0  0  0  0
   20.1237  -18.7527  -13.3853 O   0  0  0  0  0  0  0  0  0  0  0  0
   20.9922  -20.3108  -12.0913 O   0  0  0  0  0  0  0  0  0  0  0  0
  1  2  1  0
  3  2  1  0
  4  3  1  0
  4  5  1  0
  5  6  1  6
  5  1  1  0
  6  7  2  0
  8  9  1  0
  8  6  1  0
  9 10  1  6
 11 10  1  0
 12 11  1  0
 13 12  2  0
 14 15  2  0
 14  9  1  0
 16 12  1  0
 18 17  1  0
 19 18  2  0
 20 18  1  0
 21 22  1  0
 21 20  1  0
 22 23  1  0
 24 23  1  1
 24 25  1  0
 24 26  1  0
 25 14  1  0
 26 27  1  0
 28 26  2  0
M  END
$$$$
