PER.pdb
     RDKit          3D

 28 28  0  0  1  0  0  0  0  0999 V2000
   16.7909  -13.7462    5.1617 N   0  0  0  0  0  0  0  0  0  0  0  0
   16.6778  -12.6485    4.2201 C   0  0  0  0  0  0  0  0  0  0  0  0
   17.9784  -12.6537    3.4468 C   0  0  0  0  0  0  0  0  0  0  0  0
   18.6355  -13.9833    3.7710 C   0  0  0  0  0  0  0  0  0  0  0  0
   17.5116  -14.7346    4.4606 C   0  0  1  0  0  0  0  0  0  0  0  0
   18.0422  -15.8652    5.2748 C   0  0  0  0  0  0  0  0  0  0  0  0
   18.7364  -16.7337    4.7164 O   0  0  0  0  0  0  0  0  0  0  0  0
   17.7910  -16.0035    6.6726 N   0  0  0  0  0  0  0  0  0  0  0  0
   18.2636  -17.0346    7.5327 C   0  0  1  0  0  0  0  0  0  0  0  0
   18.6399  -16.5014    8.9357 C   0  0  0  0  0  0  0  0  0  0  0  0
   19.7972  -15.5283    8.8721 C   0  0  0  0  0  0  0  0  0  0  0  0
   20.0858  -15.0483   10.2468 C   0  0  0  0  0  0  0  0  0  0  0  0
   21.0878  -15.4914   10.8617 O   0  0  0  0  0  0  0  0  0  0  0  0
   17.2599  -18.1676    7.6971 C   0  0  0  0  0  0  0  0  0  0  0  0
   16.1659  -17.8149    8.1373 O   0  0  0  0  0  0  0  0  0  0  0  0
   19.2860  -14.1238   10.8897 O   0  0  0  0  0  0  0  0  0  0  0  0
   16.4150  -21.4556    1.2684 N   0  0  0  0  0  0  0  0  0  0  0  0
   15.1294  -21.1859    1.8456 C   0  0  0  0  0  0  0  0  0  0  0  0
   14.1301  -21.0598    1.0430 N   0  0  0  0  0  0  0  0  0  0  0  0
   15.0037  -21.0707    3.2266 N   0  0  0  0  0  0  0  0  0  0  0  0
   16.1706  -20.9593    4.0924 C   0  0  0  0  0  0  0  0  0  0  0  0
   15.9017  -21.7411    5.3601 C   0  0  0  0  0  0  0  0  0  0  0  0
   17.0026  -21.6211    6.3364 C   0  0  0  0  0  0  0  0  0  0  0  0
   16.7995  -20.7009    7.4951 C   0  0  2  0  0  0  0  0  0  0  0  0
   17.5570  -19.4900    7.3703 N   0  0  0  0  0  0  0  0  0  0  0  0
   16.7783  -21.3580    8.8135 C   0  0  0  0  0  0  0  0  0  0  0  0
   17.5442  -21.1590    9.9461 O   0  0  0  0  0  0  0  0  0  0  0  0
   15.9041  -22.3015    9.0181 O   0  0  0  0  0  0  0  0  0  0  0  0
  1  2  1  0
  3  2  1  0
  4  3  1  0
  4  5  1  0
  5  6  1  1
  5  1  1  0
  6  7  2  0
  8  9  1  0
  8  6  1  0
  9 10  1  1
 11 10  1  0
 12 11  1  0
 13 12  2  0
 14 15  2  0
 14  9  1  0
 16 12  1  0
 18 17  1  0
 19 18  2  0
 20 18  1  0
 21 22  1  0
 21 20  1  0
 22 23  1  0
 24 23  1  6
 24 25  1  0
 24 26  1  0
 25 14  1  0
 26 27  1  0
 28 26  2  0
M  END
$$$$
