PER.pdb
     RDKit          3D

 28 28  0  0  1  0  0  0  0  0999 V2000
   25.9433  -21.4354  -15.3637 N   0  0  0  0  0  0  0  0  0  0  0  0
   27.3213  -21.4657  -15.8160 C   0  0  0  0  0  0  0  0  0  0  0  0
   27.8827  -20.1040  -15.4695 C   0  0  0  0  0  0  0  0  0  0  0  0
   26.8720  -19.4793  -14.5243 C   0  0  0  0  0  0  0  0  0  0  0  0
   25.9792  -20.6594  -14.1871 C   0  0  1  0  0  0  0  0  0  0  0  0
   24.6621  -20.2022  -13.6589 C   0  0  0  0  0  0  0  0  0  0  0  0
   24.6398  -19.4683  -12.6545 O   0  0  0  0  0  0  0  0  0  0  0  0
   23.4162  -20.5677  -14.2507 N   0  0  0  0  0  0  0  0  0  0  0  0
   22.1198  -20.1200  -13.8698 C   0  0  1  0  0  0  0  0  0  0  0  0
   21.4859  -19.1887  -14.9306 C   0  0  0  0  0  0  0  0  0  0  0  0
   22.4529  -18.1157  -15.3820 C   0  0  0  0  0  0  0  0  0  0  0  0
   21.8107  -17.3265  -16.4628 C   0  0  0  0  0  0  0  0  0  0  0  0
   20.6217  -16.9430  -16.3291 O   0  0  0  0  0  0  0  0  0  0  0  0
   21.1590  -21.2690  -13.5963 C   0  0  0  0  0  0  0  0  0  0  0  0
   21.3553  -22.2684  -14.2873 O   0  0  0  0  0  0  0  0  0  0  0  0
   22.4731  -16.9935  -17.6281 O   0  0  0  0  0  0  0  0  0  0  0  0
   18.9561  -25.2059   -6.2172 N   0  0  0  0  0  0  0  0  0  0  0  0
   17.8759  -25.1350   -7.1589 C   0  0  0  0  0  0  0  0  0  0  0  0
   16.8603  -25.9015   -6.9601 N   0  0  0  0  0  0  0  0  0  0  0  0
   17.9568  -24.2584   -8.2366 N   0  0  0  0  0  0  0  0  0  0  0  0
   19.2306  -23.7013   -8.6732 C   0  0  0  0  0  0  0  0  0  0  0  0
   19.2475  -23.6754  -10.1864 C   0  0  0  0  0  0  0  0  0  0  0  0
   19.1405  -22.3048  -10.7243 C   0  0  0  0  0  0  0  0  0  0  0  0
   19.1636  -22.1428  -12.2088 C   0  0  2  0  0  0  0  0  0  0  0  0
   20.1478  -21.1933  -12.6395 N   0  0  0  0  0  0  0  0  0  0  0  0
   17.8374  -22.0861  -12.8479 C   0  0  0  0  0  0  0  0  0  0  0  0
   16.9526  -23.0847  -13.2070 O   0  0  0  0  0  0  0  0  0  0  0  0
   17.3495  -20.9176  -13.1527 O   0  0  0  0  0  0  0  0  0  0  0  0
  1  2  1  0
  3  2  1  0
  4  3  1  0
  4  5  1  0
  5  6  1  6
  5  1  1  0
  6  7  2  0
  8  9  1  0
  8  6  1  0
  9 10  1  6
 11 10  1  0
 12 11  1  0
 13 12  2  0
 14 15  2  0
 14  9  1  0
 16 12  1  0
 18 17  1  0
 19 18  2  0
 20 18  1  0
 21 22  1  0
 21 20  1  0
 22 23  1  0
 24 23  1  1
 24 25  1  0
 24 26  1  0
 25 14  1  0
 26 27  1  0
 28 26  2  0
M  END
$$$$
