PER.pdb
     RDKit          3D

 28 28  0  0  1  0  0  0  0  0999 V2000
   19.3235  -12.0157  -17.6256 N   0  0  0  0  0  0  0  0  0  0  0  0
   18.1084  -12.7421  -17.9424 C   0  0  0  0  0  0  0  0  0  0  0  0
   17.3628  -11.8606  -18.9204 C   0  0  0  0  0  0  0  0  0  0  0  0
   18.3679  -10.8146  -19.3684 C   0  0  0  0  0  0  0  0  0  0  0  0
   19.6722  -11.3758  -18.8326 C   0  0  1  0  0  0  0  0  0  0  0  0
   20.7147  -10.3141  -18.7382 C   0  0  0  0  0  0  0  0  0  0  0  0
   21.1462   -9.8011  -19.7863 O   0  0  0  0  0  0  0  0  0  0  0  0
   21.2477   -9.8540  -17.4971 N   0  0  0  0  0  0  0  0  0  0  0  0
   22.2124   -8.8252  -17.3048 C   0  0  1  0  0  0  0  0  0  0  0  0
   21.8363   -7.8790  -16.1397 C   0  0  0  0  0  0  0  0  0  0  0  0
   22.8227   -6.7392  -16.0043 C   0  0  0  0  0  0  0  0  0  0  0  0
   22.4136   -5.8957  -14.8534 C   0  0  0  0  0  0  0  0  0  0  0  0
   21.3874   -6.1990  -14.1950 O   0  0  0  0  0  0  0  0  0  0  0  0
   23.6112   -9.3718  -17.0542 C   0  0  0  0  0  0  0  0  0  0  0  0
   23.6742  -10.2073  -16.1526 O   0  0  0  0  0  0  0  0  0  0  0  0
   23.1217   -4.7730  -14.4717 O   0  0  0  0  0  0  0  0  0  0  0  0
   30.9215   -7.2197  -21.8676 N   0  0  0  0  0  0  0  0  0  0  0  0
   31.3814   -8.1218  -20.8510 C   0  0  0  0  0  0  0  0  0  0  0  0
   32.6279   -8.4451  -20.8604 N   0  0  0  0  0  0  0  0  0  0  0  0
   30.4850   -8.6103  -19.9055 N   0  0  0  0  0  0  0  0  0  0  0  0
   29.1031   -8.1503  -19.8548 C   0  0  0  0  0  0  0  0  0  0  0  0
   28.3783   -8.9317  -18.7802 C   0  0  0  0  0  0  0  0  0  0  0  0
   26.9413   -8.5988  -18.7185 C   0  0  0  0  0  0  0  0  0  0  0  0
   26.1072   -9.3270  -17.7163 C   0  0  2  0  0  0  0  0  0  0  0  0
   24.7225   -8.9621  -17.7896 N   0  0  0  0  0  0  0  0  0  0  0  0
   26.7096   -9.4474  -16.3772 C   0  0  0  0  0  0  0  0  0  0  0  0
   27.5461  -10.4036  -15.8342 O   0  0  0  0  0  0  0  0  0  0  0  0
   26.4527   -8.5196  -15.5000 O   0  0  0  0  0  0  0  0  0  0  0  0
  1  2  1  0
  3  2  1  0
  4  3  1  0
  4  5  1  0
  5  6  1  1
  5  1  1  0
  6  7  2  0
  8  9  1  0
  8  6  1  0
  9 10  1  1
 11 10  1  0
 12 11  1  0
 13 12  2  0
 14 15  2  0
 14  9  1  0
 16 12  1  0
 18 17  1  0
 19 18  2  0
 20 18  1  0
 21 22  1  0
 21 20  1  0
 22 23  1  0
 24 23  1  6
 24 25  1  0
 24 26  1  0
 25 14  1  0
 26 27  1  0
 28 26  2  0
M  END
$$$$
