CHD.pdb
     RDKit          3D

 25 25  0  0  1  0  0  0  0  0999 V2000
    8.1303  -14.3633   17.9372 N   0  0  0  0  0  0  0  0  0  0  0  0
    9.1729  -13.5215   18.5260 C   0  0  1  0  0  0  0  0  0  0  0  0
    8.6648  -12.9699   19.8617 C   0  0  0  0  0  0  0  0  0  0  0  0
    7.4299  -11.6918   19.5398 S   0  0  0  0  0  0  0  0  0  0  0  0
   10.3661  -14.3785   18.7457 C   0  0  0  0  0  0  0  0  0  0  0  0
   10.1198  -15.6002   19.0287 O   0  0  0  0  0  0  0  0  0  0  0  0
   11.6758  -13.8818   18.6494 N   0  0  0  0  0  0  0  0  0  0  0  0
   12.8131  -14.7455   18.8618 C   0  0  1  0  0  0  0  0  0  0  0  0
   13.8652  -14.5106   17.8041 C   0  0  0  0  0  0  0  0  0  0  0  0
   13.6670  -15.3713   16.6140 C   0  0  0  0  0  0  0  0  0  0  0  0
   12.6400  -16.2725   16.3747 C   0  0  0  0  0  0  0  0  0  0  0  0
   12.8098  -16.8667   15.1767 N   0  0  0  0  0  0  0  0  0  0  0  0
   13.9340  -16.3416   14.6701 C   0  0  0  0  0  0  0  0  0  0  0  0
   14.4501  -15.4493   15.5220 N   0  0  0  0  0  0  0  0  0  0  0  0
   13.3516  -14.5984   20.2485 C   0  0  0  0  0  0  0  0  0  0  0  0
   13.9425  -13.5576   20.6287 O   0  0  0  0  0  0  0  0  0  0  0  0
   13.1950  -15.6656   21.1749 N   0  0  0  0  0  0  0  0  0  0  0  0
   13.7016  -15.5905   22.5404 C   0  0  1  0  0  0  0  0  0  0  0  0
   12.8676  -16.4317   23.4723 C   0  0  0  0  0  0  0  0  0  0  0  0
   12.8568  -17.8431   23.0406 C   0  0  0  0  0  0  0  0  0  0  0  0
   13.9098  -18.5212   22.8294 O   0  0  0  0  0  0  0  0  0  0  0  0
   15.1433  -15.8423   22.6064 C   0  0  0  0  0  0  0  0  0  0  0  0
   15.8324  -15.7072   23.6562 O   0  0  0  0  0  0  0  0  0  0  0  0
   11.6650  -18.5370   22.8328 O   0  0  0  0  0  0  0  0  0  0  0  0
   15.8421  -16.2546   21.4863 O   0  0  0  0  0  0  0  0  0  0  0  0
  2  1  1  1
  3  2  1  0
  4  3  1  0
  5  2  1  0
  6  5  2  0
  7  5  1  0
  8  9  1  6
  8  7  1  0
  9 10  1  0
 10 14  1  0
 10 11  2  0
 11 12  1  0
 13 12  1  0
 14 13  2  0
 15  8  1  0
 16 15  2  0
 17 15  1  0
 18 17  1  0
 18 19  1  1
 19 20  1  0
 20 24  1  0
 20 21  2  0
 22 25  1  0
 22 18  1  0
 23 22  2  0
M  END
$$$$
