CHD.pdb
     RDKit          3D

 25 25  0  0  1  0  0  0  0  0999 V2000
    8.6443  -18.5176   17.0273 N   0  0  0  0  0  0  0  0  0  0  0  0
    8.1852  -18.9479   18.3488 C   0  0  1  0  0  0  0  0  0  0  0  0
    8.5027  -20.4368   18.5199 C   0  0  0  0  0  0  0  0  0  0  0  0
    8.0269  -20.9533   20.1839 S   0  0  0  0  0  0  0  0  0  0  0  0
    8.9229  -18.1470   19.3592 C   0  0  0  0  0  0  0  0  0  0  0  0
   10.1711  -17.9925   19.1324 O   0  0  0  0  0  0  0  0  0  0  0  0
    8.2933  -17.5965   20.4869 N   0  0  0  0  0  0  0  0  0  0  0  0
    9.0325  -16.7879   21.4273 C   0  0  1  0  0  0  0  0  0  0  0  0
    8.1884  -15.6355   21.9176 C   0  0  0  0  0  0  0  0  0  0  0  0
    8.0561  -14.5643   20.9021 C   0  0  0  0  0  0  0  0  0  0  0  0
    8.6919  -14.4713   19.6727 C   0  0  0  0  0  0  0  0  0  0  0  0
    8.3110  -13.3470   19.0339 N   0  0  0  0  0  0  0  0  0  0  0  0
    7.4439  -12.7411   19.8567 C   0  0  0  0  0  0  0  0  0  0  0  0
    7.2874  -13.4616   20.9724 N   0  0  0  0  0  0  0  0  0  0  0  0
    9.5736  -17.6187   22.5459 C   0  0  0  0  0  0  0  0  0  0  0  0
    8.9227  -18.5680   23.0482 O   0  0  0  0  0  0  0  0  0  0  0  0
   10.8661  -17.3334   23.0653 N   0  0  0  0  0  0  0  0  0  0  0  0
   11.4431  -18.0876   24.1722 C   0  0  1  0  0  0  0  0  0  0  0  0
   12.9474  -18.1123   24.0820 C   0  0  0  0  0  0  0  0  0  0  0  0
   13.3876  -18.4843   22.7232 C   0  0  0  0  0  0  0  0  0  0  0  0
   12.9314  -19.4837   22.0859 O   0  0  0  0  0  0  0  0  0  0  0  0
   10.9101  -17.6575   25.4672 C   0  0  0  0  0  0  0  0  0  0  0  0
   10.1587  -16.6537   25.6189 O   0  0  0  0  0  0  0  0  0  0  0  0
   14.3528  -17.7469   22.0379 O   0  0  0  0  0  0  0  0  0  0  0  0
   11.2126  -18.3530   26.6238 O   0  0  0  0  0  0  0  0  0  0  0  0
  2  1  1  6
  3  2  1  0
  4  3  1  0
  5  2  1  0
  6  5  2  0
  7  5  1  0
  8  9  1  1
  8  7  1  0
  9 10  1  0
 10 14  1  0
 10 11  2  0
 11 12  1  0
 13 12  1  0
 14 13  2  0
 15  8  1  0
 16 15  2  0
 17 15  1  0
 18 17  1  0
 18 19  1  1
 19 20  1  0
 20 24  1  0
 20 21  2  0
 22 25  1  0
 22 18  1  0
 23 22  2  0
M  END
$$$$
