CHD.pdb
     RDKit          3D

 25 25  0  0  1  0  0  0  0  0999 V2000
   13.3180  -15.3598   16.6952 N   0  0  0  0  0  0  0  0  0  0  0  0
   12.2002  -16.0710   17.3175 C   0  0  1  0  0  0  0  0  0  0  0  0
   12.5507  -17.5598   17.4041 C   0  0  0  0  0  0  0  0  0  0  0  0
   13.9496  -17.7714   18.5267 S   0  0  0  0  0  0  0  0  0  0  0  0
   12.0167  -15.5074   18.6796 C   0  0  0  0  0  0  0  0  0  0  0  0
   12.7299  -14.4821   18.9501 O   0  0  0  0  0  0  0  0  0  0  0  0
   11.1210  -16.0621   19.6076 N   0  0  0  0  0  0  0  0  0  0  0  0
   10.9187  -15.4495   20.8993 C   0  0  1  0  0  0  0  0  0  0  0  0
    9.4568  -15.1409   21.1192 C   0  0  0  0  0  0  0  0  0  0  0  0
    8.9385  -14.1527   20.1439 C   0  0  0  0  0  0  0  0  0  0  0  0
    9.6464  -13.4635   19.1701 C   0  0  0  0  0  0  0  0  0  0  0  0
    8.8209  -12.6520   18.4792 N   0  0  0  0  0  0  0  0  0  0  0  0
    7.6063  -12.8317   19.0162 C   0  0  0  0  0  0  0  0  0  0  0  0
    7.6694  -13.7252   20.0092 N   0  0  0  0  0  0  0  0  0  0  0  0
   11.4980  -16.2890   21.9920 C   0  0  0  0  0  0  0  0  0  0  0  0
   11.2472  -17.5151   22.0969 O   0  0  0  0  0  0  0  0  0  0  0  0
   12.3621  -15.6897   22.9490 N   0  0  0  0  0  0  0  0  0  0  0  0
   13.0008  -16.4601   24.0100 C   0  0  1  0  0  0  0  0  0  0  0  0
   14.3239  -15.8511   24.3973 C   0  0  0  0  0  0  0  0  0  0  0  0
   15.2592  -15.8531   23.2555 C   0  0  0  0  0  0  0  0  0  0  0  0
   15.4001  -16.8369   22.4646 O   0  0  0  0  0  0  0  0  0  0  0  0
   12.0894  -16.7166   25.1279 C   0  0  0  0  0  0  0  0  0  0  0  0
   10.9149  -16.2570   25.1959 O   0  0  0  0  0  0  0  0  0  0  0  0
   16.0649  -14.7522   22.9660 O   0  0  0  0  0  0  0  0  0  0  0  0
   12.4830  -17.5008   26.1969 O   0  0  0  0  0  0  0  0  0  0  0  0
  2  1  1  1
  3  2  1  0
  4  3  1  0
  5  2  1  0
  6  5  2  0
  7  5  1  0
  8  9  1  1
  8  7  1  0
  9 10  1  0
 10 14  1  0
 10 11  2  0
 11 12  1  0
 13 12  1  0
 14 13  2  0
 15  8  1  0
 16 15  2  0
 17 15  1  0
 18 17  1  0
 18 19  1  1
 19 20  1  0
 20 24  1  0
 20 21  2  0
 22 25  1  0
 22 18  1  0
 23 22  2  0
M  END
$$$$
