CHD.pdb
     RDKit          3D

 25 25  0  0  1  0  0  0  0  0999 V2000
    8.0329  -13.8818   17.6184 N   0  0  0  0  0  0  0  0  0  0  0  0
    8.5360  -13.3800   18.8980 C   0  0  1  0  0  0  0  0  0  0  0  0
    7.3844  -13.3649   19.9082 C   0  0  0  0  0  0  0  0  0  0  0  0
    8.0219  -12.8597   21.5208 S   0  0  0  0  0  0  0  0  0  0  0  0
    9.6038  -14.3077   19.3516 C   0  0  0  0  0  0  0  0  0  0  0  0
    9.3779  -15.5483   19.1436 O   0  0  0  0  0  0  0  0  0  0  0  0
   10.7814  -13.8542   19.9668 N   0  0  0  0  0  0  0  0  0  0  0  0
   11.8206  -14.7801   20.3507 C   0  0  1  0  0  0  0  0  0  0  0  0
   13.1820  -14.1426   20.2059 C   0  0  0  0  0  0  0  0  0  0  0  0
   13.7342  -14.3019   18.8398 C   0  0  0  0  0  0  0  0  0  0  0  0
   13.0943  -14.7987   17.7138 C   0  0  0  0  0  0  0  0  0  0  0  0
   13.9311  -14.7852   16.6570 N   0  0  0  0  0  0  0  0  0  0  0  0
   15.0855  -14.2841   17.1178 C   0  0  0  0  0  0  0  0  0  0  0  0
   14.9749  -13.9938   18.4185 N   0  0  0  0  0  0  0  0  0  0  0  0
   11.5833  -15.3191   21.7246 C   0  0  0  0  0  0  0  0  0  0  0  0
   10.7764  -14.7817   22.5229 O   0  0  0  0  0  0  0  0  0  0  0  0
   12.2891  -16.4773   22.1515 N   0  0  0  0  0  0  0  0  0  0  0  0
   12.0789  -17.0760   23.4647 C   0  0  1  0  0  0  0  0  0  0  0  0
   10.6207  -17.3821   23.6909 C   0  0  0  0  0  0  0  0  0  0  0  0
   10.4254  -18.1058   24.9624 C   0  0  0  0  0  0  0  0  0  0  0  0
   10.8357  -17.6766   26.0852 O   0  0  0  0  0  0  0  0  0  0  0  0
   12.9895  -18.1972   23.7096 C   0  0  0  0  0  0  0  0  0  0  0  0
   13.7135  -18.7216   22.8174 O   0  0  0  0  0  0  0  0  0  0  0  0
    9.7641  -19.3326   25.0135 O   0  0  0  0  0  0  0  0  0  0  0  0
   13.1053  -18.7529   24.9708 O   0  0  0  0  0  0  0  0  0  0  0  0
  2  1  1  6
  3  2  1  0
  4  3  1  0
  5  2  1  0
  6  5  2  0
  7  5  1  0
  8  9  1  1
  8  7  1  0
  9 10  1  0
 10 14  1  0
 10 11  2  0
 11 12  1  0
 13 12  1  0
 14 13  2  0
 15  8  1  0
 16 15  2  0
 17 15  1  0
 18 17  1  0
 18 19  1  6
 19 20  1  0
 20 24  1  0
 20 21  2  0
 22 25  1  0
 22 18  1  0
 23 22  2  0
M  END
$$$$
