CHD.pdb
     RDKit          3D

 25 25  0  0  1  0  0  0  0  0999 V2000
    9.9316  -19.1948   18.3445 N   0  0  0  0  0  0  0  0  0  0  0  0
    9.1376  -18.8488   19.5244 C   0  0  1  0  0  0  0  0  0  0  0  0
    9.2350  -19.9943   20.5369 C   0  0  0  0  0  0  0  0  0  0  0  0
   10.9245  -20.0791   21.1698 S   0  0  0  0  0  0  0  0  0  0  0  0
    9.7128  -17.6059   20.0996 C   0  0  0  0  0  0  0  0  0  0  0  0
   10.7255  -17.1321   19.4805 O   0  0  0  0  0  0  0  0  0  0  0  0
    9.1812  -16.9921   21.2450 N   0  0  0  0  0  0  0  0  0  0  0  0
    9.7146  -15.7413   21.7304 C   0  0  1  0  0  0  0  0  0  0  0  0
    8.6151  -14.7176   21.8845 C   0  0  0  0  0  0  0  0  0  0  0  0
    8.1786  -14.1618   20.5818 C   0  0  0  0  0  0  0  0  0  0  0  0
    8.6843  -14.4447   19.3214 C   0  0  0  0  0  0  0  0  0  0  0  0
    8.0230  -13.7375   18.3834 N   0  0  0  0  0  0  0  0  0  0  0  0
    7.1108  -13.0178   19.0513 C   0  0  0  0  0  0  0  0  0  0  0  0
    7.1982  -13.2661   20.3624 N   0  0  0  0  0  0  0  0  0  0  0  0
   10.4942  -15.9392   22.9903 C   0  0  0  0  0  0  0  0  0  0  0  0
    9.9371  -16.1783   24.0901 O   0  0  0  0  0  0  0  0  0  0  0  0
   11.9132  -15.8561   22.9533 N   0  0  0  0  0  0  0  0  0  0  0  0
   12.7544  -16.4570   23.9821 C   0  0  1  0  0  0  0  0  0  0  0  0
   12.3434  -17.8820   24.2506 C   0  0  0  0  0  0  0  0  0  0  0  0
   13.1874  -18.4847   25.3009 C   0  0  0  0  0  0  0  0  0  0  0  0
   13.0781  -18.2070   26.5354 O   0  0  0  0  0  0  0  0  0  0  0  0
   14.1806  -16.2685   23.7052 C   0  0  0  0  0  0  0  0  0  0  0  0
   14.6414  -15.9683   22.5682 O   0  0  0  0  0  0  0  0  0  0  0  0
   14.1795  -19.4170   24.9985 O   0  0  0  0  0  0  0  0  0  0  0  0
   15.1219  -16.4137   24.7081 O   0  0  0  0  0  0  0  0  0  0  0  0
  2  1  1  6
  3  2  1  0
  4  3  1  0
  5  2  1  0
  6  5  2  0
  7  5  1  0
  8  9  1  1
  8  7  1  0
  9 10  1  0
 10 14  1  0
 10 11  2  0
 11 12  1  0
 13 12  1  0
 14 13  2  0
 15  8  1  0
 16 15  2  0
 17 15  1  0
 18 17  1  0
 18 19  1  6
 19 20  1  0
 20 24  1  0
 20 21  2  0
 22 25  1  0
 22 18  1  0
 23 22  2  0
M  END
$$$$
