CHD.pdb
     RDKit          3D

 25 25  0  0  1  0  0  0  0  0999 V2000
   13.0958  -14.9036   15.5437 N   0  0  0  0  0  0  0  0  0  0  0  0
   12.1221  -15.7087   16.2828 C   0  0  1  0  0  0  0  0  0  0  0  0
   12.5368  -17.1811   16.2007 C   0  0  0  0  0  0  0  0  0  0  0  0
   14.0208  -17.4317   17.1993 S   0  0  0  0  0  0  0  0  0  0  0  0
   12.1434  -15.2479   17.6948 C   0  0  0  0  0  0  0  0  0  0  0  0
   13.1199  -14.4857   18.0088 O   0  0  0  0  0  0  0  0  0  0  0  0
   11.1585  -15.6233   18.6224 N   0  0  0  0  0  0  0  0  0  0  0  0
   11.1531  -15.0772   19.9589 C   0  0  1  0  0  0  0  0  0  0  0  0
    9.7480  -15.0343   20.5110 C   0  0  0  0  0  0  0  0  0  0  0  0
    8.8419  -14.2095   19.6773 C   0  0  0  0  0  0  0  0  0  0  0  0
    8.5224  -12.8689   19.8349 C   0  0  0  0  0  0  0  0  0  0  0  0
    7.6615  -12.4780   18.8741 N   0  0  0  0  0  0  0  0  0  0  0  0
    7.4439  -13.5651   18.1211 C   0  0  0  0  0  0  0  0  0  0  0  0
    8.1448  -14.6010   18.5946 N   0  0  0  0  0  0  0  0  0  0  0  0
   12.0965  -15.8195   20.8496 C   0  0  0  0  0  0  0  0  0  0  0  0
   12.1850  -17.0721   20.8331 O   0  0  0  0  0  0  0  0  0  0  0  0
   12.9251  -15.0933   21.7485 N   0  0  0  0  0  0  0  0  0  0  0  0
   13.9940  -15.7311   22.5084 C   0  0  1  0  0  0  0  0  0  0  0  0
   15.1844  -14.8158   22.6377 C   0  0  0  0  0  0  0  0  0  0  0  0
   16.3012  -15.4973   23.3211 C   0  0  0  0  0  0  0  0  0  0  0  0
   16.3711  -15.6408   24.5810 O   0  0  0  0  0  0  0  0  0  0  0  0
   13.5098  -16.2949   23.7709 C   0  0  0  0  0  0  0  0  0  0  0  0
   12.4375  -15.9370   24.3343 O   0  0  0  0  0  0  0  0  0  0  0  0
   17.3733  -16.0386   22.6121 O   0  0  0  0  0  0  0  0  0  0  0  0
   14.2259  -17.2791   24.4278 O   0  0  0  0  0  0  0  0  0  0  0  0
  2  1  1  6
  3  2  1  0
  4  3  1  0
  5  2  1  0
  6  5  2  0
  7  5  1  0
  8  9  1  1
  8  7  1  0
  9 10  1  0
 10 14  1  0
 10 11  2  0
 11 12  1  0
 13 12  1  0
 14 13  2  0
 15  8  1  0
 16 15  2  0
 17 15  1  0
 18 17  1  0
 18 19  1  1
 19 20  1  0
 20 24  1  0
 20 21  2  0
 22 25  1  0
 22 18  1  0
 23 22  2  0
M  END
$$$$
