CHD.pdb
     RDKit          3D

 25 25  0  0  1  0  0  0  0  0999 V2000
    7.0580  -15.3723   20.7122 N   0  0  0  0  0  0  0  0  0  0  0  0
    8.1987  -15.0375   21.5660 C   0  0  1  0  0  0  0  0  0  0  0  0
    7.6776  -14.6384   22.9501 C   0  0  0  0  0  0  0  0  0  0  0  0
    7.5330  -12.8398   23.0292 S   0  0  0  0  0  0  0  0  0  0  0  0
    9.0495  -16.2508   21.6686 C   0  0  0  0  0  0  0  0  0  0  0  0
    8.4182  -17.3599   21.7351 O   0  0  0  0  0  0  0  0  0  0  0  0
   10.4518  -16.1852   21.6913 N   0  0  0  0  0  0  0  0  0  0  0  0
   11.2473  -17.3823   21.8288 C   0  0  1  0  0  0  0  0  0  0  0  0
   12.3155  -17.4372   20.7627 C   0  0  0  0  0  0  0  0  0  0  0  0
   11.7710  -17.8309   19.4418 C   0  0  0  0  0  0  0  0  0  0  0  0
   10.6447  -18.5963   19.1774 C   0  0  0  0  0  0  0  0  0  0  0  0
   10.4769  -18.7361   17.8471 N   0  0  0  0  0  0  0  0  0  0  0  0
   11.4899  -18.0637   17.2835 C   0  0  0  0  0  0  0  0  0  0  0  0
   12.2653  -17.5216   18.2287 N   0  0  0  0  0  0  0  0  0  0  0  0
   11.8083  -17.5024   23.2091 C   0  0  0  0  0  0  0  0  0  0  0  0
   12.2591  -16.5118   23.8356 O   0  0  0  0  0  0  0  0  0  0  0  0
   11.8372  -18.7752   23.8424 N   0  0  0  0  0  0  0  0  0  0  0  0
   12.3789  -18.9644   25.1832 C   0  0  1  0  0  0  0  0  0  0  0  0
   11.9054  -20.2659   25.7777 C   0  0  0  0  0  0  0  0  0  0  0  0
   10.4566  -20.2218   26.0561 C   0  0  0  0  0  0  0  0  0  0  0  0
    9.7634  -19.1588   26.0046 O   0  0  0  0  0  0  0  0  0  0  0  0
   13.8289  -18.7593   25.2241 C   0  0  0  0  0  0  0  0  0  0  0  0
   14.5839  -18.8814   24.2190 O   0  0  0  0  0  0  0  0  0  0  0  0
    9.7412  -21.3683   26.4006 O   0  0  0  0  0  0  0  0  0  0  0  0
   14.4616  -18.4094   26.4031 O   0  0  0  0  0  0  0  0  0  0  0  0
  2  1  1  6
  3  2  1  0
  4  3  1  0
  5  2  1  0
  6  5  2  0
  7  5  1  0
  8  9  1  6
  8  7  1  0
  9 10  1  0
 10 14  1  0
 10 11  2  0
 11 12  1  0
 13 12  1  0
 14 13  2  0
 15  8  1  0
 16 15  2  0
 17 15  1  0
 18 17  1  0
 18 19  1  6
 19 20  1  0
 20 24  1  0
 20 21  2  0
 22 25  1  0
 22 18  1  0
 23 22  2  0
M  END
$$$$
