EAT.pdb
     RDKit          3D

 22 21  0  0  1  0  0  0  0  0999 V2000
    8.6722  -17.0823   16.9505 N   0  0  0  0  0  0  0  0  0  0  0  0
    7.8766  -17.1690   18.1526 C   0  0  1  0  0  0  0  0  0  0  0  0
    7.5643  -18.6265   18.3996 C   0  0  0  0  0  0  0  0  0  0  0  0
    8.5123  -19.5371   17.6547 C   0  0  0  0  0  0  0  0  0  0  0  0
    8.2493  -20.9663   17.8707 C   0  0  0  0  0  0  0  0  0  0  0  0
    7.2550  -21.5513   17.3560 O   0  0  0  0  0  0  0  0  0  0  0  0
    8.5517  -16.5445   19.3116 C   0  0  0  0  0  0  0  0  0  0  0  0
    9.7865  -16.6635   19.4818 O   0  0  0  0  0  0  0  0  0  0  0  0
    9.1010  -21.7364   18.6632 O   0  0  0  0  0  0  0  0  0  0  0  0
    7.2281  -14.4367   22.1235 C   0  0  0  0  0  0  0  0  0  0  0  0
    8.3638  -15.1496   21.3990 C   0  0  2  0  0  0  0  0  0  0  0  0
    7.7910  -15.7969   20.2494 N   0  0  0  0  0  0  0  0  0  0  0  0
    9.0007  -16.1137   22.3295 C   0  0  0  0  0  0  0  0  0  0  0  0
    8.5354  -17.2757   22.4193 O   0  0  0  0  0  0  0  0  0  0  0  0
   13.0545  -17.7292   24.4467 C   0  0  0  0  0  0  0  0  0  0  0  0
   12.2308  -16.8360   23.5790 C   0  0  1  0  0  0  0  0  0  0  0  0
   12.3651  -17.2620   22.2585 O   0  0  0  0  0  0  0  0  0  0  0  0
   10.7908  -16.7437   23.9881 C   0  0  2  0  0  0  0  0  0  0  0  0
   10.1243  -15.7841   23.1340 N   0  0  0  0  0  0  0  0  0  0  0  0
   10.5729  -16.4042   25.3829 C   0  0  0  0  0  0  0  0  0  0  0  0
   10.3787  -15.2038   25.7001 O   0  0  0  0  0  0  0  0  0  0  0  0
   10.5599  -17.3196   26.4329 O   0  0  0  0  0  0  0  0  0  0  0  0
  2  7  1  0
  2  1  1  6
  3  2  1  0
  4  5  1  0
  4  3  1  0
  5  9  1  0
  6  5  2  0
  7 12  1  0
  8  7  2  0
 11 10  1  1
 11 13  1  0
 12 11  1  0
 13 14  2  0
 13 19  1  0
 16 15  1  1
 17 16  1  0
 18 20  1  0
 18 16  1  0
 18 19  1  6
 20 22  1  0
 21 20  2  0
M  END
$$$$
