EAT.pdb
     RDKit          3D

 22 21  0  0  1  0  0  0  0  0999 V2000
    9.2604  -17.0501   17.6881 N   0  0  0  0  0  0  0  0  0  0  0  0
    9.7334  -17.1045   19.0515 C   0  0  1  0  0  0  0  0  0  0  0  0
   11.2228  -17.3560   19.0175 C   0  0  0  0  0  0  0  0  0  0  0  0
   11.5692  -18.7397   19.5156 C   0  0  0  0  0  0  0  0  0  0  0  0
   12.9792  -19.1020   19.3179 C   0  0  0  0  0  0  0  0  0  0  0  0
   13.7034  -19.5224   20.2638 O   0  0  0  0  0  0  0  0  0  0  0  0
    9.3975  -15.8765   19.8052 C   0  0  0  0  0  0  0  0  0  0  0  0
   10.2791  -15.0380   20.1012 O   0  0  0  0  0  0  0  0  0  0  0  0
   13.5744  -18.9920   18.0609 O   0  0  0  0  0  0  0  0  0  0  0  0
    6.1467  -14.3009   20.6981 C   0  0  0  0  0  0  0  0  0  0  0  0
    7.6395  -14.4819   20.9468 C   0  0  2  0  0  0  0  0  0  0  0  0
    8.0543  -15.6403   20.2020 N   0  0  0  0  0  0  0  0  0  0  0  0
    7.8715  -14.6360   22.4040 C   0  0  0  0  0  0  0  0  0  0  0  0
    7.4961  -13.7263   23.1827 O   0  0  0  0  0  0  0  0  0  0  0  0
    6.6070  -17.0374   24.8861 C   0  0  0  0  0  0  0  0  0  0  0  0
    8.0975  -17.1222   24.9086 C   0  0  1  0  0  0  0  0  0  0  0  0
    8.4820  -18.2687   24.2150 O   0  0  0  0  0  0  0  0  0  0  0  0
    8.7879  -15.8987   24.3833 C   0  0  2  0  0  0  0  0  0  0  0  0
    8.5049  -15.7750   22.9693 N   0  0  0  0  0  0  0  0  0  0  0  0
   10.2217  -15.8626   24.6090 C   0  0  0  0  0  0  0  0  0  0  0  0
   11.0007  -15.9337   23.6253 O   0  0  0  0  0  0  0  0  0  0  0  0
   10.8290  -15.7528   25.8579 O   0  0  0  0  0  0  0  0  0  0  0  0
  2  7  1  0
  2  1  1  6
  3  2  1  0
  4  5  1  0
  4  3  1  0
  5  9  1  0
  6  5  2  0
  7 12  1  0
  8  7  2  0
 11 10  1  1
 11 13  1  0
 12 11  1  0
 13 14  2  0
 13 19  1  0
 16 15  1  6
 17 16  1  0
 18 20  1  0
 18 16  1  0
 18 19  1  6
 20 22  1  0
 21 20  2  0
M  END
$$$$
