EAT.pdb
     RDKit          3D

 22 21  0  0  1  0  0  0  0  0999 V2000
    7.8386  -17.7484   20.6739 N   0  0  0  0  0  0  0  0  0  0  0  0
    8.3831  -18.5251   21.7629 C   0  0  1  0  0  0  0  0  0  0  0  0
    9.8589  -18.7187   21.5038 C   0  0  0  0  0  0  0  0  0  0  0  0
   10.5811  -17.3992   21.3625 C   0  0  0  0  0  0  0  0  0  0  0  0
   11.9908  -17.5370   20.9723 C   0  0  0  0  0  0  0  0  0  0  0  0
   12.5312  -18.6650   20.7949 O   0  0  0  0  0  0  0  0  0  0  0  0
    8.1310  -17.8926   23.0764 C   0  0  0  0  0  0  0  0  0  0  0  0
    8.0550  -16.6480   23.1908 O   0  0  0  0  0  0  0  0  0  0  0  0
   12.7917  -16.4105   20.7823 O   0  0  0  0  0  0  0  0  0  0  0  0
    7.3382  -19.3877   26.4235 C   0  0  0  0  0  0  0  0  0  0  0  0
    7.6050  -18.1891   25.5206 C   0  0  2  0  0  0  0  0  0  0  0  0
    7.9721  -18.7063   24.2297 N   0  0  0  0  0  0  0  0  0  0  0  0
    8.6789  -17.3607   26.1219 C   0  0  0  0  0  0  0  0  0  0  0  0
    9.8640  -17.5276   25.7445 O   0  0  0  0  0  0  0  0  0  0  0  0
    9.7939  -13.1770   28.5323 C   0  0  0  0  0  0  0  0  0  0  0  0
    8.8329  -14.1796   27.9843 C   0  0  1  0  0  0  0  0  0  0  0  0
    8.1758  -13.6079   26.8958 O   0  0  0  0  0  0  0  0  0  0  0  0
    9.4587  -15.4947   27.6259 C   0  0  2  0  0  0  0  0  0  0  0  0
    8.4305  -16.3762   27.1155 N   0  0  0  0  0  0  0  0  0  0  0  0
   10.1784  -16.1431   28.7073 C   0  0  0  0  0  0  0  0  0  0  0  0
   11.2720  -15.6597   29.0944 O   0  0  0  0  0  0  0  0  0  0  0  0
    9.7509  -17.2890   29.3743 O   0  0  0  0  0  0  0  0  0  0  0  0
  2  7  1  0
  2  1  1  6
  3  2  1  0
  4  5  1  0
  4  3  1  0
  5  9  1  0
  6  5  2  0
  7 12  1  0
  8  7  2  0
 11 10  1  1
 11 13  1  0
 12 11  1  0
 13 14  2  0
 13 19  1  0
 16 15  1  6
 17 16  1  0
 18 20  1  0
 18 16  1  0
 18 19  1  1
 20 22  1  0
 21 20  2  0
M  END
$$$$
