YYA.pdb
     RDKit          3D

 30 31  0  0  1  0  0  0  0  0999 V2000
   12.5482  -20.6640   15.9538 O   0  0  0  0  0  0  0  0  0  0  0  0
   12.1928  -19.6865   16.8707 C   0  0  0  0  0  0  0  0  0  0  0  0
   13.0382  -19.3946   17.9049 C   0  0  0  0  0  0  0  0  0  0  0  0
   12.7103  -18.4316   18.8260 C   0  0  0  0  0  0  0  0  0  0  0  0
   11.5195  -17.7123   18.7576 C   0  0  0  0  0  0  0  0  0  0  0  0
   11.1748  -16.6855   19.7629 C   0  0  0  0  0  0  0  0  0  0  0  0
   10.9697  -17.2262   21.1363 C   0  0  2  0  0  0  0  0  0  0  0  0
    9.9775  -18.2842   21.1712 N   0  0  0  0  0  0  0  0  0  0  0  0
   10.5892  -16.2010   22.1368 C   0  0  0  0  0  0  0  0  0  0  0  0
   11.3585  -15.1867   22.2776 O   0  0  0  0  0  0  0  0  0  0  0  0
   10.6944  -18.0381   17.6980 C   0  0  0  0  0  0  0  0  0  0  0  0
   11.0195  -19.0045   16.7706 C   0  0  0  0  0  0  0  0  0  0  0  0
    5.7391  -10.9516   27.1960 O   0  0  0  0  0  0  0  0  0  0  0  0
    6.1878  -11.9707   26.3876 C   0  0  0  0  0  0  0  0  0  0  0  0
    5.8491  -13.2763   26.6680 C   0  0  0  0  0  0  0  0  0  0  0  0
    6.3202  -14.2767   25.8305 C   0  0  0  0  0  0  0  0  0  0  0  0
    7.1101  -14.0026   24.7361 C   0  0  0  0  0  0  0  0  0  0  0  0
    7.5665  -15.0907   23.9026 C   0  0  0  0  0  0  0  0  0  0  0  0
    9.0413  -15.3614   23.9126 C   0  0  2  0  0  0  0  0  0  0  0  0
    9.4121  -16.3438   22.9090 N   0  0  0  0  0  0  0  0  0  0  0  0
    9.5800  -15.7413   25.2420 C   0  0  0  0  0  0  0  0  0  0  0  0
    9.9352  -16.9346   25.4083 O   0  0  0  0  0  0  0  0  0  0  0  0
    7.4411  -12.6743   24.4704 C   0  0  0  0  0  0  0  0  0  0  0  0
    6.9873  -11.6765   25.2828 C   0  0  0  0  0  0  0  0  0  0  0  0
   10.3836  -13.8014   28.3139 C   0  0  0  0  0  0  0  0  0  0  0  0
   10.5386  -15.0954   27.4812 C   0  0  2  0  0  0  0  0  0  0  0  0
    9.7071  -14.8340   26.2969 N   0  0  0  0  0  0  0  0  0  0  0  0
    9.9498  -16.1563   28.2986 C   0  0  0  0  0  0  0  0  0  0  0  0
   10.5260  -16.6021   29.3209 O   0  0  0  0  0  0  0  0  0  0  0  0
    8.7258  -16.7031   27.9627 O   0  0  0  0  0  0  0  0  0  0  0  0
  2 12  2  0
  2  1  1  0
  3  2  1  0
  4  5  1  0
  4  3  2  0
  5 11  2  0
  6  7  1  0
  6  5  1  0
  7  8  1  6
  9  7  1  0
  9 20  1  0
 10  9  2  0
 11 12  1  0
 14 13  1  0
 15 14  2  0
 16 15  1  0
 17 23  1  0
 17 16  2  0
 18 17  1  0
 19 21  1  0
 19 20  1  0
 19 18  1  1
 21 22  2  0
 23 24  2  0
 24 14  1  0
 26 25  1  1
 26 28  1  0
 27 26  1  0
 27 21  1  0
 28 29  2  0
 28 30  1  0
M  END
$$$$
