YYA.pdb
     RDKit          3D

 30 31  0  0  1  0  0  0  0  0999 V2000
    9.8946  -18.9897    8.9791 O   0  0  0  0  0  0  0  0  0  0  0  0
   10.8680  -19.2760    9.9242 C   0  0  0  0  0  0  0  0  0  0  0  0
   10.7766  -20.4266   10.6572 C   0  0  0  0  0  0  0  0  0  0  0  0
   11.7266  -20.7336   11.5987 C   0  0  0  0  0  0  0  0  0  0  0  0
   12.8160  -19.9038   11.8536 C   0  0  0  0  0  0  0  0  0  0  0  0
   13.8255  -20.2420   12.8783 C   0  0  0  0  0  0  0  0  0  0  0  0
   15.1965  -20.4513   12.3331 C   0  0  2  0  0  0  0  0  0  0  0  0
   15.2700  -21.5984   11.4478 N   0  0  0  0  0  0  0  0  0  0  0  0
   16.2420  -20.6008   13.3729 C   0  0  0  0  0  0  0  0  0  0  0  0
   16.4702  -21.7758   13.8285 O   0  0  0  0  0  0  0  0  0  0  0  0
   12.8703  -18.7521   11.0916 C   0  0  0  0  0  0  0  0  0  0  0  0
   11.9186  -18.4397   10.1450 C   0  0  0  0  0  0  0  0  0  0  0  0
   21.8560  -22.5494   10.6126 O   0  0  0  0  0  0  0  0  0  0  0  0
   21.2385  -21.7142   11.5153 C   0  0  0  0  0  0  0  0  0  0  0  0
   21.4404  -21.8862   12.8672 C   0  0  0  0  0  0  0  0  0  0  0  0
   20.8011  -21.0250   13.7467 C   0  0  0  0  0  0  0  0  0  0  0  0
   19.9773  -20.0117   13.3090 C   0  0  0  0  0  0  0  0  0  0  0  0
   19.3425  -19.1479   14.2774 C   0  0  0  0  0  0  0  0  0  0  0  0
   18.0261  -19.6156   14.8223 C   0  0  2  0  0  0  0  0  0  0  0  0
   16.9619  -19.4771   13.8434 N   0  0  0  0  0  0  0  0  0  0  0  0
   17.6414  -18.9821   16.1078 C   0  0  0  0  0  0  0  0  0  0  0  0
   17.1063  -17.8467   16.0616 O   0  0  0  0  0  0  0  0  0  0  0  0
   19.7866  -19.8552   11.9366 C   0  0  0  0  0  0  0  0  0  0  0  0
   20.4070  -20.6926   11.0559 C   0  0  0  0  0  0  0  0  0  0  0  0
   16.6108  -19.9846   19.3248 C   0  0  0  0  0  0  0  0  0  0  0  0
   17.5167  -18.9450   18.6244 C   0  0  2  0  0  0  0  0  0  0  0  0
   17.8469  -19.5941   17.3470 N   0  0  0  0  0  0  0  0  0  0  0  0
   18.7069  -18.8356   19.4681 C   0  0  0  0  0  0  0  0  0  0  0  0
   19.3154  -17.7478   19.6175 O   0  0  0  0  0  0  0  0  0  0  0  0
   19.1993  -19.9424   20.1333 O   0  0  0  0  0  0  0  0  0  0  0  0
  2 12  2  0
  2  1  1  0
  3  2  1  0
  4  5  1  0
  4  3  2  0
  5 11  2  0
  6  7  1  0
  6  5  1  0
  7  8  1  1
  9  7  1  0
  9 20  1  0
 10  9  2  0
 11 12  1  0
 14 13  1  0
 15 14  2  0
 16 15  1  0
 17 23  1  0
 17 16  2  0
 18 17  1  0
 19 21  1  0
 19 20  1  0
 19 18  1  6
 21 22  2  0
 23 24  2  0
 24 14  1  0
 26 25  1  1
 26 28  1  0
 27 26  1  0
 27 21  1  0
 28 29  2  0
 28 30  1  0
M  END
$$$$
