YYA.pdb
     RDKit          3D

 30 31  0  0  1  0  0  0  0  0999 V2000
    7.6834  -13.4127   15.3457 O   0  0  0  0  0  0  0  0  0  0  0  0
    8.1383  -14.2428   16.3589 C   0  0  0  0  0  0  0  0  0  0  0  0
    7.3581  -14.4470   17.4630 C   0  0  0  0  0  0  0  0  0  0  0  0
    7.7848  -15.2637   18.4799 C   0  0  0  0  0  0  0  0  0  0  0  0
    9.0144  -15.9172   18.4423 C   0  0  0  0  0  0  0  0  0  0  0  0
    9.4654  -16.7853   19.5498 C   0  0  0  0  0  0  0  0  0  0  0  0
    8.4360  -17.0074   20.6041 C   0  0  2  0  0  0  0  0  0  0  0  0
    7.0876  -17.0079   20.0685 N   0  0  0  0  0  0  0  0  0  0  0  0
    8.4924  -16.0296   21.7166 C   0  0  0  0  0  0  0  0  0  0  0  0
    8.2548  -14.8004   21.4464 O   0  0  0  0  0  0  0  0  0  0  0  0
    9.7712  -15.6838   17.3097 C   0  0  0  0  0  0  0  0  0  0  0  0
    9.3467  -14.8644   16.2861 C   0  0  0  0  0  0  0  0  0  0  0  0
    6.5783  -10.7530   27.7595 O   0  0  0  0  0  0  0  0  0  0  0  0
    6.8302  -11.9119   27.0617 C   0  0  0  0  0  0  0  0  0  0  0  0
    6.4365  -12.0270   25.7465 C   0  0  0  0  0  0  0  0  0  0  0  0
    6.7078  -13.2103   25.0755 C   0  0  0  0  0  0  0  0  0  0  0  0
    7.3542  -14.2638   25.6830 C   0  0  0  0  0  0  0  0  0  0  0  0
    7.6081  -15.4687   24.9274 C   0  0  0  0  0  0  0  0  0  0  0  0
    8.8773  -15.4972   24.1296 C   0  0  2  0  0  0  0  0  0  0  0  0
    8.7994  -16.4469   23.0333 N   0  0  0  0  0  0  0  0  0  0  0  0
   10.0985  -15.7307   24.9394 C   0  0  0  0  0  0  0  0  0  0  0  0
   11.0460  -14.9156   24.8147 O   0  0  0  0  0  0  0  0  0  0  0  0
    7.7441  -14.1265   27.0148 C   0  0  0  0  0  0  0  0  0  0  0  0
    7.4860  -12.9701   27.6914 C   0  0  0  0  0  0  0  0  0  0  0  0
   11.6484  -15.3423   27.0226 C   0  0  0  0  0  0  0  0  0  0  0  0
   11.2013  -16.8197   26.9265 C   0  0  2  0  0  0  0  0  0  0  0  0
   10.2292  -16.8051   25.8232 N   0  0  0  0  0  0  0  0  0  0  0  0
   10.5335  -17.1070   28.1961 C   0  0  0  0  0  0  0  0  0  0  0  0
   10.1569  -16.1920   28.9686 O   0  0  0  0  0  0  0  0  0  0  0  0
   10.2953  -18.4120   28.5837 O   0  0  0  0  0  0  0  0  0  0  0  0
  2 12  2  0
  2  1  1  0
  3  2  1  0
  4  5  1  0
  4  3  2  0
  5 11  2  0
  6  7  1  0
  6  5  1  0
  7  8  1  6
  9  7  1  0
  9 20  1  0
 10  9  2  0
 11 12  1  0
 14 13  1  0
 15 14  2  0
 16 15  1  0
 17 23  1  0
 17 16  2  0
 18 17  1  0
 19 21  1  0
 19 20  1  0
 19 18  1  1
 21 22  2  0
 23 24  2  0
 24 14  1  0
 26 25  1  1
 26 28  1  0
 27 26  1  0
 27 21  1  0
 28 29  2  0
 28 30  1  0
M  END
$$$$
