YYA.pdb
     RDKit          3D

 30 31  0  0  1  0  0  0  0  0999 V2000
    8.8849  -11.9725   19.6500 O   0  0  0  0  0  0  0  0  0  0  0  0
    8.1794  -13.1289   19.9462 C   0  0  0  0  0  0  0  0  0  0  0  0
    8.4988  -14.2945   19.3069 C   0  0  0  0  0  0  0  0  0  0  0  0
    7.8162  -15.4529   19.5818 C   0  0  0  0  0  0  0  0  0  0  0  0
    6.7794  -15.5023   20.5107 C   0  0  0  0  0  0  0  0  0  0  0  0
    6.0460  -16.7547   20.7885 C   0  0  0  0  0  0  0  0  0  0  0  0
    6.7595  -17.6836   21.7097 C   0  0  2  0  0  0  0  0  0  0  0  0
    6.0791  -18.9579   21.8457 N   0  0  0  0  0  0  0  0  0  0  0  0
    6.9845  -17.1314   23.0667 C   0  0  0  0  0  0  0  0  0  0  0  0
    6.0001  -17.1352   23.8859 O   0  0  0  0  0  0  0  0  0  0  0  0
    6.4889  -14.3033   21.1335 C   0  0  0  0  0  0  0  0  0  0  0  0
    7.1717  -13.1376   20.8608 C   0  0  0  0  0  0  0  0  0  0  0  0
   10.8985  -14.8244   30.5517 O   0  0  0  0  0  0  0  0  0  0  0  0
   10.6361  -15.2076   29.2564 C   0  0  0  0  0  0  0  0  0  0  0  0
   10.8180  -14.3170   28.2211 C   0  0  0  0  0  0  0  0  0  0  0  0
   10.5430  -14.7393   26.9288 C   0  0  0  0  0  0  0  0  0  0  0  0
   10.0973  -16.0133   26.6550 C   0  0  0  0  0  0  0  0  0  0  0  0
    9.8308  -16.3908   25.2862 C   0  0  0  0  0  0  0  0  0  0  0  0
    8.4743  -16.0393   24.7525 C   0  0  2  0  0  0  0  0  0  0  0  0
    8.2493  -16.6178   23.4393 N   0  0  0  0  0  0  0  0  0  0  0  0
    8.1847  -14.5840   24.7408 C   0  0  0  0  0  0  0  0  0  0  0  0
    8.8798  -13.8569   23.9885 O   0  0  0  0  0  0  0  0  0  0  0  0
    9.9199  -16.8988   27.7175 C   0  0  0  0  0  0  0  0  0  0  0  0
   10.1850  -16.5017   28.9956 C   0  0  0  0  0  0  0  0  0  0  0  0
    5.5766  -12.4419   26.2810 C   0  0  0  0  0  0  0  0  0  0  0  0
    6.9466  -12.5528   25.5722 C   0  0  2  0  0  0  0  0  0  0  0  0
    7.1816  -14.0034   25.5211 N   0  0  0  0  0  0  0  0  0  0  0  0
    7.9032  -11.9085   26.4724 C   0  0  0  0  0  0  0  0  0  0  0  0
    8.6409  -12.5727   27.2408 O   0  0  0  0  0  0  0  0  0  0  0  0
    8.0224  -10.5319   26.5004 O   0  0  0  0  0  0  0  0  0  0  0  0
  2 12  2  0
  2  1  1  0
  3  2  1  0
  4  5  1  0
  4  3  2  0
  5 11  2  0
  6  7  1  0
  6  5  1  0
  7  8  1  1
  9  7  1  0
  9 20  1  0
 10  9  2  0
 11 12  1  0
 14 13  1  0
 15 14  2  0
 16 15  1  0
 17 23  1  0
 17 16  2  0
 18 17  1  0
 19 21  1  0
 19 20  1  0
 19 18  1  6
 21 22  2  0
 23 24  2  0
 24 14  1  0
 26 25  1  1
 26 28  1  0
 27 26  1  0
 27 21  1  0
 28 29  2  0
 28 30  1  0
M  END
$$$$
