YYA.pdb
     RDKit          3D

 30 31  0  0  1  0  0  0  0  0999 V2000
    6.9639  -14.3240   15.0942 O   0  0  0  0  0  0  0  0  0  0  0  0
    7.8024  -14.4889   16.1862 C   0  0  0  0  0  0  0  0  0  0  0  0
    7.7490  -13.5923   17.2171 C   0  0  0  0  0  0  0  0  0  0  0  0
    8.5679  -13.7327   18.3094 C   0  0  0  0  0  0  0  0  0  0  0  0
    9.4813  -14.7780   18.4242 C   0  0  0  0  0  0  0  0  0  0  0  0
   10.3645  -14.9103   19.6016 C   0  0  0  0  0  0  0  0  0  0  0  0
    9.9407  -15.9682   20.5618 C   0  0  2  0  0  0  0  0  0  0  0  0
    8.6821  -16.5841   20.1852 N   0  0  0  0  0  0  0  0  0  0  0  0
    9.8260  -15.4990   21.9630 C   0  0  0  0  0  0  0  0  0  0  0  0
   10.8646  -14.9871   22.5103 O   0  0  0  0  0  0  0  0  0  0  0  0
    9.5031  -15.6609   17.3613 C   0  0  0  0  0  0  0  0  0  0  0  0
    8.6826  -15.5239   16.2624 C   0  0  0  0  0  0  0  0  0  0  0  0
    6.5906  -11.2525   28.7924 O   0  0  0  0  0  0  0  0  0  0  0  0
    6.7341  -11.9932   27.6416 C   0  0  0  0  0  0  0  0  0  0  0  0
    7.7087  -11.6652   26.7248 C   0  0  0  0  0  0  0  0  0  0  0  0
    7.8232  -12.4349   25.5766 C   0  0  0  0  0  0  0  0  0  0  0  0
    6.9963  -13.5085   25.3304 C   0  0  0  0  0  0  0  0  0  0  0  0
    7.1692  -14.2707   24.1154 C   0  0  0  0  0  0  0  0  0  0  0  0
    8.4425  -15.0539   23.9982 C   0  0  2  0  0  0  0  0  0  0  0  0
    8.6051  -15.6157   22.6686 N   0  0  0  0  0  0  0  0  0  0  0  0
    8.6076  -16.1031   25.0343 C   0  0  0  0  0  0  0  0  0  0  0  0
    8.3724  -15.7873   26.2271 O   0  0  0  0  0  0  0  0  0  0  0  0
    6.0166  -13.8232   26.2714 C   0  0  0  0  0  0  0  0  0  0  0  0
    5.8886  -13.0777   27.4069 C   0  0  0  0  0  0  0  0  0  0  0  0
    9.4152  -19.7277   24.9517 C   0  0  0  0  0  0  0  0  0  0  0  0
    9.2588  -18.4240   25.7689 C   0  0  2  0  0  0  0  0  0  0  0  0
    9.0056  -17.4087   24.7357 N   0  0  0  0  0  0  0  0  0  0  0  0
   10.5601  -18.2022   26.3996 C   0  0  0  0  0  0  0  0  0  0  0  0
   11.3204  -17.2703   26.0401 O   0  0  0  0  0  0  0  0  0  0  0  0
   10.9926  -19.0239   27.4231 O   0  0  0  0  0  0  0  0  0  0  0  0
  2 12  2  0
  2  1  1  0
  3  2  1  0
  4  5  1  0
  4  3  2  0
  5 11  2  0
  6  7  1  0
  6  5  1  0
  7  8  1  6
  9  7  1  0
  9 20  1  0
 10  9  2  0
 11 12  1  0
 14 13  1  0
 15 14  2  0
 16 15  1  0
 17 23  1  0
 17 16  2  0
 18 17  1  0
 19 21  1  0
 19 20  1  0
 19 18  1  6
 21 22  2  0
 23 24  2  0
 24 14  1  0
 26 25  1  6
 26 28  1  0
 27 26  1  0
 27 21  1  0
 28 29  2  0
 28 30  1  0
M  END
$$$$
