YYA.pdb
     RDKit          3D

 30 31  0  0  1  0  0  0  0  0999 V2000
    3.1340  -24.4911   24.5832 O   0  0  0  0  0  0  0  0  0  0  0  0
    3.8344  -23.4016   24.0880 C   0  0  0  0  0  0  0  0  0  0  0  0
    5.1290  -23.1997   24.4787 C   0  0  0  0  0  0  0  0  0  0  0  0
    5.8443  -22.1293   24.0034 C   0  0  0  0  0  0  0  0  0  0  0  0
    5.2992  -21.2072   23.1130 C   0  0  0  0  0  0  0  0  0  0  0  0
    6.0782  -20.0532   22.6180 C   0  0  0  0  0  0  0  0  0  0  0  0
    6.9410  -19.4155   23.6521 C   0  0  2  0  0  0  0  0  0  0  0  0
    6.1998  -19.0598   24.8476 N   0  0  0  0  0  0  0  0  0  0  0  0
    7.6601  -18.2098   23.1767 C   0  0  0  0  0  0  0  0  0  0  0  0
    8.4772  -18.3457   22.1999 O   0  0  0  0  0  0  0  0  0  0  0  0
    3.9893  -21.4480   22.7441 C   0  0  0  0  0  0  0  0  0  0  0  0
    3.2671  -22.5215   23.2187 C   0  0  0  0  0  0  0  0  0  0  0  0
    6.2560  -11.6792   27.8803 O   0  0  0  0  0  0  0  0  0  0  0  0
    6.4861  -12.3977   26.7296 C   0  0  0  0  0  0  0  0  0  0  0  0
    5.8842  -13.6234   26.5473 C   0  0  0  0  0  0  0  0  0  0  0  0
    6.1400  -14.3185   25.3745 C   0  0  0  0  0  0  0  0  0  0  0  0
    6.9720  -13.8210   24.3962 C   0  0  0  0  0  0  0  0  0  0  0  0
    7.1954  -14.5947   23.1967 C   0  0  0  0  0  0  0  0  0  0  0  0
    8.1328  -15.7583   23.3221 C   0  0  2  0  0  0  0  0  0  0  0  0
    7.4463  -16.9511   23.7868 N   0  0  0  0  0  0  0  0  0  0  0  0
    9.3312  -15.4858   24.1534 C   0  0  0  0  0  0  0  0  0  0  0  0
   10.2908  -14.8814   23.6134 O   0  0  0  0  0  0  0  0  0  0  0  0
    7.5711  -12.5786   24.6008 C   0  0  0  0  0  0  0  0  0  0  0  0
    7.3316  -11.8799   25.7480 C   0  0  0  0  0  0  0  0  0  0  0  0
   10.1241  -14.7599   27.4634 C   0  0  0  0  0  0  0  0  0  0  0  0
   10.6351  -15.6466   26.3038 C   0  0  2  0  0  0  0  0  0  0  0  0
    9.4281  -15.8682   25.4938 N   0  0  0  0  0  0  0  0  0  0  0  0
   11.0695  -16.8947   26.9313 C   0  0  0  0  0  0  0  0  0  0  0  0
   12.0792  -16.9459   27.6753 O   0  0  0  0  0  0  0  0  0  0  0  0
   10.3691  -18.0671   26.7194 O   0  0  0  0  0  0  0  0  0  0  0  0
  2 12  2  0
  2  1  1  0
  3  2  1  0
  4  5  1  0
  4  3  2  0
  5 11  2  0
  6  7  1  0
  6  5  1  0
  7  8  1  1
  9  7  1  0
  9 20  1  0
 10  9  2  0
 11 12  1  0
 14 13  1  0
 15 14  2  0
 16 15  1  0
 17 23  1  0
 17 16  2  0
 18 17  1  0
 19 21  1  0
 19 20  1  0
 19 18  1  1
 21 22  2  0
 23 24  2  0
 24 14  1  0
 26 25  1  1
 26 28  1  0
 27 26  1  0
 27 21  1  0
 28 29  2  0
 28 30  1  0
M  END
$$$$
