YYA.pdb
     RDKit          3D

 30 31  0  0  1  0  0  0  0  0999 V2000
    9.5388  -26.6911   17.4459 O   0  0  0  0  0  0  0  0  0  0  0  0
    9.7918  -25.3358   17.2989 C   0  0  0  0  0  0  0  0  0  0  0  0
    9.3482  -24.4611   18.2516 C   0  0  0  0  0  0  0  0  0  0  0  0
    9.5853  -23.1149   18.1301 C   0  0  0  0  0  0  0  0  0  0  0  0
   10.2786  -22.5768   17.0484 C   0  0  0  0  0  0  0  0  0  0  0  0
   10.5170  -21.1236   16.9254 C   0  0  0  0  0  0  0  0  0  0  0  0
    9.2862  -20.3277   16.6572 C   0  0  2  0  0  0  0  0  0  0  0  0
    8.8371  -20.4504   15.2831 N   0  0  0  0  0  0  0  0  0  0  0  0
    9.4202  -18.8859   16.9739 C   0  0  0  0  0  0  0  0  0  0  0  0
    9.9240  -18.1204   16.0793 O   0  0  0  0  0  0  0  0  0  0  0  0
   10.7089  -23.4946   16.1091 C   0  0  0  0  0  0  0  0  0  0  0  0
   10.4732  -24.8474   16.2269 C   0  0  0  0  0  0  0  0  0  0  0  0
    8.3610  -11.0545   20.8340 O   0  0  0  0  0  0  0  0  0  0  0  0
    8.2774  -12.3777   20.4655 C   0  0  0  0  0  0  0  0  0  0  0  0
    8.0062  -12.7158   19.1578 C   0  0  0  0  0  0  0  0  0  0  0  0
    7.9296  -14.0600   18.8240 C   0  0  0  0  0  0  0  0  0  0  0  0
    8.1159  -15.0567   19.7561 C   0  0  0  0  0  0  0  0  0  0  0  0
    8.0246  -16.4380   19.3427 C   0  0  0  0  0  0  0  0  0  0  0  0
    9.1950  -16.9813   18.5789 C   0  0  2  0  0  0  0  0  0  0  0  0
    9.0029  -18.3774   18.2267 N   0  0  0  0  0  0  0  0  0  0  0  0
   10.5029  -16.7858   19.2519 C   0  0  0  0  0  0  0  0  0  0  0  0
   10.7981  -17.5658   20.1911 O   0  0  0  0  0  0  0  0  0  0  0  0
    8.3894  -14.6926   21.0740 C   0  0  0  0  0  0  0  0  0  0  0  0
    8.4686  -13.3755   21.4216 C   0  0  0  0  0  0  0  0  0  0  0  0
   13.2003  -14.2472   18.9487 C   0  0  0  0  0  0  0  0  0  0  0  0
   12.6824  -15.5629   19.5751 C   0  0  2  0  0  0  0  0  0  0  0  0
   11.4041  -15.7839   18.8828 N   0  0  0  0  0  0  0  0  0  0  0  0
   12.4557  -15.2578   20.9879 C   0  0  0  0  0  0  0  0  0  0  0  0
   11.3050  -15.0496   21.4444 O   0  0  0  0  0  0  0  0  0  0  0  0
   13.5173  -15.1908   21.8701 O   0  0  0  0  0  0  0  0  0  0  0  0
  2 12  2  0
  2  1  1  0
  3  2  1  0
  4  5  1  0
  4  3  2  0
  5 11  2  0
  6  7  1  0
  6  5  1  0
  7  8  1  6
  9  7  1  0
  9 20  1  0
 10  9  2  0
 11 12  1  0
 14 13  1  0
 15 14  2  0
 16 15  1  0
 17 23  1  0
 17 16  2  0
 18 17  1  0
 19 21  1  0
 19 20  1  0
 19 18  1  1
 21 22  2  0
 23 24  2  0
 24 14  1  0
 26 25  1  6
 26 28  1  0
 27 26  1  0
 27 21  1  0
 28 29  2  0
 28 30  1  0
M  END
$$$$
