YYA.pdb
     RDKit          3D

 30 31  0  0  1  0  0  0  0  0999 V2000
   15.5796  -17.8434   11.3311 O   0  0  0  0  0  0  0  0  0  0  0  0
   15.3022  -17.4380   12.6278 C   0  0  0  0  0  0  0  0  0  0  0  0
   16.0269  -16.4210   13.1846 C   0  0  0  0  0  0  0  0  0  0  0  0
   15.7724  -16.0007   14.4659 C   0  0  0  0  0  0  0  0  0  0  0  0
   14.7794  -16.5775   15.2541 C   0  0  0  0  0  0  0  0  0  0  0  0
   14.5238  -16.1216   16.6363 C   0  0  0  0  0  0  0  0  0  0  0  0
   13.3064  -15.2743   16.7801 C   0  0  2  0  0  0  0  0  0  0  0  0
   13.4235  -14.0139   16.0712 N   0  0  0  0  0  0  0  0  0  0  0  0
   12.9379  -14.9828   18.1859 C   0  0  0  0  0  0  0  0  0  0  0  0
   13.4088  -13.9185   18.7203 O   0  0  0  0  0  0  0  0  0  0  0  0
   14.0710  -17.6011   14.6537 C   0  0  0  0  0  0  0  0  0  0  0  0
   14.3231  -18.0265   13.3673 C   0  0  0  0  0  0  0  0  0  0  0  0
    7.1820  -12.2828   17.0810 O   0  0  0  0  0  0  0  0  0  0  0  0
    7.9200  -13.1055   17.9009 C   0  0  0  0  0  0  0  0  0  0  0  0
    7.9585  -14.4624   17.6657 C   0  0  0  0  0  0  0  0  0  0  0  0
    8.7132  -15.2598   18.5135 C   0  0  0  0  0  0  0  0  0  0  0  0
    9.4186  -14.7365   19.5743 C   0  0  0  0  0  0  0  0  0  0  0  0
   10.1868  -15.6219   20.4187 C   0  0  0  0  0  0  0  0  0  0  0  0
   11.6773  -15.5556   20.2684 C   0  0  2  0  0  0  0  0  0  0  0  0
   12.0922  -15.8566   18.9093 N   0  0  0  0  0  0  0  0  0  0  0  0
   12.4235  -16.3911   21.2415 C   0  0  0  0  0  0  0  0  0  0  0  0
   12.2911  -17.6376   21.1623 O   0  0  0  0  0  0  0  0  0  0  0  0
    9.3659  -13.3606   19.7944 C   0  0  0  0  0  0  0  0  0  0  0  0
    8.6290  -12.5599   18.9713 C   0  0  0  0  0  0  0  0  0  0  0  0
   15.1350  -15.6882   23.6517 C   0  0  0  0  0  0  0  0  0  0  0  0
   14.0674  -16.6780   23.1297 C   0  0  2  0  0  0  0  0  0  0  0  0
   13.2565  -15.8504   22.2243 N   0  0  0  0  0  0  0  0  0  0  0  0
   13.2893  -17.0664   24.3062 C   0  0  0  0  0  0  0  0  0  0  0  0
   13.7555  -17.8308   25.1861 O   0  0  0  0  0  0  0  0  0  0  0  0
   12.0025  -16.5945   24.4832 O   0  0  0  0  0  0  0  0  0  0  0  0
  2 12  2  0
  2  1  1  0
  3  2  1  0
  4  5  1  0
  4  3  2  0
  5 11  2  0
  6  7  1  0
  6  5  1  0
  7  8  1  6
  9  7  1  0
  9 20  1  0
 10  9  2  0
 11 12  1  0
 14 13  1  0
 15 14  2  0
 16 15  1  0
 17 23  1  0
 17 16  2  0
 18 17  1  0
 19 21  1  0
 19 20  1  0
 19 18  1  6
 21 22  2  0
 23 24  2  0
 24 14  1  0
 26 25  1  1
 26 28  1  0
 27 26  1  0
 27 21  1  0
 28 29  2  0
 28 30  1  0
M  END
$$$$
