RKL.pdb
     RDKit          3D

 29 28  0  0  1  0  0  0  0  0999 V2000
   25.8859  -23.7559  -14.8002 N   0  0  0  0  0  0  0  0  0  0  0  0
   26.8051  -24.3971  -15.7137 C   0  0  0  0  0  0  0  0  0  0  0  0
   26.6559  -25.6431  -16.0087 N   0  0  0  0  0  0  0  0  0  0  0  0
   27.8707  -23.6734  -16.2919 N   0  0  0  0  0  0  0  0  0  0  0  0
   28.0941  -22.2478  -15.9850 C   0  0  0  0  0  0  0  0  0  0  0  0
   27.2345  -21.3816  -16.8626 C   0  0  0  0  0  0  0  0  0  0  0  0
   27.4271  -19.9514  -16.6211 C   0  0  0  0  0  0  0  0  0  0  0  0
   26.8224  -18.9507  -17.5311 C   0  0  2  0  0  0  0  0  0  0  0  0
   26.4422  -19.3134  -18.8200 N   0  0  0  0  0  0  0  0  0  0  0  0
   27.6255  -17.7213  -17.5026 C   0  0  0  0  0  0  0  0  0  0  0  0
   27.9395  -17.2321  -16.3921 O   0  0  0  0  0  0  0  0  0  0  0  0
   27.3387  -26.1584  -16.5836 N   0  0  0  0  0  0  0  0  0  0  0  0
   28.0434  -17.0888  -18.6840 C   0  0  1  0  0  0  0  0  0  0  0  0
   28.7274  -15.8025  -18.6475 C   0  0  0  0  0  0  0  0  0  0  0  0
   29.9094  -15.8761  -19.5600 C   0  0  0  0  0  0  0  0  0  0  0  0
   31.0601  -16.6805  -19.0080 C   0  0  0  0  0  0  0  0  0  0  0  0
   32.1559  -16.6393  -20.0835 C   0  0  0  0  0  0  0  0  0  0  0  0
   33.2701  -17.5687  -19.6095 N   0  0  0  0  0  0  0  0  0  0  0  0
   34.3549  -17.4201  -20.5836 C   0  0  0  0  0  0  0  0  0  0  0  0
   27.7799  -14.7219  -19.0080 O   0  0  0  0  0  0  0  0  0  0  0  0
   28.1156  -13.5139  -19.0326 C   0  0  0  0  0  0  0  0  0  0  0  0
   24.5303  -12.2683  -22.6632 C   0  0  2  0  0  0  0  0  0  0  0  0
   23.9698  -13.0173  -21.4317 C   0  0  0  0  0  0  0  0  0  0  0  0
   22.6814  -13.6224  -21.8664 C   0  0  0  0  0  0  0  0  0  0  0  0
   25.0451  -13.9396  -21.0110 C   0  0  1  0  0  0  0  0  0  0  0  0
   25.4199  -13.9856  -19.5785 N   0  0  0  0  0  0  0  0  0  0  0  0
   26.4141  -15.0056  -19.3515 C   0  0  0  0  0  0  0  0  0  0  0  0
   24.2950  -14.0304  -18.6493 O   0  0  0  0  0  0  0  0  0  0  0  0
   23.9220  -15.1075  -18.1350 O   0  0  0  0  0  0  0  0  0  0  0  0
  2  3  2  0
  2  1  1  0
  4  2  1  0
  5  4  1  0
  6  7  1  0
  6  5  1  0
  8 10  1  0
  8  7  1  0
  8  9  1  6
 10 12  1  0
 11 10  2  0
 12 13  1  0
 13 19  1  0
 13 14  1  1
 15 14  1  0
 16 17  1  0
 16 15  1  0
 18 17  1  0
 19 20  2  0
 19 26  1  0
 22 21  1  1
 22 23  1  0
 24 22  1  0
 25 27  1  0
 25 24  1  6
 26 25  1  0
 27 29  1  0
 28 27  2  0
M  END
$$$$
