RKL.pdb
     RDKit          3D

 29 28  0  0  1  0  0  0  0  0999 V2000
   19.6608  -22.8970   -6.7127 N   0  0  0  0  0  0  0  0  0  0  0  0
   19.5974  -22.9274   -8.1569 C   0  0  0  0  0  0  0  0  0  0  0  0
   18.5792  -23.4546   -8.7460 N   0  0  0  0  0  0  0  0  0  0  0  0
   20.6413  -22.3837   -8.9367 N   0  0  0  0  0  0  0  0  0  0  0  0
   21.7195  -21.5782   -8.3326 C   0  0  0  0  0  0  0  0  0  0  0  0
   22.6037  -20.9997   -9.4016 C   0  0  0  0  0  0  0  0  0  0  0  0
   23.8369  -21.7619   -9.5999 C   0  0  0  0  0  0  0  0  0  0  0  0
   25.1323  -21.0609   -9.7603 C   0  0  2  0  0  0  0  0  0  0  0  0
   25.5464  -20.1265   -8.8155 N   0  0  0  0  0  0  0  0  0  0  0  0
   25.2468  -20.5626  -11.1372 C   0  0  0  0  0  0  0  0  0  0  0  0
   24.9053  -19.3815  -11.3812 O   0  0  0  0  0  0  0  0  0  0  0  0
   18.4976  -23.4962   -9.7726 N   0  0  0  0  0  0  0  0  0  0  0  0
   25.7259  -21.3763  -12.1759 C   0  0  2  0  0  0  0  0  0  0  0  0
   25.7586  -20.8984  -13.5522 C   0  0  0  0  0  0  0  0  0  0  0  0
   26.7436  -21.7283  -14.3113 C   0  0  0  0  0  0  0  0  0  0  0  0
   27.0245  -21.2234  -15.7049 C   0  0  0  0  0  0  0  0  0  0  0  0
   28.0201  -22.2183  -16.3197 C   0  0  0  0  0  0  0  0  0  0  0  0
   28.3540  -21.6981  -17.7153 N   0  0  0  0  0  0  0  0  0  0  0  0
   29.4066  -22.5793  -18.2282 C   0  0  0  0  0  0  0  0  0  0  0  0
   24.3944  -20.9411  -14.1288 O   0  0  0  0  0  0  0  0  0  0  0  0
   23.4494  -21.5520  -13.5753 C   0  0  0  0  0  0  0  0  0  0  0  0
   20.3284  -18.4820  -13.1404 C   0  0  1  0  0  0  0  0  0  0  0  0
   20.9508  -19.6538  -13.9348 C   0  0  0  0  0  0  0  0  0  0  0  0
   19.8670  -20.1857  -14.8050 C   0  0  0  0  0  0  0  0  0  0  0  0
   22.1407  -19.0863  -14.6028 C   0  0  2  0  0  0  0  0  0  0  0  0
   22.7537  -19.8407  -15.7208 N   0  0  0  0  0  0  0  0  0  0  0  0
   24.0811  -20.2780  -15.3641 C   0  0  0  0  0  0  0  0  0  0  0  0
   22.6699  -19.1869  -17.0232 O   0  0  0  0  0  0  0  0  0  0  0  0
   21.5649  -18.9140  -17.5412 O   0  0  0  0  0  0  0  0  0  0  0  0
  2  3  2  0
  2  1  1  0
  4  2  1  0
  5  4  1  0
  6  7  1  0
  6  5  1  0
  8 10  1  0
  8  7  1  0
  8  9  1  1
 10 12  1  0
 11 10  2  0
 12 13  1  0
 13 19  1  0
 13 14  1  1
 15 14  1  0
 16 17  1  0
 16 15  1  0
 18 17  1  0
 19 20  2  0
 19 26  1  0
 22 21  1  1
 22 23  1  0
 24 22  1  0
 25 27  1  0
 25 24  1  1
 26 25  1  0
 27 29  1  0
 28 27  2  0
M  END
$$$$
