RKL.pdb
     RDKit          3D

 29 28  0  0  1  0  0  0  0  0999 V2000
   17.5160  -25.0932   -9.6600 N   0  0  0  0  0  0  0  0  0  0  0  0
   18.5786  -25.9311   -9.1509 C   0  0  0  0  0  0  0  0  0  0  0  0
   19.4278  -26.4597   -9.9640 N   0  0  0  0  0  0  0  0  0  0  0  0
   18.7009  -26.1802   -7.7665 N   0  0  0  0  0  0  0  0  0  0  0  0
   17.5304  -26.1528   -6.8691 C   0  0  0  0  0  0  0  0  0  0  0  0
   17.2070  -24.7396   -6.4720 C   0  0  0  0  0  0  0  0  0  0  0  0
   17.1450  -24.5517   -5.0222 C   0  0  0  0  0  0  0  0  0  0  0  0
   16.1510  -25.2950   -4.2131 C   0  0  2  0  0  0  0  0  0  0  0  0
   14.8988  -25.5948   -4.7417 N   0  0  0  0  0  0  0  0  0  0  0  0
   16.0717  -24.6977   -2.8736 C   0  0  0  0  0  0  0  0  0  0  0  0
   17.1280  -24.3028   -2.3263 O   0  0  0  0  0  0  0  0  0  0  0  0
   20.1661  -27.1050   -9.6464 N   0  0  0  0  0  0  0  0  0  0  0  0
   14.8474  -24.5627   -2.2003 C   0  0  1  0  0  0  0  0  0  0  0  0
   14.7872  -24.0171   -0.8503 C   0  0  0  0  0  0  0  0  0  0  0  0
   13.3492  -23.8383   -0.4827 C   0  0  0  0  0  0  0  0  0  0  0  0
   12.7851  -22.4894   -0.8545 C   0  0  0  0  0  0  0  0  0  0  0  0
   12.6884  -21.6979    0.4583 C   0  0  0  0  0  0  0  0  0  0  0  0
   12.0136  -20.3709    0.1210 N   0  0  0  0  0  0  0  0  0  0  0  0
   11.9259  -19.6354    1.3855 C   0  0  0  0  0  0  0  0  0  0  0  0
   15.5203  -24.9059    0.0814 O   0  0  0  0  0  0  0  0  0  0  0  0
   15.4684  -26.1561   -0.0014 C   0  0  0  0  0  0  0  0  0  0  0  0
   19.6813  -26.8300    2.5072 C   0  0  2  0  0  0  0  0  0  0  0  0
   19.3195  -25.4817    3.1727 C   0  0  0  0  0  0  0  0  0  0  0  0
   20.6123  -24.8316    3.5203 C   0  0  0  0  0  0  0  0  0  0  0  0
   18.4495  -24.7861    2.2014 C   0  0  1  0  0  0  0  0  0  0  0  0
   17.0298  -25.1971    2.0996 N   0  0  0  0  0  0  0  0  0  0  0  0
   16.3364  -24.3757    1.1380 C   0  0  0  0  0  0  0  0  0  0  0  0
   16.3366  -25.3365    3.3767 O   0  0  0  0  0  0  0  0  0  0  0  0
   15.5122  -24.4792    3.7633 O   0  0  0  0  0  0  0  0  0  0  0  0
  2  3  2  0
  2  1  1  0
  4  2  1  0
  5  4  1  0
  6  7  1  0
  6  5  1  0
  8 10  1  0
  8  7  1  0
  8  9  1  6
 10 12  1  0
 11 10  2  0
 12 13  1  0
 13 19  1  0
 13 14  1  1
 15 14  1  0
 16 17  1  0
 16 15  1  0
 18 17  1  0
 19 20  2  0
 19 26  1  0
 22 21  1  1
 22 23  1  0
 24 22  1  0
 25 27  1  0
 25 24  1  6
 26 25  1  0
 27 29  1  0
 28 27  2  0
M  END
$$$$
