RKL.pdb
     RDKit          3D

 29 28  0  0  1  0  0  0  0  0999 V2000
   18.7103  -18.6856  -19.7122 N   0  0  0  0  0  0  0  0  0  0  0  0
   17.8088  -18.2463  -18.6707 C   0  0  0  0  0  0  0  0  0  0  0  0
   16.5423  -18.1784  -18.9013 N   0  0  0  0  0  0  0  0  0  0  0  0
   18.2986  -17.8887  -17.3956 N   0  0  0  0  0  0  0  0  0  0  0  0
   19.5740  -18.4209  -16.8796 C   0  0  0  0  0  0  0  0  0  0  0  0
   19.6580  -19.9028  -17.1166 C   0  0  0  0  0  0  0  0  0  0  0  0
   20.8523  -20.5104  -16.5286 C   0  0  0  0  0  0  0  0  0  0  0  0
   22.0321  -19.6763  -16.2007 C   0  0  2  0  0  0  0  0  0  0  0  0
   22.7144  -18.9989  -17.2072 N   0  0  0  0  0  0  0  0  0  0  0  0
   22.9301  -20.4320  -15.3177 C   0  0  0  0  0  0  0  0  0  0  0  0
   22.4312  -21.2383  -14.4978 O   0  0  0  0  0  0  0  0  0  0  0  0
   15.8684  -17.8673  -18.1863 N   0  0  0  0  0  0  0  0  0  0  0  0
   24.3233  -20.2696  -15.3729 C   0  0  1  0  0  0  0  0  0  0  0  0
   25.2024  -20.9983  -14.4673 C   0  0  0  0  0  0  0  0  0  0  0  0
   26.5655  -21.0481  -15.0793 C   0  0  0  0  0  0  0  0  0  0  0  0
   26.8677  -22.3402  -15.7971 C   0  0  0  0  0  0  0  0  0  0  0  0
   28.3305  -22.2351  -16.2535 C   0  0  0  0  0  0  0  0  0  0  0  0
   28.6407  -23.5138  -17.0274 N   0  0  0  0  0  0  0  0  0  0  0  0
   30.0506  -23.4135  -17.4146 C   0  0  0  0  0  0  0  0  0  0  0  0
   25.1868  -20.3571  -13.1316 O   0  0  0  0  0  0  0  0  0  0  0  0
   25.4768  -19.1489  -12.9625 C   0  0  0  0  0  0  0  0  0  0  0  0
   21.4417  -21.4974   -9.3419 C   0  0  2  0  0  0  0  0  0  0  0  0
   22.3860  -20.7770  -10.3324 C   0  0  0  0  0  0  0  0  0  0  0  0
   21.9095  -19.3692  -10.4090 C   0  0  0  0  0  0  0  0  0  0  0  0
   23.7496  -21.0047   -9.8101 C   0  0  2  0  0  0  0  0  0  0  0  0
   24.9040  -20.5463  -10.6175 N   0  0  0  0  0  0  0  0  0  0  0  0
   24.8349  -21.0942  -11.9499 C   0  0  0  0  0  0  0  0  0  0  0  0
   26.2051  -20.7018   -9.9742 O   0  0  0  0  0  0  0  0  0  0  0  0
   27.0968  -21.4176  -10.4806 O   0  0  0  0  0  0  0  0  0  0  0  0
  2  3  2  0
  2  1  1  0
  4  2  1  0
  5  4  1  0
  6  7  1  0
  6  5  1  0
  8 10  1  0
  8  7  1  0
  8  9  1  6
 10 12  1  0
 11 10  2  0
 12 13  1  0
 13 19  1  0
 13 14  1  1
 15 14  1  0
 16 17  1  0
 16 15  1  0
 18 17  1  0
 19 20  2  0
 19 26  1  0
 22 21  1  6
 22 23  1  0
 24 22  1  0
 25 27  1  0
 25 24  1  6
 26 25  1  0
 27 29  1  0
 28 27  2  0
M  END
$$$$
