RKL.pdb
     RDKit          3D

 29 28  0  0  1  0  0  0  0  0999 V2000
   12.4176  -11.5655  -17.2896 N   0  0  0  0  0  0  0  0  0  0  0  0
   13.2426  -12.7292  -17.5257 C   0  0  0  0  0  0  0  0  0  0  0  0
   12.6947  -13.8582  -17.8203 N   0  0  0  0  0  0  0  0  0  0  0  0
   14.6493  -12.6464  -17.4382 N   0  0  0  0  0  0  0  0  0  0  0  0
   15.3257  -11.4122  -16.9957 C   0  0  0  0  0  0  0  0  0  0  0  0
   16.2231  -11.6973  -15.8242 C   0  0  0  0  0  0  0  0  0  0  0  0
   16.9455  -10.5145  -15.3545 C   0  0  0  0  0  0  0  0  0  0  0  0
   17.8019   -9.7424  -16.2849 C   0  0  2  0  0  0  0  0  0  0  0  0
   17.8559  -10.0809  -17.6339 N   0  0  0  0  0  0  0  0  0  0  0  0
   19.1341   -9.5728  -15.6900 C   0  0  0  0  0  0  0  0  0  0  0  0
   19.2219   -9.3695  -14.4563 O   0  0  0  0  0  0  0  0  0  0  0  0
   13.2474  -14.7126  -17.9832 N   0  0  0  0  0  0  0  0  0  0  0  0
   20.3001   -9.6324  -16.4694 C   0  0  1  0  0  0  0  0  0  0  0  0
   21.6183   -9.4963  -15.8632 C   0  0  0  0  0  0  0  0  0  0  0  0
   22.5642  -10.3921  -16.5965 C   0  0  0  0  0  0  0  0  0  0  0  0
   22.2054  -11.8554  -16.5204 C   0  0  0  0  0  0  0  0  0  0  0  0
   23.3219  -12.6013  -17.2660 C   0  0  0  0  0  0  0  0  0  0  0  0
   22.9817  -14.0875  -17.1911 N   0  0  0  0  0  0  0  0  0  0  0  0
   23.9618  -14.7645  -18.0446 C   0  0  0  0  0  0  0  0  0  0  0  0
   22.0320   -8.0736  -15.8803 O   0  0  0  0  0  0  0  0  0  0  0  0
   22.5250   -7.5291  -16.8966 C   0  0  0  0  0  0  0  0  0  0  0  0
   19.9011   -3.7221  -15.3184 C   0  0  2  0  0  0  0  0  0  0  0  0
   20.3045   -5.0208  -16.0548 C   0  0  0  0  0  0  0  0  0  0  0  0
   19.7947   -4.8830  -17.4462 C   0  0  0  0  0  0  0  0  0  0  0  0
   21.7671   -5.1348  -15.8759 C   0  0  1  0  0  0  0  0  0  0  0  0
   22.2823   -5.8497  -14.6851 N   0  0  0  0  0  0  0  0  0  0  0  0
   21.8880   -7.2366  -14.7217 C   0  0  0  0  0  0  0  0  0  0  0  0
   22.0226   -5.1881  -13.4101 O   0  0  0  0  0  0  0  0  0  0  0  0
   21.3154   -5.7289  -12.5318 O   0  0  0  0  0  0  0  0  0  0  0  0
  2  3  2  0
  2  1  1  0
  4  2  1  0
  5  4  1  0
  6  7  1  0
  6  5  1  0
  8 10  1  0
  8  7  1  0
  8  9  1  6
 10 12  1  0
 11 10  2  0
 12 13  1  0
 13 19  1  0
 13 14  1  1
 15 14  1  0
 16 17  1  0
 16 15  1  0
 18 17  1  0
 19 20  2  0
 19 26  1  0
 22 21  1  1
 22 23  1  0
 24 22  1  0
 25 27  1  0
 25 24  1  6
 26 25  1  0
 27 29  1  0
 28 27  2  0
M  END
$$$$
