RKL.pdb
     RDKit          3D

 29 28  0  0  1  0  0  0  0  0999 V2000
   20.0438  -14.4991  -16.7558 N   0  0  0  0  0  0  0  0  0  0  0  0
   19.4181  -15.1329  -17.8948 C   0  0  0  0  0  0  0  0  0  0  0  0
   18.5815  -14.4729  -18.6203 N   0  0  0  0  0  0  0  0  0  0  0  0
   19.7125  -16.4733  -18.2268 N   0  0  0  0  0  0  0  0  0  0  0  0
   20.5105  -17.3343  -17.3334 C   0  0  0  0  0  0  0  0  0  0  0  0
   20.7222  -18.6849  -17.9582 C   0  0  0  0  0  0  0  0  0  0  0  0
   21.6180  -19.5418  -17.1808 C   0  0  0  0  0  0  0  0  0  0  0  0
   23.0797  -19.3003  -17.1904 C   0  0  2  0  0  0  0  0  0  0  0  0
   23.7735  -19.2415  -18.3956 N   0  0  0  0  0  0  0  0  0  0  0  0
   23.7237  -20.1831  -16.2090 C   0  0  0  0  0  0  0  0  0  0  0  0
   23.0356  -21.0730  -15.6560 O   0  0  0  0  0  0  0  0  0  0  0  0
   18.0508  -14.9125  -19.3867 N   0  0  0  0  0  0  0  0  0  0  0  0
   25.0820  -20.0501  -15.8805 C   0  0  1  0  0  0  0  0  0  0  0  0
   25.6985  -20.9000  -14.8699 C   0  0  0  0  0  0  0  0  0  0  0  0
   27.1543  -21.0221  -15.1874 C   0  0  0  0  0  0  0  0  0  0  0  0
   27.4992  -22.2283  -16.0253 C   0  0  0  0  0  0  0  0  0  0  0  0
   29.0044  -22.1238  -16.3128 C   0  0  0  0  0  0  0  0  0  0  0  0
   29.3441  -23.2512  -17.2841 N   0  0  0  0  0  0  0  0  0  0  0  0
   30.7852  -23.1461  -17.5288 C   0  0  0  0  0  0  0  0  0  0  0  0
   25.4414  -20.3409  -13.5220 O   0  0  0  0  0  0  0  0  0  0  0  0
   25.8335  -19.1995  -13.1816 C   0  0  0  0  0  0  0  0  0  0  0  0
   20.7977  -20.8978  -10.7639 C   0  0  2  0  0  0  0  0  0  0  0  0
   22.0717  -20.3630  -11.4587 C   0  0  0  0  0  0  0  0  0  0  0  0
   21.9245  -18.8830  -11.5106 C   0  0  0  0  0  0  0  0  0  0  0  0
   23.2019  -20.9057  -10.6763 C   0  0  2  0  0  0  0  0  0  0  0  0
   24.5811  -20.6561  -11.1561 N   0  0  0  0  0  0  0  0  0  0  0  0
   24.7224  -21.0854  -12.5258 C   0  0  0  0  0  0  0  0  0  0  0  0
   25.6371  -21.1334  -10.2684 O   0  0  0  0  0  0  0  0  0  0  0  0
   26.4058  -22.0572  -10.6142 O   0  0  0  0  0  0  0  0  0  0  0  0
  2  3  2  0
  2  1  1  0
  4  2  1  0
  5  4  1  0
  6  7  1  0
  6  5  1  0
  8 10  1  0
  8  7  1  0
  8  9  1  6
 10 12  1  0
 11 10  2  0
 12 13  1  0
 13 19  1  0
 13 14  1  6
 15 14  1  0
 16 17  1  0
 16 15  1  0
 18 17  1  0
 19 20  2  0
 19 26  1  0
 22 21  1  6
 22 23  1  0
 24 22  1  0
 25 27  1  0
 25 24  1  6
 26 25  1  0
 27 29  1  0
 28 27  2  0
M  END
$$$$
