RKL.pdb
     RDKit          3D

 29 28  0  0  1  0  0  0  0  0999 V2000
   27.4715  -24.3212  -16.3774 N   0  0  0  0  0  0  0  0  0  0  0  0
   27.4863  -25.6411  -16.9673 C   0  0  0  0  0  0  0  0  0  0  0  0
   26.8231  -26.5999  -16.4173 N   0  0  0  0  0  0  0  0  0  0  0  0
   28.2211  -25.8970  -18.1455 N   0  0  0  0  0  0  0  0  0  0  0  0
   28.6125  -24.8112  -19.0643 C   0  0  0  0  0  0  0  0  0  0  0  0
   27.4526  -24.4177  -19.9354 C   0  0  0  0  0  0  0  0  0  0  0  0
   27.7525  -23.2851  -20.8120 C   0  0  0  0  0  0  0  0  0  0  0  0
   27.6007  -21.8963  -20.3187 C   0  0  2  0  0  0  0  0  0  0  0  0
   28.0709  -21.5443  -19.0567 N   0  0  0  0  0  0  0  0  0  0  0  0
   26.2232  -21.4452  -20.5557 C   0  0  0  0  0  0  0  0  0  0  0  0
   25.7025  -21.6609  -21.6753 O   0  0  0  0  0  0  0  0  0  0  0  0
   26.8110  -27.5546  -16.8055 N   0  0  0  0  0  0  0  0  0  0  0  0
   25.4856  -20.7824  -19.5621 C   0  0  1  0  0  0  0  0  0  0  0  0
   24.1016  -20.3871  -19.7901 C   0  0  0  0  0  0  0  0  0  0  0  0
   23.3415  -20.5939  -18.5195 C   0  0  0  0  0  0  0  0  0  0  0  0
   21.8753  -20.2537  -18.6206 C   0  0  0  0  0  0  0  0  0  0  0  0
   21.2923  -20.4858  -17.2187 C   0  0  0  0  0  0  0  0  0  0  0  0
   19.7928  -20.2182  -17.3180 N   0  0  0  0  0  0  0  0  0  0  0  0
   19.2661  -20.3913  -15.9614 C   0  0  0  0  0  0  0  0  0  0  0  0
   24.0547  -18.9879  -20.2755 O   0  0  0  0  0  0  0  0  0  0  0  0
   24.9341  -18.1441  -19.9802 C   0  0  0  0  0  0  0  0  0  0  0  0
   25.8653  -15.3488  -23.2166 C   0  0  2  0  0  0  0  0  0  0  0  0
   24.3444  -15.5933  -23.0795 C   0  0  0  0  0  0  0  0  0  0  0  0
   23.7854  -15.5058  -24.4561 C   0  0  0  0  0  0  0  0  0  0  0  0
   24.2171  -16.8868  -22.3762 C   0  0  1  0  0  0  0  0  0  0  0  0
   22.9427  -17.1972  -21.6875 N   0  0  0  0  0  0  0  0  0  0  0  0
   22.9887  -18.5215  -21.1179 C   0  0  0  0  0  0  0  0  0  0  0  0
   21.7395  -16.9237  -22.4674 O   0  0  0  0  0  0  0  0  0  0  0  0
   20.9939  -17.8500  -22.8547 O   0  0  0  0  0  0  0  0  0  0  0  0
  2  3  2  0
  2  1  1  0
  4  2  1  0
  5  4  1  0
  6  7  1  0
  6  5  1  0
  8 10  1  0
  8  7  1  0
  8  9  1  1
 10 12  1  0
 11 10  2  0
 12 13  1  0
 13 19  1  0
 13 14  1  6
 15 14  1  0
 16 17  1  0
 16 15  1  0
 18 17  1  0
 19 20  2  0
 19 26  1  0
 22 21  1  1
 22 23  1  0
 24 22  1  0
 25 27  1  0
 25 24  1  1
 26 25  1  0
 27 29  1  0
 28 27  2  0
M  END
$$$$
