RKL.pdb
     RDKit          3D

 29 28  0  0  1  0  0  0  0  0999 V2000
   21.3019  -24.1786  -17.2420 N   0  0  0  0  0  0  0  0  0  0  0  0
   20.1692  -24.1843  -18.1406 C   0  0  0  0  0  0  0  0  0  0  0  0
   19.2811  -23.2531  -18.0635 N   0  0  0  0  0  0  0  0  0  0  0  0
   20.0207  -25.2016  -19.1084 N   0  0  0  0  0  0  0  0  0  0  0  0
   21.0786  -26.2015  -19.3483 C   0  0  0  0  0  0  0  0  0  0  0  0
   20.6576  -27.1622  -20.4249 C   0  0  0  0  0  0  0  0  0  0  0  0
   21.5430  -28.3218  -20.5364 C   0  0  0  0  0  0  0  0  0  0  0  0
   23.0018  -28.1349  -20.7164 C   0  0  2  0  0  0  0  0  0  0  0  0
   23.5718  -28.2384  -21.9820 N   0  0  0  0  0  0  0  0  0  0  0  0
   23.7200  -28.9226  -19.7059 C   0  0  0  0  0  0  0  0  0  0  0  0
   23.9571  -30.1309  -19.9403 O   0  0  0  0  0  0  0  0  0  0  0  0
   18.4344  -23.2497  -18.6511 N   0  0  0  0  0  0  0  0  0  0  0  0
   24.1412  -28.3540  -18.4936 C   0  0  2  0  0  0  0  0  0  0  0  0
   24.8063  -29.1579  -17.4762 C   0  0  0  0  0  0  0  0  0  0  0  0
   25.9203  -28.3477  -16.8954 C   0  0  0  0  0  0  0  0  0  0  0  0
   27.1539  -28.2925  -17.7621 C   0  0  0  0  0  0  0  0  0  0  0  0
   28.0857  -27.2653  -17.1020 C   0  0  0  0  0  0  0  0  0  0  0  0
   29.3408  -27.1926  -17.9677 N   0  0  0  0  0  0  0  0  0  0  0  0
   30.1939  -26.1745  -17.3486 C   0  0  0  0  0  0  0  0  0  0  0  0
   23.8188  -29.6002  -16.4640 O   0  0  0  0  0  0  0  0  0  0  0  0
   22.9185  -28.8441  -16.0279 C   0  0  0  0  0  0  0  0  0  0  0  0
   19.6520  -30.5464  -14.1962 C   0  0  2  0  0  0  0  0  0  0  0  0
   20.2937  -31.7485  -14.9276 C   0  0  0  0  0  0  0  0  0  0  0  0
   19.2194  -32.3426  -15.7689 C   0  0  0  0  0  0  0  0  0  0  0  0
   21.4752  -31.1983  -15.6243 C   0  0  1  0  0  0  0  0  0  0  0  0
   22.8185  -31.4591  -15.0566 N   0  0  0  0  0  0  0  0  0  0  0  0
   23.8423  -30.9315  -15.9248 C   0  0  0  0  0  0  0  0  0  0  0  0
   23.0490  -32.8356  -14.6288 O   0  0  0  0  0  0  0  0  0  0  0  0
   22.3674  -33.3534  -13.7171 O   0  0  0  0  0  0  0  0  0  0  0  0
  2  3  2  0
  2  1  1  0
  4  2  1  0
  5  4  1  0
  6  7  1  0
  6  5  1  0
  8 10  1  0
  8  7  1  0
  8  9  1  6
 10 12  1  0
 11 10  2  0
 12 13  1  0
 13 19  1  0
 13 14  1  6
 15 14  1  0
 16 17  1  0
 16 15  1  0
 18 17  1  0
 19 20  2  0
 19 26  1  0
 22 21  1  1
 22 23  1  0
 24 22  1  0
 25 27  1  0
 25 24  1  1
 26 25  1  0
 27 29  1  0
 28 27  2  0
M  END
$$$$
