HAE.pdb
     RDKit          3D

 25 25  0  0  1  0  0  0  0  0999 V2000
   17.2971  -13.3868  -15.6668 N   0  0  0  0  0  0  0  0  0  0  0  0
   16.8121  -12.1071  -16.1334 C   0  0  1  0  0  0  0  0  0  0  0  0
   15.9075  -11.5593  -15.0253 C   0  0  0  0  0  0  0  0  0  0  0  0
   14.6642  -12.3552  -14.9707 C   0  0  0  0  0  0  0  0  0  0  0  0
   13.5919  -12.2272  -15.8122 C   0  0  0  0  0  0  0  0  0  0  0  0
   12.6709  -13.1512  -15.4084 N   0  0  0  0  0  0  0  0  0  0  0  0
   13.1481  -13.8322  -14.3533 C   0  0  0  0  0  0  0  0  0  0  0  0
   14.3819  -13.3279  -14.0953 N   0  0  0  0  0  0  0  0  0  0  0  0
   17.9103  -11.1127  -16.2802 C   0  0  0  0  0  0  0  0  0  0  0  0
   18.6875  -10.9418  -15.3028 O   0  0  0  0  0  0  0  0  0  0  0  0
   19.3903   -9.0447  -18.9789 C   0  0  0  0  0  0  0  0  0  0  0  0
   19.1806   -9.3519  -17.5012 C   0  0  2  0  0  0  0  0  0  0  0  0
   18.1402  -10.3512  -17.4342 N   0  0  0  0  0  0  0  0  0  0  0  0
   18.7955   -8.0917  -16.8265 C   0  0  0  0  0  0  0  0  0  0  0  0
   17.6082   -7.7375  -16.6336 O   0  0  0  0  0  0  0  0  0  0  0  0
   19.8212   -7.2337  -16.3714 N   0  0  0  0  0  0  0  0  0  0  0  0
   19.4507   -5.9387  -15.6881 C   0  0  1  0  0  0  0  0  0  0  0  0
   20.5881   -5.7386  -14.7491 C   0  0  0  0  0  0  0  0  0  0  0  0
   20.7248   -6.6568  -13.6153 C   0  0  0  0  0  0  0  0  0  0  0  0
   21.7922   -6.3276  -12.6746 C   0  0  0  0  0  0  0  0  0  0  0  0
   22.6493   -5.4362  -12.9585 O   0  0  0  0  0  0  0  0  0  0  0  0
   19.3569   -4.8914  -16.7111 C   0  0  0  0  0  0  0  0  0  0  0  0
   19.6864   -5.0019  -17.8999 O   0  0  0  0  0  0  0  0  0  0  0  0
   21.8910   -6.9731  -11.4542 O   0  0  0  0  0  0  0  0  0  0  0  0
   18.8394   -3.6377  -16.2921 O   0  0  0  0  0  0  0  0  0  0  0  0
  2  1  1  1
  2  9  1  0
  3  4  1  0
  3  2  1  0
  4  8  1  0
  4  5  2  0
  5  6  1  0
  7  6  1  0
  8  7  2  0
  9 13  1  0
  9 10  2  0
 12 11  1  6
 12 14  1  0
 13 12  1  0
 14 16  1  0
 14 15  2  0
 16 17  1  0
 17 22  1  0
 17 18  1  1
 19 20  1  0
 19 18  1  0
 20 24  1  0
 21 20  2  0
 22 25  1  0
 23 22  2  0
M  END
$$$$
