HAE.pdb
     RDKit          3D

 25 25  0  0  1  0  0  0  0  0999 V2000
   12.6959  -23.0640   -2.0332 N   0  0  0  0  0  0  0  0  0  0  0  0
   13.7880  -23.6063   -1.2563 C   0  0  1  0  0  0  0  0  0  0  0  0
   15.0725  -23.0244   -1.8543 C   0  0  0  0  0  0  0  0  0  0  0  0
   15.3219  -23.6422   -3.1726 C   0  0  0  0  0  0  0  0  0  0  0  0
   15.8576  -24.8835   -3.3888 C   0  0  0  0  0  0  0  0  0  0  0  0
   15.9103  -25.0516   -4.7431 N   0  0  0  0  0  0  0  0  0  0  0  0
   15.4262  -23.9567   -5.3525 C   0  0  0  0  0  0  0  0  0  0  0  0
   15.0665  -23.0946   -4.3673 N   0  0  0  0  0  0  0  0  0  0  0  0
   13.7567  -23.1366    0.1561 C   0  0  0  0  0  0  0  0  0  0  0  0
   13.4965  -21.9220    0.3694 O   0  0  0  0  0  0  0  0  0  0  0  0
   13.8820  -24.6835    3.5293 C   0  0  0  0  0  0  0  0  0  0  0  0
   13.9032  -23.4597    2.6217 C   0  0  2  0  0  0  0  0  0  0  0  0
   13.9973  -23.9548    1.2684 N   0  0  0  0  0  0  0  0  0  0  0  0
   15.0714  -22.6336    3.0018 C   0  0  0  0  0  0  0  0  0  0  0  0
   16.1889  -22.7029    2.4372 O   0  0  0  0  0  0  0  0  0  0  0  0
   14.9249  -21.7118    4.0621 N   0  0  0  0  0  0  0  0  0  0  0  0
   16.1262  -20.9215    4.5238 C   0  0  1  0  0  0  0  0  0  0  0  0
   15.6137  -19.5242    4.5039 C   0  0  0  0  0  0  0  0  0  0  0  0
   15.7878  -18.7361    3.2808 C   0  0  0  0  0  0  0  0  0  0  0  0
   15.1353  -17.4297    3.2856 C   0  0  0  0  0  0  0  0  0  0  0  0
   14.4042  -17.0780    4.2611 O   0  0  0  0  0  0  0  0  0  0  0  0
   16.4891  -21.3831    5.8682 C   0  0  0  0  0  0  0  0  0  0  0  0
   15.8815  -22.2302    6.5369 O   0  0  0  0  0  0  0  0  0  0  0  0
   15.3019  -16.5458    2.2336 O   0  0  0  0  0  0  0  0  0  0  0  0
   17.6452  -20.8000    6.4503 O   0  0  0  0  0  0  0  0  0  0  0  0
  2  1  1  6
  2  9  1  0
  3  4  1  0
  3  2  1  0
  4  8  1  0
  4  5  2  0
  5  6  1  0
  7  6  1  0
  8  7  2  0
  9 13  1  0
  9 10  2  0
 12 11  1  1
 12 14  1  0
 13 12  1  0
 14 16  1  0
 14 15  2  0
 16 17  1  0
 17 22  1  0
 17 18  1  1
 19 20  1  0
 19 18  1  0
 20 24  1  0
 21 20  2  0
 22 25  1  0
 23 22  2  0
M  END
$$$$
