HAE.pdb
     RDKit          3D

 25 25  0  0  1  0  0  0  0  0999 V2000
   20.8047  -12.1443  -18.6607 N   0  0  0  0  0  0  0  0  0  0  0  0
   21.7953  -11.3486  -17.9706 C   0  0  1  0  0  0  0  0  0  0  0  0
   22.6041  -10.6317  -19.0559 C   0  0  0  0  0  0  0  0  0  0  0  0
   23.4341  -11.6170  -19.7786 C   0  0  0  0  0  0  0  0  0  0  0  0
   24.5594  -12.2279  -19.2937 C   0  0  0  0  0  0  0  0  0  0  0  0
   25.0063  -13.0567  -20.2828 N   0  0  0  0  0  0  0  0  0  0  0  0
   24.1920  -12.9682  -21.3476 C   0  0  0  0  0  0  0  0  0  0  0  0
   23.2247  -12.0738  -21.0195 N   0  0  0  0  0  0  0  0  0  0  0  0
   21.1756  -10.2681  -17.1553 C   0  0  0  0  0  0  0  0  0  0  0  0
   20.3090   -9.5362  -17.7048 O   0  0  0  0  0  0  0  0  0  0  0  0
   21.1736   -9.1878  -13.6048 C   0  0  0  0  0  0  0  0  0  0  0  0
   20.8789   -8.9274  -15.0770 C   0  0  2  0  0  0  0  0  0  0  0  0
   21.4903  -10.0080  -15.8145 N   0  0  0  0  0  0  0  0  0  0  0  0
   21.4543   -7.6094  -15.4281 C   0  0  0  0  0  0  0  0  0  0  0  0
   22.6078   -7.4529  -15.8943 O   0  0  0  0  0  0  0  0  0  0  0  0
   20.6624   -6.4568  -15.2284 N   0  0  0  0  0  0  0  0  0  0  0  0
   21.2293   -5.1021  -15.5811 C   0  0  1  0  0  0  0  0  0  0  0  0
   20.0028   -4.2692  -15.7127 C   0  0  0  0  0  0  0  0  0  0  0  0
   19.1506   -4.4657  -16.8885 C   0  0  0  0  0  0  0  0  0  0  0  0
   17.9380   -3.6526  -16.9196 C   0  0  0  0  0  0  0  0  0  0  0  0
   16.9587   -3.9264  -16.1609 O   0  0  0  0  0  0  0  0  0  0  0  0
   22.1033   -4.6715  -14.4842 C   0  0  0  0  0  0  0  0  0  0  0  0
   22.1284   -5.1490  -13.3417 O   0  0  0  0  0  0  0  0  0  0  0  0
   17.8303   -2.5655  -17.7696 O   0  0  0  0  0  0  0  0  0  0  0  0
   23.0008   -3.6084  -14.7662 O   0  0  0  0  0  0  0  0  0  0  0  0
  2  1  1  6
  2  9  1  0
  3  4  1  0
  3  2  1  0
  4  8  1  0
  4  5  2  0
  5  6  1  0
  7  6  1  0
  8  7  2  0
  9 13  1  0
  9 10  2  0
 12 11  1  1
 12 14  1  0
 13 12  1  0
 14 16  1  0
 14 15  2  0
 16 17  1  0
 17 22  1  0
 17 18  1  1
 19 20  1  0
 19 18  1  0
 20 24  1  0
 21 20  2  0
 22 25  1  0
 23 22  2  0
M  END
$$$$
