HAE.pdb
     RDKit          3D

 25 25  0  0  1  0  0  0  0  0999 V2000
   18.5955  -13.3927  -17.2800 N   0  0  0  0  0  0  0  0  0  0  0  0
   17.6049  -12.5590  -16.6364 C   0  0  1  0  0  0  0  0  0  0  0  0
   17.7081  -12.8482  -15.1358 C   0  0  0  0  0  0  0  0  0  0  0  0
   17.2524  -14.2281  -14.8710 C   0  0  0  0  0  0  0  0  0  0  0  0
   15.9805  -14.7018  -15.0515 C   0  0  0  0  0  0  0  0  0  0  0  0
   16.0029  -16.0182  -14.6887 N   0  0  0  0  0  0  0  0  0  0  0  0
   17.2421  -16.3566  -14.2953 C   0  0  0  0  0  0  0  0  0  0  0  0
   18.0028  -15.2384  -14.4142 N   0  0  0  0  0  0  0  0  0  0  0  0
   17.9113  -11.1099  -16.7856 C   0  0  0  0  0  0  0  0  0  0  0  0
   19.0818  -10.7231  -16.5231 O   0  0  0  0  0  0  0  0  0  0  0  0
   16.1216   -8.0586  -17.9518 C   0  0  0  0  0  0  0  0  0  0  0  0
   17.3479   -8.7565  -17.3766 C   0  0  2  0  0  0  0  0  0  0  0  0
   16.9849  -10.1430  -17.1995 N   0  0  0  0  0  0  0  0  0  0  0  0
   17.6871   -8.0950  -16.0963 C   0  0  0  0  0  0  0  0  0  0  0  0
   17.2117   -8.4356  -14.9871 O   0  0  0  0  0  0  0  0  0  0  0  0
   18.5988   -7.0164  -16.1192 N   0  0  0  0  0  0  0  0  0  0  0  0
   18.9508   -6.3203  -14.8259 C   0  0  1  0  0  0  0  0  0  0  0  0
   20.4027   -6.0424  -15.0000 C   0  0  0  0  0  0  0  0  0  0  0  0
   21.0905   -5.2611  -13.9686 C   0  0  0  0  0  0  0  0  0  0  0  0
   22.4871   -4.9458  -14.2564 C   0  0  0  0  0  0  0  0  0  0  0  0
   22.9613   -3.8033  -13.9745 O   0  0  0  0  0  0  0  0  0  0  0  0
   18.1390   -5.1025  -14.7254 C   0  0  0  0  0  0  0  0  0  0  0  0
   17.7498   -4.4056  -15.6724 O   0  0  0  0  0  0  0  0  0  0  0  0
   23.3246   -5.8831  -14.8360 O   0  0  0  0  0  0  0  0  0  0  0  0
   17.7691   -4.6910  -13.4181 O   0  0  0  0  0  0  0  0  0  0  0  0
  2  1  1  6
  2  9  1  0
  3  4  1  0
  3  2  1  0
  4  8  1  0
  4  5  2  0
  5  6  1  0
  7  6  1  0
  8  7  2  0
  9 13  1  0
  9 10  2  0
 12 11  1  1
 12 14  1  0
 13 12  1  0
 14 16  1  0
 14 15  2  0
 16 17  1  0
 17 22  1  0
 17 18  1  6
 19 20  1  0
 19 18  1  0
 20 24  1  0
 21 20  2  0
 22 25  1  0
 23 22  2  0
M  END
$$$$
