HAE.pdb
     RDKit          3D

 25 25  0  0  1  0  0  0  0  0999 V2000
   23.8146  -12.6542  -18.1056 N   0  0  0  0  0  0  0  0  0  0  0  0
   23.5885  -12.1470  -16.7707 C   0  0  1  0  0  0  0  0  0  0  0  0
   24.9724  -11.8740  -16.1737 C   0  0  0  0  0  0  0  0  0  0  0  0
   25.6708  -13.1565  -15.9510 C   0  0  0  0  0  0  0  0  0  0  0  0
   25.1848  -14.3989  -16.2588 C   0  0  0  0  0  0  0  0  0  0  0  0
   26.1486  -15.2935  -15.8900 N   0  0  0  0  0  0  0  0  0  0  0  0
   27.1988  -14.6363  -15.3704 C   0  0  0  0  0  0  0  0  0  0  0  0
   26.8875  -13.3156  -15.4155 N   0  0  0  0  0  0  0  0  0  0  0  0
   22.8925  -10.8311  -16.7829 C   0  0  0  0  0  0  0  0  0  0  0  0
   23.3296   -9.9384  -17.5578 O   0  0  0  0  0  0  0  0  0  0  0  0
   19.7833   -9.3954  -15.3489 C   0  0  0  0  0  0  0  0  0  0  0  0
   21.1145   -9.2373  -16.0734 C   0  0  2  0  0  0  0  0  0  0  0  0
   21.7808  -10.5158  -15.9897 N   0  0  0  0  0  0  0  0  0  0  0  0
   21.8735   -8.1611  -15.3971 C   0  0  0  0  0  0  0  0  0  0  0  0
   22.7196   -8.3647  -14.4942 O   0  0  0  0  0  0  0  0  0  0  0  0
   21.6350   -6.8247  -15.7872 N   0  0  0  0  0  0  0  0  0  0  0  0
   22.3421   -5.7062  -15.0593 C   0  0  1  0  0  0  0  0  0  0  0  0
   22.0718   -4.5351  -15.9373 C   0  0  0  0  0  0  0  0  0  0  0  0
   22.4522   -3.2034  -15.4585 C   0  0  0  0  0  0  0  0  0  0  0  0
   22.0437   -2.0948  -16.3167 C   0  0  0  0  0  0  0  0  0  0  0  0
   21.4620   -2.3160  -17.4223 O   0  0  0  0  0  0  0  0  0  0  0  0
   21.7437   -5.5771  -13.7260 C   0  0  0  0  0  0  0  0  0  0  0  0
   20.6100   -5.9514  -13.3964 O   0  0  0  0  0  0  0  0  0  0  0  0
   22.2753   -0.7820  -15.9440 O   0  0  0  0  0  0  0  0  0  0  0  0
   22.5445   -4.9653  -12.7261 O   0  0  0  0  0  0  0  0  0  0  0  0
  2  1  1  6
  2  9  1  0
  3  4  1  0
  3  2  1  0
  4  8  1  0
  4  5  2  0
  5  6  1  0
  7  6  1  0
  8  7  2  0
  9 13  1  0
  9 10  2  0
 12 11  1  1
 12 14  1  0
 13 12  1  0
 14 16  1  0
 14 15  2  0
 16 17  1  0
 17 22  1  0
 17 18  1  6
 19 20  1  0
 19 18  1  0
 20 24  1  0
 21 20  2  0
 22 25  1  0
 23 22  2  0
M  END
$$$$
