HAE.pdb
     RDKit          3D

 25 25  0  0  1  0  0  0  0  0999 V2000
   26.3259  -14.1812  -15.7562 N   0  0  0  0  0  0  0  0  0  0  0  0
   25.0059  -13.6031  -15.8747 C   0  0  1  0  0  0  0  0  0  0  0  0
   24.1918  -14.1433  -14.6950 C   0  0  0  0  0  0  0  0  0  0  0  0
   23.4276  -15.3301  -15.1305 C   0  0  0  0  0  0  0  0  0  0  0  0
   23.4908  -15.9161  -16.3663 C   0  0  0  0  0  0  0  0  0  0  0  0
   22.6294  -16.9755  -16.3364 N   0  0  0  0  0  0  0  0  0  0  0  0
   22.0482  -17.0502  -15.1276 C   0  0  0  0  0  0  0  0  0  0  0  0
   22.5528  -16.0256  -14.3935 N   0  0  0  0  0  0  0  0  0  0  0  0
   25.0255  -12.1246  -15.7024 C   0  0  0  0  0  0  0  0  0  0  0  0
   25.9805  -11.6175  -15.0549 O   0  0  0  0  0  0  0  0  0  0  0  0
   25.2747   -9.4962  -17.2463 C   0  0  0  0  0  0  0  0  0  0  0  0
   24.2184   -9.8204  -16.1969 C   0  0  2  0  0  0  0  0  0  0  0  0
   24.0520  -11.2548  -16.2127 N   0  0  0  0  0  0  0  0  0  0  0  0
   22.9765   -9.1051  -16.5678 C   0  0  0  0  0  0  0  0  0  0  0  0
   22.1656   -9.5159  -17.4315 O   0  0  0  0  0  0  0  0  0  0  0  0
   22.6825   -7.8878  -15.9142 N   0  0  0  0  0  0  0  0  0  0  0  0
   21.2778   -7.3367  -15.9780 C   0  0  1  0  0  0  0  0  0  0  0  0
   20.4910   -8.3921  -15.2834 C   0  0  0  0  0  0  0  0  0  0  0  0
   19.4802   -9.1253  -16.0504 C   0  0  0  0  0  0  0  0  0  0  0  0
   18.7021  -10.0951  -15.2846 C   0  0  0  0  0  0  0  0  0  0  0  0
   17.7811   -9.7087  -14.5021 O   0  0  0  0  0  0  0  0  0  0  0  0
   21.2589   -6.0483  -15.2766 C   0  0  0  0  0  0  0  0  0  0  0  0
   22.0549   -5.6834  -14.4006 O   0  0  0  0  0  0  0  0  0  0  0  0
   18.9457  -11.4529  -15.3972 O   0  0  0  0  0  0  0  0  0  0  0  0
   20.2298   -5.1409  -15.6411 O   0  0  0  0  0  0  0  0  0  0  0  0
  2  1  1  1
  2  9  1  0
  3  4  1  0
  3  2  1  0
  4  8  1  0
  4  5  2  0
  5  6  1  0
  7  6  1  0
  8  7  2  0
  9 13  1  0
  9 10  2  0
 12 11  1  6
 12 14  1  0
 13 12  1  0
 14 16  1  0
 14 15  2  0
 16 17  1  0
 17 22  1  0
 17 18  1  1
 19 20  1  0
 19 18  1  0
 20 24  1  0
 21 20  2  0
 22 25  1  0
 23 22  2  0
M  END
$$$$
