HAE.pdb
     RDKit          3D

 25 25  0  0  1  0  0  0  0  0999 V2000
   18.2402  -11.3858  -17.5376 N   0  0  0  0  0  0  0  0  0  0  0  0
   17.1508  -10.5522  -17.0807 C   0  0  1  0  0  0  0  0  0  0  0  0
   16.9449  -10.8859  -15.6001 C   0  0  0  0  0  0  0  0  0  0  0  0
   16.4016  -12.2541  -15.4779 C   0  0  0  0  0  0  0  0  0  0  0  0
   17.0201  -13.3115  -14.8665 C   0  0  0  0  0  0  0  0  0  0  0  0
   16.1717  -14.3755  -14.9823 N   0  0  0  0  0  0  0  0  0  0  0  0
   15.0636  -13.9990  -15.6419 C   0  0  0  0  0  0  0  0  0  0  0  0
   15.2214  -12.6842  -15.9412 N   0  0  0  0  0  0  0  0  0  0  0  0
   17.4996   -9.1054  -17.1191 C   0  0  0  0  0  0  0  0  0  0  0  0
   18.6503   -8.7644  -16.7339 O   0  0  0  0  0  0  0  0  0  0  0  0
   15.8918   -5.9593  -18.2983 C   0  0  0  0  0  0  0  0  0  0  0  0
   17.0585   -6.7184  -17.6782 C   0  0  2  0  0  0  0  0  0  0  0  0
   16.6339   -8.0933  -17.5556 N   0  0  0  0  0  0  0  0  0  0  0  0
   17.3546   -6.1011  -16.3657 C   0  0  0  0  0  0  0  0  0  0  0  0
   16.6930   -6.3241  -15.3240 O   0  0  0  0  0  0  0  0  0  0  0  0
   18.4447   -5.2074  -16.2750 N   0  0  0  0  0  0  0  0  0  0  0  0
   18.7709   -4.5742  -14.9432 C   0  0  1  0  0  0  0  0  0  0  0  0
   20.2124   -4.9066  -14.7783 C   0  0  0  0  0  0  0  0  0  0  0  0
   20.9288   -4.3468  -13.6290 C   0  0  0  0  0  0  0  0  0  0  0  0
   22.3470   -4.6873  -13.5554 C   0  0  0  0  0  0  0  0  0  0  0  0
   23.2277   -3.8728  -13.9685 O   0  0  0  0  0  0  0  0  0  0  0  0
   18.5203   -3.1325  -15.0478 C   0  0  0  0  0  0  0  0  0  0  0  0
   18.4741   -2.4748  -16.0963 O   0  0  0  0  0  0  0  0  0  0  0  0
   22.7629   -5.8988  -13.0308 O   0  0  0  0  0  0  0  0  0  0  0  0
   18.3125   -2.4332  -13.8300 O   0  0  0  0  0  0  0  0  0  0  0  0
  2  1  1  1
  2  9  1  0
  3  4  1  0
  3  2  1  0
  4  8  1  0
  4  5  2  0
  5  6  1  0
  7  6  1  0
  8  7  2  0
  9 13  1  0
  9 10  2  0
 12 11  1  1
 12 14  1  0
 13 12  1  0
 14 16  1  0
 14 15  2  0
 16 17  1  0
 17 22  1  0
 17 18  1  6
 19 20  1  0
 19 18  1  0
 20 24  1  0
 21 20  2  0
 22 25  1  0
 23 22  2  0
M  END
$$$$
