HAE.pdb
     RDKit          3D

 25 25  0  0  1  0  0  0  0  0999 V2000
   23.7972  -17.3693  -20.0468 N   0  0  0  0  0  0  0  0  0  0  0  0
   23.5343  -16.8547  -18.7214 C   0  0  1  0  0  0  0  0  0  0  0  0
   22.2759  -15.9892  -18.8374 C   0  0  0  0  0  0  0  0  0  0  0  0
   22.6010  -14.7490  -19.5710 C   0  0  0  0  0  0  0  0  0  0  0  0
   22.2100  -14.4458  -20.8476 C   0  0  0  0  0  0  0  0  0  0  0  0
   22.7251  -13.2122  -21.1272 N   0  0  0  0  0  0  0  0  0  0  0  0
   23.4133  -12.7597  -20.0658 C   0  0  0  0  0  0  0  0  0  0  0  0
   23.3266  -13.7218  -19.1118 N   0  0  0  0  0  0  0  0  0  0  0  0
   23.1871  -17.9371  -17.7601 C   0  0  0  0  0  0  0  0  0  0  0  0
   22.2867  -18.7548  -18.0906 O   0  0  0  0  0  0  0  0  0  0  0  0
   24.4174  -19.1825  -14.4797 C   0  0  0  0  0  0  0  0  0  0  0  0
   23.3637  -19.1274  -15.5790 C   0  0  2  0  0  0  0  0  0  0  0  0
   23.7947  -18.1100  -16.5089 N   0  0  0  0  0  0  0  0  0  0  0  0
   22.0658  -18.7995  -14.9469 C   0  0  0  0  0  0  0  0  0  0  0  0
   21.5796  -17.6443  -14.9094 O   0  0  0  0  0  0  0  0  0  0  0  0
   21.3274  -19.8449  -14.3492 N   0  0  0  0  0  0  0  0  0  0  0  0
   20.0441  -19.5197  -13.6223 C   0  0  1  0  0  0  0  0  0  0  0  0
   19.1667  -19.0420  -14.7257 C   0  0  0  0  0  0  0  0  0  0  0  0
   18.5944  -20.0345  -15.6394 C   0  0  0  0  0  0  0  0  0  0  0  0
   17.3947  -19.6037  -16.3520 C   0  0  0  0  0  0  0  0  0  0  0  0
   16.8135  -18.5202  -16.0392 O   0  0  0  0  0  0  0  0  0  0  0  0
   19.5538  -20.7477  -12.9867 C   0  0  0  0  0  0  0  0  0  0  0  0
   18.6318  -20.8244  -12.1633 O   0  0  0  0  0  0  0  0  0  0  0  0
   16.8684  -20.3607  -17.3844 O   0  0  0  0  0  0  0  0  0  0  0  0
   20.2013  -21.9563  -13.3546 O   0  0  0  0  0  0  0  0  0  0  0  0
  2  1  1  6
  2  9  1  0
  3  4  1  0
  3  2  1  0
  4  8  1  0
  4  5  2  0
  5  6  1  0
  7  6  1  0
  8  7  2  0
  9 13  1  0
  9 10  2  0
 12 11  1  1
 12 14  1  0
 13 12  1  0
 14 16  1  0
 14 15  2  0
 16 17  1  0
 17 22  1  0
 17 18  1  6
 19 20  1  0
 19 18  1  0
 20 24  1  0
 21 20  2  0
 22 25  1  0
 23 22  2  0
M  END
$$$$
