HAE.pdb
     RDKit          3D

 25 25  0  0  1  0  0  0  0  0999 V2000
   28.0412  -35.8423   -8.0619 N   0  0  0  0  0  0  0  0  0  0  0  0
   28.7586  -34.8256   -7.3257 C   0  0  1  0  0  0  0  0  0  0  0  0
   27.7185  -34.1034   -6.4638 C   0  0  0  0  0  0  0  0  0  0  0  0
   26.9593  -33.1555   -7.3047 C   0  0  0  0  0  0  0  0  0  0  0  0
   27.2156  -32.8647   -8.6178 C   0  0  0  0  0  0  0  0  0  0  0  0
   26.2791  -31.9472   -9.0006 N   0  0  0  0  0  0  0  0  0  0  0  0
   25.4669  -31.6734   -7.9662 C   0  0  0  0  0  0  0  0  0  0  0  0
   25.9009  -32.4290   -6.9251 N   0  0  0  0  0  0  0  0  0  0  0  0
   29.7335  -35.4131   -6.3662 C   0  0  0  0  0  0  0  0  0  0  0  0
   29.3911  -36.4493   -5.7356 O   0  0  0  0  0  0  0  0  0  0  0  0
   33.1687  -34.6302   -5.1519 C   0  0  0  0  0  0  0  0  0  0  0  0
   31.8916  -35.4608   -5.1229 C   0  0  2  0  0  0  0  0  0  0  0  0
   31.0101  -34.8918   -6.1153 N   0  0  0  0  0  0  0  0  0  0  0  0
   31.3286  -35.3789   -3.7562 C   0  0  0  0  0  0  0  0  0  0  0  0
   30.4448  -34.5582   -3.4131 O   0  0  0  0  0  0  0  0  0  0  0  0
   31.8115  -36.2750   -2.7768 N   0  0  0  0  0  0  0  0  0  0  0  0
   31.1553  -36.3051   -1.4168 C   0  0  1  0  0  0  0  0  0  0  0  0
   31.5231  -37.6578   -0.9167 C   0  0  0  0  0  0  0  0  0  0  0  0
   31.1430  -38.0217    0.4510 C   0  0  0  0  0  0  0  0  0  0  0  0
   31.5613  -39.3540    0.8782 C   0  0  0  0  0  0  0  0  0  0  0  0
   31.3734  -39.7362    2.0733 O   0  0  0  0  0  0  0  0  0  0  0  0
   31.7226  -35.2187   -0.6103 C   0  0  0  0  0  0  0  0  0  0  0  0
   31.1570  -34.6305    0.3214 O   0  0  0  0  0  0  0  0  0  0  0  0
   32.1651  -40.2297   -0.0074 O   0  0  0  0  0  0  0  0  0  0  0  0
   33.0427  -34.8091   -0.9339 O   0  0  0  0  0  0  0  0  0  0  0  0
  2  1  1  1
  2  9  1  0
  3  4  1  0
  3  2  1  0
  4  8  1  0
  4  5  2  0
  5  6  1  0
  7  6  1  0
  8  7  2  0
  9 13  1  0
  9 10  2  0
 12 11  1  1
 12 14  1  0
 13 12  1  0
 14 16  1  0
 14 15  2  0
 16 17  1  0
 17 22  1  0
 17 18  1  1
 19 20  1  0
 19 18  1  0
 20 24  1  0
 21 20  2  0
 22 25  1  0
 23 22  2  0
M  END
$$$$
