YMI.pdb
     RDKit          3D

 29 29  0  0  1  0  0  0  0  0999 V2000
   13.7176  -22.1693   18.3223 O   0  0  0  0  0  0  0  0  0  0  0  0
   13.3754  -21.0204   19.0455 C   0  0  0  0  0  0  0  0  0  0  0  0
   14.3597  -20.2433   19.6192 C   0  0  0  0  0  0  0  0  0  0  0  0
   14.0026  -19.1104   20.3311 C   0  0  0  0  0  0  0  0  0  0  0  0
   12.6883  -18.7143   20.4968 C   0  0  0  0  0  0  0  0  0  0  0  0
   12.3971  -17.5033   21.2666 C   0  0  0  0  0  0  0  0  0  0  0  0
   11.0963  -16.8296   20.8997 C   0  0  2  0  0  0  0  0  0  0  0  0
   11.3808  -15.8212   19.9051 N   0  0  0  0  0  0  0  0  0  0  0  0
   10.5880  -16.1183   22.1222 C   0  0  0  0  0  0  0  0  0  0  0  0
   11.1182  -15.0267   22.4940 O   0  0  0  0  0  0  0  0  0  0  0  0
   11.7139  -19.5034   19.9157 C   0  0  0  0  0  0  0  0  0  0  0  0
   12.0683  -20.6306   19.2078 C   0  0  0  0  0  0  0  0  0  0  0  0
    6.1368  -12.5158   25.5098 C   0  0  0  0  0  0  0  0  0  0  0  0
    7.0804  -14.0407   25.4793 S   0  0  0  0  0  0  0  0  0  0  0  0
    6.6671  -15.0421   23.9867 C   0  0  0  0  0  0  0  0  0  0  0  0
    7.5216  -16.2534   23.9833 C   0  0  0  0  0  0  0  0  0  0  0  0
    9.0087  -16.0241   24.0304 C   0  0  2  0  0  0  0  0  0  0  0  0
    9.5164  -16.7091   22.8238 N   0  0  0  0  0  0  0  0  0  0  0  0
    9.6876  -16.5117   25.2243 C   0  0  0  0  0  0  0  0  0  0  0  0
   10.2648  -17.6298   25.1988 O   0  0  0  0  0  0  0  0  0  0  0  0
    9.9994  -12.7933   29.2288 C   0  0  0  0  0  0  0  0  0  0  0  0
   10.4756  -13.8261   28.2800 C   0  0  0  0  0  0  0  0  0  0  0  0
   10.2725  -15.2458   28.6494 C   0  0  2  0  0  0  0  0  0  0  0  0
   10.9038  -15.5358   29.9718 C   0  0  0  0  0  0  0  0  0  0  0  0
   10.4869  -16.2834   27.6011 C   0  0  2  0  0  0  0  0  0  0  0  0
    9.7310  -15.7736   26.4210 N   0  0  0  0  0  0  0  0  0  0  0  0
    9.9901  -17.6273   27.9020 C   0  0  0  0  0  0  0  0  0  0  0  0
    8.7797  -17.9063   27.7591 O   0  0  0  0  0  0  0  0  0  0  0  0
   10.8206  -18.6417   28.3519 O   0  0  0  0  0  0  0  0  0  0  0  0
  1  2  1  0
  2  3  2  0
  3  4  1  0
  5  4  2  0
  5  6  1  0
  7  6  1  0
  7  8  1  6
  9  7  1  0
 10  9  2  0
 11  5  1  0
 12  2  1  0
 12 11  2  0
 14 15  1  0
 14 13  1  0
 17 16  1  1
 16 15  1  0
 17 18  1  0
 18  9  1  0
 19 26  1  0
 19 17  1  0
 20 19  2  0
 22 21  1  0
 22 23  1  0
 23 24  1  1
 25 23  1  0
 25 26  1  6
 27 25  1  0
 27 29  1  0
 28 27  2  0
M  END
$$$$
