YMI.pdb
     RDKit          3D

 29 29  0  0  1  0  0  0  0  0999 V2000
    6.7188  -22.2877   17.7099 O   0  0  0  0  0  0  0  0  0  0  0  0
    7.2294  -21.3998   18.6644 C   0  0  0  0  0  0  0  0  0  0  0  0
    8.5862  -21.3457   18.9053 C   0  0  0  0  0  0  0  0  0  0  0  0
    9.0735  -20.4613   19.8532 C   0  0  0  0  0  0  0  0  0  0  0  0
    8.2541  -19.6174   20.5799 C   0  0  0  0  0  0  0  0  0  0  0  0
    8.8509  -18.7136   21.5653 C   0  0  0  0  0  0  0  0  0  0  0  0
    8.9076  -17.2683   21.1311 C   0  0  2  0  0  0  0  0  0  0  0  0
    9.8883  -17.1571   20.0763 N   0  0  0  0  0  0  0  0  0  0  0  0
    9.4107  -16.4600   22.2940 C   0  0  0  0  0  0  0  0  0  0  0  0
   10.6578  -16.3136   22.4794 O   0  0  0  0  0  0  0  0  0  0  0  0
    6.8972  -19.6836   20.3266 C   0  0  0  0  0  0  0  0  0  0  0  0
    6.4118  -20.5632   19.3843 C   0  0  0  0  0  0  0  0  0  0  0  0
    5.6300  -12.4892   27.5511 C   0  0  0  0  0  0  0  0  0  0  0  0
    6.3683  -12.2759   25.9305 S   0  0  0  0  0  0  0  0  0  0  0  0
    7.9085  -13.2778   25.7707 C   0  0  0  0  0  0  0  0  0  0  0  0
    7.8118  -14.0926   24.5362 C   0  0  0  0  0  0  0  0  0  0  0  0
    8.9306  -15.0690   24.2887 C   0  0  2  0  0  0  0  0  0  0  0  0
    8.4518  -15.8841   23.1532 N   0  0  0  0  0  0  0  0  0  0  0  0
    9.2920  -15.9180   25.4168 C   0  0  0  0  0  0  0  0  0  0  0  0
    8.5418  -16.8754   25.7403 O   0  0  0  0  0  0  0  0  0  0  0  0
   14.6293  -17.5136   27.9579 C   0  0  0  0  0  0  0  0  0  0  0  0
   13.1511  -17.5482   28.0425 C   0  0  0  0  0  0  0  0  0  0  0  0
   12.3880  -16.6892   27.1080 C   0  0  2  0  0  0  0  0  0  0  0  0
   12.9973  -15.3272   27.0365 C   0  0  0  0  0  0  0  0  0  0  0  0
   10.8996  -16.7172   27.1823 C   0  0  2  0  0  0  0  0  0  0  0  0
   10.4633  -15.7143   26.1686 N   0  0  0  0  0  0  0  0  0  0  0  0
   10.3033  -16.3422   28.4657 C   0  0  0  0  0  0  0  0  0  0  0  0
    9.7785  -15.2180   28.6205 O   0  0  0  0  0  0  0  0  0  0  0  0
   10.2891  -17.1986   29.5555 O   0  0  0  0  0  0  0  0  0  0  0  0
  1  2  1  0
  2  3  2  0
  3  4  1  0
  5  4  2  0
  5  6  1  0
  7  6  1  0
  7  8  1  6
  9  7  1  0
 10  9  2  0
 11  5  1  0
 12  2  1  0
 12 11  2  0
 14 15  1  0
 14 13  1  0
 17 16  1  1
 16 15  1  0
 17 18  1  0
 18  9  1  0
 19 26  1  0
 19 17  1  0
 20 19  2  0
 22 21  1  0
 22 23  1  0
 23 24  1  1
 25 23  1  0
 25 26  1  6
 27 25  1  0
 27 29  1  0
 28 27  2  0
M  END
$$$$
