YMI.pdb
     RDKit          3D

 29 29  0  0  1  0  0  0  0  0999 V2000
    8.5814  -14.8288   13.9254 O   0  0  0  0  0  0  0  0  0  0  0  0
    8.3867  -14.6048   15.2937 C   0  0  0  0  0  0  0  0  0  0  0  0
    9.4590  -14.3011   16.1060 C   0  0  0  0  0  0  0  0  0  0  0  0
    9.2477  -14.0827   17.4571 C   0  0  0  0  0  0  0  0  0  0  0  0
    7.9959  -14.1549   18.0398 C   0  0  0  0  0  0  0  0  0  0  0  0
    7.8602  -13.9120   19.4773 C   0  0  0  0  0  0  0  0  0  0  0  0
    8.3488  -15.0441   20.3493 C   0  0  2  0  0  0  0  0  0  0  0  0
    7.5636  -16.2166   20.0403 N   0  0  0  0  0  0  0  0  0  0  0  0
    8.0602  -14.6789   21.7784 C   0  0  0  0  0  0  0  0  0  0  0  0
    7.1609  -13.8260   22.0517 O   0  0  0  0  0  0  0  0  0  0  0  0
    6.9319  -14.4599   17.2123 C   0  0  0  0  0  0  0  0  0  0  0  0
    7.1413  -14.6775   15.8684 C   0  0  0  0  0  0  0  0  0  0  0  0
    7.0224  -12.6277   27.3111 C   0  0  0  0  0  0  0  0  0  0  0  0
    6.1635  -13.2529   25.8661 S   0  0  0  0  0  0  0  0  0  0  0  0
    6.4477  -15.0638   25.6625 C   0  0  0  0  0  0  0  0  0  0  0  0
    7.0484  -15.2970   24.3275 C   0  0  0  0  0  0  0  0  0  0  0  0
    8.5182  -15.0002   24.1933 C   0  0  2  0  0  0  0  0  0  0  0  0
    8.8209  -15.3147   22.7817 N   0  0  0  0  0  0  0  0  0  0  0  0
    9.3986  -15.7415   25.0871 C   0  0  0  0  0  0  0  0  0  0  0  0
    9.8398  -16.8662   24.7342 O   0  0  0  0  0  0  0  0  0  0  0  0
   10.8254  -13.8517   30.4098 C   0  0  0  0  0  0  0  0  0  0  0  0
   10.2796  -14.5206   29.2063 C   0  0  0  0  0  0  0  0  0  0  0  0
   11.2411  -14.9737   28.1751 C   0  0  2  0  0  0  0  0  0  0  0  0
   11.9841  -13.8088   27.6075 C   0  0  0  0  0  0  0  0  0  0  0  0
   10.7808  -15.9816   27.1781 C   0  0  2  0  0  0  0  0  0  0  0  0
    9.7874  -15.2452   26.3446 N   0  0  0  0  0  0  0  0  0  0  0  0
   10.1184  -17.1727   27.7127 C   0  0  0  0  0  0  0  0  0  0  0  0
   10.7845  -18.0899   28.2403 O   0  0  0  0  0  0  0  0  0  0  0  0
    8.7436  -17.3420   27.6635 O   0  0  0  0  0  0  0  0  0  0  0  0
  1  2  1  0
  2  3  2  0
  3  4  1  0
  5  4  2  0
  5  6  1  0
  7  6  1  0
  7  8  1  6
  9  7  1  0
 10  9  2  0
 11  5  1  0
 12  2  1  0
 12 11  2  0
 14 15  1  0
 14 13  1  0
 17 16  1  1
 16 15  1  0
 17 18  1  0
 18  9  1  0
 19 26  1  0
 19 17  1  0
 20 19  2  0
 22 21  1  0
 22 23  1  0
 23 24  1  6
 25 23  1  0
 25 26  1  6
 27 25  1  0
 27 29  1  0
 28 27  2  0
M  END
$$$$
