YMI.pdb
     RDKit          3D

 29 29  0  0  1  0  0  0  0  0999 V2000
    7.6702  -14.8937   14.7214 O   0  0  0  0  0  0  0  0  0  0  0  0
    7.8786  -14.6326   16.0811 C   0  0  0  0  0  0  0  0  0  0  0  0
    8.4950  -15.5718   16.8809 C   0  0  0  0  0  0  0  0  0  0  0  0
    8.6928  -15.2965   18.2236 C   0  0  0  0  0  0  0  0  0  0  0  0
    8.2970  -14.1084   18.8098 C   0  0  0  0  0  0  0  0  0  0  0  0
    8.5423  -13.8982   20.2380 C   0  0  0  0  0  0  0  0  0  0  0  0
    9.1289  -15.0928   20.9518 C   0  0  2  0  0  0  0  0  0  0  0  0
    8.2685  -16.2268   20.7059 N   0  0  0  0  0  0  0  0  0  0  0  0
    9.0845  -14.8119   22.4276 C   0  0  0  0  0  0  0  0  0  0  0  0
    9.7521  -13.8492   22.9160 O   0  0  0  0  0  0  0  0  0  0  0  0
    7.6811  -13.1777   17.9949 C   0  0  0  0  0  0  0  0  0  0  0  0
    7.4837  -13.4510   16.6594 C   0  0  0  0  0  0  0  0  0  0  0  0
    5.3912  -11.8728   26.3517 C   0  0  0  0  0  0  0  0  0  0  0  0
    6.5534  -13.2163   26.1047 S   0  0  0  0  0  0  0  0  0  0  0  0
    5.8091  -14.5503   25.0711 C   0  0  0  0  0  0  0  0  0  0  0  0
    6.7582  -15.6878   25.0190 C   0  0  0  0  0  0  0  0  0  0  0  0
    8.1849  -15.3544   24.6728 C   0  0  2  0  0  0  0  0  0  0  0  0
    8.2832  -15.6518   23.2289 N   0  0  0  0  0  0  0  0  0  0  0  0
    9.2044  -16.0803   25.4194 C   0  0  0  0  0  0  0  0  0  0  0  0
    9.8378  -17.0138   24.8613 O   0  0  0  0  0  0  0  0  0  0  0  0
   10.8241  -13.4186   29.7455 C   0  0  0  0  0  0  0  0  0  0  0  0
   11.0199  -14.2673   28.5476 C   0  0  0  0  0  0  0  0  0  0  0  0
   10.8406  -15.7292   28.7031 C   0  0  2  0  0  0  0  0  0  0  0  0
   11.8755  -16.2860   29.6253 C   0  0  0  0  0  0  0  0  0  0  0  0
   10.5757  -16.5397   27.4807 C   0  0  2  0  0  0  0  0  0  0  0  0
    9.5202  -15.7753   26.7558 N   0  0  0  0  0  0  0  0  0  0  0  0
   10.0743  -17.8985   27.6949 C   0  0  0  0  0  0  0  0  0  0  0  0
    8.8650  -18.1004   27.9401 O   0  0  0  0  0  0  0  0  0  0  0  0
   10.8988  -19.0111   27.6371 O   0  0  0  0  0  0  0  0  0  0  0  0
  1  2  1  0
  2  3  2  0
  3  4  1  0
  5  4  2  0
  5  6  1  0
  7  6  1  0
  7  8  1  1
  9  7  1  0
 10  9  2  0
 11  5  1  0
 12  2  1  0
 12 11  2  0
 14 15  1  0
 14 13  1  0
 17 16  1  1
 16 15  1  0
 17 18  1  0
 18  9  1  0
 19 26  1  0
 19 17  1  0
 20 19  2  0
 22 21  1  0
 22 23  1  0
 23 24  1  6
 25 23  1  0
 25 26  1  6
 27 25  1  0
 27 29  1  0
 28 27  2  0
M  END
$$$$
