YMI.pdb
     RDKit          3D

 29 29  0  0  1  0  0  0  0  0999 V2000
    8.5295  -22.5736   17.1160 O   0  0  0  0  0  0  0  0  0  0  0  0
    8.7912  -21.4240   17.8712 C   0  0  0  0  0  0  0  0  0  0  0  0
    9.6845  -21.4722   18.9207 C   0  0  0  0  0  0  0  0  0  0  0  0
    9.9309  -20.3253   19.6567 C   0  0  0  0  0  0  0  0  0  0  0  0
    9.3164  -19.1165   19.3864 C   0  0  0  0  0  0  0  0  0  0  0  0
    9.6320  -17.9517   20.2155 C   0  0  0  0  0  0  0  0  0  0  0  0
    9.3668  -18.1459   21.6895 C   0  0  2  0  0  0  0  0  0  0  0  0
    7.9549  -18.4000   21.8595 N   0  0  0  0  0  0  0  0  0  0  0  0
    9.6727  -16.8491   22.3848 C   0  0  0  0  0  0  0  0  0  0  0  0
   10.8174  -16.3137   22.2656 O   0  0  0  0  0  0  0  0  0  0  0  0
    8.4242  -19.0847   18.3315 C   0  0  0  0  0  0  0  0  0  0  0  0
    8.1784  -20.2251   17.5992 C   0  0  0  0  0  0  0  0  0  0  0  0
    5.8735  -11.5589   26.8977 C   0  0  0  0  0  0  0  0  0  0  0  0
    5.9253  -12.9687   25.7902 S   0  0  0  0  0  0  0  0  0  0  0  0
    7.6660  -13.4551   25.4230 C   0  0  0  0  0  0  0  0  0  0  0  0
    7.6440  -14.6182   24.5042 C   0  0  0  0  0  0  0  0  0  0  0  0
    8.9731  -15.0630   23.9548 C   0  0  2  0  0  0  0  0  0  0  0  0
    8.6494  -16.2666   23.1614 N   0  0  0  0  0  0  0  0  0  0  0  0
   10.0010  -15.3589   24.9446 C   0  0  0  0  0  0  0  0  0  0  0  0
   10.9346  -14.5369   25.1368 O   0  0  0  0  0  0  0  0  0  0  0  0
    9.9824  -13.4570   28.8527 C   0  0  0  0  0  0  0  0  0  0  0  0
   10.5524  -14.3355   27.8053 C   0  0  0  0  0  0  0  0  0  0  0  0
   10.3066  -15.7914   27.9195 C   0  0  2  0  0  0  0  0  0  0  0  0
   10.4871  -16.2412   29.3325 C   0  0  0  0  0  0  0  0  0  0  0  0
   10.8977  -16.6882   26.8861 C   0  0  2  0  0  0  0  0  0  0  0  0
    9.9926  -16.5389   25.7104 N   0  0  0  0  0  0  0  0  0  0  0  0
   10.9645  -18.1123   27.2191 C   0  0  0  0  0  0  0  0  0  0  0  0
   10.0061  -18.8728   26.9617 O   0  0  0  0  0  0  0  0  0  0  0  0
   12.0738  -18.6811   27.8251 O   0  0  0  0  0  0  0  0  0  0  0  0
  1  2  1  0
  2  3  2  0
  3  4  1  0
  5  4  2  0
  5  6  1  0
  7  6  1  0
  7  8  1  6
  9  7  1  0
 10  9  2  0
 11  5  1  0
 12  2  1  0
 12 11  2  0
 14 15  1  0
 14 13  1  0
 17 16  1  1
 16 15  1  0
 17 18  1  0
 18  9  1  0
 19 26  1  0
 19 17  1  0
 20 19  2  0
 22 21  1  0
 22 23  1  0
 23 24  1  1
 25 23  1  0
 25 26  1  6
 27 25  1  0
 27 29  1  0
 28 27  2  0
M  END
$$$$
