YMI.pdb
     RDKit          3D

 29 29  0  0  1  0  0  0  0  0999 V2000
   12.7268  -22.6229   17.9975 O   0  0  0  0  0  0  0  0  0  0  0  0
   12.4746  -21.5600   18.8732 C   0  0  0  0  0  0  0  0  0  0  0  0
   13.5142  -20.7800   19.3345 C   0  0  0  0  0  0  0  0  0  0  0  0
   13.2459  -19.7329   20.2003 C   0  0  0  0  0  0  0  0  0  0  0  0
   11.9681  -19.4267   20.6306 C   0  0  0  0  0  0  0  0  0  0  0  0
   11.7720  -18.3031   21.5488 C   0  0  0  0  0  0  0  0  0  0  0  0
   10.8673  -17.2161   21.0190 C   0  0  2  0  0  0  0  0  0  0  0  0
   11.6282  -16.4169   20.0868 N   0  0  0  0  0  0  0  0  0  0  0  0
   10.4981  -16.3251   22.1716 C   0  0  0  0  0  0  0  0  0  0  0  0
   11.3291  -15.4736   22.6137 O   0  0  0  0  0  0  0  0  0  0  0  0
   10.9375  -20.2174   20.1591 C   0  0  0  0  0  0  0  0  0  0  0  0
   11.2036  -21.2593   19.2983 C   0  0  0  0  0  0  0  0  0  0  0  0
    6.3967  -12.0868   26.1645 C   0  0  0  0  0  0  0  0  0  0  0  0
    7.2367  -13.0269   24.8888 S   0  0  0  0  0  0  0  0  0  0  0  0
    6.6662  -14.7807   24.8787 C   0  0  0  0  0  0  0  0  0  0  0  0
    7.3472  -15.4889   23.7687 C   0  0  0  0  0  0  0  0  0  0  0  0
    8.8425  -15.6251   23.8785 C   0  0  2  0  0  0  0  0  0  0  0  0
    9.2112  -16.4768   22.7288 N   0  0  0  0  0  0  0  0  0  0  0  0
    9.3369  -16.1978   25.1240 C   0  0  0  0  0  0  0  0  0  0  0  0
    9.2800  -17.4425   25.3023 O   0  0  0  0  0  0  0  0  0  0  0  0
    9.6121  -14.1377   30.3410 C   0  0  0  0  0  0  0  0  0  0  0  0
    9.6972  -14.1585   28.8625 C   0  0  0  0  0  0  0  0  0  0  0  0
   10.8230  -14.8991   28.2484 C   0  0  2  0  0  0  0  0  0  0  0  0
   11.8512  -13.9480   27.7292 C   0  0  0  0  0  0  0  0  0  0  0  0
   10.5048  -16.0447   27.3495 C   0  0  2  0  0  0  0  0  0  0  0  0
    9.8882  -15.4088   26.1498 N   0  0  0  0  0  0  0  0  0  0  0  0
    9.5580  -17.0352   27.8652 C   0  0  0  0  0  0  0  0  0  0  0  0
    8.3588  -17.0149   27.5121 O   0  0  0  0  0  0  0  0  0  0  0  0
    9.9351  -18.0291   28.7546 O   0  0  0  0  0  0  0  0  0  0  0  0
  1  2  1  0
  2  3  2  0
  3  4  1  0
  5  4  2  0
  5  6  1  0
  7  6  1  0
  7  8  1  6
  9  7  1  0
 10  9  2  0
 11  5  1  0
 12  2  1  0
 12 11  2  0
 14 15  1  0
 14 13  1  0
 17 16  1  1
 16 15  1  0
 17 18  1  0
 18  9  1  0
 19 26  1  0
 19 17  1  0
 20 19  2  0
 22 21  1  0
 22 23  1  0
 23 24  1  6
 25 23  1  0
 25 26  1  6
 27 25  1  0
 27 29  1  0
 28 27  2  0
M  END
$$$$
