YMI.pdb
     RDKit          3D

 29 29  0  0  1  0  0  0  0  0999 V2000
    6.1679  -21.9900   27.7563 O   0  0  0  0  0  0  0  0  0  0  0  0
    6.5178  -21.4990   26.4927 C   0  0  0  0  0  0  0  0  0  0  0  0
    5.6352  -21.6058   25.4385 C   0  0  0  0  0  0  0  0  0  0  0  0
    5.9983  -21.1146   24.1956 C   0  0  0  0  0  0  0  0  0  0  0  0
    7.2202  -20.5131   23.9568 C   0  0  0  0  0  0  0  0  0  0  0  0
    7.5258  -20.0223   22.6116 C   0  0  0  0  0  0  0  0  0  0  0  0
    6.7644  -18.7803   22.2136 C   0  0  2  0  0  0  0  0  0  0  0  0
    6.8879  -18.6200   20.7833 N   0  0  0  0  0  0  0  0  0  0  0  0
    7.4429  -17.6021   22.8540 C   0  0  0  0  0  0  0  0  0  0  0  0
    8.5186  -17.1394   22.3643 O   0  0  0  0  0  0  0  0  0  0  0  0
    8.0932  -20.4135   25.0235 C   0  0  0  0  0  0  0  0  0  0  0  0
    7.7328  -20.9022   26.2598 C   0  0  0  0  0  0  0  0  0  0  0  0
    5.6368  -11.3760   25.4498 C   0  0  0  0  0  0  0  0  0  0  0  0
    5.4264  -12.8738   26.4136 S   0  0  0  0  0  0  0  0  0  0  0  0
    6.8592  -14.0122   26.1838 C   0  0  0  0  0  0  0  0  0  0  0  0
    6.4468  -15.1072   25.2737 C   0  0  0  0  0  0  0  0  0  0  0  0
    7.5513  -15.9582   24.7061 C   0  0  2  0  0  0  0  0  0  0  0  0
    6.8413  -17.0461   24.0023 N   0  0  0  0  0  0  0  0  0  0  0  0
    8.4951  -16.5007   25.6751 C   0  0  0  0  0  0  0  0  0  0  0  0
    8.2473  -17.5992   26.2372 O   0  0  0  0  0  0  0  0  0  0  0  0
   10.6542  -13.9312   29.8539 C   0  0  0  0  0  0  0  0  0  0  0  0
   10.1653  -14.9216   28.8671 C   0  0  0  0  0  0  0  0  0  0  0  0
   11.1146  -15.3849   27.8291 C   0  0  2  0  0  0  0  0  0  0  0  0
   11.7595  -14.2185   27.1546 C   0  0  0  0  0  0  0  0  0  0  0  0
   10.6829  -16.4856   26.9215 C   0  0  2  0  0  0  0  0  0  0  0  0
    9.6920  -15.8426   26.0113 N   0  0  0  0  0  0  0  0  0  0  0  0
   10.0289  -17.6332   27.5530 C   0  0  0  0  0  0  0  0  0  0  0  0
    8.7827  -17.7343   27.5565 O   0  0  0  0  0  0  0  0  0  0  0  0
   10.7442  -18.6490   28.1676 O   0  0  0  0  0  0  0  0  0  0  0  0
  1  2  1  0
  2  3  2  0
  3  4  1  0
  5  4  2  0
  5  6  1  0
  7  6  1  0
  7  8  1  6
  9  7  1  0
 10  9  2  0
 11  5  1  0
 12  2  1  0
 12 11  2  0
 14 15  1  0
 14 13  1  0
 17 16  1  1
 16 15  1  0
 17 18  1  0
 18  9  1  0
 19 26  1  0
 19 17  1  0
 20 19  2  0
 22 21  1  0
 22 23  1  0
 23 24  1  6
 25 23  1  0
 25 26  1  6
 27 25  1  0
 27 29  1  0
 28 27  2  0
M  END
$$$$
