YMI.pdb
     RDKit          3D

 29 29  0  0  1  0  0  0  0  0999 V2000
    7.3465  -11.6961   26.9165 O   0  0  0  0  0  0  0  0  0  0  0  0
    6.8686  -12.8748   26.3312 C   0  0  0  0  0  0  0  0  0  0  0  0
    6.2682  -13.8417   27.1099 C   0  0  0  0  0  0  0  0  0  0  0  0
    5.8015  -15.0013   26.5139 C   0  0  0  0  0  0  0  0  0  0  0  0
    5.9092  -15.2402   25.1562 C   0  0  0  0  0  0  0  0  0  0  0  0
    5.3909  -16.4945   24.6067 C   0  0  0  0  0  0  0  0  0  0  0  0
    6.3147  -17.6773   24.7753 C   0  0  2  0  0  0  0  0  0  0  0  0
    6.5281  -17.8791   26.1897 N   0  0  0  0  0  0  0  0  0  0  0  0
    7.6420  -17.3116   24.1725 C   0  0  0  0  0  0  0  0  0  0  0  0
    8.6975  -17.9163   24.5347 O   0  0  0  0  0  0  0  0  0  0  0  0
    6.5128  -14.2615   24.3897 C   0  0  0  0  0  0  0  0  0  0  0  0
    6.9776  -13.1080   24.9820 C   0  0  0  0  0  0  0  0  0  0  0  0
    8.5153  -11.9339   20.0731 C   0  0  0  0  0  0  0  0  0  0  0  0
    8.8918  -13.4733   19.2334 S   0  0  0  0  0  0  0  0  0  0  0  0
    9.5815  -14.7146   20.4103 C   0  0  0  0  0  0  0  0  0  0  0  0
    8.5331  -15.0537   21.4019 C   0  0  0  0  0  0  0  0  0  0  0  0
    8.9216  -16.0295   22.4804 C   0  0  2  0  0  0  0  0  0  0  0  0
    7.6599  -16.2847   23.2057 N   0  0  0  0  0  0  0  0  0  0  0  0
    9.9616  -15.5800   23.3970 C   0  0  0  0  0  0  0  0  0  0  0  0
   10.4805  -14.4441   23.2404 O   0  0  0  0  0  0  0  0  0  0  0  0
    9.2495  -13.6174   27.6277 C   0  0  0  0  0  0  0  0  0  0  0  0
   10.0563  -14.0640   26.4687 C   0  0  0  0  0  0  0  0  0  0  0  0
   10.7463  -15.3703   26.5731 C   0  0  2  0  0  0  0  0  0  0  0  0
   11.4846  -15.4677   27.8680 C   0  0  0  0  0  0  0  0  0  0  0  0
   11.4851  -15.8732   25.3802 C   0  0  2  0  0  0  0  0  0  0  0  0
   10.4145  -16.3704   24.4690 N   0  0  0  0  0  0  0  0  0  0  0  0
   12.4220  -16.9746   25.6097 C   0  0  0  0  0  0  0  0  0  0  0  0
   13.5294  -16.7670   26.1518 O   0  0  0  0  0  0  0  0  0  0  0  0
   12.1348  -18.2808   25.2455 O   0  0  0  0  0  0  0  0  0  0  0  0
  1  2  1  0
  2  3  2  0
  3  4  1  0
  5  4  2  0
  5  6  1  0
  7  6  1  0
  7  8  1  1
  9  7  1  0
 10  9  2  0
 11  5  1  0
 12  2  1  0
 12 11  2  0
 14 15  1  0
 14 13  1  0
 17 16  1  6
 16 15  1  0
 17 18  1  0
 18  9  1  0
 19 26  1  0
 19 17  1  0
 20 19  2  0
 22 21  1  0
 22 23  1  0
 23 24  1  1
 25 23  1  0
 25 26  1  6
 27 25  1  0
 27 29  1  0
 28 27  2  0
M  END
$$$$
