YMI.pdb
     RDKit          3D

 29 29  0  0  1  0  0  0  0  0999 V2000
    6.2293  -23.2810   28.8144 O   0  0  0  0  0  0  0  0  0  0  0  0
    6.6451  -22.3345   27.8703 C   0  0  0  0  0  0  0  0  0  0  0  0
    6.4810  -20.9881   28.1196 C   0  0  0  0  0  0  0  0  0  0  0  0
    6.8981  -20.0661   27.1742 C   0  0  0  0  0  0  0  0  0  0  0  0
    7.4800  -20.4349   25.9754 C   0  0  0  0  0  0  0  0  0  0  0  0
    7.8910  -19.3956   25.0294 C   0  0  0  0  0  0  0  0  0  0  0  0
    6.7842  -18.8987   24.1301 C   0  0  2  0  0  0  0  0  0  0  0  0
    6.8522  -19.6357   22.8895 N   0  0  0  0  0  0  0  0  0  0  0  0
    7.0673  -17.4582   23.8082 C   0  0  0  0  0  0  0  0  0  0  0  0
    7.8979  -17.1576   22.8967 O   0  0  0  0  0  0  0  0  0  0  0  0
    7.6377  -21.7876   25.7409 C   0  0  0  0  0  0  0  0  0  0  0  0
    7.2228  -22.7053   26.6805 C   0  0  0  0  0  0  0  0  0  0  0  0
    6.4989  -10.4778   24.9436 C   0  0  0  0  0  0  0  0  0  0  0  0
    5.5683  -11.8362   25.6545 S   0  0  0  0  0  0  0  0  0  0  0  0
    6.6970  -13.1653   26.2555 C   0  0  0  0  0  0  0  0  0  0  0  0
    6.1902  -14.4687   25.7638 C   0  0  0  0  0  0  0  0  0  0  0  0
    7.0056  -15.1436   24.6933 C   0  0  2  0  0  0  0  0  0  0  0  0
    6.3816  -16.4754   24.5522 N   0  0  0  0  0  0  0  0  0  0  0  0
    8.4316  -15.2686   24.9670 C   0  0  0  0  0  0  0  0  0  0  0  0
    9.2495  -14.5350   24.3530 O   0  0  0  0  0  0  0  0  0  0  0  0
    9.4648  -14.0241   29.6148 C   0  0  0  0  0  0  0  0  0  0  0  0
    9.7609  -14.3226   28.1946 C   0  0  0  0  0  0  0  0  0  0  0  0
   10.1722  -15.7037   27.8530 C   0  0  2  0  0  0  0  0  0  0  0  0
   11.2785  -16.1549   28.7496 C   0  0  0  0  0  0  0  0  0  0  0  0
   10.3374  -16.0531   26.4135 C   0  0  2  0  0  0  0  0  0  0  0  0
    8.9415  -16.1838   25.9056 N   0  0  0  0  0  0  0  0  0  0  0  0
   11.0368  -17.3059   26.1224 C   0  0  0  0  0  0  0  0  0  0  0  0
   10.4150  -18.3901   26.0885 O   0  0  0  0  0  0  0  0  0  0  0  0
   12.3994  -17.3541   25.8730 O   0  0  0  0  0  0  0  0  0  0  0  0
  1  2  1  0
  2  3  2  0
  3  4  1  0
  5  4  2  0
  5  6  1  0
  7  6  1  0
  7  8  1  6
  9  7  1  0
 10  9  2  0
 11  5  1  0
 12  2  1  0
 12 11  2  0
 14 15  1  0
 14 13  1  0
 17 16  1  1
 16 15  1  0
 17 18  1  0
 18  9  1  0
 19 26  1  0
 19 17  1  0
 20 19  2  0
 22 21  1  0
 22 23  1  0
 23 24  1  1
 25 23  1  0
 25 26  1  1
 27 25  1  0
 27 29  1  0
 28 27  2  0
M  END
$$$$
