FDT.pdb
     RDKit          3D

 27 27  0  0  1  0  0  0  0  0999 V2000
   27.7606  -20.8967  -10.9673 N   0  0  0  0  0  0  0  0  0  0  0  0
   26.3480  -21.0847  -10.8297 C   0  0  1  0  0  0  0  0  0  0  0  0
   25.7321  -20.0659   -9.8725 C   0  0  0  0  0  0  0  0  0  0  0  0
   26.4764  -20.0399   -8.5881 C   0  0  0  0  0  0  0  0  0  0  0  0
   27.2676  -18.9826   -8.1912 C   0  0  0  0  0  0  0  0  0  0  0  0
   27.9518  -18.9840   -6.9873 C   0  0  0  0  0  0  0  0  0  0  0  0
   27.8585  -20.0584   -6.1413 C   0  0  0  0  0  0  0  0  0  0  0  0
   27.0809  -21.1282   -6.5025 C   0  0  0  0  0  0  0  0  0  0  0  0
   26.4011  -21.1192   -7.7058 C   0  0  0  0  0  0  0  0  0  0  0  0
   25.6384  -21.0955  -12.1280 C   0  0  0  0  0  0  0  0  0  0  0  0
   25.8086  -20.2054  -12.9999 O   0  0  0  0  0  0  0  0  0  0  0  0
   24.7220  -22.1320  -12.4411 N   0  0  0  0  0  0  0  0  0  0  0  0
   23.9351  -22.1895  -13.6233 C   0  0  1  0  0  0  0  0  0  0  0  0
   23.7722  -23.5875  -14.1108 C   0  0  0  0  0  0  0  0  0  0  0  0
   25.0062  -24.1756  -14.6561 C   0  0  0  0  0  0  0  0  0  0  0  0
   25.9185  -23.5379  -15.2426 O   0  0  0  0  0  0  0  0  0  0  0  0
   22.6460  -21.4656  -13.5151 C   0  0  0  0  0  0  0  0  0  0  0  0
   22.4282  -20.7779  -12.4963 O   0  0  0  0  0  0  0  0  0  0  0  0
   25.2415  -25.5583  -14.5428 O   0  0  0  0  0  0  0  0  0  0  0  0
   21.7880  -18.7467  -13.7615 C   0  0  0  0  0  0  0  0  0  0  0  0
   20.8459  -19.2816  -14.8095 C   0  0  1  0  0  0  0  0  0  0  0  0
   21.5127  -19.2287  -16.0319 O   0  0  0  0  0  0  0  0  0  0  0  0
   20.4342  -20.7240  -14.4910 C   0  0  2  0  0  0  0  0  0  0  0  0
   21.6386  -21.5102  -14.5102 N   0  0  0  0  0  0  0  0  0  0  0  0
   19.4625  -21.1179  -15.5211 C   0  0  0  0  0  0  0  0  0  0  0  0
   18.1852  -20.5795  -15.4458 O   0  0  0  0  0  0  0  0  0  0  0  0
   19.7080  -21.9021  -16.4570 O   0  0  0  0  0  0  0  0  0  0  0  0
  2  1  1  6
  3  2  1  0
  4  3  1  0
  4  5  2  0
  6  5  1  0
  7  6  2  0
  8  9  2  0
  8  7  1  0
  9  4  1  0
 10  2  1  0
 11 10  2  0
 12 10  1  0
 13 17  1  0
 13 12  1  0
 13 14  1  1
 15 14  1  0
 16 15  2  0
 17 18  2  0
 19 15  1  0
 21 20  1  1
 21 22  1  0
 23 21  1  0
 23 24  1  6
 24 17  1  0
 25 26  1  0
 25 23  1  0
 27 25  2  0
M  END
$$$$
