FDT.pdb
     RDKit          3D

 27 27  0  0  1  0  0  0  0  0999 V2000
   28.6162  -21.4398  -11.9415 N   0  0  0  0  0  0  0  0  0  0  0  0
   27.3159  -21.0155  -11.5183 C   0  0  1  0  0  0  0  0  0  0  0  0
   27.3619  -19.6540  -10.8273 C   0  0  0  0  0  0  0  0  0  0  0  0
   27.6113  -19.8149   -9.3726 C   0  0  0  0  0  0  0  0  0  0  0  0
   28.8736  -19.8997   -8.8242 C   0  0  0  0  0  0  0  0  0  0  0  0
   29.0784  -20.0500   -7.4630 C   0  0  0  0  0  0  0  0  0  0  0  0
   28.0097  -20.1199   -6.6075 C   0  0  0  0  0  0  0  0  0  0  0  0
   26.7394  -20.0391   -7.1167 C   0  0  0  0  0  0  0  0  0  0  0  0
   26.5433  -19.8892   -8.4765 C   0  0  0  0  0  0  0  0  0  0  0  0
   26.3211  -21.0260  -12.6134 C   0  0  0  0  0  0  0  0  0  0  0  0
   26.5419  -20.4991  -13.7337 O   0  0  0  0  0  0  0  0  0  0  0  0
   25.0568  -21.6437  -12.4342 N   0  0  0  0  0  0  0  0  0  0  0  0
   24.0500  -21.7361  -13.4331 C   0  0  1  0  0  0  0  0  0  0  0  0
   23.6596  -23.1495  -13.6947 C   0  0  0  0  0  0  0  0  0  0  0  0
   24.6923  -23.9335  -14.3908 C   0  0  0  0  0  0  0  0  0  0  0  0
   25.2307  -24.9816  -13.9496 O   0  0  0  0  0  0  0  0  0  0  0  0
   22.8838  -20.8551  -13.1850 C   0  0  0  0  0  0  0  0  0  0  0  0
   22.4673  -20.7270  -12.0153 O   0  0  0  0  0  0  0  0  0  0  0  0
   25.1562  -23.5281  -15.6559 O   0  0  0  0  0  0  0  0  0  0  0  0
   21.9301  -17.4098  -15.2758 C   0  0  0  0  0  0  0  0  0  0  0  0
   20.8639  -18.4749  -15.2508 C   0  0  1  0  0  0  0  0  0  0  0  0
   21.0050  -19.2301  -16.4133 O   0  0  0  0  0  0  0  0  0  0  0  0
   21.0129  -19.3700  -14.0146 C   0  0  2  0  0  0  0  0  0  0  0  0
   22.2094  -20.1444  -14.2083 N   0  0  0  0  0  0  0  0  0  0  0  0
   19.7932  -20.1871  -13.9415 C   0  0  0  0  0  0  0  0  0  0  0  0
   18.6103  -19.5539  -13.5849 O   0  0  0  0  0  0  0  0  0  0  0  0
   19.7495  -21.4091  -14.1778 O   0  0  0  0  0  0  0  0  0  0  0  0
  2  1  1  6
  3  2  1  0
  4  3  1  0
  4  5  2  0
  6  5  1  0
  7  6  2  0
  8  9  2  0
  8  7  1  0
  9  4  1  0
 10  2  1  0
 11 10  2  0
 12 10  1  0
 13 17  1  0
 13 12  1  0
 13 14  1  1
 15 14  1  0
 16 15  2  0
 17 18  2  0
 19 15  1  0
 21 20  1  1
 21 22  1  0
 23 21  1  0
 23 24  1  6
 24 17  1  0
 25 26  1  0
 25 23  1  0
 27 25  2  0
M  END
$$$$
