FDT.pdb
     RDKit          3D

 27 27  0  0  1  0  0  0  0  0999 V2000
   23.3178  -12.0409  -16.9240 N   0  0  0  0  0  0  0  0  0  0  0  0
   22.7195  -11.2525  -15.8896 C   0  0  1  0  0  0  0  0  0  0  0  0
   23.6817  -11.0217  -14.7258 C   0  0  0  0  0  0  0  0  0  0  0  0
   25.0231  -10.6296  -15.2272 C   0  0  0  0  0  0  0  0  0  0  0  0
   26.1197  -11.4647  -15.1924 C   0  0  0  0  0  0  0  0  0  0  0  0
   27.3606  -11.0737  -15.6668 C   0  0  0  0  0  0  0  0  0  0  0  0
   27.5346   -9.8205  -16.1942 C   0  0  0  0  0  0  0  0  0  0  0  0
   26.4665   -8.9625  -16.2453 C   0  0  0  0  0  0  0  0  0  0  0  0
   25.2314   -9.3602  -15.7698 C   0  0  0  0  0  0  0  0  0  0  0  0
   22.1649   -9.9740  -16.3864 C   0  0  0  0  0  0  0  0  0  0  0  0
   22.4922   -9.4797  -17.4955 O   0  0  0  0  0  0  0  0  0  0  0  0
   21.2249   -9.2459  -15.6129 N   0  0  0  0  0  0  0  0  0  0  0  0
   20.5905   -8.0436  -16.0278 C   0  0  1  0  0  0  0  0  0  0  0  0
   19.1129   -8.2041  -16.1255 C   0  0  0  0  0  0  0  0  0  0  0  0
   18.4239   -7.0378  -16.7005 C   0  0  0  0  0  0  0  0  0  0  0  0
   18.7553   -6.4469  -17.7608 O   0  0  0  0  0  0  0  0  0  0  0  0
   20.9875   -6.8570  -15.2328 C   0  0  0  0  0  0  0  0  0  0  0  0
   21.1032   -6.9756  -13.9956 O   0  0  0  0  0  0  0  0  0  0  0  0
   17.2965   -6.4937  -16.0579 O   0  0  0  0  0  0  0  0  0  0  0  0
   24.1117   -5.0978  -15.5537 C   0  0  0  0  0  0  0  0  0  0  0  0
   23.0574   -4.0374  -15.7434 C   0  0  1  0  0  0  0  0  0  0  0  0
   22.8720   -3.8779  -17.1152 O   0  0  0  0  0  0  0  0  0  0  0  0
   21.7406   -4.4483  -15.0736 C   0  0  2  0  0  0  0  0  0  0  0  0
   21.2451   -5.5855  -15.8019 N   0  0  0  0  0  0  0  0  0  0  0  0
   20.8539   -3.2780  -15.1432 C   0  0  0  0  0  0  0  0  0  0  0  0
   21.1618   -2.1843  -14.3455 O   0  0  0  0  0  0  0  0  0  0  0  0
   19.8451   -3.2016  -15.8695 O   0  0  0  0  0  0  0  0  0  0  0  0
  2  1  1  6
  3  2  1  0
  4  3  1  0
  4  5  2  0
  6  5  1  0
  7  6  2  0
  8  9  2  0
  8  7  1  0
  9  4  1  0
 10  2  1  0
 11 10  2  0
 12 10  1  0
 13 17  1  0
 13 12  1  0
 13 14  1  1
 15 14  1  0
 16 15  2  0
 17 18  2  0
 19 15  1  0
 21 20  1  6
 21 22  1  0
 23 21  1  0
 23 24  1  6
 24 17  1  0
 25 26  1  0
 25 23  1  0
 27 25  2  0
M  END
$$$$
