FDT.pdb
     RDKit          3D

 27 27  0  0  1  0  0  0  0  0999 V2000
   25.0487  -21.4196   -7.9880 N   0  0  0  0  0  0  0  0  0  0  0  0
   25.6089  -20.5629   -8.9889 C   0  0  1  0  0  0  0  0  0  0  0  0
   27.1274  -20.4584   -8.8591 C   0  0  0  0  0  0  0  0  0  0  0  0
   27.5018  -19.9255   -7.5248 C   0  0  0  0  0  0  0  0  0  0  0  0
   27.0695  -18.7068   -7.0462 C   0  0  0  0  0  0  0  0  0  0  0  0
   27.4342  -18.2329   -5.7971 C   0  0  0  0  0  0  0  0  0  0  0  0
   28.2512  -18.9782   -4.9873 C   0  0  0  0  0  0  0  0  0  0  0  0
   28.7009  -20.1955   -5.4298 C   0  0  0  0  0  0  0  0  0  0  0  0
   28.3324  -20.6615   -6.6776 C   0  0  0  0  0  0  0  0  0  0  0  0
   25.2150  -20.9464  -10.3626 C   0  0  0  0  0  0  0  0  0  0  0  0
   25.4492  -22.0856  -10.8409 O   0  0  0  0  0  0  0  0  0  0  0  0
   24.5453  -20.0229  -11.2057 N   0  0  0  0  0  0  0  0  0  0  0  0
   24.1533  -20.2851  -12.5465 C   0  0  1  0  0  0  0  0  0  0  0  0
   22.7976  -19.7432  -12.8416 C   0  0  0  0  0  0  0  0  0  0  0  0
   21.7108  -20.4409  -12.1361 C   0  0  0  0  0  0  0  0  0  0  0  0
   20.8669  -19.8953  -11.3790 O   0  0  0  0  0  0  0  0  0  0  0  0
   25.1646  -19.8797  -13.5517 C   0  0  0  0  0  0  0  0  0  0  0  0
   25.4301  -18.6667  -13.6796 O   0  0  0  0  0  0  0  0  0  0  0  0
   21.5513  -21.8315  -12.2804 O   0  0  0  0  0  0  0  0  0  0  0  0
   28.5959  -21.2411  -13.7120 C   0  0  0  0  0  0  0  0  0  0  0  0
   28.0454  -21.3913  -15.1072 C   0  0  1  0  0  0  0  0  0  0  0  0
   27.6304  -22.7139  -15.2489 O   0  0  0  0  0  0  0  0  0  0  0  0
   26.8669  -20.4373  -15.3365 C   0  0  2  0  0  0  0  0  0  0  0  0
   25.8529  -20.7981  -14.3823 N   0  0  0  0  0  0  0  0  0  0  0  0
   26.4471  -20.6208  -16.7332 C   0  0  0  0  0  0  0  0  0  0  0  0
   27.3193  -20.2074  -17.7310 O   0  0  0  0  0  0  0  0  0  0  0  0
   25.3616  -21.1221  -17.0818 O   0  0  0  0  0  0  0  0  0  0  0  0
  2  1  1  1
  3  2  1  0
  4  3  1  0
  4  5  2  0
  6  5  1  0
  7  6  2  0
  8  9  2  0
  8  7  1  0
  9  4  1  0
 10  2  1  0
 11 10  2  0
 12 10  1  0
 13 17  1  0
 13 12  1  0
 13 14  1  6
 15 14  1  0
 16 15  2  0
 17 18  2  0
 19 15  1  0
 21 20  1  1
 21 22  1  0
 23 21  1  0
 23 24  1  1
 24 17  1  0
 25 26  1  0
 25 23  1  0
 27 25  2  0
M  END
$$$$
