FDT.pdb
     RDKit          3D

 27 27  0  0  1  0  0  0  0  0999 V2000
   25.2407  -15.8625  -18.3373 N   0  0  0  0  0  0  0  0  0  0  0  0
   25.0376  -16.9483  -17.4267 C   0  0  1  0  0  0  0  0  0  0  0  0
   26.0096  -16.8892  -16.2497 C   0  0  0  0  0  0  0  0  0  0  0  0
   27.4121  -16.9965  -16.7249 C   0  0  0  0  0  0  0  0  0  0  0  0
   27.9872  -18.1827  -17.1297 C   0  0  0  0  0  0  0  0  0  0  0  0
   29.2986  -18.2552  -17.5685 C   0  0  0  0  0  0  0  0  0  0  0  0
   30.0753  -17.1266  -17.6129 C   0  0  0  0  0  0  0  0  0  0  0  0
   29.5373  -15.9289  -17.2180 C   0  0  0  0  0  0  0  0  0  0  0  0
   28.2277  -15.8648  -16.7813 C   0  0  0  0  0  0  0  0  0  0  0  0
   23.6379  -17.0551  -16.9593 C   0  0  0  0  0  0  0  0  0  0  0  0
   23.0782  -16.1522  -16.2862 O   0  0  0  0  0  0  0  0  0  0  0  0
   22.8620  -18.2038  -17.2604 N   0  0  0  0  0  0  0  0  0  0  0  0
   21.5184  -18.4073  -16.8441 C   0  0  1  0  0  0  0  0  0  0  0  0
   20.5730  -18.3759  -17.9946 C   0  0  0  0  0  0  0  0  0  0  0  0
   19.1592  -18.5069  -17.6075 C   0  0  0  0  0  0  0  0  0  0  0  0
   18.2610  -19.0457  -18.3046 O   0  0  0  0  0  0  0  0  0  0  0  0
   21.3367  -19.6013  -15.9844 C   0  0  0  0  0  0  0  0  0  0  0  0
   21.6452  -20.7213  -16.4409 O   0  0  0  0  0  0  0  0  0  0  0  0
   18.7153  -18.0083  -16.3687 O   0  0  0  0  0  0  0  0  0  0  0  0
   20.6096  -19.0710  -11.8906 C   0  0  0  0  0  0  0  0  0  0  0  0
   21.2510  -20.3161  -12.4477 C   0  0  1  0  0  0  0  0  0  0  0  0
   21.0341  -21.3409  -11.5288 O   0  0  0  0  0  0  0  0  0  0  0  0
   20.6435  -20.6839  -13.8069 C   0  0  2  0  0  0  0  0  0  0  0  0
   20.8286  -19.5432  -14.6632 N   0  0  0  0  0  0  0  0  0  0  0  0
   19.2309  -21.0060  -13.5593 C   0  0  0  0  0  0  0  0  0  0  0  0
   18.9413  -22.2148  -12.9411 O   0  0  0  0  0  0  0  0  0  0  0  0
   18.2764  -20.2675  -13.8667 O   0  0  0  0  0  0  0  0  0  0  0  0
  2  1  1  1
  3  2  1  0
  4  3  1  0
  4  5  2  0
  6  5  1  0
  7  6  2  0
  8  9  2  0
  8  7  1  0
  9  4  1  0
 10  2  1  0
 11 10  2  0
 12 10  1  0
 13 17  1  0
 13 12  1  0
 13 14  1  6
 15 14  1  0
 16 15  2  0
 17 18  2  0
 19 15  1  0
 21 20  1  1
 21 22  1  0
 23 21  1  0
 23 24  1  6
 24 17  1  0
 25 26  1  0
 25 23  1  0
 27 25  2  0
M  END
$$$$
