FDT.pdb
     RDKit          3D

 27 27  0  0  1  0  0  0  0  0999 V2000
   18.4233   -9.8584  -16.7945 N   0  0  0  0  0  0  0  0  0  0  0  0
   18.4698   -8.5088  -17.2700 C   0  0  1  0  0  0  0  0  0  0  0  0
   17.1792   -8.1166  -17.9870 C   0  0  0  0  0  0  0  0  0  0  0  0
   16.9548   -8.9849  -19.1703 C   0  0  0  0  0  0  0  0  0  0  0  0
   17.5931   -8.8003  -20.3786 C   0  0  0  0  0  0  0  0  0  0  0  0
   17.3651   -9.6251  -21.4673 C   0  0  0  0  0  0  0  0  0  0  0  0
   16.4809  -10.6680  -21.3704 C   0  0  0  0  0  0  0  0  0  0  0  0
   15.8274  -10.8823  -20.1843 C   0  0  0  0  0  0  0  0  0  0  0  0
   16.0603  -10.0547  -19.1023 C   0  0  0  0  0  0  0  0  0  0  0  0
   18.8092   -7.5348  -16.2093 C   0  0  0  0  0  0  0  0  0  0  0  0
   18.1799   -7.4709  -15.1224 O   0  0  0  0  0  0  0  0  0  0  0  0
   19.8789   -6.6198  -16.3849 N   0  0  0  0  0  0  0  0  0  0  0  0
   20.2495   -5.6157  -15.4497 C   0  0  1  0  0  0  0  0  0  0  0  0
   21.7274   -5.5348  -15.2829 C   0  0  0  0  0  0  0  0  0  0  0  0
   22.1622   -4.5186  -14.3113 C   0  0  0  0  0  0  0  0  0  0  0  0
   22.5245   -3.3478  -14.5961 O   0  0  0  0  0  0  0  0  0  0  0  0
   19.6290   -4.2962  -15.7170 C   0  0  0  0  0  0  0  0  0  0  0  0
   19.6644   -3.8414  -16.8789 O   0  0  0  0  0  0  0  0  0  0  0  0
   22.1970   -4.8216  -12.9376 O   0  0  0  0  0  0  0  0  0  0  0  0
   16.3550   -0.8929  -14.4417 C   0  0  0  0  0  0  0  0  0  0  0  0
   16.9971   -2.2554  -14.3831 C   0  0  1  0  0  0  0  0  0  0  0  0
   16.2082   -3.1183  -15.1413 O   0  0  0  0  0  0  0  0  0  0  0  0
   18.4248   -2.2125  -14.9411 C   0  0  2  0  0  0  0  0  0  0  0  0
   18.9927   -3.5154  -14.7207 N   0  0  0  0  0  0  0  0  0  0  0  0
   19.1235   -1.1403  -14.2181 C   0  0  0  0  0  0  0  0  0  0  0  0
   18.7652    0.1709  -14.5002 O   0  0  0  0  0  0  0  0  0  0  0  0
   20.0153   -1.3289  -13.3694 O   0  0  0  0  0  0  0  0  0  0  0  0
  2  1  1  1
  3  2  1  0
  4  3  1  0
  4  5  2  0
  6  5  1  0
  7  6  2  0
  8  9  2  0
  8  7  1  0
  9  4  1  0
 10  2  1  0
 11 10  2  0
 12 10  1  0
 13 17  1  0
 13 12  1  0
 13 14  1  6
 15 14  1  0
 16 15  2  0
 17 18  2  0
 19 15  1  0
 21 20  1  6
 21 22  1  0
 23 21  1  0
 23 24  1  1
 24 17  1  0
 25 26  1  0
 25 23  1  0
 27 25  2  0
M  END
$$$$
