FDT.pdb
     RDKit          3D

 27 27  0  0  1  0  0  0  0  0999 V2000
   35.0481  -26.1816  -17.5128 N   0  0  0  0  0  0  0  0  0  0  0  0
   33.9255  -25.6785  -16.7804 C   0  0  1  0  0  0  0  0  0  0  0  0
   34.3561  -24.7150  -15.6760 C   0  0  0  0  0  0  0  0  0  0  0  0
   35.2682  -25.3913  -14.7194 C   0  0  0  0  0  0  0  0  0  0  0  0
   34.9932  -25.5255  -13.3748 C   0  0  0  0  0  0  0  0  0  0  0  0
   35.8619  -26.1610  -12.5036 C   0  0  0  0  0  0  0  0  0  0  0  0
   37.0421  -26.6841  -12.9645 C   0  0  0  0  0  0  0  0  0  0  0  0
   37.3494  -26.5697  -14.2958 C   0  0  0  0  0  0  0  0  0  0  0  0
   36.4771  -25.9339  -15.1589 C   0  0  0  0  0  0  0  0  0  0  0  0
   32.8957  -25.0687  -17.6503 C   0  0  0  0  0  0  0  0  0  0  0  0
   33.0314  -24.9757  -18.8971 O   0  0  0  0  0  0  0  0  0  0  0  0
   31.6940  -24.5571  -17.0968 N   0  0  0  0  0  0  0  0  0  0  0  0
   30.6169  -24.0198  -17.8526 C   0  0  1  0  0  0  0  0  0  0  0  0
   30.1464  -24.9715  -18.8972 C   0  0  0  0  0  0  0  0  0  0  0  0
   29.0188  -24.4676  -19.6975 C   0  0  0  0  0  0  0  0  0  0  0  0
   29.0217  -23.4038  -20.3694 O   0  0  0  0  0  0  0  0  0  0  0  0
   29.5115  -23.4903  -17.0187 C   0  0  0  0  0  0  0  0  0  0  0  0
   29.0906  -24.1842  -16.0702 O   0  0  0  0  0  0  0  0  0  0  0  0
   27.8128  -25.1903  -19.7553 O   0  0  0  0  0  0  0  0  0  0  0  0
   27.3413  -19.9546  -18.1472 C   0  0  0  0  0  0  0  0  0  0  0  0
   27.8369  -20.1570  -16.7381 C   0  0  1  0  0  0  0  0  0  0  0  0
   26.9511  -19.4974  -15.8884 O   0  0  0  0  0  0  0  0  0  0  0  0
   27.8976  -21.6487  -16.3879 C   0  0  2  0  0  0  0  0  0  0  0  0
   28.9003  -22.2313  -17.2387 N   0  0  0  0  0  0  0  0  0  0  0  0
   26.5496  -22.1871  -16.6196 C   0  0  0  0  0  0  0  0  0  0  0  0
   25.5736  -21.9197  -15.6692 O   0  0  0  0  0  0  0  0  0  0  0  0
   26.2241  -22.8670  -17.6110 O   0  0  0  0  0  0  0  0  0  0  0  0
  2  1  1  6
  3  2  1  0
  4  3  1  0
  4  5  2  0
  6  5  1  0
  7  6  2  0
  8  9  2  0
  8  7  1  0
  9  4  1  0
 10  2  1  0
 11 10  2  0
 12 10  1  0
 13 17  1  0
 13 12  1  0
 13 14  1  6
 15 14  1  0
 16 15  2  0
 17 18  2  0
 19 15  1  0
 21 20  1  6
 21 22  1  0
 23 21  1  0
 23 24  1  6
 24 17  1  0
 25 26  1  0
 25 23  1  0
 27 25  2  0
M  END
$$$$
