FDT.pdb
     RDKit          3D

 27 27  0  0  1  0  0  0  0  0999 V2000
   23.0510   -8.7569  -17.5678 N   0  0  0  0  0  0  0  0  0  0  0  0
   22.3366   -8.6029  -16.3367 C   0  0  1  0  0  0  0  0  0  0  0  0
   23.2202   -8.0118  -15.2398 C   0  0  0  0  0  0  0  0  0  0  0  0
   24.4187   -8.8604  -15.0208 C   0  0  0  0  0  0  0  0  0  0  0  0
   25.6735   -8.5368  -15.4920 C   0  0  0  0  0  0  0  0  0  0  0  0
   26.7753   -9.3468  -15.2738 C   0  0  0  0  0  0  0  0  0  0  0  0
   26.6446  -10.5154  -14.5692 C   0  0  0  0  0  0  0  0  0  0  0  0
   25.4118  -10.8698  -14.0851 C   0  0  0  0  0  0  0  0  0  0  0  0
   24.3171  -10.0560  -14.3071 C   0  0  0  0  0  0  0  0  0  0  0  0
   21.0845   -7.8296  -16.4893 C   0  0  0  0  0  0  0  0  0  0  0  0
   21.0317   -6.7450  -17.1238 O   0  0  0  0  0  0  0  0  0  0  0  0
   19.8743   -8.2942  -15.9132 N   0  0  0  0  0  0  0  0  0  0  0  0
   18.6110   -7.6592  -16.0571 C   0  0  1  0  0  0  0  0  0  0  0  0
   17.4865   -8.6185  -15.8728 C   0  0  0  0  0  0  0  0  0  0  0  0
   17.5457   -9.7847  -16.7685 C   0  0  0  0  0  0  0  0  0  0  0  0
   17.6080   -9.7350  -18.0242 O   0  0  0  0  0  0  0  0  0  0  0  0
   18.4630   -6.4363  -15.2325 C   0  0  0  0  0  0  0  0  0  0  0  0
   18.7462   -6.4940  -14.0181 O   0  0  0  0  0  0  0  0  0  0  0  0
   17.5351  -11.0873  -16.2365 O   0  0  0  0  0  0  0  0  0  0  0  0
   16.7156   -2.8264  -16.8557 C   0  0  0  0  0  0  0  0  0  0  0  0
   17.9546   -2.8249  -15.9972 C   0  0  1  0  0  0  0  0  0  0  0  0
   17.9962   -1.6014  -15.3316 O   0  0  0  0  0  0  0  0  0  0  0  0
   17.9223   -3.9782  -14.9872 C   0  0  2  0  0  0  0  0  0  0  0  0
   18.0147   -5.1952  -15.7482 N   0  0  0  0  0  0  0  0  0  0  0  0
   16.6607   -3.8475  -14.2444 C   0  0  0  0  0  0  0  0  0  0  0  0
   16.5443   -2.7955  -13.3461 O   0  0  0  0  0  0  0  0  0  0  0  0
   15.6890   -4.6170  -14.3667 O   0  0  0  0  0  0  0  0  0  0  0  0
  2  1  1  6
  3  2  1  0
  4  3  1  0
  4  5  2  0
  6  5  1  0
  7  6  2  0
  8  9  2  0
  8  7  1  0
  9  4  1  0
 10  2  1  0
 11 10  2  0
 12 10  1  0
 13 17  1  0
 13 12  1  0
 13 14  1  1
 15 14  1  0
 16 15  2  0
 17 18  2  0
 19 15  1  0
 21 20  1  1
 21 22  1  0
 23 21  1  0
 23 24  1  6
 24 17  1  0
 25 26  1  0
 25 23  1  0
 27 25  2  0
M  END
$$$$
