FDT.pdb
     RDKit          3D

 27 27  0  0  1  0  0  0  0  0999 V2000
   15.0506   -8.8103   -9.1641 N   0  0  0  0  0  0  0  0  0  0  0  0
   15.5257   -7.6919   -9.9210 C   0  0  1  0  0  0  0  0  0  0  0  0
   15.9312   -6.5285   -9.0179 C   0  0  0  0  0  0  0  0  0  0  0  0
   14.7298   -5.8453   -8.4755 C   0  0  0  0  0  0  0  0  0  0  0  0
   13.7780   -5.2405   -9.2690 C   0  0  0  0  0  0  0  0  0  0  0  0
   12.6662   -4.6094   -8.7370 C   0  0  0  0  0  0  0  0  0  0  0  0
   12.4789   -4.5685   -7.3797 C   0  0  0  0  0  0  0  0  0  0  0  0
   13.4047   -5.1593   -6.5590 C   0  0  0  0  0  0  0  0  0  0  0  0
   14.5117   -5.7872   -7.0977 C   0  0  0  0  0  0  0  0  0  0  0  0
   16.6162   -8.0489  -10.8551 C   0  0  0  0  0  0  0  0  0  0  0  0
   17.5686   -8.8020  -10.5276 O   0  0  0  0  0  0  0  0  0  0  0  0
   16.6257   -7.5435  -12.1805 N   0  0  0  0  0  0  0  0  0  0  0  0
   17.6177   -7.8391  -13.1545 C   0  0  1  0  0  0  0  0  0  0  0  0
   17.0737   -8.6749  -14.2609 C   0  0  0  0  0  0  0  0  0  0  0  0
   15.9071   -8.0835  -14.9356 C   0  0  0  0  0  0  0  0  0  0  0  0
   14.7761   -7.9079  -14.4130 O   0  0  0  0  0  0  0  0  0  0  0  0
   18.3461   -6.6440  -13.6428 C   0  0  0  0  0  0  0  0  0  0  0  0
   17.7155   -5.5772  -13.7927 O   0  0  0  0  0  0  0  0  0  0  0  0
   16.0026   -7.6608  -16.2744 O   0  0  0  0  0  0  0  0  0  0  0  0
   22.1043   -5.6191  -12.5107 C   0  0  0  0  0  0  0  0  0  0  0  0
   21.9288   -5.7260  -14.0040 C   0  0  1  0  0  0  0  0  0  0  0  0
   22.3328   -7.0060  -14.3782 O   0  0  0  0  0  0  0  0  0  0  0  0
   20.4661   -5.4932  -14.4015 C   0  0  2  0  0  0  0  0  0  0  0  0
   19.7288   -6.6434  -13.9517 N   0  0  0  0  0  0  0  0  0  0  0  0
   20.4523   -5.3243  -15.8616 C   0  0  0  0  0  0  0  0  0  0  0  0
   20.9736   -4.1476  -16.3821 O   0  0  0  0  0  0  0  0  0  0  0  0
   20.0043   -6.1656  -16.6632 O   0  0  0  0  0  0  0  0  0  0  0  0
  2  1  1  1
  3  2  1  0
  4  3  1  0
  4  5  2  0
  6  5  1  0
  7  6  2  0
  8  9  2  0
  8  7  1  0
  9  4  1  0
 10  2  1  0
 11 10  2  0
 12 10  1  0
 13 17  1  0
 13 12  1  0
 13 14  1  6
 15 14  1  0
 16 15  2  0
 17 18  2  0
 19 15  1  0
 21 20  1  1
 21 22  1  0
 23 21  1  0
 23 24  1  6
 24 17  1  0
 25 26  1  0
 25 23  1  0
 27 25  2  0
M  END
$$$$
