HKP.pdb
     RDKit          3D

 27 28  0  0  1  0  0  0  0  0999 V2000
   27.5424  -17.1353  -18.2894 N   0  0  0  0  0  0  0  0  0  0  0  0
   28.1074  -18.1118  -17.4166 C   0  0  1  0  0  0  0  0  0  0  0  0
   29.4456  -17.6726  -16.8247 C   0  0  0  0  0  0  0  0  0  0  0  0
   30.4731  -17.4820  -17.8724 C   0  0  0  0  0  0  0  0  0  0  0  0
   31.1173  -18.4617  -18.5757 C   0  0  0  0  0  0  0  0  0  0  0  0
   31.9791  -17.8552  -19.4358 N   0  0  0  0  0  0  0  0  0  0  0  0
   31.8821  -16.5091  -19.2794 C   0  0  0  0  0  0  0  0  0  0  0  0
   30.9603  -16.3066  -18.3236 N   0  0  0  0  0  0  0  0  0  0  0  0
   27.1970  -18.3359  -16.2705 C   0  0  0  0  0  0  0  0  0  0  0  0
   27.4982  -17.8192  -15.1635 O   0  0  0  0  0  0  0  0  0  0  0  0
   26.0264  -19.1016  -16.4009 N   0  0  0  0  0  0  0  0  0  0  0  0
   25.1655  -19.3146  -15.2211 C   0  0  1  0  0  0  0  0  0  0  0  0
   23.7575  -19.1689  -15.7545 C   0  0  0  0  0  0  0  0  0  0  0  0
   22.6533  -19.4565  -14.8302 C   0  0  0  0  0  0  0  0  0  0  0  0
   21.3171  -19.3647  -15.5880 C   0  0  0  0  0  0  0  0  0  0  0  0
   20.1323  -19.6452  -14.7268 C   0  0  0  0  0  0  0  0  0  0  0  0
   18.9303  -19.3375  -15.4958 N   0  0  0  0  0  0  0  0  0  0  0  0
   25.4784  -20.5748  -14.5719 C   0  0  0  0  0  0  0  0  0  0  0  0
   25.7352  -21.5729  -15.3410 O   0  0  0  0  0  0  0  0  0  0  0  0
   25.5408  -20.8342  -13.1905 N   0  0  0  0  0  0  0  0  0  0  0  0
   25.3467  -19.8627  -12.1175 C   0  0  0  0  0  0  0  0  0  0  0  0
   26.2908  -20.3649  -11.0208 C   0  0  0  0  0  0  0  0  0  0  0  0
   25.9449  -21.8367  -11.0866 C   0  0  0  0  0  0  0  0  0  0  0  0
   25.8204  -22.0994  -12.5433 C   0  0  1  0  0  0  0  0  0  0  0  0
   24.8490  -23.1434  -12.8874 C   0  0  0  0  0  0  0  0  0  0  0  0
   23.6518  -22.7836  -13.4799 O   0  0  0  0  0  0  0  0  0  0  0  0
   25.0659  -24.3562  -12.6626 O   0  0  0  0  0  0  0  0  0  0  0  0
  2  1  1  6
  2  3  1  0
  3  4  1  0
  4  8  1  0
  5  4  2  0
  5  6  1  0
  6  7  1  0
  8  7  2  0
  9  2  1  0
 10  9  2  0
 11  9  1  0
 12 11  1  0
 12 13  1  6
 13 14  1  0
 15 14  1  0
 16 17  1  0
 16 15  1  0
 18 12  1  0
 19 18  2  0
 20 18  1  0
 20 21  1  0
 22 21  1  0
 23 24  1  0
 23 22  1  0
 24 25  1  1
 24 20  1  0
 25 26  1  0
 27 25  2  0
M  END
$$$$
