HKP.pdb
     RDKit          3D

 27 28  0  0  1  0  0  0  0  0999 V2000
   23.4745  -33.3003   -6.8963 N   0  0  0  0  0  0  0  0  0  0  0  0
   22.1907  -33.6102   -6.3574 C   0  0  1  0  0  0  0  0  0  0  0  0
   22.0238  -35.0960   -6.0438 C   0  0  0  0  0  0  0  0  0  0  0  0
   22.1196  -35.9286   -7.2634 C   0  0  0  0  0  0  0  0  0  0  0  0
   23.0760  -36.8651   -7.5427 C   0  0  0  0  0  0  0  0  0  0  0  0
   22.7920  -37.3953   -8.7628 N   0  0  0  0  0  0  0  0  0  0  0  0
   21.6707  -36.8026   -9.2497 C   0  0  0  0  0  0  0  0  0  0  0  0
   21.2803  -35.9147   -8.3206 N   0  0  0  0  0  0  0  0  0  0  0  0
   22.0052  -32.8895   -5.0773 C   0  0  0  0  0  0  0  0  0  0  0  0
   23.0053  -32.7447   -4.3275 O   0  0  0  0  0  0  0  0  0  0  0  0
   20.7537  -32.3765   -4.6976 N   0  0  0  0  0  0  0  0  0  0  0  0
   20.6464  -31.5648   -3.4695 C   0  0  1  0  0  0  0  0  0  0  0  0
   19.7637  -30.4021   -3.8660 C   0  0  0  0  0  0  0  0  0  0  0  0
   19.4032  -29.4408   -2.8161 C   0  0  0  0  0  0  0  0  0  0  0  0
   18.4120  -28.4109   -3.3862 C   0  0  0  0  0  0  0  0  0  0  0  0
   17.9707  -27.4009   -2.3817 C   0  0  0  0  0  0  0  0  0  0  0  0
   17.0534  -26.4767   -3.0413 N   0  0  0  0  0  0  0  0  0  0  0  0
   20.1833  -32.3708   -2.3545 C   0  0  0  0  0  0  0  0  0  0  0  0
   19.1161  -33.0623   -2.5451 O   0  0  0  0  0  0  0  0  0  0  0  0
   20.7717  -32.4910   -1.0821 N   0  0  0  0  0  0  0  0  0  0  0  0
   22.0282  -31.8861   -0.6487 C   0  0  0  0  0  0  0  0  0  0  0  0
   22.5889  -32.9189    0.3340 C   0  0  0  0  0  0  0  0  0  0  0  0
   21.3188  -33.2032    1.1060 C   0  0  0  0  0  0  0  0  0  0  0  0
   20.2727  -33.2408    0.0522 C   0  0  1  0  0  0  0  0  0  0  0  0
   18.9503  -32.7886    0.4981 C   0  0  0  0  0  0  0  0  0  0  0  0
   18.2889  -33.5011    1.4821 O   0  0  0  0  0  0  0  0  0  0  0  0
   18.3953  -31.7742    0.0168 O   0  0  0  0  0  0  0  0  0  0  0  0
  2  1  1  1
  2  3  1  0
  3  4  1  0
  4  8  1  0
  5  4  2  0
  5  6  1  0
  6  7  1  0
  8  7  2  0
  9  2  1  0
 10  9  2  0
 11  9  1  0
 12 11  1  0
 12 13  1  6
 13 14  1  0
 15 14  1  0
 16 17  1  0
 16 15  1  0
 18 12  1  0
 19 18  2  0
 20 18  1  0
 20 21  1  0
 22 21  1  0
 23 24  1  0
 23 22  1  0
 24 25  1  1
 24 20  1  0
 25 26  1  0
 27 25  2  0
M  END
$$$$
