HKP.pdb
     RDKit          3D

 27 28  0  0  1  0  0  0  0  0999 V2000
   15.5717  -20.8293    0.8957 N   0  0  0  0  0  0  0  0  0  0  0  0
   15.2047  -20.3473    2.1870 C   0  0  1  0  0  0  0  0  0  0  0  0
   14.7031  -21.4552    3.1114 C   0  0  0  0  0  0  0  0  0  0  0  0
   13.4455  -22.0568    2.6150 C   0  0  0  0  0  0  0  0  0  0  0  0
   12.1906  -21.5210    2.7032 C   0  0  0  0  0  0  0  0  0  0  0  0
   11.3253  -22.3965    2.1244 N   0  0  0  0  0  0  0  0  0  0  0  0
   12.0227  -23.4725    1.6756 C   0  0  0  0  0  0  0  0  0  0  0  0
   13.3094  -23.2431    1.9853 N   0  0  0  0  0  0  0  0  0  0  0  0
   16.3900  -19.7557    2.8487 C   0  0  0  0  0  0  0  0  0  0  0  0
   17.5162  -20.2666    2.6161 O   0  0  0  0  0  0  0  0  0  0  0  0
   16.2754  -18.6550    3.7141 N   0  0  0  0  0  0  0  0  0  0  0  0
   17.4979  -18.0262    4.2515 C   0  0  1  0  0  0  0  0  0  0  0  0
   17.2047  -16.5429    4.2094 C   0  0  0  0  0  0  0  0  0  0  0  0
   18.2323  -15.6374    4.7390 C   0  0  0  0  0  0  0  0  0  0  0  0
   17.7889  -14.1799    4.5211 C   0  0  0  0  0  0  0  0  0  0  0  0
   18.8290  -13.1845    4.9103 C   0  0  0  0  0  0  0  0  0  0  0  0
   18.3457  -11.8571    4.5427 N   0  0  0  0  0  0  0  0  0  0  0  0
   17.8353  -18.5770    5.5516 C   0  0  0  0  0  0  0  0  0  0  0  0
   16.8541  -18.9606    6.2890 O   0  0  0  0  0  0  0  0  0  0  0  0
   19.1186  -18.7480    6.1024 N   0  0  0  0  0  0  0  0  0  0  0  0
   20.3903  -18.5408    5.4151 C   0  0  0  0  0  0  0  0  0  0  0  0
   21.3042  -19.5912    6.0538 C   0  0  0  0  0  0  0  0  0  0  0  0
   20.9228  -19.3670    7.5010 C   0  0  0  0  0  0  0  0  0  0  0  0
   19.4511  -19.1735    7.4464 C   0  0  1  0  0  0  0  0  0  0  0  0
   18.9220  -18.2737    8.4771 C   0  0  0  0  0  0  0  0  0  0  0  0
   18.9479  -18.6736    9.8012 O   0  0  0  0  0  0  0  0  0  0  0  0
   18.4447  -17.1495    8.1997 O   0  0  0  0  0  0  0  0  0  0  0  0
  2  1  1  6
  2  3  1  0
  3  4  1  0
  4  8  1  0
  5  4  2  0
  5  6  1  0
  6  7  1  0
  8  7  2  0
  9  2  1  0
 10  9  2  0
 11  9  1  0
 12 11  1  0
 12 13  1  1
 13 14  1  0
 15 14  1  0
 16 17  1  0
 16 15  1  0
 18 12  1  0
 19 18  2  0
 20 18  1  0
 20 21  1  0
 22 21  1  0
 23 24  1  0
 23 22  1  0
 24 25  1  1
 24 20  1  0
 25 26  1  0
 27 25  2  0
M  END
$$$$
