HKP.pdb
     RDKit          3D

 27 28  0  0  1  0  0  0  0  0999 V2000
   19.6378  -20.4106  -13.9389 N   0  0  0  0  0  0  0  0  0  0  0  0
   20.4957  -20.3095  -15.0739 C   0  0  1  0  0  0  0  0  0  0  0  0
   20.0725  -19.2031  -16.0386 C   0  0  0  0  0  0  0  0  0  0  0  0
   20.6046  -19.4293  -17.4008 C   0  0  0  0  0  0  0  0  0  0  0  0
   20.3699  -20.5118  -18.2024 C   0  0  0  0  0  0  0  0  0  0  0  0
   21.0469  -20.3192  -19.3664 N   0  0  0  0  0  0  0  0  0  0  0  0
   21.7017  -19.1306  -19.3029 C   0  0  0  0  0  0  0  0  0  0  0  0
   21.4176  -18.6080  -18.0986 N   0  0  0  0  0  0  0  0  0  0  0  0
   21.8672  -19.9733  -14.6282 C   0  0  0  0  0  0  0  0  0  0  0  0
   22.0357  -18.9092  -13.9781 O   0  0  0  0  0  0  0  0  0  0  0  0
   22.9588  -20.8095  -14.9157 N   0  0  0  0  0  0  0  0  0  0  0  0
   24.2963  -20.4569  -14.4004 C   0  0  1  0  0  0  0  0  0  0  0  0
   24.7488  -21.6944  -13.6574 C   0  0  0  0  0  0  0  0  0  0  0  0
   25.8611  -21.5433  -12.7108 C   0  0  0  0  0  0  0  0  0  0  0  0
   25.3112  -21.0951  -11.3452 C   0  0  0  0  0  0  0  0  0  0  0  0
   26.3807  -20.7389  -10.3688 C   0  0  0  0  0  0  0  0  0  0  0  0
   25.7385  -20.3019   -9.1329 N   0  0  0  0  0  0  0  0  0  0  0  0
   25.1612  -20.0005  -15.4732 C   0  0  0  0  0  0  0  0  0  0  0  0
   25.0063  -20.5628  -16.6193 O   0  0  0  0  0  0  0  0  0  0  0  0
   26.1522  -19.0038  -15.4091 N   0  0  0  0  0  0  0  0  0  0  0  0
   26.4659  -18.1680  -14.2535 C   0  0  0  0  0  0  0  0  0  0  0  0
   26.8938  -16.8424  -14.8908 C   0  0  0  0  0  0  0  0  0  0  0  0
   27.7932  -17.3969  -15.9742 C   0  0  0  0  0  0  0  0  0  0  0  0
   27.0532  -18.5880  -16.4641 C   0  0  1  0  0  0  0  0  0  0  0  0
   27.9116  -19.6767  -16.9437 C   0  0  0  0  0  0  0  0  0  0  0  0
   28.5332  -19.5553  -18.1735 O   0  0  0  0  0  0  0  0  0  0  0  0
   28.1030  -20.7185  -16.2754 O   0  0  0  0  0  0  0  0  0  0  0  0
  2  1  1  1
  2  3  1  0
  3  4  1  0
  4  8  1  0
  5  4  2  0
  5  6  1  0
  6  7  1  0
  8  7  2  0
  9  2  1  0
 10  9  2  0
 11  9  1  0
 12 11  1  0
 12 13  1  6
 13 14  1  0
 15 14  1  0
 16 17  1  0
 16 15  1  0
 18 12  1  0
 19 18  2  0
 20 18  1  0
 20 21  1  0
 22 21  1  0
 23 24  1  0
 23 22  1  0
 24 25  1  1
 24 20  1  0
 25 26  1  0
 27 25  2  0
M  END
$$$$
