HKP.pdb
     RDKit          3D

 27 28  0  0  1  0  0  0  0  0999 V2000
   25.5523  -11.9072  -18.5228 N   0  0  0  0  0  0  0  0  0  0  0  0
   25.2618  -11.4445  -17.2053 C   0  0  1  0  0  0  0  0  0  0  0  0
   26.5099  -10.9958  -16.4473 C   0  0  0  0  0  0  0  0  0  0  0  0
   27.4618  -12.1111  -16.2481 C   0  0  0  0  0  0  0  0  0  0  0  0
   27.4305  -13.0466  -15.2513 C   0  0  0  0  0  0  0  0  0  0  0  0
   28.4841  -13.8863  -15.4387 N   0  0  0  0  0  0  0  0  0  0  0  0
   29.1736  -13.4881  -16.5394 C   0  0  0  0  0  0  0  0  0  0  0  0
   28.5332  -12.4072  -17.0143 N   0  0  0  0  0  0  0  0  0  0  0  0
   24.3720  -10.2634  -17.2815 C   0  0  0  0  0  0  0  0  0  0  0  0
   24.6521   -9.3620  -18.1136 O   0  0  0  0  0  0  0  0  0  0  0  0
   23.2433  -10.1392  -16.4542 N   0  0  0  0  0  0  0  0  0  0  0  0
   22.2739   -9.0560  -16.7101 C   0  0  1  0  0  0  0  0  0  0  0  0
   20.9240   -9.7044  -16.4966 C   0  0  0  0  0  0  0  0  0  0  0  0
   20.4716  -10.6682  -17.5078 C   0  0  0  0  0  0  0  0  0  0  0  0
   19.1284  -11.2767  -17.0674 C   0  0  0  0  0  0  0  0  0  0  0  0
   18.6265  -12.3290  -17.9974 C   0  0  0  0  0  0  0  0  0  0  0  0
   17.3953  -12.8783  -17.4378 N   0  0  0  0  0  0  0  0  0  0  0  0
   22.5652   -7.8951  -15.8886 C   0  0  0  0  0  0  0  0  0  0  0  0
   23.0170   -8.1225  -14.7064 O   0  0  0  0  0  0  0  0  0  0  0  0
   22.4166   -6.5402  -16.2373 N   0  0  0  0  0  0  0  0  0  0  0  0
   21.9987   -6.0214  -17.5369 C   0  0  0  0  0  0  0  0  0  0  0  0
   22.7783   -4.7079  -17.6523 C   0  0  0  0  0  0  0  0  0  0  0  0
   22.5279   -4.1776  -16.2573 C   0  0  0  0  0  0  0  0  0  0  0  0
   22.6557   -5.3833  -15.3992 C   0  0  1  0  0  0  0  0  0  0  0  0
   21.8110   -5.3630  -14.2001 C   0  0  0  0  0  0  0  0  0  0  0  0
   20.6530   -6.1193  -14.1764 O   0  0  0  0  0  0  0  0  0  0  0  0
   22.1024   -4.6813  -13.1907 O   0  0  0  0  0  0  0  0  0  0  0  0
  2  1  1  6
  2  3  1  0
  3  4  1  0
  4  8  1  0
  5  4  2  0
  5  6  1  0
  6  7  1  0
  8  7  2  0
  9  2  1  0
 10  9  2  0
 11  9  1  0
 12 11  1  0
 12 13  1  1
 13 14  1  0
 15 14  1  0
 16 17  1  0
 16 15  1  0
 18 12  1  0
 19 18  2  0
 20 18  1  0
 20 21  1  0
 22 21  1  0
 23 24  1  0
 23 22  1  0
 24 25  1  1
 24 20  1  0
 25 26  1  0
 27 25  2  0
M  END
$$$$
