GEQ.pdb
     RDKit          3D

 23 22  0  0  1  0  0  0  0  0999 V2000
   25.3891  -11.6312  -21.0744 N   0  0  0  0  0  0  0  0  0  0  0  0
   24.1757  -10.8766  -20.9050 C   0  0  0  0  0  0  0  0  0  0  0  0
   24.0689  -10.3733  -19.4774 C   0  0  0  0  0  0  0  0  0  0  0  0
   23.8521  -11.2093  -18.6349 O   0  0  0  0  0  0  0  0  0  0  0  0
   24.2181   -9.0093  -19.1754 N   0  0  0  0  0  0  0  0  0  0  0  0
   24.1649   -8.2558  -18.0058 C   0  0  1  0  0  0  0  0  0  0  0  0
   24.8756   -6.8993  -17.9960 C   0  0  0  0  0  0  0  0  0  0  0  0
   26.3497   -6.9059  -18.1636 C   0  0  0  0  0  0  0  0  0  0  0  0
   26.8110   -5.5056  -18.1642 C   0  0  0  0  0  0  0  0  0  0  0  0
   27.1130   -4.9095  -17.1308 O   0  0  0  0  0  0  0  0  0  0  0  0
   22.8693   -8.0031  -17.4019 C   0  0  0  0  0  0  0  0  0  0  0  0
   22.0355   -7.4072  -18.2125 O   0  0  0  0  0  0  0  0  0  0  0  0
   26.8942   -4.8498  -19.4173 O   0  0  0  0  0  0  0  0  0  0  0  0
   18.8348  -11.7624  -15.8313 N   0  0  0  0  0  0  0  0  0  0  0  0
   18.2800  -10.6365  -15.1557 C   0  0  0  0  0  0  0  0  0  0  0  0
   17.0897  -10.7769  -14.7242 O   0  0  0  0  0  0  0  0  0  0  0  0
   19.0592   -9.3789  -14.9783 C   0  0  0  0  0  0  0  0  0  0  0  0
   20.4109   -9.3859  -15.5796 C   0  0  0  0  0  0  0  0  0  0  0  0
   21.1471   -8.0651  -15.5449 C   0  0  2  0  0  0  0  0  0  0  0  0
   22.4832   -8.3330  -16.1290 N   0  0  0  0  0  0  0  0  0  0  0  0
   21.2919   -7.5139  -14.2011 C   0  0  0  0  0  0  0  0  0  0  0  0
   20.2314   -6.8830  -13.5862 O   0  0  0  0  0  0  0  0  0  0  0  0
   22.3685   -7.6059  -13.5631 O   0  0  0  0  0  0  0  0  0  0  0  0
  1  2  1  0
  2  3  1  0
  3  5  1  0
  3  4  2  0
  5  6  1  0
  6 11  1  0
  6  7  1  6
  8  7  1  0
  9 13  1  0
  9  8  1  0
 10  9  2  0
 11 20  1  0
 11 12  2  0
 14 15  1  0
 15 17  1  0
 15 16  2  0
 17 18  1  0
 19 18  1  1
 19 21  1  0
 20 19  1  0
 21 22  1  0
 23 21  2  0
M  END
$$$$
