GEQ.pdb
     RDKit          3D

 23 22  0  0  1  0  0  0  0  0999 V2000
   15.1424  -13.5718  -20.7785 N   0  0  0  0  0  0  0  0  0  0  0  0
   15.9849  -12.4319  -21.0262 C   0  0  0  0  0  0  0  0  0  0  0  0
   16.0632  -11.5613  -19.7858 C   0  0  0  0  0  0  0  0  0  0  0  0
   15.2644  -10.6595  -19.7191 O   0  0  0  0  0  0  0  0  0  0  0  0
   17.0172  -11.8084  -18.7844 N   0  0  0  0  0  0  0  0  0  0  0  0
   17.2626  -11.2849  -17.5178 C   0  0  1  0  0  0  0  0  0  0  0  0
   17.6942  -12.2551  -16.4142 C   0  0  0  0  0  0  0  0  0  0  0  0
   16.7133  -13.2877  -15.9987 C   0  0  0  0  0  0  0  0  0  0  0  0
   17.3431  -14.1149  -14.9534 C   0  0  0  0  0  0  0  0  0  0  0  0
   18.4463  -13.8495  -14.4767 O   0  0  0  0  0  0  0  0  0  0  0  0
   18.1669  -10.1559  -17.3973 C   0  0  0  0  0  0  0  0  0  0  0  0
   19.2223  -10.2632  -18.1602 O   0  0  0  0  0  0  0  0  0  0  0  0
   16.6272  -15.2529  -14.5065 O   0  0  0  0  0  0  0  0  0  0  0  0
   16.3109   -4.3400  -16.4844 N   0  0  0  0  0  0  0  0  0  0  0  0
   17.7266   -4.1777  -16.4479 C   0  0  0  0  0  0  0  0  0  0  0  0
   18.1480   -2.9773  -16.3852 O   0  0  0  0  0  0  0  0  0  0  0  0
   18.6417   -5.3530  -16.4856 C   0  0  0  0  0  0  0  0  0  0  0  0
   17.9741   -6.6664  -16.6207 C   0  0  0  0  0  0  0  0  0  0  0  0
   18.8884   -7.8704  -16.5761 C   0  0  2  0  0  0  0  0  0  0  0  0
   17.9968   -9.0547  -16.5994 N   0  0  0  0  0  0  0  0  0  0  0  0
   19.7406   -7.9114  -15.3917 C   0  0  0  0  0  0  0  0  0  0  0  0
   20.8692   -7.1233  -15.3150 O   0  0  0  0  0  0  0  0  0  0  0  0
   19.4712   -8.6458  -14.4106 O   0  0  0  0  0  0  0  0  0  0  0  0
  1  2  1  0
  2  3  1  0
  3  5  1  0
  3  4  2  0
  5  6  1  0
  6 11  1  0
  6  7  1  1
  8  7  1  0
  9 13  1  0
  9  8  1  0
 10  9  2  0
 11 20  1  0
 11 12  2  0
 14 15  1  0
 15 17  1  0
 15 16  2  0
 17 18  1  0
 19 18  1  1
 19 21  1  0
 20 19  1  0
 21 22  1  0
 23 21  2  0
M  END
$$$$
