GEQ.pdb
     RDKit          3D

 23 22  0  0  1  0  0  0  0  0999 V2000
   15.3378  -11.6800  -14.1065 N   0  0  0  0  0  0  0  0  0  0  0  0
   15.1870  -10.3581  -14.6545 C   0  0  0  0  0  0  0  0  0  0  0  0
   16.4190   -9.9818  -15.4564 C   0  0  0  0  0  0  0  0  0  0  0  0
   17.3685  -10.7184  -15.3475 O   0  0  0  0  0  0  0  0  0  0  0  0
   16.4326   -8.8387  -16.2731 N   0  0  0  0  0  0  0  0  0  0  0  0
   17.3733   -8.2487  -17.1131 C   0  0  1  0  0  0  0  0  0  0  0  0
   16.8614   -7.3329  -18.2287 C   0  0  0  0  0  0  0  0  0  0  0  0
   17.8294   -6.9449  -19.2839 C   0  0  0  0  0  0  0  0  0  0  0  0
   17.1225   -6.0874  -20.2528 C   0  0  0  0  0  0  0  0  0  0  0  0
   17.2757   -4.8668  -20.2891 O   0  0  0  0  0  0  0  0  0  0  0  0
   18.4805   -7.5256  -16.5148 C   0  0  0  0  0  0  0  0  0  0  0  0
   18.1522   -6.9133  -15.4081 O   0  0  0  0  0  0  0  0  0  0  0  0
   16.2381   -6.7234  -21.1586 O   0  0  0  0  0  0  0  0  0  0  0  0
   20.8199   -5.8488  -13.0070 N   0  0  0  0  0  0  0  0  0  0  0  0
   22.1483   -6.2924  -13.2725 C   0  0  0  0  0  0  0  0  0  0  0  0
   23.0599   -5.7924  -12.5365 O   0  0  0  0  0  0  0  0  0  0  0  0
   22.4338   -7.2786  -14.3523 C   0  0  0  0  0  0  0  0  0  0  0  0
   21.2593   -7.6985  -15.1478 C   0  0  0  0  0  0  0  0  0  0  0  0
   20.8964   -6.7926  -16.3033 C   0  0  2  0  0  0  0  0  0  0  0  0
   19.7628   -7.4536  -16.9932 N   0  0  0  0  0  0  0  0  0  0  0  0
   21.9936   -6.5770  -17.2416 C   0  0  0  0  0  0  0  0  0  0  0  0
   22.9665   -5.6371  -16.9755 O   0  0  0  0  0  0  0  0  0  0  0  0
   22.0945   -7.2404  -18.3019 O   0  0  0  0  0  0  0  0  0  0  0  0
  1  2  1  0
  2  3  1  0
  3  5  1  0
  3  4  2  0
  5  6  1  0
  6 11  1  0
  6  7  1  6
  8  7  1  0
  9 13  1  0
  9  8  1  0
 10  9  2  0
 11 20  1  0
 11 12  2  0
 14 15  1  0
 15 17  1  0
 15 16  2  0
 17 18  1  0
 19 18  1  1
 19 21  1  0
 20 19  1  0
 21 22  1  0
 23 21  2  0
M  END
$$$$
