GEQ.pdb
     RDKit          3D

 23 22  0  0  1  0  0  0  0  0999 V2000
   28.2818  -34.2504   -8.0161 N   0  0  0  0  0  0  0  0  0  0  0  0
   29.3102  -34.2230   -7.0101 C   0  0  0  0  0  0  0  0  0  0  0  0
   28.7763  -34.7782   -5.7026 C   0  0  0  0  0  0  0  0  0  0  0  0
   27.5928  -35.0102   -5.6685 O   0  0  0  0  0  0  0  0  0  0  0  0
   29.6276  -35.0026   -4.6076 N   0  0  0  0  0  0  0  0  0  0  0  0
   29.4480  -35.4784   -3.3115 C   0  0  1  0  0  0  0  0  0  0  0  0
   30.6940  -35.6770   -2.4435 C   0  0  0  0  0  0  0  0  0  0  0  0
   31.3461  -37.0088   -2.4896 C   0  0  0  0  0  0  0  0  0  0  0  0
   32.5704  -36.9414   -1.6709 C   0  0  0  0  0  0  0  0  0  0  0  0
   32.5528  -36.6250   -0.4817 O   0  0  0  0  0  0  0  0  0  0  0  0
   28.4965  -34.8009   -2.4497 C   0  0  0  0  0  0  0  0  0  0  0  0
   28.7831  -33.5396   -2.2645 O   0  0  0  0  0  0  0  0  0  0  0  0
   33.7962  -37.2541   -2.3087 O   0  0  0  0  0  0  0  0  0  0  0  0
   21.9966  -32.6798   -1.4998 N   0  0  0  0  0  0  0  0  0  0  0  0
   23.1816  -33.3294   -1.9532 C   0  0  0  0  0  0  0  0  0  0  0  0
   23.6578  -32.9113   -3.0582 O   0  0  0  0  0  0  0  0  0  0  0  0
   23.8082  -34.4314   -1.1701 C   0  0  0  0  0  0  0  0  0  0  0  0
   25.0241  -35.0198   -1.7735 C   0  0  0  0  0  0  0  0  0  0  0  0
   26.3337  -34.5971   -1.1461 C   0  0  2  0  0  0  0  0  0  0  0  0
   27.3874  -35.3535   -1.8642 N   0  0  0  0  0  0  0  0  0  0  0  0
   26.4099  -34.8729    0.2853 C   0  0  0  0  0  0  0  0  0  0  0  0
   27.2429  -35.8620    0.7633 O   0  0  0  0  0  0  0  0  0  0  0  0
   25.7385  -34.2187    1.1195 O   0  0  0  0  0  0  0  0  0  0  0  0
  1  2  1  0
  2  3  1  0
  3  5  1  0
  3  4  2  0
  5  6  1  0
  6 11  1  0
  6  7  1  1
  8  7  1  0
  9 13  1  0
  9  8  1  0
 10  9  2  0
 11 20  1  0
 11 12  2  0
 14 15  1  0
 15 17  1  0
 15 16  2  0
 17 18  1  0
 19 18  1  6
 19 21  1  0
 20 19  1  0
 21 22  1  0
 23 21  2  0
M  END
$$$$
