GEQ.pdb
     RDKit          3D

 23 22  0  0  1  0  0  0  0  0999 V2000
   26.5279  -24.6436  -16.2408 N   0  0  0  0  0  0  0  0  0  0  0  0
   25.4098  -23.8765  -16.7224 C   0  0  0  0  0  0  0  0  0  0  0  0
   25.1725  -22.6781  -15.8223 C   0  0  0  0  0  0  0  0  0  0  0  0
   25.8801  -22.5976  -14.8483 O   0  0  0  0  0  0  0  0  0  0  0  0
   24.1821  -21.7282  -16.1239 N   0  0  0  0  0  0  0  0  0  0  0  0
   23.7310  -20.5599  -15.5157 C   0  0  1  0  0  0  0  0  0  0  0  0
   23.1145  -19.4801  -16.4098 C   0  0  0  0  0  0  0  0  0  0  0  0
   23.9033  -19.0458  -17.5890 C   0  0  0  0  0  0  0  0  0  0  0  0
   23.1246  -18.0147  -18.2989 C   0  0  0  0  0  0  0  0  0  0  0  0
   21.9437  -18.1743  -18.6067 O   0  0  0  0  0  0  0  0  0  0  0  0
   22.8262  -20.6708  -14.3861 C   0  0  0  0  0  0  0  0  0  0  0  0
   21.8506  -21.5148  -14.5941 O   0  0  0  0  0  0  0  0  0  0  0  0
   23.7917  -16.8090  -18.6281 O   0  0  0  0  0  0  0  0  0  0  0  0
   23.5215  -21.4966   -8.9971 N   0  0  0  0  0  0  0  0  0  0  0  0
   22.3899  -20.6836   -8.6963 C   0  0  0  0  0  0  0  0  0  0  0  0
   21.7463  -20.9934   -7.6416 O   0  0  0  0  0  0  0  0  0  0  0  0
   21.9972  -19.5472   -9.5764 C   0  0  0  0  0  0  0  0  0  0  0  0
   22.7073  -19.4804  -10.8725 C   0  0  0  0  0  0  0  0  0  0  0  0
   22.0584  -20.2350  -12.0114 C   0  0  2  0  0  0  0  0  0  0  0  0
   22.9235  -20.0035  -13.1930 N   0  0  0  0  0  0  0  0  0  0  0  0
   20.6955  -19.7980  -12.2983 C   0  0  0  0  0  0  0  0  0  0  0  0
   19.6175  -20.4967  -11.7980 O   0  0  0  0  0  0  0  0  0  0  0  0
   20.4622  -18.7773  -12.9899 O   0  0  0  0  0  0  0  0  0  0  0  0
  1  2  1  0
  2  3  1  0
  3  5  1  0
  3  4  2  0
  5  6  1  0
  6 11  1  0
  6  7  1  6
  8  7  1  0
  9 13  1  0
  9  8  1  0
 10  9  2  0
 11 20  1  0
 11 12  2  0
 14 15  1  0
 15 17  1  0
 15 16  2  0
 17 18  1  0
 19 18  1  1
 19 21  1  0
 20 19  1  0
 21 22  1  0
 23 21  2  0
M  END
$$$$
