GEQ.pdb
     RDKit          3D

 23 22  0  0  1  0  0  0  0  0999 V2000
   20.7997  -15.4631  -15.7116 N   0  0  0  0  0  0  0  0  0  0  0  0
   19.6111  -14.6800  -15.5007 C   0  0  0  0  0  0  0  0  0  0  0  0
   19.7883  -13.2931  -16.0904 C   0  0  0  0  0  0  0  0  0  0  0  0
   20.5553  -13.2047  -17.0176 O   0  0  0  0  0  0  0  0  0  0  0  0
   19.0899  -12.1893  -15.5728 N   0  0  0  0  0  0  0  0  0  0  0  0
   18.9104  -10.8692  -15.9772 C   0  0  1  0  0  0  0  0  0  0  0  0
   17.4817  -10.3186  -16.0084 C   0  0  0  0  0  0  0  0  0  0  0  0
   16.5753  -10.7248  -14.9063 C   0  0  0  0  0  0  0  0  0  0  0  0
   15.2847  -10.0407  -15.1069 C   0  0  0  0  0  0  0  0  0  0  0  0
   14.8432   -9.2160  -14.3072 O   0  0  0  0  0  0  0  0  0  0  0  0
   19.6959   -9.8332  -15.3315 C   0  0  0  0  0  0  0  0  0  0  0  0
   19.6727   -9.9127  -14.0275 O   0  0  0  0  0  0  0  0  0  0  0  0
   14.5487  -10.3712  -16.2715 O   0  0  0  0  0  0  0  0  0  0  0  0
   24.7222   -4.6889  -16.9866 N   0  0  0  0  0  0  0  0  0  0  0  0
   24.3135   -6.0529  -16.9194 C   0  0  0  0  0  0  0  0  0  0  0  0
   24.7930   -6.8226  -17.8140 O   0  0  0  0  0  0  0  0  0  0  0  0
   23.3783   -6.5295  -15.8618 C   0  0  0  0  0  0  0  0  0  0  0  0
   22.3442   -7.4834  -16.3193 C   0  0  0  0  0  0  0  0  0  0  0  0
   21.3347   -7.9021  -15.2737 C   0  0  2  0  0  0  0  0  0  0  0  0
   20.4194   -8.8496  -15.9538 N   0  0  0  0  0  0  0  0  0  0  0  0
   20.5747   -6.7867  -14.7180 C   0  0  0  0  0  0  0  0  0  0  0  0
   21.0521   -6.0891  -13.6289 O   0  0  0  0  0  0  0  0  0  0  0  0
   19.4816   -6.4214  -15.2143 O   0  0  0  0  0  0  0  0  0  0  0  0
  1  2  1  0
  2  3  1  0
  3  5  1  0
  3  4  2  0
  5  6  1  0
  6 11  1  0
  6  7  1  1
  8  7  1  0
  9 13  1  0
  9  8  1  0
 10  9  2  0
 11 20  1  0
 11 12  2  0
 14 15  1  0
 15 17  1  0
 15 16  2  0
 17 18  1  0
 19 18  1  6
 19 21  1  0
 20 19  1  0
 21 22  1  0
 23 21  2  0
M  END
$$$$
