GEQ.pdb
     RDKit          3D

 23 22  0  0  1  0  0  0  0  0999 V2000
   13.4783  -12.1022  -13.0236 N   0  0  0  0  0  0  0  0  0  0  0  0
   13.9012  -10.8424  -12.4716 C   0  0  0  0  0  0  0  0  0  0  0  0
   14.8922  -10.1705  -13.4039 C   0  0  0  0  0  0  0  0  0  0  0  0
   15.2662  -10.8279  -14.3440 O   0  0  0  0  0  0  0  0  0  0  0  0
   15.3352   -8.8580  -13.1689 N   0  0  0  0  0  0  0  0  0  0  0  0
   16.1591   -7.9676  -13.8520 C   0  0  1  0  0  0  0  0  0  0  0  0
   15.7066   -6.5079  -13.9530 C   0  0  0  0  0  0  0  0  0  0  0  0
   16.4668   -5.6253  -14.8717 C   0  0  0  0  0  0  0  0  0  0  0  0
   15.8476   -4.2880  -14.8295 C   0  0  0  0  0  0  0  0  0  0  0  0
   15.7374   -3.6441  -13.7865 O   0  0  0  0  0  0  0  0  0  0  0  0
   17.5618   -7.8991  -13.4846 C   0  0  0  0  0  0  0  0  0  0  0  0
   17.7459   -7.6172  -12.2221 O   0  0  0  0  0  0  0  0  0  0  0  0
   15.3680   -3.7555  -16.0516 O   0  0  0  0  0  0  0  0  0  0  0  0
   22.1014  -11.1667  -16.2524 N   0  0  0  0  0  0  0  0  0  0  0  0
   22.8470  -10.3704  -15.3348 C   0  0  0  0  0  0  0  0  0  0  0  0
   24.0936  -10.6229  -15.2636 O   0  0  0  0  0  0  0  0  0  0  0  0
   22.1897   -9.3143  -14.5147 C   0  0  0  0  0  0  0  0  0  0  0  0
   20.7349   -9.1607  -14.7350 C   0  0  0  0  0  0  0  0  0  0  0  0
   20.0542   -8.1092  -13.8873 C   0  0  2  0  0  0  0  0  0  0  0  0
   18.6340   -8.1056  -14.3128 N   0  0  0  0  0  0  0  0  0  0  0  0
   20.6250   -6.7750  -14.0444 C   0  0  0  0  0  0  0  0  0  0  0  0
   20.2022   -5.9494  -15.0644 O   0  0  0  0  0  0  0  0  0  0  0  0
   21.4989   -6.3349  -13.2587 O   0  0  0  0  0  0  0  0  0  0  0  0
  1  2  1  0
  2  3  1  0
  3  5  1  0
  3  4  2  0
  5  6  1  0
  6 11  1  0
  6  7  1  1
  8  7  1  0
  9 13  1  0
  9  8  1  0
 10  9  2  0
 11 20  1  0
 11 12  2  0
 14 15  1  0
 15 17  1  0
 15 16  2  0
 17 18  1  0
 19 18  1  6
 19 21  1  0
 20 19  1  0
 21 22  1  0
 23 21  2  0
M  END
$$$$
