GEQ.pdb
     RDKit          3D

 23 22  0  0  1  0  0  0  0  0999 V2000
   26.9413  -21.7840  -16.1642 N   0  0  0  0  0  0  0  0  0  0  0  0
   25.8974  -20.9944  -16.7619 C   0  0  0  0  0  0  0  0  0  0  0  0
   24.9876  -20.4314  -15.6857 C   0  0  0  0  0  0  0  0  0  0  0  0
   25.1268  -20.8916  -14.5791 O   0  0  0  0  0  0  0  0  0  0  0  0
   24.0454  -19.4320  -15.9813 N   0  0  0  0  0  0  0  0  0  0  0  0
   23.0245  -18.8096  -15.2680 C   0  0  1  0  0  0  0  0  0  0  0  0
   22.6734  -17.3648  -15.6350 C   0  0  0  0  0  0  0  0  0  0  0  0
   22.2341  -17.1079  -17.0286 C   0  0  0  0  0  0  0  0  0  0  0  0
   22.0297  -15.6554  -17.1776 C   0  0  0  0  0  0  0  0  0  0  0  0
   22.9667  -14.8633  -17.2739 O   0  0  0  0  0  0  0  0  0  0  0  0
   21.7459  -19.4871  -15.1532 C   0  0  0  0  0  0  0  0  0  0  0  0
   21.3383  -20.0035  -16.2822 O   0  0  0  0  0  0  0  0  0  0  0  0
   20.6929  -15.1868  -17.2029 O   0  0  0  0  0  0  0  0  0  0  0  0
   19.9087  -23.7164  -12.3254 N   0  0  0  0  0  0  0  0  0  0  0  0
   18.6413  -23.1149  -12.0732 C   0  0  0  0  0  0  0  0  0  0  0  0
   17.6793  -23.9180  -11.8449 O   0  0  0  0  0  0  0  0  0  0  0  0
   18.4711  -21.6346  -12.0842 C   0  0  0  0  0  0  0  0  0  0  0  0
   19.6784  -20.8650  -12.4565 C   0  0  0  0  0  0  0  0  0  0  0  0
   19.7542  -20.4299  -13.9031 C   0  0  2  0  0  0  0  0  0  0  0  0
   20.9920  -19.6218  -14.0166 N   0  0  0  0  0  0  0  0  0  0  0  0
   18.6036  -19.6427  -14.3358 C   0  0  0  0  0  0  0  0  0  0  0  0
   18.5575  -18.2849  -14.1013 O   0  0  0  0  0  0  0  0  0  0  0  0
   17.6362  -20.1660  -14.9398 O   0  0  0  0  0  0  0  0  0  0  0  0
  1  2  1  0
  2  3  1  0
  3  5  1  0
  3  4  2  0
  5  6  1  0
  6 11  1  0
  6  7  1  6
  8  7  1  0
  9 13  1  0
  9  8  1  0
 10  9  2  0
 11 20  1  0
 11 12  2  0
 14 15  1  0
 15 17  1  0
 15 16  2  0
 17 18  1  0
 19 18  1  1
 19 21  1  0
 20 19  1  0
 21 22  1  0
 23 21  2  0
M  END
$$$$
