FML.pdb
     RDKit          3D

 28 28  0  0  1  0  0  0  0  0999 V2000
    9.7169  -20.2353   20.8550 N   0  0  0  0  0  0  0  0  0  0  0  0
    9.0430  -19.5670   21.9666 C   0  0  1  0  0  0  0  0  0  0  0  0
    9.5783  -20.0819   23.2593 C   0  0  0  0  0  0  0  0  0  0  0  0
    9.5012  -21.5311   23.4265 C   0  0  0  0  0  0  0  0  0  0  0  0
   10.6380  -22.2431   23.8200 C   0  0  0  0  0  0  0  0  0  0  0  0
   10.5493  -23.6071   23.9870 C   0  0  0  0  0  0  0  0  0  0  0  0
    9.3386  -24.2590   23.7643 C   0  0  0  0  0  0  0  0  0  0  0  0
    8.2047  -23.5645   23.3741 C   0  0  0  0  0  0  0  0  0  0  0  0
    8.3136  -22.1987   23.2121 C   0  0  0  0  0  0  0  0  0  0  0  0
    9.2534  -18.1104   21.8796 C   0  0  0  0  0  0  0  0  0  0  0  0
   10.3133  -17.6723   21.3851 O   0  0  0  0  0  0  0  0  0  0  0  0
    7.6147  -11.4619   19.9761 C   0  0  0  0  0  0  0  0  0  0  0  0
    7.8549  -13.2095   20.3195 S   0  0  0  0  0  0  0  0  0  0  0  0
    6.8407  -13.7760   21.7080 C   0  0  0  0  0  0  0  0  0  0  0  0
    7.0470  -15.2134   21.9249 C   0  0  0  0  0  0  0  0  0  0  0  0
    8.3857  -15.7478   22.2344 C   0  0  2  0  0  0  0  0  0  0  0  0
    8.2627  -17.2327   22.3522 N   0  0  0  0  0  0  0  0  0  0  0  0
    9.0998  -15.3163   23.4111 C   0  0  0  0  0  0  0  0  0  0  0  0
   10.0309  -14.4232   23.3709 O   0  0  0  0  0  0  0  0  0  0  0  0
    6.1843  -13.2221   26.5834 C   0  0  0  0  0  0  0  0  0  0  0  0
    7.5420  -13.5219   26.0893 C   0  0  1  0  0  0  0  0  0  0  0  0
    8.3553  -12.2130   26.2630 C   0  0  0  0  0  0  0  0  0  0  0  0
    8.3122  -14.6171   26.6432 C   0  0  0  0  0  0  0  0  0  0  0  0
    9.4764  -15.2069   25.9012 C   0  0  2  0  0  0  0  0  0  0  0  0
    8.8406  -15.8164   24.7044 N   0  0  0  0  0  0  0  0  0  0  0  0
   10.2226  -16.2467   26.5658 C   0  0  0  0  0  0  0  0  0  0  0  0
   10.2636  -17.5286   26.0378 O   0  0  0  0  0  0  0  0  0  0  0  0
   10.8466  -16.0571   27.6182 O   0  0  0  0  0  0  0  0  0  0  0  0
  2  3  1  0
  2  1  1  6
  4  3  1  0
  4  5  2  0
  6  5  1  0
  7  6  2  0
  8  9  2  0
  8  7  1  0
  9  4  1  0
 10  2  1  0
 11 10  2  0
 13 12  1  0
 13 14  1  0
 16 15  1  1
 15 14  1  0
 16 17  1  0
 17 10  1  0
 18 25  1  0
 18 16  1  0
 19 18  2  0
 21 20  1  1
 21 23  1  0
 21 22  1  0
 24 23  1  1
 24 26  1  0
 24 25  1  0
 26 27  1  0
 28 26  2  0
M  END
$$$$
