FML.pdb
     RDKit          3D

 28 28  0  0  1  0  0  0  0  0999 V2000
    5.6039  -18.3651   25.2301 N   0  0  0  0  0  0  0  0  0  0  0  0
    6.0544  -16.9845   25.0650 C   0  0  1  0  0  0  0  0  0  0  0  0
    6.2826  -16.3686   26.4033 C   0  0  0  0  0  0  0  0  0  0  0  0
    6.4277  -14.9151   26.3981 C   0  0  0  0  0  0  0  0  0  0  0  0
    7.7028  -14.3472   26.4725 C   0  0  0  0  0  0  0  0  0  0  0  0
    7.8273  -12.9759   26.4534 C   0  0  0  0  0  0  0  0  0  0  0  0
    6.6918  -12.1745   26.3610 C   0  0  0  0  0  0  0  0  0  0  0  0
    5.4223  -12.7252   26.2867 C   0  0  0  0  0  0  0  0  0  0  0  0
    5.3183  -14.1008   26.3071 C   0  0  0  0  0  0  0  0  0  0  0  0
    7.3004  -16.9529   24.2776 C   0  0  0  0  0  0  0  0  0  0  0  0
    8.1214  -17.8871   24.3913 O   0  0  0  0  0  0  0  0  0  0  0  0
    8.6170  -11.8546   19.9072 C   0  0  0  0  0  0  0  0  0  0  0  0
    8.7332  -13.4780   19.1449 S   0  0  0  0  0  0  0  0  0  0  0  0
    9.3727  -14.7243   20.2918 C   0  0  0  0  0  0  0  0  0  0  0  0
    8.4416  -14.8965   21.4139 C   0  0  0  0  0  0  0  0  0  0  0  0
    8.7453  -15.8308   22.5131 C   0  0  2  0  0  0  0  0  0  0  0  0
    7.5508  -15.8759   23.4102 N   0  0  0  0  0  0  0  0  0  0  0  0
    9.8797  -15.6120   23.3769 C   0  0  0  0  0  0  0  0  0  0  0  0
   10.5956  -14.5391   23.3262 O   0  0  0  0  0  0  0  0  0  0  0  0
   10.2583  -13.4438   28.1171 C   0  0  0  0  0  0  0  0  0  0  0  0
   10.9720  -14.5380   27.4309 C   0  0  1  0  0  0  0  0  0  0  0  0
   11.0748  -15.6904   28.4634 C   0  0  0  0  0  0  0  0  0  0  0  0
   10.4776  -15.0834   26.1829 C   0  0  0  0  0  0  0  0  0  0  0  0
   11.2435  -16.1336   25.4317 C   0  0  2  0  0  0  0  0  0  0  0  0
   10.3000  -16.5358   24.3565 N   0  0  0  0  0  0  0  0  0  0  0  0
   11.6043  -17.3286   26.1538 C   0  0  0  0  0  0  0  0  0  0  0  0
   10.7167  -18.3907   26.2418 O   0  0  0  0  0  0  0  0  0  0  0  0
   12.6953  -17.4653   26.7229 O   0  0  0  0  0  0  0  0  0  0  0  0
  2  3  1  0
  2  1  1  1
  4  3  1  0
  4  5  2  0
  6  5  1  0
  7  6  2  0
  8  9  2  0
  8  7  1  0
  9  4  1  0
 10  2  1  0
 11 10  2  0
 13 12  1  0
 13 14  1  0
 16 15  1  6
 15 14  1  0
 16 17  1  0
 17 10  1  0
 18 25  1  0
 18 16  1  0
 19 18  2  0
 21 20  1  1
 21 23  1  0
 21 22  1  0
 24 23  1  1
 24 26  1  0
 24 25  1  0
 26 27  1  0
 28 26  2  0
M  END
$$$$
