FML.pdb
     RDKit          3D

 28 28  0  0  1  0  0  0  0  0999 V2000
    5.7801  -19.9982   22.9582 N   0  0  0  0  0  0  0  0  0  0  0  0
    6.0700  -18.7335   23.6311 C   0  0  1  0  0  0  0  0  0  0  0  0
    6.3267  -18.9834   25.0783 C   0  0  0  0  0  0  0  0  0  0  0  0
    6.7883  -17.8215   25.8337 C   0  0  0  0  0  0  0  0  0  0  0  0
    6.0741  -16.6220   25.7622 C   0  0  0  0  0  0  0  0  0  0  0  0
    6.5120  -15.5375   26.4892 C   0  0  0  0  0  0  0  0  0  0  0  0
    7.6523  -15.6448   27.2820 C   0  0  0  0  0  0  0  0  0  0  0  0
    8.3690  -16.8283   27.3614 C   0  0  0  0  0  0  0  0  0  0  0  0
    7.9144  -17.9034   26.6257 C   0  0  0  0  0  0  0  0  0  0  0  0
    7.2468  -18.0941   23.0146 C   0  0  0  0  0  0  0  0  0  0  0  0
    8.2795  -18.7688   22.8198 O   0  0  0  0  0  0  0  0  0  0  0  0
    6.6046  -12.0890   20.2297 C   0  0  0  0  0  0  0  0  0  0  0  0
    7.6557  -13.1114   19.1907 S   0  0  0  0  0  0  0  0  0  0  0  0
    8.6464  -14.2754   20.1609 C   0  0  0  0  0  0  0  0  0  0  0  0
    7.7731  -15.0685   21.0350 C   0  0  0  0  0  0  0  0  0  0  0  0
    8.3377  -16.0402   21.9892 C   0  0  2  0  0  0  0  0  0  0  0  0
    7.1945  -16.7369   22.6536 N   0  0  0  0  0  0  0  0  0  0  0  0
    9.2099  -15.6089   23.0541 C   0  0  0  0  0  0  0  0  0  0  0  0
   10.3860  -15.1236   22.8363 O   0  0  0  0  0  0  0  0  0  0  0  0
    6.6846  -12.9302   26.9865 C   0  0  0  0  0  0  0  0  0  0  0  0
    7.6384  -13.4897   26.0095 C   0  0  1  0  0  0  0  0  0  0  0  0
    8.3649  -12.2723   25.3810 C   0  0  0  0  0  0  0  0  0  0  0  0
    8.6357  -14.4604   26.4128 C   0  0  0  0  0  0  0  0  0  0  0  0
    9.6689  -14.9656   25.4479 C   0  0  2  0  0  0  0  0  0  0  0  0
    8.8567  -15.6651   24.4186 N   0  0  0  0  0  0  0  0  0  0  0  0
   10.6318  -15.9141   25.9507 C   0  0  0  0  0  0  0  0  0  0  0  0
   10.6235  -17.2270   25.5035 O   0  0  0  0  0  0  0  0  0  0  0  0
   11.4920  -15.6164   26.7898 O   0  0  0  0  0  0  0  0  0  0  0  0
  2  3  1  0
  2  1  1  6
  4  3  1  0
  4  5  2  0
  6  5  1  0
  7  6  2  0
  8  9  2  0
  8  7  1  0
  9  4  1  0
 10  2  1  0
 11 10  2  0
 13 12  1  0
 13 14  1  0
 16 15  1  1
 15 14  1  0
 16 17  1  0
 17 10  1  0
 18 25  1  0
 18 16  1  0
 19 18  2  0
 21 20  1  1
 21 23  1  0
 21 22  1  0
 24 23  1  1
 24 26  1  0
 24 25  1  0
 26 27  1  0
 28 26  2  0
M  END
$$$$
