FML.pdb
     RDKit          3D

 28 28  0  0  1  0  0  0  0  0999 V2000
   10.0450  -18.1434   20.5800 N   0  0  0  0  0  0  0  0  0  0  0  0
    9.7106  -16.7239   20.6763 C   0  0  1  0  0  0  0  0  0  0  0  0
    8.6747  -16.3832   19.6598 C   0  0  0  0  0  0  0  0  0  0  0  0
    8.2173  -14.9961   19.6846 C   0  0  0  0  0  0  0  0  0  0  0  0
    9.0912  -13.9730   19.3056 C   0  0  0  0  0  0  0  0  0  0  0  0
    8.6441  -12.6706   19.3206 C   0  0  0  0  0  0  0  0  0  0  0  0
    7.3370  -12.3872   19.7098 C   0  0  0  0  0  0  0  0  0  0  0  0
    6.4611  -13.3923   20.0877 C   0  0  0  0  0  0  0  0  0  0  0  0
    6.9276  -14.6906   20.0660 C   0  0  0  0  0  0  0  0  0  0  0  0
    9.2093  -16.4160   22.0282 C   0  0  0  0  0  0  0  0  0  0  0  0
    8.4674  -17.2360   22.6085 O   0  0  0  0  0  0  0  0  0  0  0  0
    6.2533  -11.9387   27.0000 C   0  0  0  0  0  0  0  0  0  0  0  0
    6.9696  -12.4406   25.4301 S   0  0  0  0  0  0  0  0  0  0  0  0
    6.9555  -14.2386   25.2194 C   0  0  0  0  0  0  0  0  0  0  0  0
    7.6869  -14.6055   24.0003 C   0  0  0  0  0  0  0  0  0  0  0  0
    9.1388  -14.8587   24.0357 C   0  0  2  0  0  0  0  0  0  0  0  0
    9.5702  -15.2073   22.6479 N   0  0  0  0  0  0  0  0  0  0  0  0
    9.6898  -15.8826   24.8894 C   0  0  0  0  0  0  0  0  0  0  0  0
   10.5800  -16.7236   24.4811 O   0  0  0  0  0  0  0  0  0  0  0  0
    9.7773  -13.6541   29.6907 C   0  0  0  0  0  0  0  0  0  0  0  0
   10.0751  -14.4273   28.4697 C   0  0  1  0  0  0  0  0  0  0  0  0
   11.5008  -13.9999   28.0343 C   0  0  0  0  0  0  0  0  0  0  0  0
   10.0104  -15.8748   28.4694 C   0  0  0  0  0  0  0  0  0  0  0  0
   10.2537  -16.6672   27.2177 C   0  0  2  0  0  0  0  0  0  0  0  0
    9.3198  -16.0502   26.2402 N   0  0  0  0  0  0  0  0  0  0  0  0
    9.9560  -18.0775   27.2626 C   0  0  0  0  0  0  0  0  0  0  0  0
   10.8793  -18.9738   27.7801 O   0  0  0  0  0  0  0  0  0  0  0  0
    8.8902  -18.5521   26.8482 O   0  0  0  0  0  0  0  0  0  0  0  0
  2  3  1  0
  2  1  1  1
  4  3  1  0
  4  5  2  0
  6  5  1  0
  7  6  2  0
  8  9  2  0
  8  7  1  0
  9  4  1  0
 10  2  1  0
 11 10  2  0
 13 12  1  0
 13 14  1  0
 16 15  1  6
 15 14  1  0
 16 17  1  0
 17 10  1  0
 18 25  1  0
 18 16  1  0
 19 18  2  0
 21 20  1  1
 21 23  1  0
 21 22  1  0
 24 23  1  1
 24 26  1  0
 24 25  1  0
 26 27  1  0
 28 26  2  0
M  END
$$$$
