FML.pdb
     RDKit          3D

 28 28  0  0  1  0  0  0  0  0999 V2000
    8.8968  -16.0590   22.2515 N   0  0  0  0  0  0  0  0  0  0  0  0
    8.4665  -15.1671   23.3266 C   0  0  1  0  0  0  0  0  0  0  0  0
    7.3346  -14.3207   22.8523 C   0  0  0  0  0  0  0  0  0  0  0  0
    6.7834  -13.4092   23.8519 C   0  0  0  0  0  0  0  0  0  0  0  0
    5.6254  -13.7658   24.5489 C   0  0  0  0  0  0  0  0  0  0  0  0
    5.1230  -12.9038   25.4981 C   0  0  0  0  0  0  0  0  0  0  0  0
    5.7674  -11.6955   25.7526 C   0  0  0  0  0  0  0  0  0  0  0  0
    6.9160  -11.3306   25.0686 C   0  0  0  0  0  0  0  0  0  0  0  0
    7.4039  -12.2074   24.1216 C   0  0  0  0  0  0  0  0  0  0  0  0
    8.0468  -15.9577   24.4981 C   0  0  0  0  0  0  0  0  0  0  0  0
    7.5244  -15.3786   25.4735 O   0  0  0  0  0  0  0  0  0  0  0  0
    5.6106  -21.3651   23.6478 C   0  0  0  0  0  0  0  0  0  0  0  0
    5.6532  -21.5703   25.4326 S   0  0  0  0  0  0  0  0  0  0  0  0
    6.7858  -20.4014   26.2253 C   0  0  0  0  0  0  0  0  0  0  0  0
    7.1475  -19.3366   25.2813 C   0  0  0  0  0  0  0  0  0  0  0  0
    7.9675  -18.1895   25.7118 C   0  0  2  0  0  0  0  0  0  0  0  0
    8.2382  -17.3500   24.5053 N   0  0  0  0  0  0  0  0  0  0  0  0
    9.2469  -18.3925   26.3466 C   0  0  0  0  0  0  0  0  0  0  0  0
    9.5987  -19.5252   26.8557 O   0  0  0  0  0  0  0  0  0  0  0  0
    9.5426  -13.8147   28.7839 C   0  0  0  0  0  0  0  0  0  0  0  0
   10.1555  -14.8711   27.9559 C   0  0  1  0  0  0  0  0  0  0  0  0
   11.5325  -14.3148   27.5095 C   0  0  0  0  0  0  0  0  0  0  0  0
   10.3489  -16.2091   28.4773 C   0  0  0  0  0  0  0  0  0  0  0  0
   11.0629  -17.2622   27.6804 C   0  0  2  0  0  0  0  0  0  0  0  0
   10.2278  -17.3848   26.4575 N   0  0  0  0  0  0  0  0  0  0  0  0
   11.1615  -18.5767   28.2651 C   0  0  0  0  0  0  0  0  0  0  0  0
   10.0304  -19.3655   28.4141 O   0  0  0  0  0  0  0  0  0  0  0  0
   12.2322  -19.0574   28.6592 O   0  0  0  0  0  0  0  0  0  0  0  0
  2  3  1  0
  2  1  1  6
  4  3  1  0
  4  5  2  0
  6  5  1  0
  7  6  2  0
  8  9  2  0
  8  7  1  0
  9  4  1  0
 10  2  1  0
 11 10  2  0
 13 12  1  0
 13 14  1  0
 16 15  1  6
 15 14  1  0
 16 17  1  0
 17 10  1  0
 18 25  1  0
 18 16  1  0
 19 18  2  0
 21 20  1  1
 21 23  1  0
 21 22  1  0
 24 23  1  1
 24 26  1  0
 24 25  1  0
 26 27  1  0
 28 26  2  0
M  END
$$$$
