FML.pdb
     RDKit          3D

 28 28  0  0  1  0  0  0  0  0999 V2000
    9.3024  -18.3479   20.7308 N   0  0  0  0  0  0  0  0  0  0  0  0
    9.1606  -16.8948   20.7997 C   0  0  1  0  0  0  0  0  0  0  0  0
    8.1704  -16.4394   19.7825 C   0  0  0  0  0  0  0  0  0  0  0  0
    7.8648  -15.0113   19.8138 C   0  0  0  0  0  0  0  0  0  0  0  0
    8.7741  -14.0976   19.2729 C   0  0  0  0  0  0  0  0  0  0  0  0
    8.4686  -12.7551   19.2966 C   0  0  0  0  0  0  0  0  0  0  0  0
    7.2672  -12.3237   19.8542 C   0  0  0  0  0  0  0  0  0  0  0  0
    6.3576  -13.2194   20.3935 C   0  0  0  0  0  0  0  0  0  0  0  0
    6.6817  -14.5601   20.3603 C   0  0  0  0  0  0  0  0  0  0  0  0
    8.7164  -16.4963   22.1479 C   0  0  0  0  0  0  0  0  0  0  0  0
    7.9906  -17.2693   22.8078 O   0  0  0  0  0  0  0  0  0  0  0  0
    7.2018  -11.8535   26.5364 C   0  0  0  0  0  0  0  0  0  0  0  0
    6.1754  -12.9120   25.5089 S   0  0  0  0  0  0  0  0  0  0  0  0
    6.7202  -14.6379   25.5524 C   0  0  0  0  0  0  0  0  0  0  0  0
    7.3493  -14.9965   24.2751 C   0  0  0  0  0  0  0  0  0  0  0  0
    8.8025  -14.8448   24.0780 C   0  0  2  0  0  0  0  0  0  0  0  0
    9.1129  -15.2553   22.6748 N   0  0  0  0  0  0  0  0  0  0  0  0
    9.7397  -15.5549   24.9136 C   0  0  0  0  0  0  0  0  0  0  0  0
   10.8791  -15.9767   24.4776 O   0  0  0  0  0  0  0  0  0  0  0  0
   11.1688  -13.6727   27.6770 C   0  0  0  0  0  0  0  0  0  0  0  0
   11.0248  -14.7028   28.7236 C   0  0  1  0  0  0  0  0  0  0  0  0
   10.2504  -14.0240   29.8831 C   0  0  0  0  0  0  0  0  0  0  0  0
   10.3954  -15.9757   28.4354 C   0  0  0  0  0  0  0  0  0  0  0  0
   10.4951  -16.6063   27.0765 C   0  0  2  0  0  0  0  0  0  0  0  0
    9.5057  -15.8403   26.2750 N   0  0  0  0  0  0  0  0  0  0  0  0
   10.1444  -18.0010   26.9703 C   0  0  0  0  0  0  0  0  0  0  0  0
   11.1199  -18.9807   27.0812 O   0  0  0  0  0  0  0  0  0  0  0  0
    8.9849  -18.3885   26.7748 O   0  0  0  0  0  0  0  0  0  0  0  0
  2  3  1  0
  2  1  1  1
  4  3  1  0
  4  5  2  0
  6  5  1  0
  7  6  2  0
  8  9  2  0
  8  7  1  0
  9  4  1  0
 10  2  1  0
 11 10  2  0
 13 12  1  0
 13 14  1  0
 16 15  1  1
 15 14  1  0
 16 17  1  0
 17 10  1  0
 18 25  1  0
 18 16  1  0
 19 18  2  0
 21 20  1  6
 21 23  1  0
 21 22  1  0
 24 23  1  1
 24 26  1  0
 24 25  1  0
 26 27  1  0
 28 26  2  0
M  END
$$$$
