FML.pdb
     RDKit          3D

 28 28  0  0  1  0  0  0  0  0999 V2000
    6.0489  -19.7583   23.6794 N   0  0  0  0  0  0  0  0  0  0  0  0
    6.2780  -18.3750   24.0922 C   0  0  1  0  0  0  0  0  0  0  0  0
    6.3020  -18.2939   25.5806 C   0  0  0  0  0  0  0  0  0  0  0  0
    6.6392  -16.9799   26.1225 C   0  0  0  0  0  0  0  0  0  0  0  0
    7.7615  -16.8378   26.9435 C   0  0  0  0  0  0  0  0  0  0  0  0
    8.0763  -15.5915   27.4375 C   0  0  0  0  0  0  0  0  0  0  0  0
    7.2807  -14.4939   27.1175 C   0  0  0  0  0  0  0  0  0  0  0  0
    6.1656  -14.6217   26.3047 C   0  0  0  0  0  0  0  0  0  0  0  0
    5.8667  -15.8782   25.8196 C   0  0  0  0  0  0  0  0  0  0  0  0
    7.5571  -17.8912   23.5413 C   0  0  0  0  0  0  0  0  0  0  0  0
    8.5025  -18.6931   23.3910 O   0  0  0  0  0  0  0  0  0  0  0  0
    7.1166  -12.1777   20.8110 C   0  0  0  0  0  0  0  0  0  0  0  0
    8.3777  -12.9144   19.7637 S   0  0  0  0  0  0  0  0  0  0  0  0
    9.2647  -14.2505   20.6037 C   0  0  0  0  0  0  0  0  0  0  0  0
    8.3755  -14.9148   21.5648 C   0  0  0  0  0  0  0  0  0  0  0  0
    8.8586  -16.0327   22.3956 C   0  0  2  0  0  0  0  0  0  0  0  0
    7.6989  -16.5372   23.1921 N   0  0  0  0  0  0  0  0  0  0  0  0
    9.9325  -15.8417   23.3396 C   0  0  0  0  0  0  0  0  0  0  0  0
   11.1233  -15.4988   22.9782 O   0  0  0  0  0  0  0  0  0  0  0  0
    9.5349  -12.9026   26.4194 C   0  0  0  0  0  0  0  0  0  0  0  0
   10.1055  -13.9160   27.3276 C   0  0  1  0  0  0  0  0  0  0  0  0
    9.2691  -13.8363   28.6310 C   0  0  0  0  0  0  0  0  0  0  0  0
   10.2010  -15.3055   26.9284 C   0  0  0  0  0  0  0  0  0  0  0  0
   10.9014  -15.7083   25.6630 C   0  0  2  0  0  0  0  0  0  0  0  0
    9.7791  -15.9980   24.7331 N   0  0  0  0  0  0  0  0  0  0  0  0
   11.7295  -16.8877   25.7152 C   0  0  0  0  0  0  0  0  0  0  0  0
   11.3096  -18.0673   25.1186 O   0  0  0  0  0  0  0  0  0  0  0  0
   12.8288  -16.9113   26.2843 O   0  0  0  0  0  0  0  0  0  0  0  0
  2  3  1  0
  2  1  1  1
  4  3  1  0
  4  5  2  0
  6  5  1  0
  7  6  2  0
  8  9  2  0
  8  7  1  0
  9  4  1  0
 10  2  1  0
 11 10  2  0
 13 12  1  0
 13 14  1  0
 16 15  1  1
 15 14  1  0
 16 17  1  0
 17 10  1  0
 18 25  1  0
 18 16  1  0
 19 18  2  0
 21 20  1  6
 21 23  1  0
 21 22  1  0
 24 23  1  1
 24 26  1  0
 24 25  1  0
 26 27  1  0
 28 26  2  0
M  END
$$$$
