FML.pdb
     RDKit          3D

 28 28  0  0  1  0  0  0  0  0999 V2000
    6.4520  -16.8517   26.6367 N   0  0  0  0  0  0  0  0  0  0  0  0
    6.2170  -16.7240   25.1998 C   0  0  1  0  0  0  0  0  0  0  0  0
    5.4481  -15.4762   24.9269 C   0  0  0  0  0  0  0  0  0  0  0  0
    6.0760  -14.2466   25.4038 C   0  0  0  0  0  0  0  0  0  0  0  0
    5.9488  -13.8812   26.7471 C   0  0  0  0  0  0  0  0  0  0  0  0
    6.5564  -12.7265   27.1874 C   0  0  0  0  0  0  0  0  0  0  0  0
    7.2856  -11.9403   26.2983 C   0  0  0  0  0  0  0  0  0  0  0  0
    7.4192  -12.2917   24.9645 C   0  0  0  0  0  0  0  0  0  0  0  0
    6.8032  -13.4519   24.5425 C   0  0  0  0  0  0  0  0  0  0  0  0
    7.5038  -16.6892   24.4810 C   0  0  0  0  0  0  0  0  0  0  0  0
    8.4178  -17.4689   24.8218 O   0  0  0  0  0  0  0  0  0  0  0  0
    8.3125  -12.2235   19.4699 C   0  0  0  0  0  0  0  0  0  0  0  0
    8.9416  -13.8445   19.0155 S   0  0  0  0  0  0  0  0  0  0  0  0
    9.7026  -14.6973   20.4194 C   0  0  0  0  0  0  0  0  0  0  0  0
    8.7575  -14.7559   21.5415 C   0  0  0  0  0  0  0  0  0  0  0  0
    8.9719  -15.6871   22.6641 C   0  0  2  0  0  0  0  0  0  0  0  0
    7.6880  -15.7823   23.4233 N   0  0  0  0  0  0  0  0  0  0  0  0
    9.9951  -15.4343   23.6491 C   0  0  0  0  0  0  0  0  0  0  0  0
   10.5389  -14.2741   23.8047 O   0  0  0  0  0  0  0  0  0  0  0  0
    9.2125  -15.4931   28.7693 C   0  0  0  0  0  0  0  0  0  0  0  0
    9.6789  -15.4223   27.3711 C   0  0  1  0  0  0  0  0  0  0  0  0
   10.2215  -13.9825   27.1775 C   0  0  0  0  0  0  0  0  0  0  0  0
   10.6652  -16.3557   26.8660 C   0  0  0  0  0  0  0  0  0  0  0  0
   11.4417  -16.0695   25.6133 C   0  0  2  0  0  0  0  0  0  0  0  0
   10.4824  -16.4191   24.5337 N   0  0  0  0  0  0  0  0  0  0  0  0
   12.6385  -16.8422   25.3892 C   0  0  0  0  0  0  0  0  0  0  0  0
   12.5643  -18.0985   24.8063 O   0  0  0  0  0  0  0  0  0  0  0  0
   13.7665  -16.4381   25.7011 O   0  0  0  0  0  0  0  0  0  0  0  0
  2  3  1  0
  2  1  1  1
  4  3  1  0
  4  5  2  0
  6  5  1  0
  7  6  2  0
  8  9  2  0
  8  7  1  0
  9  4  1  0
 10  2  1  0
 11 10  2  0
 13 12  1  0
 13 14  1  0
 16 15  1  6
 15 14  1  0
 16 17  1  0
 17 10  1  0
 18 25  1  0
 18 16  1  0
 19 18  2  0
 21 20  1  1
 21 23  1  0
 21 22  1  0
 24 23  1  1
 24 26  1  0
 24 25  1  0
 26 27  1  0
 28 26  2  0
M  END
$$$$
