WAP.pdb
     RDKit          3D

 27 29  0  0  1  0  0  0  0  0999 V2000
   21.9235  -20.3863  -15.4715 N   0  0  0  0  0  0  0  0  0  0  0  0
   23.0894  -19.5882  -15.2170 C   0  0  1  0  0  0  0  0  0  0  0  0
   22.7047  -18.2260  -14.6976 C   0  0  0  0  0  0  0  0  0  0  0  0
   23.2756  -17.0943  -15.4227 C   0  0  0  0  0  0  0  0  0  0  0  0
   22.6633  -16.2912  -16.3873 C   0  0  0  0  0  0  0  0  0  0  0  0
   23.5172  -15.3689  -16.8492 N   0  0  0  0  0  0  0  0  0  0  0  0
   24.6895  -15.5453  -16.2061 C   0  0  0  0  0  0  0  0  0  0  0  0
   25.9071  -14.9049  -16.2549 C   0  0  0  0  0  0  0  0  0  0  0  0
   26.9687  -15.2801  -15.4683 C   0  0  0  0  0  0  0  0  0  0  0  0
   26.8474  -16.3346  -14.5830 C   0  0  0  0  0  0  0  0  0  0  0  0
   25.6473  -16.9828  -14.5203 C   0  0  0  0  0  0  0  0  0  0  0  0
   24.5682  -16.6103  -15.3134 C   0  0  0  0  0  0  0  0  0  0  0  0
   23.8786  -20.2416  -14.1335 C   0  0  0  0  0  0  0  0  0  0  0  0
   23.2114  -20.7073  -13.1667 O   0  0  0  0  0  0  0  0  0  0  0  0
   27.3120  -21.4238  -13.2811 C   0  0  0  0  0  0  0  0  0  0  0  0
   25.9063  -20.9888  -12.9377 C   0  0  2  0  0  0  0  0  0  0  0  0
   25.2666  -20.3813  -14.0943 N   0  0  0  0  0  0  0  0  0  0  0  0
   25.8648  -20.0595  -11.7832 C   0  0  0  0  0  0  0  0  0  0  0  0
   25.7018  -18.8347  -12.0265 O   0  0  0  0  0  0  0  0  0  0  0  0
   25.9978  -20.4793  -10.4348 N   0  0  0  0  0  0  0  0  0  0  0  0
   26.0648  -21.8806  -10.0224 C   0  0  0  0  0  0  0  0  0  0  0  0
   25.2503  -21.8662   -8.7511 C   0  0  0  0  0  0  0  0  0  0  0  0
   25.1939  -20.4533   -8.2743 C   0  0  0  0  0  0  0  0  0  0  0  0
   26.1023  -19.7207   -9.2246 C   0  0  1  0  0  0  0  0  0  0  0  0
   27.4798  -19.7471   -8.6568 C   0  0  0  0  0  0  0  0  0  0  0  0
   28.4415  -20.6151   -9.1342 O   0  0  0  0  0  0  0  0  0  0  0  0
   27.8219  -18.9815   -7.7221 O   0  0  0  0  0  0  0  0  0  0  0  0
  2  1  1  1
  3  2  1  0
  4  5  2  0
  4  3  1  0
  6  5  1  0
  7 12  2  0
  7  6  1  0
  8  7  1  0
  9  8  2  0
  9 10  1  0
 10 11  2  0
 11 12  1  0
 12  4  1  0
 13  2  1  0
 14 13  2  0
 16 17  1  0
 16 15  1  6
 17 13  1  0
 18 16  1  0
 19 18  2  0
 20 18  1  0
 21 22  1  0
 21 20  1  0
 23 24  1  0
 23 22  1  0
 24 20  1  0
 24 25  1  1
 26 25  1  0
 27 25  2  0
M  END
$$$$
