WAP.pdb
     RDKit          3D

 27 29  0  0  1  0  0  0  0  0999 V2000
   24.2807  -20.0330   -9.2997 N   0  0  0  0  0  0  0  0  0  0  0  0
   25.6583  -19.7817   -9.6159 C   0  0  1  0  0  0  0  0  0  0  0  0
   26.5430  -20.8715   -9.0652 C   0  0  0  0  0  0  0  0  0  0  0  0
   26.6654  -20.9045   -7.6106 C   0  0  0  0  0  0  0  0  0  0  0  0
   25.8753  -21.6024   -6.6946 C   0  0  0  0  0  0  0  0  0  0  0  0
   26.2764  -21.3609   -5.4401 N   0  0  0  0  0  0  0  0  0  0  0  0
   27.3229  -20.5126   -5.5067 C   0  0  0  0  0  0  0  0  0  0  0  0
   28.1365  -19.9296   -4.5615 C   0  0  0  0  0  0  0  0  0  0  0  0
   29.1687  -19.0877   -4.8966 C   0  0  0  0  0  0  0  0  0  0  0  0
   29.4305  -18.7918   -6.2211 C   0  0  0  0  0  0  0  0  0  0  0  0
   28.6340  -19.3601   -7.1734 C   0  0  0  0  0  0  0  0  0  0  0  0
   27.5868  -20.2124   -6.8430 C   0  0  0  0  0  0  0  0  0  0  0  0
   25.8153  -19.8243  -11.0983 C   0  0  0  0  0  0  0  0  0  0  0  0
   25.2222  -20.7698  -11.6907 O   0  0  0  0  0  0  0  0  0  0  0  0
   27.1839  -17.8293  -13.9550 C   0  0  0  0  0  0  0  0  0  0  0  0
   26.5454  -19.0454  -13.3254 C   0  0  2  0  0  0  0  0  0  0  0  0
   26.5482  -18.9265  -11.8756 N   0  0  0  0  0  0  0  0  0  0  0  0
   27.2025  -20.3094  -13.7362 C   0  0  0  0  0  0  0  0  0  0  0  0
   27.9737  -20.8615  -12.9077 O   0  0  0  0  0  0  0  0  0  0  0  0
   27.0058  -20.9189  -15.0019 N   0  0  0  0  0  0  0  0  0  0  0  0
   26.0617  -20.4258  -16.0038 C   0  0  0  0  0  0  0  0  0  0  0  0
   25.5044  -21.7137  -16.5611 C   0  0  0  0  0  0  0  0  0  0  0  0
   26.4689  -22.8004  -16.2211 C   0  0  0  0  0  0  0  0  0  0  0  0
   27.6239  -22.0674  -15.5936 C   0  0  1  0  0  0  0  0  0  0  0  0
   28.5795  -21.7012  -16.6767 C   0  0  0  0  0  0  0  0  0  0  0  0
   28.5812  -20.4424  -17.2438 O   0  0  0  0  0  0  0  0  0  0  0  0
   29.4218  -22.5218  -17.1173 O   0  0  0  0  0  0  0  0  0  0  0  0
  2  1  1  6
  3  2  1  0
  4  5  2  0
  4  3  1  0
  6  5  1  0
  7 12  2  0
  7  6  1  0
  8  7  1  0
  9  8  2  0
  9 10  1  0
 10 11  2  0
 11 12  1  0
 12  4  1  0
 13  2  1  0
 14 13  2  0
 16 17  1  0
 16 15  1  6
 17 13  1  0
 18 16  1  0
 19 18  2  0
 20 18  1  0
 21 22  1  0
 21 20  1  0
 23 24  1  0
 23 22  1  0
 24 20  1  0
 24 25  1  6
 26 25  1  0
 27 25  2  0
M  END
$$$$
