WAP.pdb
     RDKit          3D

 27 29  0  0  1  0  0  0  0  0999 V2000
   26.1992  -21.2009  -12.7562 N   0  0  0  0  0  0  0  0  0  0  0  0
   25.8450  -20.8212  -11.4178 C   0  0  1  0  0  0  0  0  0  0  0  0
   24.5767  -21.5104  -10.9820 C   0  0  0  0  0  0  0  0  0  0  0  0
   23.3438  -20.9719  -11.5494 C   0  0  0  0  0  0  0  0  0  0  0  0
   22.9245  -20.9977  -12.8813 C   0  0  0  0  0  0  0  0  0  0  0  0
   21.7475  -20.3747  -13.0211 N   0  0  0  0  0  0  0  0  0  0  0  0
   21.3759  -19.9344  -11.8016 C   0  0  0  0  0  0  0  0  0  0  0  0
   20.2789  -19.2483  -11.3315 C   0  0  0  0  0  0  0  0  0  0  0  0
   20.1277  -18.9205  -10.0062 C   0  0  0  0  0  0  0  0  0  0  0  0
   21.0913  -19.2761   -9.0814 C   0  0  0  0  0  0  0  0  0  0  0  0
   22.1872  -19.9569   -9.5285 C   0  0  0  0  0  0  0  0  0  0  0  0
   22.3487  -20.2917  -10.8680 C   0  0  0  0  0  0  0  0  0  0  0  0
   26.9169  -21.2954  -10.4959 C   0  0  0  0  0  0  0  0  0  0  0  0
   26.7986  -22.4800  -10.0723 O   0  0  0  0  0  0  0  0  0  0  0  0
   30.1664  -20.4801   -8.9167 C   0  0  0  0  0  0  0  0  0  0  0  0
   28.7288  -20.9412   -8.8553 C   0  0  2  0  0  0  0  0  0  0  0  0
   28.0209  -20.5573  -10.0667 N   0  0  0  0  0  0  0  0  0  0  0  0
   28.0169  -20.4253   -7.6615 C   0  0  0  0  0  0  0  0  0  0  0  0
   26.8330  -20.0247   -7.8167 O   0  0  0  0  0  0  0  0  0  0  0  0
   28.5983  -20.3627   -6.3692 N   0  0  0  0  0  0  0  0  0  0  0  0
   29.9997  -20.6753   -6.0922 C   0  0  0  0  0  0  0  0  0  0  0  0
   29.8974  -21.4027   -4.7729 C   0  0  0  0  0  0  0  0  0  0  0  0
   28.5827  -21.0420   -4.1662 C   0  0  0  0  0  0  0  0  0  0  0  0
   28.0312  -20.0024   -5.1044 C   0  0  1  0  0  0  0  0  0  0  0  0
   28.4958  -18.6665   -4.6354 C   0  0  0  0  0  0  0  0  0  0  0  0
   29.5219  -17.9948   -5.2695 O   0  0  0  0  0  0  0  0  0  0  0  0
   27.9732  -18.0975   -3.6454 O   0  0  0  0  0  0  0  0  0  0  0  0
  2  1  1  6
  3  2  1  0
  4  5  2  0
  4  3  1  0
  6  5  1  0
  7 12  2  0
  7  6  1  0
  8  7  1  0
  9  8  2  0
  9 10  1  0
 10 11  2  0
 11 12  1  0
 12  4  1  0
 13  2  1  0
 14 13  2  0
 16 17  1  0
 16 15  1  6
 17 13  1  0
 18 16  1  0
 19 18  2  0
 20 18  1  0
 21 22  1  0
 21 20  1  0
 23 24  1  0
 23 22  1  0
 24 20  1  0
 24 25  1  1
 26 25  1  0
 27 25  2  0
M  END
$$$$
