WAP.pdb
     RDKit          3D

 27 29  0  0  1  0  0  0  0  0999 V2000
   24.8671  -21.1110   -7.9063 N   0  0  0  0  0  0  0  0  0  0  0  0
   25.7083  -20.3506   -8.7868 C   0  0  1  0  0  0  0  0  0  0  0  0
   27.1604  -20.5118   -8.4141 C   0  0  0  0  0  0  0  0  0  0  0  0
   27.6089  -19.7107   -7.2787 C   0  0  0  0  0  0  0  0  0  0  0  0
   27.1752  -18.4397   -6.8955 C   0  0  0  0  0  0  0  0  0  0  0  0
   27.8430  -18.0154   -5.8152 N   0  0  0  0  0  0  0  0  0  0  0  0
   28.7150  -18.9855   -5.4723 C   0  0  0  0  0  0  0  0  0  0  0  0
   29.6420  -19.1180   -4.4633 C   0  0  0  0  0  0  0  0  0  0  0  0
   30.4204  -20.2408   -4.3211 C   0  0  0  0  0  0  0  0  0  0  0  0
   30.2961  -21.2967   -5.2042 C   0  0  0  0  0  0  0  0  0  0  0  0
   29.3821  -21.1838   -6.2123 C   0  0  0  0  0  0  0  0  0  0  0  0
   28.5912  -20.0509   -6.3641 C   0  0  0  0  0  0  0  0  0  0  0  0
   25.5662  -20.9023  -10.1649 C   0  0  0  0  0  0  0  0  0  0  0  0
   26.3454  -21.8510  -10.4643 O   0  0  0  0  0  0  0  0  0  0  0  0
   23.3963  -20.9392  -13.1633 C   0  0  0  0  0  0  0  0  0  0  0  0
   24.7505  -20.9842  -12.4947 C   0  0  2  0  0  0  0  0  0  0  0  0
   24.6631  -20.4696  -11.1369 N   0  0  0  0  0  0  0  0  0  0  0  0
   25.7855  -20.2448  -13.2564 C   0  0  0  0  0  0  0  0  0  0  0  0
   26.1504  -19.1257  -12.8087 O   0  0  0  0  0  0  0  0  0  0  0  0
   26.3771  -20.7322  -14.4499 N   0  0  0  0  0  0  0  0  0  0  0  0
   25.9684  -21.9694  -15.1135 C   0  0  0  0  0  0  0  0  0  0  0  0
   27.2957  -22.5274  -15.5683 C   0  0  0  0  0  0  0  0  0  0  0  0
   28.2724  -21.3993  -15.5802 C   0  0  0  0  0  0  0  0  0  0  0  0
   27.4287  -20.1948  -15.2602 C   0  0  1  0  0  0  0  0  0  0  0  0
   26.9232  -19.6328  -16.5444 C   0  0  0  0  0  0  0  0  0  0  0  0
   25.6435  -19.8924  -16.9927 O   0  0  0  0  0  0  0  0  0  0  0  0
   27.6399  -18.9006  -17.2704 O   0  0  0  0  0  0  0  0  0  0  0  0
  2  1  1  1
  3  2  1  0
  4  5  2  0
  4  3  1  0
  6  5  1  0
  7 12  2  0
  7  6  1  0
  8  7  1  0
  9  8  2  0
  9 10  1  0
 10 11  2  0
 11 12  1  0
 12  4  1  0
 13  2  1  0
 14 13  2  0
 16 17  1  0
 16 15  1  6
 17 13  1  0
 18 16  1  0
 19 18  2  0
 20 18  1  0
 21 22  1  0
 21 20  1  0
 23 24  1  0
 23 22  1  0
 24 20  1  0
 24 25  1  6
 26 25  1  0
 27 25  2  0
M  END
$$$$
