WAP.pdb
     RDKit          3D

 27 29  0  0  1  0  0  0  0  0999 V2000
   24.6991  -21.4030   -7.7994 N   0  0  0  0  0  0  0  0  0  0  0  0
   25.5909  -20.5632   -8.5479 C   0  0  1  0  0  0  0  0  0  0  0  0
   27.0262  -20.8397   -8.1778 C   0  0  0  0  0  0  0  0  0  0  0  0
   27.6372  -19.8726   -7.2703 C   0  0  0  0  0  0  0  0  0  0  0  0
   27.5145  -18.4815   -7.2832 C   0  0  0  0  0  0  0  0  0  0  0  0
   28.2491  -17.9307   -6.3083 N   0  0  0  0  0  0  0  0  0  0  0  0
   28.8589  -18.9346   -5.6455 C   0  0  0  0  0  0  0  0  0  0  0  0
   29.7129  -18.9816   -4.5669 C   0  0  0  0  0  0  0  0  0  0  0  0
   30.1982  -20.1636   -4.0626 C   0  0  0  0  0  0  0  0  0  0  0  0
   29.8376  -21.3699   -4.6328 C   0  0  0  0  0  0  0  0  0  0  0  0
   28.9915  -21.3439   -5.7041 C   0  0  0  0  0  0  0  0  0  0  0  0
   28.4966  -20.1523   -6.2214 C   0  0  0  0  0  0  0  0  0  0  0  0
   25.4577  -20.9066   -9.9929 C   0  0  0  0  0  0  0  0  0  0  0  0
   26.3010  -21.7317  -10.4457 O   0  0  0  0  0  0  0  0  0  0  0  0
   23.1422  -20.7006  -12.8751 C   0  0  0  0  0  0  0  0  0  0  0  0
   24.5274  -20.7871  -12.2777 C   0  0  2  0  0  0  0  0  0  0  0  0
   24.4993  -20.4047  -10.8745 N   0  0  0  0  0  0  0  0  0  0  0  0
   25.5161  -19.9625  -13.0129 C   0  0  0  0  0  0  0  0  0  0  0  0
   25.7982  -18.8303  -12.5392 O   0  0  0  0  0  0  0  0  0  0  0  0
   26.1517  -20.3832  -14.2092 N   0  0  0  0  0  0  0  0  0  0  0  0
   25.9321  -21.6884  -14.8309 C   0  0  0  0  0  0  0  0  0  0  0  0
   27.3214  -22.0401  -15.3065 C   0  0  0  0  0  0  0  0  0  0  0  0
   28.1041  -20.7714  -15.3721 C   0  0  0  0  0  0  0  0  0  0  0  0
   27.0855  -19.7084  -15.0600 C   0  0  1  0  0  0  0  0  0  0  0  0
   26.4683  -19.2714  -16.3440 C   0  0  0  0  0  0  0  0  0  0  0  0
   25.2175  -19.7099  -16.7306 O   0  0  0  0  0  0  0  0  0  0  0  0
   27.0599  -18.4869  -17.1259 O   0  0  0  0  0  0  0  0  0  0  0  0
  2  1  1  1
  3  2  1  0
  4  5  2  0
  4  3  1  0
  6  5  1  0
  7 12  2  0
  7  6  1  0
  8  7  1  0
  9  8  2  0
  9 10  1  0
 10 11  2  0
 11 12  1  0
 12  4  1  0
 13  2  1  0
 14 13  2  0
 16 17  1  0
 16 15  1  6
 17 13  1  0
 18 16  1  0
 19 18  2  0
 20 18  1  0
 21 22  1  0
 21 20  1  0
 23 24  1  0
 23 22  1  0
 24 20  1  0
 24 25  1  6
 26 25  1  0
 27 25  2  0
M  END
$$$$
