WAP.pdb
     RDKit          3D

 27 29  0  0  1  0  0  0  0  0999 V2000
   24.8970  -20.5532   -8.3129 N   0  0  0  0  0  0  0  0  0  0  0  0
   26.0186  -20.1665   -9.1212 C   0  0  1  0  0  0  0  0  0  0  0  0
   27.3173  -20.5263   -8.4447 C   0  0  0  0  0  0  0  0  0  0  0  0
   27.6267  -19.7662   -7.2370 C   0  0  0  0  0  0  0  0  0  0  0  0
   27.1068  -18.5331   -6.8376 C   0  0  0  0  0  0  0  0  0  0  0  0
   27.6553  -18.1382   -5.6816 N   0  0  0  0  0  0  0  0  0  0  0  0
   28.5328  -19.0905   -5.3044 C   0  0  0  0  0  0  0  0  0  0  0  0
   29.3691  -19.2380   -4.2209 C   0  0  0  0  0  0  0  0  0  0  0  0
   30.1779  -20.3363   -4.0590 C   0  0  0  0  0  0  0  0  0  0  0  0
   30.1789  -21.3509   -4.9975 C   0  0  0  0  0  0  0  0  0  0  0  0
   29.3563  -21.2226   -6.0797 C   0  0  0  0  0  0  0  0  0  0  0  0
   28.5354  -20.1142   -6.2519 C   0  0  0  0  0  0  0  0  0  0  0  0
   25.9762  -20.9499  -10.3893 C   0  0  0  0  0  0  0  0  0  0  0  0
   26.9318  -21.7558  -10.5742 O   0  0  0  0  0  0  0  0  0  0  0  0
   23.9716  -21.9114  -13.3267 C   0  0  0  0  0  0  0  0  0  0  0  0
   25.2481  -21.3913  -12.7077 C   0  0  2  0  0  0  0  0  0  0  0  0
   24.9899  -20.8720  -11.3736 N   0  0  0  0  0  0  0  0  0  0  0  0
   25.9035  -20.3555  -13.5418 C   0  0  0  0  0  0  0  0  0  0  0  0
   25.8269  -19.1600  -13.1535 O   0  0  0  0  0  0  0  0  0  0  0  0
   26.6044  -20.6436  -14.7409 N   0  0  0  0  0  0  0  0  0  0  0  0
   26.8175  -21.9967  -15.2529 C   0  0  0  0  0  0  0  0  0  0  0  0
   28.2278  -21.9055  -15.7849 C   0  0  0  0  0  0  0  0  0  0  0  0
   28.5342  -20.4593  -15.9885 C   0  0  0  0  0  0  0  0  0  0  0  0
   27.2276  -19.7736  -15.6927 C   0  0  1  0  0  0  0  0  0  0  0  0
   26.4577  -19.6820  -16.9652 C   0  0  0  0  0  0  0  0  0  0  0  0
   25.4183  -20.5468  -17.2447 O   0  0  0  0  0  0  0  0  0  0  0  0
   26.7222  -18.8150  -17.8343 O   0  0  0  0  0  0  0  0  0  0  0  0
  2  1  1  1
  3  2  1  0
  4  5  2  0
  4  3  1  0
  6  5  1  0
  7 12  2  0
  7  6  1  0
  8  7  1  0
  9  8  2  0
  9 10  1  0
 10 11  2  0
 11 12  1  0
 12  4  1  0
 13  2  1  0
 14 13  2  0
 16 17  1  0
 16 15  1  6
 17 13  1  0
 18 16  1  0
 19 18  2  0
 20 18  1  0
 21 22  1  0
 21 20  1  0
 23 24  1  0
 23 22  1  0
 24 20  1  0
 24 25  1  6
 26 25  1  0
 27 25  2  0
M  END
$$$$
