WAP.pdb
     RDKit          3D

 27 29  0  0  1  0  0  0  0  0999 V2000
   26.4880  -20.5663  -12.3471 N   0  0  0  0  0  0  0  0  0  0  0  0
   25.7713  -20.2999  -11.1321 C   0  0  1  0  0  0  0  0  0  0  0  0
   24.9351  -21.4886  -10.7303 C   0  0  0  0  0  0  0  0  0  0  0  0
   23.6231  -21.5755  -11.3652 C   0  0  0  0  0  0  0  0  0  0  0  0
   23.2329  -22.3908  -12.4298 C   0  0  0  0  0  0  0  0  0  0  0  0
   21.9532  -22.1675  -12.7550 N   0  0  0  0  0  0  0  0  0  0  0  0
   21.4847  -21.2156  -11.9223 C   0  0  0  0  0  0  0  0  0  0  0  0
   20.2636  -20.5972  -11.7755 C   0  0  0  0  0  0  0  0  0  0  0  0
   20.0329  -19.6407  -10.8170 C   0  0  0  0  0  0  0  0  0  0  0  0
   21.0396  -19.2596   -9.9500 C   0  0  0  0  0  0  0  0  0  0  0  0
   22.2583  -19.8615  -10.0801 C   0  0  0  0  0  0  0  0  0  0  0  0
   22.5006  -20.8295  -11.0479 C   0  0  0  0  0  0  0  0  0  0  0  0
   26.7627  -20.0963  -10.0369 C   0  0  0  0  0  0  0  0  0  0  0  0
   27.6689  -20.9717   -9.9410 O   0  0  0  0  0  0  0  0  0  0  0  0
   27.8469  -17.5876   -7.4884 C   0  0  0  0  0  0  0  0  0  0  0  0
   27.8245  -18.9612   -8.1175 C   0  0  2  0  0  0  0  0  0  0  0  0
   26.7768  -19.0413   -9.1235 N   0  0  0  0  0  0  0  0  0  0  0  0
   27.6564  -20.0421   -7.1168 C   0  0  0  0  0  0  0  0  0  0  0  0
   26.6380  -20.7761   -7.2170 O   0  0  0  0  0  0  0  0  0  0  0  0
   28.5769  -20.2861   -6.0654 N   0  0  0  0  0  0  0  0  0  0  0  0
   29.8392  -19.5653   -5.9065 C   0  0  0  0  0  0  0  0  0  0  0  0
   30.7670  -20.6667   -5.4525 C   0  0  0  0  0  0  0  0  0  0  0  0
   29.9182  -21.7755   -4.9265 C   0  0  0  0  0  0  0  0  0  0  0  0
   28.5247  -21.2088   -4.9713 C   0  0  1  0  0  0  0  0  0  0  0  0
   28.2617  -20.5307   -3.6708 C   0  0  0  0  0  0  0  0  0  0  0  0
   28.1944  -19.1551   -3.5737 O   0  0  0  0  0  0  0  0  0  0  0  0
   28.0902  -21.1822   -2.6110 O   0  0  0  0  0  0  0  0  0  0  0  0
  2  1  1  6
  3  2  1  0
  4  5  2  0
  4  3  1  0
  6  5  1  0
  7 12  2  0
  7  6  1  0
  8  7  1  0
  9  8  2  0
  9 10  1  0
 10 11  2  0
 11 12  1  0
 12  4  1  0
 13  2  1  0
 14 13  2  0
 16 17  1  0
 16 15  1  1
 17 13  1  0
 18 16  1  0
 19 18  2  0
 20 18  1  0
 21 22  1  0
 21 20  1  0
 23 24  1  0
 23 22  1  0
 24 20  1  0
 24 25  1  1
 26 25  1  0
 27 25  2  0
M  END
$$$$
