WAP.pdb
     RDKit          3D

 27 29  0  0  1  0  0  0  0  0999 V2000
   23.7612  -13.3263  -18.9091 N   0  0  0  0  0  0  0  0  0  0  0  0
   24.0062  -12.7783  -17.6051 C   0  0  1  0  0  0  0  0  0  0  0  0
   25.4777  -12.5226  -17.3979 C   0  0  0  0  0  0  0  0  0  0  0  0
   26.3356  -13.7018  -17.4737 C   0  0  0  0  0  0  0  0  0  0  0  0
   27.2411  -14.0458  -18.4796 C   0  0  0  0  0  0  0  0  0  0  0  0
   27.8249  -15.2208  -18.2119 N   0  0  0  0  0  0  0  0  0  0  0  0
   27.3221  -15.6646  -17.0418 C   0  0  0  0  0  0  0  0  0  0  0  0
   27.5451  -16.7858  -16.2748 C   0  0  0  0  0  0  0  0  0  0  0  0
   26.8956  -17.0050  -15.0845 C   0  0  0  0  0  0  0  0  0  0  0  0
   25.9778  -16.0883  -14.6072 C   0  0  0  0  0  0  0  0  0  0  0  0
   25.7426  -14.9698  -15.3542 C   0  0  0  0  0  0  0  0  0  0  0  0
   26.3947  -14.7406  -16.5602 C   0  0  0  0  0  0  0  0  0  0  0  0
   23.3346  -11.4496  -17.5202 C   0  0  0  0  0  0  0  0  0  0  0  0
   23.8447  -10.5261  -18.2158 O   0  0  0  0  0  0  0  0  0  0  0  0
   20.1490   -9.8610  -16.5503 C   0  0  0  0  0  0  0  0  0  0  0  0
   21.6381   -9.8053  -16.8002 C   0  0  2  0  0  0  0  0  0  0  0  0
   22.2108  -11.1416  -16.7522 N   0  0  0  0  0  0  0  0  0  0  0  0
   22.3414   -8.9128  -15.8479 C   0  0  0  0  0  0  0  0  0  0  0  0
   23.0682   -9.4519  -14.9720 O   0  0  0  0  0  0  0  0  0  0  0  0
   22.2364   -7.4985  -15.8765 N   0  0  0  0  0  0  0  0  0  0  0  0
   21.3876   -6.7652  -16.8146 C   0  0  0  0  0  0  0  0  0  0  0  0
   22.2558   -5.5762  -17.1499 C   0  0  0  0  0  0  0  0  0  0  0  0
   23.2741   -5.4487  -16.0665 C   0  0  0  0  0  0  0  0  0  0  0  0
   22.8638   -6.4970  -15.0676 C   0  0  1  0  0  0  0  0  0  0  0  0
   21.9146   -5.8695  -14.1056 C   0  0  0  0  0  0  0  0  0  0  0  0
   22.3601   -5.2023  -12.9819 O   0  0  0  0  0  0  0  0  0  0  0  0
   20.6717   -5.9215  -14.2776 O   0  0  0  0  0  0  0  0  0  0  0  0
  2  1  1  6
  3  2  1  0
  4  5  2  0
  4  3  1  0
  6  5  1  0
  7 12  2  0
  7  6  1  0
  8  7  1  0
  9  8  2  0
  9 10  1  0
 10 11  2  0
 11 12  1  0
 12  4  1  0
 13  2  1  0
 14 13  2  0
 16 17  1  0
 16 15  1  1
 17 13  1  0
 18 16  1  0
 19 18  2  0
 20 18  1  0
 21 22  1  0
 21 20  1  0
 23 24  1  0
 23 22  1  0
 24 20  1  0
 24 25  1  1
 26 25  1  0
 27 25  2  0
M  END
$$$$
