WAP.pdb
     RDKit          3D

 27 29  0  0  1  0  0  0  0  0999 V2000
   27.3800  -22.0523   -9.4295 N   0  0  0  0  0  0  0  0  0  0  0  0
   26.3305  -21.1477   -9.8052 C   0  0  1  0  0  0  0  0  0  0  0  0
   26.3217  -19.9342   -8.9104 C   0  0  0  0  0  0  0  0  0  0  0  0
   26.2892  -20.2121   -7.4772 C   0  0  0  0  0  0  0  0  0  0  0  0
   25.2552  -20.7848   -6.7334 C   0  0  0  0  0  0  0  0  0  0  0  0
   25.5833  -20.8518   -5.4369 N   0  0  0  0  0  0  0  0  0  0  0  0
   26.8213  -20.3328   -5.3059 C   0  0  0  0  0  0  0  0  0  0  0  0
   27.6666  -20.1472   -4.2353 C   0  0  0  0  0  0  0  0  0  0  0  0
   28.9151  -19.5909   -4.3706 C   0  0  0  0  0  0  0  0  0  0  0  0
   29.3740  -19.1909   -5.6114 C   0  0  0  0  0  0  0  0  0  0  0  0
   28.5498  -19.3664   -6.6857 C   0  0  0  0  0  0  0  0  0  0  0  0
   27.2845  -19.9276   -6.5577 C   0  0  0  0  0  0  0  0  0  0  0  0
   26.6101  -20.6500  -11.1827 C   0  0  0  0  0  0  0  0  0  0  0  0
   27.3709  -19.6444  -11.2641 O   0  0  0  0  0  0  0  0  0  0  0  0
   26.4704  -21.7340  -14.7170 C   0  0  0  0  0  0  0  0  0  0  0  0
   26.5607  -20.6659  -13.6520 C   0  0  2  0  0  0  0  0  0  0  0  0
   26.1129  -21.1884  -12.3704 N   0  0  0  0  0  0  0  0  0  0  0  0
   25.7940  -19.4466  -14.0034 C   0  0  0  0  0  0  0  0  0  0  0  0
   24.7247  -19.2290  -13.3748 O   0  0  0  0  0  0  0  0  0  0  0  0
   26.2029  -18.5248  -15.0010 N   0  0  0  0  0  0  0  0  0  0  0  0
   27.4302  -18.6650  -15.7836 C   0  0  0  0  0  0  0  0  0  0  0  0
   27.9043  -17.2341  -15.8709 C   0  0  0  0  0  0  0  0  0  0  0  0
   26.7308  -16.3579  -15.5846 C   0  0  0  0  0  0  0  0  0  0  0  0
   25.5826  -17.3249  -15.4771 C   0  0  1  0  0  0  0  0  0  0  0  0
   24.9935  -17.4925  -16.8355 C   0  0  0  0  0  0  0  0  0  0  0  0
   25.3395  -18.5544  -17.6472 O   0  0  0  0  0  0  0  0  0  0  0  0
   24.1587  -16.6757  -17.2969 O   0  0  0  0  0  0  0  0  0  0  0  0
  2  1  1  1
  3  2  1  0
  4  5  2  0
  4  3  1  0
  6  5  1  0
  7 12  2  0
  7  6  1  0
  8  7  1  0
  9  8  2  0
  9 10  1  0
 10 11  2  0
 11 12  1  0
 12  4  1  0
 13  2  1  0
 14 13  2  0
 16 17  1  0
 16 15  1  6
 17 13  1  0
 18 16  1  0
 19 18  2  0
 20 18  1  0
 21 22  1  0
 21 20  1  0
 23 24  1  0
 23 22  1  0
 24 20  1  0
 24 25  1  6
 26 25  1  0
 27 25  2  0
M  END
$$$$
