WAP.pdb
     RDKit          3D

 27 29  0  0  1  0  0  0  0  0999 V2000
   25.8692  -21.8156   -7.9166 N   0  0  0  0  0  0  0  0  0  0  0  0
   26.0050  -20.7197   -8.8339 C   0  0  1  0  0  0  0  0  0  0  0  0
   27.4492  -20.5151   -9.2159 C   0  0  0  0  0  0  0  0  0  0  0  0
   28.4102  -20.6386   -8.1234 C   0  0  0  0  0  0  0  0  0  0  0  0
   29.4889  -21.5195   -8.0197 C   0  0  0  0  0  0  0  0  0  0  0  0
   30.1262  -21.3551   -6.8535 N   0  0  0  0  0  0  0  0  0  0  0  0
   29.4882  -20.3769   -6.1787 C   0  0  0  0  0  0  0  0  0  0  0  0
   29.6877  -19.7796   -4.9546 C   0  0  0  0  0  0  0  0  0  0  0  0
   28.8823  -18.7696   -4.4880 C   0  0  0  0  0  0  0  0  0  0  0  0
   27.8231  -18.3096   -5.2475 C   0  0  0  0  0  0  0  0  0  0  0  0
   27.6087  -18.8899   -6.4647 C   0  0  0  0  0  0  0  0  0  0  0  0
   28.4182  -19.9132   -6.9441 C   0  0  0  0  0  0  0  0  0  0  0  0
   25.2847  -21.0682  -10.0922 C   0  0  0  0  0  0  0  0  0  0  0  0
   25.6985  -22.0957  -10.7003 O   0  0  0  0  0  0  0  0  0  0  0  0
   22.2895  -20.1883  -12.1327 C   0  0  0  0  0  0  0  0  0  0  0  0
   23.6698  -20.7710  -11.9372 C   0  0  2  0  0  0  0  0  0  0  0  0
   24.2115  -20.3703  -10.6479 N   0  0  0  0  0  0  0  0  0  0  0  0
   24.6050  -20.3947  -13.0242 C   0  0  0  0  0  0  0  0  0  0  0  0
   25.3121  -19.3664  -12.8550 O   0  0  0  0  0  0  0  0  0  0  0  0
   24.7400  -21.1290  -14.2304 N   0  0  0  0  0  0  0  0  0  0  0  0
   23.9846  -22.3445  -14.5310 C   0  0  0  0  0  0  0  0  0  0  0  0
   25.0251  -23.1887  -15.2273 C   0  0  0  0  0  0  0  0  0  0  0  0
   26.1000  -22.2689  -15.7020 C   0  0  0  0  0  0  0  0  0  0  0  0
   25.5654  -20.8998  -15.3781 C   0  0  1  0  0  0  0  0  0  0  0  0
   24.7825  -20.4218  -16.5524 C   0  0  0  0  0  0  0  0  0  0  0  0
   23.4019  -20.4240  -16.5497 O   0  0  0  0  0  0  0  0  0  0  0  0
   25.3460  -19.9976  -17.5914 O   0  0  0  0  0  0  0  0  0  0  0  0
  2  1  1  1
  3  2  1  0
  4  5  2  0
  4  3  1  0
  6  5  1  0
  7 12  2  0
  7  6  1  0
  8  7  1  0
  9  8  2  0
  9 10  1  0
 10 11  2  0
 11 12  1  0
 12  4  1  0
 13  2  1  0
 14 13  2  0
 16 17  1  0
 16 15  1  6
 17 13  1  0
 18 16  1  0
 19 18  2  0
 20 18  1  0
 21 22  1  0
 21 20  1  0
 23 24  1  0
 23 22  1  0
 24 20  1  0
 24 25  1  6
 26 25  1  0
 27 25  2  0
M  END
$$$$
