WAP.pdb
     RDKit          3D

 27 29  0  0  1  0  0  0  0  0999 V2000
   27.7042  -19.1105   -9.9442 N   0  0  0  0  0  0  0  0  0  0  0  0
   27.0549  -20.3749   -9.7424 C   0  0  1  0  0  0  0  0  0  0  0  0
   26.3022  -20.3894   -8.4359 C   0  0  0  0  0  0  0  0  0  0  0  0
   26.9850  -19.7548   -7.3120 C   0  0  0  0  0  0  0  0  0  0  0  0
   27.0175  -18.3995   -6.9770 C   0  0  0  0  0  0  0  0  0  0  0  0
   27.7747  -18.1963   -5.8914 N   0  0  0  0  0  0  0  0  0  0  0  0
   28.2468  -19.3968   -5.4976 C   0  0  0  0  0  0  0  0  0  0  0  0
   29.0530  -19.8082   -4.4603 C   0  0  0  0  0  0  0  0  0  0  0  0
   29.3869  -21.1262   -4.2652 C   0  0  0  0  0  0  0  0  0  0  0  0
   28.9148  -22.1034   -5.1210 C   0  0  0  0  0  0  0  0  0  0  0  0
   28.1139  -21.7150   -6.1564 C   0  0  0  0  0  0  0  0  0  0  0  0
   27.7718  -20.3834   -6.3617 C   0  0  0  0  0  0  0  0  0  0  0  0
   26.0348  -20.5556  -10.8151 C   0  0  0  0  0  0  0  0  0  0  0  0
   25.0320  -19.7888  -10.7600 O   0  0  0  0  0  0  0  0  0  0  0  0
   25.6361  -22.2519  -14.1228 C   0  0  0  0  0  0  0  0  0  0  0  0
   25.1826  -21.3634  -12.9879 C   0  0  2  0  0  0  0  0  0  0  0  0
   26.0898  -21.4824  -11.8570 N   0  0  0  0  0  0  0  0  0  0  0  0
   23.7924  -21.6514  -12.5610 C   0  0  0  0  0  0  0  0  0  0  0  0
   23.6323  -22.2746  -11.4784 O   0  0  0  0  0  0  0  0  0  0  0  0
   22.6485  -21.2627  -13.3043 N   0  0  0  0  0  0  0  0  0  0  0  0
   22.7111  -20.5449  -14.5768 C   0  0  0  0  0  0  0  0  0  0  0  0
   21.5532  -19.5846  -14.4453 C   0  0  0  0  0  0  0  0  0  0  0  0
   20.6470  -20.1217  -13.3884 C   0  0  0  0  0  0  0  0  0  0  0  0
   21.2534  -21.4553  -13.0439 C   0  0  1  0  0  0  0  0  0  0  0  0
   20.6468  -22.4814  -13.9382 C   0  0  0  0  0  0  0  0  0  0  0  0
   21.3001  -22.9325  -15.0678 O   0  0  0  0  0  0  0  0  0  0  0  0
   19.5179  -22.9775  -13.7010 O   0  0  0  0  0  0  0  0  0  0  0  0
  2  1  1  6
  3  2  1  0
  4  5  2  0
  4  3  1  0
  6  5  1  0
  7 12  2  0
  7  6  1  0
  8  7  1  0
  9  8  2  0
  9 10  1  0
 10 11  2  0
 11 12  1  0
 12  4  1  0
 13  2  1  0
 14 13  2  0
 16 17  1  0
 16 15  1  6
 17 13  1  0
 18 16  1  0
 19 18  2  0
 20 18  1  0
 21 22  1  0
 21 20  1  0
 23 24  1  0
 23 22  1  0
 24 20  1  0
 24 25  1  6
 26 25  1  0
 27 25  2  0
M  END
$$$$
