NDT.pdb
     RDKit          3D

 24 23  0  0  1  0  0  0  0  0999 V2000
   15.7289  -11.5438  -17.3143 N   0  0  0  0  0  0  0  0  0  0  0  0
   15.7050  -10.8815  -16.0494 C   0  0  0  0  0  0  0  0  0  0  0  0
   14.6417  -10.5299  -15.4923 O   0  0  0  0  0  0  0  0  0  0  0  0
   16.9940  -10.6051  -15.3787 C   0  0  0  0  0  0  0  0  0  0  0  0
   18.1445  -11.1172  -16.2438 C   0  0  2  0  0  0  0  0  0  0  0  0
   18.2740  -12.5265  -15.9914 N   0  0  0  0  0  0  0  0  0  0  0  0
   19.3536  -10.3464  -15.8629 C   0  0  0  0  0  0  0  0  0  0  0  0
   19.7352  -10.3551  -14.6640 O   0  0  0  0  0  0  0  0  0  0  0  0
   20.1187   -9.5810  -16.8066 N   0  0  0  0  0  0  0  0  0  0  0  0
   21.3438   -8.9117  -16.4025 C   0  0  1  0  0  0  0  0  0  0  0  0
   22.4424   -9.0998  -17.4087 C   0  0  0  0  0  0  0  0  0  0  0  0
   22.9552  -10.4728  -17.4622 C   0  0  0  0  0  0  0  0  0  0  0  0
   23.1979  -11.2014  -16.4723 O   0  0  0  0  0  0  0  0  0  0  0  0
   21.1161   -7.4606  -16.1754 C   0  0  0  0  0  0  0  0  0  0  0  0
   20.6700   -6.7788  -17.1214 O   0  0  0  0  0  0  0  0  0  0  0  0
   23.1959  -11.0213  -18.7221 O   0  0  0  0  0  0  0  0  0  0  0  0
   19.1618   -6.0085  -13.2593 C   0  0  0  0  0  0  0  0  0  0  0  0
   20.4859   -5.2636  -13.2796 C   0  0  1  0  0  0  0  0  0  0  0  0
   21.2967   -5.8300  -12.3080 O   0  0  0  0  0  0  0  0  0  0  0  0
   21.1168   -5.4788  -14.6191 C   0  0  2  0  0  0  0  0  0  0  0  0
   21.3875   -6.8438  -14.9384 N   0  0  0  0  0  0  0  0  0  0  0  0
   22.3242   -4.6305  -14.8185 C   0  0  0  0  0  0  0  0  0  0  0  0
   22.3191   -3.2665  -14.7158 O   0  0  0  0  0  0  0  0  0  0  0  0
   23.3996   -5.2132  -15.0955 O   0  0  0  0  0  0  0  0  0  0  0  0
  1  2  1  0
  2  3  2  0
  2  4  1  0
  4  5  1  0
  5  7  1  0
  5  6  1  1
  7  9  1  0
  7  8  2  0
  9 10  1  0
 10 14  1  0
 10 11  1  6
 12 11  1  0
 13 12  2  0
 14 21  1  0
 14 15  2  0
 16 12  1  0
 18 17  1  6
 18 20  1  0
 19 18  1  0
 20 22  1  0
 20 21  1  1
 22 23  1  0
 24 22  2  0
M  END
$$$$
