NDT.pdb
     RDKit          3D

 24 23  0  0  1  0  0  0  0  0999 V2000
   14.6340  -12.0723  -14.4499 N   0  0  0  0  0  0  0  0  0  0  0  0
   16.0063  -12.0764  -14.0550 C   0  0  0  0  0  0  0  0  0  0  0  0
   16.4540  -12.8502  -13.1802 O   0  0  0  0  0  0  0  0  0  0  0  0
   16.9276  -11.1244  -14.7129 C   0  0  0  0  0  0  0  0  0  0  0  0
   16.1681  -10.3160  -15.7636 C   0  0  2  0  0  0  0  0  0  0  0  0
   16.0665  -11.1345  -16.9410 N   0  0  0  0  0  0  0  0  0  0  0  0
   16.9347   -9.0662  -15.9906 C   0  0  0  0  0  0  0  0  0  0  0  0
   17.5743   -8.9244  -17.0648 O   0  0  0  0  0  0  0  0  0  0  0  0
   16.9836   -7.9976  -15.0327 N   0  0  0  0  0  0  0  0  0  0  0  0
   17.7082   -6.7715  -15.3223 C   0  0  1  0  0  0  0  0  0  0  0  0
   16.8069   -5.5705  -15.3015 C   0  0  0  0  0  0  0  0  0  0  0  0
   17.5063   -4.3118  -15.5797 C   0  0  0  0  0  0  0  0  0  0  0  0
   18.3396   -4.1259  -16.4966 O   0  0  0  0  0  0  0  0  0  0  0  0
   18.8316   -6.5709  -14.3700 C   0  0  0  0  0  0  0  0  0  0  0  0
   18.5676   -6.5119  -13.1512 O   0  0  0  0  0  0  0  0  0  0  0  0
   17.2235   -3.2227  -14.7552 O   0  0  0  0  0  0  0  0  0  0  0  0
   21.9681   -8.7289  -14.3872 C   0  0  0  0  0  0  0  0  0  0  0  0
   22.4457   -7.2865  -14.3977 C   0  0  1  0  0  0  0  0  0  0  0  0
   22.7624   -6.9628  -15.7080 O   0  0  0  0  0  0  0  0  0  0  0  0
   21.3113   -6.4206  -13.9482 C   0  0  2  0  0  0  0  0  0  0  0  0
   20.1668   -6.4467  -14.8013 N   0  0  0  0  0  0  0  0  0  0  0  0
   21.7425   -5.0228  -13.6697 C   0  0  0  0  0  0  0  0  0  0  0  0
   21.2098   -3.9262  -14.2899 O   0  0  0  0  0  0  0  0  0  0  0  0
   22.6459   -4.8570  -12.8158 O   0  0  0  0  0  0  0  0  0  0  0  0
  1  2  1  0
  2  3  2  0
  2  4  1  0
  4  5  1  0
  5  7  1  0
  5  6  1  6
  7  9  1  0
  7  8  2  0
  9 10  1  0
 10 14  1  0
 10 11  1  1
 12 11  1  0
 13 12  2  0
 14 21  1  0
 14 15  2  0
 16 12  1  0
 18 17  1  6
 18 20  1  0
 19 18  1  0
 20 22  1  0
 20 21  1  6
 22 23  1  0
 24 22  2  0
M  END
$$$$
