NDT.pdb
     RDKit          3D

 24 23  0  0  1  0  0  0  0  0999 V2000
   21.7483  -13.0688  -20.7342 N   0  0  0  0  0  0  0  0  0  0  0  0
   21.2103  -13.3149  -19.4345 C   0  0  0  0  0  0  0  0  0  0  0  0
   21.2065  -14.4505  -18.9101 O   0  0  0  0  0  0  0  0  0  0  0  0
   20.6373  -12.1751  -18.6860 C   0  0  0  0  0  0  0  0  0  0  0  0
   21.7486  -11.4390  -17.9393 C   0  0  2  0  0  0  0  0  0  0  0  0
   22.2889  -12.3522  -16.9695 N   0  0  0  0  0  0  0  0  0  0  0  0
   21.1378  -10.2348  -17.3245 C   0  0  0  0  0  0  0  0  0  0  0  0
   20.6652   -9.3375  -18.0692 O   0  0  0  0  0  0  0  0  0  0  0  0
   21.0590  -10.0403  -15.9040 N   0  0  0  0  0  0  0  0  0  0  0  0
   20.3711   -8.8870  -15.3481 C   0  0  1  0  0  0  0  0  0  0  0  0
   19.4100   -9.2783  -14.2626 C   0  0  0  0  0  0  0  0  0  0  0  0
   18.2899  -10.0946  -14.7420 C   0  0  0  0  0  0  0  0  0  0  0  0
   18.1992  -11.3404  -14.6446 O   0  0  0  0  0  0  0  0  0  0  0  0
   21.3353   -7.8840  -14.8253 C   0  0  0  0  0  0  0  0  0  0  0  0
   22.2268   -8.2750  -14.0436 O   0  0  0  0  0  0  0  0  0  0  0  0
   17.2297   -9.4324  -15.3613 O   0  0  0  0  0  0  0  0  0  0  0  0
   22.9579   -5.1622  -17.1428 C   0  0  0  0  0  0  0  0  0  0  0  0
   22.4501   -4.4795  -15.8840 C   0  0  1  0  0  0  0  0  0  0  0  0
   21.2282   -3.9000  -16.1892 O   0  0  0  0  0  0  0  0  0  0  0  0
   22.2376   -5.5313  -14.8413 C   0  0  2  0  0  0  0  0  0  0  0  0
   21.2694   -6.5233  -15.1836 N   0  0  0  0  0  0  0  0  0  0  0  0
   21.9595   -4.9493  -13.4992 C   0  0  0  0  0  0  0  0  0  0  0  0
   22.7974   -4.0758  -12.8621 O   0  0  0  0  0  0  0  0  0  0  0  0
   20.8929   -5.2880  -12.9332 O   0  0  0  0  0  0  0  0  0  0  0  0
  1  2  1  0
  2  3  2  0
  2  4  1  0
  4  5  1  0
  5  7  1  0
  5  6  1  1
  7  9  1  0
  7  8  2  0
  9 10  1  0
 10 14  1  0
 10 11  1  1
 12 11  1  0
 13 12  2  0
 14 21  1  0
 14 15  2  0
 16 12  1  0
 18 17  1  6
 18 20  1  0
 19 18  1  0
 20 22  1  0
 20 21  1  6
 22 23  1  0
 24 22  2  0
M  END
$$$$
