NDT.pdb
     RDKit          3D

 24 23  0  0  1  0  0  0  0  0999 V2000
   16.2054  -15.6041  -17.4525 N   0  0  0  0  0  0  0  0  0  0  0  0
   15.4454  -14.9941  -16.4087 C   0  0  0  0  0  0  0  0  0  0  0  0
   14.2770  -15.3447  -16.1320 O   0  0  0  0  0  0  0  0  0  0  0  0
   16.0736  -13.9056  -15.6289 C   0  0  0  0  0  0  0  0  0  0  0  0
   17.4471  -13.5799  -16.2137 C   0  0  2  0  0  0  0  0  0  0  0  0
   18.3309  -14.6544  -15.8521 N   0  0  0  0  0  0  0  0  0  0  0  0
   17.8628  -12.2723  -15.6493 C   0  0  0  0  0  0  0  0  0  0  0  0
   18.4475  -12.2419  -14.5357 O   0  0  0  0  0  0  0  0  0  0  0  0
   17.6272  -11.0244  -16.3194 N   0  0  0  0  0  0  0  0  0  0  0  0
   18.1346   -9.7780  -15.7707 C   0  0  1  0  0  0  0  0  0  0  0  0
   18.6730   -8.8732  -16.8414 C   0  0  0  0  0  0  0  0  0  0  0  0
   19.2188   -7.6151  -16.3217 C   0  0  0  0  0  0  0  0  0  0  0  0
   19.7038   -7.4456  -15.1790 O   0  0  0  0  0  0  0  0  0  0  0  0
   17.0877   -9.0651  -14.9928 C   0  0  0  0  0  0  0  0  0  0  0  0
   16.0081   -8.8011  -15.5615 O   0  0  0  0  0  0  0  0  0  0  0  0
   19.1993   -6.5066  -17.1684 O   0  0  0  0  0  0  0  0  0  0  0  0
   15.9631   -9.8887  -11.3043 C   0  0  0  0  0  0  0  0  0  0  0  0
   16.3374   -8.4187  -11.3915 C   0  0  1  0  0  0  0  0  0  0  0  0
   17.6321   -8.2902  -10.9125 O   0  0  0  0  0  0  0  0  0  0  0  0
   16.3154   -8.0208  -12.8336 C   0  0  2  0  0  0  0  0  0  0  0  0
   17.2801   -8.6848  -13.6502 N   0  0  0  0  0  0  0  0  0  0  0  0
   16.3833   -6.5443  -13.0140 C   0  0  0  0  0  0  0  0  0  0  0  0
   17.3891   -5.9072  -13.6875 O   0  0  0  0  0  0  0  0  0  0  0  0
   15.4592   -5.8589  -12.5150 O   0  0  0  0  0  0  0  0  0  0  0  0
  1  2  1  0
  2  3  2  0
  2  4  1  0
  4  5  1  0
  5  7  1  0
  5  6  1  1
  7  9  1  0
  7  8  2  0
  9 10  1  0
 10 14  1  0
 10 11  1  6
 12 11  1  0
 13 12  2  0
 14 21  1  0
 14 15  2  0
 16 12  1  0
 18 17  1  6
 18 20  1  0
 19 18  1  0
 20 22  1  0
 20 21  1  6
 22 23  1  0
 24 22  2  0
M  END
$$$$
