NDT.pdb
     RDKit          3D

 24 23  0  0  1  0  0  0  0  0999 V2000
   16.3468  -11.2612  -17.6928 N   0  0  0  0  0  0  0  0  0  0  0  0
   16.2268  -10.0257  -16.9869 C   0  0  0  0  0  0  0  0  0  0  0  0
   15.2068   -9.3051  -17.0574 O   0  0  0  0  0  0  0  0  0  0  0  0
   17.3586   -9.5895  -16.1405 C   0  0  0  0  0  0  0  0  0  0  0  0
   18.5270  -10.5604  -16.3031 C   0  0  2  0  0  0  0  0  0  0  0  0
   18.1729  -11.7733  -15.6174 N   0  0  0  0  0  0  0  0  0  0  0  0
   19.7261   -9.8999  -15.7313 C   0  0  0  0  0  0  0  0  0  0  0  0
   19.7884   -9.7084  -14.4894 O   0  0  0  0  0  0  0  0  0  0  0  0
   20.8324   -9.4626  -16.5355 N   0  0  0  0  0  0  0  0  0  0  0  0
   22.0067   -8.8642  -15.9230 C   0  0  1  0  0  0  0  0  0  0  0  0
   23.2673   -9.2344  -16.6503 C   0  0  0  0  0  0  0  0  0  0  0  0
   23.6071  -10.6568  -16.5411 C   0  0  0  0  0  0  0  0  0  0  0  0
   23.1309  -11.5781  -17.2441 O   0  0  0  0  0  0  0  0  0  0  0  0
   21.8846   -7.3845  -15.8543 C   0  0  0  0  0  0  0  0  0  0  0  0
   22.0562   -6.7296  -16.9033 O   0  0  0  0  0  0  0  0  0  0  0  0
   24.5416  -11.0228  -15.5721 O   0  0  0  0  0  0  0  0  0  0  0  0
   19.0978   -5.4440  -15.4129 C   0  0  0  0  0  0  0  0  0  0  0  0
   19.9452   -4.9169  -14.2673 C   0  0  1  0  0  0  0  0  0  0  0  0
   19.5140   -5.5438  -13.1083 O   0  0  0  0  0  0  0  0  0  0  0  0
   21.3663   -5.3070  -14.5258 C   0  0  2  0  0  0  0  0  0  0  0  0
   21.5853   -6.7121  -14.6532 N   0  0  0  0  0  0  0  0  0  0  0  0
   22.3066   -4.7036  -13.5414 C   0  0  0  0  0  0  0  0  0  0  0  0
   23.0378   -5.4327  -12.6444 O   0  0  0  0  0  0  0  0  0  0  0  0
   22.4247   -3.4550  -13.5468 O   0  0  0  0  0  0  0  0  0  0  0  0
  1  2  1  0
  2  3  2  0
  2  4  1  0
  4  5  1  0
  5  7  1  0
  5  6  1  1
  7  9  1  0
  7  8  2  0
  9 10  1  0
 10 14  1  0
 10 11  1  6
 12 11  1  0
 13 12  2  0
 14 21  1  0
 14 15  2  0
 16 12  1  0
 18 17  1  6
 18 20  1  0
 19 18  1  0
 20 22  1  0
 20 21  1  1
 22 23  1  0
 24 22  2  0
M  END
$$$$
