YIE.pdb
     RDKit          3D

 30 30  0  0  1  0  0  0  0  0999 V2000
   18.4400  -24.2430   -9.9412 O   0  0  0  0  0  0  0  0  0  0  0  0
   19.3858  -23.3408  -10.4219 C   0  0  0  0  0  0  0  0  0  0  0  0
   20.1416  -23.7216  -11.5118 C   0  0  0  0  0  0  0  0  0  0  0  0
   21.0714  -22.8492  -11.9929 C   0  0  0  0  0  0  0  0  0  0  0  0
   21.2413  -21.6205  -11.3952 C   0  0  0  0  0  0  0  0  0  0  0  0
   22.2379  -20.6515  -11.8744 C   0  0  0  0  0  0  0  0  0  0  0  0
   23.6630  -21.0353  -11.5421 C   0  0  2  0  0  0  0  0  0  0  0  0
   23.7858  -20.8608  -10.0962 N   0  0  0  0  0  0  0  0  0  0  0  0
   24.5682  -20.1410  -12.2797 C   0  0  0  0  0  0  0  0  0  0  0  0
   24.7597  -18.9702  -11.8581 O   0  0  0  0  0  0  0  0  0  0  0  0
   20.4837  -21.2202  -10.2913 C   0  0  0  0  0  0  0  0  0  0  0  0
   19.5529  -22.1107   -9.8206 C   0  0  0  0  0  0  0  0  0  0  0  0
   29.3448  -20.9509  -12.5495 C   0  0  0  0  0  0  0  0  0  0  0  0
   27.9801  -20.3452  -12.6372 C   0  0  0  0  0  0  0  0  0  0  0  0
   27.5206  -20.1768  -14.0781 C   0  0  2  0  0  0  0  0  0  0  0  0
   28.6023  -19.4337  -14.7933 C   0  0  0  0  0  0  0  0  0  0  0  0
   26.1594  -19.5279  -14.1380 C   0  0  2  0  0  0  0  0  0  0  0  0
   25.2648  -20.4835  -13.4538 N   0  0  0  0  0  0  0  0  0  0  0  0
   25.6717  -19.2687  -15.5032 C   0  0  0  0  0  0  0  0  0  0  0  0
   25.4307  -20.2555  -16.2738 O   0  0  0  0  0  0  0  0  0  0  0  0
   25.4393  -17.9921  -16.0446 N   0  0  0  0  0  0  0  0  0  0  0  0
   24.8401  -17.8126  -17.4138 C   0  0  1  0  0  0  0  0  0  0  0  0
   24.0459  -16.5585  -17.3793 C   0  0  0  0  0  0  0  0  0  0  0  0
   23.4501  -16.1179  -18.6483 C   0  0  0  0  0  0  0  0  0  0  0  0
   22.6972  -14.8622  -18.6931 C   0  0  0  0  0  0  0  0  0  0  0  0
   22.9268  -13.8667  -17.9164 O   0  0  0  0  0  0  0  0  0  0  0  0
   25.9848  -17.7721  -18.2975 C   0  0  0  0  0  0  0  0  0  0  0  0
   25.9473  -18.1933  -19.6038 O   0  0  0  0  0  0  0  0  0  0  0  0
   21.6523  -14.6520  -19.6117 O   0  0  0  0  0  0  0  0  0  0  0  0
   27.0959  -17.3459  -17.8970 O   0  0  0  0  0  0  0  0  0  0  0  0
  2  3  2  0
  2  1  1  0
  4  3  1  0
  5  4  2  0
  6  5  1  0
  7  6  1  0
  7  9  1  0
  7  8  1  1
  9 10  2  0
 11  5  1  0
 11 12  2  0
 12  2  1  0
 13 14  1  0
 15 16  1  6
 15 14  1  0
 17 15  1  0
 18  9  1  0
 17 18  1  6
 19 21  1  0
 19 17  1  0
 20 19  2  0
 22 27  1  0
 22 21  1  0
 22 23  1  1
 24 23  1  0
 25 24  1  0
 26 25  2  0
 27 28  1  0
 29 25  1  0
 30 27  2  0
M  END
$$$$
