YIE.pdb
     RDKit          3D

 30 30  0  0  1  0  0  0  0  0999 V2000
   18.4711  -24.1356   -8.3695 O   0  0  0  0  0  0  0  0  0  0  0  0
   19.4019  -23.3018   -8.9844 C   0  0  0  0  0  0  0  0  0  0  0  0
   19.7464  -22.1340   -8.3352 C   0  0  0  0  0  0  0  0  0  0  0  0
   20.6556  -21.3080   -8.9252 C   0  0  0  0  0  0  0  0  0  0  0  0
   21.2088  -21.6441  -10.1404 C   0  0  0  0  0  0  0  0  0  0  0  0
   22.1863  -20.7796  -10.8180 C   0  0  0  0  0  0  0  0  0  0  0  0
   23.6241  -21.1602  -10.5416 C   0  0  2  0  0  0  0  0  0  0  0  0
   23.8444  -20.8494   -9.1305 N   0  0  0  0  0  0  0  0  0  0  0  0
   24.4924  -20.3611  -11.4195 C   0  0  0  0  0  0  0  0  0  0  0  0
   24.6273  -19.1287  -11.2002 O   0  0  0  0  0  0  0  0  0  0  0  0
   20.8705  -22.8230  -10.8101 C   0  0  0  0  0  0  0  0  0  0  0  0
   19.9540  -23.6421  -10.2018 C   0  0  0  0  0  0  0  0  0  0  0  0
   29.2947  -20.7313  -11.3922 C   0  0  0  0  0  0  0  0  0  0  0  0
   27.8952  -20.2735  -11.6542 C   0  0  0  0  0  0  0  0  0  0  0  0
   27.4747  -20.5161  -13.0964 C   0  0  2  0  0  0  0  0  0  0  0  0
   28.5324  -19.9127  -13.9630 C   0  0  0  0  0  0  0  0  0  0  0  0
   26.0792  -19.9982  -13.3459 C   0  0  2  0  0  0  0  0  0  0  0  0
   25.2119  -20.8629  -12.5203 N   0  0  0  0  0  0  0  0  0  0  0  0
   25.6549  -20.0560  -14.7550 C   0  0  0  0  0  0  0  0  0  0  0  0
   25.5876  -21.1885  -15.3368 O   0  0  0  0  0  0  0  0  0  0  0  0
   25.3049  -18.9398  -15.5351 N   0  0  0  0  0  0  0  0  0  0  0  0
   24.6237  -19.0915  -16.8689 C   0  0  1  0  0  0  0  0  0  0  0  0
   23.5178  -18.1014  -16.9067 C   0  0  0  0  0  0  0  0  0  0  0  0
   22.7912  -17.9698  -18.1772 C   0  0  0  0  0  0  0  0  0  0  0  0
   21.8099  -16.8941  -18.3380 C   0  0  0  0  0  0  0  0  0  0  0  0
   21.8531  -16.0269  -19.2830 O   0  0  0  0  0  0  0  0  0  0  0  0
   25.6760  -18.8507  -17.8320 C   0  0  0  0  0  0  0  0  0  0  0  0
   25.7787  -19.5239  -19.0242 O   0  0  0  0  0  0  0  0  0  0  0  0
   20.7268  -16.7352  -17.4541 O   0  0  0  0  0  0  0  0  0  0  0  0
   26.5710  -17.9980  -17.6120 O   0  0  0  0  0  0  0  0  0  0  0  0
  2  3  2  0
  2  1  1  0
  4  3  1  0
  5  4  2  0
  6  5  1  0
  7  6  1  0
  7  9  1  0
  7  8  1  1
  9 10  2  0
 11  5  1  0
 11 12  2  0
 12  2  1  0
 13 14  1  0
 15 16  1  6
 15 14  1  0
 17 15  1  0
 18  9  1  0
 17 18  1  1
 19 21  1  0
 19 17  1  0
 20 19  2  0
 22 27  1  0
 22 21  1  0
 22 23  1  1
 24 23  1  0
 25 24  1  0
 26 25  2  0
 27 28  1  0
 29 25  1  0
 30 27  2  0
M  END
$$$$
