YIE.pdb
     RDKit          3D

 30 30  0  0  1  0  0  0  0  0999 V2000
   23.7605  -10.2285  -25.5747 O   0  0  0  0  0  0  0  0  0  0  0  0
   23.1928  -10.1003  -24.3094 C   0  0  0  0  0  0  0  0  0  0  0  0
   21.8489  -10.3835  -24.1762 C   0  0  0  0  0  0  0  0  0  0  0  0
   21.2796  -10.2619  -22.9440 C   0  0  0  0  0  0  0  0  0  0  0  0
   22.0400   -9.8650  -21.8670 C   0  0  0  0  0  0  0  0  0  0  0  0
   21.4665   -9.7117  -20.5218 C   0  0  0  0  0  0  0  0  0  0  0  0
   22.0337  -10.6813  -19.5086 C   0  0  2  0  0  0  0  0  0  0  0  0
   21.5618  -12.0002  -19.9258 N   0  0  0  0  0  0  0  0  0  0  0  0
   21.5239  -10.3135  -18.1789 C   0  0  0  0  0  0  0  0  0  0  0  0
   20.3521  -10.6397  -17.8540 O   0  0  0  0  0  0  0  0  0  0  0  0
   23.4018   -9.5750  -21.9856 C   0  0  0  0  0  0  0  0  0  0  0  0
   23.9580   -9.7026  -23.2328 C   0  0  0  0  0  0  0  0  0  0  0  0
   23.9684  -11.3175  -13.8469 C   0  0  0  0  0  0  0  0  0  0  0  0
   22.8939  -10.9696  -14.8274 C   0  0  0  0  0  0  0  0  0  0  0  0
   22.6261   -9.4724  -14.8750 C   0  0  2  0  0  0  0  0  0  0  0  0
   22.2301   -9.0594  -13.4942 C   0  0  0  0  0  0  0  0  0  0  0  0
   21.6204   -9.1381  -15.9495 C   0  0  2  0  0  0  0  0  0  0  0  0
   22.2490   -9.6064  -17.2014 N   0  0  0  0  0  0  0  0  0  0  0  0
   21.2977   -7.7049  -16.0521 C   0  0  0  0  0  0  0  0  0  0  0  0
   22.2457   -6.8642  -16.1945 O   0  0  0  0  0  0  0  0  0  0  0  0
   19.9988   -7.1686  -16.0085 N   0  0  0  0  0  0  0  0  0  0  0  0
   19.7542   -5.6855  -16.0889 C   0  0  1  0  0  0  0  0  0  0  0  0
   19.3299   -5.3901  -17.4808 C   0  0  0  0  0  0  0  0  0  0  0  0
   18.8782   -4.0194  -17.7578 C   0  0  0  0  0  0  0  0  0  0  0  0
   19.8694   -2.9532  -17.9201 C   0  0  0  0  0  0  0  0  0  0  0  0
   19.8352   -1.8453  -17.2732 O   0  0  0  0  0  0  0  0  0  0  0  0
   18.7382   -5.4406  -15.0886 C   0  0  0  0  0  0  0  0  0  0  0  0
   18.5715   -4.2313  -14.4601 O   0  0  0  0  0  0  0  0  0  0  0  0
   20.9530   -3.0720  -18.8096 O   0  0  0  0  0  0  0  0  0  0  0  0
   17.9469   -6.3490  -14.7349 O   0  0  0  0  0  0  0  0  0  0  0  0
  2  3  2  0
  2  1  1  0
  4  3  1  0
  5  4  2  0
  6  5  1  0
  7  6  1  0
  7  9  1  0
  7  8  1  6
  9 10  2  0
 11  5  1  0
 11 12  2  0
 12  2  1  0
 13 14  1  0
 15 16  1  1
 15 14  1  0
 17 15  1  0
 18  9  1  0
 17 18  1  6
 19 21  1  0
 19 17  1  0
 20 19  2  0
 22 27  1  0
 22 21  1  0
 22 23  1  6
 24 23  1  0
 25 24  1  0
 26 25  2  0
 27 28  1  0
 29 25  1  0
 30 27  2  0
M  END
$$$$
