YIE.pdb
     RDKit          3D

 30 30  0  0  1  0  0  0  0  0999 V2000
   17.8096  -13.9988  -22.2029 O   0  0  0  0  0  0  0  0  0  0  0  0
   18.4155  -13.2890  -21.1691 C   0  0  0  0  0  0  0  0  0  0  0  0
   19.6821  -12.7878  -21.3897 C   0  0  0  0  0  0  0  0  0  0  0  0
   20.2877  -12.0916  -20.3869 C   0  0  0  0  0  0  0  0  0  0  0  0
   19.6388  -11.9009  -19.1876 C   0  0  0  0  0  0  0  0  0  0  0  0
   20.2568  -11.1644  -18.0752 C   0  0  0  0  0  0  0  0  0  0  0  0
   21.3061  -11.9608  -17.3315 C   0  0  2  0  0  0  0  0  0  0  0  0
   20.5644  -12.9564  -16.5601 N   0  0  0  0  0  0  0  0  0  0  0  0
   22.0554  -11.0420  -16.4612 C   0  0  0  0  0  0  0  0  0  0  0  0
   21.5774  -10.7238  -15.3407 O   0  0  0  0  0  0  0  0  0  0  0  0
   18.3562  -12.4017  -18.9490 C   0  0  0  0  0  0  0  0  0  0  0  0
   17.7620  -13.0998  -19.9691 C   0  0  0  0  0  0  0  0  0  0  0  0
   27.0772  -11.7129  -15.5104 C   0  0  0  0  0  0  0  0  0  0  0  0
   25.6545  -11.2743  -15.3673 C   0  0  0  0  0  0  0  0  0  0  0  0
   25.4265   -9.8798  -15.9322 C   0  0  2  0  0  0  0  0  0  0  0  0
   26.3426   -8.9584  -15.1936 C   0  0  0  0  0  0  0  0  0  0  0  0
   23.9659   -9.5049  -15.8707 C   0  0  2  0  0  0  0  0  0  0  0  0
   23.3004  -10.4650  -16.7746 N   0  0  0  0  0  0  0  0  0  0  0  0
   23.6762   -8.1256  -16.2978 C   0  0  0  0  0  0  0  0  0  0  0  0
   24.0068   -7.7575  -17.4729 O   0  0  0  0  0  0  0  0  0  0  0  0
   23.0465   -7.1533  -15.5010 N   0  0  0  0  0  0  0  0  0  0  0  0
   22.7704   -5.7669  -16.0184 C   0  0  1  0  0  0  0  0  0  0  0  0
   21.2949   -5.6131  -16.0824 C   0  0  0  0  0  0  0  0  0  0  0  0
   20.7833   -4.2786  -16.4243 C   0  0  0  0  0  0  0  0  0  0  0  0
   19.3406   -4.0280  -16.3842 C   0  0  0  0  0  0  0  0  0  0  0  0
   18.6997   -3.4100  -17.3084 O   0  0  0  0  0  0  0  0  0  0  0  0
   23.4220   -4.8974  -15.0633 C   0  0  0  0  0  0  0  0  0  0  0  0
   23.8026   -3.6097  -15.3497 O   0  0  0  0  0  0  0  0  0  0  0  0
   18.5387   -4.4598  -15.3117 O   0  0  0  0  0  0  0  0  0  0  0  0
   23.6830   -5.2942  -13.9010 O   0  0  0  0  0  0  0  0  0  0  0  0
  2  3  2  0
  2  1  1  0
  4  3  1  0
  5  4  2  0
  6  5  1  0
  7  6  1  0
  7  9  1  0
  7  8  1  1
  9 10  2  0
 11  5  1  0
 11 12  2  0
 12  2  1  0
 13 14  1  0
 15 16  1  1
 15 14  1  0
 17 15  1  0
 18  9  1  0
 17 18  1  6
 19 21  1  0
 19 17  1  0
 20 19  2  0
 22 27  1  0
 22 21  1  0
 22 23  1  1
 24 23  1  0
 25 24  1  0
 26 25  2  0
 27 28  1  0
 29 25  1  0
 30 27  2  0
M  END
$$$$
