LEQ.pdb
     RDKit          3D

 27 26  0  0  1  0  0  0  0  0999 V2000
    6.5101  -13.3695   19.1698 C   0  0  0  0  0  0  0  0  0  0  0  0
    7.8839  -13.8462   19.5194 C   0  0  1  0  0  0  0  0  0  0  0  0
    8.8556  -12.7439   19.0748 C   0  0  0  0  0  0  0  0  0  0  0  0
    8.1059  -14.1049   20.9780 C   0  0  0  0  0  0  0  0  0  0  0  0
    9.5260  -14.5202   21.2168 C   0  0  2  0  0  0  0  0  0  0  0  0
   10.0164  -15.1856   20.0190 N   0  0  0  0  0  0  0  0  0  0  0  0
    9.6510  -15.4862   22.3435 C   0  0  0  0  0  0  0  0  0  0  0  0
    8.8997  -15.4268   23.3651 O   0  0  0  0  0  0  0  0  0  0  0  0
   10.6150  -16.5304   22.3456 N   0  0  0  0  0  0  0  0  0  0  0  0
   10.7965  -17.3932   23.4982 C   0  0  1  0  0  0  0  0  0  0  0  0
   11.8091  -18.4711   23.2440 C   0  0  0  0  0  0  0  0  0  0  0  0
   11.8420  -19.4900   24.3659 C   0  0  0  0  0  0  0  0  0  0  0  0
   12.9284  -20.4681   24.1302 C   0  0  0  0  0  0  0  0  0  0  0  0
   13.7659  -20.6504   25.0690 O   0  0  0  0  0  0  0  0  0  0  0  0
   11.2078  -16.6150   24.6924 C   0  0  0  0  0  0  0  0  0  0  0  0
   12.2560  -15.9150   24.7182 O   0  0  0  0  0  0  0  0  0  0  0  0
   13.1050  -21.2003   22.9664 O   0  0  0  0  0  0  0  0  0  0  0  0
    7.9842  -12.7192   27.6880 N   0  0  0  0  0  0  0  0  0  0  0  0
    8.2971  -13.0731   26.3554 C   0  0  0  0  0  0  0  0  0  0  0  0
    7.7137  -12.4691   25.4261 O   0  0  0  0  0  0  0  0  0  0  0  0
    9.2815  -14.1246   26.0021 C   0  0  0  0  0  0  0  0  0  0  0  0
    9.8273  -14.7326   27.2417 C   0  0  0  0  0  0  0  0  0  0  0  0
   10.7162  -15.9079   27.0533 C   0  0  2  0  0  0  0  0  0  0  0  0
   10.3949  -16.6597   25.8456 N   0  0  0  0  0  0  0  0  0  0  0  0
   10.8307  -16.7981   28.2104 C   0  0  0  0  0  0  0  0  0  0  0  0
   11.1885  -16.4456   29.3587 O   0  0  0  0  0  0  0  0  0  0  0  0
   10.5298  -18.1386   28.0557 O   0  0  0  0  0  0  0  0  0  0  0  0
  2  4  1  0
  2  1  1  1
  2  3  1  0
  5  4  1  0
  5  6  1  6
  7  5  1  0
  8  7  2  0
  9  7  1  0
 10  9  1  0
 10 11  1  6
 12 11  1  0
 13 12  1  0
 13 14  2  0
 15 10  1  0
 15 24  1  0
 16 15  2  0
 17 13  1  0
 19 18  1  0
 20 19  2  0
 21 19  1  0
 22 21  1  0
 23 22  1  1
 23 25  1  0
 23 24  1  0
 25 27  1  0
 26 25  2  0
M  END
$$$$
