LEQ.pdb
     RDKit          3D

 27 26  0  0  1  0  0  0  0  0999 V2000
    6.8482  -12.9649   18.0656 C   0  0  0  0  0  0  0  0  0  0  0  0
    8.0919  -13.6099   18.5892 C   0  0  1  0  0  0  0  0  0  0  0  0
    9.0643  -12.4720   18.9305 C   0  0  0  0  0  0  0  0  0  0  0  0
    7.8968  -14.4430   19.8186 C   0  0  0  0  0  0  0  0  0  0  0  0
    9.2253  -14.8405   20.3872 C   0  0  2  0  0  0  0  0  0  0  0  0
    9.9291  -15.6373   19.3933 N   0  0  0  0  0  0  0  0  0  0  0  0
    9.0890  -15.6779   21.6114 C   0  0  0  0  0  0  0  0  0  0  0  0
    8.2992  -15.3643   22.5546 O   0  0  0  0  0  0  0  0  0  0  0  0
    9.8312  -16.8751   21.7994 N   0  0  0  0  0  0  0  0  0  0  0  0
    9.7464  -17.6345   23.0331 C   0  0  1  0  0  0  0  0  0  0  0  0
   10.6359  -18.8429   23.0158 C   0  0  0  0  0  0  0  0  0  0  0  0
   10.4627  -19.6888   24.2618 C   0  0  0  0  0  0  0  0  0  0  0  0
   11.3329  -20.8844   24.1874 C   0  0  0  0  0  0  0  0  0  0  0  0
   12.0620  -21.0144   23.1542 O   0  0  0  0  0  0  0  0  0  0  0  0
   10.0939  -16.7949   24.2059 C   0  0  0  0  0  0  0  0  0  0  0  0
   11.2086  -16.2174   24.3206 O   0  0  0  0  0  0  0  0  0  0  0  0
   11.4152  -21.8737   25.1550 O   0  0  0  0  0  0  0  0  0  0  0  0
    5.8984  -12.9598   26.0462 N   0  0  0  0  0  0  0  0  0  0  0  0
    6.9316  -12.6577   26.9628 C   0  0  0  0  0  0  0  0  0  0  0  0
    6.8205  -11.6279   27.6672 O   0  0  0  0  0  0  0  0  0  0  0  0
    8.1413  -13.4987   27.1322 C   0  0  0  0  0  0  0  0  0  0  0  0
    8.0960  -14.6343   26.1769 C   0  0  0  0  0  0  0  0  0  0  0  0
    9.2420  -15.5780   26.2330 C   0  0  2  0  0  0  0  0  0  0  0  0
    9.1399  -16.6359   25.2343 N   0  0  0  0  0  0  0  0  0  0  0  0
    9.5320  -16.1327   27.5569 C   0  0  0  0  0  0  0  0  0  0  0  0
    9.2813  -17.3067   27.9174 O   0  0  0  0  0  0  0  0  0  0  0  0
   10.1265  -15.3225   28.5064 O   0  0  0  0  0  0  0  0  0  0  0  0
  2  4  1  0
  2  1  1  1
  2  3  1  0
  5  4  1  0
  5  6  1  6
  7  5  1  0
  8  7  2  0
  9  7  1  0
 10  9  1  0
 10 11  1  6
 12 11  1  0
 13 12  1  0
 13 14  2  0
 15 10  1  0
 15 24  1  0
 16 15  2  0
 17 13  1  0
 19 18  1  0
 20 19  2  0
 21 19  1  0
 22 21  1  0
 23 22  1  1
 23 25  1  0
 23 24  1  0
 25 27  1  0
 26 25  2  0
M  END
$$$$
