LEQ.pdb
     RDKit          3D

 27 26  0  0  1  0  0  0  0  0999 V2000
    6.5790  -13.2560   19.0120 C   0  0  0  0  0  0  0  0  0  0  0  0
    7.9573  -13.7036   19.3819 C   0  0  1  0  0  0  0  0  0  0  0  0
    8.8623  -12.4683   19.2733 C   0  0  0  0  0  0  0  0  0  0  0  0
    8.0863  -14.2575   20.7676 C   0  0  0  0  0  0  0  0  0  0  0  0
    9.5134  -14.6208   21.0460 C   0  0  2  0  0  0  0  0  0  0  0  0
   10.1284  -15.0508   19.7991 N   0  0  0  0  0  0  0  0  0  0  0  0
    9.6321  -15.7490   22.0112 C   0  0  0  0  0  0  0  0  0  0  0  0
    8.7184  -16.0112   22.8528 O   0  0  0  0  0  0  0  0  0  0  0  0
   10.7704  -16.5988   22.0503 N   0  0  0  0  0  0  0  0  0  0  0  0
   10.8978  -17.6512   23.0412 C   0  0  1  0  0  0  0  0  0  0  0  0
   11.9223  -18.6755   22.6500 C   0  0  0  0  0  0  0  0  0  0  0  0
   13.3189  -18.0875   22.6040 C   0  0  0  0  0  0  0  0  0  0  0  0
   14.2838  -19.1098   22.1392 C   0  0  0  0  0  0  0  0  0  0  0  0
   14.9992  -18.8228   21.1283 O   0  0  0  0  0  0  0  0  0  0  0  0
   11.2512  -17.0972   24.3712 C   0  0  0  0  0  0  0  0  0  0  0  0
   11.7839  -15.9635   24.5143 O   0  0  0  0  0  0  0  0  0  0  0  0
   14.4687  -20.3554   22.7188 O   0  0  0  0  0  0  0  0  0  0  0  0
   10.4054  -13.4981   27.0458 N   0  0  0  0  0  0  0  0  0  0  0  0
   10.0277  -14.2740   28.1659 C   0  0  0  0  0  0  0  0  0  0  0  0
   10.3041  -13.8433   29.3091 O   0  0  0  0  0  0  0  0  0  0  0  0
    9.3210  -15.5730   28.0554 C   0  0  0  0  0  0  0  0  0  0  0  0
    9.6681  -16.2207   26.7653 C   0  0  0  0  0  0  0  0  0  0  0  0
   10.7269  -17.2612   26.8236 C   0  0  2  0  0  0  0  0  0  0  0  0
   10.9812  -17.8686   25.5223 N   0  0  0  0  0  0  0  0  0  0  0  0
   10.5420  -18.2857   27.8535 C   0  0  0  0  0  0  0  0  0  0  0  0
    9.8239  -19.3060   27.7347 O   0  0  0  0  0  0  0  0  0  0  0  0
   11.1954  -18.1438   29.0635 O   0  0  0  0  0  0  0  0  0  0  0  0
  2  4  1  0
  2  1  1  1
  2  3  1  0
  5  4  1  0
  5  6  1  6
  7  5  1  0
  8  7  2  0
  9  7  1  0
 10  9  1  0
 10 11  1  6
 12 11  1  0
 13 12  1  0
 13 14  2  0
 15 10  1  0
 15 24  1  0
 16 15  2  0
 17 13  1  0
 19 18  1  0
 20 19  2  0
 21 19  1  0
 22 21  1  0
 23 22  1  6
 23 25  1  0
 23 24  1  0
 25 27  1  0
 26 25  2  0
M  END
$$$$
