LEQ.pdb
     RDKit          3D

 27 26  0  0  1  0  0  0  0  0999 V2000
    7.3062  -12.2946   18.5993 C   0  0  0  0  0  0  0  0  0  0  0  0
    7.9790  -13.4231   19.3139 C   0  0  1  0  0  0  0  0  0  0  0  0
    9.2718  -12.8522   19.9136 C   0  0  0  0  0  0  0  0  0  0  0  0
    7.1769  -14.0301   20.4237 C   0  0  0  0  0  0  0  0  0  0  0  0
    7.9304  -15.1698   21.0398 C   0  0  2  0  0  0  0  0  0  0  0  0
    8.2111  -16.1487   20.0001 N   0  0  0  0  0  0  0  0  0  0  0  0
    7.1439  -15.8610   22.0991 C   0  0  0  0  0  0  0  0  0  0  0  0
    5.9805  -16.3195   21.8800 O   0  0  0  0  0  0  0  0  0  0  0  0
    7.6444  -16.0497   23.4157 N   0  0  0  0  0  0  0  0  0  0  0  0
    6.9054  -16.8099   24.4066 C   0  0  1  0  0  0  0  0  0  0  0  0
    7.2673  -18.2661   24.3878 C   0  0  0  0  0  0  0  0  0  0  0  0
    6.5520  -19.0392   25.4781 C   0  0  0  0  0  0  0  0  0  0  0  0
    7.3772  -20.1915   25.9067 C   0  0  0  0  0  0  0  0  0  0  0  0
    7.1203  -20.7062   27.0402 O   0  0  0  0  0  0  0  0  0  0  0  0
    7.1288  -16.2735   25.7716 C   0  0  0  0  0  0  0  0  0  0  0  0
    6.5383  -16.7330   26.7862 O   0  0  0  0  0  0  0  0  0  0  0  0
    8.4085  -20.7531   25.1698 O   0  0  0  0  0  0  0  0  0  0  0  0
   10.4119  -18.3897   28.9247 N   0  0  0  0  0  0  0  0  0  0  0  0
   10.4979  -17.1789   29.6497 C   0  0  0  0  0  0  0  0  0  0  0  0
   11.0933  -17.1856   30.7516 O   0  0  0  0  0  0  0  0  0  0  0  0
    9.9179  -15.9006   29.1713 C   0  0  0  0  0  0  0  0  0  0  0  0
    9.2454  -16.1166   27.8654 C   0  0  0  0  0  0  0  0  0  0  0  0
    8.6561  -14.9104   27.2294 C   0  0  2  0  0  0  0  0  0  0  0  0
    8.0376  -15.2069   25.9422 N   0  0  0  0  0  0  0  0  0  0  0  0
    9.5509  -13.7557   27.1277 C   0  0  0  0  0  0  0  0  0  0  0  0
   10.2117  -13.4431   26.1096 O   0  0  0  0  0  0  0  0  0  0  0  0
    9.7020  -12.9274   28.2244 O   0  0  0  0  0  0  0  0  0  0  0  0
  2  4  1  0
  2  1  1  1
  2  3  1  0
  5  4  1  0
  5  6  1  6
  7  5  1  0
  8  7  2  0
  9  7  1  0
 10  9  1  0
 10 11  1  1
 12 11  1  0
 13 12  1  0
 13 14  2  0
 15 10  1  0
 15 24  1  0
 16 15  2  0
 17 13  1  0
 19 18  1  0
 20 19  2  0
 21 19  1  0
 22 21  1  0
 23 22  1  6
 23 25  1  0
 23 24  1  0
 25 27  1  0
 26 25  2  0
M  END
$$$$
