LEQ.pdb
     RDKit          3D

 27 26  0  0  1  0  0  0  0  0999 V2000
    6.3983  -13.5619   18.8100 C   0  0  0  0  0  0  0  0  0  0  0  0
    7.7746  -13.9450   19.2526 C   0  0  1  0  0  0  0  0  0  0  0  0
    8.5916  -12.6467   19.3135 C   0  0  0  0  0  0  0  0  0  0  0  0
    7.8409  -14.6029   20.5966 C   0  0  0  0  0  0  0  0  0  0  0  0
    9.2670  -14.7201   21.0425 C   0  0  2  0  0  0  0  0  0  0  0  0
   10.0051  -15.4577   20.0280 N   0  0  0  0  0  0  0  0  0  0  0  0
    9.3998  -15.4714   22.3216 C   0  0  0  0  0  0  0  0  0  0  0  0
    8.4885  -15.4584   23.2054 O   0  0  0  0  0  0  0  0  0  0  0  0
   10.5499  -16.2465   22.6316 N   0  0  0  0  0  0  0  0  0  0  0  0
   10.6915  -16.9157   23.9114 C   0  0  1  0  0  0  0  0  0  0  0  0
   11.8493  -17.8702   23.9255 C   0  0  0  0  0  0  0  0  0  0  0  0
   11.6489  -19.0146   22.9518 C   0  0  0  0  0  0  0  0  0  0  0  0
   12.8706  -19.8490   22.8924 C   0  0  0  0  0  0  0  0  0  0  0  0
   13.6055  -19.7384   21.8611 O   0  0  0  0  0  0  0  0  0  0  0  0
   10.8577  -15.9372   25.0140 C   0  0  0  0  0  0  0  0  0  0  0  0
   11.8472  -15.1595   25.0876 O   0  0  0  0  0  0  0  0  0  0  0  0
   13.2762  -20.7418   23.8723 O   0  0  0  0  0  0  0  0  0  0  0  0
    7.5988  -11.4619   26.6661 N   0  0  0  0  0  0  0  0  0  0  0  0
    6.9432  -12.7141   26.6997 C   0  0  0  0  0  0  0  0  0  0  0  0
    5.6999  -12.7395   26.5501 O   0  0  0  0  0  0  0  0  0  0  0  0
    7.6536  -13.9997   26.9039 C   0  0  0  0  0  0  0  0  0  0  0  0
    9.1157  -13.7540   26.9812 C   0  0  0  0  0  0  0  0  0  0  0  0
    9.9698  -14.9575   27.1512 C   0  0  2  0  0  0  0  0  0  0  0  0
    9.8703  -15.8737   26.0208 N   0  0  0  0  0  0  0  0  0  0  0  0
    9.8028  -15.6697   28.4198 C   0  0  0  0  0  0  0  0  0  0  0  0
    9.9277  -15.1567   29.5565 O   0  0  0  0  0  0  0  0  0  0  0  0
    9.4845  -17.0149   28.3952 O   0  0  0  0  0  0  0  0  0  0  0  0
  2  4  1  0
  2  1  1  1
  2  3  1  0
  5  4  1  0
  5  6  1  6
  7  5  1  0
  8  7  2  0
  9  7  1  0
 10  9  1  0
 10 11  1  6
 12 11  1  0
 13 12  1  0
 13 14  2  0
 15 10  1  0
 15 24  1  0
 16 15  2  0
 17 13  1  0
 19 18  1  0
 20 19  2  0
 21 19  1  0
 22 21  1  0
 23 22  1  6
 23 25  1  0
 23 24  1  0
 25 27  1  0
 26 25  2  0
M  END
$$$$
