LEQ.pdb
     RDKit          3D

 27 26  0  0  1  0  0  0  0  0999 V2000
    7.7400  -12.3055   25.9337 C   0  0  0  0  0  0  0  0  0  0  0  0
    6.9520  -13.4841   25.4575 C   0  0  1  0  0  0  0  0  0  0  0  0
    5.5119  -13.2737   25.9461 C   0  0  0  0  0  0  0  0  0  0  0  0
    6.9205  -13.6583   23.9701 C   0  0  0  0  0  0  0  0  0  0  0  0
    8.2878  -14.0041   23.4633 C   0  0  2  0  0  0  0  0  0  0  0  0
    8.2378  -14.0569   22.0097 N   0  0  0  0  0  0  0  0  0  0  0  0
    8.7471  -15.3384   23.9399 C   0  0  0  0  0  0  0  0  0  0  0  0
    8.4989  -15.7538   25.1136 O   0  0  0  0  0  0  0  0  0  0  0  0
    9.4888  -16.2260   23.1144 N   0  0  0  0  0  0  0  0  0  0  0  0
   10.0419  -17.4626   23.6349 C   0  0  1  0  0  0  0  0  0  0  0  0
   10.8559  -18.1944   22.6084 C   0  0  0  0  0  0  0  0  0  0  0  0
   10.0053  -18.6667   21.4459 C   0  0  0  0  0  0  0  0  0  0  0  0
   10.8685  -19.2269   20.3813 C   0  0  0  0  0  0  0  0  0  0  0  0
   10.6659  -20.4340   20.0380 O   0  0  0  0  0  0  0  0  0  0  0  0
   10.8829  -17.2135   24.8314 C   0  0  0  0  0  0  0  0  0  0  0  0
   11.6184  -16.1958   24.9438 O   0  0  0  0  0  0  0  0  0  0  0  0
   11.8808  -18.5394   19.7297 O   0  0  0  0  0  0  0  0  0  0  0  0
   10.3632  -13.8602   28.2099 N   0  0  0  0  0  0  0  0  0  0  0  0
   10.6730  -14.7333   29.2778 C   0  0  0  0  0  0  0  0  0  0  0  0
   10.9561  -14.2350   30.3916 O   0  0  0  0  0  0  0  0  0  0  0  0
   10.6803  -16.2104   29.1458 C   0  0  0  0  0  0  0  0  0  0  0  0
   10.4746  -16.5844   27.7238 C   0  0  0  0  0  0  0  0  0  0  0  0
   11.2040  -17.7910   27.2561 C   0  0  2  0  0  0  0  0  0  0  0  0
   10.8596  -18.1520   25.8856 N   0  0  0  0  0  0  0  0  0  0  0  0
   11.1220  -18.9546   28.1414 C   0  0  0  0  0  0  0  0  0  0  0  0
   11.7575  -19.0915   29.2129 O   0  0  0  0  0  0  0  0  0  0  0  0
   10.2888  -20.0020   27.7945 O   0  0  0  0  0  0  0  0  0  0  0  0
  2  4  1  0
  2  1  1  6
  2  3  1  0
  5  4  1  0
  5  6  1  6
  7  5  1  0
  8  7  2  0
  9  7  1  0
 10  9  1  0
 10 11  1  6
 12 11  1  0
 13 12  1  0
 13 14  2  0
 15 10  1  0
 15 24  1  0
 16 15  2  0
 17 13  1  0
 19 18  1  0
 20 19  2  0
 21 19  1  0
 22 21  1  0
 23 22  1  1
 23 25  1  0
 23 24  1  0
 25 27  1  0
 26 25  2  0
M  END
$$$$
