QAH.pdb
     RDKit          3D

 25 25  0  0  1  0  0  0  0  0999 V2000
   23.7786  -20.2753   -9.5972 N   0  0  0  0  0  0  0  0  0  0  0  0
   24.9442  -20.6596   -8.9194 C   0  0  0  0  0  0  0  0  0  0  0  0
   24.8869  -20.9839   -7.7189 O   0  0  0  0  0  0  0  0  0  0  0  0
   26.2316  -20.6772   -9.6329 C   0  0  0  0  0  0  0  0  0  0  0  0
   26.0252  -20.1629  -11.0297 C   0  0  0  0  0  0  0  0  0  0  0  0
   25.1427  -21.0779  -11.8525 C   0  0  2  0  0  0  0  0  0  0  0  0
   25.6657  -22.4104  -11.8892 N   0  0  0  0  0  0  0  0  0  0  0  0
   25.0819  -20.4759  -13.2326 C   0  0  0  0  0  0  0  0  0  0  0  0
   24.8546  -19.2470  -13.3741 O   0  0  0  0  0  0  0  0  0  0  0  0
   25.9823  -21.4905  -16.6523 C   0  0  0  0  0  0  0  0  0  0  0  0
   25.1678  -20.6738  -15.6779 C   0  0  2  0  0  0  0  0  0  0  0  0
   25.2788  -21.2800  -14.3905 N   0  0  0  0  0  0  0  0  0  0  0  0
   23.7691  -20.4915  -16.1261 C   0  0  0  0  0  0  0  0  0  0  0  0
   22.9448  -21.4198  -15.9278 O   0  0  0  0  0  0  0  0  0  0  0  0
   23.3270  -19.3111  -16.7691 N   0  0  0  0  0  0  0  0  0  0  0  0
   21.9788  -19.1404  -17.2932 C   0  0  1  0  0  0  0  0  0  0  0  0
   21.3388  -18.0450  -16.5097 C   0  0  0  0  0  0  0  0  0  0  0  0
   20.9387  -18.4356  -15.1551 C   0  0  0  0  0  0  0  0  0  0  0  0
   21.1051  -19.7062  -14.6316 C   0  0  0  0  0  0  0  0  0  0  0  0
   20.6195  -19.6719  -13.3792 N   0  0  0  0  0  0  0  0  0  0  0  0
   20.1634  -18.4319  -13.1174 C   0  0  0  0  0  0  0  0  0  0  0  0
   20.3566  -17.6703  -14.2023 N   0  0  0  0  0  0  0  0  0  0  0  0
   21.9604  -18.9739  -18.7453 C   0  0  0  0  0  0  0  0  0  0  0  0
   23.0123  -18.7568  -19.3634 O   0  0  0  0  0  0  0  0  0  0  0  0
   20.7671  -19.0573  -19.4460 O   0  0  0  0  0  0  0  0  0  0  0  0
  2  1  1  0
  3  2  2  0
  4  2  1  0
  5  4  1  0
  6  8  1  0
  6  5  1  0
  6  7  1  6
  8  9  2  0
 11 10  1  6
 12 11  1  0
 12  8  1  0
 13 15  1  0
 13 11  1  0
 14 13  2  0
 16 17  1  1
 16 15  1  0
 17 18  1  0
 18 22  1  0
 19 20  1  0
 19 18  2  0
 20 21  1  0
 21 22  2  0
 23 16  1  0
 23 25  1  0
 24 23  2  0
M  END
$$$$
