QAH.pdb
     RDKit          3D

 25 25  0  0  1  0  0  0  0  0999 V2000
   18.6863  -14.2783  -16.1401 N   0  0  0  0  0  0  0  0  0  0  0  0
   18.2181  -13.6714  -17.3141 C   0  0  0  0  0  0  0  0  0  0  0  0
   17.6554  -14.3579  -18.1869 O   0  0  0  0  0  0  0  0  0  0  0  0
   18.3950  -12.2230  -17.5079 C   0  0  0  0  0  0  0  0  0  0  0  0
   19.1327  -11.6568  -16.3275 C   0  0  0  0  0  0  0  0  0  0  0  0
   18.3666  -10.5358  -15.6571 C   0  0  2  0  0  0  0  0  0  0  0  0
   16.9725  -10.5932  -15.9790 N   0  0  0  0  0  0  0  0  0  0  0  0
   18.9878   -9.2515  -16.1423 C   0  0  0  0  0  0  0  0  0  0  0  0
   20.2393   -9.1389  -16.1974 O   0  0  0  0  0  0  0  0  0  0  0  0
   17.7674   -6.1178  -17.7036 C   0  0  0  0  0  0  0  0  0  0  0  0
   18.8105   -6.9632  -17.0130 C   0  0  2  0  0  0  0  0  0  0  0  0
   18.1767   -8.1528  -16.5434 N   0  0  0  0  0  0  0  0  0  0  0  0
   19.5285   -6.2193  -15.9540 C   0  0  0  0  0  0  0  0  0  0  0  0
   19.0203   -6.1607  -14.8056 O   0  0  0  0  0  0  0  0  0  0  0  0
   20.7650   -5.5723  -16.1877 N   0  0  0  0  0  0  0  0  0  0  0  0
   21.5117   -4.8716  -15.1519 C   0  0  1  0  0  0  0  0  0  0  0  0
   22.8612   -5.5019  -15.0812 C   0  0  0  0  0  0  0  0  0  0  0  0
   22.8398   -6.9161  -14.6976 C   0  0  0  0  0  0  0  0  0  0  0  0
   21.9548   -7.4597  -13.7825 C   0  0  0  0  0  0  0  0  0  0  0  0
   22.2466   -8.7686  -13.6974 N   0  0  0  0  0  0  0  0  0  0  0  0
   23.2736   -9.0456  -14.5235 C   0  0  0  0  0  0  0  0  0  0  0  0
   23.6410   -7.9139  -15.1388 N   0  0  0  0  0  0  0  0  0  0  0  0
   21.4994   -3.4218  -15.3376 C   0  0  0  0  0  0  0  0  0  0  0  0
   21.0366   -2.9281  -16.3758 O   0  0  0  0  0  0  0  0  0  0  0  0
   22.0046   -2.5843  -14.3552 O   0  0  0  0  0  0  0  0  0  0  0  0
  2  1  1  0
  3  2  2  0
  4  2  1  0
  5  4  1  0
  6  8  1  0
  6  5  1  0
  6  7  1  6
  8  9  2  0
 11 10  1  1
 12 11  1  0
 12  8  1  0
 13 15  1  0
 13 11  1  0
 14 13  2  0
 16 17  1  6
 16 15  1  0
 17 18  1  0
 18 22  1  0
 19 20  1  0
 19 18  2  0
 20 21  1  0
 21 22  2  0
 23 16  1  0
 23 25  1  0
 24 23  2  0
M  END
$$$$
