QAH.pdb
     RDKit          3D

 25 25  0  0  1  0  0  0  0  0999 V2000
   16.1560  -13.7261  -14.5408 N   0  0  0  0  0  0  0  0  0  0  0  0
   16.0787  -15.0459  -15.0074 C   0  0  0  0  0  0  0  0  0  0  0  0
   15.0545  -15.7210  -14.7958 O   0  0  0  0  0  0  0  0  0  0  0  0
   17.2115  -15.6266  -15.7465 C   0  0  0  0  0  0  0  0  0  0  0  0
   18.3106  -14.6063  -15.8401 C   0  0  0  0  0  0  0  0  0  0  0  0
   19.5044  -15.1197  -16.6175 C   0  0  2  0  0  0  0  0  0  0  0  0
   20.1874  -16.1534  -15.8995 N   0  0  0  0  0  0  0  0  0  0  0  0
   20.4002  -13.9303  -16.8487 C   0  0  0  0  0  0  0  0  0  0  0  0
   21.2863  -13.6361  -16.0060 O   0  0  0  0  0  0  0  0  0  0  0  0
   21.1487  -11.6405  -19.6459 C   0  0  0  0  0  0  0  0  0  0  0  0
   21.1175  -11.9957  -18.1787 C   0  0  2  0  0  0  0  0  0  0  0  0
   20.2609  -13.1256  -18.0145 N   0  0  0  0  0  0  0  0  0  0  0  0
   20.7449  -10.8437  -17.3275 C   0  0  0  0  0  0  0  0  0  0  0  0
   19.5349  -10.6791  -17.0286 O   0  0  0  0  0  0  0  0  0  0  0  0
   21.7008   -9.9220  -16.8387 N   0  0  0  0  0  0  0  0  0  0  0  0
   21.3482   -8.7159  -16.1022 C   0  0  1  0  0  0  0  0  0  0  0  0
   22.6245   -8.0685  -15.6834 C   0  0  0  0  0  0  0  0  0  0  0  0
   22.4455   -6.7887  -14.9923 C   0  0  0  0  0  0  0  0  0  0  0  0
   21.6165   -6.6051  -13.8992 C   0  0  0  0  0  0  0  0  0  0  0  0
   21.7183   -5.3105  -13.5536 N   0  0  0  0  0  0  0  0  0  0  0  0
   22.5758   -4.6969  -14.3915 C   0  0  0  0  0  0  0  0  0  0  0  0
   23.0244   -5.5982  -15.2752 N   0  0  0  0  0  0  0  0  0  0  0  0
   20.4179   -7.8626  -16.8390 C   0  0  0  0  0  0  0  0  0  0  0  0
   19.3618   -7.4865  -16.3108 O   0  0  0  0  0  0  0  0  0  0  0  0
   20.7067   -7.4652  -18.1353 O   0  0  0  0  0  0  0  0  0  0  0  0
  2  1  1  0
  3  2  2  0
  4  2  1  0
  5  4  1  0
  6  8  1  0
  6  5  1  0
  6  7  1  1
  8  9  2  0
 11 10  1  6
 12 11  1  0
 12  8  1  0
 13 15  1  0
 13 11  1  0
 14 13  2  0
 16 17  1  6
 16 15  1  0
 17 18  1  0
 18 22  1  0
 19 20  1  0
 19 18  2  0
 20 21  1  0
 21 22  2  0
 23 16  1  0
 23 25  1  0
 24 23  2  0
M  END
$$$$
