QAH.pdb
     RDKit          3D

 25 25  0  0  1  0  0  0  0  0999 V2000
   23.4255  -32.1951   -6.9242 N   0  0  0  0  0  0  0  0  0  0  0  0
   23.9306  -32.3026   -8.2277 C   0  0  0  0  0  0  0  0  0  0  0  0
   23.1638  -32.1945   -9.2023 O   0  0  0  0  0  0  0  0  0  0  0  0
   25.3678  -32.5431   -8.4364 C   0  0  0  0  0  0  0  0  0  0  0  0
   26.0464  -32.6487   -7.0999 C   0  0  0  0  0  0  0  0  0  0  0  0
   27.0061  -33.8182   -7.0354 C   0  0  2  0  0  0  0  0  0  0  0  0
   26.8961  -34.6462   -8.1985 N   0  0  0  0  0  0  0  0  0  0  0  0
   26.6561  -34.5823   -5.7847 C   0  0  0  0  0  0  0  0  0  0  0  0
   26.1475  -35.7295   -5.8692 O   0  0  0  0  0  0  0  0  0  0  0  0
   27.7864  -35.9937   -3.5077 C   0  0  0  0  0  0  0  0  0  0  0  0
   26.7915  -34.8689   -3.3504 C   0  0  2  0  0  0  0  0  0  0  0  0
   26.8927  -34.0244   -4.4967 N   0  0  0  0  0  0  0  0  0  0  0  0
   26.9546  -34.1469   -2.0689 C   0  0  0  0  0  0  0  0  0  0  0  0
   28.0183  -33.5082   -1.8658 O   0  0  0  0  0  0  0  0  0  0  0  0
   25.9573  -34.1498   -1.0650 N   0  0  0  0  0  0  0  0  0  0  0  0
   26.0782  -33.4162    0.1874 C   0  0  1  0  0  0  0  0  0  0  0  0
   24.6945  -33.1497    0.6752 C   0  0  0  0  0  0  0  0  0  0  0  0
   24.6395  -32.4933    1.9843 C   0  0  0  0  0  0  0  0  0  0  0  0
   24.5443  -31.1241    2.1637 C   0  0  0  0  0  0  0  0  0  0  0  0
   24.5217  -30.9116    3.4904 N   0  0  0  0  0  0  0  0  0  0  0  0
   24.5993  -32.0956    4.1276 C   0  0  0  0  0  0  0  0  0  0  0  0
   24.6717  -33.0683    3.2094 N   0  0  0  0  0  0  0  0  0  0  0  0
   26.9682  -34.0781    1.1395 C   0  0  0  0  0  0  0  0  0  0  0  0
   27.0101  -35.3152    1.2005 O   0  0  0  0  0  0  0  0  0  0  0  0
   27.7743  -33.3300    1.9834 O   0  0  0  0  0  0  0  0  0  0  0  0
  2  1  1  0
  3  2  2  0
  4  2  1  0
  5  4  1  0
  6  8  1  0
  6  5  1  0
  6  7  1  6
  8  9  2  0
 11 10  1  6
 12 11  1  0
 12  8  1  0
 13 15  1  0
 13 11  1  0
 14 13  2  0
 16 17  1  1
 16 15  1  0
 17 18  1  0
 18 22  1  0
 19 20  1  0
 19 18  2  0
 20 21  1  0
 21 22  2  0
 23 16  1  0
 23 25  1  0
 24 23  2  0
M  END
$$$$
