QAH.pdb
     RDKit          3D

 25 25  0  0  1  0  0  0  0  0999 V2000
   17.2764  -15.2367  -14.7243 N   0  0  0  0  0  0  0  0  0  0  0  0
   17.3974  -16.1081  -15.8159 C   0  0  0  0  0  0  0  0  0  0  0  0
   17.0359  -17.2943  -15.7075 O   0  0  0  0  0  0  0  0  0  0  0  0
   17.9526  -15.6139  -17.0866 C   0  0  0  0  0  0  0  0  0  0  0  0
   18.2668  -14.1510  -16.9484 C   0  0  0  0  0  0  0  0  0  0  0  0
   19.7355  -13.8570  -17.1707 C   0  0  2  0  0  0  0  0  0  0  0  0
   20.5568  -14.5848  -16.2507 N   0  0  0  0  0  0  0  0  0  0  0  0
   19.8995  -12.3697  -16.9921 C   0  0  0  0  0  0  0  0  0  0  0  0
   19.7504  -11.8517  -15.8558 O   0  0  0  0  0  0  0  0  0  0  0  0
   21.0476   -9.5410  -19.1019 C   0  0  0  0  0  0  0  0  0  0  0  0
   20.4037  -10.1341  -17.8717 C   0  0  2  0  0  0  0  0  0  0  0  0
   20.2231  -11.5320  -18.0965 N   0  0  0  0  0  0  0  0  0  0  0  0
   19.1576   -9.4311  -17.4930 C   0  0  0  0  0  0  0  0  0  0  0  0
   18.0565  -10.0067  -17.6846 O   0  0  0  0  0  0  0  0  0  0  0  0
   19.1613   -8.1357  -16.9236 N   0  0  0  0  0  0  0  0  0  0  0  0
   17.9475   -7.3942  -16.6100 C   0  0  1  0  0  0  0  0  0  0  0  0
   17.0814   -8.2945  -15.7959 C   0  0  0  0  0  0  0  0  0  0  0  0
   15.8801   -7.6455  -15.2635 C   0  0  0  0  0  0  0  0  0  0  0  0
   15.0104   -6.8796  -16.0205 C   0  0  0  0  0  0  0  0  0  0  0  0
   14.0438   -6.4598  -15.1868 N   0  0  0  0  0  0  0  0  0  0  0  0
   14.2886   -6.9384  -13.9519 C   0  0  0  0  0  0  0  0  0  0  0  0
   15.4127   -7.6657  -13.9933 N   0  0  0  0  0  0  0  0  0  0  0  0
   18.2278   -6.0852  -16.0232 C   0  0  0  0  0  0  0  0  0  0  0  0
   17.2978   -5.3340  -15.6968 O   0  0  0  0  0  0  0  0  0  0  0  0
   19.5357   -5.6704  -15.8255 O   0  0  0  0  0  0  0  0  0  0  0  0
  2  1  1  0
  3  2  2  0
  4  2  1  0
  5  4  1  0
  6  8  1  0
  6  5  1  0
  6  7  1  1
  8  9  2  0
 11 10  1  6
 12 11  1  0
 12  8  1  0
 13 15  1  0
 13 11  1  0
 14 13  2  0
 16 17  1  1
 16 15  1  0
 17 18  1  0
 18 22  1  0
 19 20  1  0
 19 18  2  0
 20 21  1  0
 21 22  2  0
 23 16  1  0
 23 25  1  0
 24 23  2  0
M  END
$$$$
