QAH.pdb
     RDKit          3D

 25 25  0  0  1  0  0  0  0  0999 V2000
   22.6210  -32.0551  -12.7507 N   0  0  0  0  0  0  0  0  0  0  0  0
   22.1317  -32.9463  -13.7162 C   0  0  0  0  0  0  0  0  0  0  0  0
   21.3086  -32.5541  -14.5638 O   0  0  0  0  0  0  0  0  0  0  0  0
   22.5953  -34.3434  -13.7219 C   0  0  0  0  0  0  0  0  0  0  0  0
   23.5269  -34.5556  -12.5622 C   0  0  0  0  0  0  0  0  0  0  0  0
   24.8898  -33.9408  -12.8022 C   0  0  2  0  0  0  0  0  0  0  0  0
   25.7383  -34.8279  -13.5395 N   0  0  0  0  0  0  0  0  0  0  0  0
   25.4626  -33.6410  -11.4410 C   0  0  0  0  0  0  0  0  0  0  0  0
   26.3671  -34.3728  -10.9634 O   0  0  0  0  0  0  0  0  0  0  0  0
   25.2574  -30.8158   -9.0556 C   0  0  0  0  0  0  0  0  0  0  0  0
   25.6432  -32.2224   -9.4458 C   0  0  2  0  0  0  0  0  0  0  0  0
   24.9945  -32.5340  -10.6784 N   0  0  0  0  0  0  0  0  0  0  0  0
   25.3688  -33.2013   -8.3702 C   0  0  0  0  0  0  0  0  0  0  0  0
   24.2107  -33.6798   -8.2692 O   0  0  0  0  0  0  0  0  0  0  0  0
   26.3623  -33.6173   -7.4525 N   0  0  0  0  0  0  0  0  0  0  0  0
   26.0885  -34.4779   -6.3098 C   0  0  1  0  0  0  0  0  0  0  0  0
   27.4005  -34.9951   -5.8255 C   0  0  0  0  0  0  0  0  0  0  0  0
   27.2956  -35.9267   -4.6991 C   0  0  0  0  0  0  0  0  0  0  0  0
   26.1003  -36.3052   -4.1126 C   0  0  0  0  0  0  0  0  0  0  0  0
   26.4120  -37.1589   -3.1228 N   0  0  0  0  0  0  0  0  0  0  0  0
   27.7489  -37.3165   -3.0816 C   0  0  0  0  0  0  0  0  0  0  0  0
   28.2953  -36.5636   -4.0455 N   0  0  0  0  0  0  0  0  0  0  0  0
   25.2560  -33.8225   -5.3029 C   0  0  0  0  0  0  0  0  0  0  0  0
   24.6510  -34.4960   -4.4568 O   0  0  0  0  0  0  0  0  0  0  0  0
   25.1346  -32.4417   -5.2836 O   0  0  0  0  0  0  0  0  0  0  0  0
  2  1  1  0
  3  2  2  0
  4  2  1  0
  5  4  1  0
  6  8  1  0
  6  5  1  0
  6  7  1  1
  8  9  2  0
 11 10  1  1
 12 11  1  0
 12  8  1  0
 13 15  1  0
 13 11  1  0
 14 13  2  0
 16 17  1  1
 16 15  1  0
 17 18  1  0
 18 22  1  0
 19 20  1  0
 19 18  2  0
 20 21  1  0
 21 22  2  0
 23 16  1  0
 23 25  1  0
 24 23  2  0
M  END
$$$$
