QAH.pdb
     RDKit          3D

 25 25  0  0  1  0  0  0  0  0999 V2000
   15.3738  -14.9830  -10.6324 N   0  0  0  0  0  0  0  0  0  0  0  0
   15.6330  -15.5935  -11.8676 C   0  0  0  0  0  0  0  0  0  0  0  0
   15.6511  -16.8351  -11.9557 O   0  0  0  0  0  0  0  0  0  0  0  0
   15.8827  -14.7608  -13.0556 C   0  0  0  0  0  0  0  0  0  0  0  0
   15.8156  -13.3122  -12.6619 C   0  0  0  0  0  0  0  0  0  0  0  0
   14.3900  -12.8267  -12.5044 C   0  0  2  0  0  0  0  0  0  0  0  0
   13.6388  -13.0190  -13.7082 N   0  0  0  0  0  0  0  0  0  0  0  0
   14.4794  -11.3666  -12.1426 C   0  0  0  0  0  0  0  0  0  0  0  0
   14.7562  -10.5149  -13.0256 O   0  0  0  0  0  0  0  0  0  0  0  0
   13.6661   -9.2752   -9.2027 C   0  0  0  0  0  0  0  0  0  0  0  0
   14.3814   -9.5398  -10.5058 C   0  0  2  0  0  0  0  0  0  0  0  0
   14.2543  -10.9292  -10.8069 N   0  0  0  0  0  0  0  0  0  0  0  0
   15.7833   -9.0658  -10.4857 C   0  0  0  0  0  0  0  0  0  0  0  0
   16.6959   -9.8629  -10.8211 O   0  0  0  0  0  0  0  0  0  0  0  0
   16.1329   -7.7492  -10.1031 N   0  0  0  0  0  0  0  0  0  0  0  0
   17.4930   -7.2314  -10.1620 C   0  0  1  0  0  0  0  0  0  0  0  0
   17.9814   -7.4386  -11.5555 C   0  0  0  0  0  0  0  0  0  0  0  0
   19.3170   -6.8904  -11.8073 C   0  0  0  0  0  0  0  0  0  0  0  0
   20.1922   -6.4888  -10.8129 C   0  0  0  0  0  0  0  0  0  0  0  0
   21.2999   -6.0469  -11.4322 N   0  0  0  0  0  0  0  0  0  0  0  0
   21.1359   -6.1626  -12.7640 C   0  0  0  0  0  0  0  0  0  0  0  0
   19.9225   -6.6790  -12.9994 N   0  0  0  0  0  0  0  0  0  0  0  0
   17.5937   -5.8650   -9.6528 C   0  0  0  0  0  0  0  0  0  0  0  0
   16.7678   -5.0072   -9.9960 O   0  0  0  0  0  0  0  0  0  0  0  0
   18.6130   -5.5143   -8.7811 O   0  0  0  0  0  0  0  0  0  0  0  0
  2  1  1  0
  3  2  2  0
  4  2  1  0
  5  4  1  0
  6  8  1  0
  6  5  1  0
  6  7  1  6
  8  9  2  0
 11 10  1  1
 12 11  1  0
 12  8  1  0
 13 15  1  0
 13 11  1  0
 14 13  2  0
 16 17  1  6
 16 15  1  0
 17 18  1  0
 18 22  1  0
 19 20  1  0
 19 18  2  0
 20 21  1  0
 21 22  2  0
 23 16  1  0
 23 25  1  0
 24 23  2  0
M  END
$$$$
