QAH.pdb
     RDKit          3D

 25 25  0  0  1  0  0  0  0  0999 V2000
   16.4710  -13.6741  -17.5102 N   0  0  0  0  0  0  0  0  0  0  0  0
   16.9472  -14.9757  -17.2988 C   0  0  0  0  0  0  0  0  0  0  0  0
   16.1596  -15.9391  -17.3335 O   0  0  0  0  0  0  0  0  0  0  0  0
   18.3788  -15.1958  -17.0363 C   0  0  0  0  0  0  0  0  0  0  0  0
   19.0933  -13.8745  -17.0754 C   0  0  0  0  0  0  0  0  0  0  0  0
   19.7819  -13.6347  -18.4026 C   0  0  2  0  0  0  0  0  0  0  0  0
   20.8421  -14.5733  -18.6158 N   0  0  0  0  0  0  0  0  0  0  0  0
   20.3030  -12.2214  -18.3578 C   0  0  0  0  0  0  0  0  0  0  0  0
   21.4296  -11.9814  -17.8527 O   0  0  0  0  0  0  0  0  0  0  0  0
   19.4455   -9.0350  -19.9793 C   0  0  0  0  0  0  0  0  0  0  0  0
   20.0982   -9.8304  -18.8743 C   0  0  2  0  0  0  0  0  0  0  0  0
   19.5365  -11.1425  -18.8818 N   0  0  0  0  0  0  0  0  0  0  0  0
   20.0025   -9.1547  -17.5610 C   0  0  0  0  0  0  0  0  0  0  0  0
   19.0771   -9.4852  -16.7769 O   0  0  0  0  0  0  0  0  0  0  0  0
   20.9144   -8.1510  -17.1569 N   0  0  0  0  0  0  0  0  0  0  0  0
   20.8594   -7.4933  -15.8585 C   0  0  1  0  0  0  0  0  0  0  0  0
   22.2229   -7.5849  -15.2620 C   0  0  0  0  0  0  0  0  0  0  0  0
   22.6011   -8.9373  -14.8428 C   0  0  0  0  0  0  0  0  0  0  0  0
   21.7441  -10.0242  -14.8597 C   0  0  0  0  0  0  0  0  0  0  0  0
   22.4483  -11.0751  -14.4067 N   0  0  0  0  0  0  0  0  0  0  0  0
   23.7001  -10.6735  -14.1142 C   0  0  0  0  0  0  0  0  0  0  0  0
   23.7992   -9.3643  -14.3796 N   0  0  0  0  0  0  0  0  0  0  0  0
   20.2919   -6.1485  -15.9365 C   0  0  0  0  0  0  0  0  0  0  0  0
   20.1627   -5.5869  -17.0336 O   0  0  0  0  0  0  0  0  0  0  0  0
   19.8924   -5.4876  -14.7853 O   0  0  0  0  0  0  0  0  0  0  0  0
  2  1  1  0
  3  2  2  0
  4  2  1  0
  5  4  1  0
  6  8  1  0
  6  5  1  0
  6  7  1  1
  8  9  2  0
 11 10  1  6
 12 11  1  0
 12  8  1  0
 13 15  1  0
 13 11  1  0
 14 13  2  0
 16 17  1  6
 16 15  1  0
 17 18  1  0
 18 22  1  0
 19 20  1  0
 19 18  2  0
 20 21  1  0
 21 22  2  0
 23 16  1  0
 23 25  1  0
 24 23  2  0
M  END
$$$$
