QAH.pdb
     RDKit          3D

 25 25  0  0  1  0  0  0  0  0999 V2000
    9.7624  -10.8649  -10.3269 N   0  0  0  0  0  0  0  0  0  0  0  0
    9.2359  -12.0200  -10.9221 C   0  0  0  0  0  0  0  0  0  0  0  0
    8.1030  -12.4236  -10.6010 O   0  0  0  0  0  0  0  0  0  0  0  0
   10.0278  -12.7503  -11.9254 C   0  0  0  0  0  0  0  0  0  0  0  0
   11.3194  -12.0185  -12.1581 C   0  0  0  0  0  0  0  0  0  0  0  0
   12.1829  -12.6975  -13.2004 C   0  0  2  0  0  0  0  0  0  0  0  0
   12.5071  -14.0378  -12.8144 N   0  0  0  0  0  0  0  0  0  0  0  0
   13.4229  -11.8521  -13.3363 C   0  0  0  0  0  0  0  0  0  0  0  0
   14.3775  -12.0003  -12.5309 O   0  0  0  0  0  0  0  0  0  0  0  0
   14.8351   -9.5144  -15.8191 C   0  0  0  0  0  0  0  0  0  0  0  0
   14.6981  -10.0534  -14.4154 C   0  0  2  0  0  0  0  0  0  0  0  0
   13.5350  -10.8795  -14.3695 N   0  0  0  0  0  0  0  0  0  0  0  0
   14.7006   -8.9800  -13.3965 C   0  0  0  0  0  0  0  0  0  0  0  0
   13.6075   -8.4475  -13.0765 O   0  0  0  0  0  0  0  0  0  0  0  0
   15.8878   -8.5321  -12.7703 N   0  0  0  0  0  0  0  0  0  0  0  0
   15.9369   -7.3886  -11.8695 C   0  0  1  0  0  0  0  0  0  0  0  0
   16.1280   -7.9239  -10.4909 C   0  0  0  0  0  0  0  0  0  0  0  0
   16.2801   -6.8887   -9.4648 C   0  0  0  0  0  0  0  0  0  0  0  0
   16.2627   -5.5291   -9.7240 C   0  0  0  0  0  0  0  0  0  0  0  0
   16.4325   -4.9111   -8.5430 N   0  0  0  0  0  0  0  0  0  0  0  0
   16.5528   -5.8385   -7.5737 C   0  0  0  0  0  0  0  0  0  0  0  0
   16.4601   -7.0521   -8.1331 N   0  0  0  0  0  0  0  0  0  0  0  0
   16.9058   -6.3812  -12.2971 C   0  0  0  0  0  0  0  0  0  0  0  0
   17.9237   -6.7167  -12.9192 O   0  0  0  0  0  0  0  0  0  0  0  0
   16.6967   -5.0408  -12.0117 O   0  0  0  0  0  0  0  0  0  0  0  0
  2  1  1  0
  3  2  2  0
  4  2  1  0
  5  4  1  0
  6  8  1  0
  6  5  1  0
  6  7  1  1
  8  9  2  0
 11 10  1  6
 12 11  1  0
 12  8  1  0
 13 15  1  0
 13 11  1  0
 14 13  2  0
 16 17  1  1
 16 15  1  0
 17 18  1  0
 18 22  1  0
 19 20  1  0
 19 18  2  0
 20 21  1  0
 21 22  2  0
 23 16  1  0
 23 25  1  0
 24 23  2  0
M  END
$$$$
