QAH.pdb
     RDKit          3D

 25 25  0  0  1  0  0  0  0  0999 V2000
   44.5857  -12.3368   -6.6970 N   0  0  0  0  0  0  0  0  0  0  0  0
   45.1520  -11.1372   -6.2430 C   0  0  0  0  0  0  0  0  0  0  0  0
   46.3612  -11.0923   -5.9507 O   0  0  0  0  0  0  0  0  0  0  0  0
   44.3116   -9.9356   -6.1146 C   0  0  0  0  0  0  0  0  0  0  0  0
   42.9039  -10.2767   -6.5143 C   0  0  0  0  0  0  0  0  0  0  0  0
   42.6037   -9.8846   -7.9458 C   0  0  2  0  0  0  0  0  0  0  0  0
   43.3012   -8.6898   -8.3151 N   0  0  0  0  0  0  0  0  0  0  0  0
   41.1111   -9.6940   -8.0266 C   0  0  0  0  0  0  0  0  0  0  0  0
   40.3380  -10.6285   -7.6937 O   0  0  0  0  0  0  0  0  0  0  0  0
   38.6990   -6.9768   -8.5122 C   0  0  0  0  0  0  0  0  0  0  0  0
   39.1538   -8.3978   -8.7442 C   0  0  2  0  0  0  0  0  0  0  0  0
   40.5544   -8.4638   -8.4771 N   0  0  0  0  0  0  0  0  0  0  0  0
   38.7849   -8.8955  -10.0883 C   0  0  0  0  0  0  0  0  0  0  0  0
   37.5680   -9.0542  -10.3613 O   0  0  0  0  0  0  0  0  0  0  0  0
   39.7519   -9.1988  -11.0759 N   0  0  0  0  0  0  0  0  0  0  0  0
   39.4224   -9.7899  -12.3657 C   0  0  1  0  0  0  0  0  0  0  0  0
   39.5285   -8.7065  -13.3848 C   0  0  0  0  0  0  0  0  0  0  0  0
   38.4169   -7.7519  -13.3587 C   0  0  0  0  0  0  0  0  0  0  0  0
   37.1276   -8.0492  -13.7651 C   0  0  0  0  0  0  0  0  0  0  0  0
   36.4040   -6.9297  -13.5954 N   0  0  0  0  0  0  0  0  0  0  0  0
   37.1996   -5.9615  -13.1020 C   0  0  0  0  0  0  0  0  0  0  0  0
   38.4342   -6.4600  -12.9550 N   0  0  0  0  0  0  0  0  0  0  0  0
   40.1989  -10.9970  -12.6422 C   0  0  0  0  0  0  0  0  0  0  0  0
   41.3470  -11.1190  -12.1921 O   0  0  0  0  0  0  0  0  0  0  0  0
   39.6598  -12.0175  -13.4101 O   0  0  0  0  0  0  0  0  0  0  0  0
  2  1  1  0
  3  2  2  0
  4  2  1  0
  5  4  1  0
  6  8  1  0
  6  5  1  0
  6  7  1  1
  8  9  2  0
 11 10  1  6
 12 11  1  0
 12  8  1  0
 13 15  1  0
 13 11  1  0
 14 13  2  0
 16 17  1  6
 16 15  1  0
 17 18  1  0
 18 22  1  0
 19 20  1  0
 19 18  2  0
 20 21  1  0
 21 22  2  0
 23 16  1  0
 23 25  1  0
 24 23  2  0
M  END
$$$$
