EQF.pdb
     RDKit          3D

 30 30  0  0  1  0  0  0  0  0999 V2000
   14.9892   -3.7273  -18.2421 N   0  0  0  0  0  0  0  0  0  0  0  0
   16.2278   -3.6054  -18.9689 C   0  0  1  0  0  0  0  0  0  0  0  0
   16.9458   -2.3140  -18.7387 C   0  0  0  0  0  0  0  0  0  0  0  0
   17.1631   -1.9681  -17.3069 C   0  0  0  0  0  0  0  0  0  0  0  0
   18.6056   -2.0625  -16.9891 C   0  0  0  0  0  0  0  0  0  0  0  0
   18.9526   -2.1550  -15.7878 O   0  0  0  0  0  0  0  0  0  0  0  0
   17.0512   -4.7948  -18.6599 C   0  0  0  0  0  0  0  0  0  0  0  0
   16.8676   -5.3681  -17.5584 O   0  0  0  0  0  0  0  0  0  0  0  0
   19.5984   -2.0545  -17.9471 O   0  0  0  0  0  0  0  0  0  0  0  0
   21.2520   -8.1555  -22.1507 N   0  0  0  0  0  0  0  0  0  0  0  0
   21.0516   -8.9327  -20.9926 C   0  0  0  0  0  0  0  0  0  0  0  0
   21.5757  -10.0554  -20.8058 O   0  0  0  0  0  0  0  0  0  0  0  0
   20.1645   -8.3909  -19.9243 C   0  0  0  0  0  0  0  0  0  0  0  0
   19.6036   -7.0432  -20.3093 C   0  0  0  0  0  0  0  0  0  0  0  0
   18.7067   -6.5631  -19.1936 C   0  0  2  0  0  0  0  0  0  0  0  0
   18.0395   -5.3325  -19.5307 N   0  0  0  0  0  0  0  0  0  0  0  0
   19.5453   -6.4320  -17.9715 C   0  0  0  0  0  0  0  0  0  0  0  0
   20.0222   -5.3002  -17.7422 O   0  0  0  0  0  0  0  0  0  0  0  0
   19.7727   -7.5343  -17.1393 N   0  0  0  0  0  0  0  0  0  0  0  0
   20.5724   -7.5223  -15.9621 C   0  0  1  0  0  0  0  0  0  0  0  0
   19.8387   -6.9064  -14.7960 C   0  0  0  0  0  0  0  0  0  0  0  0
   20.5864   -7.1261  -13.5343 C   0  0  0  0  0  0  0  0  0  0  0  0
   21.5784   -6.2365  -13.1868 C   0  0  0  0  0  0  0  0  0  0  0  0
   22.2427   -6.4955  -11.9933 C   0  0  0  0  0  0  0  0  0  0  0  0
   21.9458   -7.5676  -11.1914 C   0  0  0  0  0  0  0  0  0  0  0  0
   20.9531   -8.4348  -11.5653 C   0  0  0  0  0  0  0  0  0  0  0  0
   20.2865   -8.2022  -12.7323 C   0  0  0  0  0  0  0  0  0  0  0  0
   21.0971   -8.8749  -15.5642 C   0  0  0  0  0  0  0  0  0  0  0  0
   20.5149   -9.9973  -16.1763 O   0  0  0  0  0  0  0  0  0  0  0  0
   21.9869   -9.0794  -14.7533 O   0  0  0  0  0  0  0  0  0  0  0  0
  2  1  1  1
  2  3  1  0
  3  4  1  0
  5  4  1  0
  5  6  2  0
  7  2  1  0
  7  8  2  0
  9  5  1  0
 10 11  1  0
 11 12  2  0
 11 13  1  0
 13 14  1  0
 15 14  1  6
 15 16  1  0
 16  7  1  0
 17 15  1  0
 18 17  2  0
 19 17  1  0
 20 28  1  0
 20 19  1  0
 21 22  1  0
 20 21  1  1
 22 23  2  0
 23 24  1  0
 25 24  2  0
 26 25  1  0
 27 22  1  0
 27 26  2  0
 28 29  1  0
 30 28  2  0
M  END
$$$$
