EQF.pdb
     RDKit          3D

 30 30  0  0  1  0  0  0  0  0999 V2000
   24.9003  -39.1911   -9.2205 N   0  0  0  0  0  0  0  0  0  0  0  0
   25.1626  -39.2766   -7.8059 C   0  0  1  0  0  0  0  0  0  0  0  0
   26.5585  -39.6934   -7.4683 C   0  0  0  0  0  0  0  0  0  0  0  0
   27.5981  -38.6600   -7.7291 C   0  0  0  0  0  0  0  0  0  0  0  0
   28.3607  -38.4017   -6.4871 C   0  0  0  0  0  0  0  0  0  0  0  0
   28.7529  -37.2340   -6.2532 O   0  0  0  0  0  0  0  0  0  0  0  0
   24.7747  -37.9859   -7.1962 C   0  0  0  0  0  0  0  0  0  0  0  0
   24.5683  -37.0119   -7.9607 O   0  0  0  0  0  0  0  0  0  0  0  0
   28.6671  -39.3805   -5.5643 O   0  0  0  0  0  0  0  0  0  0  0  0
   20.8182  -36.9862   -2.6160 N   0  0  0  0  0  0  0  0  0  0  0  0
   21.0289  -35.7016   -3.1555 C   0  0  0  0  0  0  0  0  0  0  0  0
   20.3597  -34.6917   -2.8358 O   0  0  0  0  0  0  0  0  0  0  0  0
   22.1107  -35.5299   -4.1664 C   0  0  0  0  0  0  0  0  0  0  0  0
   22.7945  -36.8422   -4.4652 C   0  0  0  0  0  0  0  0  0  0  0  0
   24.0128  -36.5635   -5.3125 C   0  0  2  0  0  0  0  0  0  0  0  0
   24.6201  -37.7755   -5.7977 N   0  0  0  0  0  0  0  0  0  0  0  0
   24.9522  -35.7532   -4.4909 C   0  0  0  0  0  0  0  0  0  0  0  0
   25.7684  -36.3880   -3.7896 O   0  0  0  0  0  0  0  0  0  0  0  0
   24.9033  -34.3547   -4.5202 N   0  0  0  0  0  0  0  0  0  0  0  0
   25.8219  -33.4877   -3.8642 C   0  0  1  0  0  0  0  0  0  0  0  0
   25.8587  -32.1238   -4.5089 C   0  0  0  0  0  0  0  0  0  0  0  0
   26.1228  -32.2412   -5.9635 C   0  0  0  0  0  0  0  0  0  0  0  0
   27.3346  -32.7458   -6.3797 C   0  0  0  0  0  0  0  0  0  0  0  0
   27.5226  -32.8317   -7.7545 C   0  0  0  0  0  0  0  0  0  0  0  0
   26.5721  -32.4432   -8.6634 C   0  0  0  0  0  0  0  0  0  0  0  0
   25.3763  -31.9451   -8.2172 C   0  0  0  0  0  0  0  0  0  0  0  0
   25.1677  -31.8507   -6.8725 C   0  0  0  0  0  0  0  0  0  0  0  0
   25.5740  -33.3361   -2.3883 C   0  0  0  0  0  0  0  0  0  0  0  0
   26.4905  -32.5622   -1.6572 O   0  0  0  0  0  0  0  0  0  0  0  0
   24.6426  -33.8295   -1.7717 O   0  0  0  0  0  0  0  0  0  0  0  0
  2  1  1  6
  2  3  1  0
  3  4  1  0
  5  4  1  0
  5  6  2  0
  7  2  1  0
  7  8  2  0
  9  5  1  0
 10 11  1  0
 11 12  2  0
 11 13  1  0
 13 14  1  0
 15 14  1  1
 15 16  1  0
 16  7  1  0
 17 15  1  0
 18 17  2  0
 19 17  1  0
 20 28  1  0
 20 19  1  0
 21 22  1  0
 20 21  1  6
 22 23  2  0
 23 24  1  0
 25 24  2  0
 26 25  1  0
 27 22  1  0
 27 26  2  0
 28 29  1  0
 30 28  2  0
M  END
$$$$
