EQF.pdb
     RDKit          3D

 30 30  0  0  1  0  0  0  0  0999 V2000
   25.9936  -18.8269  -16.1400 N   0  0  0  0  0  0  0  0  0  0  0  0
   26.9506  -19.1999  -15.1289 C   0  0  1  0  0  0  0  0  0  0  0  0
   28.1457  -18.3037  -15.0596 C   0  0  0  0  0  0  0  0  0  0  0  0
   29.2379  -18.6462  -16.0117 C   0  0  0  0  0  0  0  0  0  0  0  0
   28.9992  -17.9645  -17.3036 C   0  0  0  0  0  0  0  0  0  0  0  0
   28.7549  -18.6621  -18.3164 O   0  0  0  0  0  0  0  0  0  0  0  0
   26.2281  -19.3107  -13.8429 C   0  0  0  0  0  0  0  0  0  0  0  0
   25.5343  -18.3330  -13.4710 O   0  0  0  0  0  0  0  0  0  0  0  0
   29.0305  -16.5939  -17.4584 O   0  0  0  0  0  0  0  0  0  0  0  0
   21.8290  -21.0866  -12.4871 N   0  0  0  0  0  0  0  0  0  0  0  0
   22.0977  -21.0321  -11.1050 C   0  0  0  0  0  0  0  0  0  0  0  0
   21.2336  -20.7729  -10.2354 O   0  0  0  0  0  0  0  0  0  0  0  0
   23.4907  -21.2978  -10.6462 C   0  0  0  0  0  0  0  0  0  0  0  0
   24.4177  -21.5293  -11.8150 C   0  0  0  0  0  0  0  0  0  0  0  0
   25.5024  -20.4797  -11.7791 C   0  0  2  0  0  0  0  0  0  0  0  0
   26.2683  -20.4547  -12.9981 N   0  0  0  0  0  0  0  0  0  0  0  0
   26.3501  -20.7542  -10.5874 C   0  0  0  0  0  0  0  0  0  0  0  0
   27.3840  -21.4278  -10.7829 O   0  0  0  0  0  0  0  0  0  0  0  0
   25.9860  -20.2717   -9.3250 N   0  0  0  0  0  0  0  0  0  0  0  0
   26.7048  -20.5047   -8.1189 C   0  0  1  0  0  0  0  0  0  0  0  0
   27.5959  -19.3388   -7.7669 C   0  0  0  0  0  0  0  0  0  0  0  0
   28.3128  -19.5957   -6.4944 C   0  0  0  0  0  0  0  0  0  0  0  0
   27.8630  -18.9866   -5.3442 C   0  0  0  0  0  0  0  0  0  0  0  0
   28.5759  -19.2667   -4.1839 C   0  0  0  0  0  0  0  0  0  0  0  0
   29.6665  -20.0977   -4.1604 C   0  0  0  0  0  0  0  0  0  0  0  0
   30.0891  -20.6885   -5.3221 C   0  0  0  0  0  0  0  0  0  0  0  0
   29.4062  -20.4294   -6.4740 C   0  0  0  0  0  0  0  0  0  0  0  0
   25.8319  -20.8400   -6.9405 C   0  0  0  0  0  0  0  0  0  0  0  0
   26.3908  -21.6433   -5.9326 O   0  0  0  0  0  0  0  0  0  0  0  0
   24.6777  -20.4726   -6.7863 O   0  0  0  0  0  0  0  0  0  0  0  0
  2  1  1  6
  2  3  1  0
  3  4  1  0
  5  4  1  0
  5  6  2  0
  7  2  1  0
  7  8  2  0
  9  5  1  0
 10 11  1  0
 11 12  2  0
 11 13  1  0
 13 14  1  0
 15 14  1  6
 15 16  1  0
 16  7  1  0
 17 15  1  0
 18 17  2  0
 19 17  1  0
 20 28  1  0
 20 19  1  0
 21 22  1  0
 20 21  1  1
 22 23  2  0
 23 24  1  0
 25 24  2  0
 26 25  1  0
 27 22  1  0
 27 26  2  0
 28 29  1  0
 30 28  2  0
M  END
$$$$
