EQF.pdb
     RDKit          3D

 30 30  0  0  1  0  0  0  0  0999 V2000
   17.9188  -13.3200  -15.8639 N   0  0  0  0  0  0  0  0  0  0  0  0
   17.5250  -12.1552  -16.6160 C   0  0  1  0  0  0  0  0  0  0  0  0
   16.1595  -11.6457  -16.2812 C   0  0  0  0  0  0  0  0  0  0  0  0
   15.9726  -11.2522  -14.8575 C   0  0  0  0  0  0  0  0  0  0  0  0
   14.6205  -10.6778  -14.6770 C   0  0  0  0  0  0  0  0  0  0  0  0
   14.2666  -10.3204  -13.5285 O   0  0  0  0  0  0  0  0  0  0  0  0
   18.5845  -11.1354  -16.4561 C   0  0  0  0  0  0  0  0  0  0  0  0
   19.4144  -11.2891  -15.5270 O   0  0  0  0  0  0  0  0  0  0  0  0
   13.7198  -10.5117  -15.7088 O   0  0  0  0  0  0  0  0  0  0  0  0
   18.7881   -7.9817  -20.7526 N   0  0  0  0  0  0  0  0  0  0  0  0
   19.7988   -8.9632  -20.7800 C   0  0  0  0  0  0  0  0  0  0  0  0
   20.0970   -9.6299  -21.7982 O   0  0  0  0  0  0  0  0  0  0  0  0
   20.5603   -9.2268  -19.5262 C   0  0  0  0  0  0  0  0  0  0  0  0
   20.1098   -8.3158  -18.4099 C   0  0  0  0  0  0  0  0  0  0  0  0
   19.8895   -9.1511  -17.1715 C   0  0  2  0  0  0  0  0  0  0  0  0
   18.7248   -9.9896  -17.2877 N   0  0  0  0  0  0  0  0  0  0  0  0
   19.7991   -8.2196  -16.0148 C   0  0  0  0  0  0  0  0  0  0  0  0
   18.6642   -7.7695  -15.7497 O   0  0  0  0  0  0  0  0  0  0  0  0
   20.9407   -7.8814  -15.2788 N   0  0  0  0  0  0  0  0  0  0  0  0
   20.9894   -6.9086  -14.2411 C   0  0  1  0  0  0  0  0  0  0  0  0
   22.2250   -7.0641  -13.3887 C   0  0  0  0  0  0  0  0  0  0  0  0
   23.4265   -7.2423  -14.2395 C   0  0  0  0  0  0  0  0  0  0  0  0
   24.0134   -6.1304  -14.8010 C   0  0  0  0  0  0  0  0  0  0  0  0
   25.1363   -6.3618  -15.5875 C   0  0  0  0  0  0  0  0  0  0  0  0
   25.6487   -7.6148  -15.8064 C   0  0  0  0  0  0  0  0  0  0  0  0
   25.0415   -8.7011  -15.2334 C   0  0  0  0  0  0  0  0  0  0  0  0
   23.9380   -8.5001  -14.4572 C   0  0  0  0  0  0  0  0  0  0  0  0
   20.8936   -5.4884  -14.7278 C   0  0  0  0  0  0  0  0  0  0  0  0
   20.6538   -4.4926  -13.7663 O   0  0  0  0  0  0  0  0  0  0  0  0
   21.0068   -5.1280  -15.8889 O   0  0  0  0  0  0  0  0  0  0  0  0
  2  1  1  1
  2  3  1  0
  3  4  1  0
  5  4  1  0
  5  6  2  0
  7  2  1  0
  7  8  2  0
  9  5  1  0
 10 11  1  0
 11 12  2  0
 11 13  1  0
 13 14  1  0
 15 14  1  6
 15 16  1  0
 16  7  1  0
 17 15  1  0
 18 17  2  0
 19 17  1  0
 20 28  1  0
 20 19  1  0
 21 22  1  0
 20 21  1  6
 22 23  2  0
 23 24  1  0
 25 24  2  0
 26 25  1  0
 27 22  1  0
 27 26  2  0
 28 29  1  0
 30 28  2  0
M  END
$$$$
