EQF.pdb
     RDKit          3D

 30 30  0  0  1  0  0  0  0  0999 V2000
   22.2116  -19.8879  -14.0090 N   0  0  0  0  0  0  0  0  0  0  0  0
   22.7781  -19.7929  -12.6872 C   0  0  1  0  0  0  0  0  0  0  0  0
   21.8836  -20.3012  -11.6019 C   0  0  0  0  0  0  0  0  0  0  0  0
   20.7604  -21.1589  -12.0704 C   0  0  0  0  0  0  0  0  0  0  0  0
   19.4760  -20.4602  -11.8407 C   0  0  0  0  0  0  0  0  0  0  0  0
   19.0450  -20.3628  -10.6673 O   0  0  0  0  0  0  0  0  0  0  0  0
   24.0997  -20.4569  -12.7139 C   0  0  0  0  0  0  0  0  0  0  0  0
   24.1539  -21.6447  -13.1159 O   0  0  0  0  0  0  0  0  0  0  0  0
   18.7196  -19.9054  -12.8524 O   0  0  0  0  0  0  0  0  0  0  0  0
   27.9819  -20.5668  -15.6011 N   0  0  0  0  0  0  0  0  0  0  0  0
   28.9477  -21.0326  -14.6868 C   0  0  0  0  0  0  0  0  0  0  0  0
   29.8799  -21.8120  -14.9926 O   0  0  0  0  0  0  0  0  0  0  0  0
   28.8586  -20.5733  -13.2716 C   0  0  0  0  0  0  0  0  0  0  0  0
   27.6426  -19.7059  -13.0527 C   0  0  0  0  0  0  0  0  0  0  0  0
   26.5611  -20.5503  -12.4225 C   0  0  2  0  0  0  0  0  0  0  0  0
   25.3156  -19.8364  -12.3130 N   0  0  0  0  0  0  0  0  0  0  0  0
   27.0657  -21.0078  -11.0996 C   0  0  0  0  0  0  0  0  0  0  0  0
   28.2609  -21.3689  -11.0541 O   0  0  0  0  0  0  0  0  0  0  0  0
   26.2251  -21.0231   -9.9805 N   0  0  0  0  0  0  0  0  0  0  0  0
   26.6587  -20.9409   -8.6275 C   0  0  1  0  0  0  0  0  0  0  0  0
   27.5610  -19.7524   -8.4024 C   0  0  0  0  0  0  0  0  0  0  0  0
   28.0164  -19.7028   -6.9920 C   0  0  0  0  0  0  0  0  0  0  0  0
   27.4920  -18.7404   -6.1583 C   0  0  0  0  0  0  0  0  0  0  0  0
   27.9576  -18.7451   -4.8483 C   0  0  0  0  0  0  0  0  0  0  0  0
   28.8846  -19.6453   -4.3891 C   0  0  0  0  0  0  0  0  0  0  0  0
   29.3872  -20.5908   -5.2438 C   0  0  0  0  0  0  0  0  0  0  0  0
   28.9461  -20.6068   -6.5344 C   0  0  0  0  0  0  0  0  0  0  0  0
   25.5372  -20.9136   -7.6253 C   0  0  0  0  0  0  0  0  0  0  0  0
   24.2537  -20.6006   -8.1031 O   0  0  0  0  0  0  0  0  0  0  0  0
   25.6485  -21.1408   -6.4307 O   0  0  0  0  0  0  0  0  0  0  0  0
  2  1  1  6
  2  3  1  0
  3  4  1  0
  5  4  1  0
  5  6  2  0
  7  2  1  0
  7  8  2  0
  9  5  1  0
 10 11  1  0
 11 12  2  0
 11 13  1  0
 13 14  1  0
 15 14  1  1
 15 16  1  0
 16  7  1  0
 17 15  1  0
 18 17  2  0
 19 17  1  0
 20 28  1  0
 20 19  1  0
 21 22  1  0
 20 21  1  6
 22 23  2  0
 23 24  1  0
 25 24  2  0
 26 25  1  0
 27 22  1  0
 27 26  2  0
 28 29  1  0
 30 28  2  0
M  END
$$$$
