EQF.pdb
     RDKit          3D

 30 30  0  0  1  0  0  0  0  0999 V2000
   14.7191   -9.9463  -14.5361 N   0  0  0  0  0  0  0  0  0  0  0  0
   15.1746   -8.9135  -15.4323 C   0  0  1  0  0  0  0  0  0  0  0  0
   14.2943   -7.7052  -15.4685 C   0  0  0  0  0  0  0  0  0  0  0  0
   12.9335   -7.9416  -16.0244 C   0  0  0  0  0  0  0  0  0  0  0  0
   12.1527   -6.6853  -15.9709 C   0  0  0  0  0  0  0  0  0  0  0  0
   10.9771   -6.7251  -15.5369 O   0  0  0  0  0  0  0  0  0  0  0  0
   16.5790   -8.6031  -15.0864 C   0  0  0  0  0  0  0  0  0  0  0  0
   16.8688   -8.4596  -13.8736 O   0  0  0  0  0  0  0  0  0  0  0  0
   12.6488   -5.4628  -16.3746 O   0  0  0  0  0  0  0  0  0  0  0  0
   21.9840  -10.4920  -17.4791 N   0  0  0  0  0  0  0  0  0  0  0  0
   22.3608   -9.7401  -16.3485 C   0  0  0  0  0  0  0  0  0  0  0  0
   23.5173   -9.7364  -15.8662 O   0  0  0  0  0  0  0  0  0  0  0  0
   21.3256   -8.8982  -15.6844 C   0  0  0  0  0  0  0  0  0  0  0  0
   19.9646   -9.1159  -16.3003 C   0  0  0  0  0  0  0  0  0  0  0  0
   18.9745   -8.2162  -15.6004 C   0  0  2  0  0  0  0  0  0  0  0  0
   17.6246   -8.4561  -16.0400 N   0  0  0  0  0  0  0  0  0  0  0  0
   19.4024   -6.8111  -15.8379 C   0  0  0  0  0  0  0  0  0  0  0  0
   19.1459   -6.3337  -16.9635 O   0  0  0  0  0  0  0  0  0  0  0  0
   20.0562   -6.0842  -14.8362 N   0  0  0  0  0  0  0  0  0  0  0  0
   20.5468   -4.7553  -14.9742 C   0  0  1  0  0  0  0  0  0  0  0  0
   20.3272   -3.9468  -13.7191 C   0  0  0  0  0  0  0  0  0  0  0  0
   20.6900   -2.5265  -13.9433 C   0  0  0  0  0  0  0  0  0  0  0  0
   21.9595   -2.1057  -13.6153 C   0  0  0  0  0  0  0  0  0  0  0  0
   22.2395   -0.7641  -13.8489 C   0  0  0  0  0  0  0  0  0  0  0  0
   21.3220    0.1092  -14.3744 C   0  0  0  0  0  0  0  0  0  0  0  0
   20.0670   -0.3407  -14.6903 C   0  0  0  0  0  0  0  0  0  0  0  0
   19.7678   -1.6531  -14.4703 C   0  0  0  0  0  0  0  0  0  0  0  0
   21.9950   -4.6753  -15.3731 C   0  0  0  0  0  0  0  0  0  0  0  0
   22.3119   -3.8920  -16.4954 O   0  0  0  0  0  0  0  0  0  0  0  0
   22.9190   -5.2343  -14.8031 O   0  0  0  0  0  0  0  0  0  0  0  0
  2  1  1  1
  2  3  1  0
  3  4  1  0
  5  4  1  0
  5  6  2  0
  7  2  1  0
  7  8  2  0
  9  5  1  0
 10 11  1  0
 11 12  2  0
 11 13  1  0
 13 14  1  0
 15 14  1  6
 15 16  1  0
 16  7  1  0
 17 15  1  0
 18 17  2  0
 19 17  1  0
 20 28  1  0
 20 19  1  0
 21 22  1  0
 20 21  1  1
 22 23  2  0
 23 24  1  0
 25 24  2  0
 26 25  1  0
 27 22  1  0
 27 26  2  0
 28 29  1  0
 30 28  2  0
M  END
$$$$
