FEC.pdb
     RDKit          3D

 27 27  0  0  1  0  0  0  0  0999 V2000
    6.0999  -16.5558   25.1799 N   0  0  0  0  0  0  0  0  0  0  0  0
    7.0447  -16.2124   24.1695 C   0  0  1  0  0  0  0  0  0  0  0  0
    6.9286  -14.7885   23.7329 C   0  0  0  0  0  0  0  0  0  0  0  0
    7.0106  -13.8008   24.8056 C   0  0  0  0  0  0  0  0  0  0  0  0
    8.0919  -12.9676   24.9738 C   0  0  0  0  0  0  0  0  0  0  0  0
    8.1909  -12.0383   25.9675 C   0  0  0  0  0  0  0  0  0  0  0  0
    7.1403  -11.9255   26.8627 C   0  0  0  0  0  0  0  0  0  0  0  0
    6.0155  -12.7473   26.7395 C   0  0  0  0  0  0  0  0  0  0  0  0
    5.9717  -13.6726   25.7095 C   0  0  0  0  0  0  0  0  0  0  0  0
    8.4556  -16.5251   24.5970 C   0  0  0  0  0  0  0  0  0  0  0  0
    8.7138  -17.0588   25.7079 O   0  0  0  0  0  0  0  0  0  0  0  0
    9.5589  -16.2283   23.7610 N   0  0  0  0  0  0  0  0  0  0  0  0
   10.9276  -16.6680   24.0724 C   0  0  1  0  0  0  0  0  0  0  0  0
   11.8712  -16.3554   22.9673 C   0  0  0  0  0  0  0  0  0  0  0  0
   11.6334  -17.1334   21.7237 C   0  0  0  0  0  0  0  0  0  0  0  0
   12.8389  -17.7547   21.1282 C   0  0  0  0  0  0  0  0  0  0  0  0
   13.3481  -18.8366   21.5079 O   0  0  0  0  0  0  0  0  0  0  0  0
   11.3356  -16.1364   25.4023 C   0  0  0  0  0  0  0  0  0  0  0  0
   11.9454  -15.0459   25.4427 O   0  0  0  0  0  0  0  0  0  0  0  0
   13.4322  -17.0546   20.0603 O   0  0  0  0  0  0  0  0  0  0  0  0
   11.0597  -16.8161   26.6110 N   0  0  0  0  0  0  0  0  0  0  0  0
   11.4545  -16.3749   27.9136 C   0  0  1  0  0  0  0  0  0  0  0  0
   10.3751  -15.5565   28.5996 C   0  0  0  0  0  0  0  0  0  0  0  0
    9.9279  -14.1316   27.5769 S   0  0  0  0  0  0  0  0  0  0  0  0
   11.6907  -17.6078   28.7503 C   0  0  0  0  0  0  0  0  0  0  0  0
   11.4798  -18.7276   28.2270 O   0  0  0  0  0  0  0  0  0  0  0  0
   12.1231  -17.5302   30.0468 O   0  0  0  0  0  0  0  0  0  0  0  0
  2  1  1  1
  3  2  1  0
  3  4  1  0
  4  9  2  0
  5  4  1  0
  5  6  2  0
  6  7  1  0
  7  8  2  0
  9  8  1  0
 10  2  1  0
 10 11  2  0
 12 10  1  0
 13 18  1  0
 13 12  1  0
 13 14  1  6
 15 14  1  0
 16 15  1  0
 17 16  2  0
 18 21  1  0
 19 18  2  0
 20 16  1  0
 21 22  1  0
 22 25  1  0
 23 24  1  0
 22 23  1  1
 25 26  2  0
 25 27  1  0
M  END
$$$$
