FEC.pdb
     RDKit          3D

 27 27  0  0  1  0  0  0  0  0999 V2000
    9.4190  -15.0147   25.6801 N   0  0  0  0  0  0  0  0  0  0  0  0
    8.7031  -15.2409   24.4685 C   0  0  1  0  0  0  0  0  0  0  0  0
    8.0073  -14.0151   23.9736 C   0  0  0  0  0  0  0  0  0  0  0  0
    7.3308  -13.2272   25.0003 C   0  0  0  0  0  0  0  0  0  0  0  0
    7.6777  -11.9297   25.2969 C   0  0  0  0  0  0  0  0  0  0  0  0
    7.0609  -11.1746   26.2509 C   0  0  0  0  0  0  0  0  0  0  0  0
    6.0223  -11.7473   26.9659 C   0  0  0  0  0  0  0  0  0  0  0  0
    5.6272  -13.0634   26.7066 C   0  0  0  0  0  0  0  0  0  0  0  0
    6.2912  -13.7810   25.7251 C   0  0  0  0  0  0  0  0  0  0  0  0
    9.5912  -15.8187   23.3967 C   0  0  0  0  0  0  0  0  0  0  0  0
   10.1929  -15.0906   22.5640 O   0  0  0  0  0  0  0  0  0  0  0  0
    9.7866  -17.2159   23.2797 N   0  0  0  0  0  0  0  0  0  0  0  0
   10.6336  -17.8110   22.2345 C   0  0  1  0  0  0  0  0  0  0  0  0
   11.6884  -18.6847   22.8117 C   0  0  0  0  0  0  0  0  0  0  0  0
   12.5570  -19.3418   21.8007 C   0  0  0  0  0  0  0  0  0  0  0  0
   13.6229  -20.2092   22.3532 C   0  0  0  0  0  0  0  0  0  0  0  0
   13.5097  -21.4425   22.5539 O   0  0  0  0  0  0  0  0  0  0  0  0
    9.7778  -18.4702   21.2093 C   0  0  0  0  0  0  0  0  0  0  0  0
    8.5879  -18.7180   21.5014 O   0  0  0  0  0  0  0  0  0  0  0  0
   14.8392  -19.5722   22.6653 O   0  0  0  0  0  0  0  0  0  0  0  0
   10.2599  -18.8227   19.9278 N   0  0  0  0  0  0  0  0  0  0  0  0
    9.4702  -19.3866   18.8763 C   0  0  1  0  0  0  0  0  0  0  0  0
    8.4251  -18.4172   18.3535 C   0  0  0  0  0  0  0  0  0  0  0  0
    9.2191  -16.8997   17.7680 S   0  0  0  0  0  0  0  0  0  0  0  0
   10.4057  -19.7045   17.7364 C   0  0  0  0  0  0  0  0  0  0  0  0
    9.9375  -20.2927   16.7327 O   0  0  0  0  0  0  0  0  0  0  0  0
   11.7325  -19.3699   17.7746 O   0  0  0  0  0  0  0  0  0  0  0  0
  2  1  1  1
  3  2  1  0
  3  4  1  0
  4  9  2  0
  5  4  1  0
  5  6  2  0
  6  7  1  0
  7  8  2  0
  9  8  1  0
 10  2  1  0
 10 11  2  0
 12 10  1  0
 13 18  1  0
 13 12  1  0
 13 14  1  1
 15 14  1  0
 16 15  1  0
 17 16  2  0
 18 21  1  0
 19 18  2  0
 20 16  1  0
 21 22  1  0
 22 25  1  0
 23 24  1  0
 22 23  1  6
 25 26  2  0
 25 27  1  0
M  END
$$$$
