FEC.pdb
     RDKit          3D

 27 27  0  0  1  0  0  0  0  0999 V2000
    6.1638  -17.0713   25.4995 N   0  0  0  0  0  0  0  0  0  0  0  0
    6.9760  -16.7761   24.3661 C   0  0  1  0  0  0  0  0  0  0  0  0
    6.7276  -15.4078   23.8205 C   0  0  0  0  0  0  0  0  0  0  0  0
    6.7927  -14.3268   24.8003 C   0  0  0  0  0  0  0  0  0  0  0  0
    7.8489  -13.4490   24.8761 C   0  0  0  0  0  0  0  0  0  0  0  0
    7.9318  -12.4325   25.7821 C   0  0  0  0  0  0  0  0  0  0  0  0
    6.8907  -12.2731   26.6812 C   0  0  0  0  0  0  0  0  0  0  0  0
    5.7914  -13.1368   26.6500 C   0  0  0  0  0  0  0  0  0  0  0  0
    5.7630  -14.1509   25.7066 C   0  0  0  0  0  0  0  0  0  0  0  0
    8.4402  -16.9730   24.6640 C   0  0  0  0  0  0  0  0  0  0  0  0
    8.8361  -17.6687   25.6360 O   0  0  0  0  0  0  0  0  0  0  0  0
    9.4400  -16.3782   23.8572 N   0  0  0  0  0  0  0  0  0  0  0  0
   10.8696  -16.6872   24.0137 C   0  0  1  0  0  0  0  0  0  0  0  0
   11.6580  -16.2607   22.8280 C   0  0  0  0  0  0  0  0  0  0  0  0
   11.2909  -16.9582   21.5682 C   0  0  0  0  0  0  0  0  0  0  0  0
   12.4322  -17.3598   20.7139 C   0  0  0  0  0  0  0  0  0  0  0  0
   12.9928  -18.4816   20.7494 O   0  0  0  0  0  0  0  0  0  0  0  0
   11.3617  -16.1452   25.3106 C   0  0  0  0  0  0  0  0  0  0  0  0
   12.2748  -15.2919   25.2877 O   0  0  0  0  0  0  0  0  0  0  0  0
   12.8979  -16.3886   19.8069 O   0  0  0  0  0  0  0  0  0  0  0  0
   10.8366  -16.5586   26.5566 N   0  0  0  0  0  0  0  0  0  0  0  0
   11.2826  -16.0937   27.8342 C   0  0  1  0  0  0  0  0  0  0  0  0
   10.3765  -15.0188   28.4078 C   0  0  0  0  0  0  0  0  0  0  0  0
   10.6003  -13.4666   27.5041 S   0  0  0  0  0  0  0  0  0  0  0  0
   11.2437  -17.2712   28.7764 C   0  0  0  0  0  0  0  0  0  0  0  0
   10.8447  -18.3733   28.3305 O   0  0  0  0  0  0  0  0  0  0  0  0
   11.6284  -17.1631   30.0856 O   0  0  0  0  0  0  0  0  0  0  0  0
  2  1  1  1
  3  2  1  0
  3  4  1  0
  4  9  2  0
  5  4  1  0
  5  6  2  0
  6  7  1  0
  7  8  2  0
  9  8  1  0
 10  2  1  0
 10 11  2  0
 12 10  1  0
 13 18  1  0
 13 12  1  0
 13 14  1  6
 15 14  1  0
 16 15  1  0
 17 16  2  0
 18 21  1  0
 19 18  2  0
 20 16  1  0
 21 22  1  0
 22 25  1  0
 23 24  1  0
 22 23  1  1
 25 26  2  0
 25 27  1  0
M  END
$$$$
