FEC.pdb
     RDKit          3D

 27 27  0  0  1  0  0  0  0  0999 V2000
    5.8078  -16.6768   25.3610 N   0  0  0  0  0  0  0  0  0  0  0  0
    6.7238  -16.5132   24.2813 C   0  0  1  0  0  0  0  0  0  0  0  0
    6.6946  -15.1351   23.7054 C   0  0  0  0  0  0  0  0  0  0  0  0
    6.8082  -14.0523   24.6787 C   0  0  0  0  0  0  0  0  0  0  0  0
    5.9543  -13.9154   25.7482 C   0  0  0  0  0  0  0  0  0  0  0  0
    6.0406  -12.9131   26.6694 C   0  0  0  0  0  0  0  0  0  0  0  0
    7.0483  -11.9748   26.5205 C   0  0  0  0  0  0  0  0  0  0  0  0
    7.9452  -12.0647   25.4514 C   0  0  0  0  0  0  0  0  0  0  0  0
    7.8078  -13.1055   24.5475 C   0  0  0  0  0  0  0  0  0  0  0  0
    8.1266  -16.8949   24.6785 C   0  0  0  0  0  0  0  0  0  0  0  0
    8.4156  -17.2467   25.8524 O   0  0  0  0  0  0  0  0  0  0  0  0
    9.1869  -16.8724   23.7407 N   0  0  0  0  0  0  0  0  0  0  0  0
   10.5504  -17.3089   24.0785 C   0  0  1  0  0  0  0  0  0  0  0  0
   11.4000  -17.4482   22.8667 C   0  0  0  0  0  0  0  0  0  0  0  0
   11.7151  -16.1625   22.1916 C   0  0  0  0  0  0  0  0  0  0  0  0
   12.5180  -16.2809   20.9526 C   0  0  0  0  0  0  0  0  0  0  0  0
   12.0402  -16.4122   19.8000 O   0  0  0  0  0  0  0  0  0  0  0  0
   11.1161  -16.4201   25.1309 C   0  0  0  0  0  0  0  0  0  0  0  0
   11.2444  -15.2037   24.8730 O   0  0  0  0  0  0  0  0  0  0  0  0
   13.9161  -16.2396   21.1151 O   0  0  0  0  0  0  0  0  0  0  0  0
   11.5100  -16.8997   26.4014 N   0  0  0  0  0  0  0  0  0  0  0  0
   11.5251  -16.1274   27.6057 C   0  0  1  0  0  0  0  0  0  0  0  0
   10.1869  -15.4675   27.8872 C   0  0  0  0  0  0  0  0  0  0  0  0
   10.2596  -14.5489   29.4451 S   0  0  0  0  0  0  0  0  0  0  0  0
   11.8111  -17.0776   28.7421 C   0  0  0  0  0  0  0  0  0  0  0  0
   11.2822  -18.2141   28.7108 O   0  0  0  0  0  0  0  0  0  0  0  0
   12.6223  -16.7303   29.7886 O   0  0  0  0  0  0  0  0  0  0  0  0
  2  1  1  1
  3  2  1  0
  3  4  1  0
  4  9  2  0
  5  4  1  0
  5  6  2  0
  6  7  1  0
  7  8  2  0
  9  8  1  0
 10  2  1  0
 10 11  2  0
 12 10  1  0
 13 18  1  0
 13 12  1  0
 13 14  1  6
 15 14  1  0
 16 15  1  0
 17 16  2  0
 18 21  1  0
 19 18  2  0
 20 16  1  0
 21 22  1  0
 22 25  1  0
 23 24  1  0
 22 23  1  1
 25 26  2  0
 25 27  1  0
M  END
$$$$
