FEC.pdb
     RDKit          3D

 27 27  0  0  1  0  0  0  0  0999 V2000
    5.4720  -17.2338   24.3607 N   0  0  0  0  0  0  0  0  0  0  0  0
    6.6105  -16.4068   24.5871 C   0  0  1  0  0  0  0  0  0  0  0  0
    6.5740  -15.7286   25.9176 C   0  0  0  0  0  0  0  0  0  0  0  0
    6.7602  -14.2805   25.8824 C   0  0  0  0  0  0  0  0  0  0  0  0
    5.9255  -13.4032   26.5346 C   0  0  0  0  0  0  0  0  0  0  0  0
    6.0792  -12.0479   26.5161 C   0  0  0  0  0  0  0  0  0  0  0  0
    7.1391  -11.5211   25.7973 C   0  0  0  0  0  0  0  0  0  0  0  0
    8.0196  -12.3663   25.1145 C   0  0  0  0  0  0  0  0  0  0  0  0
    7.8128  -13.7349   25.1704 C   0  0  0  0  0  0  0  0  0  0  0  0
    7.8975  -17.1717   24.4142 C   0  0  0  0  0  0  0  0  0  0  0  0
    8.1130  -18.2593   25.0110 O   0  0  0  0  0  0  0  0  0  0  0  0
    8.9269  -16.6947   23.5675 N   0  0  0  0  0  0  0  0  0  0  0  0
   10.2281  -17.3701   23.4472 C   0  0  1  0  0  0  0  0  0  0  0  0
   10.9670  -16.9297   22.2349 C   0  0  0  0  0  0  0  0  0  0  0  0
   12.2819  -17.5960   22.0464 C   0  0  0  0  0  0  0  0  0  0  0  0
   13.0162  -17.2066   20.8204 C   0  0  0  0  0  0  0  0  0  0  0  0
   12.4769  -16.8253   19.7538 O   0  0  0  0  0  0  0  0  0  0  0  0
   10.9880  -17.2271   24.7200 C   0  0  0  0  0  0  0  0  0  0  0  0
   11.3487  -16.0824   25.0691 O   0  0  0  0  0  0  0  0  0  0  0  0
   14.4206  -17.2813   20.8905 O   0  0  0  0  0  0  0  0  0  0  0  0
   11.3129  -18.3317   25.5406 N   0  0  0  0  0  0  0  0  0  0  0  0
   12.1054  -18.2698   26.7304 C   0  0  1  0  0  0  0  0  0  0  0  0
   11.2575  -18.2246   27.9891 C   0  0  0  0  0  0  0  0  0  0  0  0
    9.9495  -19.4730   27.9055 S   0  0  0  0  0  0  0  0  0  0  0  0
   12.9306  -19.5315   26.7835 C   0  0  0  0  0  0  0  0  0  0  0  0
   12.7364  -20.4034   25.9033 O   0  0  0  0  0  0  0  0  0  0  0  0
   13.8709  -19.7405   27.7561 O   0  0  0  0  0  0  0  0  0  0  0  0
  2  1  1  1
  3  2  1  0
  3  4  1  0
  4  9  2  0
  5  4  1  0
  5  6  2  0
  6  7  1  0
  7  8  2  0
  9  8  1  0
 10  2  1  0
 10 11  2  0
 12 10  1  0
 13 18  1  0
 13 12  1  0
 13 14  1  6
 15 14  1  0
 16 15  1  0
 17 16  2  0
 18 21  1  0
 19 18  2  0
 20 16  1  0
 21 22  1  0
 22 25  1  0
 23 24  1  0
 22 23  1  1
 25 26  2  0
 25 27  1  0
M  END
$$$$
