EID.pdb
     RDKit          3D

 26 25  0  0  1  0  0  0  0  0999 V2000
   21.8142  -18.7628  -13.0689 N   0  0  0  0  0  0  0  0  0  0  0  0
   21.4326  -20.1162  -13.3203 C   0  0  1  0  0  0  0  0  0  0  0  0
   22.0796  -20.7134  -14.5347 C   0  0  0  0  0  0  0  0  0  0  0  0
   21.9524  -19.7536  -15.6915 C   0  0  0  0  0  0  0  0  0  0  0  0
   22.5265  -20.3159  -16.9423 C   0  0  0  0  0  0  0  0  0  0  0  0
   21.8291  -20.7262  -17.9023 O   0  0  0  0  0  0  0  0  0  0  0  0
   21.5764  -20.9749  -12.1171 C   0  0  0  0  0  0  0  0  0  0  0  0
   21.2219  -22.1773  -12.2211 O   0  0  0  0  0  0  0  0  0  0  0  0
   23.9135  -20.3766  -17.0216 O   0  0  0  0  0  0  0  0  0  0  0  0
   25.5708  -19.7818   -8.7182 C   0  0  0  0  0  0  0  0  0  0  0  0
   24.6401  -20.7368   -9.3983 C   0  0  0  0  0  0  0  0  0  0  0  0
   23.2580  -20.7679   -8.7550 C   0  0  2  0  0  0  0  0  0  0  0  0
   23.2887  -21.6217   -7.5063 C   0  0  0  0  0  0  0  0  0  0  0  0
   22.2601  -21.3653   -9.7075 C   0  0  2  0  0  0  0  0  0  0  0  0
   22.0787  -20.5273  -10.8867 N   0  0  0  0  0  0  0  0  0  0  0  0
   20.9302  -21.5556   -9.1185 C   0  0  0  0  0  0  0  0  0  0  0  0
   20.1842  -20.5537   -8.9929 O   0  0  0  0  0  0  0  0  0  0  0  0
   20.4219  -22.8040   -8.6759 N   0  0  0  0  0  0  0  0  0  0  0  0
   19.0524  -22.9421   -8.1342 C   0  0  1  0  0  0  0  0  0  0  0  0
   18.1927  -23.6376   -9.1677 C   0  0  0  0  0  0  0  0  0  0  0  0
   16.8330  -23.9667   -8.6890 C   0  0  0  0  0  0  0  0  0  0  0  0
   16.0337  -24.7518   -9.2428 O   0  0  0  0  0  0  0  0  0  0  0  0
   19.1727  -23.7805   -6.8957 C   0  0  0  0  0  0  0  0  0  0  0  0
   18.1203  -23.9947   -6.2025 O   0  0  0  0  0  0  0  0  0  0  0  0
   16.3594  -23.3631   -7.5086 O   0  0  0  0  0  0  0  0  0  0  0  0
   20.3419  -24.3432   -6.4438 O   0  0  0  0  0  0  0  0  0  0  0  0
  2  1  1  1
  2  7  1  0
  3  2  1  0
  4  3  1  0
  5  4  1  0
  6  5  2  0
  7  8  2  0
  9  5  1  0
 10 11  1  0
 12 11  1  0
 12 14  1  0
 12 13  1  1
 14 15  1  6
 15  7  1  0
 16 17  2  0
 16 14  1  0
 18 16  1  0
 19 18  1  0
 19 23  1  0
 19 20  1  6
 21 20  1  0
 21 22  2  0
 23 26  1  0
 24 23  2  0
 25 21  1  0
M  END
$$$$
