EID.pdb
     RDKit          3D

 26 25  0  0  1  0  0  0  0  0999 V2000
   18.9880  -13.0718  -17.5510 N   0  0  0  0  0  0  0  0  0  0  0  0
   19.8008  -11.9982  -18.0278 C   0  0  1  0  0  0  0  0  0  0  0  0
   19.0911  -11.0724  -18.9708 C   0  0  0  0  0  0  0  0  0  0  0  0
   18.6128  -11.8516  -20.1706 C   0  0  0  0  0  0  0  0  0  0  0  0
   17.8836  -10.9878  -21.1362 C   0  0  0  0  0  0  0  0  0  0  0  0
   17.7242   -9.7525  -20.9786 O   0  0  0  0  0  0  0  0  0  0  0  0
   20.4832  -11.2752  -16.9245 C   0  0  0  0  0  0  0  0  0  0  0  0
   19.9149  -11.2668  -15.8024 O   0  0  0  0  0  0  0  0  0  0  0  0
   17.3623  -11.6125  -22.2639 O   0  0  0  0  0  0  0  0  0  0  0  0
   25.1640  -12.2783  -15.1360 C   0  0  0  0  0  0  0  0  0  0  0  0
   23.7787  -11.7379  -15.3076 C   0  0  0  0  0  0  0  0  0  0  0  0
   23.7686  -10.2868  -15.7759 C   0  0  2  0  0  0  0  0  0  0  0  0
   24.3818   -9.3979  -14.7161 C   0  0  0  0  0  0  0  0  0  0  0  0
   22.3552   -9.8312  -16.0101 C   0  0  2  0  0  0  0  0  0  0  0  0
   21.7099  -10.6094  -17.0605 N   0  0  0  0  0  0  0  0  0  0  0  0
   22.2526   -8.4227  -16.4071 C   0  0  0  0  0  0  0  0  0  0  0  0
   22.3141   -8.1411  -17.6290 O   0  0  0  0  0  0  0  0  0  0  0  0
   22.0872   -7.3452  -15.4993 N   0  0  0  0  0  0  0  0  0  0  0  0
   21.8279   -5.9650  -15.9640 C   0  0  1  0  0  0  0  0  0  0  0  0
   20.5237   -5.9517  -16.7320 C   0  0  0  0  0  0  0  0  0  0  0  0
   20.0828   -4.5993  -17.1358 C   0  0  0  0  0  0  0  0  0  0  0  0
   20.5044   -3.9576  -18.1218 O   0  0  0  0  0  0  0  0  0  0  0  0
   21.7233   -5.1184  -14.7296 C   0  0  0  0  0  0  0  0  0  0  0  0
   21.5234   -5.7003  -13.6091 O   0  0  0  0  0  0  0  0  0  0  0  0
   19.1028   -3.9423  -16.3675 O   0  0  0  0  0  0  0  0  0  0  0  0
   21.8278   -3.7485  -14.7107 O   0  0  0  0  0  0  0  0  0  0  0  0
  2  1  1  1
  2  7  1  0
  3  2  1  0
  4  3  1  0
  5  4  1  0
  6  5  2  0
  7  8  2  0
  9  5  1  0
 10 11  1  0
 12 11  1  0
 12 14  1  0
 12 13  1  1
 14 15  1  6
 15  7  1  0
 16 17  2  0
 16 14  1  0
 18 16  1  0
 19 18  1  0
 19 23  1  0
 19 20  1  1
 21 20  1  0
 21 22  2  0
 23 26  1  0
 24 23  2  0
 25 21  1  0
M  END
$$$$
