EID.pdb
     RDKit          3D

 26 25  0  0  1  0  0  0  0  0999 V2000
   27.9966  -21.5183  -16.3908 N   0  0  0  0  0  0  0  0  0  0  0  0
   27.4756  -20.4805  -15.5588 C   0  0  1  0  0  0  0  0  0  0  0  0
   27.0731  -19.2457  -16.3094 C   0  0  0  0  0  0  0  0  0  0  0  0
   27.2619  -19.4762  -17.7881 C   0  0  0  0  0  0  0  0  0  0  0  0
   28.6024  -19.0297  -18.2508 C   0  0  0  0  0  0  0  0  0  0  0  0
   28.9437  -17.8239  -18.3269 O   0  0  0  0  0  0  0  0  0  0  0  0
   26.4071  -20.9695  -14.6507 C   0  0  0  0  0  0  0  0  0  0  0  0
   25.7548  -21.9799  -15.0192 O   0  0  0  0  0  0  0  0  0  0  0  0
   29.5032  -20.0258  -18.6112 O   0  0  0  0  0  0  0  0  0  0  0  0
   27.0529  -20.6272   -9.3045 C   0  0  0  0  0  0  0  0  0  0  0  0
   26.5665  -21.1567  -10.6173 C   0  0  0  0  0  0  0  0  0  0  0  0
   25.3041  -20.4524  -11.1028 C   0  0  2  0  0  0  0  0  0  0  0  0
   24.1201  -20.8773  -10.2621 C   0  0  0  0  0  0  0  0  0  0  0  0
   25.0232  -20.8260  -12.5316 C   0  0  2  0  0  0  0  0  0  0  0  0
   26.0875  -20.3762  -13.4207 N   0  0  0  0  0  0  0  0  0  0  0  0
   23.7741  -20.2580  -13.0503 C   0  0  0  0  0  0  0  0  0  0  0  0
   23.8202  -19.1459  -13.6312 O   0  0  0  0  0  0  0  0  0  0  0  0
   22.5048  -20.8821  -12.9409 N   0  0  0  0  0  0  0  0  0  0  0  0
   21.3071  -20.3407  -13.6194 C   0  0  1  0  0  0  0  0  0  0  0  0
   21.5727  -20.3018  -15.1090 C   0  0  0  0  0  0  0  0  0  0  0  0
   20.4243  -19.8226  -15.9075 C   0  0  0  0  0  0  0  0  0  0  0  0
   19.8730  -18.7065  -15.7975 O   0  0  0  0  0  0  0  0  0  0  0  0
   20.1840  -21.2855  -13.3071 C   0  0  0  0  0  0  0  0  0  0  0  0
   20.4742  -22.4487  -12.8635 O   0  0  0  0  0  0  0  0  0  0  0  0
   19.8740  -20.6687  -16.8891 O   0  0  0  0  0  0  0  0  0  0  0  0
   18.8506  -20.9925  -13.4627 O   0  0  0  0  0  0  0  0  0  0  0  0
  2  1  1  6
  2  7  1  0
  3  2  1  0
  4  3  1  0
  5  4  1  0
  6  5  2  0
  7  8  2  0
  9  5  1  0
 10 11  1  0
 12 11  1  0
 12 14  1  0
 12 13  1  1
 14 15  1  6
 15  7  1  0
 16 17  2  0
 16 14  1  0
 18 16  1  0
 19 18  1  0
 19 23  1  0
 19 20  1  6
 21 20  1  0
 21 22  2  0
 23 26  1  0
 24 23  2  0
 25 21  1  0
M  END
$$$$
