EID.pdb
     RDKit          3D

 26 25  0  0  1  0  0  0  0  0999 V2000
   28.5231  -11.8531  -20.8428 N   0  0  0  0  0  0  0  0  0  0  0  0
   27.1143  -11.7262  -21.0422 C   0  0  1  0  0  0  0  0  0  0  0  0
   26.4848  -12.9182  -21.7000 C   0  0  0  0  0  0  0  0  0  0  0  0
   27.1558  -13.1685  -23.0276 C   0  0  0  0  0  0  0  0  0  0  0  0
   26.5420  -14.3137  -23.7503 C   0  0  0  0  0  0  0  0  0  0  0  0
   26.8800  -15.5092  -23.5696 O   0  0  0  0  0  0  0  0  0  0  0  0
   26.4046  -11.3176  -19.8032 C   0  0  0  0  0  0  0  0  0  0  0  0
   25.1486  -11.3842  -19.8095 O   0  0  0  0  0  0  0  0  0  0  0  0
   25.5430  -14.0103  -24.6688 O   0  0  0  0  0  0  0  0  0  0  0  0
   28.4709  -12.7935  -15.1987 C   0  0  0  0  0  0  0  0  0  0  0  0
   27.3805  -12.3868  -16.1401 C   0  0  0  0  0  0  0  0  0  0  0  0
   27.1878  -10.8753  -16.1969 C   0  0  2  0  0  0  0  0  0  0  0  0
   26.4521  -10.4018  -14.9625 C   0  0  0  0  0  0  0  0  0  0  0  0
   26.3685  -10.5057  -17.4021 C   0  0  2  0  0  0  0  0  0  0  0  0
   27.0470  -10.8670  -18.6408 N   0  0  0  0  0  0  0  0  0  0  0  0
   26.0696   -9.0722  -17.4892 C   0  0  0  0  0  0  0  0  0  0  0  0
   27.0232   -8.2728  -17.6566 O   0  0  0  0  0  0  0  0  0  0  0  0
   24.7664   -8.5192  -17.3968 N   0  0  0  0  0  0  0  0  0  0  0  0
   24.5325   -7.0593  -17.4410 C   0  0  1  0  0  0  0  0  0  0  0  0
   24.0250   -6.6936  -18.8193 C   0  0  0  0  0  0  0  0  0  0  0  0
   23.7253   -5.2549  -18.9824 C   0  0  0  0  0  0  0  0  0  0  0  0
   24.0879   -4.3411  -18.2109 O   0  0  0  0  0  0  0  0  0  0  0  0
   23.4917   -6.7686  -16.4000 C   0  0  0  0  0  0  0  0  0  0  0  0
   22.7270   -7.7211  -16.0229 O   0  0  0  0  0  0  0  0  0  0  0  0
   22.9667   -4.8365  -20.0922 O   0  0  0  0  0  0  0  0  0  0  0  0
   23.2952   -5.5420  -15.8130 O   0  0  0  0  0  0  0  0  0  0  0  0
  2  1  1  1
  2  7  1  0
  3  2  1  0
  4  3  1  0
  5  4  1  0
  6  5  2  0
  7  8  2  0
  9  5  1  0
 10 11  1  0
 12 11  1  0
 12 14  1  0
 12 13  1  1
 14 15  1  6
 15  7  1  0
 16 17  2  0
 16 14  1  0
 18 16  1  0
 19 18  1  0
 19 23  1  0
 19 20  1  6
 21 20  1  0
 21 22  2  0
 23 26  1  0
 24 23  2  0
 25 21  1  0
M  END
$$$$
