EID.pdb
     RDKit          3D

 26 25  0  0  1  0  0  0  0  0999 V2000
   14.2186  -11.9991  -12.6951 N   0  0  0  0  0  0  0  0  0  0  0  0
   15.2863  -11.0712  -12.4963 C   0  0  1  0  0  0  0  0  0  0  0  0
   16.1550  -10.8780  -13.7038 C   0  0  0  0  0  0  0  0  0  0  0  0
   16.7517  -12.2034  -14.1071 C   0  0  0  0  0  0  0  0  0  0  0  0
   17.6709  -12.0660  -15.2675 C   0  0  0  0  0  0  0  0  0  0  0  0
   18.8689  -12.4413  -15.2515 O   0  0  0  0  0  0  0  0  0  0  0  0
   14.8155   -9.7854  -11.9211 C   0  0  0  0  0  0  0  0  0  0  0  0
   13.6775   -9.3796  -12.2710 O   0  0  0  0  0  0  0  0  0  0  0  0
   17.1446  -11.4868  -16.4169 O   0  0  0  0  0  0  0  0  0  0  0  0
   13.5714   -8.6508   -7.1099 C   0  0  0  0  0  0  0  0  0  0  0  0
   13.7387   -8.5355   -8.5929 C   0  0  0  0  0  0  0  0  0  0  0  0
   14.9990   -7.7712   -8.9836 C   0  0  2  0  0  0  0  0  0  0  0  0
   14.9208   -6.3499   -8.4706 C   0  0  0  0  0  0  0  0  0  0  0  0
   15.1289   -7.7233  -10.4805 C   0  0  2  0  0  0  0  0  0  0  0  0
   15.5581   -9.0074  -11.0211 N   0  0  0  0  0  0  0  0  0  0  0  0
   16.0943   -6.7247  -10.9525 C   0  0  0  0  0  0  0  0  0  0  0  0
   17.3174   -6.9487  -10.7794 O   0  0  0  0  0  0  0  0  0  0  0  0
   15.7405   -5.5114  -11.5971 N   0  0  0  0  0  0  0  0  0  0  0  0
   16.7620   -4.5747  -12.1139 C   0  0  1  0  0  0  0  0  0  0  0  0
   16.9420   -4.8268  -13.5954 C   0  0  0  0  0  0  0  0  0  0  0  0
   17.8257   -3.8479  -14.2642 C   0  0  0  0  0  0  0  0  0  0  0  0
   19.0599   -3.9659  -14.4211 O   0  0  0  0  0  0  0  0  0  0  0  0
   16.2261   -3.1939  -11.8737 C   0  0  0  0  0  0  0  0  0  0  0  0
   14.9644   -3.0486  -11.7288 O   0  0  0  0  0  0  0  0  0  0  0  0
   17.2658   -2.6653  -14.7837 O   0  0  0  0  0  0  0  0  0  0  0  0
   16.9972   -2.0593  -11.7961 O   0  0  0  0  0  0  0  0  0  0  0  0
  2  1  1  6
  2  7  1  0
  3  2  1  0
  4  3  1  0
  5  4  1  0
  6  5  2  0
  7  8  2  0
  9  5  1  0
 10 11  1  0
 12 11  1  0
 12 14  1  0
 12 13  1  6
 14 15  1  1
 15  7  1  0
 16 17  2  0
 16 14  1  0
 18 16  1  0
 19 18  1  0
 19 23  1  0
 19 20  1  6
 21 20  1  0
 21 22  2  0
 23 26  1  0
 24 23  2  0
 25 21  1  0
M  END
$$$$
