EID.pdb
     RDKit          3D

 26 25  0  0  1  0  0  0  0  0999 V2000
   22.1401  -14.9315  -17.4661 N   0  0  0  0  0  0  0  0  0  0  0  0
   22.6601  -13.7214  -18.0192 C   0  0  1  0  0  0  0  0  0  0  0  0
   21.7294  -13.0453  -18.9818 C   0  0  0  0  0  0  0  0  0  0  0  0
   21.4320  -13.9791  -20.1286 C   0  0  0  0  0  0  0  0  0  0  0  0
   20.4435  -13.3966  -21.0741 C   0  0  0  0  0  0  0  0  0  0  0  0
   19.2139  -13.6466  -21.0331 O   0  0  0  0  0  0  0  0  0  0  0  0
   23.1693  -12.7974  -16.9740 C   0  0  0  0  0  0  0  0  0  0  0  0
   22.6502  -12.8774  -15.8310 O   0  0  0  0  0  0  0  0  0  0  0  0
   20.9400  -12.5325  -22.0438 O   0  0  0  0  0  0  0  0  0  0  0  0
   28.1197  -12.1444  -15.5407 C   0  0  0  0  0  0  0  0  0  0  0  0
   26.6275  -12.1318  -15.6585 C   0  0  0  0  0  0  0  0  0  0  0  0
   26.0839  -10.7722  -16.0839 C   0  0  2  0  0  0  0  0  0  0  0  0
   26.4175   -9.7321  -15.0369 C   0  0  0  0  0  0  0  0  0  0  0  0
   24.5882  -10.8360  -16.2220 C   0  0  2  0  0  0  0  0  0  0  0  0
   24.1834  -11.8521  -17.1859 N   0  0  0  0  0  0  0  0  0  0  0  0
   23.9871   -9.5733  -16.6648 C   0  0  0  0  0  0  0  0  0  0  0  0
   24.2013   -9.1905  -17.8412 O   0  0  0  0  0  0  0  0  0  0  0  0
   23.1726   -8.7454  -15.8501 N   0  0  0  0  0  0  0  0  0  0  0  0
   22.4167   -7.6024  -16.4070 C   0  0  1  0  0  0  0  0  0  0  0  0
   21.4740   -8.1204  -17.4718 C   0  0  0  0  0  0  0  0  0  0  0  0
   20.5311   -7.1016  -17.9810 C   0  0  0  0  0  0  0  0  0  0  0  0
   20.8449   -5.9925  -18.4640 O   0  0  0  0  0  0  0  0  0  0  0  0
   21.6476   -7.0095  -15.2631 C   0  0  0  0  0  0  0  0  0  0  0  0
   20.9890   -5.9331  -15.4669 O   0  0  0  0  0  0  0  0  0  0  0  0
   19.1491   -7.3660  -17.9352 O   0  0  0  0  0  0  0  0  0  0  0  0
   21.5958   -7.5417  -13.9974 O   0  0  0  0  0  0  0  0  0  0  0  0
  2  1  1  1
  2  7  1  0
  3  2  1  0
  4  3  1  0
  5  4  1  0
  6  5  2  0
  7  8  2  0
  9  5  1  0
 10 11  1  0
 12 11  1  0
 12 14  1  0
 12 13  1  1
 14 15  1  6
 15  7  1  0
 16 17  2  0
 16 14  1  0
 18 16  1  0
 19 18  1  0
 19 23  1  0
 19 20  1  6
 21 20  1  0
 21 22  2  0
 23 26  1  0
 24 23  2  0
 25 21  1  0
M  END
$$$$
