EID.pdb
     RDKit          3D

 26 25  0  0  1  0  0  0  0  0999 V2000
   18.1049  -25.5636   -5.4994 N   0  0  0  0  0  0  0  0  0  0  0  0
   17.6770  -26.0220   -4.2159 C   0  0  1  0  0  0  0  0  0  0  0  0
   16.3330  -26.6880   -4.2266 C   0  0  0  0  0  0  0  0  0  0  0  0
   15.2781  -25.6784   -4.6050 C   0  0  0  0  0  0  0  0  0  0  0  0
   14.9704  -24.7529   -3.4828 C   0  0  0  0  0  0  0  0  0  0  0  0
   15.1007  -23.5064   -3.5562 O   0  0  0  0  0  0  0  0  0  0  0  0
   18.7132  -26.8398   -3.5354 C   0  0  0  0  0  0  0  0  0  0  0  0
   19.7450  -27.1281   -4.1947 O   0  0  0  0  0  0  0  0  0  0  0  0
   14.5160  -25.3308   -2.3025 O   0  0  0  0  0  0  0  0  0  0  0  0
   20.7359  -25.2185    1.0152 C   0  0  0  0  0  0  0  0  0  0  0  0
   20.4627  -25.8916   -0.2935 C   0  0  0  0  0  0  0  0  0  0  0  0
   19.8788  -27.2900   -0.1236 C   0  0  2  0  0  0  0  0  0  0  0  0
   20.8261  -28.1505    0.6835 C   0  0  0  0  0  0  0  0  0  0  0  0
   19.6885  -27.9353   -1.4679 C   0  0  2  0  0  0  0  0  0  0  0  0
   18.6084  -27.3034   -2.2160 N   0  0  0  0  0  0  0  0  0  0  0  0
   19.3663  -29.3644   -1.3907 C   0  0  0  0  0  0  0  0  0  0  0  0
   18.1891  -29.6962   -1.1074 O   0  0  0  0  0  0  0  0  0  0  0  0
   20.2998  -30.4087   -1.6155 N   0  0  0  0  0  0  0  0  0  0  0  0
   19.8975  -31.8321   -1.6034 C   0  0  1  0  0  0  0  0  0  0  0  0
   20.6396  -32.5525   -2.7084 C   0  0  0  0  0  0  0  0  0  0  0  0
   20.4297  -34.0161   -2.7125 C   0  0  0  0  0  0  0  0  0  0  0  0
   19.3313  -34.5969   -2.5783 O   0  0  0  0  0  0  0  0  0  0  0  0
   20.2960  -32.3702   -0.2606 C   0  0  0  0  0  0  0  0  0  0  0  0
   21.2941  -31.8382    0.3352 O   0  0  0  0  0  0  0  0  0  0  0  0
   21.5401  -34.8653   -2.8797 O   0  0  0  0  0  0  0  0  0  0  0  0
   19.6624  -33.4036    0.3863 O   0  0  0  0  0  0  0  0  0  0  0  0
  2  1  1  6
  2  7  1  0
  3  2  1  0
  4  3  1  0
  5  4  1  0
  6  5  2  0
  7  8  2  0
  9  5  1  0
 10 11  1  0
 12 11  1  0
 12 14  1  0
 12 13  1  1
 14 15  1  1
 15  7  1  0
 16 17  2  0
 16 14  1  0
 18 16  1  0
 19 18  1  0
 19 23  1  0
 19 20  1  6
 21 20  1  0
 21 22  2  0
 23 26  1  0
 24 23  2  0
 25 21  1  0
M  END
$$$$
