EID.pdb
     RDKit          3D

 26 25  0  0  1  0  0  0  0  0999 V2000
   28.3921  -21.2512  -15.7695 N   0  0  0  0  0  0  0  0  0  0  0  0
   27.6619  -20.2574  -15.0486 C   0  0  1  0  0  0  0  0  0  0  0  0
   27.2126  -19.1024  -15.8938 C   0  0  0  0  0  0  0  0  0  0  0  0
   28.4182  -18.4281  -16.4998 C   0  0  0  0  0  0  0  0  0  0  0  0
   28.8022  -19.0436  -17.7975 C   0  0  0  0  0  0  0  0  0  0  0  0
   28.0136  -19.1678  -18.7665 O   0  0  0  0  0  0  0  0  0  0  0  0
   26.5565  -20.8413  -14.2470 C   0  0  0  0  0  0  0  0  0  0  0  0
   25.9960  -21.8714  -14.7019 O   0  0  0  0  0  0  0  0  0  0  0  0
   30.1121  -19.4959  -17.9117 O   0  0  0  0  0  0  0  0  0  0  0  0
   26.9729  -20.4836   -8.9269 C   0  0  0  0  0  0  0  0  0  0  0  0
   26.5388  -21.1286  -10.2060 C   0  0  0  0  0  0  0  0  0  0  0  0
   25.2404  -20.5411  -10.7483 C   0  0  2  0  0  0  0  0  0  0  0  0
   24.0619  -21.0929   -9.9764 C   0  0  0  0  0  0  0  0  0  0  0  0
   25.0706  -20.9150  -12.1945 C   0  0  2  0  0  0  0  0  0  0  0  0
   26.1072  -20.3163  -13.0266 N   0  0  0  0  0  0  0  0  0  0  0  0
   23.7835  -20.4961  -12.7600 C   0  0  0  0  0  0  0  0  0  0  0  0
   23.4967  -19.2739  -12.7498 O   0  0  0  0  0  0  0  0  0  0  0  0
   22.8300  -21.3828  -13.3233 N   0  0  0  0  0  0  0  0  0  0  0  0
   21.4916  -20.9213  -13.7516 C   0  0  1  0  0  0  0  0  0  0  0  0
   20.8344  -22.0246  -14.5527 C   0  0  0  0  0  0  0  0  0  0  0  0
   19.4566  -21.7079  -14.9860 C   0  0  0  0  0  0  0  0  0  0  0  0
   18.8501  -20.6373  -14.7677 O   0  0  0  0  0  0  0  0  0  0  0  0
   20.7189  -20.6482  -12.4947 C   0  0  0  0  0  0  0  0  0  0  0  0
   20.0804  -19.5447  -12.4018 O   0  0  0  0  0  0  0  0  0  0  0  0
   18.7299  -22.6713  -15.7111 O   0  0  0  0  0  0  0  0  0  0  0  0
   20.6435  -21.5041  -11.4226 O   0  0  0  0  0  0  0  0  0  0  0  0
  2  1  1  6
  2  7  1  0
  3  2  1  0
  4  3  1  0
  5  4  1  0
  6  5  2  0
  7  8  2  0
  9  5  1  0
 10 11  1  0
 12 11  1  0
 12 14  1  0
 12 13  1  1
 14 15  1  6
 15  7  1  0
 16 17  2  0
 16 14  1  0
 18 16  1  0
 19 18  1  0
 19 23  1  0
 19 20  1  1
 21 20  1  0
 21 22  2  0
 23 26  1  0
 24 23  2  0
 25 21  1  0
M  END
$$$$
