EID.pdb
     RDKit          3D

 26 25  0  0  1  0  0  0  0  0999 V2000
   21.6898  -12.6698  -18.2754 N   0  0  0  0  0  0  0  0  0  0  0  0
   20.9094  -12.3803  -17.1144 C   0  0  1  0  0  0  0  0  0  0  0  0
   20.3687  -13.5992  -16.4274 C   0  0  0  0  0  0  0  0  0  0  0  0
   19.6818  -14.4804  -17.4408 C   0  0  0  0  0  0  0  0  0  0  0  0
   19.2471  -15.7720  -16.8464 C   0  0  0  0  0  0  0  0  0  0  0  0
   19.4688  -16.0961  -15.6539 O   0  0  0  0  0  0  0  0  0  0  0  0
   21.6091  -11.4623  -16.1798 C   0  0  0  0  0  0  0  0  0  0  0  0
   21.0387  -11.2055  -15.0886 O   0  0  0  0  0  0  0  0  0  0  0  0
   18.5604  -16.6454  -17.6826 O   0  0  0  0  0  0  0  0  0  0  0  0
   26.9111  -11.7536  -15.5903 C   0  0  0  0  0  0  0  0  0  0  0  0
   25.4584  -11.5077  -15.3261 C   0  0  0  0  0  0  0  0  0  0  0  0
   25.0347  -10.0812  -15.6589 C   0  0  2  0  0  0  0  0  0  0  0  0
   25.6691   -9.1134  -14.6841 C   0  0  0  0  0  0  0  0  0  0  0  0
   23.5414   -9.9483  -15.5473 C   0  0  2  0  0  0  0  0  0  0  0  0
   22.8543  -10.8725  -16.4414 N   0  0  0  0  0  0  0  0  0  0  0  0
   23.0476   -8.6053  -15.8706 C   0  0  0  0  0  0  0  0  0  0  0  0
   23.2725   -8.1469  -17.0175 O   0  0  0  0  0  0  0  0  0  0  0  0
   22.3268   -7.7793  -14.9702 N   0  0  0  0  0  0  0  0  0  0  0  0
   21.9549   -6.3891  -15.3125 C   0  0  1  0  0  0  0  0  0  0  0  0
   20.5159   -6.3763  -15.7816 C   0  0  0  0  0  0  0  0  0  0  0  0
   19.9620   -5.0185  -15.9704 C   0  0  0  0  0  0  0  0  0  0  0  0
   20.5556   -4.0544  -16.4995 O   0  0  0  0  0  0  0  0  0  0  0  0
   22.1071   -5.5905  -14.0514 C   0  0  0  0  0  0  0  0  0  0  0  0
   21.9731   -4.3209  -14.1164 O   0  0  0  0  0  0  0  0  0  0  0  0
   18.6530   -4.7470  -15.5287 O   0  0  0  0  0  0  0  0  0  0  0  0
   22.3825   -6.1257  -12.8162 O   0  0  0  0  0  0  0  0  0  0  0  0
  2  1  1  6
  2  7  1  0
  3  2  1  0
  4  3  1  0
  5  4  1  0
  6  5  2  0
  7  8  2  0
  9  5  1  0
 10 11  1  0
 12 11  1  0
 12 14  1  0
 12 13  1  1
 14 15  1  6
 15  7  1  0
 16 17  2  0
 16 14  1  0
 18 16  1  0
 19 18  1  0
 19 23  1  0
 19 20  1  1
 21 20  1  0
 21 22  2  0
 23 26  1  0
 24 23  2  0
 25 21  1  0
M  END
$$$$
