TNQ.pdb
     RDKit          3D

 25 24  0  0  1  0  0  0  0  0999 V2000
   24.4425    0.7697   -5.3568 C   0  0  0  0  0  0  0  0  0  0  0  0
   25.6942    1.5125   -4.9231 C   0  0  1  0  0  0  0  0  0  0  0  0
   26.2447    0.8192   -3.8576 O   0  0  0  0  0  0  0  0  0  0  0  0
   26.6177    1.5576   -6.1013 C   0  0  2  0  0  0  0  0  0  0  0  0
   27.9008    2.0564   -5.6375 N   0  0  0  0  0  0  0  0  0  0  0  0
   26.1344    2.3939   -7.2166 C   0  0  0  0  0  0  0  0  0  0  0  0
   25.9013    3.6263   -7.0591 O   0  0  0  0  0  0  0  0  0  0  0  0
   27.3466    3.6360  -11.3501 N   0  0  0  0  0  0  0  0  0  0  0  0
   26.8419    2.3624  -11.7168 C   0  0  0  0  0  0  0  0  0  0  0  0
   27.2793    1.7333  -12.7313 O   0  0  0  0  0  0  0  0  0  0  0  0
   25.7811    1.7522  -10.8981 C   0  0  0  0  0  0  0  0  0  0  0  0
   25.4965    2.5529   -9.6519 C   0  0  2  0  0  0  0  0  0  0  0  0
   25.9231    1.8282   -8.4843 N   0  0  0  0  0  0  0  0  0  0  0  0
   24.0427    2.8603   -9.5480 C   0  0  0  0  0  0  0  0  0  0  0  0
   23.2799    2.0042   -9.0067 O   0  0  0  0  0  0  0  0  0  0  0  0
   21.7828    5.3041   -5.6740 N   0  0  0  0  0  0  0  0  0  0  0  0
   20.6690    5.5726   -6.5163 C   0  0  0  0  0  0  0  0  0  0  0  0
   19.6183    6.0194   -6.0082 O   0  0  0  0  0  0  0  0  0  0  0  0
   20.7178    5.3373   -7.9864 C   0  0  0  0  0  0  0  0  0  0  0  0
   22.0515    4.7528   -8.3350 C   0  0  0  0  0  0  0  0  0  0  0  0
   22.1621    4.4456   -9.7968 C   0  0  2  0  0  0  0  0  0  0  0  0
   23.5547    4.0829  -10.0490 N   0  0  0  0  0  0  0  0  0  0  0  0
   21.8606    5.5896  -10.6678 C   0  0  0  0  0  0  0  0  0  0  0  0
   20.5376    6.0347  -10.8564 O   0  0  0  0  0  0  0  0  0  0  0  0
   22.7313    6.2397  -11.2926 O   0  0  0  0  0  0  0  0  0  0  0  0
  2  1  1  6
  2  3  1  0
  4  2  1  0
  4  6  1  0
  4  5  1  1
  6  7  2  0
  9  8  1  0
 10  9  2  0
 11  9  1  0
 12 11  1  6
 12 14  1  0
 13 12  1  0
 13  6  1  0
 14 15  2  0
 16 17  1  0
 17 19  1  0
 18 17  2  0
 19 20  1  0
 21 20  1  1
 21 23  1  0
 22 14  1  0
 22 21  1  0
 23 25  2  0
 23 24  1  0
M  END
$$$$
