TNQ.pdb
     RDKit          3D

 25 24  0  0  1  0  0  0  0  0999 V2000
   16.8837  -12.1870  -12.0768 C   0  0  0  0  0  0  0  0  0  0  0  0
   15.4523  -12.6888  -12.1530 C   0  0  1  0  0  0  0  0  0  0  0  0
   15.4595  -14.0298  -11.8053 O   0  0  0  0  0  0  0  0  0  0  0  0
   14.6392  -11.8661  -11.2017 C   0  0  2  0  0  0  0  0  0  0  0  0
   13.2959  -12.4188  -11.1769 N   0  0  0  0  0  0  0  0  0  0  0  0
   14.5790  -10.4317  -11.5419 C   0  0  0  0  0  0  0  0  0  0  0  0
   13.9827  -10.0286  -12.5811 O   0  0  0  0  0  0  0  0  0  0  0  0
   16.1335   -6.3876   -7.9214 N   0  0  0  0  0  0  0  0  0  0  0  0
   15.5737   -7.5153   -8.5744 C   0  0  0  0  0  0  0  0  0  0  0  0
   15.7848   -8.7008   -8.1667 O   0  0  0  0  0  0  0  0  0  0  0  0
   14.7239   -7.3055   -9.7584 C   0  0  0  0  0  0  0  0  0  0  0  0
   15.2291   -8.0650  -10.9597 C   0  0  2  0  0  0  0  0  0  0  0  0
   15.1896   -9.4812  -10.7080 N   0  0  0  0  0  0  0  0  0  0  0  0
   16.6216   -7.6532  -11.2914 C   0  0  0  0  0  0  0  0  0  0  0  0
   17.5832   -8.2843  -10.7578 O   0  0  0  0  0  0  0  0  0  0  0  0
   19.8583   -9.7102  -14.3871 N   0  0  0  0  0  0  0  0  0  0  0  0
   20.6572   -8.5352  -14.3316 C   0  0  0  0  0  0  0  0  0  0  0  0
   21.8361   -8.5834  -14.7437 O   0  0  0  0  0  0  0  0  0  0  0  0
   20.1305   -7.2484  -13.7969 C   0  0  0  0  0  0  0  0  0  0  0  0
   18.7475   -7.4774  -13.2708 C   0  0  0  0  0  0  0  0  0  0  0  0
   18.2009   -6.2616  -12.5880 C   0  0  2  0  0  0  0  0  0  0  0  0
   16.8348   -6.5825  -12.1814 N   0  0  0  0  0  0  0  0  0  0  0  0
   18.1151   -5.0809  -13.4580 C   0  0  0  0  0  0  0  0  0  0  0  0
   19.2017   -4.1954  -13.5963 O   0  0  0  0  0  0  0  0  0  0  0  0
   17.0982   -4.7783  -14.1255 O   0  0  0  0  0  0  0  0  0  0  0  0
  2  1  1  1
  2  3  1  0
  4  2  1  0
  4  6  1  0
  4  5  1  6
  6  7  2  0
  9  8  1  0
 10  9  2  0
 11  9  1  0
 12 11  1  1
 12 14  1  0
 13 12  1  0
 13  6  1  0
 14 15  2  0
 16 17  1  0
 17 19  1  0
 18 17  2  0
 19 20  1  0
 21 20  1  6
 21 23  1  0
 22 14  1  0
 22 21  1  0
 23 25  2  0
 23 24  1  0
M  END
$$$$
