TNQ.pdb
     RDKit          3D

 25 24  0  0  1  0  0  0  0  0999 V2000
   17.0919  -10.4690  -11.0499 C   0  0  0  0  0  0  0  0  0  0  0  0
   15.6290  -10.8600  -11.1670 C   0  0  1  0  0  0  0  0  0  0  0  0
   15.5548  -12.2396  -11.0650 O   0  0  0  0  0  0  0  0  0  0  0  0
   14.8931  -10.1742  -10.0575 C   0  0  2  0  0  0  0  0  0  0  0  0
   13.5179  -10.6418  -10.0849 N   0  0  0  0  0  0  0  0  0  0  0  0
   14.9176   -8.7011  -10.1358 C   0  0  0  0  0  0  0  0  0  0  0  0
   14.2335   -8.0787  -10.9976 O   0  0  0  0  0  0  0  0  0  0  0  0
   13.5217   -6.4224   -6.7384 N   0  0  0  0  0  0  0  0  0  0  0  0
   14.1926   -5.6809   -7.7441 C   0  0  0  0  0  0  0  0  0  0  0  0
   13.5878   -4.8243   -8.4631 O   0  0  0  0  0  0  0  0  0  0  0  0
   15.6308   -5.9104   -7.9606 C   0  0  0  0  0  0  0  0  0  0  0  0
   15.9083   -6.5351   -9.3052 C   0  0  2  0  0  0  0  0  0  0  0  0
   15.7096   -7.9590   -9.2449 N   0  0  0  0  0  0  0  0  0  0  0  0
   17.3019   -6.2412   -9.7412 C   0  0  0  0  0  0  0  0  0  0  0  0
   18.2524   -6.4903   -8.9398 O   0  0  0  0  0  0  0  0  0  0  0  0
   19.8726   -9.5826  -12.7803 N   0  0  0  0  0  0  0  0  0  0  0  0
   20.7692   -8.5328  -13.1210 C   0  0  0  0  0  0  0  0  0  0  0  0
   21.8109   -8.8067  -13.7547 O   0  0  0  0  0  0  0  0  0  0  0  0
   20.5034   -7.1161  -12.7450 C   0  0  0  0  0  0  0  0  0  0  0  0
   19.2471   -7.0629  -11.9320 C   0  0  0  0  0  0  0  0  0  0  0  0
   18.8926   -5.6607  -11.5425 C   0  0  2  0  0  0  0  0  0  0  0  0
   17.5283   -5.6983  -11.0210 N   0  0  0  0  0  0  0  0  0  0  0  0
   18.8875   -4.7159  -12.6674 C   0  0  0  0  0  0  0  0  0  0  0  0
   17.6979   -4.4055  -13.3548 O   0  0  0  0  0  0  0  0  0  0  0  0
   19.9113   -4.1295  -13.0909 O   0  0  0  0  0  0  0  0  0  0  0  0
  2  1  1  1
  2  3  1  0
  4  2  1  0
  4  6  1  0
  4  5  1  6
  6  7  2  0
  9  8  1  0
 10  9  2  0
 11  9  1  0
 12 11  1  1
 12 14  1  0
 13 12  1  0
 13  6  1  0
 14 15  2  0
 16 17  1  0
 17 19  1  0
 18 17  2  0
 19 20  1  0
 21 20  1  6
 21 23  1  0
 22 14  1  0
 22 21  1  0
 23 25  2  0
 23 24  1  0
M  END
$$$$
