TNQ.pdb
     RDKit          3D

 25 24  0  0  1  0  0  0  0  0999 V2000
   20.2153  -10.7749  -16.2034 C   0  0  0  0  0  0  0  0  0  0  0  0
   18.7601  -11.1680  -16.3892 C   0  0  1  0  0  0  0  0  0  0  0  0
   18.7357  -12.4615  -16.8847 O   0  0  0  0  0  0  0  0  0  0  0  0
   18.0955  -11.0665  -15.0509 C   0  0  2  0  0  0  0  0  0  0  0  0
   16.7723  -11.6543  -15.1695 N   0  0  0  0  0  0  0  0  0  0  0  0
   17.9816   -9.6887  -14.5355 C   0  0  0  0  0  0  0  0  0  0  0  0
   17.4050   -8.7839  -15.2041 O   0  0  0  0  0  0  0  0  0  0  0  0
   16.1974   -9.4887  -10.2856 N   0  0  0  0  0  0  0  0  0  0  0  0
   16.6016   -8.4481  -11.1603 C   0  0  0  0  0  0  0  0  0  0  0  0
   15.7641   -7.7945  -11.8587 O   0  0  0  0  0  0  0  0  0  0  0  0
   18.0325   -8.1161  -11.2615 C   0  0  0  0  0  0  0  0  0  0  0  0
   18.4968   -8.0428  -12.6947 C   0  0  2  0  0  0  0  0  0  0  0  0
   18.5175   -9.3568  -13.2808 N   0  0  0  0  0  0  0  0  0  0  0  0
   19.8550   -7.4366  -12.7745 C   0  0  0  0  0  0  0  0  0  0  0  0
   20.8126   -8.0154  -12.1781 O   0  0  0  0  0  0  0  0  0  0  0  0
   23.1545   -8.2836  -16.6295 N   0  0  0  0  0  0  0  0  0  0  0  0
   22.0970   -7.4275  -17.0429 C   0  0  0  0  0  0  0  0  0  0  0  0
   21.7244   -7.4564  -18.2355 O   0  0  0  0  0  0  0  0  0  0  0  0
   21.4201   -6.4973  -16.0965 C   0  0  0  0  0  0  0  0  0  0  0  0
   22.0268   -6.6689  -14.7384 C   0  0  0  0  0  0  0  0  0  0  0  0
   21.4003   -5.7585  -13.7275 C   0  0  2  0  0  0  0  0  0  0  0  0
   20.0413   -6.2458  -13.5035 N   0  0  0  0  0  0  0  0  0  0  0  0
   21.2793   -4.3655  -14.1781 C   0  0  0  0  0  0  0  0  0  0  0  0
   20.0362   -3.8295  -14.5672 O   0  0  0  0  0  0  0  0  0  0  0  0
   22.2443   -3.5687  -14.2494 O   0  0  0  0  0  0  0  0  0  0  0  0
  2  1  1  1
  2  3  1  0
  4  2  1  0
  4  6  1  0
  4  5  1  6
  6  7  2  0
  9  8  1  0
 10  9  2  0
 11  9  1  0
 12 11  1  1
 12 14  1  0
 13 12  1  0
 13  6  1  0
 14 15  2  0
 16 17  1  0
 17 19  1  0
 18 17  2  0
 19 20  1  0
 21 20  1  6
 21 23  1  0
 22 14  1  0
 22 21  1  0
 23 25  2  0
 23 24  1  0
M  END
$$$$
