TNQ.pdb
     RDKit          3D

 25 24  0  0  1  0  0  0  0  0999 V2000
   23.9229  -36.6254  -12.4628 C   0  0  0  0  0  0  0  0  0  0  0  0
   24.7644  -35.9793  -13.5496 C   0  0  1  0  0  0  0  0  0  0  0  0
   24.1727  -36.2728  -14.7674 O   0  0  0  0  0  0  0  0  0  0  0  0
   24.7907  -34.5067  -13.2781 C   0  0  2  0  0  0  0  0  0  0  0  0
   25.5556  -33.8758  -14.3399 N   0  0  0  0  0  0  0  0  0  0  0  0
   25.3664  -34.1435  -11.9691 C   0  0  0  0  0  0  0  0  0  0  0  0
   26.6118  -34.2041  -11.7609 O   0  0  0  0  0  0  0  0  0  0  0  0
   25.4254  -31.2194   -7.3927 N   0  0  0  0  0  0  0  0  0  0  0  0
   24.3329  -32.1074   -7.5641 C   0  0  0  0  0  0  0  0  0  0  0  0
   23.6913  -32.5817   -6.5742 O   0  0  0  0  0  0  0  0  0  0  0  0
   23.9312  -32.4901   -8.9279 C   0  0  0  0  0  0  0  0  0  0  0  0
   24.9814  -33.3283   -9.6133 C   0  0  2  0  0  0  0  0  0  0  0  0
   24.5313  -33.7202  -10.9226 N   0  0  0  0  0  0  0  0  0  0  0  0
   25.2921  -34.5408   -8.8059 C   0  0  0  0  0  0  0  0  0  0  0  0
   24.4693  -35.5055   -8.8206 O   0  0  0  0  0  0  0  0  0  0  0  0
   29.8232  -37.7112   -4.2738 N   0  0  0  0  0  0  0  0  0  0  0  0
   29.3867  -36.7244   -5.2000 C   0  0  0  0  0  0  0  0  0  0  0  0
   29.5163  -35.5168   -4.9054 O   0  0  0  0  0  0  0  0  0  0  0  0
   28.7797  -37.0875   -6.5110 C   0  0  0  0  0  0  0  0  0  0  0  0
   28.3054  -35.8365   -7.1833 C   0  0  0  0  0  0  0  0  0  0  0  0
   26.8151  -35.8118   -7.3304 C   0  0  2  0  0  0  0  0  0  0  0  0
   26.4812  -34.5862   -8.0522 N   0  0  0  0  0  0  0  0  0  0  0  0
   26.0937  -35.7573   -6.0518 C   0  0  0  0  0  0  0  0  0  0  0  0
   25.7475  -36.9333   -5.3583 O   0  0  0  0  0  0  0  0  0  0  0  0
   25.7405  -34.6914   -5.4946 O   0  0  0  0  0  0  0  0  0  0  0  0
  2  1  1  1
  2  3  1  0
  4  2  1  0
  4  6  1  0
  4  5  1  6
  6  7  2  0
  9  8  1  0
 10  9  2  0
 11  9  1  0
 12 11  1  1
 12 14  1  0
 13 12  1  0
 13  6  1  0
 14 15  2  0
 16 17  1  0
 17 19  1  0
 18 17  2  0
 19 20  1  0
 21 20  1  1
 21 23  1  0
 22 14  1  0
 22 21  1  0
 23 25  2  0
 23 24  1  0
M  END
$$$$
