TNQ.pdb
     RDKit          3D

 25 24  0  0  1  0  0  0  0  0999 V2000
   16.8469  -13.3150  -15.0212 C   0  0  0  0  0  0  0  0  0  0  0  0
   17.2859  -11.9423  -15.5002 C   0  0  1  0  0  0  0  0  0  0  0  0
   17.5475  -12.0361  -16.8574 O   0  0  0  0  0  0  0  0  0  0  0  0
   16.1686  -10.9888  -15.2081 C   0  0  2  0  0  0  0  0  0  0  0  0
   14.9820  -11.4774  -15.8890 N   0  0  0  0  0  0  0  0  0  0  0  0
   16.4382   -9.5975  -15.6187 C   0  0  0  0  0  0  0  0  0  0  0  0
   16.7078   -9.3086  -16.8195 O   0  0  0  0  0  0  0  0  0  0  0  0
   15.3527   -4.3235  -15.7455 N   0  0  0  0  0  0  0  0  0  0  0  0
   15.8586   -4.8716  -14.5393 C   0  0  0  0  0  0  0  0  0  0  0  0
   16.4924   -4.1643  -13.6941 O   0  0  0  0  0  0  0  0  0  0  0  0
   15.6426   -6.3008  -14.2589 C   0  0  0  0  0  0  0  0  0  0  0  0
   16.6569   -7.1739  -14.9548 C   0  0  2  0  0  0  0  0  0  0  0  0
   16.3995   -8.5610  -14.6721 N   0  0  0  0  0  0  0  0  0  0  0  0
   18.0371   -6.8211  -14.5198 C   0  0  0  0  0  0  0  0  0  0  0  0
   18.5230   -7.4120  -13.5085 O   0  0  0  0  0  0  0  0  0  0  0  0
   22.2577   -8.3323  -14.4586 N   0  0  0  0  0  0  0  0  0  0  0  0
   23.0342   -7.1924  -14.8047 C   0  0  0  0  0  0  0  0  0  0  0  0
   24.2263   -7.1354  -14.4337 O   0  0  0  0  0  0  0  0  0  0  0  0
   22.4689   -6.0644  -15.5965 C   0  0  0  0  0  0  0  0  0  0  0  0
   21.0131   -6.3247  -15.8310 C   0  0  0  0  0  0  0  0  0  0  0  0
   20.1489   -5.5814  -14.8594 C   0  0  2  0  0  0  0  0  0  0  0  0
   18.7626   -5.8487  -15.2352 N   0  0  0  0  0  0  0  0  0  0  0  0
   20.3240   -4.1235  -14.9047 C   0  0  0  0  0  0  0  0  0  0  0  0
   21.3342   -3.4860  -14.1583 O   0  0  0  0  0  0  0  0  0  0  0  0
   19.6092   -3.3557  -15.5908 O   0  0  0  0  0  0  0  0  0  0  0  0
  2  1  1  6
  2  3  1  0
  4  2  1  0
  4  6  1  0
  4  5  1  6
  6  7  2  0
  9  8  1  0
 10  9  2  0
 11  9  1  0
 12 11  1  1
 12 14  1  0
 13 12  1  0
 13  6  1  0
 14 15  2  0
 16 17  1  0
 17 19  1  0
 18 17  2  0
 19 20  1  0
 21 20  1  6
 21 23  1  0
 22 14  1  0
 22 21  1  0
 23 25  2  0
 23 24  1  0
M  END
$$$$
