TNQ.pdb
     RDKit          3D

 25 24  0  0  1  0  0  0  0  0999 V2000
   27.3344  -18.4648  -16.2239 C   0  0  0  0  0  0  0  0  0  0  0  0
   27.6654  -19.7550  -16.9535 C   0  0  1  0  0  0  0  0  0  0  0  0
   28.6637  -19.4728  -17.8716 O   0  0  0  0  0  0  0  0  0  0  0  0
   28.1123  -20.7478  -15.9250 C   0  0  2  0  0  0  0  0  0  0  0  0
   28.5309  -21.9501  -16.6247 N   0  0  0  0  0  0  0  0  0  0  0  0
   27.0814  -21.0890  -14.9261 C   0  0  0  0  0  0  0  0  0  0  0  0
   26.1383  -21.8841  -15.2023 O   0  0  0  0  0  0  0  0  0  0  0  0
   24.5163  -21.1828  -10.4621 N   0  0  0  0  0  0  0  0  0  0  0  0
   25.7667  -20.5812  -10.1691 C   0  0  0  0  0  0  0  0  0  0  0  0
   26.1187  -20.3095   -8.9780 O   0  0  0  0  0  0  0  0  0  0  0  0
   26.6827  -20.2627  -11.2770 C   0  0  0  0  0  0  0  0  0  0  0  0
   26.1560  -20.7482  -12.6044 C   0  0  2  0  0  0  0  0  0  0  0  0
   27.1319  -20.5299  -13.6390 N   0  0  0  0  0  0  0  0  0  0  0  0
   24.8896  -20.0459  -12.9534 C   0  0  0  0  0  0  0  0  0  0  0  0
   24.9531  -18.8419  -13.3460 O   0  0  0  0  0  0  0  0  0  0  0  0
   23.2036  -17.7925  -16.3359 N   0  0  0  0  0  0  0  0  0  0  0  0
   21.8853  -18.3231  -16.3859 C   0  0  0  0  0  0  0  0  0  0  0  0
   21.0205  -17.7351  -17.0703 O   0  0  0  0  0  0  0  0  0  0  0  0
   21.5045  -19.5590  -15.6468 C   0  0  0  0  0  0  0  0  0  0  0  0
   22.7052  -20.0674  -14.9108 C   0  0  0  0  0  0  0  0  0  0  0  0
   22.4663  -20.1393  -13.4339 C   0  0  2  0  0  0  0  0  0  0  0  0
   23.6634  -20.7295  -12.8396 N   0  0  0  0  0  0  0  0  0  0  0  0
   21.3392  -21.0027  -13.0567 C   0  0  0  0  0  0  0  0  0  0  0  0
   20.0210  -20.5079  -13.0195 O   0  0  0  0  0  0  0  0  0  0  0  0
   21.4591  -22.2116  -12.7478 O   0  0  0  0  0  0  0  0  0  0  0  0
  2  1  1  1
  2  3  1  0
  4  2  1  0
  4  6  1  0
  4  5  1  6
  6  7  2  0
  9  8  1  0
 10  9  2  0
 11  9  1  0
 12 11  1  1
 12 14  1  0
 13 12  1  0
 13  6  1  0
 14 15  2  0
 16 17  1  0
 17 19  1  0
 18 17  2  0
 19 20  1  0
 21 20  1  6
 21 23  1  0
 22 14  1  0
 22 21  1  0
 23 25  2  0
 23 24  1  0
M  END
$$$$
