TNQ.pdb
     RDKit          3D

 25 24  0  0  1  0  0  0  0  0999 V2000
   25.8242  -15.2950  -20.4777 C   0  0  0  0  0  0  0  0  0  0  0  0
   25.5384  -14.4663  -19.2375 C   0  0  1  0  0  0  0  0  0  0  0  0
   26.2209  -15.0457  -18.1802 O   0  0  0  0  0  0  0  0  0  0  0  0
   26.0096  -13.0718  -19.5135 C   0  0  2  0  0  0  0  0  0  0  0  0
   27.4238  -13.1401  -19.8391 N   0  0  0  0  0  0  0  0  0  0  0  0
   25.8031  -12.1314  -18.3955 C   0  0  0  0  0  0  0  0  0  0  0  0
   24.6449  -11.8788  -17.9565 O   0  0  0  0  0  0  0  0  0  0  0  0
   29.8457   -9.0444  -17.2965 N   0  0  0  0  0  0  0  0  0  0  0  0
   29.2651  -10.3054  -17.0062 C   0  0  0  0  0  0  0  0  0  0  0  0
   29.6827  -11.3775  -17.5470 O   0  0  0  0  0  0  0  0  0  0  0  0
   28.1469  -10.3734  -16.0507 C   0  0  0  0  0  0  0  0  0  0  0  0
   26.8158  -10.5138  -16.7461 C   0  0  2  0  0  0  0  0  0  0  0  0
   26.9014  -11.4952  -17.7949 N   0  0  0  0  0  0  0  0  0  0  0  0
   26.3826   -9.2075  -17.3157 C   0  0  0  0  0  0  0  0  0  0  0  0
   26.9518   -8.7869  -18.3678 O   0  0  0  0  0  0  0  0  0  0  0  0
   22.9344   -8.9711  -20.8728 N   0  0  0  0  0  0  0  0  0  0  0  0
   22.6657   -7.6117  -20.5534 C   0  0  0  0  0  0  0  0  0  0  0  0
   21.9682   -6.9313  -21.3360 O   0  0  0  0  0  0  0  0  0  0  0  0
   23.1909   -6.9747  -19.3135 C   0  0  0  0  0  0  0  0  0  0  0  0
   23.9648   -7.9965  -18.5397 C   0  0  0  0  0  0  0  0  0  0  0  0
   24.7173   -7.3821  -17.3997 C   0  0  2  0  0  0  0  0  0  0  0  0
   25.3608   -8.4773  -16.6779 N   0  0  0  0  0  0  0  0  0  0  0  0
   23.8608   -6.6850  -16.4308 C   0  0  0  0  0  0  0  0  0  0  0  0
   23.3876   -7.3352  -15.2744 O   0  0  0  0  0  0  0  0  0  0  0  0
   23.4952   -5.4924  -16.5539 O   0  0  0  0  0  0  0  0  0  0  0  0
  2  1  1  6
  2  3  1  0
  4  2  1  0
  4  6  1  0
  4  5  1  1
  6  7  2  0
  9  8  1  0
 10  9  2  0
 11  9  1  0
 12 11  1  6
 12 14  1  0
 13 12  1  0
 13  6  1  0
 14 15  2  0
 16 17  1  0
 17 19  1  0
 18 17  2  0
 19 20  1  0
 21 20  1  6
 21 23  1  0
 22 14  1  0
 22 21  1  0
 23 25  2  0
 23 24  1  0
M  END
$$$$
