TNQ.pdb
     RDKit          3D

 25 24  0  0  1  0  0  0  0  0999 V2000
   23.7191  -25.1470  -14.4504 C   0  0  0  0  0  0  0  0  0  0  0  0
   23.5029  -24.1894  -15.6092 C   0  0  1  0  0  0  0  0  0  0  0  0
   22.1533  -24.2076  -15.9214 O   0  0  0  0  0  0  0  0  0  0  0  0
   23.9574  -22.8349  -15.1602 C   0  0  2  0  0  0  0  0  0  0  0  0
   25.3812  -22.9164  -14.8833 N   0  0  0  0  0  0  0  0  0  0  0  0
   23.2496  -22.3231  -13.9710 C   0  0  0  0  0  0  0  0  0  0  0  0
   23.6292  -22.6220  -12.8028 O   0  0  0  0  0  0  0  0  0  0  0  0
   20.2380  -19.5328  -10.9699 N   0  0  0  0  0  0  0  0  0  0  0  0
   20.3052  -18.8529  -12.2127 C   0  0  0  0  0  0  0  0  0  0  0  0
   19.7926  -17.7011  -12.3768 O   0  0  0  0  0  0  0  0  0  0  0  0
   20.9887  -19.5007  -13.3447 C   0  0  0  0  0  0  0  0  0  0  0  0
   21.3684  -20.9274  -13.0354 C   0  0  2  0  0  0  0  0  0  0  0  0
   22.1311  -21.4873  -14.1195 N   0  0  0  0  0  0  0  0  0  0  0  0
   20.1515  -21.7532  -12.7993 C   0  0  0  0  0  0  0  0  0  0  0  0
   19.5374  -22.2275  -13.8022 O   0  0  0  0  0  0  0  0  0  0  0  0
   18.6821  -25.0353   -7.4534 N   0  0  0  0  0  0  0  0  0  0  0  0
   17.5048  -24.4778   -8.0238 C   0  0  0  0  0  0  0  0  0  0  0  0
   16.5135  -24.2740   -7.2905 O   0  0  0  0  0  0  0  0  0  0  0  0
   17.4182  -24.1294   -9.4695 C   0  0  0  0  0  0  0  0  0  0  0  0
   18.5835  -23.2586   -9.8241 C   0  0  0  0  0  0  0  0  0  0  0  0
   18.5466  -22.8329  -11.2596 C   0  0  2  0  0  0  0  0  0  0  0  0
   19.7160  -21.9852  -11.4800 N   0  0  0  0  0  0  0  0  0  0  0  0
   17.3697  -22.0261  -11.6090 C   0  0  0  0  0  0  0  0  0  0  0  0
   17.4537  -20.9823  -12.5509 O   0  0  0  0  0  0  0  0  0  0  0  0
   16.2324  -22.1986  -11.1109 O   0  0  0  0  0  0  0  0  0  0  0  0
  2  1  1  1
  2  3  1  0
  4  2  1  0
  4  6  1  0
  4  5  1  1
  6  7  2  0
  9  8  1  0
 10  9  2  0
 11  9  1  0
 12 11  1  6
 12 14  1  0
 13 12  1  0
 13  6  1  0
 14 15  2  0
 16 17  1  0
 17 19  1  0
 18 17  2  0
 19 20  1  0
 21 20  1  1
 21 23  1  0
 22 14  1  0
 22 21  1  0
 23 25  2  0
 23 24  1  0
M  END
$$$$
