TNQ.pdb
     RDKit          3D

 25 24  0  0  1  0  0  0  0  0999 V2000
   18.9325  -12.3745  -19.2708 C   0  0  0  0  0  0  0  0  0  0  0  0
   18.5585  -13.4766  -18.2950 C   0  0  1  0  0  0  0  0  0  0  0  0
   17.8764  -14.4511  -19.0052 O   0  0  0  0  0  0  0  0  0  0  0  0
   19.8308  -13.9999  -17.7030 C   0  0  2  0  0  0  0  0  0  0  0  0
   19.5034  -15.1871  -16.9324 N   0  0  0  0  0  0  0  0  0  0  0  0
   20.5413  -13.0323  -16.8452 C   0  0  0  0  0  0  0  0  0  0  0  0
   20.0643  -12.6687  -15.7323 O   0  0  0  0  0  0  0  0  0  0  0  0
   23.9873  -13.3059  -15.2215 N   0  0  0  0  0  0  0  0  0  0  0  0
   24.6784  -12.5490  -16.2016 C   0  0  0  0  0  0  0  0  0  0  0  0
   25.9056  -12.7519  -16.4648 O   0  0  0  0  0  0  0  0  0  0  0  0
   23.9528  -11.4984  -16.9348 C   0  0  0  0  0  0  0  0  0  0  0  0
   22.4910  -11.4566  -16.5651 C   0  0  2  0  0  0  0  0  0  0  0  0
   21.7715  -12.4939  -17.2556 N   0  0  0  0  0  0  0  0  0  0  0  0
   21.9038  -10.1297  -16.9015 C   0  0  0  0  0  0  0  0  0  0  0  0
   21.6028   -9.8893  -18.1096 O   0  0  0  0  0  0  0  0  0  0  0  0
   18.8223   -7.9680  -19.0928 N   0  0  0  0  0  0  0  0  0  0  0  0
   18.3969   -6.9701  -18.1733 C   0  0  0  0  0  0  0  0  0  0  0  0
   17.6567   -6.0482  -18.5785 O   0  0  0  0  0  0  0  0  0  0  0  0
   18.8074   -6.9911  -16.7415 C   0  0  0  0  0  0  0  0  0  0  0  0
   19.6099   -8.2300  -16.4904 C   0  0  0  0  0  0  0  0  0  0  0  0
   21.0470   -7.9169  -16.2073 C   0  0  2  0  0  0  0  0  0  0  0  0
   21.6993   -9.1824  -15.8793 N   0  0  0  0  0  0  0  0  0  0  0  0
   21.2447   -7.0297  -15.0533 C   0  0  0  0  0  0  0  0  0  0  0  0
   21.0622   -5.6374  -15.1632 O   0  0  0  0  0  0  0  0  0  0  0  0
   21.5812   -7.4306  -13.9143 O   0  0  0  0  0  0  0  0  0  0  0  0
  2  1  1  6
  2  3  1  0
  4  2  1  0
  4  6  1  0
  4  5  1  1
  6  7  2  0
  9  8  1  0
 10  9  2  0
 11  9  1  0
 12 11  1  6
 12 14  1  0
 13 12  1  0
 13  6  1  0
 14 15  2  0
 16 17  1  0
 17 19  1  0
 18 17  2  0
 19 20  1  0
 21 20  1  1
 21 23  1  0
 22 14  1  0
 22 21  1  0
 23 25  2  0
 23 24  1  0
M  END
$$$$
