QLW.pdb
     RDKit          3D

 32 33  0  0  1  0  0  0  0  0999 V2000
    9.0391  -17.0243   15.5907 N   0  0  0  0  0  0  0  0  0  0  0  0
    8.6587  -18.3899   15.9043 C   0  0  0  0  0  0  0  0  0  0  0  0
    7.7766  -18.8736   15.1688 O   0  0  0  0  0  0  0  0  0  0  0  0
    9.2984  -19.0936   17.0190 C   0  0  0  0  0  0  0  0  0  0  0  0
   10.2713  -18.2892   17.8001 C   0  0  0  0  0  0  0  0  0  0  0  0
   10.1009  -18.3964   19.2916 C   0  0  2  0  0  0  0  0  0  0  0  0
    8.8500  -18.9303   19.7101 N   0  0  0  0  0  0  0  0  0  0  0  0
   10.3906  -17.0783   19.9361 C   0  0  0  0  0  0  0  0  0  0  0  0
   11.4788  -16.4863   19.6876 O   0  0  0  0  0  0  0  0  0  0  0  0
    6.2632  -13.6476   20.7720 C   0  0  0  0  0  0  0  0  0  0  0  0
    7.6557  -14.1363   20.3881 C   0  0  1  0  0  0  0  0  0  0  0  0
    8.3652  -12.8899   19.8329 C   0  0  0  0  0  0  0  0  0  0  0  0
    8.4103  -14.5131   21.6348 C   0  0  0  0  0  0  0  0  0  0  0  0
    9.7676  -15.1090   21.3581 C   0  0  2  0  0  0  0  0  0  0  0  0
    9.5018  -16.4538   20.8192 N   0  0  0  0  0  0  0  0  0  0  0  0
   10.5857  -15.2782   22.5935 C   0  0  0  0  0  0  0  0  0  0  0  0
   11.3058  -14.3245   22.9998 O   0  0  0  0  0  0  0  0  0  0  0  0
   10.5853  -16.4838   23.3370 N   0  0  0  0  0  0  0  0  0  0  0  0
   10.0734  -16.6076   24.7014 C   0  0  1  0  0  0  0  0  0  0  0  0
    8.7268  -16.0008   24.8227 C   0  0  0  0  0  0  0  0  0  0  0  0
    8.6529  -14.9857   25.8840 C   0  0  0  0  0  0  0  0  0  0  0  0
    9.3871  -14.9567   27.0788 C   0  0  0  0  0  0  0  0  0  0  0  0
    9.0106  -13.9076   27.8040 N   0  0  0  0  0  0  0  0  0  0  0  0
    8.0592  -13.2259   27.1571 C   0  0  0  0  0  0  0  0  0  0  0  0
    7.3799  -12.0612   27.5012 C   0  0  0  0  0  0  0  0  0  0  0  0
    6.4580  -11.5516   26.6318 C   0  0  0  0  0  0  0  0  0  0  0  0
    6.1909  -12.1723   25.4223 C   0  0  0  0  0  0  0  0  0  0  0  0
    6.8828  -13.3257   25.1165 C   0  0  0  0  0  0  0  0  0  0  0  0
    7.8186  -13.8726   25.9630 C   0  0  0  0  0  0  0  0  0  0  0  0
   10.1195  -18.0065   25.0909 C   0  0  0  0  0  0  0  0  0  0  0  0
    9.7537  -18.9379   24.2922 O   0  0  0  0  0  0  0  0  0  0  0  0
   10.5594  -18.4754   26.3311 O   0  0  0  0  0  0  0  0  0  0  0  0
  2  1  1  0
  2  4  1  0
  3  2  2  0
  5  4  1  0
  6  5  1  0
  6  7  1  6
  8  6  1  0
  9  8  2  0
 11 10  1  1
 11 12  1  0
 11 13  1  0
 14 13  1  1
 14 15  1  0
 15  8  1  0
 16 18  1  0
 16 14  1  0
 17 16  2  0
 19 30  1  0
 19 18  1  0
 19 20  1  6
 21 29  1  0
 21 20  1  0
 22 21  2  0
 23 22  1  0
 23 24  1  0
 24 25  1  0
 24 29  2  0
 25 26  2  0
 26 27  1  0
 28 27  2  0
 29 28  1  0
 30 32  1  0
 31 30  2  0
M  END
$$$$
