QLW.pdb
     RDKit          3D

 32 33  0  0  1  0  0  0  0  0999 V2000
   11.3640  -17.2543   14.5839 N   0  0  0  0  0  0  0  0  0  0  0  0
   10.4343  -17.7872   15.5635 C   0  0  0  0  0  0  0  0  0  0  0  0
    9.9160  -18.8788   15.2591 O   0  0  0  0  0  0  0  0  0  0  0  0
   10.1635  -17.0468   16.7987 C   0  0  0  0  0  0  0  0  0  0  0  0
   11.2407  -17.1024   17.8187 C   0  0  0  0  0  0  0  0  0  0  0  0
   10.7480  -17.3381   19.2211 C   0  0  2  0  0  0  0  0  0  0  0  0
    9.4986  -18.0137   19.3066 N   0  0  0  0  0  0  0  0  0  0  0  0
   10.7422  -16.0521   19.9847 C   0  0  0  0  0  0  0  0  0  0  0  0
   11.7942  -15.3546   20.0428 O   0  0  0  0  0  0  0  0  0  0  0  0
    6.6329  -12.9182   19.5419 C   0  0  0  0  0  0  0  0  0  0  0  0
    8.0451  -13.4683   19.7094 C   0  0  1  0  0  0  0  0  0  0  0  0
    8.9638  -12.3326   19.2283 C   0  0  0  0  0  0  0  0  0  0  0  0
    8.3408  -13.6379   21.1755 C   0  0  0  0  0  0  0  0  0  0  0  0
    9.6516  -14.3319   21.4474 C   0  0  2  0  0  0  0  0  0  0  0  0
    9.6099  -15.5716   20.6529 N   0  0  0  0  0  0  0  0  0  0  0  0
    9.8104  -14.7246   22.8773 C   0  0  0  0  0  0  0  0  0  0  0  0
   10.0872  -13.8445   23.7385 O   0  0  0  0  0  0  0  0  0  0  0  0
    9.6607  -16.0648   23.3105 N   0  0  0  0  0  0  0  0  0  0  0  0
    9.5601  -16.4688   24.7126 C   0  0  1  0  0  0  0  0  0  0  0  0
    8.2408  -17.0803   24.9979 C   0  0  0  0  0  0  0  0  0  0  0  0
    7.2925  -16.1329   25.6024 C   0  0  0  0  0  0  0  0  0  0  0  0
    5.9486  -16.3719   25.9253 C   0  0  0  0  0  0  0  0  0  0  0  0
    5.4062  -15.2597   26.4122 N   0  0  0  0  0  0  0  0  0  0  0  0
    6.3181  -14.2818   26.4353 C   0  0  0  0  0  0  0  0  0  0  0  0
    6.2292  -12.9640   26.8735 C   0  0  0  0  0  0  0  0  0  0  0  0
    7.3383  -12.1695   26.8101 C   0  0  0  0  0  0  0  0  0  0  0  0
    8.5407  -12.6519   26.3195 C   0  0  0  0  0  0  0  0  0  0  0  0
    8.5901  -13.9627   25.8929 C   0  0  0  0  0  0  0  0  0  0  0  0
    7.4973  -14.7964   25.9389 C   0  0  0  0  0  0  0  0  0  0  0  0
   10.6841  -17.3330   25.0299 C   0  0  0  0  0  0  0  0  0  0  0  0
   11.3943  -17.8743   24.1125 O   0  0  0  0  0  0  0  0  0  0  0  0
   11.1053  -17.6518   26.3232 O   0  0  0  0  0  0  0  0  0  0  0  0
  2  1  1  0
  2  4  1  0
  3  2  2  0
  5  4  1  0
  6  5  1  0
  6  7  1  6
  8  6  1  0
  9  8  2  0
 11 10  1  1
 11 12  1  0
 11 13  1  0
 14 13  1  1
 14 15  1  0
 15  8  1  0
 16 18  1  0
 16 14  1  0
 17 16  2  0
 19 30  1  0
 19 18  1  0
 19 20  1  6
 21 29  1  0
 21 20  1  0
 22 21  2  0
 23 22  1  0
 23 24  1  0
 24 25  1  0
 24 29  2  0
 25 26  2  0
 26 27  1  0
 28 27  2  0
 29 28  1  0
 30 32  1  0
 31 30  2  0
M  END
$$$$
