QLW.pdb
     RDKit          3D

 32 33  0  0  1  0  0  0  0  0999 V2000
   10.6166  -17.7077   15.5128 N   0  0  0  0  0  0  0  0  0  0  0  0
    9.3625  -18.2572   15.9958 C   0  0  0  0  0  0  0  0  0  0  0  0
    8.5548  -18.5884   15.1065 O   0  0  0  0  0  0  0  0  0  0  0  0
    9.1216  -18.3839   17.4356 C   0  0  0  0  0  0  0  0  0  0  0  0
   10.2638  -18.0029   18.3041 C   0  0  0  0  0  0  0  0  0  0  0  0
    9.9933  -18.1534   19.7769 C   0  0  2  0  0  0  0  0  0  0  0  0
    8.7717  -18.8114   20.0928 N   0  0  0  0  0  0  0  0  0  0  0  0
   10.1059  -16.8259   20.4564 C   0  0  0  0  0  0  0  0  0  0  0  0
   11.1856  -16.1740   20.3803 O   0  0  0  0  0  0  0  0  0  0  0  0
    6.1522  -13.4422   19.9720 C   0  0  0  0  0  0  0  0  0  0  0  0
    7.5332  -14.0745   20.1069 C   0  0  1  0  0  0  0  0  0  0  0  0
    8.5039  -13.0017   19.5851 C   0  0  0  0  0  0  0  0  0  0  0  0
    7.8604  -14.2447   21.5662 C   0  0  0  0  0  0  0  0  0  0  0  0
    9.1830  -14.9270   21.8094 C   0  0  2  0  0  0  0  0  0  0  0  0
    9.0570  -16.2567   21.1881 N   0  0  0  0  0  0  0  0  0  0  0  0
    9.4652  -15.1377   23.2586 C   0  0  0  0  0  0  0  0  0  0  0  0
    9.8235  -14.1604   23.9724 O   0  0  0  0  0  0  0  0  0  0  0  0
    9.3451  -16.4090   23.8715 N   0  0  0  0  0  0  0  0  0  0  0  0
    9.7538  -16.7009   25.2451 C   0  0  1  0  0  0  0  0  0  0  0  0
    8.5761  -16.9396   26.1125 C   0  0  0  0  0  0  0  0  0  0  0  0
    7.6402  -15.8055   26.1273 C   0  0  0  0  0  0  0  0  0  0  0  0
    6.2929  -15.8161   25.7375 C   0  0  0  0  0  0  0  0  0  0  0  0
    5.7903  -14.5901   25.8497 N   0  0  0  0  0  0  0  0  0  0  0  0
    6.7317  -13.7524   26.2976 C   0  0  0  0  0  0  0  0  0  0  0  0
    6.6765  -12.3929   26.5895 C   0  0  0  0  0  0  0  0  0  0  0  0
    7.7957  -11.7730   27.0676 C   0  0  0  0  0  0  0  0  0  0  0  0
    8.9757  -12.4718   27.2642 C   0  0  0  0  0  0  0  0  0  0  0  0
    8.9926  -13.8175   26.9623 C   0  0  0  0  0  0  0  0  0  0  0  0
    7.8889  -14.4803   26.4785 C   0  0  0  0  0  0  0  0  0  0  0  0
   10.6968  -17.8059   25.2255 C   0  0  0  0  0  0  0  0  0  0  0  0
   10.9684  -18.4371   24.1452 O   0  0  0  0  0  0  0  0  0  0  0  0
   11.3931  -18.2806   26.3396 O   0  0  0  0  0  0  0  0  0  0  0  0
  2  1  1  0
  2  4  1  0
  3  2  2  0
  5  4  1  0
  6  5  1  0
  6  7  1  6
  8  6  1  0
  9  8  2  0
 11 10  1  1
 11 12  1  0
 11 13  1  0
 14 13  1  1
 14 15  1  0
 15  8  1  0
 16 18  1  0
 16 14  1  0
 17 16  2  0
 19 30  1  0
 19 18  1  0
 19 20  1  1
 21 29  1  0
 21 20  1  0
 22 21  2  0
 23 22  1  0
 23 24  1  0
 24 25  1  0
 24 29  2  0
 25 26  2  0
 26 27  1  0
 28 27  2  0
 29 28  1  0
 30 32  1  0
 31 30  2  0
M  END
$$$$
