QLW.pdb
     RDKit          3D

 32 33  0  0  1  0  0  0  0  0999 V2000
    4.3914  -21.3509   24.5040 N   0  0  0  0  0  0  0  0  0  0  0  0
    5.5332  -20.5024   24.2136 C   0  0  0  0  0  0  0  0  0  0  0  0
    6.3409  -20.3659   25.1527 O   0  0  0  0  0  0  0  0  0  0  0  0
    5.6679  -19.8771   22.8953 C   0  0  0  0  0  0  0  0  0  0  0  0
    6.8535  -18.9991   22.7297 C   0  0  0  0  0  0  0  0  0  0  0  0
    7.0194  -18.4453   21.3402 C   0  0  2  0  0  0  0  0  0  0  0  0
    7.0717  -19.4270   20.3114 N   0  0  0  0  0  0  0  0  0  0  0  0
    8.1955  -17.5227   21.2937 C   0  0  0  0  0  0  0  0  0  0  0  0
    9.2466  -17.8793   20.6898 O   0  0  0  0  0  0  0  0  0  0  0  0
    7.5439  -12.3810   20.2444 C   0  0  0  0  0  0  0  0  0  0  0  0
    8.0770  -13.8069   20.3329 C   0  0  1  0  0  0  0  0  0  0  0  0
    9.1555  -13.8867   19.2393 C   0  0  0  0  0  0  0  0  0  0  0  0
    8.8063  -13.9837   21.6377 C   0  0  0  0  0  0  0  0  0  0  0  0
    9.3660  -15.3707   21.8296 C   0  0  2  0  0  0  0  0  0  0  0  0
    8.1935  -16.2597   21.8974 N   0  0  0  0  0  0  0  0  0  0  0  0
   10.1119  -15.5191   23.1124 C   0  0  0  0  0  0  0  0  0  0  0  0
   11.1969  -14.8960   23.2783 O   0  0  0  0  0  0  0  0  0  0  0  0
    9.6429  -16.3434   24.1645 N   0  0  0  0  0  0  0  0  0  0  0  0
   10.3366  -16.5228   25.4395 C   0  0  1  0  0  0  0  0  0  0  0  0
    9.7245  -15.6899   26.5014 C   0  0  0  0  0  0  0  0  0  0  0  0
    8.3141  -15.3716   26.2338 C   0  0  0  0  0  0  0  0  0  0  0  0
    7.3075  -16.2626   25.8337 C   0  0  0  0  0  0  0  0  0  0  0  0
    6.1734  -15.5939   25.6469 N   0  0  0  0  0  0  0  0  0  0  0  0
    6.3643  -14.2952   25.9027 C   0  0  0  0  0  0  0  0  0  0  0  0
    5.4808  -13.2207   25.8671 C   0  0  0  0  0  0  0  0  0  0  0  0
    5.9359  -11.9785   26.2064 C   0  0  0  0  0  0  0  0  0  0  0  0
    7.2537  -11.7738   26.5819 C   0  0  0  0  0  0  0  0  0  0  0  0
    8.1003  -12.8625   26.6038 C   0  0  0  0  0  0  0  0  0  0  0  0
    7.6834  -14.1297   26.2694 C   0  0  0  0  0  0  0  0  0  0  0  0
   10.3690  -17.9403   25.7565 C   0  0  0  0  0  0  0  0  0  0  0  0
    9.6952  -18.7944   25.0815 O   0  0  0  0  0  0  0  0  0  0  0  0
   11.1173  -18.5101   26.7895 O   0  0  0  0  0  0  0  0  0  0  0  0
  2  1  1  0
  2  4  1  0
  3  2  2  0
  5  4  1  0
  6  5  1  0
  6  7  1  6
  8  6  1  0
  9  8  2  0
 11 10  1  1
 11 12  1  0
 11 13  1  0
 14 13  1  1
 14 15  1  0
 15  8  1  0
 16 18  1  0
 16 14  1  0
 17 16  2  0
 19 30  1  0
 19 18  1  0
 19 20  1  1
 21 29  1  0
 21 20  1  0
 22 21  2  0
 23 22  1  0
 23 24  1  0
 24 25  1  0
 24 29  2  0
 25 26  2  0
 26 27  1  0
 28 27  2  0
 29 28  1  0
 30 32  1  0
 31 30  2  0
M  END
$$$$
