QLW.pdb
     RDKit          3D

 32 33  0  0  1  0  0  0  0  0999 V2000
   12.8726  -16.2188   17.0742 N   0  0  0  0  0  0  0  0  0  0  0  0
   11.8913  -17.1486   16.5447 C   0  0  0  0  0  0  0  0  0  0  0  0
   12.2409  -17.7528   15.5124 O   0  0  0  0  0  0  0  0  0  0  0  0
   10.6004  -17.3171   17.2173 C   0  0  0  0  0  0  0  0  0  0  0  0
   10.4890  -16.6631   18.5454 C   0  0  0  0  0  0  0  0  0  0  0  0
   10.0671  -17.5898   19.6537 C   0  0  2  0  0  0  0  0  0  0  0  0
    8.8296  -18.2566   19.4323 N   0  0  0  0  0  0  0  0  0  0  0  0
   10.0863  -16.8655   20.9620 C   0  0  0  0  0  0  0  0  0  0  0  0
   11.1228  -16.2329   21.3114 O   0  0  0  0  0  0  0  0  0  0  0  0
    7.5558  -13.7817   24.6247 C   0  0  0  0  0  0  0  0  0  0  0  0
    7.4541  -15.2818   24.8789 C   0  0  1  0  0  0  0  0  0  0  0  0
    5.9938  -15.5048   25.3069 C   0  0  0  0  0  0  0  0  0  0  0  0
    7.6133  -16.0176   23.5754 C   0  0  0  0  0  0  0  0  0  0  0  0
    9.0475  -16.1382   23.1253 C   0  0  2  0  0  0  0  0  0  0  0  0
    8.9945  -16.8522   21.8380 N   0  0  0  0  0  0  0  0  0  0  0  0
    9.8766  -16.9579   24.0552 C   0  0  0  0  0  0  0  0  0  0  0  0
    9.7281  -18.2109   24.0829 O   0  0  0  0  0  0  0  0  0  0  0  0
   10.8362  -16.3758   24.9193 N   0  0  0  0  0  0  0  0  0  0  0  0
   11.7039  -17.1384   25.8163 C   0  0  1  0  0  0  0  0  0  0  0  0
   12.4315  -16.2412   26.7447 C   0  0  0  0  0  0  0  0  0  0  0  0
   11.5497  -15.6181   27.7430 C   0  0  0  0  0  0  0  0  0  0  0  0
   11.3394  -16.0380   29.0646 C   0  0  0  0  0  0  0  0  0  0  0  0
   10.4380  -15.2487   29.6414 N   0  0  0  0  0  0  0  0  0  0  0  0
   10.0303  -14.3155   28.7746 C   0  0  0  0  0  0  0  0  0  0  0  0
    9.1256  -13.2685   28.9225 C   0  0  0  0  0  0  0  0  0  0  0  0
    8.9073  -12.4288   27.8677 C   0  0  0  0  0  0  0  0  0  0  0  0
    9.5675  -12.6028   26.6621 C   0  0  0  0  0  0  0  0  0  0  0  0
   10.4556  -13.6525   26.5526 C   0  0  0  0  0  0  0  0  0  0  0  0
   10.7044  -14.5212   27.5893 C   0  0  0  0  0  0  0  0  0  0  0  0
   10.9056  -18.1493   26.4885 C   0  0  0  0  0  0  0  0  0  0  0  0
   11.4247  -19.2379   26.9183 O   0  0  0  0  0  0  0  0  0  0  0  0
    9.5351  -18.0472   26.7392 O   0  0  0  0  0  0  0  0  0  0  0  0
  2  1  1  0
  2  4  1  0
  3  2  2  0
  5  4  1  0
  6  5  1  0
  6  7  1  6
  8  6  1  0
  9  8  2  0
 11 10  1  6
 11 12  1  0
 11 13  1  0
 14 13  1  1
 14 15  1  0
 15  8  1  0
 16 18  1  0
 16 14  1  0
 17 16  2  0
 19 30  1  0
 19 18  1  0
 19 20  1  1
 21 29  1  0
 21 20  1  0
 22 21  2  0
 23 22  1  0
 23 24  1  0
 24 25  1  0
 24 29  2  0
 25 26  2  0
 26 27  1  0
 28 27  2  0
 29 28  1  0
 30 32  1  0
 31 30  2  0
M  END
$$$$
