QLW.pdb
     RDKit          3D

 32 33  0  0  1  0  0  0  0  0999 V2000
   14.4708  -20.2161   19.6026 N   0  0  0  0  0  0  0  0  0  0  0  0
   13.4968  -20.7212   18.6517 C   0  0  0  0  0  0  0  0  0  0  0  0
   13.8866  -21.6789   17.9561 O   0  0  0  0  0  0  0  0  0  0  0  0
   12.1704  -20.1052   18.5608 C   0  0  0  0  0  0  0  0  0  0  0  0
   11.9177  -19.0028   19.5224 C   0  0  0  0  0  0  0  0  0  0  0  0
   11.0394  -17.9058   18.9834 C   0  0  2  0  0  0  0  0  0  0  0  0
   11.5337  -17.2714   17.8094 N   0  0  0  0  0  0  0  0  0  0  0  0
   10.7302  -16.9198   20.0644 C   0  0  0  0  0  0  0  0  0  0  0  0
   11.6738  -16.3152   20.6481 O   0  0  0  0  0  0  0  0  0  0  0  0
    5.9876  -14.1513   20.0404 C   0  0  0  0  0  0  0  0  0  0  0  0
    7.4605  -14.5388   20.1147 C   0  0  1  0  0  0  0  0  0  0  0  0
    8.2082  -13.2006   20.2395 C   0  0  0  0  0  0  0  0  0  0  0  0
    7.7165  -15.2702   21.4052 C   0  0  0  0  0  0  0  0  0  0  0  0
    9.1531  -15.6939   21.5804 C   0  0  2  0  0  0  0  0  0  0  0  0
    9.4237  -16.6263   20.4727 N   0  0  0  0  0  0  0  0  0  0  0  0
    9.3842  -16.4358   22.8533 C   0  0  0  0  0  0  0  0  0  0  0  0
    9.5946  -17.6798   22.8203 O   0  0  0  0  0  0  0  0  0  0  0  0
    9.3762  -15.7889   24.1134 N   0  0  0  0  0  0  0  0  0  0  0  0
    9.5345  -16.4798   25.3927 C   0  0  1  0  0  0  0  0  0  0  0  0
    9.3658  -15.5434   26.5288 C   0  0  0  0  0  0  0  0  0  0  0  0
    8.0839  -14.8241   26.4888 C   0  0  0  0  0  0  0  0  0  0  0  0
    6.8083  -15.3792   26.3097 C   0  0  0  0  0  0  0  0  0  0  0  0
    5.9021  -14.4063   26.2851 N   0  0  0  0  0  0  0  0  0  0  0  0
    6.5028  -13.2217   26.4402 C   0  0  0  0  0  0  0  0  0  0  0  0
    5.9765  -11.9350   26.5019 C   0  0  0  0  0  0  0  0  0  0  0  0
    6.8242  -10.8821   26.6973 C   0  0  0  0  0  0  0  0  0  0  0  0
    8.1895  -11.0745   26.8334 C   0  0  0  0  0  0  0  0  0  0  0  0
    8.6745  -12.3639   26.7652 C   0  0  0  0  0  0  0  0  0  0  0  0
    7.8564  -13.4518   26.5693 C   0  0  0  0  0  0  0  0  0  0  0  0
    8.6214  -17.6094   25.4280 C   0  0  0  0  0  0  0  0  0  0  0  0
    7.6021  -17.6726   24.6558 O   0  0  0  0  0  0  0  0  0  0  0  0
    8.7529  -18.7157   26.2708 O   0  0  0  0  0  0  0  0  0  0  0  0
  2  1  1  0
  2  4  1  0
  3  2  2  0
  5  4  1  0
  6  5  1  0
  6  7  1  6
  8  6  1  0
  9  8  2  0
 11 10  1  1
 11 12  1  0
 11 13  1  0
 14 13  1  1
 14 15  1  0
 15  8  1  0
 16 18  1  0
 16 14  1  0
 17 16  2  0
 19 30  1  0
 19 18  1  0
 19 20  1  1
 21 29  1  0
 21 20  1  0
 22 21  2  0
 23 22  1  0
 23 24  1  0
 24 25  1  0
 24 29  2  0
 25 26  2  0
 26 27  1  0
 28 27  2  0
 29 28  1  0
 30 32  1  0
 31 30  2  0
M  END
$$$$
