QLW.pdb
     RDKit          3D

 32 33  0  0  1  0  0  0  0  0999 V2000
   10.5257  -20.2491   15.2323 N   0  0  0  0  0  0  0  0  0  0  0  0
   10.9475  -21.2637   16.1813 C   0  0  0  0  0  0  0  0  0  0  0  0
   11.3127  -22.3414   15.6733 O   0  0  0  0  0  0  0  0  0  0  0  0
   10.9191  -20.9825   17.6191 C   0  0  0  0  0  0  0  0  0  0  0  0
   10.3601  -19.6593   17.9940 C   0  0  0  0  0  0  0  0  0  0  0  0
   10.3346  -19.4001   19.4763 C   0  0  2  0  0  0  0  0  0  0  0  0
    9.2566  -20.0184   20.1694 N   0  0  0  0  0  0  0  0  0  0  0  0
   10.3995  -17.9294   19.7400 C   0  0  0  0  0  0  0  0  0  0  0  0
   11.4466  -17.2867   19.4450 O   0  0  0  0  0  0  0  0  0  0  0  0
    8.3486  -12.9672   19.6239 C   0  0  0  0  0  0  0  0  0  0  0  0
    7.8097  -13.8221   20.7658 C   0  0  1  0  0  0  0  0  0  0  0  0
    6.2936  -13.5633   20.7624 C   0  0  0  0  0  0  0  0  0  0  0  0
    7.9753  -15.2770   20.4172 C   0  0  0  0  0  0  0  0  0  0  0  0
    9.4045  -15.7525   20.4879 C   0  0  2  0  0  0  0  0  0  0  0  0
    9.3399  -17.2132   20.3093 N   0  0  0  0  0  0  0  0  0  0  0  0
   10.0332  -15.4937   21.8153 C   0  0  0  0  0  0  0  0  0  0  0  0
   10.6779  -14.4248   22.0019 O   0  0  0  0  0  0  0  0  0  0  0  0
    9.9331  -16.4138   22.8875 N   0  0  0  0  0  0  0  0  0  0  0  0
   10.1960  -16.0773   24.2863 C   0  0  1  0  0  0  0  0  0  0  0  0
    9.9758  -14.6335   24.5379 C   0  0  0  0  0  0  0  0  0  0  0  0
    9.1640  -14.3817   25.7378 C   0  0  0  0  0  0  0  0  0  0  0  0
    9.1574  -15.1272   26.9259 C   0  0  0  0  0  0  0  0  0  0  0  0
    8.2589  -14.6173   27.7631 N   0  0  0  0  0  0  0  0  0  0  0  0
    7.6593  -13.5632   27.1993 C   0  0  0  0  0  0  0  0  0  0  0  0
    6.6803  -12.7035   27.6881 C   0  0  0  0  0  0  0  0  0  0  0  0
    6.2544  -11.6709   26.9021 C   0  0  0  0  0  0  0  0  0  0  0  0
    6.7779  -11.4686   25.6354 C   0  0  0  0  0  0  0  0  0  0  0  0
    7.7455  -12.3422   25.1845 C   0  0  0  0  0  0  0  0  0  0  0  0
    8.2022  -13.3946   25.9429 C   0  0  0  0  0  0  0  0  0  0  0  0
    9.3950  -16.9452   25.1325 C   0  0  0  0  0  0  0  0  0  0  0  0
    8.3722  -17.5671   24.6785 O   0  0  0  0  0  0  0  0  0  0  0  0
    9.6464  -17.1956   26.4837 O   0  0  0  0  0  0  0  0  0  0  0  0
  2  1  1  0
  2  4  1  0
  3  2  2  0
  5  4  1  0
  6  5  1  0
  6  7  1  6
  8  6  1  0
  9  8  2  0
 11 10  1  6
 11 12  1  0
 11 13  1  0
 14 13  1  1
 14 15  1  0
 15  8  1  0
 16 18  1  0
 16 14  1  0
 17 16  2  0
 19 30  1  0
 19 18  1  0
 19 20  1  6
 21 29  1  0
 21 20  1  0
 22 21  2  0
 23 22  1  0
 23 24  1  0
 24 25  1  0
 24 29  2  0
 25 26  2  0
 26 27  1  0
 28 27  2  0
 29 28  1  0
 30 32  1  0
 31 30  2  0
M  END
$$$$
