QLW.pdb
     RDKit          3D

 32 33  0  0  1  0  0  0  0  0999 V2000
   12.3551  -18.2885   16.6363 N   0  0  0  0  0  0  0  0  0  0  0  0
   11.2470  -19.1720   16.9521 C   0  0  0  0  0  0  0  0  0  0  0  0
   10.9220  -19.9566   16.0401 O   0  0  0  0  0  0  0  0  0  0  0  0
   10.5966  -19.0958   18.2629 C   0  0  0  0  0  0  0  0  0  0  0  0
   11.5117  -19.1787   19.4289 C   0  0  0  0  0  0  0  0  0  0  0  0
   10.8251  -19.0379   20.7607 C   0  0  2  0  0  0  0  0  0  0  0  0
    9.6410  -19.8139   20.9040 N   0  0  0  0  0  0  0  0  0  0  0  0
   10.5872  -17.5928   21.0639 C   0  0  0  0  0  0  0  0  0  0  0  0
   11.5475  -16.7741   20.9996 O   0  0  0  0  0  0  0  0  0  0  0  0
    8.1830  -13.0243   20.3580 C   0  0  0  0  0  0  0  0  0  0  0  0
    7.3925  -13.8773   21.3443 C   0  0  1  0  0  0  0  0  0  0  0  0
    5.9335  -13.7673   20.8703 C   0  0  0  0  0  0  0  0  0  0  0  0
    7.7712  -15.3229   21.1645 C   0  0  0  0  0  0  0  0  0  0  0  0
    9.1299  -15.6618   21.7239 C   0  0  2  0  0  0  0  0  0  0  0  0
    9.3314  -17.0897   21.4236 N   0  0  0  0  0  0  0  0  0  0  0  0
    9.1993  -15.5042   23.2052 C   0  0  0  0  0  0  0  0  0  0  0  0
    8.6601  -14.5023   23.7515 O   0  0  0  0  0  0  0  0  0  0  0  0
    9.8557  -16.4482   24.0324 N   0  0  0  0  0  0  0  0  0  0  0  0
    9.8317  -16.4168   25.4944 C   0  0  1  0  0  0  0  0  0  0  0  0
    8.4883  -16.7665   26.0133 C   0  0  0  0  0  0  0  0  0  0  0  0
    7.5342  -15.6514   25.9216 C   0  0  0  0  0  0  0  0  0  0  0  0
    6.2247  -15.6982   25.4210 C   0  0  0  0  0  0  0  0  0  0  0  0
    5.6924  -14.4802   25.4603 N   0  0  0  0  0  0  0  0  0  0  0  0
    6.5775  -13.6135   25.9641 C   0  0  0  0  0  0  0  0  0  0  0  0
    6.4736  -12.2490   26.2164 C   0  0  0  0  0  0  0  0  0  0  0  0
    7.5372  -11.5957   26.7707 C   0  0  0  0  0  0  0  0  0  0  0  0
    8.7090  -12.2659   27.0826 C   0  0  0  0  0  0  0  0  0  0  0  0
    8.7755  -13.6177   26.8167 C   0  0  0  0  0  0  0  0  0  0  0  0
    7.7284  -14.3136   26.2592 C   0  0  0  0  0  0  0  0  0  0  0  0
   10.8917  -17.2745   25.9961 C   0  0  0  0  0  0  0  0  0  0  0  0
   11.6388  -17.9500   25.2058 O   0  0  0  0  0  0  0  0  0  0  0  0
   11.2082  -17.4455   27.3459 O   0  0  0  0  0  0  0  0  0  0  0  0
  2  1  1  0
  2  4  1  0
  3  2  2  0
  5  4  1  0
  6  5  1  0
  6  7  1  6
  8  6  1  0
  9  8  2  0
 11 10  1  6
 11 12  1  0
 11 13  1  0
 14 13  1  1
 14 15  1  0
 15  8  1  0
 16 18  1  0
 16 14  1  0
 17 16  2  0
 19 30  1  0
 19 18  1  0
 19 20  1  1
 21 29  1  0
 21 20  1  0
 22 21  2  0
 23 22  1  0
 23 24  1  0
 24 25  1  0
 24 29  2  0
 25 26  2  0
 26 27  1  0
 28 27  2  0
 29 28  1  0
 30 32  1  0
 31 30  2  0
M  END
$$$$
