QNR.pdb
     RDKit          3D

 29 28  0  0  1  0  0  0  0  0999 V2000
   27.6368  -23.6691  -16.5203 N   0  0  0  0  0  0  0  0  0  0  0  0
   28.9789  -23.1730  -16.4608 C   0  0  0  0  0  0  0  0  0  0  0  0
   29.8869  -23.9127  -16.8613 O   0  0  0  0  0  0  0  0  0  0  0  0
   29.1595  -21.8091  -15.9221 C   0  0  0  0  0  0  0  0  0  0  0  0
   27.8722  -21.1897  -15.4850 C   0  0  0  0  0  0  0  0  0  0  0  0
   27.2165  -20.4207  -16.6083 C   0  0  2  0  0  0  0  0  0  0  0  0
   28.0229  -19.2474  -16.9638 N   0  0  0  0  0  0  0  0  0  0  0  0
   25.8816  -19.9265  -16.1939 C   0  0  0  0  0  0  0  0  0  0  0  0
   25.7907  -18.9958  -15.3427 O   0  0  0  0  0  0  0  0  0  0  0  0
   20.9398  -18.7858  -15.9056 N   0  0  0  0  0  0  0  0  0  0  0  0
   21.4617  -18.7214  -17.2518 C   0  0  0  0  0  0  0  0  0  0  0  0
   20.7278  -18.1508  -18.0849 O   0  0  0  0  0  0  0  0  0  0  0  0
   22.7778  -19.3262  -17.4843 C   0  0  0  0  0  0  0  0  0  0  0  0
   23.4201  -19.9410  -16.2883 C   0  0  2  0  0  0  0  0  0  0  0  0
   24.7075  -20.4726  -16.7296 N   0  0  0  0  0  0  0  0  0  0  0  0
   22.5815  -21.0879  -15.7850 C   0  0  0  0  0  0  0  0  0  0  0  0
   22.6144  -22.1831  -16.3756 O   0  0  0  0  0  0  0  0  0  0  0  0
   17.7882  -25.3836  -11.3251 N   0  0  0  0  0  0  0  0  0  0  0  0
   18.5155  -24.7920  -10.2739 C   0  0  0  0  0  0  0  0  0  0  0  0
   18.9405  -25.5300   -9.3056 N   0  0  0  0  0  0  0  0  0  0  0  0
   18.8181  -23.4092  -10.2065 N   0  0  0  0  0  0  0  0  0  0  0  0
   18.5171  -22.5134  -11.2649 C   0  0  0  0  0  0  0  0  0  0  0  0
   19.2615  -22.8313  -12.5552 C   0  0  0  0  0  0  0  0  0  0  0  0
   20.1895  -21.7190  -12.9443 C   0  0  0  0  0  0  0  0  0  0  0  0
   20.8818  -22.0737  -14.2354 C   0  0  2  0  0  0  0  0  0  0  0  0
   21.7490  -20.9558  -14.6494 N   0  0  0  0  0  0  0  0  0  0  0  0
   19.9188  -22.2543  -15.3200 C   0  0  0  0  0  0  0  0  0  0  0  0
   19.4738  -21.1900  -16.0665 O   0  0  0  0  0  0  0  0  0  0  0  0
   19.4693  -23.3874  -15.5971 O   0  0  0  0  0  0  0  0  0  0  0  0
  2  1  1  0
  3  2  2  0
  4  2  1  0
  5  4  1  0
  6  5  1  0
  6  7  1  1
  8  6  1  0
  9  8  2  0
 10 11  1  0
 11 13  1  0
 12 11  2  0
 14 13  1  6
 14 15  1  0
 15  8  1  0
 16 14  1  0
 16 17  2  0
 18 19  1  0
 19 20  2  0
 21 22  1  0
 21 19  1  0
 23 24  1  0
 23 22  1  0
 25 24  1  1
 25 26  1  0
 26 16  1  0
 27 25  1  0
 28 27  1  0
 29 27  2  0
M  END
$$$$
