QNR.pdb
     RDKit          3D

 29 28  0  0  1  0  0  0  0  0999 V2000
   25.9357  -27.9463  -16.6427 N   0  0  0  0  0  0  0  0  0  0  0  0
   27.2428  -28.4747  -16.3911 C   0  0  0  0  0  0  0  0  0  0  0  0
   27.3690  -29.7049  -16.3398 O   0  0  0  0  0  0  0  0  0  0  0  0
   28.3332  -27.4933  -16.2146 C   0  0  0  0  0  0  0  0  0  0  0  0
   27.8714  -26.0840  -16.3947 C   0  0  0  0  0  0  0  0  0  0  0  0
   27.8398  -25.6923  -17.8537 C   0  0  2  0  0  0  0  0  0  0  0  0
   29.2036  -25.5895  -18.3854 N   0  0  0  0  0  0  0  0  0  0  0  0
   27.2008  -24.3656  -18.0250 C   0  0  0  0  0  0  0  0  0  0  0  0
   27.9160  -23.3242  -18.0797 O   0  0  0  0  0  0  0  0  0  0  0  0
   22.3463  -21.8762  -20.5253 N   0  0  0  0  0  0  0  0  0  0  0  0
   23.2660  -21.8381  -19.4112 C   0  0  0  0  0  0  0  0  0  0  0  0
   23.3456  -20.7424  -18.8184 O   0  0  0  0  0  0  0  0  0  0  0  0
   23.9932  -23.0753  -19.1067 C   0  0  0  0  0  0  0  0  0  0  0  0
   25.2360  -22.9059  -18.3019 C   0  0  2  0  0  0  0  0  0  0  0  0
   25.8091  -24.2386  -18.1289 N   0  0  0  0  0  0  0  0  0  0  0  0
   24.8974  -22.3554  -16.9402 C   0  0  0  0  0  0  0  0  0  0  0  0
   24.6535  -23.1357  -16.0015 O   0  0  0  0  0  0  0  0  0  0  0  0
   28.1106  -21.3683  -10.6319 N   0  0  0  0  0  0  0  0  0  0  0  0
   26.7313  -21.0825  -10.6241 C   0  0  0  0  0  0  0  0  0  0  0  0
   26.0012  -21.5173   -9.6541 N   0  0  0  0  0  0  0  0  0  0  0  0
   26.0767  -20.3331  -11.6331 N   0  0  0  0  0  0  0  0  0  0  0  0
   26.7867  -19.6643  -12.6636 C   0  0  0  0  0  0  0  0  0  0  0  0
   25.8784  -18.9833  -13.6789 C   0  0  0  0  0  0  0  0  0  0  0  0
   26.0041  -19.6079  -15.0368 C   0  0  0  0  0  0  0  0  0  0  0  0
   24.7912  -20.4601  -15.3097 C   0  0  2  0  0  0  0  0  0  0  0  0
   24.8476  -20.9637  -16.6940 N   0  0  0  0  0  0  0  0  0  0  0  0
   23.5617  -19.6748  -15.2208 C   0  0  0  0  0  0  0  0  0  0  0  0
   23.1053  -19.1937  -14.0174 O   0  0  0  0  0  0  0  0  0  0  0  0
   22.8869  -19.4211  -16.2421 O   0  0  0  0  0  0  0  0  0  0  0  0
  2  1  1  0
  3  2  2  0
  4  2  1  0
  5  4  1  0
  6  5  1  0
  6  7  1  1
  8  6  1  0
  9  8  2  0
 10 11  1  0
 11 13  1  0
 12 11  2  0
 14 13  1  6
 14 15  1  0
 15  8  1  0
 16 14  1  0
 16 17  2  0
 18 19  1  0
 19 20  2  0
 21 22  1  0
 21 19  1  0
 23 24  1  0
 23 22  1  0
 25 24  1  6
 25 26  1  0
 26 16  1  0
 27 25  1  0
 28 27  1  0
 29 27  2  0
M  END
$$$$
