QNR.pdb
     RDKit          3D

 29 28  0  0  1  0  0  0  0  0999 V2000
   26.3288  -21.2497  -15.5504 N   0  0  0  0  0  0  0  0  0  0  0  0
   27.6108  -20.7141  -15.2032 C   0  0  0  0  0  0  0  0  0  0  0  0
   28.5609  -21.5021  -15.1116 O   0  0  0  0  0  0  0  0  0  0  0  0
   27.6837  -19.2547  -14.9843 C   0  0  0  0  0  0  0  0  0  0  0  0
   26.3683  -18.5772  -15.1904 C   0  0  0  0  0  0  0  0  0  0  0  0
   26.0313  -18.4540  -16.6582 C   0  0  2  0  0  0  0  0  0  0  0  0
   26.9409  -17.5078  -17.3143 N   0  0  0  0  0  0  0  0  0  0  0  0
   24.6543  -17.9344  -16.8364 C   0  0  0  0  0  0  0  0  0  0  0  0
   24.4193  -16.7030  -16.6710 O   0  0  0  0  0  0  0  0  0  0  0  0
   23.2746  -18.7148  -20.8398 N   0  0  0  0  0  0  0  0  0  0  0  0
   22.5795  -17.8929  -19.8755 C   0  0  0  0  0  0  0  0  0  0  0  0
   22.6567  -16.6616  -20.0652 O   0  0  0  0  0  0  0  0  0  0  0  0
   21.8708  -18.5895  -18.7961 C   0  0  0  0  0  0  0  0  0  0  0  0
   22.2751  -18.2069  -17.4137 C   0  0  2  0  0  0  0  0  0  0  0  0
   23.5977  -18.7852  -17.1877 N   0  0  0  0  0  0  0  0  0  0  0  0
   21.3195  -18.8046  -16.4130 C   0  0  0  0  0  0  0  0  0  0  0  0
   21.6585  -19.8069  -15.7573 O   0  0  0  0  0  0  0  0  0  0  0  0
   16.8896  -21.2415  -10.7943 N   0  0  0  0  0  0  0  0  0  0  0  0
   17.5437  -22.0203  -11.7688 C   0  0  0  0  0  0  0  0  0  0  0  0
   17.0043  -23.1231  -12.1632 N   0  0  0  0  0  0  0  0  0  0  0  0
   18.7829  -21.6661  -12.3581 N   0  0  0  0  0  0  0  0  0  0  0  0
   19.4454  -20.4475  -12.0590 C   0  0  0  0  0  0  0  0  0  0  0  0
   18.8461  -19.2432  -12.7733 C   0  0  0  0  0  0  0  0  0  0  0  0
   19.7785  -18.7006  -13.8155 C   0  0  0  0  0  0  0  0  0  0  0  0
   19.1446  -18.8413  -15.1758 C   0  0  2  0  0  0  0  0  0  0  0  0
   20.0349  -18.2551  -16.1941 N   0  0  0  0  0  0  0  0  0  0  0  0
   17.8947  -18.0881  -15.2577 C   0  0  0  0  0  0  0  0  0  0  0  0
   16.7034  -18.6310  -14.8404 O   0  0  0  0  0  0  0  0  0  0  0  0
   17.8750  -16.9249  -15.7152 O   0  0  0  0  0  0  0  0  0  0  0  0
  2  1  1  0
  3  2  2  0
  4  2  1  0
  5  4  1  0
  6  5  1  0
  6  7  1  6
  8  6  1  0
  9  8  2  0
 10 11  1  0
 11 13  1  0
 12 11  2  0
 14 13  1  6
 14 15  1  0
 15  8  1  0
 16 14  1  0
 16 17  2  0
 18 19  1  0
 19 20  2  0
 21 22  1  0
 21 19  1  0
 23 24  1  0
 23 22  1  0
 25 24  1  1
 25 26  1  0
 26 16  1  0
 27 25  1  0
 28 27  1  0
 29 27  2  0
M  END
$$$$
