QNR.pdb
     RDKit          3D

 29 28  0  0  1  0  0  0  0  0999 V2000
   28.6995  -17.7675  -17.8103 N   0  0  0  0  0  0  0  0  0  0  0  0
   27.7289  -18.6785  -18.3386 C   0  0  0  0  0  0  0  0  0  0  0  0
   26.9411  -18.2525  -19.1929 O   0  0  0  0  0  0  0  0  0  0  0  0
   27.7568  -20.0583  -17.8110 C   0  0  0  0  0  0  0  0  0  0  0  0
   28.7814  -20.2422  -16.7395 C   0  0  0  0  0  0  0  0  0  0  0  0
   28.7348  -21.6370  -16.1602 C   0  0  2  0  0  0  0  0  0  0  0  0
   28.7402  -22.6373  -17.2338 N   0  0  0  0  0  0  0  0  0  0  0  0
   27.4903  -21.8376  -15.3799 C   0  0  0  0  0  0  0  0  0  0  0  0
   26.6703  -22.7374  -15.7220 O   0  0  0  0  0  0  0  0  0  0  0  0
   24.2157  -21.9854  -11.3677 N   0  0  0  0  0  0  0  0  0  0  0  0
   25.0590  -20.8208  -11.2224 C   0  0  0  0  0  0  0  0  0  0  0  0
   24.7293  -20.0295  -10.3150 O   0  0  0  0  0  0  0  0  0  0  0  0
   26.1927  -20.7014  -12.1459 C   0  0  0  0  0  0  0  0  0  0  0  0
   26.0069  -21.3500  -13.4747 C   0  0  2  0  0  0  0  0  0  0  0  0
   27.1997  -21.0451  -14.2612 N   0  0  0  0  0  0  0  0  0  0  0  0
   24.8123  -20.7557  -14.1760 C   0  0  0  0  0  0  0  0  0  0  0  0
   24.8920  -19.6184  -14.6758 O   0  0  0  0  0  0  0  0  0  0  0  0
   17.1647  -23.3686  -13.0566 N   0  0  0  0  0  0  0  0  0  0  0  0
   18.1592  -24.1577  -13.6668 C   0  0  0  0  0  0  0  0  0  0  0  0
   17.9338  -25.4105  -13.8731 N   0  0  0  0  0  0  0  0  0  0  0  0
   19.4195  -23.6569  -14.0781 N   0  0  0  0  0  0  0  0  0  0  0  0
   19.7603  -22.2832  -13.9776 C   0  0  0  0  0  0  0  0  0  0  0  0
   20.1516  -21.6589  -15.3106 C   0  0  0  0  0  0  0  0  0  0  0  0
   21.6015  -21.8856  -15.6207 C   0  0  0  0  0  0  0  0  0  0  0  0
   22.4303  -20.8269  -14.9394 C   0  0  2  0  0  0  0  0  0  0  0  0
   23.5901  -21.4587  -14.2845 N   0  0  0  0  0  0  0  0  0  0  0  0
   21.6776  -20.1714  -13.8716 C   0  0  0  0  0  0  0  0  0  0  0  0
   20.9221  -19.0494  -14.1134 O   0  0  0  0  0  0  0  0  0  0  0  0
   21.7037  -20.6141  -12.7028 O   0  0  0  0  0  0  0  0  0  0  0  0
  2  1  1  0
  3  2  2  0
  4  2  1  0
  5  4  1  0
  6  5  1  0
  6  7  1  6
  8  6  1  0
  9  8  2  0
 10 11  1  0
 11 13  1  0
 12 11  2  0
 14 13  1  1
 14 15  1  0
 15  8  1  0
 16 14  1  0
 16 17  2  0
 18 19  1  0
 19 20  2  0
 21 22  1  0
 21 19  1  0
 23 24  1  0
 23 22  1  0
 25 24  1  1
 25 26  1  0
 26 16  1  0
 27 25  1  0
 28 27  1  0
 29 27  2  0
M  END
$$$$
