QNR.pdb
     RDKit          3D

 29 28  0  0  1  0  0  0  0  0999 V2000
   25.1321  -20.5229  -10.0749 N   0  0  0  0  0  0  0  0  0  0  0  0
   26.5539  -20.4858  -10.2424 C   0  0  0  0  0  0  0  0  0  0  0  0
   27.2587  -20.7579   -9.2620 O   0  0  0  0  0  0  0  0  0  0  0  0
   27.0553  -20.1232  -11.5841 C   0  0  0  0  0  0  0  0  0  0  0  0
   25.9525  -19.8698  -12.5595 C   0  0  0  0  0  0  0  0  0  0  0  0
   25.8455  -20.9812  -13.5776 C   0  0  2  0  0  0  0  0  0  0  0  0
   27.0229  -20.9879  -14.4534 N   0  0  0  0  0  0  0  0  0  0  0  0
   24.6569  -20.7858  -14.4417 C   0  0  0  0  0  0  0  0  0  0  0  0
   24.8069  -20.4945  -15.6630 O   0  0  0  0  0  0  0  0  0  0  0  0
   20.1432  -21.7031  -16.5318 N   0  0  0  0  0  0  0  0  0  0  0  0
   20.4601  -22.6533  -15.4900 C   0  0  0  0  0  0  0  0  0  0  0  0
   19.7866  -23.7042  -15.4995 O   0  0  0  0  0  0  0  0  0  0  0  0
   21.5236  -22.2802  -14.5510 C   0  0  0  0  0  0  0  0  0  0  0  0
   22.2412  -21.0128  -14.8670 C   0  0  2  0  0  0  0  0  0  0  0  0
   23.3587  -20.9183  -13.9307 N   0  0  0  0  0  0  0  0  0  0  0  0
   21.3304  -19.8338  -14.6382 C   0  0  0  0  0  0  0  0  0  0  0  0
   20.8449  -19.6383  -13.5088 O   0  0  0  0  0  0  0  0  0  0  0  0
   24.4039  -15.8370  -18.4541 N   0  0  0  0  0  0  0  0  0  0  0  0
   23.1936  -16.0365  -19.1465 C   0  0  0  0  0  0  0  0  0  0  0  0
   23.2107  -16.6289  -20.2918 N   0  0  0  0  0  0  0  0  0  0  0  0
   21.9297  -15.6203  -18.6589 N   0  0  0  0  0  0  0  0  0  0  0  0
   21.7653  -15.0368  -17.3760 C   0  0  0  0  0  0  0  0  0  0  0  0
   21.5013  -16.0581  -16.2774 C   0  0  0  0  0  0  0  0  0  0  0  0
   20.2089  -16.7859  -16.5007 C   0  0  0  0  0  0  0  0  0  0  0  0
   20.0416  -17.8448  -15.4411 C   0  0  2  0  0  0  0  0  0  0  0  0
   21.0070  -18.9332  -15.6793 N   0  0  0  0  0  0  0  0  0  0  0  0
   18.7187  -18.4620  -15.5138 C   0  0  0  0  0  0  0  0  0  0  0  0
   17.7638  -18.2228  -14.5553 O   0  0  0  0  0  0  0  0  0  0  0  0
   18.4200  -19.2308  -16.4532 O   0  0  0  0  0  0  0  0  0  0  0  0
  2  1  1  0
  3  2  2  0
  4  2  1  0
  5  4  1  0
  6  5  1  0
  6  7  1  6
  8  6  1  0
  9  8  2  0
 10 11  1  0
 11 13  1  0
 12 11  2  0
 14 13  1  1
 14 15  1  0
 15  8  1  0
 16 14  1  0
 16 17  2  0
 18 19  1  0
 19 20  2  0
 21 22  1  0
 21 19  1  0
 23 24  1  0
 23 22  1  0
 25 24  1  6
 25 26  1  0
 26 16  1  0
 27 25  1  0
 28 27  1  0
 29 27  2  0
M  END
$$$$
