QNR.pdb
     RDKit          3D

 29 28  0  0  1  0  0  0  0  0999 V2000
   18.1654  -13.4823  -16.0544 N   0  0  0  0  0  0  0  0  0  0  0  0
   19.1246  -12.9470  -16.9733 C   0  0  0  0  0  0  0  0  0  0  0  0
   19.1248  -13.3870  -18.1302 O   0  0  0  0  0  0  0  0  0  0  0  0
   20.0354  -11.9070  -16.4518 C   0  0  0  0  0  0  0  0  0  0  0  0
   19.7668  -11.5744  -15.0204 C   0  0  0  0  0  0  0  0  0  0  0  0
   18.8408  -10.3875  -14.8906 C   0  0  2  0  0  0  0  0  0  0  0  0
   18.7158   -9.6931  -16.1772 N   0  0  0  0  0  0  0  0  0  0  0  0
   19.3782   -9.4096  -13.9146 C   0  0  0  0  0  0  0  0  0  0  0  0
   19.5902   -9.7640  -12.7194 O   0  0  0  0  0  0  0  0  0  0  0  0
   21.0617   -5.1338  -11.6454 N   0  0  0  0  0  0  0  0  0  0  0  0
   21.2032   -4.9287  -13.0690 C   0  0  0  0  0  0  0  0  0  0  0  0
   21.7750   -3.8711  -13.4044 O   0  0  0  0  0  0  0  0  0  0  0  0
   20.6657   -5.9732  -13.9478 C   0  0  0  0  0  0  0  0  0  0  0  0
   20.0251   -7.1263  -13.2542 C   0  0  2  0  0  0  0  0  0  0  0  0
   19.6595   -8.0892  -14.2904 N   0  0  0  0  0  0  0  0  0  0  0  0
   18.7650   -6.6754  -12.5606 C   0  0  0  0  0  0  0  0  0  0  0  0
   17.6596   -6.8732  -13.0976 O   0  0  0  0  0  0  0  0  0  0  0  0
   12.6357   -9.9216   -8.7124 N   0  0  0  0  0  0  0  0  0  0  0  0
   12.6039   -8.6177   -8.1804 C   0  0  0  0  0  0  0  0  0  0  0  0
   11.7033   -8.3121   -7.3096 N   0  0  0  0  0  0  0  0  0  0  0  0
   13.5149   -7.5956   -8.5462 N   0  0  0  0  0  0  0  0  0  0  0  0
   14.7714   -7.8761   -9.1426 C   0  0  0  0  0  0  0  0  0  0  0  0
   15.5575   -6.6248   -9.5116 C   0  0  0  0  0  0  0  0  0  0  0  0
   16.8107   -6.9631  -10.2633 C   0  0  0  0  0  0  0  0  0  0  0  0
   17.5447   -5.6929  -10.6093 C   0  0  2  0  0  0  0  0  0  0  0  0
   18.8011   -6.0269  -11.3044 N   0  0  0  0  0  0  0  0  0  0  0  0
   17.9369   -4.9634   -9.4051 C   0  0  0  0  0  0  0  0  0  0  0  0
   17.0345   -4.1987   -8.7059 O   0  0  0  0  0  0  0  0  0  0  0  0
   19.1109   -5.0130   -8.9784 O   0  0  0  0  0  0  0  0  0  0  0  0
  2  1  1  0
  3  2  2  0
  4  2  1  0
  5  4  1  0
  6  5  1  0
  6  7  1  6
  8  6  1  0
  9  8  2  0
 10 11  1  0
 11 13  1  0
 12 11  2  0
 14 13  1  6
 14 15  1  0
 15  8  1  0
 16 14  1  0
 16 17  2  0
 18 19  1  0
 19 20  2  0
 21 22  1  0
 21 19  1  0
 23 24  1  0
 23 22  1  0
 25 24  1  1
 25 26  1  0
 26 16  1  0
 27 25  1  0
 28 27  1  0
 29 27  2  0
M  END
$$$$
