QNR.pdb
     RDKit          3D

 29 28  0  0  1  0  0  0  0  0999 V2000
   20.1485  -14.8711  -16.8893 N   0  0  0  0  0  0  0  0  0  0  0  0
   20.9642  -15.9057  -17.4506 C   0  0  0  0  0  0  0  0  0  0  0  0
   20.6031  -17.0784  -17.2883 O   0  0  0  0  0  0  0  0  0  0  0  0
   22.1745  -15.4748  -18.1804 C   0  0  0  0  0  0  0  0  0  0  0  0
   22.2911  -13.9883  -18.2711 C   0  0  0  0  0  0  0  0  0  0  0  0
   23.7243  -13.5336  -18.1215 C   0  0  2  0  0  0  0  0  0  0  0  0
   24.5844  -14.6650  -17.7561 N   0  0  0  0  0  0  0  0  0  0  0  0
   23.8428  -12.5254  -17.0412 C   0  0  0  0  0  0  0  0  0  0  0  0
   23.3631  -12.7689  -15.8968 O   0  0  0  0  0  0  0  0  0  0  0  0
   26.7248  -11.6954  -15.2321 N   0  0  0  0  0  0  0  0  0  0  0  0
   26.9895  -10.3857  -15.7829 C   0  0  0  0  0  0  0  0  0  0  0  0
   28.1878  -10.0358  -15.7827 O   0  0  0  0  0  0  0  0  0  0  0  0
   25.8351   -9.6250  -16.2736 C   0  0  0  0  0  0  0  0  0  0  0  0
   24.5211  -10.3213  -16.1753 C   0  0  2  0  0  0  0  0  0  0  0  0
   24.4807  -11.2973  -17.2617 N   0  0  0  0  0  0  0  0  0  0  0  0
   23.3989   -9.3362  -16.3814 C   0  0  0  0  0  0  0  0  0  0  0  0
   23.1974   -8.8571  -17.5125 O   0  0  0  0  0  0  0  0  0  0  0  0
   17.8493  -11.6159  -18.6053 N   0  0  0  0  0  0  0  0  0  0  0  0
   17.9591  -11.8976  -17.2295 C   0  0  0  0  0  0  0  0  0  0  0  0
   17.8796  -13.1198  -16.8262 N   0  0  0  0  0  0  0  0  0  0  0  0
   18.1547  -10.9062  -16.2360 N   0  0  0  0  0  0  0  0  0  0  0  0
   18.1136   -9.5185  -16.5293 C   0  0  0  0  0  0  0  0  0  0  0  0
   19.4935   -8.8926  -16.6835 C   0  0  0  0  0  0  0  0  0  0  0  0
   20.1420   -8.6536  -15.3523 C   0  0  0  0  0  0  0  0  0  0  0  0
   21.4701   -7.9711  -15.5581 C   0  0  2  0  0  0  0  0  0  0  0  0
   22.5589   -8.9352  -15.3168 N   0  0  0  0  0  0  0  0  0  0  0  0
   21.6680   -6.8951  -14.5889 C   0  0  0  0  0  0  0  0  0  0  0  0
   21.2488   -5.6126  -14.8481 O   0  0  0  0  0  0  0  0  0  0  0  0
   22.2300   -7.1131  -13.4937 O   0  0  0  0  0  0  0  0  0  0  0  0
  2  1  1  0
  3  2  2  0
  4  2  1  0
  5  4  1  0
  6  5  1  0
  6  7  1  1
  8  6  1  0
  9  8  2  0
 10 11  1  0
 11 13  1  0
 12 11  2  0
 14 13  1  6
 14 15  1  0
 15  8  1  0
 16 14  1  0
 16 17  2  0
 18 19  1  0
 19 20  2  0
 21 22  1  0
 21 19  1  0
 23 24  1  0
 23 22  1  0
 25 24  1  1
 25 26  1  0
 26 16  1  0
 27 25  1  0
 28 27  1  0
 29 27  2  0
M  END
$$$$
