QNR.pdb
     RDKit          3D

 29 28  0  0  1  0  0  0  0  0999 V2000
   31.4268  -17.4795  -21.8775 N   0  0  0  0  0  0  0  0  0  0  0  0
   32.5247  -16.6664  -22.3068 C   0  0  0  0  0  0  0  0  0  0  0  0
   32.8309  -16.6950  -23.5058 O   0  0  0  0  0  0  0  0  0  0  0  0
   33.1985  -15.8587  -21.2692 C   0  0  0  0  0  0  0  0  0  0  0  0
   32.5000  -14.5647  -21.0059 C   0  0  0  0  0  0  0  0  0  0  0  0
   33.2376  -13.7340  -19.9817 C   0  0  2  0  0  0  0  0  0  0  0  0
   33.9409  -14.6015  -19.0299 N   0  0  0  0  0  0  0  0  0  0  0  0
   32.2893  -12.9039  -19.2010 C   0  0  0  0  0  0  0  0  0  0  0  0
   31.4622  -13.4573  -18.4209 O   0  0  0  0  0  0  0  0  0  0  0  0
   30.0080   -8.9678  -16.8464 N   0  0  0  0  0  0  0  0  0  0  0  0
   31.2436   -8.4763  -17.4125 C   0  0  0  0  0  0  0  0  0  0  0  0
   31.5433   -7.3031  -17.1095 O   0  0  0  0  0  0  0  0  0  0  0  0
   31.9963   -9.3998  -18.2685 C   0  0  0  0  0  0  0  0  0  0  0  0
   31.3712  -10.7372  -18.4725 C   0  0  2  0  0  0  0  0  0  0  0  0
   32.2893  -11.5067  -19.3089 N   0  0  0  0  0  0  0  0  0  0  0  0
   30.0668  -10.5891  -19.2131 C   0  0  0  0  0  0  0  0  0  0  0  0
   30.0108  -10.8618  -20.4264 O   0  0  0  0  0  0  0  0  0  0  0  0
   23.9401  -15.3649  -21.4183 N   0  0  0  0  0  0  0  0  0  0  0  0
   23.5326  -14.0812  -21.8307 C   0  0  0  0  0  0  0  0  0  0  0  0
   22.5559  -13.9655  -22.6647 N   0  0  0  0  0  0  0  0  0  0  0  0
   24.1375  -12.8809  -21.3815 N   0  0  0  0  0  0  0  0  0  0  0  0
   25.3436  -12.8718  -20.6342 C   0  0  0  0  0  0  0  0  0  0  0  0
   25.8658  -11.4700  -20.3475 C   0  0  0  0  0  0  0  0  0  0  0  0
   27.1899  -11.5085  -19.6439 C   0  0  0  0  0  0  0  0  0  0  0  0
   27.6133  -10.1040  -19.2974 C   0  0  2  0  0  0  0  0  0  0  0  0
   28.8916  -10.1444  -18.5642 N   0  0  0  0  0  0  0  0  0  0  0  0
   26.6552   -9.4700  -18.3939 C   0  0  0  0  0  0  0  0  0  0  0  0
   25.4488   -8.9952  -18.8489 O   0  0  0  0  0  0  0  0  0  0  0  0
   26.9102   -9.3390  -17.1771 O   0  0  0  0  0  0  0  0  0  0  0  0
  2  1  1  0
  3  2  2  0
  4  2  1  0
  5  4  1  0
  6  5  1  0
  6  7  1  1
  8  6  1  0
  9  8  2  0
 10 11  1  0
 11 13  1  0
 12 11  2  0
 14 13  1  6
 14 15  1  0
 15  8  1  0
 16 14  1  0
 16 17  2  0
 18 19  1  0
 19 20  2  0
 21 22  1  0
 21 19  1  0
 23 24  1  0
 23 22  1  0
 25 24  1  1
 25 26  1  0
 26 16  1  0
 27 25  1  0
 28 27  1  0
 29 27  2  0
M  END
$$$$
