YTK.pdb
     RDKit          3D

 29 29  0  0  1  0  0  0  0  0999 V2000
   17.4622  -12.9620  -17.7455 O   0  0  0  0  0  0  0  0  0  0  0  0
   17.8276  -12.0054  -16.8074 C   0  0  0  0  0  0  0  0  0  0  0  0
   17.5419  -10.6730  -16.9218 C   0  0  0  0  0  0  0  0  0  0  0  0
   17.9114   -9.7354  -15.9822 C   0  0  0  0  0  0  0  0  0  0  0  0
   18.6111  -10.1329  -14.8491 C   0  0  0  0  0  0  0  0  0  0  0  0
   19.0272   -9.1583  -13.8145 C   0  0  0  0  0  0  0  0  0  0  0  0
   20.2742   -8.3941  -14.2434 C   0  0  2  0  0  0  0  0  0  0  0  0
   21.4002   -9.2608  -14.0875 N   0  0  0  0  0  0  0  0  0  0  0  0
   20.4269   -7.1887  -13.4106 C   0  0  0  0  0  0  0  0  0  0  0  0
   20.9566   -7.2894  -12.2526 O   0  0  0  0  0  0  0  0  0  0  0  0
   18.9002  -11.4742  -14.7314 C   0  0  0  0  0  0  0  0  0  0  0  0
   18.5304  -12.4109  -15.6713 C   0  0  0  0  0  0  0  0  0  0  0  0
   20.8076   -3.3612  -14.8999 C   0  0  0  0  0  0  0  0  0  0  0  0
   21.1968   -3.8139  -13.5076 C   0  0  1  0  0  0  0  0  0  0  0  0
   21.2625   -2.6726  -12.6782 O   0  0  0  0  0  0  0  0  0  0  0  0
   20.1611   -4.7216  -12.9469 C   0  0  2  0  0  0  0  0  0  0  0  0
   20.0215   -5.8847  -13.8012 N   0  0  0  0  0  0  0  0  0  0  0  0
   18.8692   -4.0970  -12.6425 C   0  0  0  0  0  0  0  0  0  0  0  0
   18.0075   -4.0810  -13.5611 O   0  0  0  0  0  0  0  0  0  0  0  0
   18.5492   -3.5268  -11.4029 N   0  0  0  0  0  0  0  0  0  0  0  0
   17.1411   -2.9577  -11.1484 C   0  0  1  0  0  0  0  0  0  0  0  0
   16.9047   -3.2390   -9.7529 C   0  0  0  0  0  0  0  0  0  0  0  0
   15.6997   -2.9677   -8.9993 C   0  0  0  0  0  0  0  0  0  0  0  0
   14.5715   -3.8479   -8.7758 C   0  0  0  0  0  0  0  0  0  0  0  0
   13.2982   -3.4958   -8.1701 C   0  0  0  0  0  0  0  0  0  0  0  0
   13.3595   -3.1767   -6.7561 N   0  0  0  0  0  0  0  0  0  0  0  0
   17.1272   -1.6515  -11.7482 C   0  0  0  0  0  0  0  0  0  0  0  0
   16.0668   -1.3052  -12.3967 O   0  0  0  0  0  0  0  0  0  0  0  0
   18.0996   -0.6749  -11.7235 O   0  0  0  0  0  0  0  0  0  0  0  0
  2 12  2  0
  2  1  1  0
  3  2  1  0
  4  5  1  0
  4  3  2  0
  5 11  2  0
  6  5  1  0
  7  9  1  0
  7  6  1  0
  7  8  1  1
  9 10  2  0
 11 12  1  0
 14 13  1  6
 14 15  1  0
 16 14  1  0
 16 17  1  6
 17  9  1  0
 18 16  1  0
 19 18  2  0
 20 18  1  0
 21 20  1  0
 21 22  1  1
 23 22  1  0
 24 25  1  0
 24 23  1  0
 26 25  1  0
 27 21  1  0
 27 29  1  0
 28 27  2  0
M  END
$$$$
