YTK.pdb
     RDKit          3D

 29 29  0  0  1  0  0  0  0  0999 V2000
   23.5700  -21.2997   -7.4028 O   0  0  0  0  0  0  0  0  0  0  0  0
   24.1479  -21.0334   -8.6372 C   0  0  0  0  0  0  0  0  0  0  0  0
   25.4640  -20.7058   -8.8115 C   0  0  0  0  0  0  0  0  0  0  0  0
   26.0232  -20.4441  -10.0433 C   0  0  0  0  0  0  0  0  0  0  0  0
   25.2351  -20.5085  -11.1863 C   0  0  0  0  0  0  0  0  0  0  0  0
   25.7955  -20.2351  -12.5296 C   0  0  0  0  0  0  0  0  0  0  0  0
   25.2489  -21.2095  -13.5662 C   0  0  2  0  0  0  0  0  0  0  0  0
   26.1033  -22.3552  -13.5909 N   0  0  0  0  0  0  0  0  0  0  0  0
   25.2140  -20.5587  -14.8873 C   0  0  0  0  0  0  0  0  0  0  0  0
   26.2535  -20.5891  -15.6291 O   0  0  0  0  0  0  0  0  0  0  0  0
   23.9092  -20.8382  -11.0136 C   0  0  0  0  0  0  0  0  0  0  0  0
   23.3511  -21.0996   -9.7817 C   0  0  0  0  0  0  0  0  0  0  0  0
   25.8350  -20.9876  -17.3441 C   0  0  0  0  0  0  0  0  0  0  0  0
   24.4431  -20.5119  -17.7065 C   0  0  1  0  0  0  0  0  0  0  0  0
   23.5517  -21.5937  -17.5345 O   0  0  0  0  0  0  0  0  0  0  0  0
   24.0119  -19.4206  -16.7931 C   0  0  2  0  0  0  0  0  0  0  0  0
   24.0857  -19.8799  -15.4198 N   0  0  0  0  0  0  0  0  0  0  0  0
   22.7162  -18.8080  -17.1056 C   0  0  0  0  0  0  0  0  0  0  0  0
   21.7155  -19.2180  -16.4598 O   0  0  0  0  0  0  0  0  0  0  0  0
   22.5371  -17.8066  -18.0696 N   0  0  0  0  0  0  0  0  0  0  0  0
   21.1639  -17.1320  -18.2449 C   0  0  1  0  0  0  0  0  0  0  0  0
   21.4674  -15.9185  -18.9644 C   0  0  0  0  0  0  0  0  0  0  0  0
   20.5961  -14.7808  -19.1646 C   0  0  0  0  0  0  0  0  0  0  0  0
   20.8870  -13.5488  -19.8682 C   0  0  0  0  0  0  0  0  0  0  0  0
   20.0174  -12.3911  -19.9941 C   0  0  0  0  0  0  0  0  0  0  0  0
   20.5933  -11.2668  -20.7077 N   0  0  0  0  0  0  0  0  0  0  0  0
   20.2697  -18.1642  -18.6934 C   0  0  0  0  0  0  0  0  0  0  0  0
   20.7734  -19.1288  -19.3867 O   0  0  0  0  0  0  0  0  0  0  0  0
   18.9145  -18.2925  -18.4767 O   0  0  0  0  0  0  0  0  0  0  0  0
  2 12  2  0
  2  1  1  0
  3  2  1  0
  4  5  1  0
  4  3  2  0
  5 11  2  0
  6  5  1  0
  7  9  1  0
  7  6  1  0
  7  8  1  6
  9 10  2  0
 11 12  1  0
 14 13  1  1
 14 15  1  0
 16 14  1  0
 16 17  1  1
 17  9  1  0
 18 16  1  0
 19 18  2  0
 20 18  1  0
 21 20  1  0
 21 22  1  6
 23 22  1  0
 24 25  1  0
 24 23  1  0
 26 25  1  0
 27 21  1  0
 27 29  1  0
 28 27  2  0
M  END
$$$$
