YTK.pdb
     RDKit          3D

 29 29  0  0  1  0  0  0  0  0999 V2000
   22.0831  -21.9387   -6.2858 O   0  0  0  0  0  0  0  0  0  0  0  0
   22.8222  -21.4667   -7.3627 C   0  0  0  0  0  0  0  0  0  0  0  0
   24.0962  -20.9802   -7.2620 C   0  0  0  0  0  0  0  0  0  0  0  0
   24.8171  -20.5151   -8.3401 C   0  0  0  0  0  0  0  0  0  0  0  0
   24.2479  -20.5280   -9.6079 C   0  0  0  0  0  0  0  0  0  0  0  0
   24.9874  -20.0378  -10.7938 C   0  0  0  0  0  0  0  0  0  0  0  0
   25.5553  -21.1937  -11.6087 C   0  0  2  0  0  0  0  0  0  0  0  0
   26.6741  -21.7289  -10.8981 N   0  0  0  0  0  0  0  0  0  0  0  0
   25.9674  -20.7075  -12.9368 C   0  0  0  0  0  0  0  0  0  0  0  0
   26.9742  -19.9272  -13.0344 O   0  0  0  0  0  0  0  0  0  0  0  0
   22.9649  -21.0174   -9.7122 C   0  0  0  0  0  0  0  0  0  0  0  0
   22.2449  -21.4822   -8.6337 C   0  0  0  0  0  0  0  0  0  0  0  0
   28.0621  -21.3196  -14.9437 C   0  0  0  0  0  0  0  0  0  0  0  0
   26.9044  -21.4085  -15.9168 C   0  0  1  0  0  0  0  0  0  0  0  0
   26.4656  -22.7503  -15.9543 O   0  0  0  0  0  0  0  0  0  0  0  0
   25.7665  -20.5732  -15.4495 C   0  0  2  0  0  0  0  0  0  0  0  0
   25.3181  -21.0452  -14.1540 N   0  0  0  0  0  0  0  0  0  0  0  0
   24.6594  -20.4222  -16.4000 C   0  0  0  0  0  0  0  0  0  0  0  0
   23.5582  -20.9482  -16.0884 O   0  0  0  0  0  0  0  0  0  0  0  0
   24.7619  -19.7342  -17.6166 N   0  0  0  0  0  0  0  0  0  0  0  0
   23.5420  -19.6163  -18.5490 C   0  0  1  0  0  0  0  0  0  0  0  0
   23.1071  -18.2516  -18.3739 C   0  0  0  0  0  0  0  0  0  0  0  0
   21.9310  -17.6299  -18.9429 C   0  0  0  0  0  0  0  0  0  0  0  0
   21.5240  -16.2430  -18.8518 C   0  0  0  0  0  0  0  0  0  0  0  0
   20.3304  -15.6456  -19.4270 C   0  0  0  0  0  0  0  0  0  0  0  0
   20.1654  -14.2288  -19.1616 N   0  0  0  0  0  0  0  0  0  0  0  0
   23.9380  -20.2102  -19.7967 C   0  0  0  0  0  0  0  0  0  0  0  0
   25.2023  -20.3105  -20.0339 O   0  0  0  0  0  0  0  0  0  0  0  0
   23.1477  -20.7185  -20.8052 O   0  0  0  0  0  0  0  0  0  0  0  0
  2 12  2  0
  2  1  1  0
  3  2  1  0
  4  5  1  0
  4  3  2  0
  5 11  2  0
  6  5  1  0
  7  9  1  0
  7  6  1  0
  7  8  1  1
  9 10  2  0
 11 12  1  0
 14 13  1  1
 14 15  1  0
 16 14  1  0
 16 17  1  1
 17  9  1  0
 18 16  1  0
 19 18  2  0
 20 18  1  0
 21 20  1  0
 21 22  1  6
 23 22  1  0
 24 25  1  0
 24 23  1  0
 26 25  1  0
 27 21  1  0
 27 29  1  0
 28 27  2  0
M  END
$$$$
