YTK.pdb
     RDKit          3D

 29 29  0  0  1  0  0  0  0  0999 V2000
   29.4107  -16.9062  -19.6504 O   0  0  0  0  0  0  0  0  0  0  0  0
   28.5817  -17.6351  -18.8077 C   0  0  0  0  0  0  0  0  0  0  0  0
   28.2369  -18.9419  -19.0159 C   0  0  0  0  0  0  0  0  0  0  0  0
   27.4128  -19.6521  -18.1704 C   0  0  0  0  0  0  0  0  0  0  0  0
   26.8894  -19.0367  -17.0395 C   0  0  0  0  0  0  0  0  0  0  0  0
   26.0001  -19.7631  -16.1042 C   0  0  0  0  0  0  0  0  0  0  0  0
   26.7836  -20.3410  -14.9316 C   0  0  2  0  0  0  0  0  0  0  0  0
   27.7642  -21.2401  -15.4544 N   0  0  0  0  0  0  0  0  0  0  0  0
   25.8645  -21.0463  -14.0218 C   0  0  0  0  0  0  0  0  0  0  0  0
   26.3330  -21.8986  -13.1936 O   0  0  0  0  0  0  0  0  0  0  0  0
   27.2350  -17.7206  -16.8274 C   0  0  0  0  0  0  0  0  0  0  0  0
   28.0589  -17.0113  -17.6733 C   0  0  0  0  0  0  0  0  0  0  0  0
   25.5838  -21.3247  -11.5367 C   0  0  0  0  0  0  0  0  0  0  0  0
   24.0877  -21.1065  -11.6321 C   0  0  1  0  0  0  0  0  0  0  0  0
   23.8309  -19.7338  -11.4215 O   0  0  0  0  0  0  0  0  0  0  0  0
   23.5965  -21.4554  -12.9916 C   0  0  2  0  0  0  0  0  0  0  0  0
   24.4581  -20.8506  -13.9887 N   0  0  0  0  0  0  0  0  0  0  0  0
   22.1777  -21.1803  -13.2423 C   0  0  0  0  0  0  0  0  0  0  0  0
   21.8991  -20.1285  -13.8768 O   0  0  0  0  0  0  0  0  0  0  0  0
   21.1332  -22.0136  -12.8194 N   0  0  0  0  0  0  0  0  0  0  0  0
   19.6729  -21.6667  -13.1639 C   0  0  1  0  0  0  0  0  0  0  0  0
   18.9899  -22.9351  -13.0792 C   0  0  0  0  0  0  0  0  0  0  0  0
   17.5922  -23.1941  -13.3486 C   0  0  0  0  0  0  0  0  0  0  0  0
   16.9139  -24.4732  -13.3849 C   0  0  0  0  0  0  0  0  0  0  0  0
   15.5326  -24.7165  -13.7658 C   0  0  0  0  0  0  0  0  0  0  0  0
   15.0655  -26.0722  -13.5444 N   0  0  0  0  0  0  0  0  0  0  0  0
   19.3518  -20.4955  -12.3949 C   0  0  0  0  0  0  0  0  0  0  0  0
   19.9731  -20.3286  -11.2763 O   0  0  0  0  0  0  0  0  0  0  0  0
   18.4631  -19.4829  -12.6863 O   0  0  0  0  0  0  0  0  0  0  0  0
  2 12  2  0
  2  1  1  0
  3  2  1  0
  4  5  1  0
  4  3  2  0
  5 11  2  0
  6  5  1  0
  7  9  1  0
  7  6  1  0
  7  8  1  6
  9 10  2  0
 11 12  1  0
 14 13  1  6
 14 15  1  0
 16 14  1  0
 16 17  1  6
 17  9  1  0
 18 16  1  0
 19 18  2  0
 20 18  1  0
 21 20  1  0
 21 22  1  1
 23 22  1  0
 24 25  1  0
 24 23  1  0
 26 25  1  0
 27 21  1  0
 27 29  1  0
 28 27  2  0
M  END
$$$$
