YTK.pdb
     RDKit          3D

 29 29  0  0  1  0  0  0  0  0999 V2000
   28.6463  -19.8655   -3.6656 O   0  0  0  0  0  0  0  0  0  0  0  0
   28.3705  -19.8241   -5.0260 C   0  0  0  0  0  0  0  0  0  0  0  0
   29.3290  -19.7816   -6.0004 C   0  0  0  0  0  0  0  0  0  0  0  0
   29.0396  -19.7407   -7.3469 C   0  0  0  0  0  0  0  0  0  0  0  0
   27.7152  -19.7416   -7.7681 C   0  0  0  0  0  0  0  0  0  0  0  0
   27.3597  -19.6988   -9.2052 C   0  0  0  0  0  0  0  0  0  0  0  0
   27.0007  -21.0846   -9.7281 C   0  0  2  0  0  0  0  0  0  0  0  0
   28.1989  -21.8623   -9.7806 N   0  0  0  0  0  0  0  0  0  0  0  0
   26.3981  -20.9675  -11.0672 C   0  0  0  0  0  0  0  0  0  0  0  0
   27.1322  -21.1222  -12.1011 O   0  0  0  0  0  0  0  0  0  0  0  0
   26.7478  -19.7843   -6.7889 C   0  0  0  0  0  0  0  0  0  0  0  0
   27.0381  -19.8252   -5.4430 C   0  0  0  0  0  0  0  0  0  0  0  0
   26.1084  -22.4132  -13.2464 C   0  0  0  0  0  0  0  0  0  0  0  0
   24.6392  -22.0439  -13.2516 C   0  0  1  0  0  0  0  0  0  0  0  0
   23.9469  -22.9898  -12.4638 O   0  0  0  0  0  0  0  0  0  0  0  0
   24.4366  -20.7062  -12.6346 C   0  0  2  0  0  0  0  0  0  0  0  0
   25.0268  -20.6884  -11.3104 N   0  0  0  0  0  0  0  0  0  0  0  0
   23.0558  -20.2112  -12.6346 C   0  0  0  0  0  0  0  0  0  0  0  0
   22.3560  -20.4590  -11.6170 O   0  0  0  0  0  0  0  0  0  0  0  0
   22.4843  -19.4888  -13.6909 N   0  0  0  0  0  0  0  0  0  0  0  0
   21.0621  -18.9130  -13.5599 C   0  0  1  0  0  0  0  0  0  0  0  0
   20.9578  -18.0002  -14.6728 C   0  0  0  0  0  0  0  0  0  0  0  0
   20.4003  -18.2759  -15.9792 C   0  0  0  0  0  0  0  0  0  0  0  0
   20.2633  -17.3679  -17.0991 C   0  0  0  0  0  0  0  0  0  0  0  0
   19.6777  -17.6655  -18.3955 C   0  0  0  0  0  0  0  0  0  0  0  0
   19.5332  -16.5240  -19.2793 N   0  0  0  0  0  0  0  0  0  0  0  0
   20.1993  -20.0379  -13.3223 C   0  0  0  0  0  0  0  0  0  0  0  0
   19.1302  -19.8327  -12.6296 O   0  0  0  0  0  0  0  0  0  0  0  0
   20.3368  -21.3418  -13.7475 O   0  0  0  0  0  0  0  0  0  0  0  0
  2 12  2  0
  2  1  1  0
  3  2  1  0
  4  5  1  0
  4  3  2  0
  5 11  2  0
  6  5  1  0
  7  9  1  0
  7  6  1  0
  7  8  1  6
  9 10  2  0
 11 12  1  0
 14 13  1  1
 14 15  1  0
 16 14  1  0
 16 17  1  1
 17  9  1  0
 18 16  1  0
 19 18  2  0
 20 18  1  0
 21 20  1  0
 21 22  1  6
 23 22  1  0
 24 25  1  0
 24 23  1  0
 26 25  1  0
 27 21  1  0
 27 29  1  0
 28 27  2  0
M  END
$$$$
