YTK.pdb
     RDKit          3D

 29 29  0  0  1  0  0  0  0  0999 V2000
   25.9002  -20.9170   -5.5332 O   0  0  0  0  0  0  0  0  0  0  0  0
   25.8661  -20.6504   -6.8957 C   0  0  0  0  0  0  0  0  0  0  0  0
   24.7923  -20.9137   -7.7005 C   0  0  0  0  0  0  0  0  0  0  0  0
   24.7736  -20.6435   -9.0515 C   0  0  0  0  0  0  0  0  0  0  0  0
   25.8877  -20.0742   -9.6566 C   0  0  0  0  0  0  0  0  0  0  0  0
   25.9098  -19.7672  -11.1053 C   0  0  0  0  0  0  0  0  0  0  0  0
   25.6409  -21.0140  -11.9395 C   0  0  2  0  0  0  0  0  0  0  0  0
   26.7895  -21.8605  -11.8536 N   0  0  0  0  0  0  0  0  0  0  0  0
   25.3832  -20.6280  -13.3376 C   0  0  0  0  0  0  0  0  0  0  0  0
   26.2920  -20.8110  -14.2165 O   0  0  0  0  0  0  0  0  0  0  0  0
   26.9705  -19.8080   -8.8485 C   0  0  0  0  0  0  0  0  0  0  0  0
   26.9884  -20.0785   -7.4979 C   0  0  0  0  0  0  0  0  0  0  0  0
   25.5501  -21.5384  -15.7603 C   0  0  0  0  0  0  0  0  0  0  0  0
   24.1456  -21.0222  -15.9965 C   0  0  1  0  0  0  0  0  0  0  0  0
   23.2363  -22.0056  -15.5485 O   0  0  0  0  0  0  0  0  0  0  0  0
   23.9045  -19.7880  -15.2030 C   0  0  2  0  0  0  0  0  0  0  0  0
   24.1711  -20.0518  -13.8025 N   0  0  0  0  0  0  0  0  0  0  0  0
   22.6015  -19.1466  -15.4097 C   0  0  0  0  0  0  0  0  0  0  0  0
   21.6613  -19.4956  -14.6477 O   0  0  0  0  0  0  0  0  0  0  0  0
   22.3528  -18.1814  -16.3950 N   0  0  0  0  0  0  0  0  0  0  0  0
   21.0373  -17.3810  -16.3856 C   0  0  1  0  0  0  0  0  0  0  0  0
   21.3266  -16.2359  -17.2147 C   0  0  0  0  0  0  0  0  0  0  0  0
   20.4533  -15.1166  -17.4936 C   0  0  0  0  0  0  0  0  0  0  0  0
   20.6953  -13.9969  -18.3797 C   0  0  0  0  0  0  0  0  0  0  0  0
   19.7943  -12.8890  -18.6500 C   0  0  0  0  0  0  0  0  0  0  0  0
   18.4940  -12.9872  -18.0140 N   0  0  0  0  0  0  0  0  0  0  0  0
   19.9901  -18.3368  -16.6224 C   0  0  0  0  0  0  0  0  0  0  0  0
   18.8348  -18.0962  -16.1003 O   0  0  0  0  0  0  0  0  0  0  0  0
   20.0288  -19.5019  -17.3579 O   0  0  0  0  0  0  0  0  0  0  0  0
  2 12  2  0
  2  1  1  0
  3  2  1  0
  4  5  1  0
  4  3  2  0
  5 11  2  0
  6  5  1  0
  7  9  1  0
  7  6  1  0
  7  8  1  6
  9 10  2  0
 11 12  1  0
 14 13  1  1
 14 15  1  0
 16 14  1  0
 16 17  1  1
 17  9  1  0
 18 16  1  0
 19 18  2  0
 20 18  1  0
 21 20  1  0
 21 22  1  6
 23 22  1  0
 24 25  1  0
 24 23  1  0
 26 25  1  0
 27 21  1  0
 27 29  1  0
 28 27  2  0
M  END
$$$$
