YTK.pdb
     RDKit          3D

 29 29  0  0  1  0  0  0  0  0999 V2000
   22.2408  -13.8151  -21.1880 O   0  0  0  0  0  0  0  0  0  0  0  0
   22.6365  -14.9188  -20.4436 C   0  0  0  0  0  0  0  0  0  0  0  0
   22.6081  -16.2049  -20.9074 C   0  0  0  0  0  0  0  0  0  0  0  0
   23.0041  -17.2901  -20.1565 C   0  0  0  0  0  0  0  0  0  0  0  0
   23.4606  -17.1006  -18.8576 C   0  0  0  0  0  0  0  0  0  0  0  0
   23.8961  -18.2388  -18.0161 C   0  0  0  0  0  0  0  0  0  0  0  0
   25.4160  -18.3337  -17.9567 C   0  0  2  0  0  0  0  0  0  0  0  0
   25.8888  -18.6881  -19.2583 N   0  0  0  0  0  0  0  0  0  0  0  0
   25.8102  -19.3502  -16.9661 C   0  0  0  0  0  0  0  0  0  0  0  0
   26.4020  -20.4121  -17.3585 O   0  0  0  0  0  0  0  0  0  0  0  0
   23.4902  -15.8064  -18.3879 C   0  0  0  0  0  0  0  0  0  0  0  0
   23.0941  -14.7219  -19.1394 C   0  0  0  0  0  0  0  0  0  0  0  0
   27.8671  -20.5723  -16.3060 C   0  0  0  0  0  0  0  0  0  0  0  0
   27.5910  -20.3270  -14.8368 C   0  0  1  0  0  0  0  0  0  0  0  0
   28.2177  -19.1158  -14.4695 O   0  0  0  0  0  0  0  0  0  0  0  0
   26.1312  -20.1710  -14.6006 C   0  0  2  0  0  0  0  0  0  0  0  0
   25.5796  -19.2432  -15.5687 N   0  0  0  0  0  0  0  0  0  0  0  0
   25.7443  -19.8356  -13.2260 C   0  0  0  0  0  0  0  0  0  0  0  0
   25.4040  -18.6443  -12.9987 O   0  0  0  0  0  0  0  0  0  0  0  0
   25.7338  -20.7568  -12.1699 N   0  0  0  0  0  0  0  0  0  0  0  0
   25.3083  -20.3161  -10.7571 C   0  0  1  0  0  0  0  0  0  0  0  0
   23.9971  -19.7470  -10.9558 C   0  0  0  0  0  0  0  0  0  0  0  0
   22.7259  -20.4334  -10.8755 C   0  0  0  0  0  0  0  0  0  0  0  0
   21.8593  -20.8339  -11.9645 C   0  0  0  0  0  0  0  0  0  0  0  0
   20.5569  -21.4693  -11.8532 C   0  0  0  0  0  0  0  0  0  0  0  0
   19.8364  -21.6136  -13.1042 N   0  0  0  0  0  0  0  0  0  0  0  0
   25.6137  -21.4200   -9.8886 C   0  0  0  0  0  0  0  0  0  0  0  0
   25.3364  -21.2865   -8.6355 O   0  0  0  0  0  0  0  0  0  0  0  0
   26.1623  -22.6449  -10.2026 O   0  0  0  0  0  0  0  0  0  0  0  0
  2 12  2  0
  2  1  1  0
  3  2  1  0
  4  5  1  0
  4  3  2  0
  5 11  2  0
  6  5  1  0
  7  9  1  0
  7  6  1  0
  7  8  1  6
  9 10  2  0
 11 12  1  0
 14 13  1  6
 14 15  1  0
 16 14  1  0
 16 17  1  6
 17  9  1  0
 18 16  1  0
 19 18  2  0
 20 18  1  0
 21 20  1  0
 21 22  1  6
 23 22  1  0
 24 25  1  0
 24 23  1  0
 26 25  1  0
 27 21  1  0
 27 29  1  0
 28 27  2  0
M  END
$$$$
