YTK.pdb
     RDKit          3D

 29 29  0  0  1  0  0  0  0  0999 V2000
   15.5529  -16.0081  -20.7864 O   0  0  0  0  0  0  0  0  0  0  0  0
   16.1495  -15.0335  -19.9972 C   0  0  0  0  0  0  0  0  0  0  0  0
   17.2326  -14.2933  -20.3833 C   0  0  0  0  0  0  0  0  0  0  0  0
   17.8138  -13.3293  -19.5886 C   0  0  0  0  0  0  0  0  0  0  0  0
   17.2958  -13.0728  -18.3248 C   0  0  0  0  0  0  0  0  0  0  0  0
   17.8894  -12.0455  -17.4385 C   0  0  0  0  0  0  0  0  0  0  0  0
   19.2327  -12.5033  -16.8827 C   0  0  2  0  0  0  0  0  0  0  0  0
   18.9996  -13.6271  -16.0306 N   0  0  0  0  0  0  0  0  0  0  0  0
   19.8585  -11.4019  -16.1307 C   0  0  0  0  0  0  0  0  0  0  0  0
   19.4454  -11.1329  -14.9522 O   0  0  0  0  0  0  0  0  0  0  0  0
   16.2050  -13.8168  -17.9334 C   0  0  0  0  0  0  0  0  0  0  0  0
   15.6246  -14.7804  -18.7286 C   0  0  0  0  0  0  0  0  0  0  0  0
   23.0901  -11.0685  -14.7996 C   0  0  0  0  0  0  0  0  0  0  0  0
   22.9402   -9.7975  -15.6102 C   0  0  1  0  0  0  0  0  0  0  0  0
   23.5626  -10.0000  -16.8617 O   0  0  0  0  0  0  0  0  0  0  0  0
   21.5037   -9.5065  -15.8611 C   0  0  2  0  0  0  0  0  0  0  0  0
   20.9151  -10.5904  -16.6231 N   0  0  0  0  0  0  0  0  0  0  0  0
   21.2167   -8.1936  -16.4489 C   0  0  0  0  0  0  0  0  0  0  0  0
   21.0857   -8.1401  -17.7005 O   0  0  0  0  0  0  0  0  0  0  0  0
   21.0829   -7.0151  -15.7023 N   0  0  0  0  0  0  0  0  0  0  0  0
   20.7552   -5.6833  -16.4027 C   0  0  1  0  0  0  0  0  0  0  0  0
   19.3595   -5.8110  -16.7465 C   0  0  0  0  0  0  0  0  0  0  0  0
   18.3207   -4.8207  -16.5628 C   0  0  0  0  0  0  0  0  0  0  0  0
   16.9193   -4.9240  -16.9133 C   0  0  0  0  0  0  0  0  0  0  0  0
   15.8986   -3.9053  -16.7331 C   0  0  0  0  0  0  0  0  0  0  0  0
   14.5477   -4.3282  -17.0510 N   0  0  0  0  0  0  0  0  0  0  0  0
   21.3176   -4.6514  -15.5750 C   0  0  0  0  0  0  0  0  0  0  0  0
   21.6818   -4.9779  -14.3810 O   0  0  0  0  0  0  0  0  0  0  0  0
   21.5481   -3.3263  -15.8769 O   0  0  0  0  0  0  0  0  0  0  0  0
  2 12  2  0
  2  1  1  0
  3  2  1  0
  4  5  1  0
  4  3  2  0
  5 11  2  0
  6  5  1  0
  7  9  1  0
  7  6  1  0
  7  8  1  1
  9 10  2  0
 11 12  1  0
 14 13  1  1
 14 15  1  0
 16 14  1  0
 16 17  1  6
 17  9  1  0
 18 16  1  0
 19 18  2  0
 20 18  1  0
 21 20  1  0
 21 22  1  1
 23 22  1  0
 24 25  1  0
 24 23  1  0
 26 25  1  0
 27 21  1  0
 27 29  1  0
 28 27  2  0
M  END
$$$$
