YSL.pdb
     RDKit          3D

 27 27  0  0  1  0  0  0  0  0999 V2000
   17.3686  -16.5531  -15.8222 O   0  0  0  0  0  0  0  0  0  0  0  0
   17.7068  -15.2143  -16.0115 C   0  0  0  0  0  0  0  0  0  0  0  0
   18.2597  -14.7350  -17.1777 C   0  0  0  0  0  0  0  0  0  0  0  0
   18.5882  -13.3995  -17.3440 C   0  0  0  0  0  0  0  0  0  0  0  0
   18.3633  -12.4997  -16.3209 C   0  0  0  0  0  0  0  0  0  0  0  0
   18.6927  -11.0623  -16.4381 C   0  0  0  0  0  0  0  0  0  0  0  0
   17.4487  -10.2348  -16.7808 C   0  0  2  0  0  0  0  0  0  0  0  0
   17.0670  -10.6361  -18.1239 N   0  0  0  0  0  0  0  0  0  0  0  0
   17.8776   -8.8215  -16.7842 C   0  0  0  0  0  0  0  0  0  0  0  0
   18.4924   -8.3435  -17.7648 O   0  0  0  0  0  0  0  0  0  0  0  0
   17.8096  -12.9752  -15.1505 C   0  0  0  0  0  0  0  0  0  0  0  0
   17.4830  -14.3154  -14.9915 C   0  0  0  0  0  0  0  0  0  0  0  0
   16.2357   -6.2349  -14.0117 O   0  0  0  0  0  0  0  0  0  0  0  0
   16.7290   -5.7754  -15.2219 C   0  0  0  0  0  0  0  0  0  0  0  0
   17.9210   -6.5993  -15.6373 C   0  0  2  0  0  0  0  0  0  0  0  0
   17.5944   -7.9895  -15.6696 N   0  0  0  0  0  0  0  0  0  0  0  0
   19.1210   -6.3207  -14.8378 C   0  0  0  0  0  0  0  0  0  0  0  0
   19.2002   -6.8944  -13.6995 O   0  0  0  0  0  0  0  0  0  0  0  0
   23.9061   -7.1390  -16.3277 C   0  0  0  0  0  0  0  0  0  0  0  0
   22.6487   -6.9612  -15.4680 C   0  0  1  0  0  0  0  0  0  0  0  0
   22.7145   -7.9349  -14.2916 C   0  0  0  0  0  0  0  0  0  0  0  0
   22.5793   -5.5433  -14.9979 C   0  0  0  0  0  0  0  0  0  0  0  0
   21.2853   -5.2565  -14.3213 C   0  0  2  0  0  0  0  0  0  0  0  0
   20.1667   -5.4690  -15.2575 N   0  0  0  0  0  0  0  0  0  0  0  0
   21.2333   -3.8512  -13.8432 C   0  0  0  0  0  0  0  0  0  0  0  0
   20.3613   -2.8798  -14.2763 O   0  0  0  0  0  0  0  0  0  0  0  0
   22.0606   -3.4484  -12.9414 O   0  0  0  0  0  0  0  0  0  0  0  0
  2  1  1  0
  3  2  2  0
  4  3  1  0
  5  4  2  0
  5 11  1  0
  6  5  1  0
  7  9  1  0
  7  6  1  0
  7  8  1  6
  9 10  2  0
 11 12  2  0
 12  2  1  0
 15 14  1  1
 14 13  1  0
 16 15  1  0
 16  9  1  0
 17 15  1  0
 18 17  2  0
 20 19  1  6
 21 20  1  0
 22 20  1  0
 23 22  1  6
 23 24  1  0
 24 17  1  0
 25 23  1  0
 26 25  1  0
 27 25  2  0
M  END
$$$$
