YSL.pdb
     RDKit          3D

 27 27  0  0  1  0  0  0  0  0999 V2000
   22.3754  -21.9092   -7.6892 O   0  0  0  0  0  0  0  0  0  0  0  0
   22.7990  -21.6762   -8.9964 C   0  0  0  0  0  0  0  0  0  0  0  0
   22.0342  -21.9773  -10.1009 C   0  0  0  0  0  0  0  0  0  0  0  0
   22.4756  -21.7370  -11.3918 C   0  0  0  0  0  0  0  0  0  0  0  0
   23.7202  -21.1775  -11.6038 C   0  0  0  0  0  0  0  0  0  0  0  0
   24.2468  -20.8972  -12.9576 C   0  0  0  0  0  0  0  0  0  0  0  0
   24.0079  -19.4359  -13.3536 C   0  0  2  0  0  0  0  0  0  0  0  0
   22.5789  -19.3206  -13.5887 N   0  0  0  0  0  0  0  0  0  0  0  0
   24.7412  -19.2225  -14.6177 C   0  0  0  0  0  0  0  0  0  0  0  0
   24.1395  -19.2412  -15.7157 O   0  0  0  0  0  0  0  0  0  0  0  0
   24.4902  -20.8740  -10.5004 C   0  0  0  0  0  0  0  0  0  0  0  0
   24.0407  -21.1180   -9.2096 C   0  0  0  0  0  0  0  0  0  0  0  0
   29.0732  -19.0014  -14.9362 O   0  0  0  0  0  0  0  0  0  0  0  0
   28.2098  -18.0150  -15.3839 C   0  0  0  0  0  0  0  0  0  0  0  0
   26.8839  -18.6247  -15.7611 C   0  0  2  0  0  0  0  0  0  0  0  0
   26.1419  -18.9933  -14.5975 N   0  0  0  0  0  0  0  0  0  0  0  0
   27.0095  -19.7280  -16.7223 C   0  0  0  0  0  0  0  0  0  0  0  0
   26.5951  -20.8740  -16.3404 O   0  0  0  0  0  0  0  0  0  0  0  0
   26.4866  -20.9351  -21.6479 C   0  0  0  0  0  0  0  0  0  0  0  0
   25.6837  -20.4814  -20.4225 C   0  0  1  0  0  0  0  0  0  0  0  0
   24.2043  -20.7800  -20.6649 C   0  0  0  0  0  0  0  0  0  0  0  0
   26.1936  -21.2014  -19.2151 C   0  0  0  0  0  0  0  0  0  0  0  0
   27.5812  -20.7830  -18.8771 C   0  0  2  0  0  0  0  0  0  0  0  0
   27.5536  -19.5856  -18.0180 N   0  0  0  0  0  0  0  0  0  0  0  0
   28.3545  -20.4600  -20.1035 C   0  0  0  0  0  0  0  0  0  0  0  0
   28.6740  -19.1993  -20.5512 O   0  0  0  0  0  0  0  0  0  0  0  0
   28.7890  -21.4096  -20.8578 O   0  0  0  0  0  0  0  0  0  0  0  0
  2  1  1  0
  3  2  2  0
  4  3  1  0
  5  4  2  0
  5 11  1  0
  6  5  1  0
  7  9  1  0
  7  6  1  0
  7  8  1  6
  9 10  2  0
 11 12  2  0
 12  2  1  0
 15 14  1  1
 14 13  1  0
 16 15  1  0
 16  9  1  0
 17 15  1  0
 18 17  2  0
 20 19  1  6
 21 20  1  0
 22 20  1  0
 23 22  1  6
 23 24  1  0
 24 17  1  0
 25 23  1  0
 26 25  1  0
 27 25  2  0
M  END
$$$$
