YSL.pdb
     RDKit          3D

 27 27  0  0  1  0  0  0  0  0999 V2000
   13.0273  -24.5756  -15.7719 O   0  0  0  0  0  0  0  0  0  0  0  0
   13.8734  -23.4819  -15.9464 C   0  0  0  0  0  0  0  0  0  0  0  0
   14.6242  -23.2845  -17.0834 C   0  0  0  0  0  0  0  0  0  0  0  0
   15.4590  -22.1895  -17.2355 C   0  0  0  0  0  0  0  0  0  0  0  0
   15.5586  -21.2510  -16.2273 C   0  0  0  0  0  0  0  0  0  0  0  0
   16.4320  -20.0615  -16.3306 C   0  0  0  0  0  0  0  0  0  0  0  0
   17.9127  -20.4560  -16.2905 C   0  0  2  0  0  0  0  0  0  0  0  0
   18.1583  -20.9251  -14.9376 N   0  0  0  0  0  0  0  0  0  0  0  0
   18.6795  -19.2180  -16.5372 C   0  0  0  0  0  0  0  0  0  0  0  0
   18.9615  -18.4433  -15.5947 O   0  0  0  0  0  0  0  0  0  0  0  0
   14.8084  -21.4444  -15.0862 C   0  0  0  0  0  0  0  0  0  0  0  0
   13.9739  -22.5446  -14.9414 C   0  0  0  0  0  0  0  0  0  0  0  0
   19.9459  -18.0388  -20.5074 O   0  0  0  0  0  0  0  0  0  0  0  0
   20.6960  -17.8655  -19.3558 C   0  0  0  0  0  0  0  0  0  0  0  0
   19.7833  -17.6790  -18.1708 C   0  0  2  0  0  0  0  0  0  0  0  0
   19.1052  -18.8952  -17.8523 N   0  0  0  0  0  0  0  0  0  0  0  0
   18.8635  -16.5446  -18.3248 C   0  0  0  0  0  0  0  0  0  0  0  0
   17.6320  -16.7629  -18.0664 O   0  0  0  0  0  0  0  0  0  0  0  0
   16.9265  -11.6025  -18.2826 C   0  0  0  0  0  0  0  0  0  0  0  0
   16.3244  -12.9988  -18.0837 C   0  0  1  0  0  0  0  0  0  0  0  0
   15.5489  -13.3849  -19.3430 C   0  0  0  0  0  0  0  0  0  0  0  0
   17.4289  -13.9680  -17.8059 C   0  0  0  0  0  0  0  0  0  0  0  0
   18.2048  -14.2771  -19.0376 C   0  0  2  0  0  0  0  0  0  0  0  0
   19.2660  -15.2543  -18.7352 N   0  0  0  0  0  0  0  0  0  0  0  0
   18.8406  -13.0530  -19.5886 C   0  0  0  0  0  0  0  0  0  0  0  0
   20.1706  -12.7165  -19.4904 O   0  0  0  0  0  0  0  0  0  0  0  0
   18.1272  -12.1894  -20.2250 O   0  0  0  0  0  0  0  0  0  0  0  0
  2  1  1  0
  3  2  2  0
  4  3  1  0
  5  4  2  0
  5 11  1  0
  6  5  1  0
  7  9  1  0
  7  6  1  0
  7  8  1  1
  9 10  2  0
 11 12  2  0
 12  2  1  0
 15 14  1  6
 14 13  1  0
 16 15  1  0
 16  9  1  0
 17 15  1  0
 18 17  2  0
 20 19  1  6
 21 20  1  0
 22 20  1  0
 23 22  1  1
 23 24  1  0
 24 17  1  0
 25 23  1  0
 26 25  1  0
 27 25  2  0
M  END
$$$$
