YSL.pdb
     RDKit          3D

 27 27  0  0  1  0  0  0  0  0999 V2000
   28.4933  -19.9947   -3.4159 O   0  0  0  0  0  0  0  0  0  0  0  0
   28.1426  -19.9435   -4.7639 C   0  0  0  0  0  0  0  0  0  0  0  0
   28.9939  -19.4912   -5.7468 C   0  0  0  0  0  0  0  0  0  0  0  0
   28.6241  -19.4491   -7.0812 C   0  0  0  0  0  0  0  0  0  0  0  0
   27.3652  -19.8693   -7.4632 C   0  0  0  0  0  0  0  0  0  0  0  0
   26.9122  -19.8484   -8.8713 C   0  0  0  0  0  0  0  0  0  0  0  0
   26.7557  -21.2694   -9.4243 C   0  0  2  0  0  0  0  0  0  0  0  0
   28.1035  -21.8009   -9.5306 N   0  0  0  0  0  0  0  0  0  0  0  0
   26.1662  -21.1286  -10.7712 C   0  0  0  0  0  0  0  0  0  0  0  0
   26.8938  -20.9096  -11.7666 O   0  0  0  0  0  0  0  0  0  0  0  0
   26.5088  -20.3234   -6.4820 C   0  0  0  0  0  0  0  0  0  0  0  0
   26.8869  -20.3625   -5.1465 C   0  0  0  0  0  0  0  0  0  0  0  0
   21.9876  -20.8354  -11.3797 O   0  0  0  0  0  0  0  0  0  0  0  0
   22.7112  -21.7522  -12.1246 C   0  0  0  0  0  0  0  0  0  0  0  0
   24.1466  -21.3058  -12.2359 C   0  0  2  0  0  0  0  0  0  0  0  0
   24.7624  -21.2412  -10.9486 N   0  0  0  0  0  0  0  0  0  0  0  0
   24.3056  -20.0615  -12.9997 C   0  0  0  0  0  0  0  0  0  0  0  0
   24.1102  -18.9692  -12.3676 O   0  0  0  0  0  0  0  0  0  0  0  0
   28.2712  -18.6168  -16.1511 C   0  0  0  0  0  0  0  0  0  0  0  0
   27.1000  -18.5750  -15.1621 C   0  0  1  0  0  0  0  0  0  0  0  0
   27.2354  -17.3266  -14.2906 C   0  0  0  0  0  0  0  0  0  0  0  0
   25.8169  -18.5662  -15.9302 C   0  0  0  0  0  0  0  0  0  0  0  0
   24.6410  -18.6986  -15.0278 C   0  0  2  0  0  0  0  0  0  0  0  0
   24.6559  -20.0163  -14.3673 N   0  0  0  0  0  0  0  0  0  0  0  0
   23.3701  -18.5707  -15.7858 C   0  0  0  0  0  0  0  0  0  0  0  0
   22.8206  -17.4001  -16.2545 O   0  0  0  0  0  0  0  0  0  0  0  0
   22.6743  -19.6209  -16.0554 O   0  0  0  0  0  0  0  0  0  0  0  0
  2  1  1  0
  3  2  2  0
  4  3  1  0
  5  4  2  0
  5 11  1  0
  6  5  1  0
  7  9  1  0
  7  6  1  0
  7  8  1  6
  9 10  2  0
 11 12  2  0
 12  2  1  0
 15 14  1  1
 14 13  1  0
 16 15  1  0
 16  9  1  0
 17 15  1  0
 18 17  2  0
 20 19  1  6
 21 20  1  0
 22 20  1  0
 23 22  1  6
 23 24  1  0
 24 17  1  0
 25 23  1  0
 26 25  1  0
 27 25  2  0
M  END
$$$$
