YSL.pdb
     RDKit          3D

 27 27  0  0  1  0  0  0  0  0999 V2000
   18.9208  -15.6345  -19.2215 O   0  0  0  0  0  0  0  0  0  0  0  0
   18.5337  -14.9306  -18.0825 C   0  0  0  0  0  0  0  0  0  0  0  0
   18.9522  -13.6472  -17.8120 C   0  0  0  0  0  0  0  0  0  0  0  0
   18.5545  -12.9661  -16.6731 C   0  0  0  0  0  0  0  0  0  0  0  0
   17.7108  -13.5732  -15.7639 C   0  0  0  0  0  0  0  0  0  0  0  0
   17.2515  -12.8982  -14.5303 C   0  0  0  0  0  0  0  0  0  0  0  0
   16.0420  -11.9985  -14.8082 C   0  0  2  0  0  0  0  0  0  0  0  0
   15.1601  -12.7773  -15.6605 N   0  0  0  0  0  0  0  0  0  0  0  0
   16.5548  -10.8311  -15.5536 C   0  0  0  0  0  0  0  0  0  0  0  0
   16.1076  -10.5526  -16.6896 O   0  0  0  0  0  0  0  0  0  0  0  0
   17.2888  -14.8590  -16.0306 C   0  0  0  0  0  0  0  0  0  0  0  0
   17.6918  -15.5350  -17.1745 C   0  0  0  0  0  0  0  0  0  0  0  0
   17.4289   -6.7253  -16.5120 O   0  0  0  0  0  0  0  0  0  0  0  0
   16.9266   -7.8815  -15.9380 C   0  0  0  0  0  0  0  0  0  0  0  0
   18.0542   -8.8305  -15.6217 C   0  0  2  0  0  0  0  0  0  0  0  0
   17.5643  -10.0113  -14.9846 N   0  0  0  0  0  0  0  0  0  0  0  0
   19.1469   -8.1976  -14.8718 C   0  0  0  0  0  0  0  0  0  0  0  0
   18.9374   -7.9682  -13.6330 O   0  0  0  0  0  0  0  0  0  0  0  0
   24.0603   -9.9831  -14.9438 C   0  0  0  0  0  0  0  0  0  0  0  0
   22.6940   -9.3873  -14.5831 C   0  0  1  0  0  0  0  0  0  0  0  0
   22.3843   -9.7139  -13.1224 C   0  0  0  0  0  0  0  0  0  0  0  0
   22.7329   -7.9104  -14.8144 C   0  0  0  0  0  0  0  0  0  0  0  0
   21.4125   -7.2812  -14.5396 C   0  0  2  0  0  0  0  0  0  0  0  0
   20.3887   -7.8390  -15.4414 N   0  0  0  0  0  0  0  0  0  0  0  0
   21.4682   -5.8117  -14.7486 C   0  0  0  0  0  0  0  0  0  0  0  0
   20.7709   -5.1014  -15.6979 O   0  0  0  0  0  0  0  0  0  0  0  0
   22.2257   -5.0848  -14.0020 O   0  0  0  0  0  0  0  0  0  0  0  0
  2  1  1  0
  3  2  2  0
  4  3  1  0
  5  4  2  0
  5 11  1  0
  6  5  1  0
  7  9  1  0
  7  6  1  0
  7  8  1  6
  9 10  2  0
 11 12  2  0
 12  2  1  0
 15 14  1  1
 14 13  1  0
 16 15  1  0
 16  9  1  0
 17 15  1  0
 18 17  2  0
 20 19  1  1
 21 20  1  0
 22 20  1  0
 23 22  1  6
 23 24  1  0
 24 17  1  0
 25 23  1  0
 26 25  1  0
 27 25  2  0
M  END
$$$$
