YSL.pdb
     RDKit          3D

 27 27  0  0  1  0  0  0  0  0999 V2000
   12.4034   -4.6745   -5.2915 O   0  0  0  0  0  0  0  0  0  0  0  0
   12.9304   -5.2934   -6.4237 C   0  0  0  0  0  0  0  0  0  0  0  0
   14.1384   -4.9401   -6.9816 C   0  0  0  0  0  0  0  0  0  0  0  0
   14.6432   -5.5693   -8.1078 C   0  0  0  0  0  0  0  0  0  0  0  0
   13.9298   -6.5875   -8.7089 C   0  0  0  0  0  0  0  0  0  0  0  0
   14.4158   -7.2970   -9.9126 C   0  0  0  0  0  0  0  0  0  0  0  0
   13.9397   -6.6042  -11.1944 C   0  0  2  0  0  0  0  0  0  0  0  0
   12.5053   -6.8267  -11.2523 N   0  0  0  0  0  0  0  0  0  0  0  0
   14.5998   -7.3041  -12.3149 C   0  0  0  0  0  0  0  0  0  0  0  0
   13.9254   -7.9443  -13.1536 O   0  0  0  0  0  0  0  0  0  0  0  0
   12.7189   -6.9451   -8.1536 C   0  0  0  0  0  0  0  0  0  0  0  0
   12.2197   -6.3095   -7.0246 C   0  0  0  0  0  0  0  0  0  0  0  0
   16.6478   -5.4028  -14.5282 O   0  0  0  0  0  0  0  0  0  0  0  0
   16.2648   -6.7075  -14.7929 C   0  0  0  0  0  0  0  0  0  0  0  0
   16.6869   -7.6072  -13.6596 C   0  0  2  0  0  0  0  0  0  0  0  0
   16.0120   -7.2562  -12.4506 N   0  0  0  0  0  0  0  0  0  0  0  0
   18.1442   -7.6774  -13.4915 C   0  0  0  0  0  0  0  0  0  0  0  0
   18.6715   -6.8400  -12.6843 O   0  0  0  0  0  0  0  0  0  0  0  0
   22.6210  -10.3796  -12.5615 C   0  0  0  0  0  0  0  0  0  0  0  0
   22.5077   -9.8802  -14.0071 C   0  0  1  0  0  0  0  0  0  0  0  0
   23.2807  -10.8325  -14.9192 C   0  0  0  0  0  0  0  0  0  0  0  0
   21.0625   -9.8165  -14.3861 C   0  0  0  0  0  0  0  0  0  0  0  0
   20.4050   -8.6055  -13.8241 C   0  0  2  0  0  0  0  0  0  0  0  0
   18.9707   -8.6047  -14.1639 N   0  0  0  0  0  0  0  0  0  0  0  0
   21.0147   -7.3658  -14.3698 C   0  0  0  0  0  0  0  0  0  0  0  0
   22.0592   -6.6643  -13.8142 O   0  0  0  0  0  0  0  0  0  0  0  0
   20.5611   -6.8534  -15.4613 O   0  0  0  0  0  0  0  0  0  0  0  0
  2  1  1  0
  3  2  2  0
  4  3  1  0
  5  4  2  0
  5 11  1  0
  6  5  1  0
  7  9  1  0
  7  6  1  0
  7  8  1  6
  9 10  2  0
 11 12  2  0
 12  2  1  0
 15 14  1  6
 14 13  1  0
 16 15  1  0
 16  9  1  0
 17 15  1  0
 18 17  2  0
 20 19  1  1
 21 20  1  0
 22 20  1  0
 23 22  1  6
 23 24  1  0
 24 17  1  0
 25 23  1  0
 26 25  1  0
 27 25  2  0
M  END
$$$$
