KHL.pdb
     RDKit          3D

 28 28  0  0  1  0  0  0  0  0999 V2000
    5.5980  -19.1436   20.7835 N   0  0  0  0  0  0  0  0  0  0  0  0
    5.5019  -17.8588   21.4514 C   0  0  1  0  0  0  0  0  0  0  0  0
    4.3231  -17.8014   22.3862 C   0  0  0  0  0  0  0  0  0  0  0  0
    3.0765  -18.1808   21.6521 C   0  0  0  0  0  0  0  0  0  0  0  0
    2.3608  -19.3374   22.2689 C   0  0  0  0  0  0  0  0  0  0  0  0
    1.0778  -19.6454   21.5130 C   0  0  0  0  0  0  0  0  0  0  0  0
    0.4930  -20.8352   22.0890 N   0  0  0  0  0  0  0  0  0  0  0  0
    6.7692  -17.6352   22.2101 C   0  0  0  0  0  0  0  0  0  0  0  0
    7.1878  -18.4501   23.0421 O   0  0  0  0  0  0  0  0  0  0  0  0
    7.4993  -16.4529   21.9583 N   0  0  0  0  0  0  0  0  0  0  0  0
    8.7321  -16.1021   22.6307 C   0  0  1  0  0  0  0  0  0  0  0  0
    9.5194  -15.2260   21.6786 C   0  0  0  0  0  0  0  0  0  0  0  0
   10.0517  -15.9955   20.5358 C   0  0  0  0  0  0  0  0  0  0  0  0
   10.2082  -17.3689   20.5725 C   0  0  0  0  0  0  0  0  0  0  0  0
   10.7075  -17.7740   19.3990 N   0  0  0  0  0  0  0  0  0  0  0  0
   10.8737  -16.6939   18.6141 C   0  0  0  0  0  0  0  0  0  0  0  0
   10.4678  -15.6210   19.3267 N   0  0  0  0  0  0  0  0  0  0  0  0
    8.4169  -15.4140   23.8907 C   0  0  0  0  0  0  0  0  0  0  0  0
    8.0833  -14.1995   23.8519 O   0  0  0  0  0  0  0  0  0  0  0  0
    5.9499  -12.7210   26.2771 C   0  0  0  0  0  0  0  0  0  0  0  0
    7.2673  -13.3783   25.9252 C   0  0  1  0  0  0  0  0  0  0  0  0
    8.3386  -12.2978   26.1074 C   0  0  0  0  0  0  0  0  0  0  0  0
    7.6183  -14.4936   26.8458 C   0  0  0  0  0  0  0  0  0  0  0  0
    8.7483  -15.3708   26.4076 C   0  0  2  0  0  0  0  0  0  0  0  0
    8.4703  -16.0574   25.1641 N   0  0  0  0  0  0  0  0  0  0  0  0
    9.2921  -16.2589   27.4401 C   0  0  0  0  0  0  0  0  0  0  0  0
    9.5913  -17.5919   27.1964 O   0  0  0  0  0  0  0  0  0  0  0  0
    9.5262  -15.8636   28.6337 O   0  0  0  0  0  0  0  0  0  0  0  0
  2  1  1  1
  2  3  1  0
  3  4  1  0
  4  5  1  0
  5  6  1  0
  6  7  1  0
  8  2  1  0
  8  9  2  0
 10  8  1  0
 11 10  1  0
 11 12  1  6
 13 17  1  0
 13 12  1  0
 14 13  2  0
 15 14  1  0
 15 16  1  0
 16 17  2  0
 18 11  1  0
 19 18  2  0
 21 20  1  1
 21 22  1  0
 23 21  1  0
 24 23  1  1
 24 25  1  0
 25 18  1  0
 26 24  1  0
 27 26  1  0
 28 26  2  0
M  END
$$$$
