KHL.pdb
     RDKit          3D

 28 28  0  0  1  0  0  0  0  0999 V2000
    6.9027  -21.2244   19.0410 N   0  0  0  0  0  0  0  0  0  0  0  0
    7.3149  -19.8346   19.1088 C   0  0  1  0  0  0  0  0  0  0  0  0
    6.1428  -18.8974   18.9884 C   0  0  0  0  0  0  0  0  0  0  0  0
    5.4908  -19.0716   17.6538 C   0  0  0  0  0  0  0  0  0  0  0  0
    4.3609  -18.1226   17.4239 C   0  0  0  0  0  0  0  0  0  0  0  0
    3.7211  -18.3618   16.0652 C   0  0  0  0  0  0  0  0  0  0  0  0
    2.7916  -17.2843   15.8117 N   0  0  0  0  0  0  0  0  0  0  0  0
    8.0104  -19.6209   20.4135 C   0  0  0  0  0  0  0  0  0  0  0  0
    7.4909  -19.9334   21.4925 O   0  0  0  0  0  0  0  0  0  0  0  0
    9.2990  -19.0435   20.3973 N   0  0  0  0  0  0  0  0  0  0  0  0
   10.1124  -18.8419   21.5775 C   0  0  1  0  0  0  0  0  0  0  0  0
   11.5462  -19.1214   21.1774 C   0  0  0  0  0  0  0  0  0  0  0  0
   12.4805  -18.9209   22.3036 C   0  0  0  0  0  0  0  0  0  0  0  0
   13.2011  -17.7529   22.4731 C   0  0  0  0  0  0  0  0  0  0  0  0
   13.9542  -17.8707   23.5728 N   0  0  0  0  0  0  0  0  0  0  0  0
   13.7327  -19.0843   24.1097 C   0  0  0  0  0  0  0  0  0  0  0  0
   12.8314  -19.7074   23.3203 N   0  0  0  0  0  0  0  0  0  0  0  0
    9.9269  -17.4673   22.0637 C   0  0  0  0  0  0  0  0  0  0  0  0
    9.9213  -16.5236   21.2286 O   0  0  0  0  0  0  0  0  0  0  0  0
    6.0885  -14.3677   23.5145 C   0  0  0  0  0  0  0  0  0  0  0  0
    7.4872  -14.7936   23.1224 C   0  0  1  0  0  0  0  0  0  0  0  0
    8.2226  -13.5090   22.7257 C   0  0  0  0  0  0  0  0  0  0  0  0
    8.2452  -15.3930   24.2542 C   0  0  0  0  0  0  0  0  0  0  0  0
    9.6548  -15.7957   23.9554 C   0  0  2  0  0  0  0  0  0  0  0  0
    9.7514  -17.1462   23.4437 N   0  0  0  0  0  0  0  0  0  0  0  0
   10.6270  -15.5172   25.0173 C   0  0  0  0  0  0  0  0  0  0  0  0
   11.5301  -14.4660   24.9460 O   0  0  0  0  0  0  0  0  0  0  0  0
   10.7071  -16.2253   26.0794 O   0  0  0  0  0  0  0  0  0  0  0  0
  2  1  1  1
  2  3  1  0
  3  4  1  0
  4  5  1  0
  5  6  1  0
  6  7  1  0
  8  2  1  0
  8  9  2  0
 10  8  1  0
 11 10  1  0
 11 12  1  6
 13 17  1  0
 13 12  1  0
 14 13  2  0
 15 14  1  0
 15 16  1  0
 16 17  2  0
 18 11  1  0
 19 18  2  0
 21 20  1  1
 21 22  1  0
 23 21  1  0
 24 23  1  1
 24 25  1  0
 25 18  1  0
 26 24  1  0
 27 26  1  0
 28 26  2  0
M  END
$$$$
