KHL.pdb
     RDKit          3D

 28 28  0  0  1  0  0  0  0  0999 V2000
   10.6817  -16.8784   20.1483 N   0  0  0  0  0  0  0  0  0  0  0  0
    9.8299  -17.3248   21.2351 C   0  0  1  0  0  0  0  0  0  0  0  0
   10.2446  -18.6770   21.7511 C   0  0  0  0  0  0  0  0  0  0  0  0
    9.9236  -19.7264   20.7350 C   0  0  0  0  0  0  0  0  0  0  0  0
   10.3402  -21.0976   21.1551 C   0  0  0  0  0  0  0  0  0  0  0  0
    9.9633  -22.1251   20.0994 C   0  0  0  0  0  0  0  0  0  0  0  0
   10.4837  -23.4075   20.5163 N   0  0  0  0  0  0  0  0  0  0  0  0
    9.9077  -16.3121   22.3306 C   0  0  0  0  0  0  0  0  0  0  0  0
   10.9833  -15.8170   22.6907 O   0  0  0  0  0  0  0  0  0  0  0  0
    8.7083  -15.9192   22.9640 N   0  0  0  0  0  0  0  0  0  0  0  0
    8.6479  -15.0430   24.1145 C   0  0  1  0  0  0  0  0  0  0  0  0
    7.1985  -14.6376   24.2841 C   0  0  0  0  0  0  0  0  0  0  0  0
    7.0385  -13.5815   25.3041 C   0  0  0  0  0  0  0  0  0  0  0  0
    8.0982  -13.1055   26.0542 C   0  0  0  0  0  0  0  0  0  0  0  0
    7.6433  -12.1616   26.8864 N   0  0  0  0  0  0  0  0  0  0  0  0
    6.3201  -12.0229   26.6865 C   0  0  0  0  0  0  0  0  0  0  0  0
    5.9725  -12.8977   25.7181 N   0  0  0  0  0  0  0  0  0  0  0  0
    9.1699  -15.7529   25.2910 C   0  0  0  0  0  0  0  0  0  0  0  0
    8.7794  -16.9304   25.5120 O   0  0  0  0  0  0  0  0  0  0  0  0
   14.1397  -16.2163   25.8937 C   0  0  0  0  0  0  0  0  0  0  0  0
   12.7116  -16.6385   26.1650 C   0  0  1  0  0  0  0  0  0  0  0  0
   12.7712  -18.1320   26.5031 C   0  0  0  0  0  0  0  0  0  0  0  0
   12.1226  -15.9517   27.3466 C   0  0  0  0  0  0  0  0  0  0  0  0
   10.6301  -15.8500   27.3658 C   0  0  2  0  0  0  0  0  0  0  0  0
   10.1033  -15.1709   26.2012 N   0  0  0  0  0  0  0  0  0  0  0  0
   10.0489  -15.3633   28.6212 C   0  0  0  0  0  0  0  0  0  0  0  0
    9.1431  -14.3130   28.6669 O   0  0  0  0  0  0  0  0  0  0  0  0
   10.3389  -15.8747   29.7570 O   0  0  0  0  0  0  0  0  0  0  0  0
  2  1  1  6
  2  3  1  0
  3  4  1  0
  4  5  1  0
  5  6  1  0
  6  7  1  0
  8  2  1  0
  8  9  2  0
 10  8  1  0
 11 10  1  0
 11 12  1  1
 13 17  1  0
 13 12  1  0
 14 13  2  0
 15 14  1  0
 15 16  1  0
 16 17  2  0
 18 11  1  0
 19 18  2  0
 21 20  1  1
 21 22  1  0
 23 21  1  0
 24 23  1  1
 24 25  1  0
 25 18  1  0
 26 24  1  0
 27 26  1  0
 28 26  2  0
M  END
$$$$
