KHL.pdb
     RDKit          3D

 28 28  0  0  1  0  0  0  0  0999 V2000
    8.7105  -15.7634   18.7902 N   0  0  0  0  0  0  0  0  0  0  0  0
    8.6811  -14.5780   19.6269 C   0  0  1  0  0  0  0  0  0  0  0  0
    7.7120  -13.5502   19.1062 C   0  0  0  0  0  0  0  0  0  0  0  0
    7.2568  -13.9336   17.7341 C   0  0  0  0  0  0  0  0  0  0  0  0
    8.3298  -13.8080   16.7030 C   0  0  0  0  0  0  0  0  0  0  0  0
    7.8045  -14.1848   15.3266 C   0  0  0  0  0  0  0  0  0  0  0  0
    8.9126  -14.1500   14.3991 N   0  0  0  0  0  0  0  0  0  0  0  0
    8.2931  -14.9952   21.0078 C   0  0  0  0  0  0  0  0  0  0  0  0
    7.3518  -14.4662   21.6126 O   0  0  0  0  0  0  0  0  0  0  0  0
    9.0334  -16.0259   21.6275 N   0  0  0  0  0  0  0  0  0  0  0  0
    8.7889  -16.5049   22.9713 C   0  0  1  0  0  0  0  0  0  0  0  0
    9.2488  -17.9473   23.0154 C   0  0  0  0  0  0  0  0  0  0  0  0
   10.4176  -18.1788   22.1427 C   0  0  0  0  0  0  0  0  0  0  0  0
   11.4764  -17.2926   22.0672 C   0  0  0  0  0  0  0  0  0  0  0  0
   12.3746  -17.7723   21.1990 N   0  0  0  0  0  0  0  0  0  0  0  0
   11.9160  -18.9422   20.7184 C   0  0  0  0  0  0  0  0  0  0  0  0
   10.7221  -19.1708   21.3069 N   0  0  0  0  0  0  0  0  0  0  0  0
    9.5171  -15.6578   23.9267 C   0  0  0  0  0  0  0  0  0  0  0  0
   10.7637  -15.8030   24.0390 O   0  0  0  0  0  0  0  0  0  0  0  0
    5.7243  -12.5031   26.6565 C   0  0  0  0  0  0  0  0  0  0  0  0
    7.0218  -12.9793   26.0390 C   0  0  1  0  0  0  0  0  0  0  0  0
    8.0054  -11.8120   26.1740 C   0  0  0  0  0  0  0  0  0  0  0  0
    7.6173  -14.1320   26.7678 C   0  0  0  0  0  0  0  0  0  0  0  0
    8.8766  -14.6923   26.1859 C   0  0  2  0  0  0  0  0  0  0  0  0
    8.8780  -14.6726   24.7386 N   0  0  0  0  0  0  0  0  0  0  0  0
    9.3064  -15.9806   26.7391 C   0  0  0  0  0  0  0  0  0  0  0  0
   10.2405  -16.0803   27.7604 O   0  0  0  0  0  0  0  0  0  0  0  0
    8.8488  -17.0976   26.3163 O   0  0  0  0  0  0  0  0  0  0  0  0
  2  1  1  6
  2  3  1  0
  3  4  1  0
  4  5  1  0
  5  6  1  0
  6  7  1  0
  8  2  1  0
  8  9  2  0
 10  8  1  0
 11 10  1  0
 11 12  1  6
 13 17  1  0
 13 12  1  0
 14 13  2  0
 15 14  1  0
 15 16  1  0
 16 17  2  0
 18 11  1  0
 19 18  2  0
 21 20  1  1
 21 22  1  0
 23 21  1  0
 24 23  1  6
 24 25  1  0
 25 18  1  0
 26 24  1  0
 27 26  1  0
 28 26  2  0
M  END
$$$$
