KHL.pdb
     RDKit          3D

 28 28  0  0  1  0  0  0  0  0999 V2000
    6.2872  -17.0627   20.0167 N   0  0  0  0  0  0  0  0  0  0  0  0
    6.8929  -16.0331   20.8407 C   0  0  1  0  0  0  0  0  0  0  0  0
    6.2130  -14.7018   20.6614 C   0  0  0  0  0  0  0  0  0  0  0  0
    7.2290  -13.6555   20.3301 C   0  0  0  0  0  0  0  0  0  0  0  0
    8.0070  -13.9633   19.0930 C   0  0  0  0  0  0  0  0  0  0  0  0
    9.1025  -12.9321   18.8720 C   0  0  0  0  0  0  0  0  0  0  0  0
    9.8806  -13.3437   17.7254 N   0  0  0  0  0  0  0  0  0  0  0  0
    6.8012  -16.4676   22.2670 C   0  0  0  0  0  0  0  0  0  0  0  0
    5.7133  -16.6345   22.8330 O   0  0  0  0  0  0  0  0  0  0  0  0
    8.0017  -16.6901   22.9765 N   0  0  0  0  0  0  0  0  0  0  0  0
    8.0609  -17.0673   24.3727 C   0  0  1  0  0  0  0  0  0  0  0  0
    8.7517  -18.4136   24.4365 C   0  0  0  0  0  0  0  0  0  0  0  0
    7.8227  -19.5231   24.1409 C   0  0  0  0  0  0  0  0  0  0  0  0
    6.5821  -19.6342   24.7418 C   0  0  0  0  0  0  0  0  0  0  0  0
    5.9782  -20.7335   24.2757 N   0  0  0  0  0  0  0  0  0  0  0  0
    6.8016  -21.3269   23.3926 C   0  0  0  0  0  0  0  0  0  0  0  0
    7.9198  -20.5725   23.3258 N   0  0  0  0  0  0  0  0  0  0  0  0
    8.7860  -16.0321   25.1230 C   0  0  0  0  0  0  0  0  0  0  0  0
    9.9633  -15.7448   24.7778 O   0  0  0  0  0  0  0  0  0  0  0  0
    6.1607  -11.7016   27.0294 C   0  0  0  0  0  0  0  0  0  0  0  0
    7.1508  -12.6916   26.4540 C   0  0  1  0  0  0  0  0  0  0  0  0
    7.9939  -11.9052   25.4445 C   0  0  0  0  0  0  0  0  0  0  0  0
    8.0902  -13.2270   27.4766 C   0  0  0  0  0  0  0  0  0  0  0  0
    8.9433  -14.3763   27.0414 C   0  0  2  0  0  0  0  0  0  0  0  0
    8.2189  -15.3316   26.2303 N   0  0  0  0  0  0  0  0  0  0  0  0
    9.7322  -15.0112   28.1022 C   0  0  0  0  0  0  0  0  0  0  0  0
    9.6869  -16.3756   28.3516 O   0  0  0  0  0  0  0  0  0  0  0  0
   10.5140  -14.3491   28.8678 O   0  0  0  0  0  0  0  0  0  0  0  0
  2  1  1  6
  2  3  1  0
  3  4  1  0
  4  5  1  0
  5  6  1  0
  6  7  1  0
  8  2  1  0
  8  9  2  0
 10  8  1  0
 11 10  1  0
 11 12  1  6
 13 17  1  0
 13 12  1  0
 14 13  2  0
 15 14  1  0
 15 16  1  0
 16 17  2  0
 18 11  1  0
 19 18  2  0
 21 20  1  1
 21 22  1  0
 23 21  1  0
 24 23  1  1
 24 25  1  0
 25 18  1  0
 26 24  1  0
 27 26  1  0
 28 26  2  0
M  END
$$$$
