KHL.pdb
     RDKit          3D

 28 28  0  0  1  0  0  0  0  0999 V2000
    6.6972  -17.0551   19.4914 N   0  0  0  0  0  0  0  0  0  0  0  0
    7.7069  -16.2176   20.1119 C   0  0  1  0  0  0  0  0  0  0  0  0
    7.2328  -14.7979   20.2743 C   0  0  0  0  0  0  0  0  0  0  0  0
    7.4360  -14.0474   18.9967 C   0  0  0  0  0  0  0  0  0  0  0  0
    8.5576  -13.0638   19.0655 C   0  0  0  0  0  0  0  0  0  0  0  0
    8.6068  -12.2103   17.8079 C   0  0  0  0  0  0  0  0  0  0  0  0
    9.5441  -11.1333   18.0337 N   0  0  0  0  0  0  0  0  0  0  0  0
    8.0388  -16.8031   21.4455 C   0  0  0  0  0  0  0  0  0  0  0  0
    7.2082  -17.4375   22.1083 O   0  0  0  0  0  0  0  0  0  0  0  0
    9.3445  -16.6176   21.9507 N   0  0  0  0  0  0  0  0  0  0  0  0
    9.7805  -17.0662   23.2559 C   0  0  1  0  0  0  0  0  0  0  0  0
   11.1826  -17.6139   23.0879 C   0  0  0  0  0  0  0  0  0  0  0  0
   11.1739  -19.0459   22.7264 C   0  0  0  0  0  0  0  0  0  0  0  0
   11.8405  -19.5374   21.6190 C   0  0  0  0  0  0  0  0  0  0  0  0
   11.6476  -20.8600   21.5558 N   0  0  0  0  0  0  0  0  0  0  0  0
   10.8748  -21.2253   22.5947 C   0  0  0  0  0  0  0  0  0  0  0  0
   10.5978  -20.1043   23.2951 N   0  0  0  0  0  0  0  0  0  0  0  0
    9.7315  -15.9377   24.1965 C   0  0  0  0  0  0  0  0  0  0  0  0
   10.6753  -15.1028   24.1924 O   0  0  0  0  0  0  0  0  0  0  0  0
    7.7921  -11.6346   26.6908 C   0  0  0  0  0  0  0  0  0  0  0  0
    7.0411  -12.8972   27.0557 C   0  0  1  0  0  0  0  0  0  0  0  0
    5.5547  -12.5253   27.0294 C   0  0  0  0  0  0  0  0  0  0  0  0
    7.2307  -13.9879   26.0611 C   0  0  0  0  0  0  0  0  0  0  0  0
    8.5831  -14.6274   26.0433 C   0  0  2  0  0  0  0  0  0  0  0  0
    8.6610  -15.7394   25.1200 N   0  0  0  0  0  0  0  0  0  0  0  0
    9.1491  -14.9386   27.3599 C   0  0  0  0  0  0  0  0  0  0  0  0
    8.7839  -16.0659   28.0821 O   0  0  0  0  0  0  0  0  0  0  0  0
   10.0166  -14.1912   27.9296 O   0  0  0  0  0  0  0  0  0  0  0  0
  2  1  1  1
  2  3  1  0
  3  4  1  0
  4  5  1  0
  5  6  1  0
  6  7  1  0
  8  2  1  0
  8  9  2  0
 10  8  1  0
 11 10  1  0
 11 12  1  6
 13 17  1  0
 13 12  1  0
 14 13  2  0
 15 14  1  0
 15 16  1  0
 16 17  2  0
 18 11  1  0
 19 18  2  0
 21 20  1  6
 21 22  1  0
 23 21  1  0
 24 23  1  1
 24 25  1  0
 25 18  1  0
 26 24  1  0
 27 26  1  0
 28 26  2  0
M  END
$$$$
