KHL.pdb
     RDKit          3D

 28 28  0  0  1  0  0  0  0  0999 V2000
   10.2000  -14.4852   19.3782 N   0  0  0  0  0  0  0  0  0  0  0  0
    9.0571  -13.8404   19.9978 C   0  0  1  0  0  0  0  0  0  0  0  0
    7.8659  -13.8096   19.0777 C   0  0  0  0  0  0  0  0  0  0  0  0
    8.3121  -14.0170   17.6654 C   0  0  0  0  0  0  0  0  0  0  0  0
    7.2167  -13.8236   16.6690 C   0  0  0  0  0  0  0  0  0  0  0  0
    7.7230  -14.0611   15.2549 C   0  0  0  0  0  0  0  0  0  0  0  0
    6.6325  -13.8091   14.3403 N   0  0  0  0  0  0  0  0  0  0  0  0
    8.7220  -14.5906   21.2454 C   0  0  0  0  0  0  0  0  0  0  0  0
    7.6595  -14.4099   21.8539 O   0  0  0  0  0  0  0  0  0  0  0  0
    9.6570  -15.5307   21.7316 N   0  0  0  0  0  0  0  0  0  0  0  0
    9.4308  -16.3789   22.8825 C   0  0  1  0  0  0  0  0  0  0  0  0
   10.3922  -17.5435   22.7672 C   0  0  0  0  0  0  0  0  0  0  0  0
    9.9405  -18.5326   21.7676 C   0  0  0  0  0  0  0  0  0  0  0  0
    8.7371  -18.4153   21.0966 C   0  0  0  0  0  0  0  0  0  0  0  0
    8.6085  -19.4549   20.2640 N   0  0  0  0  0  0  0  0  0  0  0  0
    9.6994  -20.2328   20.3864 C   0  0  0  0  0  0  0  0  0  0  0  0
   10.4979  -19.6521   21.3078 N   0  0  0  0  0  0  0  0  0  0  0  0
    9.6456  -15.5976   24.1088 C   0  0  0  0  0  0  0  0  0  0  0  0
   10.7891  -15.1165   24.3295 O   0  0  0  0  0  0  0  0  0  0  0  0
    5.8401  -12.4536   26.1577 C   0  0  0  0  0  0  0  0  0  0  0  0
    7.1879  -13.0236   25.7702 C   0  0  1  0  0  0  0  0  0  0  0  0
    8.1207  -11.8198   25.5996 C   0  0  0  0  0  0  0  0  0  0  0  0
    7.7785  -13.8798   26.8346 C   0  0  0  0  0  0  0  0  0  0  0  0
    8.8531  -14.8223   26.3930 C   0  0  2  0  0  0  0  0  0  0  0  0
    8.6165  -15.3552   25.0682 N   0  0  0  0  0  0  0  0  0  0  0  0
    9.2222  -15.8557   27.3658 C   0  0  0  0  0  0  0  0  0  0  0  0
    9.2322  -17.2074   27.0517 O   0  0  0  0  0  0  0  0  0  0  0  0
    9.5590  -15.5794   28.5683 O   0  0  0  0  0  0  0  0  0  0  0  0
  2  1  1  6
  2  3  1  0
  3  4  1  0
  4  5  1  0
  5  6  1  0
  6  7  1  0
  8  2  1  0
  8  9  2  0
 10  8  1  0
 11 10  1  0
 11 12  1  6
 13 17  1  0
 13 12  1  0
 14 13  2  0
 15 14  1  0
 15 16  1  0
 16 17  2  0
 18 11  1  0
 19 18  2  0
 21 20  1  1
 21 22  1  0
 23 21  1  0
 24 23  1  1
 24 25  1  0
 25 18  1  0
 26 24  1  0
 27 26  1  0
 28 26  2  0
M  END
$$$$
