KHL.pdb
     RDKit          3D

 28 28  0  0  1  0  0  0  0  0999 V2000
    8.3872  -18.3262   21.2578 N   0  0  0  0  0  0  0  0  0  0  0  0
    9.7033  -18.0005   20.7406 C   0  0  1  0  0  0  0  0  0  0  0  0
    9.8792  -18.4731   19.3220 C   0  0  0  0  0  0  0  0  0  0  0  0
    8.5451  -18.5745   18.6536 C   0  0  0  0  0  0  0  0  0  0  0  0
    8.6344  -19.0080   17.2273 C   0  0  0  0  0  0  0  0  0  0  0  0
    7.2517  -19.0951   16.6005 C   0  0  0  0  0  0  0  0  0  0  0  0
    7.4153  -19.3663   15.1901 N   0  0  0  0  0  0  0  0  0  0  0  0
    9.8754  -16.5182   20.8121 C   0  0  0  0  0  0  0  0  0  0  0  0
   10.8884  -15.9540   20.3797 O   0  0  0  0  0  0  0  0  0  0  0  0
    8.8413  -15.7527   21.3941 N   0  0  0  0  0  0  0  0  0  0  0  0
    8.8753  -14.3118   21.5274 C   0  0  1  0  0  0  0  0  0  0  0  0
    7.6370  -13.7762   20.8391 C   0  0  0  0  0  0  0  0  0  0  0  0
    7.7286  -13.8974   19.3699 C   0  0  0  0  0  0  0  0  0  0  0  0
    8.1962  -12.8732   18.5670 C   0  0  0  0  0  0  0  0  0  0  0  0
    8.1601  -13.2785   17.2923 N   0  0  0  0  0  0  0  0  0  0  0  0
    7.6814  -14.5354   17.2611 C   0  0  0  0  0  0  0  0  0  0  0  0
    7.4250  -14.8929   18.5380 N   0  0  0  0  0  0  0  0  0  0  0  0
    8.9175  -13.9588   22.9536 C   0  0  0  0  0  0  0  0  0  0  0  0
    8.9708  -12.7419   23.2763 O   0  0  0  0  0  0  0  0  0  0  0  0
    8.5015  -12.1927   27.4977 C   0  0  0  0  0  0  0  0  0  0  0  0
    7.4454  -13.1753   27.0387 C   0  0  1  0  0  0  0  0  0  0  0  0
    6.1144  -12.4177   27.0912 C   0  0  0  0  0  0  0  0  0  0  0  0
    7.6385  -13.6114   25.6290 C   0  0  0  0  0  0  0  0  0  0  0  0
    8.7242  -14.6147   25.3988 C   0  0  2  0  0  0  0  0  0  0  0  0
    8.9008  -14.9324   23.9977 N   0  0  0  0  0  0  0  0  0  0  0  0
    8.6703  -15.8066   26.2514 C   0  0  0  0  0  0  0  0  0  0  0  0
    9.4661  -15.9550   27.3786 O   0  0  0  0  0  0  0  0  0  0  0  0
    7.8864  -16.7885   26.0121 O   0  0  0  0  0  0  0  0  0  0  0  0
  2  1  1  6
  2  3  1  0
  3  4  1  0
  4  5  1  0
  5  6  1  0
  6  7  1  0
  8  2  1  0
  8  9  2  0
 10  8  1  0
 11 10  1  0
 11 12  1  1
 13 17  1  0
 13 12  1  0
 14 13  2  0
 15 14  1  0
 15 16  1  0
 16 17  2  0
 18 11  1  0
 19 18  2  0
 21 20  1  6
 21 22  1  0
 23 21  1  0
 24 23  1  6
 24 25  1  0
 25 18  1  0
 26 24  1  0
 27 26  1  0
 28 26  2  0
M  END
$$$$
