KHL.pdb
     RDKit          3D

 28 28  0  0  1  0  0  0  0  0999 V2000
    9.9990  -12.9601   19.5374 N   0  0  0  0  0  0  0  0  0  0  0  0
    8.5909  -12.9415   19.8879 C   0  0  1  0  0  0  0  0  0  0  0  0
    7.7122  -13.1480   18.6830 C   0  0  0  0  0  0  0  0  0  0  0  0
    8.4406  -13.9586   17.6587 C   0  0  0  0  0  0  0  0  0  0  0  0
    7.5436  -14.8632   16.8794 C   0  0  0  0  0  0  0  0  0  0  0  0
    8.3395  -15.6775   15.8714 C   0  0  0  0  0  0  0  0  0  0  0  0
    7.4191  -16.5401   15.1655 N   0  0  0  0  0  0  0  0  0  0  0  0
    8.3487  -14.0222   20.8904 C   0  0  0  0  0  0  0  0  0  0  0  0
    7.2128  -14.2952   21.2989 O   0  0  0  0  0  0  0  0  0  0  0  0
    9.4607  -14.7444   21.3764 N   0  0  0  0  0  0  0  0  0  0  0  0
    9.3645  -15.8674   22.2846 C   0  0  1  0  0  0  0  0  0  0  0  0
   10.4728  -16.8306   21.9132 C   0  0  0  0  0  0  0  0  0  0  0  0
   10.3932  -18.0856   22.6878 C   0  0  0  0  0  0  0  0  0  0  0  0
    9.1962  -18.5960   23.1557 C   0  0  0  0  0  0  0  0  0  0  0  0
    9.4450  -19.7330   23.8159 N   0  0  0  0  0  0  0  0  0  0  0  0
   10.7704  -19.9614   23.7813 C   0  0  0  0  0  0  0  0  0  0  0  0
   11.3288  -18.9452   23.0889 N   0  0  0  0  0  0  0  0  0  0  0  0
    9.4862  -15.3832   23.6670 C   0  0  0  0  0  0  0  0  0  0  0  0
   10.4949  -14.6975   23.9834 O   0  0  0  0  0  0  0  0  0  0  0  0
    5.7221  -12.6627   25.8838 C   0  0  0  0  0  0  0  0  0  0  0  0
    7.1146  -13.2017   25.6354 C   0  0  1  0  0  0  0  0  0  0  0  0
    8.0787  -12.0891   26.0609 C   0  0  0  0  0  0  0  0  0  0  0  0
    7.4301  -14.3901   26.4737 C   0  0  0  0  0  0  0  0  0  0  0  0
    8.6157  -15.1956   26.0448 C   0  0  2  0  0  0  0  0  0  0  0  0
    8.5122  -15.6529   24.6754 N   0  0  0  0  0  0  0  0  0  0  0  0
    9.0237  -16.2567   26.9711 C   0  0  0  0  0  0  0  0  0  0  0  0
    9.1421  -17.5833   26.5814 O   0  0  0  0  0  0  0  0  0  0  0  0
    9.2971  -16.0295   28.1997 O   0  0  0  0  0  0  0  0  0  0  0  0
  2  1  1  6
  2  3  1  0
  3  4  1  0
  4  5  1  0
  5  6  1  0
  6  7  1  0
  8  2  1  0
  8  9  2  0
 10  8  1  0
 11 10  1  0
 11 12  1  6
 13 17  1  0
 13 12  1  0
 14 13  2  0
 15 14  1  0
 15 16  1  0
 16 17  2  0
 18 11  1  0
 19 18  2  0
 21 20  1  1
 21 22  1  0
 23 21  1  0
 24 23  1  1
 24 25  1  0
 25 18  1  0
 26 24  1  0
 27 26  1  0
 28 26  2  0
M  END
$$$$
