KHL.pdb
     RDKit          3D

 28 28  0  0  1  0  0  0  0  0999 V2000
    9.9891  -18.5740   13.9298 N   0  0  0  0  0  0  0  0  0  0  0  0
   10.4818  -18.8013   15.2758 C   0  0  1  0  0  0  0  0  0  0  0  0
   11.8711  -18.2519   15.4627 C   0  0  0  0  0  0  0  0  0  0  0  0
   12.8616  -19.1365   14.7748 C   0  0  0  0  0  0  0  0  0  0  0  0
   14.2760  -18.7009   14.9747 C   0  0  0  0  0  0  0  0  0  0  0  0
   15.2345  -19.6144   14.2269 C   0  0  0  0  0  0  0  0  0  0  0  0
   15.4976  -19.0253   12.9334 N   0  0  0  0  0  0  0  0  0  0  0  0
    9.5386  -18.1462   16.2312 C   0  0  0  0  0  0  0  0  0  0  0  0
    8.8100  -17.2051   15.8919 O   0  0  0  0  0  0  0  0  0  0  0  0
    9.4896  -18.6275   17.5579 N   0  0  0  0  0  0  0  0  0  0  0  0
    8.5012  -18.2186   18.5331 C   0  0  1  0  0  0  0  0  0  0  0  0
    7.9483  -19.4832   19.1569 C   0  0  0  0  0  0  0  0  0  0  0  0
    9.0127  -20.3078   19.7639 C   0  0  0  0  0  0  0  0  0  0  0  0
    9.4930  -20.0801   21.0405 C   0  0  0  0  0  0  0  0  0  0  0  0
   10.4447  -20.9822   21.3066 N   0  0  0  0  0  0  0  0  0  0  0  0
   10.5842  -21.7800   20.2323 C   0  0  0  0  0  0  0  0  0  0  0  0
    9.7020  -21.3513   19.3041 N   0  0  0  0  0  0  0  0  0  0  0  0
    9.1355  -17.3386   19.5249 C   0  0  0  0  0  0  0  0  0  0  0  0
   10.3772  -17.4354   19.7161 O   0  0  0  0  0  0  0  0  0  0  0  0
    6.6227  -12.5548   20.4570 C   0  0  0  0  0  0  0  0  0  0  0  0
    7.6948  -13.5872   20.1812 C   0  0  1  0  0  0  0  0  0  0  0  0
    8.8567  -12.8252   19.5349 C   0  0  0  0  0  0  0  0  0  0  0  0
    8.2261  -14.2116   21.4233 C   0  0  0  0  0  0  0  0  0  0  0  0
    9.0194  -15.4661   21.2356 C   0  0  2  0  0  0  0  0  0  0  0  0
    8.4100  -16.3736   20.2870 N   0  0  0  0  0  0  0  0  0  0  0  0
    9.4436  -16.1328   22.4710 C   0  0  0  0  0  0  0  0  0  0  0  0
    9.0371  -17.4172   22.8038 O   0  0  0  0  0  0  0  0  0  0  0  0
   10.2161  -15.5741   23.3237 O   0  0  0  0  0  0  0  0  0  0  0  0
  2  1  1  6
  2  3  1  0
  3  4  1  0
  4  5  1  0
  5  6  1  0
  6  7  1  0
  8  2  1  0
  8  9  2  0
 10  8  1  0
 11 10  1  0
 11 12  1  1
 13 17  1  0
 13 12  1  0
 14 13  2  0
 15 14  1  0
 15 16  1  0
 16 17  2  0
 18 11  1  0
 19 18  2  0
 21 20  1  1
 21 22  1  0
 23 21  1  0
 24 23  1  1
 24 25  1  0
 25 18  1  0
 26 24  1  0
 27 26  1  0
 28 26  2  0
M  END
$$$$
