KHL.pdb
     RDKit          3D

 28 28  0  0  1  0  0  0  0  0999 V2000
    7.4644  -17.5653   20.2401 N   0  0  0  0  0  0  0  0  0  0  0  0
    8.4004  -16.6580   20.8780 C   0  0  1  0  0  0  0  0  0  0  0  0
    8.1049  -15.2211   20.5395 C   0  0  0  0  0  0  0  0  0  0  0  0
    8.4241  -14.9643   19.1011 C   0  0  0  0  0  0  0  0  0  0  0  0
    8.2295  -13.5385   18.7019 C   0  0  0  0  0  0  0  0  0  0  0  0
    8.6674  -13.3147   17.2629 C   0  0  0  0  0  0  0  0  0  0  0  0
    8.3470  -11.9517   16.9039 N   0  0  0  0  0  0  0  0  0  0  0  0
    8.3130  -16.8652   22.3548 C   0  0  0  0  0  0  0  0  0  0  0  0
    7.2374  -17.0945   22.9223 O   0  0  0  0  0  0  0  0  0  0  0  0
    9.5033  -16.7939   23.1113 N   0  0  0  0  0  0  0  0  0  0  0  0
    9.5806  -17.0704   24.5300 C   0  0  1  0  0  0  0  0  0  0  0  0
   10.7200  -18.0486   24.7268 C   0  0  0  0  0  0  0  0  0  0  0  0
   10.3008  -19.4408   24.4667 C   0  0  0  0  0  0  0  0  0  0  0  0
   10.5758  -20.0902   23.2772 C   0  0  0  0  0  0  0  0  0  0  0  0
   10.0728  -21.3286   23.3399 N   0  0  0  0  0  0  0  0  0  0  0  0
    9.4838  -21.4861   24.5391 C   0  0  0  0  0  0  0  0  0  0  0  0
    9.6346  -20.3236   25.2096 N   0  0  0  0  0  0  0  0  0  0  0  0
    9.7945  -15.8112   25.2573 C   0  0  0  0  0  0  0  0  0  0  0  0
   10.7845  -15.0942   24.9511 O   0  0  0  0  0  0  0  0  0  0  0  0
    5.6719  -12.7436   27.1044 C   0  0  0  0  0  0  0  0  0  0  0  0
    6.9322  -13.3859   26.5654 C   0  0  1  0  0  0  0  0  0  0  0  0
    7.4488  -12.4458   25.4710 C   0  0  0  0  0  0  0  0  0  0  0  0
    8.0082  -13.4900   27.5883 C   0  0  0  0  0  0  0  0  0  0  0  0
    9.2322  -14.2438   27.1739 C   0  0  2  0  0  0  0  0  0  0  0  0
    8.9310  -15.3574   26.2997 N   0  0  0  0  0  0  0  0  0  0  0  0
   10.1474  -14.6041   28.2617 C   0  0  0  0  0  0  0  0  0  0  0  0
   10.7808  -13.6539   29.0502 O   0  0  0  0  0  0  0  0  0  0  0  0
   10.4224  -15.8181   28.5553 O   0  0  0  0  0  0  0  0  0  0  0  0
  2  1  1  6
  2  3  1  0
  3  4  1  0
  4  5  1  0
  5  6  1  0
  6  7  1  0
  8  2  1  0
  8  9  2  0
 10  8  1  0
 11 10  1  0
 11 12  1  6
 13 17  1  0
 13 12  1  0
 14 13  2  0
 15 14  1  0
 15 16  1  0
 16 17  2  0
 18 11  1  0
 19 18  2  0
 21 20  1  1
 21 22  1  0
 23 21  1  0
 24 23  1  1
 24 25  1  0
 25 18  1  0
 26 24  1  0
 27 26  1  0
 28 26  2  0
M  END
$$$$
