IST.pdb
     RDKit          3D

 22 21  0  0  1  0  0  0  0  0999 V2000
   18.4597  -13.0909  -20.9980 C   0  0  0  0  0  0  0  0  0  0  0  0
   19.3864  -13.0976  -19.7793 C   0  0  0  0  0  0  0  0  0  0  0  0
   19.1650  -11.8958  -18.9345 C   0  0  2  0  0  0  0  0  0  0  0  0
   19.1846  -10.6154  -19.7505 C   0  0  0  0  0  0  0  0  0  0  0  0
   19.9915  -11.8296  -17.7133 C   0  0  2  0  0  0  0  0  0  0  0  0
   19.7504  -13.0916  -16.9530 N   0  0  0  0  0  0  0  0  0  0  0  0
   19.8185  -10.7513  -16.7688 C   0  0  0  0  0  0  0  0  0  0  0  0
   18.7129  -10.6856  -16.1024 O   0  0  0  0  0  0  0  0  0  0  0  0
   21.1592   -7.5243  -13.5568 O   0  0  0  0  0  0  0  0  0  0  0  0
   21.4300   -8.5626  -14.4603 C   0  0  0  0  0  0  0  0  0  0  0  0
   20.3809   -8.6102  -15.5538 C   0  0  2  0  0  0  0  0  0  0  0  0
   20.7176   -9.7050  -16.4368 N   0  0  0  0  0  0  0  0  0  0  0  0
   20.2116   -7.3093  -16.2201 C   0  0  0  0  0  0  0  0  0  0  0  0
   21.1017   -6.9109  -17.0564 O   0  0  0  0  0  0  0  0  0  0  0  0
   17.1218   -5.8810  -18.3619 C   0  0  0  0  0  0  0  0  0  0  0  0
   17.5961   -4.9251  -17.2881 C   0  0  1  0  0  0  0  0  0  0  0  0
   16.6768   -4.9205  -16.2154 O   0  0  0  0  0  0  0  0  0  0  0  0
   18.9829   -5.1900  -16.8172 C   0  0  2  0  0  0  0  0  0  0  0  0
   19.1420   -6.4011  -16.0417 N   0  0  0  0  0  0  0  0  0  0  0  0
   19.4045   -3.9918  -16.0218 C   0  0  0  0  0  0  0  0  0  0  0  0
   19.6366   -4.0837  -14.7992 O   0  0  0  0  0  0  0  0  0  0  0  0
   19.5426   -2.7583  -16.6304 O   0  0  0  0  0  0  0  0  0  0  0  0
  2  1  1  0
  3  2  1  0
  3  5  1  0
  3  4  1  6
  5  7  1  0
  5  6  1  1
  7 12  1  0
  7  8  2  0
 11 10  1  1
 10  9  1  0
 11 13  1  0
 12 11  1  0
 13 14  2  0
 16 15  1  6
 16 18  1  0
 17 16  1  0
 18 20  1  0
 19 13  1  0
 18 19  1  1
 20 22  1  0
 21 20  2  0
M  END
$$$$
