IST.pdb
     RDKit          3D

 22 21  0  0  1  0  0  0  0  0999 V2000
   19.3829  -14.7305  -18.1093 C   0  0  0  0  0  0  0  0  0  0  0  0
   18.5882  -14.0843  -16.9714 C   0  0  0  0  0  0  0  0  0  0  0  0
   18.7386  -12.6063  -16.9883 C   0  0  2  0  0  0  0  0  0  0  0  0
   20.1916  -12.1839  -17.1150 C   0  0  0  0  0  0  0  0  0  0  0  0
   18.0073  -11.8917  -15.9237 C   0  0  2  0  0  0  0  0  0  0  0  0
   16.5725  -12.2882  -16.0367 N   0  0  0  0  0  0  0  0  0  0  0  0
   18.0230  -10.4491  -15.8652 C   0  0  0  0  0  0  0  0  0  0  0  0
   17.8994   -9.7851  -16.9673 O   0  0  0  0  0  0  0  0  0  0  0  0
   15.9691   -8.2832  -14.3188 O   0  0  0  0  0  0  0  0  0  0  0  0
   17.1353   -7.5307  -14.1149 C   0  0  0  0  0  0  0  0  0  0  0  0
   18.3167   -8.1703  -14.8173 C   0  0  2  0  0  0  0  0  0  0  0  0
   18.1529   -9.6048  -14.7322 N   0  0  0  0  0  0  0  0  0  0  0  0
   19.6039   -7.6650  -14.3147 C   0  0  0  0  0  0  0  0  0  0  0  0
   20.0740   -8.1285  -13.2125 O   0  0  0  0  0  0  0  0  0  0  0  0
   23.2738   -7.4796  -15.9443 C   0  0  0  0  0  0  0  0  0  0  0  0
   22.7899   -6.1509  -15.4040 C   0  0  1  0  0  0  0  0  0  0  0  0
   22.4088   -5.3122  -16.4750 O   0  0  0  0  0  0  0  0  0  0  0  0
   21.7044   -6.2724  -14.3930 C   0  0  2  0  0  0  0  0  0  0  0  0
   20.4223   -6.6842  -14.9223 N   0  0  0  0  0  0  0  0  0  0  0  0
   21.5950   -4.9400  -13.7155 C   0  0  0  0  0  0  0  0  0  0  0  0
   20.5516   -4.2611  -13.8017 O   0  0  0  0  0  0  0  0  0  0  0  0
   22.6529   -4.4366  -12.9816 O   0  0  0  0  0  0  0  0  0  0  0  0
  2  1  1  0
  3  2  1  0
  3  5  1  0
  3  4  1  1
  5  7  1  0
  5  6  1  6
  7 12  1  0
  7  8  2  0
 11 10  1  1
 10  9  1  0
 11 13  1  0
 12 11  1  0
 13 14  2  0
 16 15  1  6
 16 18  1  0
 17 16  1  0
 18 20  1  0
 19 13  1  0
 18 19  1  6
 20 22  1  0
 21 20  2  0
M  END
$$$$
