IST.pdb
     RDKit          3D

 22 21  0  0  1  0  0  0  0  0999 V2000
   16.8666  -14.6880  -19.1156 C   0  0  0  0  0  0  0  0  0  0  0  0
   18.2454  -14.4701  -18.4869 C   0  0  0  0  0  0  0  0  0  0  0  0
   18.2800  -13.2098  -17.7010 C   0  0  2  0  0  0  0  0  0  0  0  0
   17.7852  -12.0224  -18.5080 C   0  0  0  0  0  0  0  0  0  0  0  0
   19.5470  -12.9521  -16.9889 C   0  0  2  0  0  0  0  0  0  0  0  0
   19.8302  -14.1546  -16.1509 N   0  0  0  0  0  0  0  0  0  0  0  0
   19.6765  -11.8115  -16.1131 C   0  0  0  0  0  0  0  0  0  0  0  0
   18.9682  -11.7793  -15.0323 O   0  0  0  0  0  0  0  0  0  0  0  0
   22.8109   -9.4557  -15.3063 O   0  0  0  0  0  0  0  0  0  0  0  0
   21.6449   -9.4740  -14.5266 C   0  0  0  0  0  0  0  0  0  0  0  0
   20.4109   -9.5008  -15.4068 C   0  0  2  0  0  0  0  0  0  0  0  0
   20.5039  -10.6676  -16.2563 N   0  0  0  0  0  0  0  0  0  0  0  0
   20.2092   -8.2310  -16.1221 C   0  0  0  0  0  0  0  0  0  0  0  0
   20.8104   -8.0373  -17.2409 O   0  0  0  0  0  0  0  0  0  0  0  0
   17.0448   -6.3039  -17.5876 C   0  0  0  0  0  0  0  0  0  0  0  0
   17.8598   -5.4498  -16.6400 C   0  0  1  0  0  0  0  0  0  0  0  0
   17.1886   -5.3397  -15.4018 O   0  0  0  0  0  0  0  0  0  0  0  0
   19.2608   -5.9195  -16.4613 C   0  0  2  0  0  0  0  0  0  0  0  0
   19.4005   -7.1468  -15.7080 N   0  0  0  0  0  0  0  0  0  0  0  0
   20.0088   -4.8025  -15.7987 C   0  0  0  0  0  0  0  0  0  0  0  0
   20.4941   -4.9446  -14.6579 O   0  0  0  0  0  0  0  0  0  0  0  0
   20.1736   -3.5896  -16.4412 O   0  0  0  0  0  0  0  0  0  0  0  0
  2  1  1  0
  3  2  1  0
  3  5  1  0
  3  4  1  6
  5  7  1  0
  5  6  1  1
  7 12  1  0
  7  8  2  0
 11 10  1  6
 10  9  1  0
 11 13  1  0
 12 11  1  0
 13 14  2  0
 16 15  1  6
 16 18  1  0
 17 16  1  0
 18 20  1  0
 19 13  1  0
 18 19  1  1
 20 22  1  0
 21 20  2  0
M  END
$$$$
