IST.pdb
     RDKit          3D

 22 21  0  0  1  0  0  0  0  0999 V2000
   16.5191  -14.4493  -17.3267 C   0  0  0  0  0  0  0  0  0  0  0  0
   16.7848  -13.6569  -16.0439 C   0  0  0  0  0  0  0  0  0  0  0  0
   17.2902  -12.2946  -16.3537 C   0  0  2  0  0  0  0  0  0  0  0  0
   18.4571  -12.3280  -17.3247 C   0  0  0  0  0  0  0  0  0  0  0  0
   17.5254  -11.4333  -15.1782 C   0  0  2  0  0  0  0  0  0  0  0  0
   16.2683  -11.4392  -14.3730 N   0  0  0  0  0  0  0  0  0  0  0  0
   17.8889  -10.0462  -15.3471 C   0  0  0  0  0  0  0  0  0  0  0  0
   18.9528   -9.7649  -16.0251 O   0  0  0  0  0  0  0  0  0  0  0  0
   16.0421   -6.7430  -13.5628 O   0  0  0  0  0  0  0  0  0  0  0  0
   16.5143   -6.6038  -14.8764 C   0  0  0  0  0  0  0  0  0  0  0  0
   17.6804   -7.5389  -15.1296 C   0  0  2  0  0  0  0  0  0  0  0  0
   17.2261   -8.8868  -14.8676 N   0  0  0  0  0  0  0  0  0  0  0  0
   18.8865   -7.1388  -14.3879 C   0  0  0  0  0  0  0  0  0  0  0  0
   19.0378   -7.5330  -13.1745 O   0  0  0  0  0  0  0  0  0  0  0  0
   22.5387   -8.0500  -14.4281 C   0  0  0  0  0  0  0  0  0  0  0  0
   22.3968   -6.5538  -14.6100 C   0  0  1  0  0  0  0  0  0  0  0  0
   22.5860   -6.2198  -15.9695 O   0  0  0  0  0  0  0  0  0  0  0  0
   21.1173   -6.0032  -14.0857 C   0  0  2  0  0  0  0  0  0  0  0  0
   19.9459   -6.3339  -14.8679 N   0  0  0  0  0  0  0  0  0  0  0  0
   21.2923   -4.5175  -13.9950 C   0  0  0  0  0  0  0  0  0  0  0  0
   20.6079   -3.7476  -14.6993 O   0  0  0  0  0  0  0  0  0  0  0  0
   22.2197   -3.9715  -13.1274 O   0  0  0  0  0  0  0  0  0  0  0  0
  2  1  1  0
  3  2  1  0
  3  5  1  0
  3  4  1  1
  5  7  1  0
  5  6  1  1
  7 12  1  0
  7  8  2  0
 11 10  1  1
 10  9  1  0
 11 13  1  0
 12 11  1  0
 13 14  2  0
 16 15  1  6
 16 18  1  0
 17 16  1  0
 18 20  1  0
 19 13  1  0
 18 19  1  6
 20 22  1  0
 21 20  2  0
M  END
$$$$
