IST.pdb
     RDKit          3D

 22 21  0  0  1  0  0  0  0  0999 V2000
   28.0868  -19.4898   -7.2500 C   0  0  0  0  0  0  0  0  0  0  0  0
   28.2176  -20.6724   -8.2136 C   0  0  0  0  0  0  0  0  0  0  0  0
   27.3276  -20.5019   -9.3909 C   0  0  2  0  0  0  0  0  0  0  0  0
   25.8836  -20.2684   -8.9833 C   0  0  0  0  0  0  0  0  0  0  0  0
   27.4851  -21.5220  -10.4461 C   0  0  2  0  0  0  0  0  0  0  0  0
   28.9369  -21.5750  -10.7901 N   0  0  0  0  0  0  0  0  0  0  0  0
   26.7789  -21.3953  -11.6990 C   0  0  0  0  0  0  0  0  0  0  0  0
   27.2033  -20.5322  -12.5626 O   0  0  0  0  0  0  0  0  0  0  0  0
   23.7506  -23.9038  -13.2403 O   0  0  0  0  0  0  0  0  0  0  0  0
   24.6588  -23.1992  -14.0443 C   0  0  0  0  0  0  0  0  0  0  0  0
   24.9943  -21.8565  -13.4252 C   0  0  2  0  0  0  0  0  0  0  0  0
   25.6404  -22.1084  -12.1560 N   0  0  0  0  0  0  0  0  0  0  0  0
   23.8244  -20.9669  -13.3566 C   0  0  0  0  0  0  0  0  0  0  0  0
   23.2769  -20.7352  -12.2176 O   0  0  0  0  0  0  0  0  0  0  0  0
   22.6297  -17.2237  -14.9852 C   0  0  0  0  0  0  0  0  0  0  0  0
   21.8067  -18.4537  -15.3037 C   0  0  1  0  0  0  0  0  0  0  0  0
   22.0893  -18.8881  -16.6179 O   0  0  0  0  0  0  0  0  0  0  0  0
   21.9681  -19.5569  -14.3177 C   0  0  2  0  0  0  0  0  0  0  0  0
   23.1982  -20.3088  -14.4408 N   0  0  0  0  0  0  0  0  0  0  0  0
   20.7793  -20.4554  -14.4775 C   0  0  0  0  0  0  0  0  0  0  0  0
   19.6313  -20.0550  -14.1965 O   0  0  0  0  0  0  0  0  0  0  0  0
   20.9340  -21.7492  -14.9391 O   0  0  0  0  0  0  0  0  0  0  0  0
  2  1  1  0
  3  2  1  0
  3  5  1  0
  3  4  1  1
  5  7  1  0
  5  6  1  6
  7 12  1  0
  7  8  2  0
 11 10  1  1
 10  9  1  0
 11 13  1  0
 12 11  1  0
 13 14  2  0
 16 15  1  1
 16 18  1  0
 17 16  1  0
 18 20  1  0
 19 13  1  0
 18 19  1  6
 20 22  1  0
 21 20  2  0
M  END
$$$$
