IST.pdb
     RDKit          3D

 22 21  0  0  1  0  0  0  0  0999 V2000
   25.6791  -15.6447  -15.5137 C   0  0  0  0  0  0  0  0  0  0  0  0
   24.1930  -15.3617  -15.2783 C   0  0  0  0  0  0  0  0  0  0  0  0
   23.8516  -13.9635  -15.6465 C   0  0  2  0  0  0  0  0  0  0  0  0
   24.7590  -12.9571  -14.9613 C   0  0  0  0  0  0  0  0  0  0  0  0
   22.4179  -13.6249  -15.5522 C   0  0  2  0  0  0  0  0  0  0  0  0
   21.6742  -14.6452  -16.3488 N   0  0  0  0  0  0  0  0  0  0  0  0
   21.9380  -12.3381  -15.9977 C   0  0  0  0  0  0  0  0  0  0  0  0
   21.7509  -12.1533  -17.2633 O   0  0  0  0  0  0  0  0  0  0  0  0
   19.1214   -8.7053  -16.1394 O   0  0  0  0  0  0  0  0  0  0  0  0
   19.6458   -9.8945  -15.6114 C   0  0  0  0  0  0  0  0  0  0  0  0
   21.1494   -9.9474  -15.7976 C   0  0  2  0  0  0  0  0  0  0  0  0
   21.6181  -11.1907  -15.2265 N   0  0  0  0  0  0  0  0  0  0  0  0
   21.8171   -8.7414  -15.2834 C   0  0  0  0  0  0  0  0  0  0  0  0
   22.2646   -8.7357  -14.0791 O   0  0  0  0  0  0  0  0  0  0  0  0
   23.8456   -4.1745  -15.7441 C   0  0  0  0  0  0  0  0  0  0  0  0
   23.1299   -5.3487  -16.3772 C   0  0  1  0  0  0  0  0  0  0  0  0
   23.9465   -5.9198  -17.3786 O   0  0  0  0  0  0  0  0  0  0  0  0
   22.6706   -6.3716  -15.3985 C   0  0  2  0  0  0  0  0  0  0  0  0
   22.0331   -7.5313  -15.9833 N   0  0  0  0  0  0  0  0  0  0  0  0
   21.7398   -5.6756  -14.4523 C   0  0  0  0  0  0  0  0  0  0  0  0
   20.5043   -5.7177  -14.6219 O   0  0  0  0  0  0  0  0  0  0  0  0
   22.2353   -4.9703  -13.3715 O   0  0  0  0  0  0  0  0  0  0  0  0
  2  1  1  0
  3  2  1  0
  3  5  1  0
  3  4  1  1
  5  7  1  0
  5  6  1  6
  7 12  1  0
  7  8  2  0
 11 10  1  1
 10  9  1  0
 11 13  1  0
 12 11  1  0
 13 14  2  0
 16 15  1  1
 16 18  1  0
 17 16  1  0
 18 20  1  0
 19 13  1  0
 18 19  1  6
 20 22  1  0
 21 20  2  0
M  END
$$$$
