IST.pdb
     RDKit          3D

 22 21  0  0  1  0  0  0  0  0999 V2000
   27.4485  -19.6606   -7.1163 C   0  0  0  0  0  0  0  0  0  0  0  0
   27.6385  -20.7400   -8.1853 C   0  0  0  0  0  0  0  0  0  0  0  0
   26.7124  -20.5280   -9.3275 C   0  0  2  0  0  0  0  0  0  0  0  0
   25.2613  -20.4827   -8.8825 C   0  0  0  0  0  0  0  0  0  0  0  0
   26.9452  -21.4053  -10.4916 C   0  0  2  0  0  0  0  0  0  0  0  0
   28.3890  -21.2818  -10.8507 N   0  0  0  0  0  0  0  0  0  0  0  0
   26.2073  -21.2081  -11.7170 C   0  0  0  0  0  0  0  0  0  0  0  0
   26.5819  -20.2658  -12.5185 O   0  0  0  0  0  0  0  0  0  0  0  0
   24.0318  -22.5889  -15.6217 O   0  0  0  0  0  0  0  0  0  0  0  0
   24.5047  -22.8605  -14.3292 C   0  0  0  0  0  0  0  0  0  0  0  0
   24.4250  -21.6229  -13.4572 C   0  0  2  0  0  0  0  0  0  0  0  0
   25.0848  -21.9251  -12.2062 N   0  0  0  0  0  0  0  0  0  0  0  0
   23.0475  -21.1234  -13.3237 C   0  0  0  0  0  0  0  0  0  0  0  0
   22.3496  -21.4695  -12.3021 O   0  0  0  0  0  0  0  0  0  0  0  0
   21.0508  -17.3840  -14.1009 C   0  0  0  0  0  0  0  0  0  0  0  0
   20.5840  -18.6505  -14.7864 C   0  0  1  0  0  0  0  0  0  0  0  0
   21.0277  -18.6568  -16.1275 O   0  0  0  0  0  0  0  0  0  0  0  0
   20.9761  -19.8982  -14.0759 C   0  0  2  0  0  0  0  0  0  0  0  0
   22.3655  -20.2733  -14.2253 N   0  0  0  0  0  0  0  0  0  0  0  0
   20.0762  -20.9841  -14.5830 C   0  0  0  0  0  0  0  0  0  0  0  0
   20.5329  -21.9366  -15.2473 O   0  0  0  0  0  0  0  0  0  0  0  0
   18.7187  -20.9488  -14.3245 O   0  0  0  0  0  0  0  0  0  0  0  0
  2  1  1  0
  3  2  1  0
  3  5  1  0
  3  4  1  1
  5  7  1  0
  5  6  1  6
  7 12  1  0
  7  8  2  0
 11 10  1  6
 10  9  1  0
 11 13  1  0
 12 11  1  0
 13 14  2  0
 16 15  1  1
 16 18  1  0
 17 16  1  0
 18 20  1  0
 19 13  1  0
 18 19  1  6
 20 22  1  0
 21 20  2  0
M  END
$$$$
