IST.pdb
     RDKit          3D

 22 21  0  0  1  0  0  0  0  0999 V2000
   19.0596  -12.5084  -21.4229 C   0  0  0  0  0  0  0  0  0  0  0  0
   18.5953  -12.8645  -20.0081 C   0  0  0  0  0  0  0  0  0  0  0  0
   18.4501  -11.6453  -19.1718 C   0  0  2  0  0  0  0  0  0  0  0  0
   17.6861  -10.5487  -19.8926 C   0  0  0  0  0  0  0  0  0  0  0  0
   19.6944  -11.1746  -18.5322 C   0  0  2  0  0  0  0  0  0  0  0  0
   20.3066  -12.3515  -17.8475 N   0  0  0  0  0  0  0  0  0  0  0  0
   19.6595  -10.1131  -17.5541 C   0  0  0  0  0  0  0  0  0  0  0  0
   18.5270   -9.8146  -17.0070 O   0  0  0  0  0  0  0  0  0  0  0  0
   21.5627   -7.4313  -14.0694 O   0  0  0  0  0  0  0  0  0  0  0  0
   21.6665   -8.4161  -15.0630 C   0  0  0  0  0  0  0  0  0  0  0  0
   20.5585   -8.2650  -16.0866 C   0  0  2  0  0  0  0  0  0  0  0  0
   20.7258   -9.3111  -17.0711 N   0  0  0  0  0  0  0  0  0  0  0  0
   20.4921   -6.9027  -16.6385 C   0  0  0  0  0  0  0  0  0  0  0  0
   21.3192   -6.5563  -17.5587 O   0  0  0  0  0  0  0  0  0  0  0  0
   17.4216   -4.9302  -18.2815 C   0  0  0  0  0  0  0  0  0  0  0  0
   18.1313   -4.1248  -17.2141 C   0  0  1  0  0  0  0  0  0  0  0  0
   17.3407   -4.0846  -16.0441 O   0  0  0  0  0  0  0  0  0  0  0  0
   19.5125   -4.5969  -16.9236 C   0  0  2  0  0  0  0  0  0  0  0  0
   19.5907   -5.8804  -16.2603 N   0  0  0  0  0  0  0  0  0  0  0  0
   20.1672   -3.5321  -16.0967 C   0  0  0  0  0  0  0  0  0  0  0  0
   20.5387   -3.7657  -14.9286 O   0  0  0  0  0  0  0  0  0  0  0  0
   20.3703   -2.2666  -16.6147 O   0  0  0  0  0  0  0  0  0  0  0  0
  2  1  1  0
  3  2  1  0
  3  5  1  0
  3  4  1  6
  5  7  1  0
  5  6  1  1
  7 12  1  0
  7  8  2  0
 11 10  1  1
 10  9  1  0
 11 13  1  0
 12 11  1  0
 13 14  2  0
 16 15  1  6
 16 18  1  0
 17 16  1  0
 18 20  1  0
 19 13  1  0
 18 19  1  1
 20 22  1  0
 21 20  2  0
M  END
$$$$
