IST.pdb
     RDKit          3D

 22 21  0  0  1  0  0  0  0  0999 V2000
   15.7710  -14.3625  -17.1983 C   0  0  0  0  0  0  0  0  0  0  0  0
   17.2267  -13.8954  -17.2807 C   0  0  0  0  0  0  0  0  0  0  0  0
   17.4110  -12.5985  -16.5797 C   0  0  2  0  0  0  0  0  0  0  0  0
   16.4009  -11.5589  -17.0320 C   0  0  0  0  0  0  0  0  0  0  0  0
   18.7990  -12.0974  -16.5476 C   0  0  2  0  0  0  0  0  0  0  0  0
   19.6371  -13.1696  -15.9339 N   0  0  0  0  0  0  0  0  0  0  0  0
   19.1225  -10.8801  -15.8418 C   0  0  0  0  0  0  0  0  0  0  0  0
   18.7904  -10.7815  -14.5965 O   0  0  0  0  0  0  0  0  0  0  0  0
   22.0421   -9.0831  -14.4412 O   0  0  0  0  0  0  0  0  0  0  0  0
   21.4686   -8.2736  -15.4330 C   0  0  0  0  0  0  0  0  0  0  0  0
   19.9767   -8.5236  -15.5338 C   0  0  2  0  0  0  0  0  0  0  0  0
   19.7854   -9.7210  -16.3221 N   0  0  0  0  0  0  0  0  0  0  0  0
   19.2454   -7.3423  -16.0180 C   0  0  0  0  0  0  0  0  0  0  0  0
   19.3174   -7.0243  -17.2607 O   0  0  0  0  0  0  0  0  0  0  0  0
   15.3467   -6.2303  -15.6937 C   0  0  0  0  0  0  0  0  0  0  0  0
   16.3346   -5.1717  -15.2518 C   0  0  1  0  0  0  0  0  0  0  0  0
   16.3518   -5.0962  -13.8413 O   0  0  0  0  0  0  0  0  0  0  0  0
   17.7036   -5.3586  -15.8051 C   0  0  2  0  0  0  0  0  0  0  0  0
   18.4393   -6.4725  -15.2470 N   0  0  0  0  0  0  0  0  0  0  0  0
   18.4387   -4.0720  -15.5808 C   0  0  0  0  0  0  0  0  0  0  0  0
   19.4324   -4.0247  -14.8276 O   0  0  0  0  0  0  0  0  0  0  0  0
   18.0263   -2.9097  -16.2053 O   0  0  0  0  0  0  0  0  0  0  0  0
  2  1  1  0
  3  2  1  0
  3  5  1  0
  3  4  1  6
  5  7  1  0
  5  6  1  1
  7 12  1  0
  7  8  2  0
 11 10  1  6
 10  9  1  0
 11 13  1  0
 12 11  1  0
 13 14  2  0
 16 15  1  1
 16 18  1  0
 17 16  1  0
 18 20  1  0
 19 13  1  0
 18 19  1  1
 20 22  1  0
 21 20  2  0
M  END
$$$$
