HRG.pdb
     RDKit          3D

 26 26  0  0  1  0  0  0  0  0999 V2000
   23.9678  -20.3634  -16.6883 N   0  0  0  0  0  0  0  0  0  0  0  0
   24.4861  -19.4684  -15.6754 C   0  0  1  0  0  0  0  0  0  0  0  0
   23.4078  -18.4996  -15.3188 C   0  0  0  0  0  0  0  0  0  0  0  0
   23.2226  -17.6021  -16.5106 C   0  0  0  0  0  0  0  0  0  0  0  0
   23.9858  -17.6026  -17.6712 C   0  0  0  0  0  0  0  0  0  0  0  0
   23.5124  -16.6642  -18.4927 N   0  0  0  0  0  0  0  0  0  0  0  0
   22.4696  -16.0580  -17.9018 C   0  0  0  0  0  0  0  0  0  0  0  0
   22.3053  -16.6394  -16.6963 N   0  0  0  0  0  0  0  0  0  0  0  0
   25.0674  -20.2028  -14.5465 C   0  0  0  0  0  0  0  0  0  0  0  0
   24.4050  -21.1468  -14.0244 O   0  0  0  0  0  0  0  0  0  0  0  0
   33.0962  -22.0724  -11.5441 N   0  0  0  0  0  0  0  0  0  0  0  0
   32.2957  -22.2516  -10.3752 C   0  0  0  0  0  0  0  0  0  0  0  0
   32.8474  -22.7053   -9.3051 N   0  0  0  0  0  0  0  0  0  0  0  0
   30.9083  -21.9365  -10.3796 N   0  0  0  0  0  0  0  0  0  0  0  0
   30.3165  -21.2679  -11.5202 C   0  0  0  0  0  0  0  0  0  0  0  0
   28.8083  -21.0694  -11.3288 C   0  0  0  0  0  0  0  0  0  0  0  0
   28.2997  -20.4329  -12.5840 C   0  0  0  0  0  0  0  0  0  0  0  0
   26.8171  -20.5251  -12.7629 C   0  0  2  0  0  0  0  0  0  0  0  0
   26.3374  -19.9347  -13.9820 N   0  0  0  0  0  0  0  0  0  0  0  0
   26.1579  -19.8915  -11.6112 C   0  0  0  0  0  0  0  0  0  0  0  0
   26.1336  -18.6402  -11.5248 O   0  0  0  0  0  0  0  0  0  0  0  0
   32.3684  -22.8584   -8.4064 N   0  0  0  0  0  0  0  0  0  0  0  0
   25.5316  -20.6111  -10.5647 C   0  0  0  0  0  0  0  0  0  0  0  0
   25.0431  -19.9710   -9.3577 C   0  0  0  0  0  0  0  0  0  0  0  0
   24.5167  -20.9559   -8.3914 O   0  0  0  0  0  0  0  0  0  0  0  0
   24.4695  -22.3156   -8.6425 O   0  0  0  0  0  0  0  0  0  0  0  0
  2  1  1  6
  3  2  1  0
  4  3  1  0
  5  4  2  0
  6  7  1  0
  6  5  1  0
  7  8  2  0
  8  4  1  0
  9 10  2  0
  9  2  1  0
 11 12  1  0
 12 14  1  0
 13 12  2  0
 14 15  1  0
 16 15  1  0
 17 16  1  0
 18 19  1  0
 18 17  1  1
 19  9  1  0
 20 18  1  0
 21 20  2  0
 22 20  1  0
 23 22  1  0
 24 25  1  0
 24 23  1  0
 26 24  2  0
M  END
$$$$
