HRG.pdb
     RDKit          3D

 26 26  0  0  1  0  0  0  0  0999 V2000
   26.8773  -21.5674  -14.8261 N   0  0  0  0  0  0  0  0  0  0  0  0
   26.1248  -20.4289  -14.3433 C   0  0  1  0  0  0  0  0  0  0  0  0
   25.6890  -19.6279  -15.5252 C   0  0  0  0  0  0  0  0  0  0  0  0
   26.9305  -19.0203  -16.1164 C   0  0  0  0  0  0  0  0  0  0  0  0
   27.5519  -19.3984  -17.2998 C   0  0  0  0  0  0  0  0  0  0  0  0
   28.6224  -18.6242  -17.4849 N   0  0  0  0  0  0  0  0  0  0  0  0
   28.7132  -17.7594  -16.4613 C   0  0  0  0  0  0  0  0  0  0  0  0
   27.6768  -18.0126  -15.6366 N   0  0  0  0  0  0  0  0  0  0  0  0
   25.0507  -20.8342  -13.4302 C   0  0  0  0  0  0  0  0  0  0  0  0
   24.2937  -21.7926  -13.7631 O   0  0  0  0  0  0  0  0  0  0  0  0
   21.0083  -23.6382   -9.0662 N   0  0  0  0  0  0  0  0  0  0  0  0
   20.7968  -22.9240   -7.8479 C   0  0  0  0  0  0  0  0  0  0  0  0
   19.8192  -23.2675   -7.0852 N   0  0  0  0  0  0  0  0  0  0  0  0
   21.6468  -21.8473   -7.4704 N   0  0  0  0  0  0  0  0  0  0  0  0
   22.8110  -21.5236   -8.2692 C   0  0  0  0  0  0  0  0  0  0  0  0
   22.5857  -20.2491   -9.0913 C   0  0  0  0  0  0  0  0  0  0  0  0
   23.8125  -20.0586   -9.9267 C   0  0  0  0  0  0  0  0  0  0  0  0
   23.6983  -20.5965  -11.3181 C   0  0  2  0  0  0  0  0  0  0  0  0
   24.7875  -20.2264  -12.1793 N   0  0  0  0  0  0  0  0  0  0  0  0
   22.4272  -20.1423  -11.9017 C   0  0  0  0  0  0  0  0  0  0  0  0
   22.1939  -18.9131  -11.9931 O   0  0  0  0  0  0  0  0  0  0  0  0
   19.5996  -22.8465   -6.1714 N   0  0  0  0  0  0  0  0  0  0  0  0
   21.4208  -21.0156  -12.3809 C   0  0  0  0  0  0  0  0  0  0  0  0
   20.1051  -20.5506  -12.7782 C   0  0  0  0  0  0  0  0  0  0  0  0
   20.0148  -20.3478  -14.2381 O   0  0  0  0  0  0  0  0  0  0  0  0
   18.9067  -19.8029  -14.8620 O   0  0  0  0  0  0  0  0  0  0  0  0
  2  1  1  6
  3  2  1  0
  4  3  1  0
  5  4  2  0
  6  7  1  0
  6  5  1  0
  7  8  2  0
  8  4  1  0
  9 10  2  0
  9  2  1  0
 11 12  1  0
 12 14  1  0
 13 12  2  0
 14 15  1  0
 16 15  1  0
 17 16  1  0
 18 19  1  0
 18 17  1  1
 19  9  1  0
 20 18  1  0
 21 20  2  0
 22 20  1  0
 23 22  1  0
 24 25  1  0
 24 23  1  0
 26 24  2  0
M  END
$$$$
