HRG.pdb
     RDKit          3D

 26 26  0  0  1  0  0  0  0  0999 V2000
   21.3282  -19.9469  -14.8505 N   0  0  0  0  0  0  0  0  0  0  0  0
   21.8335  -19.0952  -15.9064 C   0  0  1  0  0  0  0  0  0  0  0  0
   20.7574  -18.1286  -16.2756 C   0  0  0  0  0  0  0  0  0  0  0  0
   19.6265  -18.9387  -16.8456 C   0  0  0  0  0  0  0  0  0  0  0  0
   18.5448  -19.4550  -16.1436 C   0  0  0  0  0  0  0  0  0  0  0  0
   17.7581  -20.1127  -16.9968 N   0  0  0  0  0  0  0  0  0  0  0  0
   18.2953  -20.0387  -18.2256 C   0  0  0  0  0  0  0  0  0  0  0  0
   19.4319  -19.3213  -18.1178 N   0  0  0  0  0  0  0  0  0  0  0  0
   23.1221  -18.4922  -15.5494 C   0  0  0  0  0  0  0  0  0  0  0  0
   23.1340  -17.3422  -15.0205 O   0  0  0  0  0  0  0  0  0  0  0  0
   26.5426  -21.9102   -9.6381 N   0  0  0  0  0  0  0  0  0  0  0  0
   25.4047  -21.0476   -9.6342 C   0  0  0  0  0  0  0  0  0  0  0  0
   24.5227  -21.1828   -8.7072 N   0  0  0  0  0  0  0  0  0  0  0  0
   25.2364  -20.0490  -10.6335 N   0  0  0  0  0  0  0  0  0  0  0  0
   25.8695  -20.1993  -11.9276 C   0  0  0  0  0  0  0  0  0  0  0  0
   25.5897  -18.9905  -12.8285 C   0  0  0  0  0  0  0  0  0  0  0  0
   26.2356  -19.2829  -14.1464 C   0  0  0  0  0  0  0  0  0  0  0  0
   25.6286  -18.5541  -15.3035 C   0  0  2  0  0  0  0  0  0  0  0  0
   24.3807  -19.1069  -15.7532 N   0  0  0  0  0  0  0  0  0  0  0  0
   26.5926  -18.5357  -16.4138 C   0  0  0  0  0  0  0  0  0  0  0  0
   26.8347  -19.5960  -17.0391 O   0  0  0  0  0  0  0  0  0  0  0  0
   23.6857  -20.5944   -8.5904 N   0  0  0  0  0  0  0  0  0  0  0  0
   27.2857  -17.3767  -16.8396 C   0  0  0  0  0  0  0  0  0  0  0  0
   28.5100  -17.4376  -17.6158 C   0  0  0  0  0  0  0  0  0  0  0  0
   28.2365  -17.4667  -19.0667 O   0  0  0  0  0  0  0  0  0  0  0  0
   26.9594  -17.4650  -19.5989 O   0  0  0  0  0  0  0  0  0  0  0  0
  2  1  1  1
  3  2  1  0
  4  3  1  0
  5  4  2  0
  6  7  1  0
  6  5  1  0
  7  8  2  0
  8  4  1  0
  9 10  2  0
  9  2  1  0
 11 12  1  0
 12 14  1  0
 13 12  2  0
 14 15  1  0
 16 15  1  0
 17 16  1  0
 18 19  1  0
 18 17  1  1
 19  9  1  0
 20 18  1  0
 21 20  2  0
 22 20  1  0
 23 22  1  0
 24 25  1  0
 24 23  1  0
 26 24  2  0
M  END
$$$$
