HRG.pdb
     RDKit          3D

 26 26  0  0  1  0  0  0  0  0999 V2000
   21.9994  -19.2418  -14.2296 N   0  0  0  0  0  0  0  0  0  0  0  0
   22.9724  -19.2872  -15.3004 C   0  0  1  0  0  0  0  0  0  0  0  0
   22.5202  -18.3559  -16.3759 C   0  0  0  0  0  0  0  0  0  0  0  0
   21.1596  -18.8257  -16.8097 C   0  0  0  0  0  0  0  0  0  0  0  0
   19.9638  -18.6322  -16.1300 C   0  0  0  0  0  0  0  0  0  0  0  0
   18.9788  -19.1939  -16.8326 N   0  0  0  0  0  0  0  0  0  0  0  0
   19.4981  -19.7434  -17.9427 C   0  0  0  0  0  0  0  0  0  0  0  0
   20.8261  -19.5113  -17.9148 N   0  0  0  0  0  0  0  0  0  0  0  0
   24.3352  -19.0606  -14.8071 C   0  0  0  0  0  0  0  0  0  0  0  0
   24.7164  -17.8740  -14.5858 O   0  0  0  0  0  0  0  0  0  0  0  0
   22.6827  -20.4063   -8.9407 N   0  0  0  0  0  0  0  0  0  0  0  0
   23.3461  -20.8131  -10.1380 C   0  0  0  0  0  0  0  0  0  0  0  0
   22.6984  -20.7876  -11.2494 N   0  0  0  0  0  0  0  0  0  0  0  0
   24.7026  -21.2416  -10.1169 N   0  0  0  0  0  0  0  0  0  0  0  0
   25.3995  -21.5161  -11.3567 C   0  0  0  0  0  0  0  0  0  0  0  0
   26.4691  -20.4550  -11.6413 C   0  0  0  0  0  0  0  0  0  0  0  0
   27.0429  -20.7783  -12.9850 C   0  0  0  0  0  0  0  0  0  0  0  0
   26.6134  -19.8495  -14.0765 C   0  0  2  0  0  0  0  0  0  0  0  0
   25.2784  -20.0850  -14.5531 N   0  0  0  0  0  0  0  0  0  0  0  0
   27.5650  -19.9537  -15.1928 C   0  0  0  0  0  0  0  0  0  0  0  0
   27.7747  -21.0710  -15.7233 O   0  0  0  0  0  0  0  0  0  0  0  0
   21.6945  -20.5813  -11.3497 N   0  0  0  0  0  0  0  0  0  0  0  0
   28.2806  -18.8545  -15.7265 C   0  0  0  0  0  0  0  0  0  0  0  0
   29.1987  -18.9856  -16.8423 C   0  0  0  0  0  0  0  0  0  0  0  0
   28.6000  -18.5016  -18.1025 O   0  0  0  0  0  0  0  0  0  0  0  0
   29.3118  -17.8054  -19.0632 O   0  0  0  0  0  0  0  0  0  0  0  0
  2  1  1  1
  3  2  1  0
  4  3  1  0
  5  4  2  0
  6  7  1  0
  6  5  1  0
  7  8  2  0
  8  4  1  0
  9 10  2  0
  9  2  1  0
 11 12  1  0
 12 14  1  0
 13 12  2  0
 14 15  1  0
 16 15  1  0
 17 16  1  0
 18 19  1  0
 18 17  1  1
 19  9  1  0
 20 18  1  0
 21 20  2  0
 22 20  1  0
 23 22  1  0
 24 25  1  0
 24 23  1  0
 26 24  2  0
M  END
$$$$
