HRG.pdb
     RDKit          3D

 26 26  0  0  1  0  0  0  0  0999 V2000
   21.6196  -19.9250  -13.7027 N   0  0  0  0  0  0  0  0  0  0  0  0
   22.6294  -20.3361  -14.6549 C   0  0  1  0  0  0  0  0  0  0  0  0
   22.1587  -19.9579  -16.0202 C   0  0  0  0  0  0  0  0  0  0  0  0
   20.9627  -20.8186  -16.3182 C   0  0  0  0  0  0  0  0  0  0  0  0
   20.1278  -21.4231  -15.3871 C   0  0  0  0  0  0  0  0  0  0  0  0
   19.1825  -22.1015  -16.0396 N   0  0  0  0  0  0  0  0  0  0  0  0
   19.3790  -21.9555  -17.3603 C   0  0  0  0  0  0  0  0  0  0  0  0
   20.4659  -21.1724  -17.5143 N   0  0  0  0  0  0  0  0  0  0  0  0
   23.9585  -19.8349  -14.2889 C   0  0  0  0  0  0  0  0  0  0  0  0
   24.0987  -18.6032  -14.0324 O   0  0  0  0  0  0  0  0  0  0  0  0
   24.6245  -20.6681   -8.1780 N   0  0  0  0  0  0  0  0  0  0  0  0
   23.8429  -20.8137   -9.3641 C   0  0  0  0  0  0  0  0  0  0  0  0
   22.5820  -20.5624   -9.3148 N   0  0  0  0  0  0  0  0  0  0  0  0
   24.4364  -21.2287  -10.5887 N   0  0  0  0  0  0  0  0  0  0  0  0
   25.8546  -21.5169  -10.6502 C   0  0  0  0  0  0  0  0  0  0  0  0
   26.6266  -20.3749  -11.3215 C   0  0  0  0  0  0  0  0  0  0  0  0
   27.0371  -20.8739  -12.6713 C   0  0  0  0  0  0  0  0  0  0  0  0
   26.4142  -20.1369  -13.8147 C   0  0  2  0  0  0  0  0  0  0  0  0
   25.1220  -20.6357  -14.1974 N   0  0  0  0  0  0  0  0  0  0  0  0
   27.3267  -20.1857  -14.9668 C   0  0  0  0  0  0  0  0  0  0  0  0
   27.4755  -21.2634  -15.5916 O   0  0  0  0  0  0  0  0  0  0  0  0
   21.9297  -20.6271  -10.1091 N   0  0  0  0  0  0  0  0  0  0  0  0
   28.0693  -19.0745  -15.4345 C   0  0  0  0  0  0  0  0  0  0  0  0
   28.9482  -19.1492  -16.5865 C   0  0  0  0  0  0  0  0  0  0  0  0
   28.2723  -18.6990  -17.8199 O   0  0  0  0  0  0  0  0  0  0  0  0
   28.9365  -18.4828  -19.0142 O   0  0  0  0  0  0  0  0  0  0  0  0
  2  1  1  1
  3  2  1  0
  4  3  1  0
  5  4  2  0
  6  7  1  0
  6  5  1  0
  7  8  2  0
  8  4  1  0
  9 10  2  0
  9  2  1  0
 11 12  1  0
 12 14  1  0
 13 12  2  0
 14 15  1  0
 16 15  1  0
 17 16  1  0
 18 19  1  0
 18 17  1  1
 19  9  1  0
 20 18  1  0
 21 20  2  0
 22 20  1  0
 23 22  1  0
 24 25  1  0
 24 23  1  0
 26 24  2  0
M  END
$$$$
