HRG.pdb
     RDKit          3D

 26 26  0  0  1  0  0  0  0  0999 V2000
   26.3848  -19.9179  -19.1553 N   0  0  0  0  0  0  0  0  0  0  0  0
   25.5039  -19.1067  -18.3419 C   0  0  1  0  0  0  0  0  0  0  0  0
   24.3339  -18.7113  -19.1805 C   0  0  0  0  0  0  0  0  0  0  0  0
   24.8699  -17.8519  -20.2914 C   0  0  0  0  0  0  0  0  0  0  0  0
   24.8363  -18.1420  -21.6494 C   0  0  0  0  0  0  0  0  0  0  0  0
   25.4087  -17.1369  -22.3140 N   0  0  0  0  0  0  0  0  0  0  0  0
   25.8108  -16.2080  -21.4311 C   0  0  0  0  0  0  0  0  0  0  0  0
   25.4762  -16.6571  -20.2045 N   0  0  0  0  0  0  0  0  0  0  0  0
   25.1724  -19.7666  -17.0746 C   0  0  0  0  0  0  0  0  0  0  0  0
   24.2589  -20.6429  -17.0616 O   0  0  0  0  0  0  0  0  0  0  0  0
   26.5465  -20.1447   -9.1869 N   0  0  0  0  0  0  0  0  0  0  0  0
   25.4700  -21.0674   -9.3571 C   0  0  0  0  0  0  0  0  0  0  0  0
   24.6193  -21.2160   -8.4033 N   0  0  0  0  0  0  0  0  0  0  0  0
   25.3278  -21.8169  -10.5579 N   0  0  0  0  0  0  0  0  0  0  0  0
   25.9478  -21.3551  -11.7829 C   0  0  0  0  0  0  0  0  0  0  0  0
   25.5860  -19.8938  -12.0739 C   0  0  0  0  0  0  0  0  0  0  0  0
   26.1804  -19.5653  -13.4074 C   0  0  0  0  0  0  0  0  0  0  0  0
   25.3573  -20.0122  -14.5742 C   0  0  2  0  0  0  0  0  0  0  0  0
   25.8060  -19.4963  -15.8381 N   0  0  0  0  0  0  0  0  0  0  0  0
   23.9576  -19.6225  -14.3472 C   0  0  0  0  0  0  0  0  0  0  0  0
   23.6280  -18.4164  -14.4495 O   0  0  0  0  0  0  0  0  0  0  0  0
   23.7825  -21.8152   -8.4389 N   0  0  0  0  0  0  0  0  0  0  0  0
   22.9276  -20.5347  -14.0126 C   0  0  0  0  0  0  0  0  0  0  0  0
   21.5804  -20.1079  -13.6835 C   0  0  0  0  0  0  0  0  0  0  0  0
   20.7699  -19.8734  -14.8954 O   0  0  0  0  0  0  0  0  0  0  0  0
   19.5236  -19.2732  -14.8710 O   0  0  0  0  0  0  0  0  0  0  0  0
  2  1  1  6
  3  2  1  0
  4  3  1  0
  5  4  2  0
  6  7  1  0
  6  5  1  0
  7  8  2  0
  8  4  1  0
  9 10  2  0
  9  2  1  0
 11 12  1  0
 12 14  1  0
 13 12  2  0
 14 15  1  0
 16 15  1  0
 17 16  1  0
 18 19  1  0
 18 17  1  1
 19  9  1  0
 20 18  1  0
 21 20  2  0
 22 20  1  0
 23 22  1  0
 24 25  1  0
 24 23  1  0
 26 24  2  0
M  END
$$$$
