HRG.pdb
     RDKit          3D

 26 26  0  0  1  0  0  0  0  0999 V2000
   20.4372  -20.3555  -12.3745 N   0  0  0  0  0  0  0  0  0  0  0  0
   21.5300  -20.8050  -13.2107 C   0  0  1  0  0  0  0  0  0  0  0  0
   21.2447  -20.3793  -14.6128 C   0  0  0  0  0  0  0  0  0  0  0  0
   20.1071  -21.2328  -15.1000 C   0  0  0  0  0  0  0  0  0  0  0  0
   20.1402  -22.6032  -15.3243 C   0  0  0  0  0  0  0  0  0  0  0  0
   18.9382  -22.9941  -15.7512 N   0  0  0  0  0  0  0  0  0  0  0  0
   18.1306  -21.9226  -15.8102 C   0  0  0  0  0  0  0  0  0  0  0  0
   18.8558  -20.8582  -15.4110 N   0  0  0  0  0  0  0  0  0  0  0  0
   22.8306  -20.3829  -12.6798 C   0  0  0  0  0  0  0  0  0  0  0  0
   23.0882  -19.1459  -12.6037 O   0  0  0  0  0  0  0  0  0  0  0  0
   26.6670  -20.1418   -5.5137 N   0  0  0  0  0  0  0  0  0  0  0  0
   27.8136  -19.9136   -6.3335 C   0  0  0  0  0  0  0  0  0  0  0  0
   28.8980  -19.4905   -5.7853 N   0  0  0  0  0  0  0  0  0  0  0  0
   27.7719  -20.1470   -7.7363 N   0  0  0  0  0  0  0  0  0  0  0  0
   26.5576  -20.6335   -8.3583 C   0  0  0  0  0  0  0  0  0  0  0  0
   26.7765  -20.9380   -9.8450 C   0  0  0  0  0  0  0  0  0  0  0  0
   25.4579  -21.3959  -10.3846 C   0  0  0  0  0  0  0  0  0  0  0  0
   25.1194  -20.8416  -11.7324 C   0  0  2  0  0  0  0  0  0  0  0  0
   23.8426  -21.2674  -12.2359 N   0  0  0  0  0  0  0  0  0  0  0  0
   26.1780  -21.2171  -12.6817 C   0  0  0  0  0  0  0  0  0  0  0  0
   26.8015  -22.2932  -12.5175 O   0  0  0  0  0  0  0  0  0  0  0  0
   29.7877  -19.3220   -6.2759 N   0  0  0  0  0  0  0  0  0  0  0  0
   26.5542  -20.4306  -13.7975 C   0  0  0  0  0  0  0  0  0  0  0  0
   27.6203  -20.8161  -14.7031 C   0  0  0  0  0  0  0  0  0  0  0  0
   27.7894  -19.8377  -15.7962 O   0  0  0  0  0  0  0  0  0  0  0  0
   28.7832  -19.9334  -16.7540 O   0  0  0  0  0  0  0  0  0  0  0  0
  2  1  1  1
  3  2  1  0
  4  3  1  0
  5  4  2  0
  6  7  1  0
  6  5  1  0
  7  8  2  0
  8  4  1  0
  9 10  2  0
  9  2  1  0
 11 12  1  0
 12 14  1  0
 13 12  2  0
 14 15  1  0
 16 15  1  0
 17 16  1  0
 18 19  1  0
 18 17  1  1
 19  9  1  0
 20 18  1  0
 21 20  2  0
 22 20  1  0
 23 22  1  0
 24 25  1  0
 24 23  1  0
 26 24  2  0
M  END
$$$$
