HRG.pdb
     RDKit          3D

 26 26  0  0  1  0  0  0  0  0999 V2000
   19.7530   -8.9417  -19.9728 N   0  0  0  0  0  0  0  0  0  0  0  0
   19.3982   -9.0700  -18.5753 C   0  0  1  0  0  0  0  0  0  0  0  0
   18.2971   -8.1040  -18.2872 C   0  0  0  0  0  0  0  0  0  0  0  0
   18.9039   -6.7296  -18.3395 C   0  0  0  0  0  0  0  0  0  0  0  0
   19.1082   -5.8757  -17.2632 C   0  0  0  0  0  0  0  0  0  0  0  0
   19.6684   -4.7512  -17.7119 N   0  0  0  0  0  0  0  0  0  0  0  0
   19.8326   -4.8503  -19.0413 C   0  0  0  0  0  0  0  0  0  0  0  0
   19.3628   -6.0596  -19.4088 N   0  0  0  0  0  0  0  0  0  0  0  0
   19.1213  -10.4633  -18.2099 C   0  0  0  0  0  0  0  0  0  0  0  0
   18.4161  -11.1711  -18.9871 O   0  0  0  0  0  0  0  0  0  0  0  0
   25.3617  -15.0336  -15.3208 N   0  0  0  0  0  0  0  0  0  0  0  0
   25.1241  -14.9410  -16.7258 C   0  0  0  0  0  0  0  0  0  0  0  0
   25.9728  -15.4662  -17.5378 N   0  0  0  0  0  0  0  0  0  0  0  0
   23.9705  -14.2815  -17.2339 N   0  0  0  0  0  0  0  0  0  0  0  0
   22.8362  -14.0279  -16.3695 C   0  0  0  0  0  0  0  0  0  0  0  0
   21.6984  -13.3378  -17.1313 C   0  0  0  0  0  0  0  0  0  0  0  0
   20.5733  -13.1727  -16.1586 C   0  0  0  0  0  0  0  0  0  0  0  0
   19.3723  -12.4792  -16.7200 C   0  0  2  0  0  0  0  0  0  0  0  0
   19.5900  -11.0935  -17.0323 N   0  0  0  0  0  0  0  0  0  0  0  0
   18.2603  -12.6045  -15.7658 C   0  0  0  0  0  0  0  0  0  0  0  0
   18.2601  -11.9076  -14.7227 O   0  0  0  0  0  0  0  0  0  0  0  0
   25.9283  -15.4103  -18.5652 N   0  0  0  0  0  0  0  0  0  0  0  0
   17.1603  -13.4782  -15.9444 C   0  0  0  0  0  0  0  0  0  0  0  0
   16.4225  -14.0454  -14.8313 C   0  0  0  0  0  0  0  0  0  0  0  0
   15.2681  -13.2046  -14.4555 O   0  0  0  0  0  0  0  0  0  0  0  0
   14.0551  -13.7228  -14.0380 O   0  0  0  0  0  0  0  0  0  0  0  0
  2  1  1  6
  3  2  1  0
  4  3  1  0
  5  4  2  0
  6  7  1  0
  6  5  1  0
  7  8  2  0
  8  4  1  0
  9 10  2  0
  9  2  1  0
 11 12  1  0
 12 14  1  0
 13 12  2  0
 14 15  1  0
 16 15  1  0
 17 16  1  0
 18 19  1  0
 18 17  1  1
 19  9  1  0
 20 18  1  0
 21 20  2  0
 22 20  1  0
 23 22  1  0
 24 25  1  0
 24 23  1  0
 26 24  2  0
M  END
$$$$
