HRG.pdb
     RDKit          3D

 26 26  0  0  1  0  0  0  0  0999 V2000
   14.0910  -22.1204   -7.0388 N   0  0  0  0  0  0  0  0  0  0  0  0
   13.5662  -23.1298   -6.1437 C   0  0  1  0  0  0  0  0  0  0  0  0
   13.9044  -24.4696   -6.7085 C   0  0  0  0  0  0  0  0  0  0  0  0
   13.0523  -24.6491   -7.9340 C   0  0  0  0  0  0  0  0  0  0  0  0
   13.4747  -24.5573   -9.2541 C   0  0  0  0  0  0  0  0  0  0  0  0
   12.4291  -24.7790  -10.0523 N   0  0  0  0  0  0  0  0  0  0  0  0
   11.3462  -25.0106   -9.2923 C   0  0  0  0  0  0  0  0  0  0  0  0
   11.7410  -24.9282   -8.0056 N   0  0  0  0  0  0  0  0  0  0  0  0
   13.9966  -22.9063   -4.7594 C   0  0  0  0  0  0  0  0  0  0  0  0
   15.1939  -22.5593   -4.5393 O   0  0  0  0  0  0  0  0  0  0  0  0
    9.3382  -18.5482    0.7610 N   0  0  0  0  0  0  0  0  0  0  0  0
   10.1630  -17.8561   -0.1770 C   0  0  0  0  0  0  0  0  0  0  0  0
   10.0069  -16.5879   -0.3279 N   0  0  0  0  0  0  0  0  0  0  0  0
   11.1468  -18.5457   -0.9391 N   0  0  0  0  0  0  0  0  0  0  0  0
   11.2936  -19.9810   -0.8112 C   0  0  0  0  0  0  0  0  0  0  0  0
   12.4778  -20.4958   -1.6381 C   0  0  0  0  0  0  0  0  0  0  0  0
   12.4638  -21.9875   -1.5192 C   0  0  0  0  0  0  0  0  0  0  0  0
   13.5445  -22.6758   -2.2918 C   0  0  2  0  0  0  0  0  0  0  0  0
   13.1620  -23.0506   -3.6252 N   0  0  0  0  0  0  0  0  0  0  0  0
   13.9786  -23.8667   -1.5463 C   0  0  0  0  0  0  0  0  0  0  0  0
   13.4189  -24.9685   -1.7622 O   0  0  0  0  0  0  0  0  0  0  0  0
   10.5652  -15.9887   -0.9523 N   0  0  0  0  0  0  0  0  0  0  0  0
   15.0104  -23.8595   -0.5765 C   0  0  0  0  0  0  0  0  0  0  0  0
   15.4682  -25.0651    0.0885 C   0  0  0  0  0  0  0  0  0  0  0  0
   14.5347  -25.4916    1.1503 O   0  0  0  0  0  0  0  0  0  0  0  0
   14.7385  -26.6127    1.9352 O   0  0  0  0  0  0  0  0  0  0  0  0
  2  1  1  6
  3  2  1  0
  4  3  1  0
  5  4  2  0
  6  7  1  0
  6  5  1  0
  7  8  2  0
  8  4  1  0
  9 10  2  0
  9  2  1  0
 11 12  1  0
 12 14  1  0
 13 12  2  0
 14 15  1  0
 16 15  1  0
 17 16  1  0
 18 19  1  0
 18 17  1  1
 19  9  1  0
 20 18  1  0
 21 20  2  0
 22 20  1  0
 23 22  1  0
 24 25  1  0
 24 23  1  0
 26 24  2  0
M  END
$$$$
