GGS.pdb
     RDKit          3D

 15 14  0  0  1  0  0  0  0  0999 V2000
   24.3895  -29.6940  -16.2745 N   0  0  0  0  0  0  0  0  0  0  0  0
   25.7407  -29.9739  -16.7829 C   0  0  0  0  0  0  0  0  0  0  0  0
   26.5188  -28.6997  -16.8803 C   0  0  0  0  0  0  0  0  0  0  0  0
   26.2003  -27.8489  -17.7367 O   0  0  0  0  0  0  0  0  0  0  0  0
   27.6189  -28.4122  -16.0295 N   0  0  0  0  0  0  0  0  0  0  0  0
   28.4164  -27.2336  -16.0669 C   0  0  0  0  0  0  0  0  0  0  0  0
   29.3051  -27.0599  -17.2060 C   0  0  0  0  0  0  0  0  0  0  0  0
   29.9707  -25.9941  -17.2467 O   0  0  0  0  0  0  0  0  0  0  0  0
   31.7998  -29.6993  -18.9400 O   0  0  0  0  0  0  0  0  0  0  0  0
   30.9477  -29.1271  -19.8575 C   0  0  0  0  0  0  0  0  0  0  0  0
   30.3679  -27.8220  -19.3742 C   0  0  2  0  0  0  0  0  0  0  0  0
   29.4679  -27.9931  -18.2477 N   0  0  0  0  0  0  0  0  0  0  0  0
   29.7309  -27.1201  -20.5257 C   0  0  0  0  0  0  0  0  0  0  0  0
   28.5340  -26.7996  -20.5604 O   0  0  0  0  0  0  0  0  0  0  0  0
   30.5632  -26.8292  -21.5972 O   0  0  0  0  0  0  0  0  0  0  0  0
  2  1  1  0
  3  2  1  0
  4  3  2  0
  5  3  1  0
  6  5  1  0
  7  6  1  0
  7 12  1  0
  8  7  2  0
 10  9  1  0
 11 12  1  0
 11 10  1  6
 13 15  1  0
 13 11  1  0
 14 13  2  0
M  END
$$$$
