GGS.pdb
     RDKit          3D

 15 14  0  0  1  0  0  0  0  0999 V2000
   13.6506  -10.1068  -15.5858 N   0  0  0  0  0  0  0  0  0  0  0  0
   14.4870   -9.2045  -14.7803 C   0  0  0  0  0  0  0  0  0  0  0  0
   15.8611   -9.1293  -15.3674 C   0  0  0  0  0  0  0  0  0  0  0  0
   16.0963   -9.6940  -16.4559 O   0  0  0  0  0  0  0  0  0  0  0  0
   16.9239   -8.4342  -14.7318 N   0  0  0  0  0  0  0  0  0  0  0  0
   18.2527   -8.3091  -15.2271 C   0  0  0  0  0  0  0  0  0  0  0  0
   19.1701   -7.4604  -14.4817 C   0  0  0  0  0  0  0  0  0  0  0  0
   18.6942   -6.8416  -13.4963 O   0  0  0  0  0  0  0  0  0  0  0  0
   23.0897   -8.2016  -14.1305 O   0  0  0  0  0  0  0  0  0  0  0  0
   22.8916   -6.8427  -14.2276 C   0  0  0  0  0  0  0  0  0  0  0  0
   21.4487   -6.4522  -14.0311 C   0  0  2  0  0  0  0  0  0  0  0  0
   20.5347   -7.2914  -14.7851 N   0  0  0  0  0  0  0  0  0  0  0  0
   21.2943   -5.0012  -14.3393 C   0  0  0  0  0  0  0  0  0  0  0  0
   20.7109   -4.5687  -15.3439 O   0  0  0  0  0  0  0  0  0  0  0  0
   21.8508   -4.1214  -13.4220 O   0  0  0  0  0  0  0  0  0  0  0  0
  2  1  1  0
  3  2  1  0
  4  3  2  0
  5  3  1  0
  6  5  1  0
  7  6  1  0
  7 12  1  0
  8  7  2  0
 10  9  1  0
 11 12  1  0
 11 10  1  6
 13 15  1  0
 13 11  1  0
 14 13  2  0
M  END
$$$$
