GGS.pdb
     RDKit          3D

 15 14  0  0  1  0  0  0  0  0999 V2000
   15.8293  -24.8750   -4.0319 N   0  0  0  0  0  0  0  0  0  0  0  0
   15.1776  -24.8955   -2.7138 C   0  0  0  0  0  0  0  0  0  0  0  0
   15.1595  -23.5152   -2.1366 C   0  0  0  0  0  0  0  0  0  0  0  0
   15.0816  -22.5306   -2.9004 O   0  0  0  0  0  0  0  0  0  0  0  0
   15.2280  -23.2732   -0.7390 N   0  0  0  0  0  0  0  0  0  0  0  0
   15.1833  -21.9966   -0.1105 C   0  0  0  0  0  0  0  0  0  0  0  0
   15.3792  -21.9503    1.3306 C   0  0  0  0  0  0  0  0  0  0  0  0
   15.4007  -23.0529    1.9342 O   0  0  0  0  0  0  0  0  0  0  0  0
   16.4034  -18.3953    3.4186 O   0  0  0  0  0  0  0  0  0  0  0  0
   16.8332  -19.6315    3.8457 C   0  0  0  0  0  0  0  0  0  0  0  0
   15.8649  -20.7335    3.4974 C   0  0  2  0  0  0  0  0  0  0  0  0
   15.5462  -20.7708    2.0814 N   0  0  0  0  0  0  0  0  0  0  0  0
   14.6565  -20.6064    4.3621 C   0  0  0  0  0  0  0  0  0  0  0  0
   13.5602  -20.1929    3.9574 O   0  0  0  0  0  0  0  0  0  0  0  0
   14.8143  -20.9837    5.6881 O   0  0  0  0  0  0  0  0  0  0  0  0
  2  1  1  0
  3  2  1  0
  4  3  2  0
  5  3  1  0
  6  5  1  0
  7  6  1  0
  7 12  1  0
  8  7  2  0
 10  9  1  0
 11 12  1  0
 11 10  1  6
 13 15  1  0
 13 11  1  0
 14 13  2  0
M  END
$$$$
