GGS.pdb
     RDKit          3D

 15 14  0  0  1  0  0  0  0  0999 V2000
   20.5584   -0.5706  -16.6203 N   0  0  0  0  0  0  0  0  0  0  0  0
   22.0170   -0.3831  -16.6280 C   0  0  0  0  0  0  0  0  0  0  0  0
   22.6941   -1.6654  -16.2597 C   0  0  0  0  0  0  0  0  0  0  0  0
   23.9414   -1.7167  -16.2346 O   0  0  0  0  0  0  0  0  0  0  0  0
   21.9701   -2.8425  -15.9330 N   0  0  0  0  0  0  0  0  0  0  0  0
   22.5374   -4.0979  -15.5739 C   0  0  0  0  0  0  0  0  0  0  0  0
   21.6221   -5.1993  -15.3161 C   0  0  0  0  0  0  0  0  0  0  0  0
   20.4000   -4.9763  -15.5094 O   0  0  0  0  0  0  0  0  0  0  0  0
   22.6659   -9.1870  -15.5085 O   0  0  0  0  0  0  0  0  0  0  0  0
   21.8100   -8.9005  -14.4690 C   0  0  0  0  0  0  0  0  0  0  0  0
   21.0955   -7.5856  -14.6527 C   0  0  2  0  0  0  0  0  0  0  0  0
   22.0091   -6.4790  -14.8740 N   0  0  0  0  0  0  0  0  0  0  0  0
   20.1845   -7.3643  -13.4928 C   0  0  0  0  0  0  0  0  0  0  0  0
   20.4502   -6.6155  -12.5413 O   0  0  0  0  0  0  0  0  0  0  0  0
   18.9821   -8.0561  -13.5224 O   0  0  0  0  0  0  0  0  0  0  0  0
  2  1  1  0
  3  2  1  0
  4  3  2  0
  5  3  1  0
  6  5  1  0
  7  6  1  0
  7 12  1  0
  8  7  2  0
 10  9  1  0
 11 12  1  0
 11 10  1  1
 13 15  1  0
 13 11  1  0
 14 13  2  0
M  END
$$$$
