GGS.pdb
     RDKit          3D

 15 14  0  0  1  0  0  0  0  0999 V2000
   19.4497  -14.0785  -16.7593 N   0  0  0  0  0  0  0  0  0  0  0  0
   18.4992  -13.1253  -17.3514 C   0  0  0  0  0  0  0  0  0  0  0  0
   19.1281  -11.7704  -17.4368 C   0  0  0  0  0  0  0  0  0  0  0  0
   20.3426  -11.6391  -17.1787 O   0  0  0  0  0  0  0  0  0  0  0  0
   18.3936  -10.6116  -17.8036 N   0  0  0  0  0  0  0  0  0  0  0  0
   18.9263   -9.3004  -17.9566 C   0  0  0  0  0  0  0  0  0  0  0  0
   19.1755   -8.5313  -16.7468 C   0  0  0  0  0  0  0  0  0  0  0  0
   18.1665   -8.1038  -16.1305 O   0  0  0  0  0  0  0  0  0  0  0  0
   21.9513   -9.1403  -13.9284 O   0  0  0  0  0  0  0  0  0  0  0  0
   21.9589   -7.8220  -14.3250 C   0  0  0  0  0  0  0  0  0  0  0  0
   20.6971   -7.4280  -15.0500 C   0  0  2  0  0  0  0  0  0  0  0  0
   20.4518   -8.2410  -16.2277 N   0  0  0  0  0  0  0  0  0  0  0  0
   20.7486   -5.9684  -15.3517 C   0  0  0  0  0  0  0  0  0  0  0  0
   20.7991   -5.0865  -14.4820 O   0  0  0  0  0  0  0  0  0  0  0  0
   20.7375   -5.6237  -16.6958 O   0  0  0  0  0  0  0  0  0  0  0  0
  2  1  1  0
  3  2  1  0
  4  3  2  0
  5  3  1  0
  6  5  1  0
  7  6  1  0
  7 12  1  0
  8  7  2  0
 10  9  1  0
 11 12  1  0
 11 10  1  6
 13 15  1  0
 13 11  1  0
 14 13  2  0
M  END
$$$$
