GGS.pdb
     RDKit          3D

 15 14  0  0  1  0  0  0  0  0999 V2000
   16.9532  -13.9376  -15.5014 N   0  0  0  0  0  0  0  0  0  0  0  0
   17.2643  -12.8084  -16.3906 C   0  0  0  0  0  0  0  0  0  0  0  0
   17.9849  -11.7444  -15.6244 C   0  0  0  0  0  0  0  0  0  0  0  0
   18.8040  -12.0713  -14.7405 O   0  0  0  0  0  0  0  0  0  0  0  0
   17.7749  -10.3602  -15.8619 N   0  0  0  0  0  0  0  0  0  0  0  0
   18.5557   -9.2949  -15.3305 C   0  0  0  0  0  0  0  0  0  0  0  0
   18.1974   -7.9399  -15.7213 C   0  0  0  0  0  0  0  0  0  0  0  0
   18.7608   -7.4791  -16.7464 O   0  0  0  0  0  0  0  0  0  0  0  0
   15.6598   -3.8232  -14.8136 O   0  0  0  0  0  0  0  0  0  0  0  0
   15.9297   -5.1343  -14.4921 C   0  0  0  0  0  0  0  0  0  0  0  0
   16.9775   -5.7463  -15.3869 C   0  0  2  0  0  0  0  0  0  0  0  0
   17.2740   -7.1245  -15.0392 N   0  0  0  0  0  0  0  0  0  0  0  0
   18.1863   -4.8729  -15.3833 C   0  0  0  0  0  0  0  0  0  0  0  0
   18.3745   -3.9537  -16.1933 O   0  0  0  0  0  0  0  0  0  0  0  0
   19.1278   -5.1405  -14.3997 O   0  0  0  0  0  0  0  0  0  0  0  0
  2  1  1  0
  3  2  1  0
  4  3  2  0
  5  3  1  0
  6  5  1  0
  7  6  1  0
  7 12  1  0
  8  7  2  0
 10  9  1  0
 11 12  1  0
 11 10  1  1
 13 15  1  0
 13 11  1  0
 14 13  2  0
M  END
$$$$
