GGS.pdb
     RDKit          3D

 15 14  0  0  1  0  0  0  0  0999 V2000
   19.9039  -13.3113  -17.0986 N   0  0  0  0  0  0  0  0  0  0  0  0
   20.5572  -12.0112  -17.3120 C   0  0  0  0  0  0  0  0  0  0  0  0
   19.9784  -10.9947  -16.3791 C   0  0  0  0  0  0  0  0  0  0  0  0
   18.9663  -11.2829  -15.7071 O   0  0  0  0  0  0  0  0  0  0  0  0
   20.5378   -9.6989  -16.2225 N   0  0  0  0  0  0  0  0  0  0  0  0
   20.1523   -8.7363  -15.2471 C   0  0  0  0  0  0  0  0  0  0  0  0
   20.7720   -7.4217  -15.3193 C   0  0  0  0  0  0  0  0  0  0  0  0
   21.8512   -7.3395  -15.9588 O   0  0  0  0  0  0  0  0  0  0  0  0
   20.5382   -2.6012  -14.3714 O   0  0  0  0  0  0  0  0  0  0  0  0
   19.9653   -3.8495  -14.2775 C   0  0  0  0  0  0  0  0  0  0  0  0
   20.8376   -4.9325  -14.8601 C   0  0  2  0  0  0  0  0  0  0  0  0
   20.2494   -6.2537  -14.7316 N   0  0  0  0  0  0  0  0  0  0  0  0
   22.1958   -4.8391  -14.2511 C   0  0  0  0  0  0  0  0  0  0  0  0
   22.5000   -5.3511  -13.1640 O   0  0  0  0  0  0  0  0  0  0  0  0
   23.1412   -4.1292  -14.9775 O   0  0  0  0  0  0  0  0  0  0  0  0
  2  1  1  0
  3  2  1  0
  4  3  2  0
  5  3  1  0
  6  5  1  0
  7  6  1  0
  7 12  1  0
  8  7  2  0
 10  9  1  0
 11 12  1  0
 11 10  1  1
 13 15  1  0
 13 11  1  0
 14 13  2  0
M  END
$$$$
