GGS.pdb
     RDKit          3D

 15 14  0  0  1  0  0  0  0  0999 V2000
   24.4045  -34.2642  -12.7463 N   0  0  0  0  0  0  0  0  0  0  0  0
   25.5634  -34.0439  -11.8683 C   0  0  0  0  0  0  0  0  0  0  0  0
   25.1262  -33.3478  -10.6181 C   0  0  0  0  0  0  0  0  0  0  0  0
   23.9101  -33.2867  -10.3418 O   0  0  0  0  0  0  0  0  0  0  0  0
   26.0467  -32.7453   -9.7201 N   0  0  0  0  0  0  0  0  0  0  0  0
   25.7186  -32.1231   -8.4824 C   0  0  0  0  0  0  0  0  0  0  0  0
   26.1573  -32.7830   -7.2620 C   0  0  0  0  0  0  0  0  0  0  0  0
   26.9485  -33.7508   -7.3953 O   0  0  0  0  0  0  0  0  0  0  0  0
   26.7385  -32.6864   -2.4230 O   0  0  0  0  0  0  0  0  0  0  0  0
   26.2413  -32.1021   -3.5660 C   0  0  0  0  0  0  0  0  0  0  0  0
   26.2423  -33.0423   -4.7446 C   0  0  2  0  0  0  0  0  0  0  0  0
   25.7623  -32.4132   -5.9620 N   0  0  0  0  0  0  0  0  0  0  0  0
   25.4767  -34.2703   -4.3841 C   0  0  0  0  0  0  0  0  0  0  0  0
   24.2746  -34.4325   -4.6397 O   0  0  0  0  0  0  0  0  0  0  0  0
   26.1906  -35.2616   -3.7260 O   0  0  0  0  0  0  0  0  0  0  0  0
  2  1  1  0
  3  2  1  0
  4  3  2  0
  5  3  1  0
  6  5  1  0
  7  6  1  0
  7 12  1  0
  8  7  2  0
 10  9  1  0
 11 12  1  0
 11 10  1  1
 13 15  1  0
 13 11  1  0
 14 13  2  0
M  END
$$$$
