GGS.pdb
     RDKit          3D

 15 14  0  0  1  0  0  0  0  0999 V2000
   17.1684  -25.8757   -5.8280 N   0  0  0  0  0  0  0  0  0  0  0  0
   15.7877  -25.6978   -5.3539 C   0  0  0  0  0  0  0  0  0  0  0  0
   15.7525  -24.6618   -4.2750 C   0  0  0  0  0  0  0  0  0  0  0  0
   16.7147  -24.5636   -3.4855 O   0  0  0  0  0  0  0  0  0  0  0  0
   14.6574  -23.7733   -4.1078 N   0  0  0  0  0  0  0  0  0  0  0  0
   14.5726  -22.7256   -3.1477 C   0  0  0  0  0  0  0  0  0  0  0  0
   14.3425  -23.1024   -1.7611 C   0  0  0  0  0  0  0  0  0  0  0  0
   13.9410  -24.2754   -1.5529 O   0  0  0  0  0  0  0  0  0  0  0  0
   16.7685  -22.8439    0.9149 O   0  0  0  0  0  0  0  0  0  0  0  0
   15.6247  -22.4160    1.5504 C   0  0  0  0  0  0  0  0  0  0  0  0
   14.3822  -22.6573    0.7312 C   0  0  2  0  0  0  0  0  0  0  0  0
   14.5391  -22.2539   -0.6547 N   0  0  0  0  0  0  0  0  0  0  0  0
   13.2254  -21.9964    1.4015 C   0  0  0  0  0  0  0  0  0  0  0  0
   12.6321  -21.0112    0.9390 O   0  0  0  0  0  0  0  0  0  0  0  0
   12.8245  -22.5494    2.6094 O   0  0  0  0  0  0  0  0  0  0  0  0
  2  1  1  0
  3  2  1  0
  4  3  2  0
  5  3  1  0
  6  5  1  0
  7  6  1  0
  7 12  1  0
  8  7  2  0
 10  9  1  0
 11 12  1  0
 11 10  1  1
 13 15  1  0
 13 11  1  0
 14 13  2  0
M  END
$$$$
