NQR.pdb
     RDKit          3D

 29 28  0  0  1  0  0  0  0  0999 V2000
   14.0699  -15.5549   16.1204 N   0  0  0  0  0  0  0  0  0  0  0  0
   14.0434  -16.0288   17.4573 C   0  0  0  0  0  0  0  0  0  0  0  0
   14.9256  -16.8192   17.8644 O   0  0  0  0  0  0  0  0  0  0  0  0
   12.9717  -15.5923   18.3771 C   0  0  0  0  0  0  0  0  0  0  0  0
   12.2098  -16.8342   18.8131 C   0  0  2  0  0  0  0  0  0  0  0  0
   11.3293  -17.2579   17.7636 N   0  0  0  0  0  0  0  0  0  0  0  0
   11.4977  -16.6119   20.1027 C   0  0  0  0  0  0  0  0  0  0  0  0
   12.1963  -16.4027   21.1168 O   0  0  0  0  0  0  0  0  0  0  0  0
    5.9905  -18.2417   21.4323 N   0  0  0  0  0  0  0  0  0  0  0  0
    6.0741  -17.2322   22.4502 C   0  0  0  0  0  0  0  0  0  0  0  0
    5.1715  -17.3056   23.3557 O   0  0  0  0  0  0  0  0  0  0  0  0
    7.1071  -16.1937   22.4694 C   0  0  0  0  0  0  0  0  0  0  0  0
    7.9721  -16.2448   21.2701 C   0  0  0  0  0  0  0  0  0  0  0  0
    9.4153  -16.4582   21.5150 C   0  0  2  0  0  0  0  0  0  0  0  0
   10.0988  -16.6295   20.2186 N   0  0  0  0  0  0  0  0  0  0  0  0
    9.9001  -17.3798   22.5123 C   0  0  0  0  0  0  0  0  0  0  0  0
   10.1190  -18.5847   22.2506 O   0  0  0  0  0  0  0  0  0  0  0  0
    9.5418  -14.0183   27.8988 N   0  0  0  0  0  0  0  0  0  0  0  0
    9.9710  -14.5653   29.1456 C   0  0  0  0  0  0  0  0  0  0  0  0
    9.7138  -13.9879   30.2709 N   0  0  0  0  0  0  0  0  0  0  0  0
   10.7106  -15.7699   29.1728 N   0  0  0  0  0  0  0  0  0  0  0  0
   11.6058  -16.0833   28.0840 C   0  0  0  0  0  0  0  0  0  0  0  0
   10.7434  -16.8026   27.0357 C   0  0  0  0  0  0  0  0  0  0  0  0
   11.5153  -17.3193   25.8771 C   0  0  0  0  0  0  0  0  0  0  0  0
   10.6591  -17.9845   24.8426 C   0  0  2  0  0  0  0  0  0  0  0  0
   10.1673  -16.9975   23.8715 N   0  0  0  0  0  0  0  0  0  0  0  0
    9.4747  -18.6642   25.3956 C   0  0  0  0  0  0  0  0  0  0  0  0
    9.5909  -19.9138   25.9838 O   0  0  0  0  0  0  0  0  0  0  0  0
    8.3453  -18.1494   25.3554 O   0  0  0  0  0  0  0  0  0  0  0  0
  2  1  1  0
  3  2  2  0
  4  2  1  0
  5  6  1  6
  5  4  1  0
  7  5  1  0
  8  7  2  0
  9 10  1  0
 10 12  1  0
 10 11  2  0
 12 13  1  0
 14 13  1  6
 14 15  1  0
 15  7  1  0
 16 14  1  0
 16 17  2  0
 18 19  1  0
 19 20  2  0
 21 22  1  0
 21 19  1  0
 23 24  1  0
 23 22  1  0
 25 24  1  1
 25 26  1  0
 26 16  1  0
 27 25  1  0
 28 27  1  0
 29 27  2  0
M  END
$$$$
