NQR.pdb
     RDKit          3D

 29 28  0  0  1  0  0  0  0  0999 V2000
   10.6292  -18.4847   14.6766 N   0  0  0  0  0  0  0  0  0  0  0  0
   11.0203  -19.4957   15.5917 C   0  0  0  0  0  0  0  0  0  0  0  0
   11.8012  -20.4060   15.2308 O   0  0  0  0  0  0  0  0  0  0  0  0
   10.5060  -19.4800   16.9775 C   0  0  0  0  0  0  0  0  0  0  0  0
   11.4668  -18.6471   17.8120 C   0  0  2  0  0  0  0  0  0  0  0  0
   12.7973  -19.1666   17.6848 N   0  0  0  0  0  0  0  0  0  0  0  0
   11.0203  -18.5584   19.2306 C   0  0  0  0  0  0  0  0  0  0  0  0
    9.9372  -17.9790   19.4574 O   0  0  0  0  0  0  0  0  0  0  0  0
   11.6668  -22.8540   23.6095 N   0  0  0  0  0  0  0  0  0  0  0  0
   12.8156  -22.0012   23.4854 C   0  0  0  0  0  0  0  0  0  0  0  0
   13.8919  -22.4716   23.9957 O   0  0  0  0  0  0  0  0  0  0  0  0
   12.7784  -20.6936   22.8262 C   0  0  0  0  0  0  0  0  0  0  0  0
   11.4307  -20.3667   22.3106 C   0  0  0  0  0  0  0  0  0  0  0  0
   11.2742  -19.0313   21.6936 C   0  0  2  0  0  0  0  0  0  0  0  0
   11.7571  -19.0901   20.3006 N   0  0  0  0  0  0  0  0  0  0  0  0
   11.6835  -17.8207   22.3614 C   0  0  0  0  0  0  0  0  0  0  0  0
   12.7241  -17.2041   22.0367 O   0  0  0  0  0  0  0  0  0  0  0  0
   11.8722  -15.8019   29.3498 N   0  0  0  0  0  0  0  0  0  0  0  0
   10.9709  -14.7052   29.4999 C   0  0  0  0  0  0  0  0  0  0  0  0
   10.3839  -14.4503   30.6208 N   0  0  0  0  0  0  0  0  0  0  0  0
   10.6889  -13.8649   28.3984 N   0  0  0  0  0  0  0  0  0  0  0  0
    9.9328  -14.3807   27.2815 C   0  0  0  0  0  0  0  0  0  0  0  0
   10.9764  -14.9202   26.2917 C   0  0  0  0  0  0  0  0  0  0  0  0
   10.3890  -15.4834   25.0495 C   0  0  0  0  0  0  0  0  0  0  0  0
   11.4163  -15.9987   24.0878 C   0  0  2  0  0  0  0  0  0  0  0  0
   10.9422  -17.2300   23.4413 N   0  0  0  0  0  0  0  0  0  0  0  0
   12.7118  -16.3178   24.7129 C   0  0  0  0  0  0  0  0  0  0  0  0
   12.9415  -17.5722   25.2557 O   0  0  0  0  0  0  0  0  0  0  0  0
   13.6319  -15.4861   24.7750 O   0  0  0  0  0  0  0  0  0  0  0  0
  2  1  1  0
  3  2  2  0
  4  2  1  0
  5  6  1  1
  5  4  1  0
  7  5  1  0
  8  7  2  0
  9 10  1  0
 10 12  1  0
 10 11  2  0
 12 13  1  0
 14 13  1  1
 14 15  1  0
 15  7  1  0
 16 14  1  0
 16 17  2  0
 18 19  1  0
 19 20  2  0
 21 22  1  0
 21 19  1  0
 23 24  1  0
 23 22  1  0
 25 24  1  1
 25 26  1  0
 26 16  1  0
 27 25  1  0
 28 27  1  0
 29 27  2  0
M  END
$$$$
