NQR.pdb
     RDKit          3D

 29 28  0  0  1  0  0  0  0  0999 V2000
    8.0433  -14.6822   15.8389 N   0  0  0  0  0  0  0  0  0  0  0  0
    7.8071  -13.4860   16.5641 C   0  0  0  0  0  0  0  0  0  0  0  0
    7.3062  -12.4901   15.9931 O   0  0  0  0  0  0  0  0  0  0  0  0
    8.1530  -13.4091   17.9993 C   0  0  0  0  0  0  0  0  0  0  0  0
    8.7272  -14.7580   18.4037 C   0  0  2  0  0  0  0  0  0  0  0  0
    7.7824  -15.7962   18.1110 N   0  0  0  0  0  0  0  0  0  0  0  0
    9.1576  -14.7615   19.8301 C   0  0  0  0  0  0  0  0  0  0  0  0
   10.1371  -14.0498   20.1369 O   0  0  0  0  0  0  0  0  0  0  0  0
    8.1564  -15.0667   25.6205 N   0  0  0  0  0  0  0  0  0  0  0  0
    7.0806  -14.7653   24.7184 C   0  0  0  0  0  0  0  0  0  0  0  0
    6.1941  -13.9682   25.1861 O   0  0  0  0  0  0  0  0  0  0  0  0
    6.9900  -15.3148   23.3635 C   0  0  0  0  0  0  0  0  0  0  0  0
    8.0908  -16.2586   23.0692 C   0  0  0  0  0  0  0  0  0  0  0  0
    9.1335  -15.7751   22.1380 C   0  0  2  0  0  0  0  0  0  0  0  0
    8.5167  -15.5203   20.8221 N   0  0  0  0  0  0  0  0  0  0  0  0
   10.4202  -16.4154   22.0216 C   0  0  0  0  0  0  0  0  0  0  0  0
   10.5754  -17.4792   21.3793 O   0  0  0  0  0  0  0  0  0  0  0  0
   17.3029  -13.4103   18.5837 N   0  0  0  0  0  0  0  0  0  0  0  0
   16.2206  -14.2518   18.1859 C   0  0  0  0  0  0  0  0  0  0  0  0
   15.8396  -14.3413   16.9560 N   0  0  0  0  0  0  0  0  0  0  0  0
   15.5229  -15.0119   19.1525 N   0  0  0  0  0  0  0  0  0  0  0  0
   16.0341  -15.0959   20.5004 C   0  0  0  0  0  0  0  0  0  0  0  0
   15.1177  -16.0919   21.2272 C   0  0  0  0  0  0  0  0  0  0  0  0
   13.7958  -15.5274   21.6003 C   0  0  0  0  0  0  0  0  0  0  0  0
   12.9232  -16.4972   22.3378 C   0  0  2  0  0  0  0  0  0  0  0  0
   11.6149  -15.8937   22.6261 N   0  0  0  0  0  0  0  0  0  0  0  0
   13.4810  -16.9404   23.6274 C   0  0  0  0  0  0  0  0  0  0  0  0
   14.6621  -17.6644   23.6719 O   0  0  0  0  0  0  0  0  0  0  0  0
   12.9211  -16.6851   24.7060 O   0  0  0  0  0  0  0  0  0  0  0  0
  2  1  1  0
  3  2  2  0
  4  2  1  0
  5  6  1  1
  5  4  1  0
  7  5  1  0
  8  7  2  0
  9 10  1  0
 10 12  1  0
 10 11  2  0
 12 13  1  0
 14 13  1  1
 14 15  1  0
 15  7  1  0
 16 14  1  0
 16 17  2  0
 18 19  1  0
 19 20  2  0
 21 22  1  0
 21 19  1  0
 23 24  1  0
 23 22  1  0
 25 24  1  1
 25 26  1  0
 26 16  1  0
 27 25  1  0
 28 27  1  0
 29 27  2  0
M  END
$$$$
