NQR.pdb
     RDKit          3D

 29 28  0  0  1  0  0  0  0  0999 V2000
   17.0516  -15.3866   18.1932 N   0  0  0  0  0  0  0  0  0  0  0  0
   16.6156  -14.0581   17.9532 C   0  0  0  0  0  0  0  0  0  0  0  0
   17.4351  -13.1112   17.9747 O   0  0  0  0  0  0  0  0  0  0  0  0
   15.1892  -13.7848   17.6775 C   0  0  0  0  0  0  0  0  0  0  0  0
   14.4008  -15.0211   18.0813 C   0  0  2  0  0  0  0  0  0  0  0  0
   13.8383  -15.6409   16.9170 N   0  0  0  0  0  0  0  0  0  0  0  0
   13.3735  -14.6998   19.1114 C   0  0  0  0  0  0  0  0  0  0  0  0
   13.7780  -14.4227   20.2602 O   0  0  0  0  0  0  0  0  0  0  0  0
    7.6378  -12.3766   18.3703 N   0  0  0  0  0  0  0  0  0  0  0  0
    7.5716  -12.9359   19.6912 C   0  0  0  0  0  0  0  0  0  0  0  0
    6.4803  -12.7029   20.3196 O   0  0  0  0  0  0  0  0  0  0  0  0
    8.6568  -13.7182   20.2881 C   0  0  0  0  0  0  0  0  0  0  0  0
    9.8465  -13.7821   19.4109 C   0  0  0  0  0  0  0  0  0  0  0  0
   10.9876  -14.5768   19.9156 C   0  0  2  0  0  0  0  0  0  0  0  0
   11.9953  -14.6978   18.8447 N   0  0  0  0  0  0  0  0  0  0  0  0
   10.8076  -15.8126   20.6363 C   0  0  0  0  0  0  0  0  0  0  0  0
   10.5961  -16.8979   20.0484 O   0  0  0  0  0  0  0  0  0  0  0  0
   14.8390  -22.5361   22.3875 N   0  0  0  0  0  0  0  0  0  0  0  0
   14.7339  -21.7778   23.5925 C   0  0  0  0  0  0  0  0  0  0  0  0
   15.6478  -21.8104   24.5033 N   0  0  0  0  0  0  0  0  0  0  0  0
   13.5985  -20.9674   23.8220 N   0  0  0  0  0  0  0  0  0  0  0  0
   13.6065  -19.5884   23.3934 C   0  0  0  0  0  0  0  0  0  0  0  0
   12.2342  -19.3506   22.7453 C   0  0  0  0  0  0  0  0  0  0  0  0
   12.0837  -18.0036   22.1382 C   0  0  0  0  0  0  0  0  0  0  0  0
   10.9655  -17.2049   22.7360 C   0  0  2  0  0  0  0  0  0  0  0  0
   10.8538  -15.9000   22.0699 N   0  0  0  0  0  0  0  0  0  0  0  0
   11.1275  -16.9356   24.1754 C   0  0  0  0  0  0  0  0  0  0  0  0
   11.2412  -17.9807   25.0786 O   0  0  0  0  0  0  0  0  0  0  0  0
   11.1677  -15.7788   24.6251 O   0  0  0  0  0  0  0  0  0  0  0  0
  2  1  1  0
  3  2  2  0
  4  2  1  0
  5  6  1  6
  5  4  1  0
  7  5  1  0
  8  7  2  0
  9 10  1  0
 10 12  1  0
 10 11  2  0
 12 13  1  0
 14 13  1  6
 14 15  1  0
 15  7  1  0
 16 14  1  0
 16 17  2  0
 18 19  1  0
 19 20  2  0
 21 22  1  0
 21 19  1  0
 23 24  1  0
 23 22  1  0
 25 24  1  6
 25 26  1  0
 26 16  1  0
 27 25  1  0
 28 27  1  0
 29 27  2  0
M  END
$$$$
