VMK.pdb
     RDKit          3D

 25 24  0  0  1  0  0  0  0  0999 V2000
   16.3804  -10.2105  -12.8578 C   0  0  0  0  0  0  0  0  0  0  0  0
   17.3788   -9.2920  -13.4944 C   0  0  2  0  0  0  0  0  0  0  0  0
   18.4713  -10.0184  -14.2342 C   0  0  0  0  0  0  0  0  0  0  0  0
   17.9584   -8.2952  -12.5014 C   0  0  2  0  0  0  0  0  0  0  0  0
   18.7160   -9.1076  -11.5520 N   0  0  0  0  0  0  0  0  0  0  0  0
   16.8221   -7.6172  -11.8249 C   0  0  0  0  0  0  0  0  0  0  0  0
   16.0090   -6.8797  -12.4858 O   0  0  0  0  0  0  0  0  0  0  0  0
   11.8163   -7.2105   -5.8139 C   0  0  0  0  0  0  0  0  0  0  0  0
   13.2538   -8.0539   -6.5176 S   0  0  0  0  0  0  0  0  0  0  0  0
   13.7866   -7.1351   -8.0047 C   0  0  0  0  0  0  0  0  0  0  0  0
   15.0274   -7.7496   -8.5632 C   0  0  0  0  0  0  0  0  0  0  0  0
   15.4466   -7.0140   -9.8436 C   0  0  2  0  0  0  0  0  0  0  0  0
   16.5463   -7.7244  -10.4346 N   0  0  0  0  0  0  0  0  0  0  0  0
   15.7574   -5.6074   -9.4907 C   0  0  0  0  0  0  0  0  0  0  0  0
   16.8686   -5.4553   -8.8714 O   0  0  0  0  0  0  0  0  0  0  0  0
   14.9073   -4.5281   -9.8073 N   0  0  0  0  0  0  0  0  0  0  0  0
   15.3313   -3.1773   -9.5456 C   0  0  1  0  0  0  0  0  0  0  0  0
   15.0980   -2.4057  -10.8023 C   0  0  0  0  0  0  0  0  0  0  0  0
   15.3466   -0.9516  -10.7464 C   0  0  0  0  0  0  0  0  0  0  0  0
   15.0740   -0.1849  -12.0007 C   0  0  0  0  0  0  0  0  0  0  0  0
   15.5389    1.2461  -11.7939 C   0  0  0  0  0  0  0  0  0  0  0  0
   15.2632    2.0385  -12.9810 N   0  0  0  0  0  0  0  0  0  0  0  0
   14.6859   -2.6723   -8.3531 C   0  0  0  0  0  0  0  0  0  0  0  0
   15.2947   -1.5976   -7.6816 O   0  0  0  0  0  0  0  0  0  0  0  0
   13.6242   -3.0908   -7.8372 O   0  0  0  0  0  0  0  0  0  0  0  0
  2  4  1  0
  2  1  1  1
  3  2  1  0
  4  5  1  1
  6  4  1  0
  6  7  2  0
  9  8  1  0
 10  9  1  0
 11 10  1  0
 12 11  1  1
 13 12  1  0
 13  6  1  0
 14 15  2  0
 14 12  1  0
 16 14  1  0
 17 16  1  0
 17 23  1  0
 17 18  1  6
 19 18  1  0
 20 19  1  0
 21 22  1  0
 21 20  1  0
 23 24  1  0
 25 23  2  0
M  END
$$$$
