VMK.pdb
     RDKit          3D

 25 24  0  0  1  0  0  0  0  0999 V2000
   28.4275  -18.8746  -16.9585 C   0  0  0  0  0  0  0  0  0  0  0  0
   27.4698  -19.4581  -15.9646 C   0  0  2  0  0  0  0  0  0  0  0  0
   26.6512  -18.4197  -15.2436 C   0  0  0  0  0  0  0  0  0  0  0  0
   28.1596  -20.3920  -14.9809 C   0  0  2  0  0  0  0  0  0  0  0  0
   28.6500  -21.5012  -15.7961 N   0  0  0  0  0  0  0  0  0  0  0  0
   27.1371  -20.8634  -14.0109 C   0  0  0  0  0  0  0  0  0  0  0  0
   26.1816  -21.6312  -14.3843 O   0  0  0  0  0  0  0  0  0  0  0  0
   27.4080  -20.2154   -7.5367 C   0  0  0  0  0  0  0  0  0  0  0  0
   25.6104  -20.2489   -7.7376 S   0  0  0  0  0  0  0  0  0  0  0  0
   25.2336  -20.8067   -9.4366 C   0  0  0  0  0  0  0  0  0  0  0  0
   26.3410  -20.4126  -10.3571 C   0  0  0  0  0  0  0  0  0  0  0  0
   26.0434  -20.9096  -11.7787 C   0  0  2  0  0  0  0  0  0  0  0  0
   27.1300  -20.5173  -12.6324 N   0  0  0  0  0  0  0  0  0  0  0  0
   24.7257  -20.3698  -12.1933 C   0  0  0  0  0  0  0  0  0  0  0  0
   24.7149  -19.1032  -12.3857 O   0  0  0  0  0  0  0  0  0  0  0  0
   23.5818  -21.1764  -12.3626 N   0  0  0  0  0  0  0  0  0  0  0  0
   22.3565  -20.5949  -12.8458 C   0  0  1  0  0  0  0  0  0  0  0  0
   22.2804  -20.9096  -14.3032 C   0  0  0  0  0  0  0  0  0  0  0  0
   21.0614  -20.4769  -15.0148 C   0  0  0  0  0  0  0  0  0  0  0  0
   20.9995  -20.7940  -16.4746 C   0  0  0  0  0  0  0  0  0  0  0  0
   19.6888  -20.2572  -17.0227 C   0  0  0  0  0  0  0  0  0  0  0  0
   19.6328  -20.4482  -18.4627 N   0  0  0  0  0  0  0  0  0  0  0  0
   21.2409  -21.0334  -12.0353 C   0  0  0  0  0  0  0  0  0  0  0  0
   20.0115  -20.3705  -12.1961 O   0  0  0  0  0  0  0  0  0  0  0  0
   21.2427  -21.9552  -11.1876 O   0  0  0  0  0  0  0  0  0  0  0  0
  2  4  1  0
  2  1  1  1
  3  2  1  0
  4  5  1  6
  6  4  1  0
  6  7  2  0
  9  8  1  0
 10  9  1  0
 11 10  1  0
 12 11  1  1
 13 12  1  0
 13  6  1  0
 14 15  2  0
 14 12  1  0
 16 14  1  0
 17 16  1  0
 17 23  1  0
 17 18  1  6
 19 18  1  0
 20 19  1  0
 21 22  1  0
 21 20  1  0
 23 24  1  0
 25 23  2  0
M  END
$$$$
