VMK.pdb
     RDKit          3D

 25 24  0  0  1  0  0  0  0  0999 V2000
   21.5129  -14.5514  -15.9713 C   0  0  0  0  0  0  0  0  0  0  0  0
   20.1512  -14.0335  -16.3225 C   0  0  2  0  0  0  0  0  0  0  0  0
   19.3332  -15.0056  -17.1314 C   0  0  0  0  0  0  0  0  0  0  0  0
   20.2105  -12.6716  -16.9986 C   0  0  2  0  0  0  0  0  0  0  0  0
   20.8713  -12.9158  -18.2788 N   0  0  0  0  0  0  0  0  0  0  0  0
   21.0333  -11.7770  -16.1435 C   0  0  0  0  0  0  0  0  0  0  0  0
   20.6550  -11.4698  -14.9584 O   0  0  0  0  0  0  0  0  0  0  0  0
   27.4096  -13.0769  -14.8191 C   0  0  0  0  0  0  0  0  0  0  0  0
   26.7700  -11.6239  -15.6868 S   0  0  0  0  0  0  0  0  0  0  0  0
   24.9714  -11.5190  -15.3809 C   0  0  0  0  0  0  0  0  0  0  0  0
   24.4237  -10.2749  -15.9985 C   0  0  0  0  0  0  0  0  0  0  0  0
   22.9099  -10.1924  -15.7575 C   0  0  2  0  0  0  0  0  0  0  0  0
   22.2692  -11.2047  -16.5501 N   0  0  0  0  0  0  0  0  0  0  0  0
   22.4646   -8.8121  -16.0680 C   0  0  0  0  0  0  0  0  0  0  0  0
   22.1562   -8.6244  -17.2972 O   0  0  0  0  0  0  0  0  0  0  0  0
   22.3857   -7.7919  -15.0979 N   0  0  0  0  0  0  0  0  0  0  0  0
   21.8345   -6.5084  -15.4468 C   0  0  1  0  0  0  0  0  0  0  0  0
   20.4357   -6.7553  -15.9065 C   0  0  0  0  0  0  0  0  0  0  0  0
   19.5823   -5.5678  -16.1093 C   0  0  0  0  0  0  0  0  0  0  0  0
   18.1755   -5.8299  -16.5421 C   0  0  0  0  0  0  0  0  0  0  0  0
   17.4547   -4.4975  -16.6492 C   0  0  0  0  0  0  0  0  0  0  0  0
   16.0396   -4.7128  -16.9024 N   0  0  0  0  0  0  0  0  0  0  0  0
   21.9949   -5.5798  -14.3488 C   0  0  0  0  0  0  0  0  0  0  0  0
   21.8035   -4.2121  -14.6119 O   0  0  0  0  0  0  0  0  0  0  0  0
   22.2915   -5.8586  -13.1644 O   0  0  0  0  0  0  0  0  0  0  0  0
  2  4  1  0
  2  1  1  6
  3  2  1  0
  4  5  1  6
  6  4  1  0
  6  7  2  0
  9  8  1  0
 10  9  1  0
 11 10  1  0
 12 11  1  6
 13 12  1  0
 13  6  1  0
 14 15  2  0
 14 12  1  0
 16 14  1  0
 17 16  1  0
 17 23  1  0
 17 18  1  1
 19 18  1  0
 20 19  1  0
 21 22  1  0
 21 20  1  0
 23 24  1  0
 25 23  2  0
M  END
$$$$
