VMK.pdb
     RDKit          3D

 25 24  0  0  1  0  0  0  0  0999 V2000
   29.1134  -19.4445  -14.6342 C   0  0  0  0  0  0  0  0  0  0  0  0
   28.7028  -19.9355  -15.9891 C   0  0  2  0  0  0  0  0  0  0  0  0
   29.3409  -19.1719  -17.1196 C   0  0  0  0  0  0  0  0  0  0  0  0
   27.1903  -19.9876  -16.1481 C   0  0  2  0  0  0  0  0  0  0  0  0
   26.7716  -18.5896  -16.2217 N   0  0  0  0  0  0  0  0  0  0  0  0
   26.6300  -20.6420  -14.9371 C   0  0  0  0  0  0  0  0  0  0  0  0
   26.6338  -21.9178  -14.8181 O   0  0  0  0  0  0  0  0  0  0  0  0
   27.2489  -20.0557   -8.5854 C   0  0  0  0  0  0  0  0  0  0  0  0
   25.4474  -20.0616   -8.7522 S   0  0  0  0  0  0  0  0  0  0  0  0
   25.0239  -20.7950  -10.3716 C   0  0  0  0  0  0  0  0  0  0  0  0
   25.6510  -19.9994  -11.4683 C   0  0  0  0  0  0  0  0  0  0  0  0
   25.3119  -20.6236  -12.8291 C   0  0  2  0  0  0  0  0  0  0  0  0
   26.0617  -19.9352  -13.8427 N   0  0  0  0  0  0  0  0  0  0  0  0
   23.8422  -20.5576  -13.0172 C   0  0  0  0  0  0  0  0  0  0  0  0
   23.3953  -19.3792  -13.2479 O   0  0  0  0  0  0  0  0  0  0  0  0
   23.0055  -21.6904  -12.9495 N   0  0  0  0  0  0  0  0  0  0  0  0
   21.5970  -21.5617  -13.2183 C   0  0  1  0  0  0  0  0  0  0  0  0
   21.0429  -22.9473  -13.2643 C   0  0  0  0  0  0  0  0  0  0  0  0
   19.5946  -23.0769  -13.5197 C   0  0  0  0  0  0  0  0  0  0  0  0
   19.0705  -24.4694  -13.6665 C   0  0  0  0  0  0  0  0  0  0  0  0
   17.6283  -24.3877  -14.1354 C   0  0  0  0  0  0  0  0  0  0  0  0
   17.0844  -25.7236  -14.3164 N   0  0  0  0  0  0  0  0  0  0  0  0
   20.9866  -20.6575  -12.2677 C   0  0  0  0  0  0  0  0  0  0  0  0
   19.9435  -19.8321  -12.7226 O   0  0  0  0  0  0  0  0  0  0  0  0
   21.2864  -20.5210  -11.0594 O   0  0  0  0  0  0  0  0  0  0  0  0
  2  4  1  0
  2  1  1  1
  3  2  1  0
  4  5  1  1
  6  4  1  0
  6  7  2  0
  9  8  1  0
 10  9  1  0
 11 10  1  0
 12 11  1  1
 13 12  1  0
 13  6  1  0
 14 15  2  0
 14 12  1  0
 16 14  1  0
 17 16  1  0
 17 23  1  0
 17 18  1  1
 19 18  1  0
 20 19  1  0
 21 22  1  0
 21 20  1  0
 23 24  1  0
 25 23  2  0
M  END
$$$$
