VMK.pdb
     RDKit          3D

 25 24  0  0  1  0  0  0  0  0999 V2000
   17.9211  -20.3199  -14.9112 C   0  0  0  0  0  0  0  0  0  0  0  0
   19.2862  -19.7202  -15.0615 C   0  0  2  0  0  0  0  0  0  0  0  0
   19.3261  -18.5600  -16.0211 C   0  0  0  0  0  0  0  0  0  0  0  0
   20.3362  -20.7623  -15.4177 C   0  0  2  0  0  0  0  0  0  0  0  0
   19.9165  -21.9739  -14.7168 N   0  0  0  0  0  0  0  0  0  0  0  0
   21.6444  -20.2818  -14.9014 C   0  0  0  0  0  0  0  0  0  0  0  0
   22.1956  -19.2307  -15.3843 O   0  0  0  0  0  0  0  0  0  0  0  0
   24.2057  -20.8473   -8.8796 C   0  0  0  0  0  0  0  0  0  0  0  0
   25.6534  -21.1482   -9.9220 S   0  0  0  0  0  0  0  0  0  0  0  0
   25.3003  -20.5014  -11.5943 C   0  0  0  0  0  0  0  0  0  0  0  0
   23.9619  -20.9800  -12.0510 C   0  0  0  0  0  0  0  0  0  0  0  0
   23.6594  -20.4326  -13.4530 C   0  0  2  0  0  0  0  0  0  0  0  0
   22.3728  -20.9225  -13.8626 N   0  0  0  0  0  0  0  0  0  0  0  0
   24.7694  -20.8259  -14.3547 C   0  0  0  0  0  0  0  0  0  0  0  0
   24.7981  -22.0753  -14.6370 O   0  0  0  0  0  0  0  0  0  0  0  0
   25.7130  -19.9083  -14.8601 N   0  0  0  0  0  0  0  0  0  0  0  0
   26.6974  -20.3420  -15.8169 C   0  0  1  0  0  0  0  0  0  0  0  0
   27.3229  -19.1068  -16.3756 C   0  0  0  0  0  0  0  0  0  0  0  0
   28.3707  -19.2954  -17.3982 C   0  0  0  0  0  0  0  0  0  0  0  0
   28.9933  -18.0510  -17.9453 C   0  0  0  0  0  0  0  0  0  0  0  0
   30.0126  -18.4520  -18.9972 C   0  0  0  0  0  0  0  0  0  0  0  0
   30.6862  -17.2731  -19.5165 N   0  0  0  0  0  0  0  0  0  0  0  0
   27.5973  -21.2991  -15.2101 C   0  0  0  0  0  0  0  0  0  0  0  0
   27.9730  -21.0902  -13.8716 O   0  0  0  0  0  0  0  0  0  0  0  0
   28.0921  -22.3146  -15.7507 O   0  0  0  0  0  0  0  0  0  0  0  0
  2  4  1  0
  2  1  1  6
  3  2  1  0
  4  5  1  1
  6  4  1  0
  6  7  2  0
  9  8  1  0
 10  9  1  0
 11 10  1  0
 12 11  1  1
 13 12  1  0
 13  6  1  0
 14 15  2  0
 14 12  1  0
 16 14  1  0
 17 16  1  0
 17 23  1  0
 17 18  1  1
 19 18  1  0
 20 19  1  0
 21 22  1  0
 21 20  1  0
 23 24  1  0
 25 23  2  0
M  END
$$$$
