VMK.pdb
     RDKit          3D

 25 24  0  0  1  0  0  0  0  0999 V2000
   28.7483  -20.8862  -15.3862 C   0  0  0  0  0  0  0  0  0  0  0  0
   27.7892  -20.3190  -16.3882 C   0  0  2  0  0  0  0  0  0  0  0  0
   28.4583  -19.4876  -17.4509 C   0  0  0  0  0  0  0  0  0  0  0  0
   26.6532  -19.5522  -15.7270 C   0  0  2  0  0  0  0  0  0  0  0  0
   27.2765  -18.3434  -15.1926 N   0  0  0  0  0  0  0  0  0  0  0  0
   26.1157  -20.3970  -14.6288 C   0  0  0  0  0  0  0  0  0  0  0  0
   25.5210  -21.5035  -14.8815 O   0  0  0  0  0  0  0  0  0  0  0  0
   26.9731  -19.8548   -7.6955 C   0  0  0  0  0  0  0  0  0  0  0  0
   25.4597  -20.6919   -8.2268 S   0  0  0  0  0  0  0  0  0  0  0  0
   25.7178  -21.3212   -9.9229 C   0  0  0  0  0  0  0  0  0  0  0  0
   25.7512  -20.1817  -10.8871 C   0  0  0  0  0  0  0  0  0  0  0  0
   25.3344  -20.6639  -12.2836 C   0  0  2  0  0  0  0  0  0  0  0  0
   26.2116  -20.0643  -13.2502 N   0  0  0  0  0  0  0  0  0  0  0  0
   23.9024  -20.3322  -12.4814 C   0  0  0  0  0  0  0  0  0  0  0  0
   23.6947  -19.1485  -12.9255 O   0  0  0  0  0  0  0  0  0  0  0  0
   22.8571  -21.2375  -12.2066 N   0  0  0  0  0  0  0  0  0  0  0  0
   21.5322  -20.9806  -12.7079 C   0  0  1  0  0  0  0  0  0  0  0  0
   21.6399  -20.9377  -14.1964 C   0  0  0  0  0  0  0  0  0  0  0  0
   20.3780  -20.8102  -14.9517 C   0  0  0  0  0  0  0  0  0  0  0  0
   20.4917  -20.8491  -16.4420 C   0  0  0  0  0  0  0  0  0  0  0  0
   19.1048  -20.6568  -17.0300 C   0  0  0  0  0  0  0  0  0  0  0  0
   19.1736  -20.6478  -18.4820 N   0  0  0  0  0  0  0  0  0  0  0  0
   20.5954  -21.9373  -12.1595 C   0  0  0  0  0  0  0  0  0  0  0  0
   21.1170  -23.0886  -11.5438 O   0  0  0  0  0  0  0  0  0  0  0  0
   19.3456  -21.8580  -12.1699 O   0  0  0  0  0  0  0  0  0  0  0  0
  2  4  1  0
  2  1  1  1
  3  2  1  0
  4  5  1  1
  6  4  1  0
  6  7  2  0
  9  8  1  0
 10  9  1  0
 11 10  1  0
 12 11  1  1
 13 12  1  0
 13  6  1  0
 14 15  2  0
 14 12  1  0
 16 14  1  0
 17 16  1  0
 17 23  1  0
 17 18  1  6
 19 18  1  0
 20 19  1  0
 21 22  1  0
 21 20  1  0
 23 24  1  0
 25 23  2  0
M  END
$$$$
