TWC.pdb
     RDKit          3D

 28 29  0  0  1  0  0  0  0  0999 V2000
   28.5851  -17.7579  -14.8680 C   0  0  0  0  0  0  0  0  0  0  0  0
   27.4996  -18.5519  -14.1389 C   0  0  1  0  0  0  0  0  0  0  0  0
   26.4421  -18.7293  -14.9957 O   0  0  0  0  0  0  0  0  0  0  0  0
   28.0526  -19.8231  -13.5426 C   0  0  2  0  0  0  0  0  0  0  0  0
   28.5242  -20.7221  -14.6018 N   0  0  0  0  0  0  0  0  0  0  0  0
   27.1388  -20.5204  -12.6421 C   0  0  0  0  0  0  0  0  0  0  0  0
   26.6157  -21.6127  -13.0629 O   0  0  0  0  0  0  0  0  0  0  0  0
   26.8307  -20.0255  -11.3508 N   0  0  0  0  0  0  0  0  0  0  0  0
   25.8879  -20.7531  -10.5270 C   0  0  1  0  0  0  0  0  0  0  0  0
   25.9762  -20.3509   -9.0699 C   0  0  0  0  0  0  0  0  0  0  0  0
   27.2848  -20.5531   -8.4661 C   0  0  0  0  0  0  0  0  0  0  0  0
   28.3266  -21.2747   -8.9926 C   0  0  0  0  0  0  0  0  0  0  0  0
   29.3740  -21.2500   -8.1745 N   0  0  0  0  0  0  0  0  0  0  0  0
   29.0617  -20.5209   -7.0959 C   0  0  0  0  0  0  0  0  0  0  0  0
   29.8162  -20.2138   -5.9871 C   0  0  0  0  0  0  0  0  0  0  0  0
   29.2706  -19.4377   -4.9961 C   0  0  0  0  0  0  0  0  0  0  0  0
   27.9787  -18.9837   -5.1350 C   0  0  0  0  0  0  0  0  0  0  0  0
   27.2288  -19.2982   -6.2538 C   0  0  0  0  0  0  0  0  0  0  0  0
   27.7573  -20.0773   -7.2624 C   0  0  0  0  0  0  0  0  0  0  0  0
   24.5214  -20.4150  -10.9823 C   0  0  0  0  0  0  0  0  0  0  0  0
   24.0932  -19.2505  -10.8208 O   0  0  0  0  0  0  0  0  0  0  0  0
   23.6627  -21.3614  -11.6016 N   0  0  0  0  0  0  0  0  0  0  0  0
   22.4016  -20.9502  -12.1694 C   0  0  1  0  0  0  0  0  0  0  0  0
   22.1161  -21.6621  -13.4762 C   0  0  0  0  0  0  0  0  0  0  0  0
   23.0211  -23.2387  -13.5489 S   0  0  0  0  0  0  0  0  0  0  0  0
   21.2829  -21.1412  -11.2042 C   0  0  0  0  0  0  0  0  0  0  0  0
   21.4489  -21.7614  -10.1259 O   0  0  0  0  0  0  0  0  0  0  0  0
   19.9976  -20.6410  -11.4509 O   0  0  0  0  0  0  0  0  0  0  0  0
  2  1  1  6
  2  3  1  0
  2  4  1  0
  4  6  1  0
  4  5  1  6
  6  7  2  0
  8  9  1  0
  8  6  1  0
 10 11  1  0
  9 10  1  1
 11 12  2  0
 13 12  1  0
 14 13  1  0
 15 14  2  0
 16 15  1  0
 17 18  1  0
 17 16  2  0
 18 19  2  0
 19 14  1  0
 19 11  1  0
 20  9  1  0
 20 21  2  0
 22 20  1  0
 23 22  1  0
 23 26  1  0
 23 24  1  6
 25 24  1  0
 26 28  1  0
 27 26  2  0
M  END
$$$$
