TWC.pdb
     RDKit          3D

 28 29  0  0  1  0  0  0  0  0999 V2000
   26.5979  -18.5071  -15.1305 C   0  0  0  0  0  0  0  0  0  0  0  0
   27.3885  -19.6654  -15.7418 C   0  0  1  0  0  0  0  0  0  0  0  0
   28.2983  -19.1490  -16.6303 O   0  0  0  0  0  0  0  0  0  0  0  0
   27.9788  -20.5542  -14.6745 C   0  0  2  0  0  0  0  0  0  0  0  0
   28.7361  -21.6526  -15.2849 N   0  0  0  0  0  0  0  0  0  0  0  0
   27.0126  -21.0677  -13.7076 C   0  0  0  0  0  0  0  0  0  0  0  0
   26.4082  -22.1596  -14.0012 O   0  0  0  0  0  0  0  0  0  0  0  0
   26.7409  -20.4001  -12.4878 N   0  0  0  0  0  0  0  0  0  0  0  0
   25.7961  -20.9884  -11.5613 C   0  0  1  0  0  0  0  0  0  0  0  0
   25.9073  -20.3869  -10.1762 C   0  0  0  0  0  0  0  0  0  0  0  0
   27.1554  -20.6818   -9.4884 C   0  0  0  0  0  0  0  0  0  0  0  0
   28.1715  -21.4838   -9.9441 C   0  0  0  0  0  0  0  0  0  0  0  0
   29.1631  -21.5309   -9.0602 N   0  0  0  0  0  0  0  0  0  0  0  0
   28.8381  -20.7717   -8.0064 C   0  0  0  0  0  0  0  0  0  0  0  0
   29.5409  -20.5130   -6.8522 C   0  0  0  0  0  0  0  0  0  0  0  0
   28.9929  -19.6901   -5.9011 C   0  0  0  0  0  0  0  0  0  0  0  0
   27.7504  -19.1416   -6.1248 C   0  0  0  0  0  0  0  0  0  0  0  0
   27.0523  -19.4081   -7.2886 C   0  0  0  0  0  0  0  0  0  0  0  0
   27.5843  -20.2329   -8.2583 C   0  0  0  0  0  0  0  0  0  0  0  0
   24.4300  -20.6940  -12.0474 C   0  0  0  0  0  0  0  0  0  0  0  0
   24.0916  -19.5049  -12.2390 O   0  0  0  0  0  0  0  0  0  0  0  0
   23.4734  -21.7102  -12.3100 N   0  0  0  0  0  0  0  0  0  0  0  0
   22.1823  -21.3805  -12.8633 C   0  0  1  0  0  0  0  0  0  0  0  0
   21.6569  -22.4847  -13.7581 C   0  0  0  0  0  0  0  0  0  0  0  0
   22.7672  -22.7306  -15.1783 S   0  0  0  0  0  0  0  0  0  0  0  0
   21.2002  -21.0510  -11.7924 C   0  0  0  0  0  0  0  0  0  0  0  0
   21.4952  -21.1641  -10.5779 O   0  0  0  0  0  0  0  0  0  0  0  0
   19.9062  -20.6014  -12.0863 O   0  0  0  0  0  0  0  0  0  0  0  0
  2  1  1  1
  2  3  1  0
  2  4  1  0
  4  6  1  0
  4  5  1  6
  6  7  2  0
  8  9  1  0
  8  6  1  0
 10 11  1  0
  9 10  1  1
 11 12  2  0
 13 12  1  0
 14 13  1  0
 15 14  2  0
 16 15  1  0
 17 18  1  0
 17 16  2  0
 18 19  2  0
 19 14  1  0
 19 11  1  0
 20  9  1  0
 20 21  2  0
 22 20  1  0
 23 22  1  0
 23 26  1  0
 23 24  1  1
 25 24  1  0
 26 28  1  0
 27 26  2  0
M  END
$$$$
