TWC.pdb
     RDKit          3D

 28 29  0  0  1  0  0  0  0  0999 V2000
   21.3460  -12.9043  -22.0112 C   0  0  0  0  0  0  0  0  0  0  0  0
   20.8501  -11.9191  -20.9511 C   0  0  1  0  0  0  0  0  0  0  0  0
   19.6209  -11.4470  -21.3384 O   0  0  0  0  0  0  0  0  0  0  0  0
   20.8892  -12.5281  -19.5709 C   0  0  2  0  0  0  0  0  0  0  0  0
   20.0498  -13.7302  -19.5181 N   0  0  0  0  0  0  0  0  0  0  0  0
   20.5434  -11.6087  -18.4904 C   0  0  0  0  0  0  0  0  0  0  0  0
   19.3124  -11.5513  -18.1366 O   0  0  0  0  0  0  0  0  0  0  0  0
   21.5158  -10.8046  -17.8461 N   0  0  0  0  0  0  0  0  0  0  0  0
   21.1008   -9.9283  -16.7704 C   0  0  1  0  0  0  0  0  0  0  0  0
   22.2360   -9.6200  -15.8171 C   0  0  0  0  0  0  0  0  0  0  0  0
   21.8959   -8.6836  -14.7562 C   0  0  0  0  0  0  0  0  0  0  0  0
   21.2131   -8.9687  -13.6005 C   0  0  0  0  0  0  0  0  0  0  0  0
   21.0781   -7.8766  -12.8548 N   0  0  0  0  0  0  0  0  0  0  0  0
   21.6598   -6.8489  -13.4858 C   0  0  0  0  0  0  0  0  0  0  0  0
   21.7752   -5.5306  -13.1091 C   0  0  0  0  0  0  0  0  0  0  0  0
   22.4256   -4.6495  -13.9354 C   0  0  0  0  0  0  0  0  0  0  0  0
   22.9483   -5.1062  -15.1240 C   0  0  0  0  0  0  0  0  0  0  0  0
   22.8267   -6.4335  -15.4931 C   0  0  0  0  0  0  0  0  0  0  0  0
   22.1766   -7.3368  -14.6777 C   0  0  0  0  0  0  0  0  0  0  0  0
   20.6775   -8.6403  -17.3629 C   0  0  0  0  0  0  0  0  0  0  0  0
   21.3357   -8.1571  -18.3109 O   0  0  0  0  0  0  0  0  0  0  0  0
   19.5456   -7.9181  -16.9005 N   0  0  0  0  0  0  0  0  0  0  0  0
   19.2092   -6.6348  -17.4678 C   0  0  1  0  0  0  0  0  0  0  0  0
   17.8803   -6.6738  -18.1948 C   0  0  0  0  0  0  0  0  0  0  0  0
   17.4259   -5.0096  -18.7726 S   0  0  0  0  0  0  0  0  0  0  0  0
   19.2177   -5.5637  -16.4321 C   0  0  0  0  0  0  0  0  0  0  0  0
   18.6634   -5.7274  -15.3183 O   0  0  0  0  0  0  0  0  0  0  0  0
   19.8412   -4.3279  -16.6491 O   0  0  0  0  0  0  0  0  0  0  0  0
  2  1  1  6
  2  3  1  0
  2  4  1  0
  4  6  1  0
  4  5  1  6
  6  7  2  0
  8  9  1  0
  8  6  1  0
 10 11  1  0
  9 10  1  1
 11 12  2  0
 13 12  1  0
 14 13  1  0
 15 14  2  0
 16 15  1  0
 17 18  1  0
 17 16  2  0
 18 19  2  0
 19 14  1  0
 19 11  1  0
 20  9  1  0
 20 21  2  0
 22 20  1  0
 23 22  1  0
 23 26  1  0
 23 24  1  1
 25 24  1  0
 26 28  1  0
 27 26  2  0
M  END
$$$$
