TWC.pdb
     RDKit          3D

 28 29  0  0  1  0  0  0  0  0999 V2000
   27.2648  -15.5735  -18.5204 C   0  0  0  0  0  0  0  0  0  0  0  0
   26.5402  -16.6454  -17.7041 C   0  0  1  0  0  0  0  0  0  0  0  0
   25.4348  -17.0537  -18.4079 O   0  0  0  0  0  0  0  0  0  0  0  0
   27.4775  -17.7554  -17.2959 C   0  0  2  0  0  0  0  0  0  0  0  0
   28.0176  -18.4307  -18.4812 N   0  0  0  0  0  0  0  0  0  0  0  0
   26.9046  -18.7242  -16.3656 C   0  0  0  0  0  0  0  0  0  0  0  0
   26.3874  -19.7859  -16.8646 O   0  0  0  0  0  0  0  0  0  0  0  0
   26.9112  -18.5169  -14.9641 N   0  0  0  0  0  0  0  0  0  0  0  0
   26.3636  -19.5423  -14.1005 C   0  0  1  0  0  0  0  0  0  0  0  0
   26.8596  -19.4114  -12.6759 C   0  0  0  0  0  0  0  0  0  0  0  0
   26.3269  -20.4066  -11.7574 C   0  0  0  0  0  0  0  0  0  0  0  0
   25.9672  -21.6948  -12.0648 C   0  0  0  0  0  0  0  0  0  0  0  0
   25.5197  -22.3265  -10.9843 N   0  0  0  0  0  0  0  0  0  0  0  0
   25.5688  -21.4870   -9.9425 C   0  0  0  0  0  0  0  0  0  0  0  0
   25.2133  -21.6863   -8.6284 C   0  0  0  0  0  0  0  0  0  0  0  0
   25.3561  -20.6595   -7.7298 C   0  0  0  0  0  0  0  0  0  0  0  0
   25.8527  -19.4519   -8.1652 C   0  0  0  0  0  0  0  0  0  0  0  0
   26.2071  -19.2621   -9.4886 C   0  0  0  0  0  0  0  0  0  0  0  0
   26.0718  -20.2807  -10.4092 C   0  0  0  0  0  0  0  0  0  0  0  0
   24.8943  -19.3736  -14.0594 C   0  0  0  0  0  0  0  0  0  0  0  0
   24.4142  -18.2324  -13.8788 O   0  0  0  0  0  0  0  0  0  0  0  0
   23.9925  -20.4592  -14.2175 N   0  0  0  0  0  0  0  0  0  0  0  0
   22.5685  -20.2552  -14.1069 C   0  0  1  0  0  0  0  0  0  0  0  0
   21.8000  -21.1255  -15.0806 C   0  0  0  0  0  0  0  0  0  0  0  0
   20.0153  -21.0334  -14.7393 S   0  0  0  0  0  0  0  0  0  0  0  0
   22.0950  -20.4727  -12.7111 C   0  0  0  0  0  0  0  0  0  0  0  0
   22.5004  -21.4438  -12.0275 O   0  0  0  0  0  0  0  0  0  0  0  0
   21.1792  -19.6090  -12.0960 O   0  0  0  0  0  0  0  0  0  0  0  0
  2  1  1  6
  2  3  1  0
  2  4  1  0
  4  6  1  0
  4  5  1  6
  6  7  2  0
  8  9  1  0
  8  6  1  0
 10 11  1  0
  9 10  1  1
 11 12  2  0
 13 12  1  0
 14 13  1  0
 15 14  2  0
 16 15  1  0
 17 18  1  0
 17 16  2  0
 18 19  2  0
 19 14  1  0
 19 11  1  0
 20  9  1  0
 20 21  2  0
 22 20  1  0
 23 22  1  0
 23 26  1  0
 23 24  1  6
 25 24  1  0
 26 28  1  0
 27 26  2  0
M  END
$$$$
