TWC.pdb
     RDKit          3D

 28 29  0  0  1  0  0  0  0  0999 V2000
   28.8849  -21.5673  -18.4062 C   0  0  0  0  0  0  0  0  0  0  0  0
   27.9135  -21.5069  -17.2259 C   0  0  1  0  0  0  0  0  0  0  0  0
   26.6344  -21.6223  -17.7099 O   0  0  0  0  0  0  0  0  0  0  0  0
   28.2800  -22.5084  -16.1581 C   0  0  2  0  0  0  0  0  0  0  0  0
   28.2077  -23.8735  -16.6907 N   0  0  0  0  0  0  0  0  0  0  0  0
   27.5066  -22.3933  -14.9249 C   0  0  0  0  0  0  0  0  0  0  0  0
   26.5351  -23.2136  -14.7597 O   0  0  0  0  0  0  0  0  0  0  0  0
   27.8032  -21.4208  -13.9383 N   0  0  0  0  0  0  0  0  0  0  0  0
   27.0187  -21.3939  -12.7213 C   0  0  1  0  0  0  0  0  0  0  0  0
   27.6357  -20.5007  -11.6658 C   0  0  0  0  0  0  0  0  0  0  0  0
   26.8618  -20.3937  -10.4380 C   0  0  0  0  0  0  0  0  0  0  0  0
   25.5018  -20.2391  -10.3384 C   0  0  0  0  0  0  0  0  0  0  0  0
   25.1298  -20.1768   -9.0638 N   0  0  0  0  0  0  0  0  0  0  0  0
   26.2175  -20.2868   -8.2911 C   0  0  0  0  0  0  0  0  0  0  0  0
   26.3332  -20.2778   -6.9201 C   0  0  0  0  0  0  0  0  0  0  0  0
   27.5736  -20.4082   -6.3488 C   0  0  0  0  0  0  0  0  0  0  0  0
   28.6753  -20.5452   -7.1625 C   0  0  0  0  0  0  0  0  0  0  0  0
   28.5480  -20.5530   -8.5398 C   0  0  0  0  0  0  0  0  0  0  0  0
   27.3104  -20.4232   -9.1355 C   0  0  0  0  0  0  0  0  0  0  0  0
   25.6913  -20.8244  -13.0415 C   0  0  0  0  0  0  0  0  0  0  0  0
   25.6214  -19.6833  -13.5500 O   0  0  0  0  0  0  0  0  0  0  0  0
   24.4781  -21.5205  -12.7959 N   0  0  0  0  0  0  0  0  0  0  0  0
   23.2094  -20.9414  -13.1656 C   0  0  1  0  0  0  0  0  0  0  0  0
   22.4021  -21.8744  -14.0454 C   0  0  0  0  0  0  0  0  0  0  0  0
   23.3763  -22.3759  -15.4977 S   0  0  0  0  0  0  0  0  0  0  0  0
   22.4276  -20.5333  -11.9648 C   0  0  0  0  0  0  0  0  0  0  0  0
   22.7812  -20.8710  -10.8091 O   0  0  0  0  0  0  0  0  0  0  0  0
   21.2656  -19.7570  -12.0656 O   0  0  0  0  0  0  0  0  0  0  0  0
  2  1  1  6
  2  3  1  0
  2  4  1  0
  4  6  1  0
  4  5  1  6
  6  7  2  0
  8  9  1  0
  8  6  1  0
 10 11  1  0
  9 10  1  1
 11 12  2  0
 13 12  1  0
 14 13  1  0
 15 14  2  0
 16 15  1  0
 17 18  1  0
 17 16  2  0
 18 19  2  0
 19 14  1  0
 19 11  1  0
 20  9  1  0
 20 21  2  0
 22 20  1  0
 23 22  1  0
 23 26  1  0
 23 24  1  1
 25 24  1  0
 26 28  1  0
 27 26  2  0
M  END
$$$$
