TWC.pdb
     RDKit          3D

 28 29  0  0  1  0  0  0  0  0999 V2000
   32.2742  -25.9532  -18.7977 C   0  0  0  0  0  0  0  0  0  0  0  0
   31.0259  -25.0884  -18.6122 C   0  0  1  0  0  0  0  0  0  0  0  0
   30.1482  -25.3691  -19.6294 O   0  0  0  0  0  0  0  0  0  0  0  0
   30.4546  -25.2352  -17.2232 C   0  0  2  0  0  0  0  0  0  0  0  0
   29.9973  -26.6115  -17.0010 N   0  0  0  0  0  0  0  0  0  0  0  0
   29.3990  -24.2809  -16.8956 C   0  0  0  0  0  0  0  0  0  0  0  0
   28.1878  -24.6965  -16.9603 O   0  0  0  0  0  0  0  0  0  0  0  0
   29.6825  -22.9450  -16.5185 N   0  0  0  0  0  0  0  0  0  0  0  0
   28.5821  -22.0476  -16.2342 C   0  0  1  0  0  0  0  0  0  0  0  0
   28.9840  -20.9356  -15.2883 C   0  0  0  0  0  0  0  0  0  0  0  0
   27.9090  -20.0164  -14.9458 C   0  0  0  0  0  0  0  0  0  0  0  0
   26.7497  -20.3246  -14.2793 C   0  0  0  0  0  0  0  0  0  0  0  0
   25.9904  -19.2430  -14.1359 N   0  0  0  0  0  0  0  0  0  0  0  0
   26.6155  -18.1998  -14.6957 C   0  0  0  0  0  0  0  0  0  0  0  0
   26.2251  -16.8843  -14.7955 C   0  0  0  0  0  0  0  0  0  0  0  0
   27.0479  -15.9843  -15.4242 C   0  0  0  0  0  0  0  0  0  0  0  0
   28.2469  -16.4198  -15.9412 C   0  0  0  0  0  0  0  0  0  0  0  0
   28.6298  -17.7446  -15.8354 C   0  0  0  0  0  0  0  0  0  0  0  0
   27.8181  -18.6666  -15.2074 C   0  0  0  0  0  0  0  0  0  0  0  0
   28.1730  -21.4041  -17.5021 C   0  0  0  0  0  0  0  0  0  0  0  0
   29.0507  -21.0597  -18.3246 O   0  0  0  0  0  0  0  0  0  0  0  0
   26.8145  -21.1562  -17.8335 N   0  0  0  0  0  0  0  0  0  0  0  0
   26.4663  -20.5056  -19.0733 C   0  0  1  0  0  0  0  0  0  0  0  0
   25.7480  -21.4473  -20.0184 C   0  0  0  0  0  0  0  0  0  0  0  0
   26.8544  -22.7990  -20.5272 S   0  0  0  0  0  0  0  0  0  0  0  0
   25.6605  -19.2754  -18.8339 C   0  0  0  0  0  0  0  0  0  0  0  0
   24.7014  -19.2697  -18.0247 O   0  0  0  0  0  0  0  0  0  0  0  0
   25.9319  -18.0710  -19.4964 O   0  0  0  0  0  0  0  0  0  0  0  0
  2  1  1  1
  2  3  1  0
  2  4  1  0
  4  6  1  0
  4  5  1  6
  6  7  2  0
  8  9  1  0
  8  6  1  0
 10 11  1  0
  9 10  1  1
 11 12  2  0
 13 12  1  0
 14 13  1  0
 15 14  2  0
 16 15  1  0
 17 18  1  0
 17 16  2  0
 18 19  2  0
 19 14  1  0
 19 11  1  0
 20  9  1  0
 20 21  2  0
 22 20  1  0
 23 22  1  0
 23 26  1  0
 23 24  1  6
 25 24  1  0
 26 28  1  0
 27 26  2  0
M  END
$$$$
