TWC.pdb
     RDKit          3D

 28 29  0  0  1  0  0  0  0  0999 V2000
   24.4839  -17.7904  -17.5919 C   0  0  0  0  0  0  0  0  0  0  0  0
   25.2858  -18.5354  -18.6607 C   0  0  1  0  0  0  0  0  0  0  0  0
   25.3014  -17.7730  -19.8019 O   0  0  0  0  0  0  0  0  0  0  0  0
   26.6469  -18.9379  -18.1485 C   0  0  2  0  0  0  0  0  0  0  0  0
   27.3954  -19.6502  -19.1901 N   0  0  0  0  0  0  0  0  0  0  0  0
   26.6268  -19.7086  -16.9083 C   0  0  0  0  0  0  0  0  0  0  0  0
   26.1181  -20.8847  -16.9534 O   0  0  0  0  0  0  0  0  0  0  0  0
   27.1445  -19.1943  -15.6939 N   0  0  0  0  0  0  0  0  0  0  0  0
   26.9618  -19.9550  -14.4753 C   0  0  1  0  0  0  0  0  0  0  0  0
   27.8811  -19.4853  -13.3677 C   0  0  0  0  0  0  0  0  0  0  0  0
   27.7948  -20.2633  -12.1408 C   0  0  0  0  0  0  0  0  0  0  0  0
   28.5051  -21.3981  -11.8395 C   0  0  0  0  0  0  0  0  0  0  0  0
   28.1770  -21.8492  -10.6329 N   0  0  0  0  0  0  0  0  0  0  0  0
   27.2519  -21.0376  -10.1057 C   0  0  0  0  0  0  0  0  0  0  0  0
   26.6139  -21.0966   -8.8882 C   0  0  0  0  0  0  0  0  0  0  0  0
   25.6887  -20.1361   -8.5664 C   0  0  0  0  0  0  0  0  0  0  0  0
   25.4203  -19.1341   -9.4711 C   0  0  0  0  0  0  0  0  0  0  0  0
   26.0675  -19.0840  -10.6924 C   0  0  0  0  0  0  0  0  0  0  0  0
   27.0012  -20.0395  -11.0368 C   0  0  0  0  0  0  0  0  0  0  0  0
   25.5766  -19.7405  -14.0017 C   0  0  0  0  0  0  0  0  0  0  0  0
   25.0328  -18.6285  -14.1841 O   0  0  0  0  0  0  0  0  0  0  0  0
   24.8262  -20.7496  -13.3420 N   0  0  0  0  0  0  0  0  0  0  0  0
   23.4834  -20.4875  -12.8839 C   0  0  1  0  0  0  0  0  0  0  0  0
   22.5236  -20.2956  -14.0406 C   0  0  0  0  0  0  0  0  0  0  0  0
   22.4985  -21.7782  -15.0949 S   0  0  0  0  0  0  0  0  0  0  0  0
   23.0033  -21.5586  -11.9664 C   0  0  0  0  0  0  0  0  0  0  0  0
   23.6536  -22.6194  -11.8035 O   0  0  0  0  0  0  0  0  0  0  0  0
   21.8090  -21.4357  -11.2442 O   0  0  0  0  0  0  0  0  0  0  0  0
  2  1  1  1
  2  3  1  0
  2  4  1  0
  4  6  1  0
  4  5  1  6
  6  7  2  0
  8  9  1  0
  8  6  1  0
 10 11  1  0
  9 10  1  1
 11 12  2  0
 13 12  1  0
 14 13  1  0
 15 14  2  0
 16 15  1  0
 17 18  1  0
 17 16  2  0
 18 19  2  0
 19 14  1  0
 19 11  1  0
 20  9  1  0
 20 21  2  0
 22 20  1  0
 23 22  1  0
 23 26  1  0
 23 24  1  6
 25 24  1  0
 26 28  1  0
 27 26  2  0
M  END
$$$$
