TWC.pdb
     RDKit          3D

 28 29  0  0  1  0  0  0  0  0999 V2000
   24.2922  -19.3229  -15.5434 C   0  0  0  0  0  0  0  0  0  0  0  0
   24.2984  -20.0681  -14.2074 C   0  0  1  0  0  0  0  0  0  0  0  0
   23.5074  -21.1831  -14.3285 O   0  0  0  0  0  0  0  0  0  0  0  0
   25.7053  -20.3373  -13.7325 C   0  0  2  0  0  0  0  0  0  0  0  0
   26.3814  -21.2714  -14.6397 N   0  0  0  0  0  0  0  0  0  0  0  0
   25.8032  -20.7976  -12.3502 C   0  0  0  0  0  0  0  0  0  0  0  0
   25.7980  -22.0638  -12.1488 O   0  0  0  0  0  0  0  0  0  0  0  0
   25.9014  -19.8960  -11.2618 N   0  0  0  0  0  0  0  0  0  0  0  0
   26.0026  -20.4266   -9.9181 C   0  0  1  0  0  0  0  0  0  0  0  0
   26.6991  -19.4658   -8.9776 C   0  0  0  0  0  0  0  0  0  0  0  0
   27.3686  -20.1012   -7.8525 C   0  0  0  0  0  0  0  0  0  0  0  0
   27.7214  -21.4235   -7.7503 C   0  0  0  0  0  0  0  0  0  0  0  0
   28.3173  -21.6605   -6.5860 N   0  0  0  0  0  0  0  0  0  0  0  0
   28.3764  -20.5176   -5.8911 C   0  0  0  0  0  0  0  0  0  0  0  0
   28.8986  -20.2672   -4.6431 C   0  0  0  0  0  0  0  0  0  0  0  0
   28.8419  -18.9949   -4.1331 C   0  0  0  0  0  0  0  0  0  0  0  0
   28.2626  -17.9971   -4.8836 C   0  0  0  0  0  0  0  0  0  0  0  0
   27.7405  -18.2596   -6.1372 C   0  0  0  0  0  0  0  0  0  0  0  0
   27.7868  -19.5315   -6.6696 C   0  0  0  0  0  0  0  0  0  0  0  0
   24.6323  -20.6201   -9.3949 C   0  0  0  0  0  0  0  0  0  0  0  0
   23.7245  -19.8367   -9.7521 O   0  0  0  0  0  0  0  0  0  0  0  0
   24.2949  -21.6659   -8.4954 N   0  0  0  0  0  0  0  0  0  0  0  0
   22.9477  -21.8023   -7.9972 C   0  0  1  0  0  0  0  0  0  0  0  0
   22.9066  -22.5787   -6.6965 C   0  0  0  0  0  0  0  0  0  0  0  0
   21.1863  -22.8099   -6.1516 S   0  0  0  0  0  0  0  0  0  0  0  0
   22.2873  -20.4755   -7.8458 C   0  0  0  0  0  0  0  0  0  0  0  0
   21.2099  -20.2110   -8.4325 O   0  0  0  0  0  0  0  0  0  0  0  0
   22.8329  -19.4629   -7.0456 O   0  0  0  0  0  0  0  0  0  0  0  0
  2  1  1  6
  2  3  1  0
  2  4  1  0
  4  6  1  0
  4  5  1  6
  6  7  2  0
  8  9  1  0
  8  6  1  0
 10 11  1  0
  9 10  1  1
 11 12  2  0
 13 12  1  0
 14 13  1  0
 15 14  2  0
 16 15  1  0
 17 18  1  0
 17 16  2  0
 18 19  2  0
 19 14  1  0
 19 11  1  0
 20  9  1  0
 20 21  2  0
 22 20  1  0
 23 22  1  0
 23 26  1  0
 23 24  1  1
 25 24  1  0
 26 28  1  0
 27 26  2  0
M  END
$$$$
