TIL.pdb
     RDKit          3D

 24 23  0  0  1  0  0  0  0  0999 V2000
   18.0294   -9.9494  -19.6114 C   0  0  0  0  0  0  0  0  0  0  0  0
   18.9762  -11.0996  -19.6993 C   0  0  1  0  0  0  0  0  0  0  0  0
   18.8424  -11.7645  -20.9105 O   0  0  0  0  0  0  0  0  0  0  0  0
   20.4227  -10.6819  -19.5482 C   0  0  2  0  0  0  0  0  0  0  0  0
   21.3070  -11.7377  -20.0726 N   0  0  0  0  0  0  0  0  0  0  0  0
   20.8012  -10.3904  -18.1467 C   0  0  0  0  0  0  0  0  0  0  0  0
   19.9834   -9.7478  -17.4100 O   0  0  0  0  0  0  0  0  0  0  0  0
   23.6751  -13.7894  -14.8584 C   0  0  0  0  0  0  0  0  0  0  0  0
   22.7281  -12.7576  -15.3649 C   0  0  0  0  0  0  0  0  0  0  0  0
   23.2793  -11.3843  -15.5221 C   0  0  2  0  0  0  0  0  0  0  0  0
   23.6003  -10.8751  -14.1094 C   0  0  0  0  0  0  0  0  0  0  0  0
   22.3668  -10.4013  -16.1766 C   0  0  2  0  0  0  0  0  0  0  0  0
   22.0197  -10.7707  -17.5339 N   0  0  0  0  0  0  0  0  0  0  0  0
   22.8311   -8.9943  -16.0907 C   0  0  0  0  0  0  0  0  0  0  0  0
   23.8599   -8.5829  -16.6831 O   0  0  0  0  0  0  0  0  0  0  0  0
   21.9943   -4.1104  -18.0628 C   0  0  0  0  0  0  0  0  0  0  0  0
   22.6471   -4.6007  -16.7634 C   0  0  2  0  0  0  0  0  0  0  0  0
   24.1238   -4.3892  -16.8219 C   0  0  0  0  0  0  0  0  0  0  0  0
   22.2524   -6.0355  -16.6117 C   0  0  0  0  0  0  0  0  0  0  0  0
   22.6059   -6.6353  -15.2846 C   0  0  2  0  0  0  0  0  0  0  0  0
   22.1173   -8.0218  -15.3155 N   0  0  0  0  0  0  0  0  0  0  0  0
   22.0216   -5.9825  -14.1174 C   0  0  0  0  0  0  0  0  0  0  0  0
   20.9551   -6.4047  -13.6256 O   0  0  0  0  0  0  0  0  0  0  0  0
   22.6377   -4.8941  -13.5439 O   0  0  0  0  0  0  0  0  0  0  0  0
  2  1  1  6
  3  2  1  0
  4  6  1  0
  4  2  1  0
  4  5  1  1
  6  7  2  0
  8  9  1  0
  9 10  1  0
 10 11  1  1
 12 10  1  0
 12 13  1  6
 13  6  1  0
 14 15  2  0
 14 12  1  0
 17 16  1  6
 17 18  1  0
 17 19  1  0
 20 19  1  6
 20 22  1  0
 20 21  1  0
 21 14  1  0
 22 24  1  0
 23 22  2  0
M  END
$$$$
