TIL.pdb
     RDKit          3D

 24 23  0  0  1  0  0  0  0  0999 V2000
   20.2871  -32.4271   -6.3163 C   0  0  0  0  0  0  0  0  0  0  0  0
   19.9649  -33.0088   -7.6524 C   0  0  1  0  0  0  0  0  0  0  0  0
   18.8815  -32.3614   -8.2302 O   0  0  0  0  0  0  0  0  0  0  0  0
   21.1268  -32.9376   -8.6191 C   0  0  2  0  0  0  0  0  0  0  0  0
   20.7815  -33.6350   -9.8705 N   0  0  0  0  0  0  0  0  0  0  0  0
   22.3745  -33.5191   -8.0735 C   0  0  0  0  0  0  0  0  0  0  0  0
   22.5137  -34.7860   -8.0737 O   0  0  0  0  0  0  0  0  0  0  0  0
   27.1320  -32.6262   -9.8677 C   0  0  0  0  0  0  0  0  0  0  0  0
   25.9592  -33.1982   -9.1498 C   0  0  0  0  0  0  0  0  0  0  0  0
   25.8973  -32.9379   -7.6859 C   0  0  2  0  0  0  0  0  0  0  0  0
   27.0883  -33.6760   -7.0575 C   0  0  0  0  0  0  0  0  0  0  0  0
   24.6509  -33.4002   -7.0075 C   0  0  2  0  0  0  0  0  0  0  0  0
   23.4554  -32.7773   -7.5385 N   0  0  0  0  0  0  0  0  0  0  0  0
   24.7024  -33.3194   -5.5265 C   0  0  0  0  0  0  0  0  0  0  0  0
   24.7386  -32.2262   -4.9084 O   0  0  0  0  0  0  0  0  0  0  0  0
   22.0215  -33.8039   -2.6244 C   0  0  0  0  0  0  0  0  0  0  0  0
   22.3956  -35.2215   -3.0775 C   0  0  2  0  0  0  0  0  0  0  0  0
   21.4777  -36.2176   -2.4498 C   0  0  0  0  0  0  0  0  0  0  0  0
   23.8323  -35.4140   -2.7081 C   0  0  0  0  0  0  0  0  0  0  0  0
   24.7550  -34.3669   -3.2538 C   0  0  2  0  0  0  0  0  0  0  0  0
   24.7139  -34.5031   -4.7172 N   0  0  0  0  0  0  0  0  0  0  0  0
   26.1494  -34.4696   -2.8354 C   0  0  0  0  0  0  0  0  0  0  0  0
   26.9514  -35.1765   -3.4794 O   0  0  0  0  0  0  0  0  0  0  0  0
   26.5983  -33.7895   -1.7268 O   0  0  0  0  0  0  0  0  0  0  0  0
  2  1  1  1
  3  2  1  0
  4  6  1  0
  4  2  1  0
  4  5  1  6
  6  7  2  0
  8  9  1  0
  9 10  1  0
 10 11  1  1
 12 10  1  0
 12 13  1  6
 13  6  1  0
 14 15  2  0
 14 12  1  0
 17 16  1  1
 17 18  1  0
 17 19  1  0
 20 19  1  1
 20 22  1  0
 20 21  1  0
 21 14  1  0
 22 24  1  0
 23 22  2  0
M  END
$$$$
