TIL.pdb
     RDKit          3D

 24 23  0  0  1  0  0  0  0  0999 V2000
   16.0417  -11.8807  -16.6548 C   0  0  0  0  0  0  0  0  0  0  0  0
   16.4828  -12.9804  -17.5622 C   0  0  1  0  0  0  0  0  0  0  0  0
   15.4386  -13.8547  -17.8307 O   0  0  0  0  0  0  0  0  0  0  0  0
   17.0228  -12.4721  -18.8811 C   0  0  2  0  0  0  0  0  0  0  0  0
   17.4679  -13.6055  -19.7112 N   0  0  0  0  0  0  0  0  0  0  0  0
   18.1475  -11.5220  -18.7224 C   0  0  0  0  0  0  0  0  0  0  0  0
   19.3277  -11.9837  -18.5867 O   0  0  0  0  0  0  0  0  0  0  0  0
   20.3707   -6.0792  -20.4481 C   0  0  0  0  0  0  0  0  0  0  0  0
   20.3287   -7.1791  -19.4450 C   0  0  0  0  0  0  0  0  0  0  0  0
   19.2122   -8.1526  -19.5876 C   0  0  2  0  0  0  0  0  0  0  0  0
   17.9098   -7.3439  -19.4982 C   0  0  0  0  0  0  0  0  0  0  0  0
   19.1662   -9.2273  -18.5530 C   0  0  2  0  0  0  0  0  0  0  0  0
   18.0287  -10.1112  -18.7079 N   0  0  0  0  0  0  0  0  0  0  0  0
   19.2928   -8.7319  -17.1598 C   0  0  0  0  0  0  0  0  0  0  0  0
   18.3002   -8.3906  -16.4692 O   0  0  0  0  0  0  0  0  0  0  0  0
   22.9703   -9.8911  -12.6265 C   0  0  0  0  0  0  0  0  0  0  0  0
   21.7971   -8.9754  -13.0008 C   0  0  2  0  0  0  0  0  0  0  0  0
   20.6595   -9.1911  -12.0585 C   0  0  0  0  0  0  0  0  0  0  0  0
   21.4624   -9.2845  -14.4255 C   0  0  0  0  0  0  0  0  0  0  0  0
   20.6351   -8.2365  -15.1060 C   0  0  2  0  0  0  0  0  0  0  0  0
   20.5735   -8.6169  -16.5250 N   0  0  0  0  0  0  0  0  0  0  0  0
   21.1514   -6.8735  -15.0318 C   0  0  0  0  0  0  0  0  0  0  0  0
   21.9241   -6.4422  -15.9119 O   0  0  0  0  0  0  0  0  0  0  0  0
   20.7940   -6.0464  -13.9920 O   0  0  0  0  0  0  0  0  0  0  0  0
  2  1  1  1
  3  2  1  0
  4  6  1  0
  4  2  1  0
  4  5  1  6
  6  7  2  0
  8  9  1  0
  9 10  1  0
 10 11  1  1
 12 10  1  0
 12 13  1  1
 13  6  1  0
 14 15  2  0
 14 12  1  0
 17 16  1  1
 17 18  1  0
 17 19  1  0
 20 19  1  1
 20 22  1  0
 20 21  1  0
 21 14  1  0
 22 24  1  0
 23 22  2  0
M  END
$$$$
