TIL.pdb
     RDKit          3D

 24 23  0  0  1  0  0  0  0  0999 V2000
   29.0628  -18.2996  -16.1801 C   0  0  0  0  0  0  0  0  0  0  0  0
   27.8327  -18.8979  -15.5833 C   0  0  1  0  0  0  0  0  0  0  0  0
   26.8594  -19.1062  -16.5510 O   0  0  0  0  0  0  0  0  0  0  0  0
   28.0982  -20.2166  -14.8904 C   0  0  2  0  0  0  0  0  0  0  0  0
   28.4899  -21.2342  -15.8817 N   0  0  0  0  0  0  0  0  0  0  0  0
   26.9341  -20.7160  -14.1234 C   0  0  0  0  0  0  0  0  0  0  0  0
   26.2636  -21.6939  -14.5910 O   0  0  0  0  0  0  0  0  0  0  0  0
   26.7806  -20.7533   -8.6391 C   0  0  0  0  0  0  0  0  0  0  0  0
   26.5114  -21.1760  -10.0416 C   0  0  0  0  0  0  0  0  0  0  0  0
   25.3745  -20.4989  -10.7224 C   0  0  2  0  0  0  0  0  0  0  0  0
   24.0895  -21.0723  -10.1076 C   0  0  0  0  0  0  0  0  0  0  0  0
   25.3105  -20.6904  -12.2011 C   0  0  2  0  0  0  0  0  0  0  0  0
   26.4867  -20.1936  -12.8858 N   0  0  0  0  0  0  0  0  0  0  0  0
   24.0592  -20.1896  -12.8225 C   0  0  0  0  0  0  0  0  0  0  0  0
   23.7891  -18.9658  -12.9108 O   0  0  0  0  0  0  0  0  0  0  0  0
   21.3546  -20.9848  -17.8162 C   0  0  0  0  0  0  0  0  0  0  0  0
   21.0825  -20.3485  -16.4465 C   0  0  2  0  0  0  0  0  0  0  0  0
   21.0324  -18.8619  -16.5746 C   0  0  0  0  0  0  0  0  0  0  0  0
   22.1645  -20.8356  -15.5358 C   0  0  0  0  0  0  0  0  0  0  0  0
   21.9272  -20.5442  -14.0851 C   0  0  2  0  0  0  0  0  0  0  0  0
   23.0830  -21.0922  -13.3600 N   0  0  0  0  0  0  0  0  0  0  0  0
   20.7210  -21.1303  -13.5093 C   0  0  0  0  0  0  0  0  0  0  0  0
   19.6325  -20.5229  -13.5710 O   0  0  0  0  0  0  0  0  0  0  0  0
   20.7672  -22.3588  -12.8914 O   0  0  0  0  0  0  0  0  0  0  0  0
  2  1  1  6
  3  2  1  0
  4  6  1  0
  4  2  1  0
  4  5  1  6
  6  7  2  0
  8  9  1  0
  9 10  1  0
 10 11  1  1
 12 10  1  0
 12 13  1  6
 13  6  1  0
 14 15  2  0
 14 12  1  0
 17 16  1  6
 17 18  1  0
 17 19  1  0
 20 19  1  6
 20 22  1  0
 20 21  1  0
 21 14  1  0
 22 24  1  0
 23 22  2  0
M  END
$$$$
