TIL.pdb
     RDKit          3D

 24 23  0  0  1  0  0  0  0  0999 V2000
   26.1139   -9.1176  -22.3586 C   0  0  0  0  0  0  0  0  0  0  0  0
   26.2527  -10.5801  -22.6212 C   0  0  1  0  0  0  0  0  0  0  0  0
   27.0816  -10.8151  -23.7095 O   0  0  0  0  0  0  0  0  0  0  0  0
   26.8057  -11.3395  -21.4349 C   0  0  2  0  0  0  0  0  0  0  0  0
   26.8249  -12.7835  -21.7285 N   0  0  0  0  0  0  0  0  0  0  0  0
   26.0381  -11.1125  -20.1892 C   0  0  0  0  0  0  0  0  0  0  0  0
   24.9852  -11.8002  -19.9820 O   0  0  0  0  0  0  0  0  0  0  0  0
   26.1213  -10.4115  -14.2149 C   0  0  0  0  0  0  0  0  0  0  0  0
   25.4755  -10.0080  -15.4948 C   0  0  0  0  0  0  0  0  0  0  0  0
   26.2417  -10.3030  -16.7359 C   0  0  2  0  0  0  0  0  0  0  0  0
   27.5426   -9.4914  -16.6528 C   0  0  0  0  0  0  0  0  0  0  0  0
   25.5516   -9.9497  -18.0112 C   0  0  2  0  0  0  0  0  0  0  0  0
   26.3760  -10.1779  -19.1807 N   0  0  0  0  0  0  0  0  0  0  0  0
   24.9500   -8.5930  -18.0180 C   0  0  0  0  0  0  0  0  0  0  0  0
   25.6307   -7.5507  -18.1877 O   0  0  0  0  0  0  0  0  0  0  0  0
   20.2359   -6.0229  -20.3418 C   0  0  0  0  0  0  0  0  0  0  0  0
   21.2678   -5.7703  -19.2344 C   0  0  2  0  0  0  0  0  0  0  0  0
   22.1744   -4.6508  -19.6264 C   0  0  0  0  0  0  0  0  0  0  0  0
   21.9775   -7.0692  -19.0189 C   0  0  0  0  0  0  0  0  0  0  0  0
   22.9865   -7.0443  -17.9111 C   0  0  2  0  0  0  0  0  0  0  0  0
   23.5413   -8.4034  -17.8280 N   0  0  0  0  0  0  0  0  0  0  0  0
   22.4718   -6.6913  -16.5919 C   0  0  0  0  0  0  0  0  0  0  0  0
   22.1969   -5.5051  -16.3180 O   0  0  0  0  0  0  0  0  0  0  0  0
   22.2828   -7.6601  -15.6334 O   0  0  0  0  0  0  0  0  0  0  0  0
  2  1  1  1
  3  2  1  0
  4  6  1  0
  4  2  1  0
  4  5  1  6
  6  7  2  0
  8  9  1  0
  9 10  1  0
 10 11  1  1
 12 10  1  0
 12 13  1  6
 13  6  1  0
 14 15  2  0
 14 12  1  0
 17 16  1  6
 17 18  1  0
 17 19  1  0
 20 19  1  6
 20 22  1  0
 20 21  1  0
 21 14  1  0
 22 24  1  0
 23 22  2  0
M  END
$$$$
