TIL.pdb
     RDKit          3D

 24 23  0  0  1  0  0  0  0  0999 V2000
   21.8166  -19.4565  -10.7345 C   0  0  0  0  0  0  0  0  0  0  0  0
   21.5484  -20.5376  -11.7278 C   0  0  1  0  0  0  0  0  0  0  0  0
   20.4548  -20.2242  -12.5232 O   0  0  0  0  0  0  0  0  0  0  0  0
   22.7290  -20.8074  -12.6348 C   0  0  2  0  0  0  0  0  0  0  0  0
   22.3808  -21.8522  -13.6140 N   0  0  0  0  0  0  0  0  0  0  0  0
   23.9449  -21.2240  -11.8995 C   0  0  0  0  0  0  0  0  0  0  0  0
   24.0165  -22.4165  -11.4555 O   0  0  0  0  0  0  0  0  0  0  0  0
   28.7444  -21.5928  -13.7125 C   0  0  0  0  0  0  0  0  0  0  0  0
   27.4930  -21.6342  -12.9060 C   0  0  0  0  0  0  0  0  0  0  0  0
   27.4822  -20.8032  -11.6716 C   0  0  2  0  0  0  0  0  0  0  0  0
   28.6209  -21.3228  -10.7819 C   0  0  0  0  0  0  0  0  0  0  0  0
   26.2160  -20.8480  -10.8830 C   0  0  2  0  0  0  0  0  0  0  0  0
   25.0646  -20.3976  -11.6384 N   0  0  0  0  0  0  0  0  0  0  0  0
   26.3026  -20.1795   -9.5607 C   0  0  0  0  0  0  0  0  0  0  0  0
   26.0112  -18.9690   -9.3930 O   0  0  0  0  0  0  0  0  0  0  0  0
   28.8064  -19.8059   -4.9308 C   0  0  0  0  0  0  0  0  0  0  0  0
   27.5230  -20.6248   -4.7377 C   0  0  2  0  0  0  0  0  0  0  0  0
   27.7329  -21.6637   -3.6863 C   0  0  0  0  0  0  0  0  0  0  0  0
   27.1810  -21.1904   -6.0796 C   0  0  0  0  0  0  0  0  0  0  0  0
   26.9072  -20.1592   -7.1319 C   0  0  2  0  0  0  0  0  0  0  0  0
   26.7298  -20.8940   -8.3930 N   0  0  0  0  0  0  0  0  0  0  0  0
   27.9583  -19.1679   -7.3375 C   0  0  0  0  0  0  0  0  0  0  0  0
   28.9703  -19.4510   -8.0108 O   0  0  0  0  0  0  0  0  0  0  0  0
   27.8482  -17.9092   -6.7927 O   0  0  0  0  0  0  0  0  0  0  0  0
  2  1  1  1
  3  2  1  0
  4  6  1  0
  4  2  1  0
  4  5  1  6
  6  7  2  0
  8  9  1  0
  9 10  1  0
 10 11  1  1
 12 10  1  0
 12 13  1  6
 13  6  1  0
 14 15  2  0
 14 12  1  0
 17 16  1  6
 17 18  1  0
 17 19  1  0
 20 19  1  1
 20 22  1  0
 20 21  1  0
 21 14  1  0
 22 24  1  0
 23 22  2  0
M  END
$$$$
