TIL.pdb
     RDKit          3D

 24 23  0  0  1  0  0  0  0  0999 V2000
   20.8508  -18.8013  -12.9752 C   0  0  0  0  0  0  0  0  0  0  0  0
   21.9117  -19.3128  -12.0586 C   0  0  1  0  0  0  0  0  0  0  0  0
   21.4145  -19.5019  -10.7765 O   0  0  0  0  0  0  0  0  0  0  0  0
   22.5131  -20.6194  -12.5283 C   0  0  2  0  0  0  0  0  0  0  0  0
   21.4957  -21.6846  -12.4838 N   0  0  0  0  0  0  0  0  0  0  0  0
   23.6858  -21.0413  -11.7286 C   0  0  0  0  0  0  0  0  0  0  0  0
   23.5425  -21.9747  -10.8726 O   0  0  0  0  0  0  0  0  0  0  0  0
   28.7250  -21.7500  -13.7831 C   0  0  0  0  0  0  0  0  0  0  0  0
   27.4437  -21.7696  -13.0242 C   0  0  0  0  0  0  0  0  0  0  0  0
   27.3970  -20.9292  -11.7970 C   0  0  2  0  0  0  0  0  0  0  0  0
   28.5066  -21.4445  -10.8689 C   0  0  0  0  0  0  0  0  0  0  0  0
   26.1070  -20.9654  -11.0473 C   0  0  2  0  0  0  0  0  0  0  0  0
   24.9855  -20.4889  -11.8311 N   0  0  0  0  0  0  0  0  0  0  0  0
   26.1633  -20.3147   -9.7146 C   0  0  0  0  0  0  0  0  0  0  0  0
   25.8058  -19.1252   -9.5257 O   0  0  0  0  0  0  0  0  0  0  0  0
   28.9973  -21.5330   -4.5104 C   0  0  0  0  0  0  0  0  0  0  0  0
   27.8409  -20.6671   -5.0281 C   0  0  2  0  0  0  0  0  0  0  0  0
   26.7485  -20.6128   -4.0120 C   0  0  0  0  0  0  0  0  0  0  0  0
   27.4184  -21.2679   -6.3311 C   0  0  0  0  0  0  0  0  0  0  0  0
   26.8455  -20.2849   -7.3065 C   0  0  2  0  0  0  0  0  0  0  0  0
   26.6357  -21.0231   -8.5607 N   0  0  0  0  0  0  0  0  0  0  0  0
   27.6818  -19.1268   -7.6054 C   0  0  0  0  0  0  0  0  0  0  0  0
   28.6645  -19.2372   -8.3668 O   0  0  0  0  0  0  0  0  0  0  0  0
   27.3988  -17.8991   -7.0525 O   0  0  0  0  0  0  0  0  0  0  0  0
  2  1  1  6
  3  2  1  0
  4  6  1  0
  4  2  1  0
  4  5  1  1
  6  7  2  0
  8  9  1  0
  9 10  1  0
 10 11  1  1
 12 10  1  0
 12 13  1  6
 13  6  1  0
 14 15  2  0
 14 12  1  0
 17 16  1  1
 17 18  1  0
 17 19  1  0
 20 19  1  1
 20 22  1  0
 20 21  1  0
 21 14  1  0
 22 24  1  0
 23 22  2  0
M  END
$$$$
