WNW.pdb
     RDKit          3D

 37 40  0  0  1  0  0  0  0  0999 V2000
    9.2872  -17.4613   20.2191 N   0  0  0  0  0  0  0  0  0  0  0  0
    9.3370  -16.8380   21.5444 C   0  0  1  0  0  0  0  0  0  0  0  0
    7.9665  -16.3537   21.8345 C   0  0  0  0  0  0  0  0  0  0  0  0
    7.3838  -15.3932   20.9095 C   0  0  0  0  0  0  0  0  0  0  0  0
    6.3467  -15.6112   20.0334 C   0  0  0  0  0  0  0  0  0  0  0  0
    6.1221  -14.4633   19.3456 N   0  0  0  0  0  0  0  0  0  0  0  0
    7.0120  -13.5362   19.7891 C   0  0  0  0  0  0  0  0  0  0  0  0
    7.1742  -12.2186   19.4005 C   0  0  0  0  0  0  0  0  0  0  0  0
    8.1706  -11.4973   20.0374 C   0  0  0  0  0  0  0  0  0  0  0  0
    8.9700  -12.0380   21.0076 C   0  0  0  0  0  0  0  0  0  0  0  0
    8.8127  -13.3393   21.3945 C   0  0  0  0  0  0  0  0  0  0  0  0
    7.8152  -14.0899   20.7682 C   0  0  0  0  0  0  0  0  0  0  0  0
    9.8968  -17.8283   22.4898 C   0  0  0  0  0  0  0  0  0  0  0  0
    9.9483  -19.0186   22.1033 O   0  0  0  0  0  0  0  0  0  0  0  0
   14.8707  -16.5818   22.4656 N   0  0  0  0  0  0  0  0  0  0  0  0
   13.7724  -16.0358   23.1384 C   0  0  0  0  0  0  0  0  0  0  0  0
   14.0928  -15.0437   23.9290 O   0  0  0  0  0  0  0  0  0  0  0  0
   12.3670  -16.3584   23.1221 C   0  0  0  0  0  0  0  0  0  0  0  0
   11.7826  -17.2780   24.1473 C   0  0  2  0  0  0  0  0  0  0  0  0
   10.3600  -17.4881   23.7682 N   0  0  0  0  0  0  0  0  0  0  0  0
   11.8305  -16.7976   25.5265 C   0  0  0  0  0  0  0  0  0  0  0  0
   12.9959  -16.5419   26.0200 O   0  0  0  0  0  0  0  0  0  0  0  0
   10.7567  -16.5591   26.4052 N   0  0  0  0  0  0  0  0  0  0  0  0
   10.9594  -16.2877   27.8275 C   0  0  1  0  0  0  0  0  0  0  0  0
   10.1816  -15.0460   28.2231 C   0  0  0  0  0  0  0  0  0  0  0  0
    8.8920  -14.8865   27.5688 C   0  0  0  0  0  0  0  0  0  0  0  0
    8.0560  -15.9739   27.2743 C   0  0  0  0  0  0  0  0  0  0  0  0
    6.9271  -15.5222   26.7089 N   0  0  0  0  0  0  0  0  0  0  0  0
    6.9630  -14.1711   26.6066 C   0  0  0  0  0  0  0  0  0  0  0  0
    6.0479  -13.2789   26.0917 C   0  0  0  0  0  0  0  0  0  0  0  0
    6.3619  -11.9442   26.1089 C   0  0  0  0  0  0  0  0  0  0  0  0
    7.5761  -11.5398   26.6373 C   0  0  0  0  0  0  0  0  0  0  0  0
    8.4724  -12.4557   27.1459 C   0  0  0  0  0  0  0  0  0  0  0  0
    8.1881  -13.7949   27.1439 C   0  0  0  0  0  0  0  0  0  0  0  0
   10.7723  -17.4571   28.6542 C   0  0  0  0  0  0  0  0  0  0  0  0
   11.1868  -17.4995   29.9950 O   0  0  0  0  0  0  0  0  0  0  0  0
   10.2285  -18.5367   28.2554 O   0  0  0  0  0  0  0  0  0  0  0  0
  2  3  1  0
  2  1  1  6
  3  4  1  0
  4  5  2  0
  5  6  1  0
  7  6  1  0
  8  7  2  0
  9  8  1  0
 10 11  1  0
 10  9  2  0
 11 12  2  0
 12  4  1  0
 12  7  1  0
 13 14  2  0
 13  2  1  0
 16 15  1  0
 16 18  1  0
 17 16  2  0
 19 18  1  6
 19 20  1  0
 20 13  1  0
 21 19  1  0
 21 22  2  0
 23 21  1  0
 24 23  1  0
 24 25  1  1
 25 26  1  0
 26 34  1  0
 26 27  2  0
 27 28  1  0
 29 28  1  0
 29 30  2  0
 31 30  1  0
 32 31  2  0
 33 34  2  0
 33 32  1  0
 34 29  1  0
 35 24  1  0
 36 35  1  0
 37 35  2  0
M  END
$$$$
