WNW.pdb
     RDKit          3D

 37 40  0  0  1  0  0  0  0  0999 V2000
    9.5611  -17.5595   20.2857 N   0  0  0  0  0  0  0  0  0  0  0  0
    9.2521  -16.9563   21.5849 C   0  0  1  0  0  0  0  0  0  0  0  0
    7.8437  -16.5001   21.5138 C   0  0  0  0  0  0  0  0  0  0  0  0
    7.5228  -15.4591   20.5489 C   0  0  0  0  0  0  0  0  0  0  0  0
    6.9269  -15.6234   19.3207 C   0  0  0  0  0  0  0  0  0  0  0  0
    6.8208  -14.4052   18.7326 N   0  0  0  0  0  0  0  0  0  0  0  0
    7.3465  -13.4878   19.5872 C   0  0  0  0  0  0  0  0  0  0  0  0
    7.4610  -12.1169   19.4420 C   0  0  0  0  0  0  0  0  0  0  0  0
    8.0403  -11.4234   20.4919 C   0  0  0  0  0  0  0  0  0  0  0  0
    8.4861  -12.0403   21.6291 C   0  0  0  0  0  0  0  0  0  0  0  0
    8.3745  -13.3944   21.7765 C   0  0  0  0  0  0  0  0  0  0  0  0
    7.7942  -14.1185   20.7326 C   0  0  0  0  0  0  0  0  0  0  0  0
    9.5673  -17.9516   22.6327 C   0  0  0  0  0  0  0  0  0  0  0  0
    9.3447  -19.1540   22.3613 O   0  0  0  0  0  0  0  0  0  0  0  0
   14.1987  -19.7780   25.2071 N   0  0  0  0  0  0  0  0  0  0  0  0
   12.9214  -19.9606   24.6666 C   0  0  0  0  0  0  0  0  0  0  0  0
   12.4989  -21.1963   24.7475 O   0  0  0  0  0  0  0  0  0  0  0  0
   11.9923  -19.0497   24.0449 C   0  0  0  0  0  0  0  0  0  0  0  0
   10.8179  -18.5199   24.8052 C   0  0  2  0  0  0  0  0  0  0  0  0
   10.0936  -17.6038   23.8843 N   0  0  0  0  0  0  0  0  0  0  0  0
   11.1362  -17.7911   26.0311 C   0  0  0  0  0  0  0  0  0  0  0  0
   11.8128  -18.4223   26.9316 O   0  0  0  0  0  0  0  0  0  0  0  0
   10.8096  -16.4634   26.3667 N   0  0  0  0  0  0  0  0  0  0  0  0
   10.4525  -16.0695   27.7287 C   0  0  1  0  0  0  0  0  0  0  0  0
    8.9935  -16.3988   27.9861 C   0  0  0  0  0  0  0  0  0  0  0  0
    8.0416  -15.7198   27.1204 C   0  0  0  0  0  0  0  0  0  0  0  0
    7.0188  -16.4007   26.4435 C   0  0  0  0  0  0  0  0  0  0  0  0
    6.2808  -15.5174   25.7555 N   0  0  0  0  0  0  0  0  0  0  0  0
    6.7621  -14.2633   25.9372 C   0  0  0  0  0  0  0  0  0  0  0  0
    6.3430  -13.0522   25.4313 C   0  0  0  0  0  0  0  0  0  0  0  0
    7.0409  -11.9252   25.7826 C   0  0  0  0  0  0  0  0  0  0  0  0
    8.1334  -12.0392   26.6255 C   0  0  0  0  0  0  0  0  0  0  0  0
    8.5296  -13.2651   27.1168 C   0  0  0  0  0  0  0  0  0  0  0  0
    7.8533  -14.4084   26.7853 C   0  0  0  0  0  0  0  0  0  0  0  0
   11.4020  -16.5318   28.7139 C   0  0  0  0  0  0  0  0  0  0  0  0
   12.4116  -17.4569   28.4034 O   0  0  0  0  0  0  0  0  0  0  0  0
   11.4131  -16.1554   29.9298 O   0  0  0  0  0  0  0  0  0  0  0  0
  2  3  1  0
  2  1  1  6
  3  4  1  0
  4  5  2  0
  5  6  1  0
  7  6  1  0
  8  7  2  0
  9  8  1  0
 10 11  1  0
 10  9  2  0
 11 12  2  0
 12  4  1  0
 12  7  1  0
 13 14  2  0
 13  2  1  0
 16 15  1  0
 16 18  1  0
 17 16  2  0
 19 18  1  6
 19 20  1  0
 20 13  1  0
 21 19  1  0
 21 22  2  0
 23 21  1  0
 24 23  1  0
 24 25  1  1
 25 26  1  0
 26 34  1  0
 26 27  2  0
 27 28  1  0
 29 28  1  0
 29 30  2  0
 31 30  1  0
 32 31  2  0
 33 34  2  0
 33 32  1  0
 34 29  1  0
 35 24  1  0
 36 35  1  0
 37 35  2  0
M  END
$$$$
