WNW.pdb
     RDKit          3D

 37 40  0  0  1  0  0  0  0  0999 V2000
    8.5540  -18.1188   21.0174 N   0  0  0  0  0  0  0  0  0  0  0  0
    9.1827  -16.9535   21.6453 C   0  0  1  0  0  0  0  0  0  0  0  0
    8.0879  -16.1587   22.2509 C   0  0  0  0  0  0  0  0  0  0  0  0
    7.2769  -15.3438   21.3590 C   0  0  0  0  0  0  0  0  0  0  0  0
    5.9265  -15.4614   21.1281 C   0  0  0  0  0  0  0  0  0  0  0  0
    5.5662  -14.5199   20.2199 N   0  0  0  0  0  0  0  0  0  0  0  0
    6.6831  -13.8202   19.8865 C   0  0  0  0  0  0  0  0  0  0  0  0
    6.8261  -12.7609   19.0086 C   0  0  0  0  0  0  0  0  0  0  0  0
    8.0986  -12.2315   18.8698 C   0  0  0  0  0  0  0  0  0  0  0  0
    9.1794  -12.7145   19.5563 C   0  0  0  0  0  0  0  0  0  0  0  0
    9.0422  -13.7607   20.4248 C   0  0  0  0  0  0  0  0  0  0  0  0
    7.7696  -14.3138   20.5837 C   0  0  0  0  0  0  0  0  0  0  0  0
   10.2260  -17.4456   22.5711 C   0  0  0  0  0  0  0  0  0  0  0  0
   10.5014  -18.6665   22.5213 O   0  0  0  0  0  0  0  0  0  0  0  0
   13.2600  -17.7369   21.5891 N   0  0  0  0  0  0  0  0  0  0  0  0
   13.7607  -16.8633   22.5602 C   0  0  0  0  0  0  0  0  0  0  0  0
   14.9032  -16.3203   22.2257 O   0  0  0  0  0  0  0  0  0  0  0  0
   13.2567  -16.4526   23.8474 C   0  0  0  0  0  0  0  0  0  0  0  0
   11.9916  -17.0353   24.3934 C   0  0  2  0  0  0  0  0  0  0  0  0
   10.8991  -16.6140   23.4765 N   0  0  0  0  0  0  0  0  0  0  0  0
   11.6428  -16.6256   25.7519 C   0  0  0  0  0  0  0  0  0  0  0  0
   12.5461  -15.9965   26.4267 O   0  0  0  0  0  0  0  0  0  0  0  0
   10.4271  -16.8163   26.4359 N   0  0  0  0  0  0  0  0  0  0  0  0
   10.3579  -16.8970   27.8941 C   0  0  1  0  0  0  0  0  0  0  0  0
    8.9511  -16.5621   28.3547 C   0  0  0  0  0  0  0  0  0  0  0  0
    8.1368  -15.8404   27.3889 C   0  0  0  0  0  0  0  0  0  0  0  0
    7.2088  -16.4823   26.5553 C   0  0  0  0  0  0  0  0  0  0  0  0
    6.5845  -15.5656   25.8017 N   0  0  0  0  0  0  0  0  0  0  0  0
    7.0520  -14.3262   26.0892 C   0  0  0  0  0  0  0  0  0  0  0  0
    6.7225  -13.0930   25.5706 C   0  0  0  0  0  0  0  0  0  0  0  0
    7.3795  -11.9896   26.0517 C   0  0  0  0  0  0  0  0  0  0  0  0
    8.3433  -12.1484   27.0329 C   0  0  0  0  0  0  0  0  0  0  0  0
    8.6520  -13.3955   27.5334 C   0  0  0  0  0  0  0  0  0  0  0  0
    8.0135  -14.5162   27.0744 C   0  0  0  0  0  0  0  0  0  0  0  0
   10.9359  -18.1129   28.4169 C   0  0  0  0  0  0  0  0  0  0  0  0
   11.3839  -18.2181   29.7434 O   0  0  0  0  0  0  0  0  0  0  0  0
   11.0928  -19.1799   27.7407 O   0  0  0  0  0  0  0  0  0  0  0  0
  2  3  1  0
  2  1  1  1
  3  4  1  0
  4  5  2  0
  5  6  1  0
  7  6  1  0
  8  7  2  0
  9  8  1  0
 10 11  1  0
 10  9  2  0
 11 12  2  0
 12  4  1  0
 12  7  1  0
 13 14  2  0
 13  2  1  0
 16 15  1  0
 16 18  1  0
 17 16  2  0
 19 18  1  6
 19 20  1  0
 20 13  1  0
 21 19  1  0
 21 22  2  0
 23 21  1  0
 24 23  1  0
 24 25  1  6
 25 26  1  0
 26 34  1  0
 26 27  2  0
 27 28  1  0
 29 28  1  0
 29 30  2  0
 31 30  1  0
 32 31  2  0
 33 34  2  0
 33 32  1  0
 34 29  1  0
 35 24  1  0
 36 35  1  0
 37 35  2  0
M  END
$$$$
