WNW.pdb
     RDKit          3D

 37 40  0  0  1  0  0  0  0  0999 V2000
    8.7105  -18.5285   20.8130 N   0  0  0  0  0  0  0  0  0  0  0  0
    9.1266  -17.3284   21.5437 C   0  0  1  0  0  0  0  0  0  0  0  0
    7.9353  -16.8520   22.2857 C   0  0  0  0  0  0  0  0  0  0  0  0
    7.0713  -15.8879   21.6212 C   0  0  0  0  0  0  0  0  0  0  0  0
    5.7583  -16.0672   21.2542 C   0  0  0  0  0  0  0  0  0  0  0  0
    5.3262  -14.9316   20.6503 N   0  0  0  0  0  0  0  0  0  0  0  0
    6.3614  -14.0504   20.6404 C   0  0  0  0  0  0  0  0  0  0  0  0
    6.4120  -12.7607   20.1430 C   0  0  0  0  0  0  0  0  0  0  0  0
    7.6136  -12.0851   20.2787 C   0  0  0  0  0  0  0  0  0  0  0  0
    8.7130  -12.6435   20.8721 C   0  0  0  0  0  0  0  0  0  0  0  0
    8.6671  -13.9173   21.3651 C   0  0  0  0  0  0  0  0  0  0  0  0
    7.4673  -14.6216   21.2413 C   0  0  0  0  0  0  0  0  0  0  0  0
   10.3093  -17.6817   22.3586 C   0  0  0  0  0  0  0  0  0  0  0  0
   10.4107  -18.8744   22.7276 O   0  0  0  0  0  0  0  0  0  0  0  0
   15.8764  -16.8727   23.7495 N   0  0  0  0  0  0  0  0  0  0  0  0
   14.7873  -16.0081   23.9021 C   0  0  0  0  0  0  0  0  0  0  0  0
   15.0050  -15.0523   24.7687 O   0  0  0  0  0  0  0  0  0  0  0  0
   13.4834  -15.9732   23.2872 C   0  0  0  0  0  0  0  0  0  0  0  0
   12.4666  -17.0271   23.5931 C   0  0  2  0  0  0  0  0  0  0  0  0
   11.2939  -16.7523   22.7208 N   0  0  0  0  0  0  0  0  0  0  0  0
   12.0116  -17.0814   24.9807 C   0  0  0  0  0  0  0  0  0  0  0  0
   12.8741  -17.4489   25.8684 O   0  0  0  0  0  0  0  0  0  0  0  0
   10.7383  -16.7698   25.4943 N   0  0  0  0  0  0  0  0  0  0  0  0
   10.4403  -16.8254   26.9246 C   0  0  1  0  0  0  0  0  0  0  0  0
    8.9367  -16.8140   27.1305 C   0  0  0  0  0  0  0  0  0  0  0  0
    8.2161  -15.7912   26.3881 C   0  0  0  0  0  0  0  0  0  0  0  0
    7.2389  -16.1016   25.4307 C   0  0  0  0  0  0  0  0  0  0  0  0
    6.7242  -14.9646   24.9405 N   0  0  0  0  0  0  0  0  0  0  0  0
    7.3136  -13.8935   25.5260 C   0  0  0  0  0  0  0  0  0  0  0  0
    7.1216  -12.5420   25.3396 C   0  0  0  0  0  0  0  0  0  0  0  0
    7.8824  -11.6703   26.0758 C   0  0  0  0  0  0  0  0  0  0  0  0
    8.8099  -12.1711   26.9735 C   0  0  0  0  0  0  0  0  0  0  0  0
    8.9801  -13.5293   27.1391 C   0  0  0  0  0  0  0  0  0  0  0  0
    8.2356  -14.4250   26.4196 C   0  0  0  0  0  0  0  0  0  0  0  0
   11.1780  -17.8595   27.6118 C   0  0  0  0  0  0  0  0  0  0  0  0
   10.8755  -19.2220   27.4583 O   0  0  0  0  0  0  0  0  0  0  0  0
   12.1487  -17.6400   28.4055 O   0  0  0  0  0  0  0  0  0  0  0  0
  2  3  1  0
  2  1  1  1
  3  4  1  0
  4  5  2  0
  5  6  1  0
  7  6  1  0
  8  7  2  0
  9  8  1  0
 10 11  1  0
 10  9  2  0
 11 12  2  0
 12  4  1  0
 12  7  1  0
 13 14  2  0
 13  2  1  0
 16 15  1  0
 16 18  1  0
 17 16  2  0
 19 18  1  1
 19 20  1  0
 20 13  1  0
 21 19  1  0
 21 22  2  0
 23 21  1  0
 24 23  1  0
 24 25  1  6
 25 26  1  0
 26 34  1  0
 26 27  2  0
 27 28  1  0
 29 28  1  0
 29 30  2  0
 31 30  1  0
 32 31  2  0
 33 34  2  0
 33 32  1  0
 34 29  1  0
 35 24  1  0
 36 35  1  0
 37 35  2  0
M  END
$$$$
