WNW.pdb
     RDKit          3D

 37 40  0  0  1  0  0  0  0  0999 V2000
    9.2353  -17.8526   20.0810 N   0  0  0  0  0  0  0  0  0  0  0  0
    9.6050  -16.9848   21.2025 C   0  0  1  0  0  0  0  0  0  0  0  0
    8.3581  -16.7179   21.9581 C   0  0  0  0  0  0  0  0  0  0  0  0
    7.3413  -15.9034   21.3097 C   0  0  0  0  0  0  0  0  0  0  0  0
    6.0393  -16.2585   21.0465 C   0  0  0  0  0  0  0  0  0  0  0  0
    5.4331  -15.2192   20.4193 N   0  0  0  0  0  0  0  0  0  0  0  0
    6.3496  -14.2232   20.2920 C   0  0  0  0  0  0  0  0  0  0  0  0
    6.2094  -12.9675   19.7290 C   0  0  0  0  0  0  0  0  0  0  0  0
    7.3254  -12.1471   19.7451 C   0  0  0  0  0  0  0  0  0  0  0  0
    8.5210  -12.5355   20.2857 C   0  0  0  0  0  0  0  0  0  0  0  0
    8.6635  -13.7751   20.8433 C   0  0  0  0  0  0  0  0  0  0  0  0
    7.5537  -14.6231   20.8402 C   0  0  0  0  0  0  0  0  0  0  0  0
   10.6951  -17.6496   21.9492 C   0  0  0  0  0  0  0  0  0  0  0  0
   10.7414  -18.9002   21.8960 O   0  0  0  0  0  0  0  0  0  0  0  0
   15.2293  -14.9713   23.2944 N   0  0  0  0  0  0  0  0  0  0  0  0
   14.4051  -15.8482   22.5812 C   0  0  0  0  0  0  0  0  0  0  0  0
   13.8861  -15.3100   21.5074 O   0  0  0  0  0  0  0  0  0  0  0  0
   14.0259  -17.2213   22.8058 C   0  0  0  0  0  0  0  0  0  0  0  0
   12.7432  -17.5555   23.4994 C   0  0  2  0  0  0  0  0  0  0  0  0
   11.6524  -16.9460   22.6928 N   0  0  0  0  0  0  0  0  0  0  0  0
   12.6267  -17.0780   24.8755 C   0  0  0  0  0  0  0  0  0  0  0  0
   13.2136  -15.9646   25.1633 O   0  0  0  0  0  0  0  0  0  0  0  0
   11.9377  -17.6722   25.9499 N   0  0  0  0  0  0  0  0  0  0  0  0
   10.7470  -17.0653   26.5428 C   0  0  1  0  0  0  0  0  0  0  0  0
   10.3029  -15.8868   25.6960 C   0  0  0  0  0  0  0  0  0  0  0  0
    9.0203  -15.3065   26.0633 C   0  0  0  0  0  0  0  0  0  0  0  0
    8.0554  -16.0126   26.7970 C   0  0  0  0  0  0  0  0  0  0  0  0
    6.9983  -15.2173   27.0160 N   0  0  0  0  0  0  0  0  0  0  0  0
    7.2060  -13.9989   26.4595 C   0  0  0  0  0  0  0  0  0  0  0  0
    6.4086  -12.8761   26.4185 C   0  0  0  0  0  0  0  0  0  0  0  0
    6.8803  -11.7682   25.7622 C   0  0  0  0  0  0  0  0  0  0  0  0
    8.1298  -11.8130   25.1675 C   0  0  0  0  0  0  0  0  0  0  0  0
    8.9060  -12.9511   25.2250 C   0  0  0  0  0  0  0  0  0  0  0  0
    8.4637  -14.0730   25.8732 C   0  0  0  0  0  0  0  0  0  0  0  0
    9.7320  -18.0355   26.8815 C   0  0  0  0  0  0  0  0  0  0  0  0
    9.0856  -18.8129   25.9073 O   0  0  0  0  0  0  0  0  0  0  0  0
    9.3341  -18.2716   28.0673 O   0  0  0  0  0  0  0  0  0  0  0  0
  2  3  1  0
  2  1  1  6
  3  4  1  0
  4  5  2  0
  5  6  1  0
  7  6  1  0
  8  7  2  0
  9  8  1  0
 10 11  1  0
 10  9  2  0
 11 12  2  0
 12  4  1  0
 12  7  1  0
 13 14  2  0
 13  2  1  0
 16 15  1  0
 16 18  1  0
 17 16  2  0
 19 18  1  6
 19 20  1  0
 20 13  1  0
 21 19  1  0
 21 22  2  0
 23 21  1  0
 24 23  1  0
 24 25  1  6
 25 26  1  0
 26 34  1  0
 26 27  2  0
 27 28  1  0
 29 28  1  0
 29 30  2  0
 31 30  1  0
 32 31  2  0
 33 34  2  0
 33 32  1  0
 34 29  1  0
 35 24  1  0
 36 35  1  0
 37 35  2  0
M  END
$$$$
