WNW.pdb
     RDKit          3D

 37 40  0  0  1  0  0  0  0  0999 V2000
    6.9169  -17.9597   22.2209 N   0  0  0  0  0  0  0  0  0  0  0  0
    7.8474  -16.8798   22.5606 C   0  0  1  0  0  0  0  0  0  0  0  0
    7.9130  -16.8295   24.0405 C   0  0  0  0  0  0  0  0  0  0  0  0
    6.8348  -16.1447   24.7377 C   0  0  0  0  0  0  0  0  0  0  0  0
    5.7948  -16.7233   25.4264 C   0  0  0  0  0  0  0  0  0  0  0  0
    5.0044  -15.7341   25.9139 N   0  0  0  0  0  0  0  0  0  0  0  0
    5.5469  -14.5473   25.5324 C   0  0  0  0  0  0  0  0  0  0  0  0
    5.1117  -13.2598   25.7899 C   0  0  0  0  0  0  0  0  0  0  0  0
    5.8772  -12.2266   25.2748 C   0  0  0  0  0  0  0  0  0  0  0  0
    7.0135  -12.4417   24.5431 C   0  0  0  0  0  0  0  0  0  0  0  0
    7.4469  -13.7122   24.2868 C   0  0  0  0  0  0  0  0  0  0  0  0
    6.6935  -14.7731   24.7944 C   0  0  0  0  0  0  0  0  0  0  0  0
    9.1212  -17.1412   21.8558 C   0  0  0  0  0  0  0  0  0  0  0  0
    9.3027  -18.3011   21.4192 O   0  0  0  0  0  0  0  0  0  0  0  0
   14.1760  -15.7046   19.4202 N   0  0  0  0  0  0  0  0  0  0  0  0
   13.5110  -15.0895   20.4862 C   0  0  0  0  0  0  0  0  0  0  0  0
   14.2893  -14.3231   21.2064 O   0  0  0  0  0  0  0  0  0  0  0  0
   12.1411  -15.1410   20.9338 C   0  0  0  0  0  0  0  0  0  0  0  0
   11.5535  -16.4168   21.4488 C   0  0  2  0  0  0  0  0  0  0  0  0
   10.1044  -16.1608   21.6643 N   0  0  0  0  0  0  0  0  0  0  0  0
   12.1278  -16.9183   22.6954 C   0  0  0  0  0  0  0  0  0  0  0  0
   13.3686  -17.2743   22.6698 O   0  0  0  0  0  0  0  0  0  0  0  0
   11.5037  -17.0581   23.9495 N   0  0  0  0  0  0  0  0  0  0  0  0
   12.1619  -17.7135   25.0786 C   0  0  1  0  0  0  0  0  0  0  0  0
   11.1765  -17.8639   26.2230 C   0  0  0  0  0  0  0  0  0  0  0  0
   10.5454  -16.6299   26.6651 C   0  0  0  0  0  0  0  0  0  0  0  0
    9.2286  -16.2904   26.3202 C   0  0  0  0  0  0  0  0  0  0  0  0
    8.9085  -15.1227   26.8965 N   0  0  0  0  0  0  0  0  0  0  0  0
    9.9557  -14.6546   27.6187 C   0  0  0  0  0  0  0  0  0  0  0  0
   10.0971  -13.5053   28.3652 C   0  0  0  0  0  0  0  0  0  0  0  0
   11.2967  -13.2804   28.9903 C   0  0  0  0  0  0  0  0  0  0  0  0
   12.3172  -14.2059   28.8525 C   0  0  0  0  0  0  0  0  0  0  0  0
   12.1468  -15.3478   28.0988 C   0  0  0  0  0  0  0  0  0  0  0  0
   10.9610  -15.6013   27.4631 C   0  0  0  0  0  0  0  0  0  0  0  0
   12.8887  -18.9004   24.6926 C   0  0  0  0  0  0  0  0  0  0  0  0
   12.7854  -19.4560   23.4073 O   0  0  0  0  0  0  0  0  0  0  0  0
   13.6725  -19.5426   25.4631 O   0  0  0  0  0  0  0  0  0  0  0  0
  2  3  1  0
  2  1  1  1
  3  4  1  0
  4  5  2  0
  5  6  1  0
  7  6  1  0
  8  7  2  0
  9  8  1  0
 10 11  1  0
 10  9  2  0
 11 12  2  0
 12  4  1  0
 12  7  1  0
 13 14  2  0
 13  2  1  0
 16 15  1  0
 16 18  1  0
 17 16  2  0
 19 18  1  1
 19 20  1  0
 20 13  1  0
 21 19  1  0
 21 22  2  0
 23 21  1  0
 24 23  1  0
 24 25  1  1
 25 26  1  0
 26 34  1  0
 26 27  2  0
 27 28  1  0
 29 28  1  0
 29 30  2  0
 31 30  1  0
 32 31  2  0
 33 34  2  0
 33 32  1  0
 34 29  1  0
 35 24  1  0
 36 35  1  0
 37 35  2  0
M  END
$$$$
