WNW.pdb
     RDKit          3D

 37 40  0  0  1  0  0  0  0  0999 V2000
    7.1303  -17.7952   23.7599 N   0  0  0  0  0  0  0  0  0  0  0  0
    8.2164  -16.8232   23.6081 C   0  0  1  0  0  0  0  0  0  0  0  0
    8.5454  -16.3421   24.9709 C   0  0  0  0  0  0  0  0  0  0  0  0
    7.5937  -15.4503   25.6162 C   0  0  0  0  0  0  0  0  0  0  0  0
    6.6970  -15.7730   26.6075 C   0  0  0  0  0  0  0  0  0  0  0  0
    5.9881  -14.6589   26.9194 N   0  0  0  0  0  0  0  0  0  0  0  0
    6.4387  -13.6488   26.1289 C   0  0  0  0  0  0  0  0  0  0  0  0
    6.0354  -12.3267   26.0784 C   0  0  0  0  0  0  0  0  0  0  0  0
    6.6848  -11.5094   25.1679 C   0  0  0  0  0  0  0  0  0  0  0  0
    7.6808  -11.9629   24.3462 C   0  0  0  0  0  0  0  0  0  0  0  0
    8.0823  -13.2684   24.3932 C   0  0  0  0  0  0  0  0  0  0  0  0
    7.4439  -14.1148   25.3025 C   0  0  0  0  0  0  0  0  0  0  0  0
    9.3114  -17.4807   22.8622 C   0  0  0  0  0  0  0  0  0  0  0  0
    9.4775  -18.7067   23.0575 O   0  0  0  0  0  0  0  0  0  0  0  0
   10.2798  -17.7600   18.3318 N   0  0  0  0  0  0  0  0  0  0  0  0
   10.7693  -16.6614   19.0464 C   0  0  0  0  0  0  0  0  0  0  0  0
   10.2971  -15.5176   18.6214 O   0  0  0  0  0  0  0  0  0  0  0  0
   11.6868  -16.5560   20.1539 C   0  0  0  0  0  0  0  0  0  0  0  0
   11.4360  -17.3010   21.4268 C   0  0  2  0  0  0  0  0  0  0  0  0
   10.1458  -16.7965   21.9676 N   0  0  0  0  0  0  0  0  0  0  0  0
   12.4617  -17.1535   22.4571 C   0  0  0  0  0  0  0  0  0  0  0  0
   13.6090  -17.6992   22.2271 O   0  0  0  0  0  0  0  0  0  0  0  0
   12.3721  -16.4734   23.6865 N   0  0  0  0  0  0  0  0  0  0  0  0
   13.4767  -16.4460   24.6440 C   0  0  1  0  0  0  0  0  0  0  0  0
   13.2625  -15.3156   25.6337 C   0  0  0  0  0  0  0  0  0  0  0  0
   12.3178  -15.5977   26.7036 C   0  0  0  0  0  0  0  0  0  0  0  0
   12.3503  -16.7888   27.4440 C   0  0  0  0  0  0  0  0  0  0  0  0
   11.3899  -16.7536   28.3791 N   0  0  0  0  0  0  0  0  0  0  0  0
   10.7053  -15.5862   28.3031 C   0  0  0  0  0  0  0  0  0  0  0  0
    9.6425  -15.1119   29.0405 C   0  0  0  0  0  0  0  0  0  0  0  0
    9.1349  -13.8770   28.7279 C   0  0  0  0  0  0  0  0  0  0  0  0
    9.7005  -13.1537   27.6917 C   0  0  0  0  0  0  0  0  0  0  0  0
   10.7641  -13.6539   26.9709 C   0  0  0  0  0  0  0  0  0  0  0  0
   11.2938  -14.8830   27.2589 C   0  0  0  0  0  0  0  0  0  0  0  0
   13.7680  -17.7459   25.2021 C   0  0  0  0  0  0  0  0  0  0  0  0
   12.7720  -18.7155   25.3996 O   0  0  0  0  0  0  0  0  0  0  0  0
   14.9279  -18.1272   25.5620 O   0  0  0  0  0  0  0  0  0  0  0  0
  2  3  1  0
  2  1  1  1
  3  4  1  0
  4  5  2  0
  5  6  1  0
  7  6  1  0
  8  7  2  0
  9  8  1  0
 10 11  1  0
 10  9  2  0
 11 12  2  0
 12  4  1  0
 12  7  1  0
 13 14  2  0
 13  2  1  0
 16 15  1  0
 16 18  1  0
 17 16  2  0
 19 18  1  6
 19 20  1  0
 20 13  1  0
 21 19  1  0
 21 22  2  0
 23 21  1  0
 24 23  1  0
 24 25  1  1
 25 26  1  0
 26 34  1  0
 26 27  2  0
 27 28  1  0
 29 28  1  0
 29 30  2  0
 31 30  1  0
 32 31  2  0
 33 34  2  0
 33 32  1  0
 34 29  1  0
 35 24  1  0
 36 35  1  0
 37 35  2  0
M  END
$$$$
