EGP.pdb
     RDKit          3D

 21 21  0  0  1  0  0  0  0  0999 V2000
   10.1088  -17.5652   21.7899 N   0  0  0  0  0  0  0  0  0  0  0  0
    8.8541  -17.1217   21.1872 C   0  0  1  0  0  0  0  0  0  0  0  0
    8.1389  -18.2946   20.5593 C   0  0  0  0  0  0  0  0  0  0  0  0
    8.8532  -18.7398   19.3010 C   0  0  0  0  0  0  0  0  0  0  0  0
   10.0388  -19.5465   19.7005 C   0  0  0  0  0  0  0  0  0  0  0  0
   11.1482  -19.2859   19.1612 O   0  0  0  0  0  0  0  0  0  0  0  0
    8.0231  -16.4507   22.2191 C   0  0  0  0  0  0  0  0  0  0  0  0
    7.6721  -17.1515   23.2273 O   0  0  0  0  0  0  0  0  0  0  0  0
    9.9581  -20.5656   20.6349 O   0  0  0  0  0  0  0  0  0  0  0  0
    7.6239  -15.0922   22.1111 N   0  0  0  0  0  0  0  0  0  0  0  0
    6.8809  -14.5042   23.2063 C   0  0  0  0  0  0  0  0  0  0  0  0
    7.8433  -14.0226   24.2172 C   0  0  0  0  0  0  0  0  0  0  0  0
    9.0934  -14.1997   24.0575 O   0  0  0  0  0  0  0  0  0  0  0  0
    7.3930  -13.3649   25.3690 N   0  0  0  0  0  0  0  0  0  0  0  0
    6.0303  -13.0735   25.7187 C   0  0  0  0  0  0  0  0  0  0  0  0
    6.2061  -11.6083   26.1703 C   0  0  0  0  0  0  0  0  0  0  0  0
    7.3611  -11.7802   27.1265 C   0  0  0  0  0  0  0  0  0  0  0  0
    8.1978  -12.8470   26.4488 C   0  0  1  0  0  0  0  0  0  0  0  0
    8.4375  -13.9947   27.3920 C   0  0  0  0  0  0  0  0  0  0  0  0
    7.7679  -15.0550   27.3406 O   0  0  0  0  0  0  0  0  0  0  0  0
    9.4193  -13.9306   28.3689 O   0  0  0  0  0  0  0  0  0  0  0  0
  2  1  1  1
  3  2  1  0
  3  4  1  0
  4  5  1  0
  5  9  1  0
  5  6  2  0
  7  8  2  0
  7  2  1  0
 10  7  1  0
 11 12  1  0
 11 10  1  0
 12 14  1  0
 13 12  2  0
 14 15  1  0
 14 18  1  0
 15 16  1  0
 16 17  1  0
 18 19  1  1
 18 17  1  0
 19 21  1  0
 20 19  2  0
M  END
$$$$
