EGP.pdb
     RDKit          3D

 21 21  0  0  1  0  0  0  0  0999 V2000
   10.6849  -17.0714   21.7345 N   0  0  0  0  0  0  0  0  0  0  0  0
    9.4970  -16.5177   21.0891 C   0  0  1  0  0  0  0  0  0  0  0  0
    8.7860  -17.5942   20.3036 C   0  0  0  0  0  0  0  0  0  0  0  0
    7.6309  -17.0053   19.5220 C   0  0  0  0  0  0  0  0  0  0  0  0
    6.9982  -18.0983   18.7339 C   0  0  0  0  0  0  0  0  0  0  0  0
    7.1767  -18.1158   17.4860 O   0  0  0  0  0  0  0  0  0  0  0  0
    8.6176  -15.9071   22.1184 C   0  0  0  0  0  0  0  0  0  0  0  0
    8.2275  -16.6630   23.0708 O   0  0  0  0  0  0  0  0  0  0  0  0
    6.2251  -19.0836   19.3255 O   0  0  0  0  0  0  0  0  0  0  0  0
    8.2150  -14.5463   22.0667 N   0  0  0  0  0  0  0  0  0  0  0  0
    7.2835  -14.0659   23.0662 C   0  0  0  0  0  0  0  0  0  0  0  0
    8.0270  -13.8254   24.3190 C   0  0  0  0  0  0  0  0  0  0  0  0
    9.2734  -14.0718   24.3900 O   0  0  0  0  0  0  0  0  0  0  0  0
    7.3692  -13.3236   25.4493 N   0  0  0  0  0  0  0  0  0  0  0  0
    5.9761  -12.9897   25.5591 C   0  0  0  0  0  0  0  0  0  0  0  0
    6.1107  -11.6301   26.2767 C   0  0  0  0  0  0  0  0  0  0  0  0
    7.0286  -12.0344   27.4045 C   0  0  0  0  0  0  0  0  0  0  0  0
    7.9465  -13.0417   26.7413 C   0  0  1  0  0  0  0  0  0  0  0  0
    7.9341  -14.3371   27.5069 C   0  0  0  0  0  0  0  0  0  0  0  0
    7.2027  -15.3025   27.1782 O   0  0  0  0  0  0  0  0  0  0  0  0
    8.7395  -14.5229   28.6202 O   0  0  0  0  0  0  0  0  0  0  0  0
  2  1  1  1
  3  2  1  0
  3  4  1  0
  4  5  1  0
  5  9  1  0
  5  6  2  0
  7  8  2  0
  7  2  1  0
 10  7  1  0
 11 12  1  0
 11 10  1  0
 12 14  1  0
 13 12  2  0
 14 15  1  0
 14 18  1  0
 15 16  1  0
 16 17  1  0
 18 19  1  1
 18 17  1  0
 19 21  1  0
 20 19  2  0
M  END
$$$$
