EGP.pdb
     RDKit          3D

 21 21  0  0  1  0  0  0  0  0999 V2000
   10.0294  -17.2131   21.3615 N   0  0  0  0  0  0  0  0  0  0  0  0
    8.6508  -16.9001   20.9931 C   0  0  1  0  0  0  0  0  0  0  0  0
    7.9127  -18.1662   20.6278 C   0  0  0  0  0  0  0  0  0  0  0  0
    6.4893  -17.8516   20.2195 C   0  0  0  0  0  0  0  0  0  0  0  0
    5.8429  -19.1170   19.7757 C   0  0  0  0  0  0  0  0  0  0  0  0
    4.6377  -19.0753   19.4077 O   0  0  0  0  0  0  0  0  0  0  0  0
    7.9949  -16.1768   22.1124 C   0  0  0  0  0  0  0  0  0  0  0  0
    7.8766  -16.8041   23.2184 O   0  0  0  0  0  0  0  0  0  0  0  0
    6.5190  -20.3256   19.7589 O   0  0  0  0  0  0  0  0  0  0  0  0
    7.5126  -14.8476   21.9820 N   0  0  0  0  0  0  0  0  0  0  0  0
    6.7480  -14.2828   23.0746 C   0  0  0  0  0  0  0  0  0  0  0  0
    7.6858  -13.8853   24.1435 C   0  0  0  0  0  0  0  0  0  0  0  0
    8.9366  -14.0802   24.0133 O   0  0  0  0  0  0  0  0  0  0  0  0
    7.2108  -13.2888   25.3185 N   0  0  0  0  0  0  0  0  0  0  0  0
    5.8522  -12.9265   25.6135 C   0  0  0  0  0  0  0  0  0  0  0  0
    6.0997  -11.5182   26.1942 C   0  0  0  0  0  0  0  0  0  0  0  0
    7.1784  -11.8492   27.1967 C   0  0  0  0  0  0  0  0  0  0  0  0
    7.9804  -12.9180   26.4813 C   0  0  1  0  0  0  0  0  0  0  0  0
    8.0813  -14.1509   27.3382 C   0  0  0  0  0  0  0  0  0  0  0  0
    7.3280  -15.1417   27.1777 O   0  0  0  0  0  0  0  0  0  0  0  0
    9.0216  -14.2473   28.3527 O   0  0  0  0  0  0  0  0  0  0  0  0
  2  1  1  1
  3  2  1  0
  3  4  1  0
  4  5  1  0
  5  9  1  0
  5  6  2  0
  7  8  2  0
  7  2  1  0
 10  7  1  0
 11 12  1  0
 11 10  1  0
 12 14  1  0
 13 12  2  0
 14 15  1  0
 14 18  1  0
 15 16  1  0
 16 17  1  0
 18 19  1  1
 18 17  1  0
 19 21  1  0
 20 19  2  0
M  END
$$$$
