EGP.pdb
     RDKit          3D

 21 21  0  0  1  0  0  0  0  0999 V2000
    9.8380  -17.0558   20.2755 N   0  0  0  0  0  0  0  0  0  0  0  0
    8.8185  -17.1045   21.3207 C   0  0  1  0  0  0  0  0  0  0  0  0
    9.1976  -18.1270   22.3658 C   0  0  0  0  0  0  0  0  0  0  0  0
   10.5724  -18.6929   22.0803 C   0  0  0  0  0  0  0  0  0  0  0  0
   10.5900  -20.1149   22.5205 C   0  0  0  0  0  0  0  0  0  0  0  0
    9.5169  -20.6222   22.9454 O   0  0  0  0  0  0  0  0  0  0  0  0
    8.6474  -15.7495   21.9042 C   0  0  0  0  0  0  0  0  0  0  0  0
    9.6654  -14.9788   21.8901 O   0  0  0  0  0  0  0  0  0  0  0  0
   11.7394  -20.8866   22.4800 O   0  0  0  0  0  0  0  0  0  0  0  0
    7.4169  -15.3086   22.4592 N   0  0  0  0  0  0  0  0  0  0  0  0
    7.3476  -13.9672   23.0005 C   0  0  0  0  0  0  0  0  0  0  0  0
    8.0841  -13.9420   24.2800 C   0  0  0  0  0  0  0  0  0  0  0  0
    9.2620  -14.4170   24.3588 O   0  0  0  0  0  0  0  0  0  0  0  0
    7.4947  -13.3960   25.4274 N   0  0  0  0  0  0  0  0  0  0  0  0
    6.1238  -12.9964   25.5859 C   0  0  0  0  0  0  0  0  0  0  0  0
    6.3487  -11.6354   26.2780 C   0  0  0  0  0  0  0  0  0  0  0  0
    7.2904  -12.0676   27.3754 C   0  0  0  0  0  0  0  0  0  0  0  0
    8.1344  -13.1248   26.6920 C   0  0  1  0  0  0  0  0  0  0  0  0
    8.0925  -14.4085   27.4762 C   0  0  0  0  0  0  0  0  0  0  0  0
    7.3489  -15.3665   27.1536 O   0  0  0  0  0  0  0  0  0  0  0  0
    8.8826  -14.5909   28.6010 O   0  0  0  0  0  0  0  0  0  0  0  0
  2  1  1  6
  3  2  1  0
  3  4  1  0
  4  5  1  0
  5  9  1  0
  5  6  2  0
  7  8  2  0
  7  2  1  0
 10  7  1  0
 11 12  1  0
 11 10  1  0
 12 14  1  0
 13 12  2  0
 14 15  1  0
 14 18  1  0
 15 16  1  0
 16 17  1  0
 18 19  1  1
 18 17  1  0
 19 21  1  0
 20 19  2  0
M  END
$$$$
