EGP.pdb
     RDKit          3D

 21 21  0  0  1  0  0  0  0  0999 V2000
    7.3461  -19.0586   21.3733 N   0  0  0  0  0  0  0  0  0  0  0  0
    8.3265  -17.9764   21.4166 C   0  0  1  0  0  0  0  0  0  0  0  0
    8.9876  -17.8230   20.0673 C   0  0  0  0  0  0  0  0  0  0  0  0
   10.1822  -16.8981   20.1637 C   0  0  0  0  0  0  0  0  0  0  0  0
   11.3975  -17.7302   20.3805 C   0  0  0  0  0  0  0  0  0  0  0  0
   12.0795  -18.0653   19.3745 O   0  0  0  0  0  0  0  0  0  0  0  0
    7.6580  -16.7244   21.8544 C   0  0  0  0  0  0  0  0  0  0  0  0
    7.1268  -16.0019   20.9453 O   0  0  0  0  0  0  0  0  0  0  0  0
   11.7940  -18.1445   21.6412 O   0  0  0  0  0  0  0  0  0  0  0  0
    7.6000  -16.3277   23.2166 N   0  0  0  0  0  0  0  0  0  0  0  0
    7.0532  -15.0240   23.5309 C   0  0  0  0  0  0  0  0  0  0  0  0
    7.9811  -14.3392   24.4530 C   0  0  0  0  0  0  0  0  0  0  0  0
    9.2363  -14.3628   24.2446 O   0  0  0  0  0  0  0  0  0  0  0  0
    7.4921  -13.6545   25.5728 N   0  0  0  0  0  0  0  0  0  0  0  0
    6.1143  -13.4528   25.9266 C   0  0  0  0  0  0  0  0  0  0  0  0
    6.1769  -11.9548   26.2925 C   0  0  0  0  0  0  0  0  0  0  0  0
    7.3524  -11.9795   27.2389 C   0  0  0  0  0  0  0  0  0  0  0  0
    8.2645  -13.0134   26.6094 C   0  0  1  0  0  0  0  0  0  0  0  0
    8.6056  -14.0827   27.6117 C   0  0  0  0  0  0  0  0  0  0  0  0
    8.0313  -15.1985   27.6224 O   0  0  0  0  0  0  0  0  0  0  0  0
    9.5803  -13.8800   28.5768 O   0  0  0  0  0  0  0  0  0  0  0  0
  2  1  1  6
  3  2  1  0
  3  4  1  0
  4  5  1  0
  5  9  1  0
  5  6  2  0
  7  8  2  0
  7  2  1  0
 10  7  1  0
 11 12  1  0
 11 10  1  0
 12 14  1  0
 13 12  2  0
 14 15  1  0
 14 18  1  0
 15 16  1  0
 16 17  1  0
 18 19  1  1
 18 17  1  0
 19 21  1  0
 20 19  2  0
M  END
$$$$
