TER.pdb
     RDKit          3D

 28 27  0  0  1  0  0  0  0  0999 V2000
   25.6954  -20.8459   -6.1229 C   0  0  0  0  0  0  0  0  0  0  0  0
   25.3595  -20.7582   -7.5717 C   0  0  1  0  0  0  0  0  0  0  0  0
   24.3797  -19.7420   -7.6886 O   0  0  0  0  0  0  0  0  0  0  0  0
   26.4997  -20.3194   -8.4634 C   0  0  2  0  0  0  0  0  0  0  0  0
   26.9189  -19.0170   -7.9114 N   0  0  0  0  0  0  0  0  0  0  0  0
   26.0899  -20.0666   -9.8648 C   0  0  0  0  0  0  0  0  0  0  0  0
   26.0611  -18.8964  -10.2872 O   0  0  0  0  0  0  0  0  0  0  0  0
   25.7234  -21.0924  -10.7691 N   0  0  0  0  0  0  0  0  0  0  0  0
   25.3678  -20.9495  -12.1511 C   0  0  1  0  0  0  0  0  0  0  0  0
   25.9529  -21.9354  -13.0700 C   0  0  0  0  0  0  0  0  0  0  0  0
   27.3681  -21.6650  -13.4921 C   0  0  0  0  0  0  0  0  0  0  0  0
   27.4754  -21.7143  -14.9544 C   0  0  0  0  0  0  0  0  0  0  0  0
   27.6080  -22.8013  -15.5470 O   0  0  0  0  0  0  0  0  0  0  0  0
   23.8554  -20.9532  -12.3334 C   0  0  0  0  0  0  0  0  0  0  0  0
   23.1591  -21.7021  -11.6253 O   0  0  0  0  0  0  0  0  0  0  0  0
   27.4370  -20.5723  -15.7580 O   0  0  0  0  0  0  0  0  0  0  0  0
   17.9672  -15.4656  -15.8931 N   0  0  0  0  0  0  0  0  0  0  0  0
   19.1080  -15.3689  -15.0536 C   0  0  0  0  0  0  0  0  0  0  0  0
   19.4093  -14.2534  -14.5159 N   0  0  0  0  0  0  0  0  0  0  0  0
   19.9081  -16.5196  -14.8188 N   0  0  0  0  0  0  0  0  0  0  0  0
   19.5380  -17.7942  -15.4221 C   0  0  0  0  0  0  0  0  0  0  0  0
   19.9397  -18.9358  -14.5216 C   0  0  0  0  0  0  0  0  0  0  0  0
   21.4172  -18.9352  -14.2945 C   0  0  0  0  0  0  0  0  0  0  0  0
   21.8306  -20.1173  -13.4665 C   0  0  2  0  0  0  0  0  0  0  0  0
   23.3013  -20.1000  -13.3048 N   0  0  0  0  0  0  0  0  0  0  0  0
   21.5251  -21.4309  -14.0641 C   0  0  0  0  0  0  0  0  0  0  0  0
   22.4278  -22.1401  -14.8490 O   0  0  0  0  0  0  0  0  0  0  0  0
   20.4146  -21.9792  -13.8880 O   0  0  0  0  0  0  0  0  0  0  0  0
  2  1  1  1
  2  4  1  0
  3  2  1  0
  4  6  1  0
  4  5  1  1
  6  7  2  0
  8  9  1  0
  8  6  1  0
  9 10  1  6
 10 11  1  0
 11 12  1  0
 12 13  2  0
 12 16  1  0
 14 15  2  0
 14  9  1  0
 17 18  1  0
 18 19  2  0
 20 18  1  0
 20 21  1  0
 22 23  1  0
 22 21  1  0
 24 23  1  6
 24 26  1  0
 24 25  1  0
 25 14  1  0
 26 27  1  0
 28 26  2  0
M  END
$$$$
