TER.pdb
     RDKit          3D

 28 27  0  0  1  0  0  0  0  0999 V2000
   14.6364   -8.3067   -7.7042 C   0  0  0  0  0  0  0  0  0  0  0  0
   15.4157   -8.1362   -8.9624 C   0  0  1  0  0  0  0  0  0  0  0  0
   14.5654   -8.5589  -10.0135 O   0  0  0  0  0  0  0  0  0  0  0  0
   15.7822   -6.7068   -9.2946 C   0  0  2  0  0  0  0  0  0  0  0  0
   14.4856   -6.0253   -9.4705 N   0  0  0  0  0  0  0  0  0  0  0  0
   16.5058   -6.5661  -10.5801 C   0  0  0  0  0  0  0  0  0  0  0  0
   15.8543   -6.4303  -11.6317 O   0  0  0  0  0  0  0  0  0  0  0  0
   17.9175   -6.5759  -10.6876 N   0  0  0  0  0  0  0  0  0  0  0  0
   18.6998   -6.5672  -11.8896 C   0  0  1  0  0  0  0  0  0  0  0  0
   20.0044   -5.8971  -11.8018 C   0  0  0  0  0  0  0  0  0  0  0  0
   20.8260   -5.9150  -13.0582 C   0  0  0  0  0  0  0  0  0  0  0  0
   22.1452   -5.3250  -12.8055 C   0  0  0  0  0  0  0  0  0  0  0  0
   22.4720   -4.9628  -11.6599 O   0  0  0  0  0  0  0  0  0  0  0  0
   18.9139   -7.9801  -12.4171 C   0  0  0  0  0  0  0  0  0  0  0  0
   19.3070   -8.8671  -11.6388 O   0  0  0  0  0  0  0  0  0  0  0  0
   23.0977   -5.1354  -13.8095 O   0  0  0  0  0  0  0  0  0  0  0  0
   14.0936  -13.7427  -16.0787 N   0  0  0  0  0  0  0  0  0  0  0  0
   14.1963  -12.7427  -15.0761 C   0  0  0  0  0  0  0  0  0  0  0  0
   13.1699  -12.4180  -14.3941 N   0  0  0  0  0  0  0  0  0  0  0  0
   15.4461  -12.1089  -14.8403 N   0  0  0  0  0  0  0  0  0  0  0  0
   16.4337  -12.0349  -15.9102 C   0  0  0  0  0  0  0  0  0  0  0  0
   17.7423  -11.5049  -15.3791 C   0  0  0  0  0  0  0  0  0  0  0  0
   17.5743  -10.1176  -14.8481 C   0  0  0  0  0  0  0  0  0  0  0  0
   18.8622   -9.6077  -14.2694 C   0  0  2  0  0  0  0  0  0  0  0  0
   18.6549   -8.2277  -13.7774 N   0  0  0  0  0  0  0  0  0  0  0  0
   19.9782   -9.5100  -15.2292 C   0  0  0  0  0  0  0  0  0  0  0  0
   20.9293  -10.5106  -15.3971 O   0  0  0  0  0  0  0  0  0  0  0  0
   20.1230   -8.4995  -15.9523 O   0  0  0  0  0  0  0  0  0  0  0  0
  2  1  1  1
  2  4  1  0
  3  2  1  0
  4  6  1  0
  4  5  1  6
  6  7  2  0
  8  9  1  0
  8  6  1  0
  9 10  1  1
 10 11  1  0
 11 12  1  0
 12 13  2  0
 12 16  1  0
 14 15  2  0
 14  9  1  0
 17 18  1  0
 18 19  2  0
 20 18  1  0
 20 21  1  0
 22 23  1  0
 22 21  1  0
 24 23  1  6
 24 26  1  0
 24 25  1  0
 25 14  1  0
 26 27  1  0
 28 26  2  0
M  END
$$$$
