TER.pdb
     RDKit          3D

 28 27  0  0  1  0  0  0  0  0999 V2000
   28.4059  -18.1231  -17.1431 C   0  0  0  0  0  0  0  0  0  0  0  0
   27.4404  -18.8102  -16.2403 C   0  0  1  0  0  0  0  0  0  0  0  0
   26.3260  -19.1553  -17.0437 O   0  0  0  0  0  0  0  0  0  0  0  0
   27.9333  -20.1161  -15.6576 C   0  0  2  0  0  0  0  0  0  0  0  0
   28.0303  -21.0235  -16.8168 N   0  0  0  0  0  0  0  0  0  0  0  0
   26.9751  -20.7419  -14.7164 C   0  0  0  0  0  0  0  0  0  0  0  0
   26.2886  -21.7061  -15.1006 O   0  0  0  0  0  0  0  0  0  0  0  0
   26.7896  -20.3033  -13.3830 N   0  0  0  0  0  0  0  0  0  0  0  0
   25.8442  -20.8003  -12.4259 C   0  0  1  0  0  0  0  0  0  0  0  0
   26.1276  -20.4837  -11.0194 C   0  0  0  0  0  0  0  0  0  0  0  0
   25.1090  -20.9702  -10.0296 C   0  0  0  0  0  0  0  0  0  0  0  0
   25.5247  -20.6209   -8.6667 C   0  0  0  0  0  0  0  0  0  0  0  0
   26.5724  -19.9791   -8.4652 O   0  0  0  0  0  0  0  0  0  0  0  0
   24.4318  -20.3333  -12.7540 C   0  0  0  0  0  0  0  0  0  0  0  0
   24.2361  -19.1373  -13.0339 O   0  0  0  0  0  0  0  0  0  0  0  0
   24.7898  -20.9771   -7.5334 O   0  0  0  0  0  0  0  0  0  0  0  0
   17.9030  -24.4511  -16.8719 N   0  0  0  0  0  0  0  0  0  0  0  0
   17.3277  -23.2230  -16.4517 C   0  0  0  0  0  0  0  0  0  0  0  0
   16.1571  -22.9029  -16.8409 N   0  0  0  0  0  0  0  0  0  0  0  0
   18.0635  -22.3572  -15.5984 N   0  0  0  0  0  0  0  0  0  0  0  0
   19.4032  -22.7348  -15.1646 C   0  0  0  0  0  0  0  0  0  0  0  0
   20.0197  -21.6283  -14.3455 C   0  0  0  0  0  0  0  0  0  0  0  0
   21.4106  -21.9883  -13.9325 C   0  0  0  0  0  0  0  0  0  0  0  0
   22.0623  -20.8499  -13.2022 C   0  0  2  0  0  0  0  0  0  0  0  0
   23.3950  -21.2836  -12.7278 N   0  0  0  0  0  0  0  0  0  0  0  0
   21.3503  -20.4011  -11.9908 C   0  0  0  0  0  0  0  0  0  0  0  0
   20.4477  -19.3432  -11.9848 O   0  0  0  0  0  0  0  0  0  0  0  0
   21.5301  -20.9647  -10.8885 O   0  0  0  0  0  0  0  0  0  0  0  0
  2  1  1  6
  2  4  1  0
  3  2  1  0
  4  6  1  0
  4  5  1  6
  6  7  2  0
  8  9  1  0
  8  6  1  0
  9 10  1  1
 10 11  1  0
 11 12  1  0
 12 13  2  0
 12 16  1  0
 14 15  2  0
 14  9  1  0
 17 18  1  0
 18 19  2  0
 20 18  1  0
 20 21  1  0
 22 23  1  0
 22 21  1  0
 24 23  1  1
 24 26  1  0
 24 25  1  0
 25 14  1  0
 26 27  1  0
 28 26  2  0
M  END
$$$$
