TER.pdb
     RDKit          3D

 28 27  0  0  1  0  0  0  0  0999 V2000
   24.4187  -19.9802   -9.2721 C   0  0  0  0  0  0  0  0  0  0  0  0
   25.8864  -20.0101   -9.5258 C   0  0  1  0  0  0  0  0  0  0  0  0
   26.4922  -20.3659   -8.2958 O   0  0  0  0  0  0  0  0  0  0  0  0
   26.3396  -21.0617  -10.5141 C   0  0  2  0  0  0  0  0  0  0  0  0
   27.8042  -20.8973  -10.5813 N   0  0  0  0  0  0  0  0  0  0  0  0
   25.8309  -20.8393  -11.8879 C   0  0  0  0  0  0  0  0  0  0  0  0
   26.2966  -19.9038  -12.5637 O   0  0  0  0  0  0  0  0  0  0  0  0
   24.8306  -21.6400  -12.4902 N   0  0  0  0  0  0  0  0  0  0  0  0
   24.2948  -21.5150  -13.8147 C   0  0  1  0  0  0  0  0  0  0  0  0
   24.2436  -22.7519  -14.6060 C   0  0  0  0  0  0  0  0  0  0  0  0
   25.5146  -23.5502  -14.6402 C   0  0  0  0  0  0  0  0  0  0  0  0
   26.2942  -23.2045  -15.8339 C   0  0  0  0  0  0  0  0  0  0  0  0
   27.3246  -23.8389  -16.1274 O   0  0  0  0  0  0  0  0  0  0  0  0
   22.9029  -20.8966  -13.7891 C   0  0  0  0  0  0  0  0  0  0  0  0
   22.1591  -21.1123  -12.8157 O   0  0  0  0  0  0  0  0  0  0  0  0
   25.9399  -22.1659  -16.6983 O   0  0  0  0  0  0  0  0  0  0  0  0
   17.4987  -18.0085  -18.4969 N   0  0  0  0  0  0  0  0  0  0  0  0
   17.2300  -16.8057  -17.7920 C   0  0  0  0  0  0  0  0  0  0  0  0
   16.0752  -16.2715  -17.8627 N   0  0  0  0  0  0  0  0  0  0  0  0
   18.2538  -16.2044  -17.0113 N   0  0  0  0  0  0  0  0  0  0  0  0
   19.5902  -16.7871  -16.9971 C   0  0  0  0  0  0  0  0  0  0  0  0
   19.6883  -17.8462  -15.9274 C   0  0  0  0  0  0  0  0  0  0  0  0
   21.0513  -18.4601  -15.9147 C   0  0  0  0  0  0  0  0  0  0  0  0
   21.1655  -19.4841  -14.8229 C   0  0  2  0  0  0  0  0  0  0  0  0
   22.5108  -20.0975  -14.8783 N   0  0  0  0  0  0  0  0  0  0  0  0
   20.2232  -20.6139  -14.9307 C   0  0  0  0  0  0  0  0  0  0  0  0
   20.4745  -21.7459  -15.6984 O   0  0  0  0  0  0  0  0  0  0  0  0
   19.1301  -20.6049  -14.3224 O   0  0  0  0  0  0  0  0  0  0  0  0
  2  1  1  1
  2  4  1  0
  3  2  1  0
  4  6  1  0
  4  5  1  6
  6  7  2  0
  8  9  1  0
  8  6  1  0
  9 10  1  1
 10 11  1  0
 11 12  1  0
 12 13  2  0
 12 16  1  0
 14 15  2  0
 14  9  1  0
 17 18  1  0
 18 19  2  0
 20 18  1  0
 20 21  1  0
 22 23  1  0
 22 21  1  0
 24 23  1  6
 24 26  1  0
 24 25  1  0
 25 14  1  0
 26 27  1  0
 28 26  2  0
M  END
$$$$
