TER.pdb
     RDKit          3D

 28 27  0  0  1  0  0  0  0  0999 V2000
   30.8095  -33.8275   -5.8088 C   0  0  0  0  0  0  0  0  0  0  0  0
   32.1843  -33.8873   -5.2381 C   0  0  1  0  0  0  0  0  0  0  0  0
   32.1206  -33.2285   -3.9858 O   0  0  0  0  0  0  0  0  0  0  0  0
   32.6856  -35.2812   -4.9319 C   0  0  2  0  0  0  0  0  0  0  0  0
   32.8286  -35.9200   -6.2540 N   0  0  0  0  0  0  0  0  0  0  0  0
   31.7150  -36.1044   -4.1730 C   0  0  0  0  0  0  0  0  0  0  0  0
   30.8258  -36.7181   -4.7906 O   0  0  0  0  0  0  0  0  0  0  0  0
   31.7377  -36.2391   -2.7638 N   0  0  0  0  0  0  0  0  0  0  0  0
   30.8228  -36.9798   -1.9444 C   0  0  1  0  0  0  0  0  0  0  0  0
   31.3152  -37.3583   -0.6129 C   0  0  0  0  0  0  0  0  0  0  0  0
   31.7297  -36.2178    0.2711 C   0  0  0  0  0  0  0  0  0  0  0  0
   32.1390  -36.7231    1.5861 C   0  0  0  0  0  0  0  0  0  0  0  0
   31.6295  -36.2717    2.6287 O   0  0  0  0  0  0  0  0  0  0  0  0
   29.5037  -36.2356   -1.7813 C   0  0  0  0  0  0  0  0  0  0  0  0
   29.5112  -34.9943   -1.7030 O   0  0  0  0  0  0  0  0  0  0  0  0
   33.1039  -37.7197    1.7504 O   0  0  0  0  0  0  0  0  0  0  0  0
   21.0778  -38.7244   -3.1196 N   0  0  0  0  0  0  0  0  0  0  0  0
   21.0105  -37.3848   -2.6543 C   0  0  0  0  0  0  0  0  0  0  0  0
   19.8925  -36.7733   -2.6358 N   0  0  0  0  0  0  0  0  0  0  0  0
   22.1936  -36.7336   -2.2120 N   0  0  0  0  0  0  0  0  0  0  0  0
   23.4829  -37.3989   -2.3549 C   0  0  0  0  0  0  0  0  0  0  0  0
   24.5962  -36.4849   -1.9070 C   0  0  0  0  0  0  0  0  0  0  0  0
   25.9099  -37.1977   -1.9372 C   0  0  0  0  0  0  0  0  0  0  0  0
   27.0400  -36.2461   -1.6705 C   0  0  2  0  0  0  0  0  0  0  0  0
   28.3178  -36.9901   -1.7260 N   0  0  0  0  0  0  0  0  0  0  0  0
   27.0195  -35.6164   -0.3367 C   0  0  0  0  0  0  0  0  0  0  0  0
   27.6753  -36.1488    0.7680 O   0  0  0  0  0  0  0  0  0  0  0  0
   26.3969  -34.5505   -0.1341 O   0  0  0  0  0  0  0  0  0  0  0  0
  2  1  1  1
  2  4  1  0
  3  2  1  0
  4  6  1  0
  4  5  1  6
  6  7  2  0
  8  9  1  0
  8  6  1  0
  9 10  1  1
 10 11  1  0
 11 12  1  0
 12 13  2  0
 12 16  1  0
 14 15  2  0
 14  9  1  0
 17 18  1  0
 18 19  2  0
 20 18  1  0
 20 21  1  0
 22 23  1  0
 22 21  1  0
 24 23  1  1
 24 26  1  0
 24 25  1  0
 25 14  1  0
 26 27  1  0
 28 26  2  0
M  END
$$$$
