TER.pdb
     RDKit          3D

 28 27  0  0  1  0  0  0  0  0999 V2000
   19.0317  -14.1480  -20.1881 C   0  0  0  0  0  0  0  0  0  0  0  0
   19.4663  -13.2930  -19.0481 C   0  0  1  0  0  0  0  0  0  0  0  0
   18.6006  -13.6024  -17.9705 O   0  0  0  0  0  0  0  0  0  0  0  0
   20.8607  -13.5772  -18.5355 C   0  0  2  0  0  0  0  0  0  0  0  0
   20.7979  -14.9685  -18.0488 N   0  0  0  0  0  0  0  0  0  0  0  0
   21.2430  -12.7443  -17.3710 C   0  0  0  0  0  0  0  0  0  0  0  0
   20.5392  -12.7754  -16.3452 O   0  0  0  0  0  0  0  0  0  0  0  0
   22.3803  -11.9011  -17.3528 N   0  0  0  0  0  0  0  0  0  0  0  0
   22.7820  -11.0026  -16.3097 C   0  0  1  0  0  0  0  0  0  0  0  0
   24.2216  -10.7218  -16.2232 C   0  0  0  0  0  0  0  0  0  0  0  0
   25.0913  -11.9006  -15.8944 C   0  0  0  0  0  0  0  0  0  0  0  0
   26.5045  -11.5081  -15.9269 C   0  0  0  0  0  0  0  0  0  0  0  0
   27.3994  -12.3265  -15.6445 O   0  0  0  0  0  0  0  0  0  0  0  0
   22.0338   -9.6791  -16.4049 C   0  0  0  0  0  0  0  0  0  0  0  0
   21.7736   -9.2066  -17.5256 O   0  0  0  0  0  0  0  0  0  0  0  0
   26.9281  -10.2216  -16.2685 O   0  0  0  0  0  0  0  0  0  0  0  0
   15.4313   -6.4109  -15.6971 N   0  0  0  0  0  0  0  0  0  0  0  0
   16.0378   -5.1759  -16.0473 C   0  0  0  0  0  0  0  0  0  0  0  0
   15.3705   -4.0933  -15.9641 N   0  0  0  0  0  0  0  0  0  0  0  0
   17.3880   -5.1559  -16.4898 N   0  0  0  0  0  0  0  0  0  0  0  0
   18.1348   -6.4038  -16.5926 C   0  0  0  0  0  0  0  0  0  0  0  0
   18.6230   -6.8355  -15.2321 C   0  0  0  0  0  0  0  0  0  0  0  0
   19.4343   -8.0869  -15.3342 C   0  0  0  0  0  0  0  0  0  0  0  0
   20.9025   -7.7739  -15.3220 C   0  0  2  0  0  0  0  0  0  0  0  0
   21.6625   -9.0384  -15.2090 N   0  0  0  0  0  0  0  0  0  0  0  0
   21.3523   -6.9519  -14.1827 C   0  0  0  0  0  0  0  0  0  0  0  0
   21.1709   -5.5747  -14.1175 O   0  0  0  0  0  0  0  0  0  0  0  0
   21.9307   -7.4682  -13.2009 O   0  0  0  0  0  0  0  0  0  0  0  0
  2  1  1  6
  2  4  1  0
  3  2  1  0
  4  6  1  0
  4  5  1  1
  6  7  2  0
  8  9  1  0
  8  6  1  0
  9 10  1  6
 10 11  1  0
 11 12  1  0
 12 13  2  0
 12 16  1  0
 14 15  2  0
 14  9  1  0
 17 18  1  0
 18 19  2  0
 20 18  1  0
 20 21  1  0
 22 23  1  0
 22 21  1  0
 24 23  1  1
 24 26  1  0
 24 25  1  0
 25 14  1  0
 26 27  1  0
 28 26  2  0
M  END
$$$$
