TER.pdb
     RDKit          3D

 28 27  0  0  1  0  0  0  0  0999 V2000
   25.8224  -19.2200  -17.5998 C   0  0  0  0  0  0  0  0  0  0  0  0
   27.0796  -18.9120  -16.8622 C   0  0  1  0  0  0  0  0  0  0  0  0
   26.7541  -17.8899  -15.9372 O   0  0  0  0  0  0  0  0  0  0  0  0
   27.6217  -20.0503  -16.0266 C   0  0  2  0  0  0  0  0  0  0  0  0
   28.0367  -21.0662  -17.0126 N   0  0  0  0  0  0  0  0  0  0  0  0
   26.5980  -20.6936  -15.1698 C   0  0  0  0  0  0  0  0  0  0  0  0
   25.7975  -21.4980  -15.6803 O   0  0  0  0  0  0  0  0  0  0  0  0
   26.4728  -20.4458  -13.7815 N   0  0  0  0  0  0  0  0  0  0  0  0
   25.4478  -20.9246  -12.8999 C   0  0  1  0  0  0  0  0  0  0  0  0
   25.7115  -20.7670  -11.4632 C   0  0  0  0  0  0  0  0  0  0  0  0
   24.6704  -21.3437  -10.5480 C   0  0  0  0  0  0  0  0  0  0  0  0
   25.0381  -21.0982   -9.1491 C   0  0  0  0  0  0  0  0  0  0  0  0
   24.1673  -20.8390   -8.2978 O   0  0  0  0  0  0  0  0  0  0  0  0
   24.1032  -20.2844  -13.2203 C   0  0  0  0  0  0  0  0  0  0  0  0
   24.0322  -19.0490  -13.3463 O   0  0  0  0  0  0  0  0  0  0  0  0
   26.3575  -21.1381   -8.6922 O   0  0  0  0  0  0  0  0  0  0  0  0
   17.8810  -22.2787  -18.8437 N   0  0  0  0  0  0  0  0  0  0  0  0
   17.3686  -21.1505  -18.1506 C   0  0  0  0  0  0  0  0  0  0  0  0
   16.3059  -20.5800  -18.5620 N   0  0  0  0  0  0  0  0  0  0  0  0
   18.0468  -20.6640  -17.0005 N   0  0  0  0  0  0  0  0  0  0  0  0
   19.3000  -21.2814  -16.5836 C   0  0  0  0  0  0  0  0  0  0  0  0
   19.8508  -20.5787  -15.3677 C   0  0  0  0  0  0  0  0  0  0  0  0
   21.1700  -21.1607  -14.9732 C   0  0  0  0  0  0  0  0  0  0  0  0
   21.7010  -20.4916  -13.7386 C   0  0  2  0  0  0  0  0  0  0  0  0
   22.9844  -21.1249  -13.3631 N   0  0  0  0  0  0  0  0  0  0  0  0
   20.8442  -20.6220  -12.5449 C   0  0  0  0  0  0  0  0  0  0  0  0
   19.8090  -19.7417  -12.2495 O   0  0  0  0  0  0  0  0  0  0  0  0
   21.0138  -21.5518  -11.7253 O   0  0  0  0  0  0  0  0  0  0  0  0
  2  1  1  1
  2  4  1  0
  3  2  1  0
  4  6  1  0
  4  5  1  6
  6  7  2  0
  8  9  1  0
  8  6  1  0
  9 10  1  1
 10 11  1  0
 11 12  1  0
 12 13  2  0
 12 16  1  0
 14 15  2  0
 14  9  1  0
 17 18  1  0
 18 19  2  0
 20 18  1  0
 20 21  1  0
 22 23  1  0
 22 21  1  0
 24 23  1  6
 24 26  1  0
 24 25  1  0
 25 14  1  0
 26 27  1  0
 28 26  2  0
M  END
$$$$
