TER.pdb
     RDKit          3D

 28 27  0  0  1  0  0  0  0  0999 V2000
   16.0419  -10.1897  -15.3484 C   0  0  0  0  0  0  0  0  0  0  0  0
   17.2606  -11.0395  -15.4588 C   0  0  1  0  0  0  0  0  0  0  0  0
   17.2997  -11.5011  -16.7974 O   0  0  0  0  0  0  0  0  0  0  0  0
   18.5675  -10.3074  -15.2496 C   0  0  2  0  0  0  0  0  0  0  0  0
   19.6009  -11.3509  -15.3899 N   0  0  0  0  0  0  0  0  0  0  0  0
   18.7200   -9.7494  -13.8854 C   0  0  0  0  0  0  0  0  0  0  0  0
   18.3306  -10.4164  -12.9096 O   0  0  0  0  0  0  0  0  0  0  0  0
   19.2924   -8.4822  -13.6187 N   0  0  0  0  0  0  0  0  0  0  0  0
   19.4639   -7.8552  -12.3403 C   0  0  1  0  0  0  0  0  0  0  0  0
   20.4446   -6.7625  -12.2874 C   0  0  0  0  0  0  0  0  0  0  0  0
   20.8638   -6.2055  -13.6171 C   0  0  0  0  0  0  0  0  0  0  0  0
   21.9352   -5.2199  -13.4348 C   0  0  0  0  0  0  0  0  0  0  0  0
   22.3739   -4.9589  -12.2992 O   0  0  0  0  0  0  0  0  0  0  0  0
   18.1364   -7.3434  -11.7959 C   0  0  0  0  0  0  0  0  0  0  0  0
   17.3012   -6.8625  -12.5821 O   0  0  0  0  0  0  0  0  0  0  0  0
   22.5188   -4.5268  -14.4979 O   0  0  0  0  0  0  0  0  0  0  0  0
   11.3626   -9.6135   -9.0003 N   0  0  0  0  0  0  0  0  0  0  0  0
   11.3114   -8.3718   -8.3139 C   0  0  0  0  0  0  0  0  0  0  0  0
   10.1852   -7.8629   -8.0027 N   0  0  0  0  0  0  0  0  0  0  0  0
   12.5197   -7.7032   -7.9784 N   0  0  0  0  0  0  0  0  0  0  0  0
   13.7946   -8.2338   -8.4460 C   0  0  0  0  0  0  0  0  0  0  0  0
   14.9075   -7.2595   -8.1495 C   0  0  0  0  0  0  0  0  0  0  0  0
   16.2029   -7.7496   -8.7119 C   0  0  0  0  0  0  0  0  0  0  0  0
   16.6129   -6.9300   -9.9011 C   0  0  2  0  0  0  0  0  0  0  0  0
   17.9058   -7.4370  -10.4114 N   0  0  0  0  0  0  0  0  0  0  0  0
   16.8445   -5.5007   -9.6195 C   0  0  0  0  0  0  0  0  0  0  0  0
   15.8292   -4.5504   -9.6136 O   0  0  0  0  0  0  0  0  0  0  0  0
   17.9911   -5.0685   -9.3675 O   0  0  0  0  0  0  0  0  0  0  0  0
  2  1  1  6
  2  4  1  0
  3  2  1  0
  4  6  1  0
  4  5  1  1
  6  7  2  0
  8  9  1  0
  8  6  1  0
  9 10  1  6
 10 11  1  0
 11 12  1  0
 12 13  2  0
 12 16  1  0
 14 15  2  0
 14  9  1  0
 17 18  1  0
 18 19  2  0
 20 18  1  0
 20 21  1  0
 22 23  1  0
 22 21  1  0
 24 23  1  1
 24 26  1  0
 24 25  1  0
 25 14  1  0
 26 27  1  0
 28 26  2  0
M  END
$$$$
