TER.pdb
     RDKit          3D

 28 27  0  0  1  0  0  0  0  0999 V2000
   19.8446  -11.6502  -17.5711 C   0  0  0  0  0  0  0  0  0  0  0  0
   19.6423  -10.8373  -16.3391 C   0  0  1  0  0  0  0  0  0  0  0  0
   19.3850  -11.7599  -15.2955 O   0  0  0  0  0  0  0  0  0  0  0  0
   20.8543  -10.0521  -15.8892 C   0  0  2  0  0  0  0  0  0  0  0  0
   21.8231  -11.0808  -15.4651 N   0  0  0  0  0  0  0  0  0  0  0  0
   20.6004   -9.2028  -14.7018 C   0  0  0  0  0  0  0  0  0  0  0  0
   20.4230   -9.7437  -13.5952 O   0  0  0  0  0  0  0  0  0  0  0  0
   20.5472   -7.7888  -14.7492 N   0  0  0  0  0  0  0  0  0  0  0  0
   20.2850   -6.8898  -13.6629 C   0  0  1  0  0  0  0  0  0  0  0  0
   20.7534   -5.5092  -13.8447 C   0  0  0  0  0  0  0  0  0  0  0  0
   22.2287   -5.3522  -14.0747 C   0  0  0  0  0  0  0  0  0  0  0  0
   22.5615   -3.9352  -14.2585 C   0  0  0  0  0  0  0  0  0  0  0  0
   22.1445   -3.0745  -13.4613 O   0  0  0  0  0  0  0  0  0  0  0  0
   18.8011   -6.8584  -13.3204 C   0  0  0  0  0  0  0  0  0  0  0  0
   17.9637   -6.9011  -14.2391 O   0  0  0  0  0  0  0  0  0  0  0  0
   23.3489   -3.4706  -15.3146 O   0  0  0  0  0  0  0  0  0  0  0  0
   13.9334  -10.4392   -8.1885 N   0  0  0  0  0  0  0  0  0  0  0  0
   13.1630   -9.2623   -7.9957 C   0  0  0  0  0  0  0  0  0  0  0  0
   11.9257   -9.3527   -7.7042 N   0  0  0  0  0  0  0  0  0  0  0  0
   13.7788   -7.9887   -8.1301 N   0  0  0  0  0  0  0  0  0  0  0  0
   15.1946   -7.9009   -8.4670 C   0  0  0  0  0  0  0  0  0  0  0  0
   15.3667   -7.3912   -9.8763 C   0  0  0  0  0  0  0  0  0  0  0  0
   16.8154   -7.3138  -10.2372 C   0  0  0  0  0  0  0  0  0  0  0  0
   16.9892   -6.8296  -11.6475 C   0  0  2  0  0  0  0  0  0  0  0  0
   18.4336   -6.7824  -11.9647 N   0  0  0  0  0  0  0  0  0  0  0  0
   16.4953   -5.4627  -11.8997 C   0  0  0  0  0  0  0  0  0  0  0  0
   15.1878   -5.1827  -12.2818 O   0  0  0  0  0  0  0  0  0  0  0  0
   17.2474   -4.4705  -11.7785 O   0  0  0  0  0  0  0  0  0  0  0  0
  2  1  1  6
  2  4  1  0
  3  2  1  0
  4  6  1  0
  4  5  1  1
  6  7  2  0
  8  9  1  0
  8  6  1  0
  9 10  1  6
 10 11  1  0
 11 12  1  0
 12 13  2  0
 12 16  1  0
 14 15  2  0
 14  9  1  0
 17 18  1  0
 18 19  2  0
 20 18  1  0
 20 21  1  0
 22 23  1  0
 22 21  1  0
 24 23  1  1
 24 26  1  0
 24 25  1  0
 25 14  1  0
 26 27  1  0
 28 26  2  0
M  END
$$$$
