IQE.pdb
     RDKit          3D

 27 26  0  0  1  0  0  0  0  0999 V2000
   29.4565  -19.2547  -18.9480 C   0  0  0  0  0  0  0  0  0  0  0  0
   28.6552  -18.5337  -17.9167 C   0  0  0  0  0  0  0  0  0  0  0  0
   27.4082  -19.2533  -17.5100 C   0  0  2  0  0  0  0  0  0  0  0  0
   26.6435  -19.6430  -18.7401 C   0  0  0  0  0  0  0  0  0  0  0  0
   26.5521  -18.4836  -16.5352 C   0  0  2  0  0  0  0  0  0  0  0  0
   27.3993  -17.7489  -15.6258 N   0  0  0  0  0  0  0  0  0  0  0  0
   25.6106  -19.3017  -15.7730 C   0  0  0  0  0  0  0  0  0  0  0  0
   24.6370  -19.9211  -16.2946 O   0  0  0  0  0  0  0  0  0  0  0  0
   26.0931  -20.5682   -9.4621 N   0  0  0  0  0  0  0  0  0  0  0  0
   24.7943  -21.0117   -9.8029 C   0  0  0  0  0  0  0  0  0  0  0  0
   24.0846  -21.5339   -8.9120 O   0  0  0  0  0  0  0  0  0  0  0  0
   24.2881  -20.8586  -11.1903 C   0  0  0  0  0  0  0  0  0  0  0  0
   25.3078  -20.2094  -12.0768 C   0  0  0  0  0  0  0  0  0  0  0  0
   24.8558  -20.0481  -13.4874 C   0  0  2  0  0  0  0  0  0  0  0  0
   25.7865  -19.4166  -14.3654 N   0  0  0  0  0  0  0  0  0  0  0  0
   23.5336  -19.3687  -13.5535 C   0  0  0  0  0  0  0  0  0  0  0  0
   23.5783  -18.1590  -13.9580 O   0  0  0  0  0  0  0  0  0  0  0  0
   22.3229  -19.9955  -13.2019 N   0  0  0  0  0  0  0  0  0  0  0  0
   21.0782  -19.5422  -13.7697 C   0  0  1  0  0  0  0  0  0  0  0  0
   21.1672  -19.2665  -15.2207 C   0  0  0  0  0  0  0  0  0  0  0  0
   20.7718  -17.9685  -15.7617 C   0  0  0  0  0  0  0  0  0  0  0  0
   20.0314  -17.8695  -17.0077 C   0  0  0  0  0  0  0  0  0  0  0  0
   19.6085  -18.8288  -17.6566 O   0  0  0  0  0  0  0  0  0  0  0  0
   19.9852  -20.4253  -13.3703 C   0  0  0  0  0  0  0  0  0  0  0  0
   20.1736  -21.6527  -13.2677 O   0  0  0  0  0  0  0  0  0  0  0  0
   19.7346  -16.6026  -17.5837 O   0  0  0  0  0  0  0  0  0  0  0  0
   18.7393  -19.8947  -13.1066 O   0  0  0  0  0  0  0  0  0  0  0  0
  2  1  1  0
  2  3  1  0
  3  4  1  6
  5  3  1  0
  5  6  1  1
  7  5  1  0
  7  8  2  0
  9 10  1  0
 10 12  1  0
 11 10  2  0
 12 13  1  0
 14 13  1  1
 14 15  1  0
 15  7  1  0
 16 14  1  0
 16 18  1  0
 17 16  2  0
 19 18  1  0
 19 24  1  0
 19 20  1  6
 21 20  1  0
 22 23  2  0
 22 21  1  0
 24 25  2  0
 24 27  1  0
 26 22  1  0
M  END
$$$$
