IQE.pdb
     RDKit          3D

 27 26  0  0  1  0  0  0  0  0999 V2000
   14.9739  -13.1032  -15.9904 C   0  0  0  0  0  0  0  0  0  0  0  0
   15.6909  -11.9403  -16.5896 C   0  0  0  0  0  0  0  0  0  0  0  0
   16.8548  -11.4659  -15.7780 C   0  0  2  0  0  0  0  0  0  0  0  0
   16.3852  -11.1395  -14.3914 C   0  0  0  0  0  0  0  0  0  0  0  0
   17.6045  -10.3161  -16.4037 C   0  0  2  0  0  0  0  0  0  0  0  0
   18.0940  -10.7106  -17.7034 N   0  0  0  0  0  0  0  0  0  0  0  0
   18.7117   -9.8012  -15.6001 C   0  0  0  0  0  0  0  0  0  0  0  0
   18.5992   -9.4635  -14.3848 O   0  0  0  0  0  0  0  0  0  0  0  0
   22.7533  -11.9391  -17.7271 N   0  0  0  0  0  0  0  0  0  0  0  0
   22.7831  -12.2692  -16.3523 C   0  0  0  0  0  0  0  0  0  0  0  0
   22.9043  -13.4728  -16.0258 O   0  0  0  0  0  0  0  0  0  0  0  0
   22.6725  -11.2059  -15.3219 C   0  0  0  0  0  0  0  0  0  0  0  0
   22.4400   -9.8622  -15.9442 C   0  0  0  0  0  0  0  0  0  0  0  0
   21.1630   -9.2217  -15.5209 C   0  0  2  0  0  0  0  0  0  0  0  0
   19.9927   -9.6667  -16.2053 N   0  0  0  0  0  0  0  0  0  0  0  0
   21.2635   -7.7379  -15.5714 C   0  0  0  0  0  0  0  0  0  0  0  0
   20.9414   -7.2221  -16.6935 O   0  0  0  0  0  0  0  0  0  0  0  0
   21.6787   -6.9527  -14.4789 N   0  0  0  0  0  0  0  0  0  0  0  0
   21.6416   -5.5144  -14.5620 C   0  0  1  0  0  0  0  0  0  0  0  0
   20.3398   -4.9926  -15.0336 C   0  0  0  0  0  0  0  0  0  0  0  0
   20.0494   -3.5615  -14.9972 C   0  0  0  0  0  0  0  0  0  0  0  0
   18.7602   -3.0468  -15.4255 C   0  0  0  0  0  0  0  0  0  0  0  0
   18.1118   -3.4734  -16.3834 O   0  0  0  0  0  0  0  0  0  0  0  0
   22.1380   -4.9202  -13.3233 C   0  0  0  0  0  0  0  0  0  0  0  0
   22.4105   -3.7053  -13.2733 O   0  0  0  0  0  0  0  0  0  0  0  0
   18.1366   -1.9697  -14.7357 O   0  0  0  0  0  0  0  0  0  0  0  0
   22.3052   -5.7107  -12.2050 O   0  0  0  0  0  0  0  0  0  0  0  0
  2  1  1  0
  2  3  1  0
  3  4  1  1
  5  3  1  0
  5  6  1  6
  7  5  1  0
  7  8  2  0
  9 10  1  0
 10 12  1  0
 11 10  2  0
 12 13  1  0
 14 13  1  6
 14 15  1  0
 15  7  1  0
 16 14  1  0
 16 18  1  0
 17 16  2  0
 19 18  1  0
 19 24  1  0
 19 20  1  1
 21 20  1  0
 22 23  2  0
 22 21  1  0
 24 25  2  0
 24 27  1  0
 26 22  1  0
M  END
$$$$
