IQE.pdb
     RDKit          3D

 27 26  0  0  1  0  0  0  0  0999 V2000
   15.2008  -11.1345  -18.2385 C   0  0  0  0  0  0  0  0  0  0  0  0
   16.3187  -12.1170  -18.3414 C   0  0  0  0  0  0  0  0  0  0  0  0
   17.4036  -11.9040  -17.3334 C   0  0  2  0  0  0  0  0  0  0  0  0
   16.8353  -12.0805  -15.9565 C   0  0  0  0  0  0  0  0  0  0  0  0
   18.1211  -10.5854  -17.4814 C   0  0  2  0  0  0  0  0  0  0  0  0
   18.6817  -10.4884  -18.8084 N   0  0  0  0  0  0  0  0  0  0  0  0
   19.1683  -10.3467  -16.4898 C   0  0  0  0  0  0  0  0  0  0  0  0
   18.9737  -10.3900  -15.2393 O   0  0  0  0  0  0  0  0  0  0  0  0
   26.4586  -10.4563  -15.7715 N   0  0  0  0  0  0  0  0  0  0  0  0
   25.1702  -11.0389  -15.7561 C   0  0  0  0  0  0  0  0  0  0  0  0
   25.0615  -12.2637  -15.9971 O   0  0  0  0  0  0  0  0  0  0  0  0
   23.9745  -10.2100  -15.4595 C   0  0  0  0  0  0  0  0  0  0  0  0
   22.8324  -10.5510  -16.3686 C   0  0  0  0  0  0  0  0  0  0  0  0
   21.5897   -9.7813  -16.0799 C   0  0  2  0  0  0  0  0  0  0  0  0
   20.4843  -10.0478  -16.9418 N   0  0  0  0  0  0  0  0  0  0  0  0
   21.8642   -8.3200  -16.0211 C   0  0  0  0  0  0  0  0  0  0  0  0
   21.9831   -7.7562  -17.1600 O   0  0  0  0  0  0  0  0  0  0  0  0
   21.9857   -7.6032  -14.8154 N   0  0  0  0  0  0  0  0  0  0  0  0
   21.9314   -6.1630  -14.8175 C   0  0  1  0  0  0  0  0  0  0  0  0
   20.7743   -5.6259  -15.5670 C   0  0  0  0  0  0  0  0  0  0  0  0
   20.5077   -4.1901  -15.6044 C   0  0  0  0  0  0  0  0  0  0  0  0
   19.3527   -3.6600  -16.3082 C   0  0  0  0  0  0  0  0  0  0  0  0
   18.5543   -4.3330  -16.9636 O   0  0  0  0  0  0  0  0  0  0  0  0
   22.0876   -5.6459  -13.4603 C   0  0  0  0  0  0  0  0  0  0  0  0
   22.0183   -6.4148  -12.4822 O   0  0  0  0  0  0  0  0  0  0  0  0
   19.0569   -2.2682  -16.2846 O   0  0  0  0  0  0  0  0  0  0  0  0
   22.3124   -4.2990  -13.2636 O   0  0  0  0  0  0  0  0  0  0  0  0
  2  1  1  0
  2  3  1  0
  3  4  1  1
  5  3  1  0
  5  6  1  6
  7  5  1  0
  7  8  2  0
  9 10  1  0
 10 12  1  0
 11 10  2  0
 12 13  1  0
 14 13  1  6
 14 15  1  0
 15  7  1  0
 16 14  1  0
 16 18  1  0
 17 16  2  0
 19 18  1  0
 19 24  1  0
 19 20  1  1
 21 20  1  0
 22 23  2  0
 22 21  1  0
 24 25  2  0
 24 27  1  0
 26 22  1  0
M  END
$$$$
