IQE.pdb
     RDKit          3D

 27 26  0  0  1  0  0  0  0  0999 V2000
   15.6735  -24.2580   -0.2649 C   0  0  0  0  0  0  0  0  0  0  0  0
   14.9991  -23.1198    0.4245 C   0  0  0  0  0  0  0  0  0  0  0  0
   15.8928  -22.3645    1.3569 C   0  0  2  0  0  0  0  0  0  0  0  0
   16.3659  -23.2890    2.4392 C   0  0  0  0  0  0  0  0  0  0  0  0
   15.2664  -21.1129    1.9195 C   0  0  2  0  0  0  0  0  0  0  0  0
   14.8107  -20.2737    0.8366 N   0  0  0  0  0  0  0  0  0  0  0  0
   16.1371  -20.3401    2.8037 C   0  0  0  0  0  0  0  0  0  0  0  0
   16.9678  -20.8635    3.6033 O   0  0  0  0  0  0  0  0  0  0  0  0
   16.0587  -13.8936    3.2378 N   0  0  0  0  0  0  0  0  0  0  0  0
   17.0931  -14.2874    4.1180 C   0  0  0  0  0  0  0  0  0  0  0  0
   17.7407  -13.3994    4.7198 O   0  0  0  0  0  0  0  0  0  0  0  0
   17.4003  -15.7259    4.3203 C   0  0  0  0  0  0  0  0  0  0  0  0
   16.5314  -16.5972    3.4642 C   0  0  0  0  0  0  0  0  0  0  0  0
   16.7944  -18.0538    3.6352 C   0  0  2  0  0  0  0  0  0  0  0  0
   16.0562  -18.9196    2.7741 N   0  0  0  0  0  0  0  0  0  0  0  0
   16.6291  -18.4666    5.0552 C   0  0  0  0  0  0  0  0  0  0  0  0
   15.7582  -19.3803    5.2444 O   0  0  0  0  0  0  0  0  0  0  0  0
   17.3658  -17.9046    6.1153 N   0  0  0  0  0  0  0  0  0  0  0  0
   17.1873  -18.3884    7.4611 C   0  0  1  0  0  0  0  0  0  0  0  0
   17.3002  -19.8598    7.5697 C   0  0  0  0  0  0  0  0  0  0  0  0
   17.1759  -20.5266    8.8635 C   0  0  0  0  0  0  0  0  0  0  0  0
   17.3506  -21.9636    8.9862 C   0  0  0  0  0  0  0  0  0  0  0  0
   17.6403  -22.7221    8.0584 O   0  0  0  0  0  0  0  0  0  0  0  0
   18.0226  -17.6304    8.3894 C   0  0  0  0  0  0  0  0  0  0  0  0
   17.9356  -17.8256    9.6170 O   0  0  0  0  0  0  0  0  0  0  0  0
   17.1911  -22.6154   10.2411 O   0  0  0  0  0  0  0  0  0  0  0  0
   18.9107  -16.6942    7.9015 O   0  0  0  0  0  0  0  0  0  0  0  0
  2  1  1  0
  2  3  1  0
  3  4  1  1
  5  3  1  0
  5  6  1  6
  7  5  1  0
  7  8  2  0
  9 10  1  0
 10 12  1  0
 11 10  2  0
 12 13  1  0
 14 13  1  1
 14 15  1  0
 15  7  1  0
 16 14  1  0
 16 18  1  0
 17 16  2  0
 19 18  1  0
 19 24  1  0
 19 20  1  6
 21 20  1  0
 22 23  2  0
 22 21  1  0
 24 25  2  0
 24 27  1  0
 26 22  1  0
M  END
$$$$
