IQE.pdb
     RDKit          3D

 27 26  0  0  1  0  0  0  0  0999 V2000
   27.7335  -18.8920   -2.9504 C   0  0  0  0  0  0  0  0  0  0  0  0
   28.3483  -19.9740   -3.7731 C   0  0  0  0  0  0  0  0  0  0  0  0
   28.4482  -19.6422   -5.2285 C   0  0  2  0  0  0  0  0  0  0  0  0
   28.9625  -18.2412   -5.3779 C   0  0  0  0  0  0  0  0  0  0  0  0
   27.1638  -19.8547   -5.9904 C   0  0  2  0  0  0  0  0  0  0  0  0
   26.6713  -21.1889   -5.7420 N   0  0  0  0  0  0  0  0  0  0  0  0
   27.2660  -19.6320   -7.4316 C   0  0  0  0  0  0  0  0  0  0  0  0
   27.4753  -18.4972   -7.9532 O   0  0  0  0  0  0  0  0  0  0  0  0
   31.1824  -22.4046  -10.8051 N   0  0  0  0  0  0  0  0  0  0  0  0
   30.3926  -21.8445  -11.8357 C   0  0  0  0  0  0  0  0  0  0  0  0
   30.8156  -21.8986  -13.0139 O   0  0  0  0  0  0  0  0  0  0  0  0
   29.0892  -21.2067  -11.5209 C   0  0  0  0  0  0  0  0  0  0  0  0
   28.7486  -21.3449  -10.0677 C   0  0  0  0  0  0  0  0  0  0  0  0
   27.4478  -20.7194   -9.6977 C   0  0  2  0  0  0  0  0  0  0  0  0
   27.1241  -20.7440   -8.3082 N   0  0  0  0  0  0  0  0  0  0  0  0
   26.3315  -21.2846  -10.5029 C   0  0  0  0  0  0  0  0  0  0  0  0
   25.9356  -22.4377  -10.1251 O   0  0  0  0  0  0  0  0  0  0  0  0
   25.7486  -20.6147  -11.5955 N   0  0  0  0  0  0  0  0  0  0  0  0
   24.6139  -21.1853  -12.2766 C   0  0  1  0  0  0  0  0  0  0  0  0
   23.4003  -20.3432  -12.1903 C   0  0  0  0  0  0  0  0  0  0  0  0
   22.1684  -20.7335  -12.8716 C   0  0  0  0  0  0  0  0  0  0  0  0
   20.9696  -19.9183  -12.7787 C   0  0  0  0  0  0  0  0  0  0  0  0
   20.9215  -18.7846  -12.2964 O   0  0  0  0  0  0  0  0  0  0  0  0
   24.9871  -21.6021  -13.6260 C   0  0  0  0  0  0  0  0  0  0  0  0
   24.3320  -22.4824  -14.2163 O   0  0  0  0  0  0  0  0  0  0  0  0
   19.7194  -20.3982  -13.2599 O   0  0  0  0  0  0  0  0  0  0  0  0
   26.0711  -21.0167  -14.2470 O   0  0  0  0  0  0  0  0  0  0  0  0
  2  1  1  0
  2  3  1  0
  3  4  1  1
  5  3  1  0
  5  6  1  6
  7  5  1  0
  7  8  2  0
  9 10  1  0
 10 12  1  0
 11 10  2  0
 12 13  1  0
 14 13  1  1
 14 15  1  0
 15  7  1  0
 16 14  1  0
 16 18  1  0
 17 16  2  0
 19 18  1  0
 19 24  1  0
 19 20  1  6
 21 20  1  0
 22 23  2  0
 22 21  1  0
 24 25  2  0
 24 27  1  0
 26 22  1  0
M  END
$$$$
