IQE.pdb
     RDKit          3D

 27 26  0  0  1  0  0  0  0  0999 V2000
   26.6204  -19.5742   -7.6025 C   0  0  0  0  0  0  0  0  0  0  0  0
   27.0958  -20.5212   -8.6526 C   0  0  0  0  0  0  0  0  0  0  0  0
   26.2330  -20.5493   -9.8746 C   0  0  2  0  0  0  0  0  0  0  0  0
   24.8421  -20.9521   -9.4837 C   0  0  0  0  0  0  0  0  0  0  0  0
   26.7783  -21.4133  -10.9844 C   0  0  2  0  0  0  0  0  0  0  0  0
   28.1465  -21.0411  -11.2567 N   0  0  0  0  0  0  0  0  0  0  0  0
   26.0049  -21.3729  -12.2242 C   0  0  0  0  0  0  0  0  0  0  0  0
   25.9722  -20.3715  -12.9986 O   0  0  0  0  0  0  0  0  0  0  0  0
   25.6903  -25.9066  -16.3025 N   0  0  0  0  0  0  0  0  0  0  0  0
   24.7003  -25.0297  -16.8034 C   0  0  0  0  0  0  0  0  0  0  0  0
   24.2167  -25.2542  -17.9373 O   0  0  0  0  0  0  0  0  0  0  0  0
   24.2477  -23.8684  -15.9965 C   0  0  0  0  0  0  0  0  0  0  0  0
   24.9575  -23.8078  -14.6776 C   0  0  0  0  0  0  0  0  0  0  0  0
   24.5453  -22.6533  -13.8307 C   0  0  2  0  0  0  0  0  0  0  0  0
   25.2415  -22.5160  -12.5928 N   0  0  0  0  0  0  0  0  0  0  0  0
   23.0746  -22.6511  -13.6043 C   0  0  0  0  0  0  0  0  0  0  0  0
   22.7245  -22.4554  -12.3926 O   0  0  0  0  0  0  0  0  0  0  0  0
   22.1329  -22.8475  -14.6324 N   0  0  0  0  0  0  0  0  0  0  0  0
   20.8305  -22.2357  -14.5517 C   0  0  1  0  0  0  0  0  0  0  0  0
   20.8820  -20.8067  -14.1715 C   0  0  0  0  0  0  0  0  0  0  0  0
   20.2915  -20.3438  -12.9181 C   0  0  0  0  0  0  0  0  0  0  0  0
   19.4859  -19.1358  -12.8699 C   0  0  0  0  0  0  0  0  0  0  0  0
   18.3218  -19.0783  -12.4678 O   0  0  0  0  0  0  0  0  0  0  0  0
   20.0537  -22.5322  -15.7528 C   0  0  0  0  0  0  0  0  0  0  0  0
   18.8327  -22.7668  -15.6703 O   0  0  0  0  0  0  0  0  0  0  0  0
   20.0131  -17.8871  -13.3033 O   0  0  0  0  0  0  0  0  0  0  0  0
   20.6779  -22.5522  -16.9829 O   0  0  0  0  0  0  0  0  0  0  0  0
  2  1  1  0
  2  3  1  0
  3  4  1  1
  5  3  1  0
  5  6  1  6
  7  5  1  0
  7  8  2  0
  9 10  1  0
 10 12  1  0
 11 10  2  0
 12 13  1  0
 14 13  1  1
 14 15  1  0
 15  7  1  0
 16 14  1  0
 16 18  1  0
 17 16  2  0
 19 18  1  0
 19 24  1  0
 19 20  1  6
 21 20  1  0
 22 23  2  0
 22 21  1  0
 24 25  2  0
 24 27  1  0
 26 22  1  0
M  END
$$$$
