DRV.pdb
     RDKit          3D

 27 26  0  0  1  0  0  0  0  0999 V2000
   21.2250  -14.9154  -19.2239 N   0  0  0  0  0  0  0  0  0  0  0  0
   22.0113  -15.0224  -18.0121 C   0  0  1  0  0  0  0  0  0  0  0  0
   21.4863  -14.0248  -17.0255 C   0  0  0  0  0  0  0  0  0  0  0  0
   22.2001  -12.7420  -17.2191 C   0  0  0  0  0  0  0  0  0  0  0  0
   22.6690  -12.4534  -18.3389 O   0  0  0  0  0  0  0  0  0  0  0  0
   21.9943  -16.4016  -17.5380 C   0  0  0  0  0  0  0  0  0  0  0  0
   20.8947  -16.9963  -17.4258 O   0  0  0  0  0  0  0  0  0  0  0  0
   22.3721  -11.8306  -16.1865 O   0  0  0  0  0  0  0  0  0  0  0  0
   24.3309  -23.0842  -13.9370 N   0  0  0  0  0  0  0  0  0  0  0  0
   24.8060  -23.5099  -15.1944 C   0  0  0  0  0  0  0  0  0  0  0  0
   25.2394  -24.7274  -15.3245 N   0  0  0  0  0  0  0  0  0  0  0  0
   24.8413  -22.6805  -16.3437 N   0  0  0  0  0  0  0  0  0  0  0  0
   23.9471  -21.5309  -16.4582 C   0  0  0  0  0  0  0  0  0  0  0  0
   24.5078  -20.3351  -15.7286 C   0  0  0  0  0  0  0  0  0  0  0  0
   24.4483  -19.0977  -16.5692 C   0  0  0  0  0  0  0  0  0  0  0  0
   23.0851  -18.4613  -16.5788 C   0  0  2  0  0  0  0  0  0  0  0  0
   23.1530  -17.1460  -17.1837 N   0  0  0  0  0  0  0  0  0  0  0  0
   22.5006  -18.4047  -15.2146 C   0  0  0  0  0  0  0  0  0  0  0  0
   23.0222  -17.6868  -14.2965 O   0  0  0  0  0  0  0  0  0  0  0  0
   25.6326  -25.0953  -16.2149 C   0  0  0  0  0  0  0  0  0  0  0  0
   18.7167  -18.5908  -12.3123 C   0  0  1  0  0  0  0  0  0  0  0  0
   19.2611  -18.7629  -13.6922 C   0  0  0  0  0  0  0  0  0  0  0  0
   18.5128  -19.7329  -14.5355 C   0  0  2  0  0  0  0  0  0  0  0  0
   20.7414  -19.1181  -13.5574 N   0  0  0  0  0  0  0  0  0  0  0  0
   21.3471  -19.1309  -14.8505 C   0  0  0  0  0  0  0  0  0  0  0  0
   20.9635  -20.3303  -12.7726 O   0  0  0  0  0  0  0  0  0  0  0  0
   21.1921  -21.4200  -13.3532 O   0  0  0  0  0  0  0  0  0  0  0  0
  2  1  1  6
  2  3  1  0
  4  3  1  0
  4  5  2  0
  6  2  1  0
  7  6  2  0
  8  4  1  0
  9 10  1  0
 10 11  2  0
 10 12  1  0
 12 13  1  0
 13 14  1  0
 16 15  1  1
 15 14  1  0
 16 17  1  0
 17  6  1  0
 18 19  2  0
 18 16  1  0
 21 20  1  6
 21 23  1  0
 22 21  1  0
 23 24  1  1
 24 18  1  0
 25 23  1  0
 26 25  2  0
 27 25  1  0
M  END
$$$$
