DRV.pdb
     RDKit          3D

 27 26  0  0  1  0  0  0  0  0999 V2000
   15.4251  -24.3569  -11.6719 N   0  0  0  0  0  0  0  0  0  0  0  0
   16.4420  -23.8464  -10.7756 C   0  0  1  0  0  0  0  0  0  0  0  0
   15.9654  -22.5363  -10.2271 C   0  0  0  0  0  0  0  0  0  0  0  0
   16.1149  -21.4991  -11.2732 C   0  0  0  0  0  0  0  0  0  0  0  0
   16.9731  -21.6370  -12.1684 O   0  0  0  0  0  0  0  0  0  0  0  0
   16.7458  -24.8477   -9.7594 C   0  0  0  0  0  0  0  0  0  0  0  0
   15.8015  -25.4153   -9.1583 O   0  0  0  0  0  0  0  0  0  0  0  0
   15.3244  -20.3585  -11.2990 O   0  0  0  0  0  0  0  0  0  0  0  0
   19.6299  -31.0183  -10.4234 N   0  0  0  0  0  0  0  0  0  0  0  0
   20.2447  -30.4049  -11.5342 C   0  0  0  0  0  0  0  0  0  0  0  0
   20.2136  -31.0085  -12.6839 N   0  0  0  0  0  0  0  0  0  0  0  0
   20.9049  -29.1517  -11.4749 N   0  0  0  0  0  0  0  0  0  0  0  0
   20.9465  -28.3919  -10.2278 C   0  0  0  0  0  0  0  0  0  0  0  0
   19.5811  -27.8541   -9.8767 C   0  0  0  0  0  0  0  0  0  0  0  0
   19.6347  -26.9452   -8.6883 C   0  0  0  0  0  0  0  0  0  0  0  0
   18.3176  -26.2764   -8.4028 C   0  0  2  0  0  0  0  0  0  0  0  0
   18.0597  -25.2427   -9.3854 N   0  0  0  0  0  0  0  0  0  0  0  0
   18.2686  -25.7381   -7.0193 C   0  0  0  0  0  0  0  0  0  0  0  0
   18.9246  -24.6940   -6.6879 O   0  0  0  0  0  0  0  0  0  0  0  0
   20.6787  -30.6294  -13.5340 C   0  0  0  0  0  0  0  0  0  0  0  0
   15.2561  -24.9991   -5.1320 C   0  0  1  0  0  0  0  0  0  0  0  0
   16.0106  -25.8495   -4.1636 C   0  0  0  0  0  0  0  0  0  0  0  0
   15.8854  -25.4282   -2.7428 C   0  0  2  0  0  0  0  0  0  0  0  0
   17.4626  -25.9015   -4.6374 N   0  0  0  0  0  0  0  0  0  0  0  0
   17.5042  -26.3379   -5.9963 C   0  0  0  0  0  0  0  0  0  0  0  0
   18.3267  -26.6558   -3.7323 O   0  0  0  0  0  0  0  0  0  0  0  0
   18.4546  -27.8966   -3.8764 O   0  0  0  0  0  0  0  0  0  0  0  0
  2  1  1  6
  2  3  1  0
  4  3  1  0
  4  5  2  0
  6  2  1  0
  7  6  2  0
  8  4  1  0
  9 10  1  0
 10 11  2  0
 10 12  1  0
 12 13  1  0
 13 14  1  0
 16 15  1  6
 15 14  1  0
 16 17  1  0
 17  6  1  0
 18 19  2  0
 18 16  1  0
 21 20  1  1
 21 23  1  0
 22 21  1  0
 23 24  1  1
 24 18  1  0
 25 23  1  0
 26 25  2  0
 27 25  1  0
M  END
$$$$
