DRV.pdb
     RDKit          3D

 27 26  0  0  1  0  0  0  0  0999 V2000
   19.6578  -21.9181  -15.0189 N   0  0  0  0  0  0  0  0  0  0  0  0
   20.5880  -20.8332  -14.7824 C   0  0  1  0  0  0  0  0  0  0  0  0
   20.0067  -19.9416  -13.7282 C   0  0  0  0  0  0  0  0  0  0  0  0
   19.0304  -19.0270  -14.3630 C   0  0  0  0  0  0  0  0  0  0  0  0
   18.9516  -18.9666  -15.6068 O   0  0  0  0  0  0  0  0  0  0  0  0
   21.9002  -21.3773  -14.4516 C   0  0  0  0  0  0  0  0  0  0  0  0
   21.9977  -22.2196  -13.5262 O   0  0  0  0  0  0  0  0  0  0  0  0
   18.1836  -18.2192  -13.6168 O   0  0  0  0  0  0  0  0  0  0  0  0
   29.0571  -23.8839  -16.2914 N   0  0  0  0  0  0  0  0  0  0  0  0
   28.2908  -23.3933  -17.3686 C   0  0  0  0  0  0  0  0  0  0  0  0
   28.0232  -24.1850  -18.3630 N   0  0  0  0  0  0  0  0  0  0  0  0
   27.7861  -22.0702  -17.4363 N   0  0  0  0  0  0  0  0  0  0  0  0
   27.8728  -21.1816  -16.2799 C   0  0  0  0  0  0  0  0  0  0  0  0
   26.8381  -21.5421  -15.2424 C   0  0  0  0  0  0  0  0  0  0  0  0
   25.4619  -21.1392  -15.6722 C   0  0  0  0  0  0  0  0  0  0  0  0
   24.4129  -21.4418  -14.6370 C   0  0  2  0  0  0  0  0  0  0  0  0
   23.1092  -21.0210  -15.1101 N   0  0  0  0  0  0  0  0  0  0  0  0
   24.7443  -20.8223  -13.3284 C   0  0  0  0  0  0  0  0  0  0  0  0
   23.9602  -19.9818  -12.7725 O   0  0  0  0  0  0  0  0  0  0  0  0
   27.4516  -23.8912  -19.1813 C   0  0  0  0  0  0  0  0  0  0  0  0
   23.8516  -20.4749  -10.9784 C   0  0  1  0  0  0  0  0  0  0  0  0
   25.1177  -20.9658  -10.3571 C   0  0  0  0  0  0  0  0  0  0  0  0
   25.3671  -20.4609   -8.9805 C   0  0  2  0  0  0  0  0  0  0  0  0
   26.2566  -20.6361  -11.3213 N   0  0  0  0  0  0  0  0  0  0  0  0
   25.9308  -21.1190  -12.6250 C   0  0  0  0  0  0  0  0  0  0  0  0
   27.5615  -21.0666  -10.8246 O   0  0  0  0  0  0  0  0  0  0  0  0
   28.0467  -22.1610  -11.2035 O   0  0  0  0  0  0  0  0  0  0  0  0
  2  1  1  1
  2  3  1  0
  4  3  1  0
  4  5  2  0
  6  2  1  0
  7  6  2  0
  8  4  1  0
  9 10  1  0
 10 11  2  0
 10 12  1  0
 12 13  1  0
 13 14  1  0
 16 15  1  6
 15 14  1  0
 16 17  1  0
 17  6  1  0
 18 19  2  0
 18 16  1  0
 21 20  1  1
 21 23  1  0
 22 21  1  0
 23 24  1  6
 24 18  1  0
 25 23  1  0
 26 25  2  0
 27 25  1  0
M  END
$$$$
