DRV.pdb
     RDKit          3D

 27 26  0  0  1  0  0  0  0  0999 V2000
   22.0375  -15.0864  -18.7723 N   0  0  0  0  0  0  0  0  0  0  0  0
   22.0590  -15.0708  -17.3240 C   0  0  1  0  0  0  0  0  0  0  0  0
   20.8022  -14.4107  -16.8458 C   0  0  0  0  0  0  0  0  0  0  0  0
   21.1083  -13.0073  -16.4860 C   0  0  0  0  0  0  0  0  0  0  0  0
   22.2694  -12.5699  -16.6181 O   0  0  0  0  0  0  0  0  0  0  0  0
   22.2528  -16.4269  -16.8230 C   0  0  0  0  0  0  0  0  0  0  0  0
   21.3242  -17.2625  -16.9448 O   0  0  0  0  0  0  0  0  0  0  0  0
   20.1381  -12.1425  -15.9988 O   0  0  0  0  0  0  0  0  0  0  0  0
   26.0243  -20.9971  -11.2297 N   0  0  0  0  0  0  0  0  0  0  0  0
   26.1744  -21.8205  -12.3644 C   0  0  0  0  0  0  0  0  0  0  0  0
   25.7597  -23.0502  -12.3094 N   0  0  0  0  0  0  0  0  0  0  0  0
   26.7585  -21.3847  -13.5806 N   0  0  0  0  0  0  0  0  0  0  0  0
   26.5604  -20.0161  -14.0516 C   0  0  0  0  0  0  0  0  0  0  0  0
   25.1401  -19.8042  -14.5150 C   0  0  0  0  0  0  0  0  0  0  0  0
   24.9530  -18.4468  -15.1181 C   0  0  0  0  0  0  0  0  0  0  0  0
   23.5440  -18.2029  -15.5857 C   0  0  2  0  0  0  0  0  0  0  0  0
   23.4396  -16.8904  -16.1914 N   0  0  0  0  0  0  0  0  0  0  0  0
   22.5660  -18.3729  -14.4808 C   0  0  0  0  0  0  0  0  0  0  0  0
   22.6354  -17.6705  -13.4168 O   0  0  0  0  0  0  0  0  0  0  0  0
   25.7997  -23.6971  -13.1234 C   0  0  0  0  0  0  0  0  0  0  0  0
   19.4142  -17.4912  -14.0194 C   0  0  1  0  0  0  0  0  0  0  0  0
   19.2225  -18.9626  -13.8516 C   0  0  0  0  0  0  0  0  0  0  0  0
   18.1498  -19.3410  -12.8933 C   0  0  2  0  0  0  0  0  0  0  0  0
   20.5799  -19.5603  -13.4830 N   0  0  0  0  0  0  0  0  0  0  0  0
   21.5118  -19.3089  -14.5354 C   0  0  0  0  0  0  0  0  0  0  0  0
   20.4901  -20.9603  -13.0751 O   0  0  0  0  0  0  0  0  0  0  0  0
   19.8830  -21.2683  -12.0199 O   0  0  0  0  0  0  0  0  0  0  0  0
  2  1  1  6
  2  3  1  0
  4  3  1  0
  4  5  2  0
  6  2  1  0
  7  6  2  0
  8  4  1  0
  9 10  1  0
 10 11  2  0
 10 12  1  0
 12 13  1  0
 13 14  1  0
 16 15  1  1
 15 14  1  0
 16 17  1  0
 17  6  1  0
 18 19  2  0
 18 16  1  0
 21 20  1  6
 21 23  1  0
 22 21  1  0
 23 24  1  1
 24 18  1  0
 25 23  1  0
 26 25  2  0
 27 25  1  0
M  END
$$$$
