DRV.pdb
     RDKit          3D

 27 26  0  0  1  0  0  0  0  0999 V2000
   25.1267  -19.9202  -18.3370 N   0  0  0  0  0  0  0  0  0  0  0  0
   25.9570  -19.3521  -17.2949 C   0  0  1  0  0  0  0  0  0  0  0  0
   26.6330  -18.1351  -17.8484 C   0  0  0  0  0  0  0  0  0  0  0  0
   27.5297  -18.5484  -18.9518 C   0  0  0  0  0  0  0  0  0  0  0  0
   27.5135  -19.7280  -19.3585 O   0  0  0  0  0  0  0  0  0  0  0  0
   25.1484  -19.1016  -16.1072 C   0  0  0  0  0  0  0  0  0  0  0  0
   25.6319  -18.4204  -15.1704 O   0  0  0  0  0  0  0  0  0  0  0  0
   28.4040  -17.6606  -19.5634 O   0  0  0  0  0  0  0  0  0  0  0  0
   17.0419  -17.7986  -17.3872 N   0  0  0  0  0  0  0  0  0  0  0  0
   18.0868  -16.8873  -17.6437 C   0  0  0  0  0  0  0  0  0  0  0  0
   17.8265  -15.8015  -18.3073 N   0  0  0  0  0  0  0  0  0  0  0  0
   19.4243  -17.0839  -17.2165 N   0  0  0  0  0  0  0  0  0  0  0  0
   19.7651  -18.1914  -16.3268 C   0  0  0  0  0  0  0  0  0  0  0  0
   21.2276  -18.1571  -15.9568 C   0  0  0  0  0  0  0  0  0  0  0  0
   21.5894  -19.2776  -15.0322 C   0  0  0  0  0  0  0  0  0  0  0  0
   23.0593  -19.3234  -14.7147 C   0  0  2  0  0  0  0  0  0  0  0  0
   23.8222  -19.5795  -15.9202 N   0  0  0  0  0  0  0  0  0  0  0  0
   23.3575  -20.3235  -13.6579 C   0  0  0  0  0  0  0  0  0  0  0  0
   23.0780  -21.5596  -13.8135 O   0  0  0  0  0  0  0  0  0  0  0  0
   18.5636  -15.1280  -18.6006 C   0  0  0  0  0  0  0  0  0  0  0  0
   26.4496  -20.5275  -11.3248 C   0  0  1  0  0  0  0  0  0  0  0  0
   25.2494  -20.4345  -10.4412 C   0  0  0  0  0  0  0  0  0  0  0  0
   25.3478  -21.2174   -9.1804 C   0  0  2  0  0  0  0  0  0  0  0  0
   24.0331  -20.8213  -11.2818 N   0  0  0  0  0  0  0  0  0  0  0  0
   23.9608  -19.9764  -12.4307 C   0  0  0  0  0  0  0  0  0  0  0  0
   22.8012  -20.8858  -10.4990 O   0  0  0  0  0  0  0  0  0  0  0  0
   22.0425  -19.8869  -10.4405 O   0  0  0  0  0  0  0  0  0  0  0  0
  2  1  1  6
  2  3  1  0
  4  3  1  0
  4  5  2  0
  6  2  1  0
  7  6  2  0
  8  4  1  0
  9 10  1  0
 10 11  2  0
 10 12  1  0
 12 13  1  0
 13 14  1  0
 16 15  1  6
 15 14  1  0
 16 17  1  0
 17  6  1  0
 18 19  2  0
 18 16  1  0
 21 20  1  1
 21 23  1  0
 22 21  1  0
 23 24  1  6
 24 18  1  0
 25 23  1  0
 26 25  2  0
 27 25  1  0
M  END
$$$$
