DRV.pdb
     RDKit          3D

 27 26  0  0  1  0  0  0  0  0999 V2000
   21.4806  -12.3139  -20.5765 N   0  0  0  0  0  0  0  0  0  0  0  0
   22.0547  -11.6889  -19.4026 C   0  0  1  0  0  0  0  0  0  0  0  0
   23.3772  -11.0996  -19.7873 C   0  0  0  0  0  0  0  0  0  0  0  0
   24.3980  -12.1722  -19.7763 C   0  0  0  0  0  0  0  0  0  0  0  0
   25.5493  -11.9317  -19.3597 O   0  0  0  0  0  0  0  0  0  0  0  0
   21.1081  -10.7279  -18.8476 C   0  0  0  0  0  0  0  0  0  0  0  0
   20.2989  -10.1530  -19.6157 O   0  0  0  0  0  0  0  0  0  0  0  0
   24.1211  -13.4583  -20.2189 O   0  0  0  0  0  0  0  0  0  0  0  0
   15.5052  -13.2782  -13.5253 N   0  0  0  0  0  0  0  0  0  0  0  0
   15.3794  -13.2918  -14.9296 C   0  0  0  0  0  0  0  0  0  0  0  0
   14.3944  -13.9460  -15.4673 N   0  0  0  0  0  0  0  0  0  0  0  0
   16.2736  -12.6262  -15.8057 N   0  0  0  0  0  0  0  0  0  0  0  0
   17.3848  -11.8393  -15.2763 C   0  0  0  0  0  0  0  0  0  0  0  0
   18.1180  -11.1254  -16.3852 C   0  0  0  0  0  0  0  0  0  0  0  0
   19.2270  -10.2719  -15.8534 C   0  0  0  0  0  0  0  0  0  0  0  0
   19.9737   -9.5406  -16.9357 C   0  0  2  0  0  0  0  0  0  0  0  0
   21.0260  -10.3812  -17.4710 N   0  0  0  0  0  0  0  0  0  0  0  0
   20.5071   -8.2429  -16.4482 C   0  0  0  0  0  0  0  0  0  0  0  0
   21.5414   -8.1868  -15.7016 O   0  0  0  0  0  0  0  0  0  0  0  0
   14.2250  -13.9695  -16.4937 C   0  0  0  0  0  0  0  0  0  0  0  0
   18.8799   -4.5228  -17.8347 C   0  0  1  0  0  0  0  0  0  0  0  0
   20.3233   -4.7479  -17.5249 C   0  0  0  0  0  0  0  0  0  0  0  0
   21.1440   -5.1842  -18.6860 C   0  0  1  0  0  0  0  0  0  0  0  0
   20.3910   -5.7274  -16.3539 N   0  0  0  0  0  0  0  0  0  0  0  0
   19.9130   -7.0055  -16.7746 C   0  0  0  0  0  0  0  0  0  0  0  0
   19.7533   -5.2101  -15.1454 O   0  0  0  0  0  0  0  0  0  0  0  0
   18.6383   -5.6598  -14.7832 O   0  0  0  0  0  0  0  0  0  0  0  0
  2  1  1  6
  2  3  1  0
  4  3  1  0
  4  5  2  0
  6  2  1  0
  7  6  2  0
  8  4  1  0
  9 10  1  0
 10 11  2  0
 10 12  1  0
 12 13  1  0
 13 14  1  0
 16 15  1  1
 15 14  1  0
 16 17  1  0
 17  6  1  0
 18 19  2  0
 18 16  1  0
 21 20  1  6
 21 23  1  0
 22 21  1  0
 23 24  1  6
 24 18  1  0
 25 23  1  0
 26 25  2  0
 27 25  1  0
M  END
$$$$
