DRV.pdb
     RDKit          3D

 27 26  0  0  1  0  0  0  0  0999 V2000
   26.9255  -20.4368  -19.3458 N   0  0  0  0  0  0  0  0  0  0  0  0
   26.9581  -19.5430  -18.2064 C   0  0  1  0  0  0  0  0  0  0  0  0
   26.5938  -18.1693  -18.6803 C   0  0  0  0  0  0  0  0  0  0  0  0
   27.8351  -17.4391  -19.0244 C   0  0  0  0  0  0  0  0  0  0  0  0
   28.9447  -17.9864  -18.8618 O   0  0  0  0  0  0  0  0  0  0  0  0
   26.0947  -20.0628  -17.1520 C   0  0  0  0  0  0  0  0  0  0  0  0
   25.1898  -20.8801  -17.4497 O   0  0  0  0  0  0  0  0  0  0  0  0
   27.8144  -16.1466  -19.5297 O   0  0  0  0  0  0  0  0  0  0  0  0
   26.3553  -20.6189   -8.1247 N   0  0  0  0  0  0  0  0  0  0  0  0
   25.0163  -20.7508   -8.5463 C   0  0  0  0  0  0  0  0  0  0  0  0
   24.0839  -20.8784   -7.6510 N   0  0  0  0  0  0  0  0  0  0  0  0
   24.6168  -20.7530   -9.9066 N   0  0  0  0  0  0  0  0  0  0  0  0
   25.5533  -20.3602  -10.9569 C   0  0  0  0  0  0  0  0  0  0  0  0
   24.9137  -20.4678  -12.3193 C   0  0  0  0  0  0  0  0  0  0  0  0
   25.8553  -20.0502  -13.4056 C   0  0  0  0  0  0  0  0  0  0  0  0
   25.2512  -20.1613  -14.7790 C   0  0  2  0  0  0  0  0  0  0  0  0
   26.1983  -19.7090  -15.7785 N   0  0  0  0  0  0  0  0  0  0  0  0
   23.9666  -19.4213  -14.8706 C   0  0  0  0  0  0  0  0  0  0  0  0
   23.9192  -18.1519  -14.7414 O   0  0  0  0  0  0  0  0  0  0  0  0
   23.0819  -21.0181   -7.8945 C   0  0  0  0  0  0  0  0  0  0  0  0
   21.6708  -19.0910  -17.4962 C   0  0  1  0  0  0  0  0  0  0  0  0
   20.7686  -19.6415  -16.4412 C   0  0  0  0  0  0  0  0  0  0  0  0
   19.3825  -19.1031  -16.4708 C   0  0  2  0  0  0  0  0  0  0  0  0
   21.4566  -19.4247  -15.0940 N   0  0  0  0  0  0  0  0  0  0  0  0
   22.7329  -20.0650  -15.1033 C   0  0  0  0  0  0  0  0  0  0  0  0
   20.6075  -19.7831  -13.9604 O   0  0  0  0  0  0  0  0  0  0  0  0
   19.8555  -18.9208  -13.4430 O   0  0  0  0  0  0  0  0  0  0  0  0
  2  1  1  6
  2  3  1  0
  4  3  1  0
  4  5  2  0
  6  2  1  0
  7  6  2  0
  8  4  1  0
  9 10  1  0
 10 11  2  0
 10 12  1  0
 12 13  1  0
 13 14  1  0
 16 15  1  1
 15 14  1  0
 16 17  1  0
 17  6  1  0
 18 19  2  0
 18 16  1  0
 21 20  1  6
 21 23  1  0
 22 21  1  0
 23 24  1  1
 24 18  1  0
 25 23  1  0
 26 25  2  0
 27 25  1  0
M  END
$$$$
