DRV.pdb
     RDKit          3D

 27 26  0  0  1  0  0  0  0  0999 V2000
   18.5179  -22.0014  -11.0743 N   0  0  0  0  0  0  0  0  0  0  0  0
   19.5898  -22.5606  -11.8720 C   0  0  1  0  0  0  0  0  0  0  0  0
   18.9852  -23.1964  -13.0862 C   0  0  0  0  0  0  0  0  0  0  0  0
   18.4613  -24.5306  -12.7145 C   0  0  0  0  0  0  0  0  0  0  0  0
   18.5452  -24.9255  -11.5338 O   0  0  0  0  0  0  0  0  0  0  0  0
   20.5740  -21.5244  -12.1641 C   0  0  0  0  0  0  0  0  0  0  0  0
   20.1820  -20.4123  -12.5942 O   0  0  0  0  0  0  0  0  0  0  0  0
   17.8698  -25.3755  -13.6434 O   0  0  0  0  0  0  0  0  0  0  0  0
   29.3017  -21.3941  -10.9065 N   0  0  0  0  0  0  0  0  0  0  0  0
   28.7303  -21.6045  -12.1782 C   0  0  0  0  0  0  0  0  0  0  0  0
   29.4169  -22.2394  -13.0798 N   0  0  0  0  0  0  0  0  0  0  0  0
   27.4338  -21.1603  -12.5411 N   0  0  0  0  0  0  0  0  0  0  0  0
   26.6721  -20.2858  -11.6526 C   0  0  0  0  0  0  0  0  0  0  0  0
   25.3221  -19.9594  -12.2423 C   0  0  0  0  0  0  0  0  0  0  0  0
   24.2894  -20.9695  -11.8494 C   0  0  0  0  0  0  0  0  0  0  0  0
   22.9321  -20.6746  -12.4277 C   0  0  2  0  0  0  0  0  0  0  0  0
   21.9779  -21.6768  -11.9966 N   0  0  0  0  0  0  0  0  0  0  0  0
   22.9817  -20.5701  -13.9084 C   0  0  0  0  0  0  0  0  0  0  0  0
   23.1572  -21.5998  -14.6427 O   0  0  0  0  0  0  0  0  0  0  0  0
   29.0618  -22.4128  -14.0423 C   0  0  0  0  0  0  0  0  0  0  0  0
   20.5320  -18.4997  -15.9954 C   0  0  1  0  0  0  0  0  0  0  0  0
   21.9000  -18.0716  -16.4140 C   0  0  0  0  0  0  0  0  0  0  0  0
   22.0198  -17.7021  -17.8497 C   0  0  2  0  0  0  0  0  0  0  0  0
   22.8693  -19.1811  -16.0080 N   0  0  0  0  0  0  0  0  0  0  0  0
   22.8400  -19.3427  -14.5895 C   0  0  0  0  0  0  0  0  0  0  0  0
   24.2058  -18.9987  -16.5693 O   0  0  0  0  0  0  0  0  0  0  0  0
   25.0217  -18.2267  -16.0079 O   0  0  0  0  0  0  0  0  0  0  0  0
  2  1  1  1
  2  3  1  0
  4  3  1  0
  4  5  2  0
  6  2  1  0
  7  6  2  0
  8  4  1  0
  9 10  1  0
 10 11  2  0
 10 12  1  0
 12 13  1  0
 13 14  1  0
 16 15  1  6
 15 14  1  0
 16 17  1  0
 17  6  1  0
 18 19  2  0
 18 16  1  0
 21 20  1  1
 21 23  1  0
 22 21  1  0
 23 24  1  6
 24 18  1  0
 25 23  1  0
 26 25  2  0
 27 25  1  0
M  END
$$$$
