QQK.pdb
     RDKit          3D

 28 27  0  0  1  0  0  0  0  0999 V2000
   19.5665  -18.0156  -21.4236 N   0  0  0  0  0  0  0  0  0  0  0  0
   19.2114  -18.9513  -20.3853 C   0  0  0  0  0  0  0  0  0  0  0  0
   18.7073  -20.0455  -20.7639 O   0  0  0  0  0  0  0  0  0  0  0  0
   19.4575  -18.5720  -18.9872 C   0  0  0  0  0  0  0  0  0  0  0  0
   20.0477  -17.2189  -18.8016 C   0  0  0  0  0  0  0  0  0  0  0  0
   21.5359  -17.1845  -18.8668 C   0  0  2  0  0  0  0  0  0  0  0  0
   22.0927  -17.9745  -17.7935 N   0  0  0  0  0  0  0  0  0  0  0  0
   22.0529  -15.7900  -18.8482 C   0  0  0  0  0  0  0  0  0  0  0  0
   22.1294  -15.2168  -17.7361 O   0  0  0  0  0  0  0  0  0  0  0  0
   26.3160  -13.7077  -22.6246 N   0  0  0  0  0  0  0  0  0  0  0  0
   26.5212  -14.1756  -21.3031 C   0  0  0  0  0  0  0  0  0  0  0  0
   27.6768  -14.5636  -20.9939 O   0  0  0  0  0  0  0  0  0  0  0  0
   25.3769  -14.1865  -20.3545 C   0  0  0  0  0  0  0  0  0  0  0  0
   24.1212  -13.6361  -20.9966 C   0  0  0  0  0  0  0  0  0  0  0  0
   23.0223  -13.7400  -19.9638 C   0  0  2  0  0  0  0  0  0  0  0  0
   22.4598  -15.0767  -19.9936 N   0  0  0  0  0  0  0  0  0  0  0  0
   21.9069  -12.7743  -20.2726 C   0  0  0  0  0  0  0  0  0  0  0  0
   21.0189  -13.0719  -21.1054 O   0  0  0  0  0  0  0  0  0  0  0  0
   21.8230  -11.5138  -19.6418 N   0  0  0  0  0  0  0  0  0  0  0  0
   20.7802  -10.5414  -19.7783 C   0  0  1  0  0  0  0  0  0  0  0  0
   20.3215   -9.9104  -18.5455 C   0  0  0  0  0  0  0  0  0  0  0  0
   19.2997   -8.8845  -18.4663 C   0  0  0  0  0  0  0  0  0  0  0  0
   18.8458   -8.2665  -17.2280 C   0  0  0  0  0  0  0  0  0  0  0  0
   17.6758   -7.3710  -17.1502 C   0  0  0  0  0  0  0  0  0  0  0  0
   17.2887   -6.8314  -15.8991 N   0  0  0  0  0  0  0  0  0  0  0  0
   21.3676   -9.3411  -20.6003 C   0  0  0  0  0  0  0  0  0  0  0  0
   22.5673   -9.1380  -20.6640 O   0  0  0  0  0  0  0  0  0  0  0  0
   20.4673   -8.5199  -21.2519 O   0  0  0  0  0  0  0  0  0  0  0  0
  2  1  1  0
  3  2  2  0
  4  2  1  0
  5  6  1  0
  5  4  1  0
  6  8  1  0
  6  7  1  1
  8  9  2  0
 11 10  1  0
 11 12  2  0
 13 11  1  0
 14 13  1  0
 15 14  1  6
 16 15  1  0
 16  8  1  0
 17 15  1  0
 17 18  2  0
 19 17  1  0
 20 19  1  0
 20 26  1  0
 20 21  1  1
 22 21  1  0
 23 22  1  0
 24 23  1  0
 25 24  1  0
 26 28  1  0
 27 26  2  0
M  END
$$$$
