QQK.pdb
     RDKit          3D

 28 27  0  0  1  0  0  0  0  0999 V2000
   18.4425  -14.7537  -16.9112 N   0  0  0  0  0  0  0  0  0  0  0  0
   19.3013  -15.8367  -17.3227 C   0  0  0  0  0  0  0  0  0  0  0  0
   18.7773  -16.7212  -18.0561 O   0  0  0  0  0  0  0  0  0  0  0  0
   20.6987  -15.8332  -16.8684 C   0  0  0  0  0  0  0  0  0  0  0  0
   21.0630  -14.6990  -15.9770 C   0  0  0  0  0  0  0  0  0  0  0  0
   21.3837  -13.4332  -16.6946 C   0  0  2  0  0  0  0  0  0  0  0  0
   22.2961  -13.7026  -17.7814 N   0  0  0  0  0  0  0  0  0  0  0  0
   21.9207  -12.3999  -15.7694 C   0  0  0  0  0  0  0  0  0  0  0  0
   21.2427  -12.1275  -14.7509 O   0  0  0  0  0  0  0  0  0  0  0  0
   27.8017  -10.3955  -15.5210 N   0  0  0  0  0  0  0  0  0  0  0  0
   27.0118  -10.3300  -16.6954 C   0  0  0  0  0  0  0  0  0  0  0  0
   27.6108  -10.2430  -17.7978 O   0  0  0  0  0  0  0  0  0  0  0  0
   25.5308  -10.3666  -16.5732 C   0  0  0  0  0  0  0  0  0  0  0  0
   25.0996  -10.5716  -15.1366 C   0  0  0  0  0  0  0  0  0  0  0  0
   23.5884  -10.6095  -15.1366 C   0  0  2  0  0  0  0  0  0  0  0  0
   23.1355  -11.7121  -15.9632 N   0  0  0  0  0  0  0  0  0  0  0  0
   23.0229   -9.3424  -15.7255 C   0  0  0  0  0  0  0  0  0  0  0  0
   23.4016   -8.9380  -16.8496 O   0  0  0  0  0  0  0  0  0  0  0  0
   22.0570   -8.5740  -15.0397 N   0  0  0  0  0  0  0  0  0  0  0  0
   21.3371   -7.4393  -15.5356 C   0  0  1  0  0  0  0  0  0  0  0  0
   19.9338   -7.6605  -15.8672 C   0  0  0  0  0  0  0  0  0  0  0  0
   19.4407   -8.7074  -16.7411 C   0  0  0  0  0  0  0  0  0  0  0  0
   18.0320   -8.9603  -17.0115 C   0  0  0  0  0  0  0  0  0  0  0  0
   17.5551  -10.0776  -17.8490 C   0  0  0  0  0  0  0  0  0  0  0  0
   17.4648  -11.3785  -17.2960 N   0  0  0  0  0  0  0  0  0  0  0  0
   21.2712   -6.3861  -14.3745 C   0  0  0  0  0  0  0  0  0  0  0  0
   21.6827   -6.6424  -13.2567 O   0  0  0  0  0  0  0  0  0  0  0  0
   20.7259   -5.1514  -14.6706 O   0  0  0  0  0  0  0  0  0  0  0  0
  2  1  1  0
  3  2  2  0
  4  2  1  0
  5  6  1  0
  5  4  1  0
  6  8  1  0
  6  7  1  6
  8  9  2  0
 11 10  1  0
 11 12  2  0
 13 11  1  0
 14 13  1  0
 15 14  1  6
 16 15  1  0
 16  8  1  0
 17 15  1  0
 17 18  2  0
 19 17  1  0
 20 19  1  0
 20 26  1  0
 20 21  1  1
 22 21  1  0
 23 22  1  0
 24 23  1  0
 25 24  1  0
 26 28  1  0
 27 26  2  0
M  END
$$$$
