QQK.pdb
     RDKit          3D

 28 27  0  0  1  0  0  0  0  0999 V2000
   26.7834  -18.9880  -19.5784 N   0  0  0  0  0  0  0  0  0  0  0  0
   28.1789  -19.2320  -19.3085 C   0  0  0  0  0  0  0  0  0  0  0  0
   29.0029  -18.7565  -20.1390 O   0  0  0  0  0  0  0  0  0  0  0  0
   28.5356  -20.0014  -18.1085 C   0  0  0  0  0  0  0  0  0  0  0  0
   27.3868  -20.3679  -17.2370 C   0  0  0  0  0  0  0  0  0  0  0  0
   27.7653  -21.1160  -16.0053 C   0  0  2  0  0  0  0  0  0  0  0  0
   28.4382  -22.3429  -16.3633 N   0  0  0  0  0  0  0  0  0  0  0  0
   26.5865  -21.3696  -15.1344 C   0  0  0  0  0  0  0  0  0  0  0  0
   25.6518  -22.0547  -15.6120 O   0  0  0  0  0  0  0  0  0  0  0  0
   25.9912  -20.4686   -8.8336 N   0  0  0  0  0  0  0  0  0  0  0  0
   24.7747  -21.0806   -9.2249 C   0  0  0  0  0  0  0  0  0  0  0  0
   23.9686  -21.4101   -8.3176 O   0  0  0  0  0  0  0  0  0  0  0  0
   24.5097  -21.3025  -10.6706 C   0  0  0  0  0  0  0  0  0  0  0  0
   25.7125  -20.9393  -11.5152 C   0  0  0  0  0  0  0  0  0  0  0  0
   25.3203  -21.1750  -12.9559 C   0  0  2  0  0  0  0  0  0  0  0  0
   26.4542  -20.8920  -13.8150 N   0  0  0  0  0  0  0  0  0  0  0  0
   24.2035  -20.2482  -13.3633 C   0  0  0  0  0  0  0  0  0  0  0  0
   24.4203  -19.0257  -13.5338 O   0  0  0  0  0  0  0  0  0  0  0  0
   22.8876  -20.7186  -13.5654 N   0  0  0  0  0  0  0  0  0  0  0  0
   21.7273  -19.9429  -13.8878 C   0  0  1  0  0  0  0  0  0  0  0  0
   21.1662  -20.1449  -15.2192 C   0  0  0  0  0  0  0  0  0  0  0  0
   19.9947  -19.4669  -15.7398 C   0  0  0  0  0  0  0  0  0  0  0  0
   19.4416  -19.6803  -17.0702 C   0  0  0  0  0  0  0  0  0  0  0  0
   18.2732  -18.9445  -17.5900 C   0  0  0  0  0  0  0  0  0  0  0  0
   17.8377  -19.1702  -18.9188 N   0  0  0  0  0  0  0  0  0  0  0  0
   20.5731  -20.4139  -12.9352 C   0  0  0  0  0  0  0  0  0  0  0  0
   20.5719  -21.5252  -12.4354 O   0  0  0  0  0  0  0  0  0  0  0  0
   19.5537  -19.5154  -12.6842 O   0  0  0  0  0  0  0  0  0  0  0  0
  2  1  1  0
  3  2  2  0
  4  2  1  0
  5  6  1  0
  5  4  1  0
  6  8  1  0
  6  7  1  6
  8  9  2  0
 11 10  1  0
 11 12  2  0
 13 11  1  0
 14 13  1  0
 15 14  1  1
 16 15  1  0
 16  8  1  0
 17 15  1  0
 17 18  2  0
 19 17  1  0
 20 19  1  0
 20 26  1  0
 20 21  1  6
 22 21  1  0
 23 22  1  0
 24 23  1  0
 25 24  1  0
 26 28  1  0
 27 26  2  0
M  END
$$$$
