PGQ.pdb
     RDKit          3D

 21 21  0  0  1  0  0  0  0  0999 V2000
    9.0901  -13.3271   19.5250 N   0  0  0  0  0  0  0  0  0  0  0  0
    8.4244  -12.7656   18.3567 C   0  0  0  0  0  0  0  0  0  0  0  0
    7.5596  -13.9256   17.9096 C   0  0  0  0  0  0  0  0  0  0  0  0
    7.1548  -14.5466   19.2304 C   0  0  0  0  0  0  0  0  0  0  0  0
    7.9892  -13.8674   20.2755 C   0  0  1  0  0  0  0  0  0  0  0  0
    8.4247  -14.8811   21.2687 C   0  0  0  0  0  0  0  0  0  0  0  0
    7.5257  -15.4088   21.9730 O   0  0  0  0  0  0  0  0  0  0  0  0
    9.7568  -15.2725   21.4586 N   0  0  0  0  0  0  0  0  0  0  0  0
   10.0654  -16.3985   22.3171 C   0  0  0  0  0  0  0  0  0  0  0  0
    9.9975  -15.9732   23.7609 C   0  0  0  0  0  0  0  0  0  0  0  0
   10.7975  -16.4208   24.6008 O   0  0  0  0  0  0  0  0  0  0  0  0
    5.4626  -12.2977   26.2853 N   0  0  0  0  0  0  0  0  0  0  0  0
    6.5006  -12.2284   27.2477 C   0  0  0  0  0  0  0  0  0  0  0  0
    6.4161  -11.4735   28.2495 O   0  0  0  0  0  0  0  0  0  0  0  0
    7.6979  -13.0675   27.0527 C   0  0  0  0  0  0  0  0  0  0  0  0
    7.7103  -13.6378   25.6290 C   0  0  0  0  0  0  0  0  0  0  0  0
    8.9468  -14.5084   25.5299 C   0  0  2  0  0  0  0  0  0  0  0  0
    9.0029  -15.0446   24.1726 N   0  0  0  0  0  0  0  0  0  0  0  0
    8.8400  -15.6296   26.5019 C   0  0  0  0  0  0  0  0  0  0  0  0
    9.1653  -15.4620   27.6850 O   0  0  0  0  0  0  0  0  0  0  0  0
    8.3738  -16.8573   26.0659 O   0  0  0  0  0  0  0  0  0  0  0  0
  1  2  1  0
  1  5  1  0
  2  3  1  0
  3  4  1  0
  5  4  1  0
  5  6  1  1
  6  7  2  0
  8  6  1  0
  9 10  1  0
  9  8  1  0
 10 18  1  0
 11 10  2  0
 13 12  1  0
 13 14  2  0
 15 13  1  0
 16 15  1  0
 17 16  1  6
 17 19  1  0
 18 17  1  0
 19 20  2  0
 19 21  1  0
M  END
$$$$
