PGQ.pdb
     RDKit          3D

 21 21  0  0  1  0  0  0  0  0999 V2000
    7.1553  -18.2270   21.1978 N   0  0  0  0  0  0  0  0  0  0  0  0
    5.7020  -18.1325   21.2439 C   0  0  0  0  0  0  0  0  0  0  0  0
    5.5026  -16.7210   21.7556 C   0  0  0  0  0  0  0  0  0  0  0  0
    6.6461  -15.9798   21.0945 C   0  0  0  0  0  0  0  0  0  0  0  0
    7.5178  -17.0348   20.4805 C   0  0  1  0  0  0  0  0  0  0  0  0
    8.9385  -16.6584   20.6898 C   0  0  0  0  0  0  0  0  0  0  0  0
    9.3493  -15.6338   20.0864 O   0  0  0  0  0  0  0  0  0  0  0  0
    9.8270  -17.3698   21.5073 N   0  0  0  0  0  0  0  0  0  0  0  0
   11.1721  -16.8737   21.7184 C   0  0  0  0  0  0  0  0  0  0  0  0
   11.2751  -16.2425   23.0826 C   0  0  0  0  0  0  0  0  0  0  0  0
   12.3694  -15.8612   23.5332 O   0  0  0  0  0  0  0  0  0  0  0  0
    6.6640  -13.4034   25.8658 N   0  0  0  0  0  0  0  0  0  0  0  0
    6.5088  -14.7923   25.6308 C   0  0  0  0  0  0  0  0  0  0  0  0
    5.3770  -15.3391   25.6580 O   0  0  0  0  0  0  0  0  0  0  0  0
    7.7125  -15.5971   25.3499 C   0  0  0  0  0  0  0  0  0  0  0  0
    8.9684  -14.7300   25.5024 C   0  0  0  0  0  0  0  0  0  0  0  0
   10.1508  -15.6476   25.2646 C   0  0  2  0  0  0  0  0  0  0  0  0
   10.1029  -16.0789   23.8701 N   0  0  0  0  0  0  0  0  0  0  0  0
   10.0409  -16.8346   26.1547 C   0  0  0  0  0  0  0  0  0  0  0  0
    9.7304  -17.9382   25.6863 O   0  0  0  0  0  0  0  0  0  0  0  0
   10.2899  -16.6876   27.5078 O   0  0  0  0  0  0  0  0  0  0  0  0
  1  2  1  0
  1  5  1  0
  2  3  1  0
  3  4  1  0
  5  4  1  0
  5  6  1  1
  6  7  2  0
  8  6  1  0
  9 10  1  0
  9  8  1  0
 10 18  1  0
 11 10  2  0
 13 12  1  0
 13 14  2  0
 15 13  1  0
 16 15  1  0
 17 16  1  1
 17 19  1  0
 18 17  1  0
 19 20  2  0
 19 21  1  0
M  END
$$$$
