PGQ.pdb
     RDKit          3D

 21 21  0  0  1  0  0  0  0  0999 V2000
    7.6229  -15.0865   19.7824 N   0  0  0  0  0  0  0  0  0  0  0  0
    7.5100  -14.4755   18.4644 C   0  0  0  0  0  0  0  0  0  0  0  0
    7.3679  -13.0095   18.8173 C   0  0  0  0  0  0  0  0  0  0  0  0
    8.2694  -12.8862   20.0281 C   0  0  0  0  0  0  0  0  0  0  0  0
    8.6450  -14.2889   20.4040 C   0  0  1  0  0  0  0  0  0  0  0  0
    8.6310  -14.4042   21.8840 C   0  0  0  0  0  0  0  0  0  0  0  0
    9.6295  -13.9482   22.4985 O   0  0  0  0  0  0  0  0  0  0  0  0
    7.5856  -14.9824   22.6165 N   0  0  0  0  0  0  0  0  0  0  0  0
    7.6303  -14.9829   24.0650 C   0  0  0  0  0  0  0  0  0  0  0  0
    8.2286  -16.2753   24.5568 C   0  0  0  0  0  0  0  0  0  0  0  0
    7.5401  -17.3060   24.6542 O   0  0  0  0  0  0  0  0  0  0  0  0
   13.5749  -15.6143   24.2201 N   0  0  0  0  0  0  0  0  0  0  0  0
   12.7890  -16.0737   23.1339 C   0  0  0  0  0  0  0  0  0  0  0  0
   12.9783  -15.6533   21.9642 O   0  0  0  0  0  0  0  0  0  0  0  0
   11.7313  -17.0663   23.4011 C   0  0  0  0  0  0  0  0  0  0  0  0
   11.7285  -17.4397   24.8886 C   0  0  0  0  0  0  0  0  0  0  0  0
   10.2735  -17.5612   25.2944 C   0  0  2  0  0  0  0  0  0  0  0  0
    9.6033  -16.3199   24.9161 N   0  0  0  0  0  0  0  0  0  0  0  0
   10.1857  -17.7427   26.7683 C   0  0  0  0  0  0  0  0  0  0  0  0
    9.7495  -16.8307   27.4838 O   0  0  0  0  0  0  0  0  0  0  0  0
   10.5971  -18.9406   27.3255 O   0  0  0  0  0  0  0  0  0  0  0  0
  1  2  1  0
  1  5  1  0
  2  3  1  0
  3  4  1  0
  5  4  1  0
  5  6  1  1
  6  7  2  0
  8  6  1  0
  9 10  1  0
  9  8  1  0
 10 18  1  0
 11 10  2  0
 13 12  1  0
 13 14  2  0
 15 13  1  0
 16 15  1  0
 17 16  1  1
 17 19  1  0
 18 17  1  0
 19 20  2  0
 19 21  1  0
M  END
$$$$
