PGQ.pdb
     RDKit          3D

 21 21  0  0  1  0  0  0  0  0999 V2000
    7.1980  -14.6865   20.0912 N   0  0  0  0  0  0  0  0  0  0  0  0
    6.4319  -13.5820   19.5288 C   0  0  0  0  0  0  0  0  0  0  0  0
    6.9921  -12.4001   20.2925 C   0  0  0  0  0  0  0  0  0  0  0  0
    8.4503  -12.7815   20.4414 C   0  0  0  0  0  0  0  0  0  0  0  0
    8.5496  -14.2073   19.9863 C   0  0  1  0  0  0  0  0  0  0  0  0
    9.4783  -14.9311   20.8904 C   0  0  0  0  0  0  0  0  0  0  0  0
   10.6896  -14.5938   20.8484 O   0  0  0  0  0  0  0  0  0  0  0  0
    9.0844  -15.9489   21.7693 N   0  0  0  0  0  0  0  0  0  0  0  0
   10.0832  -16.6893   22.5140 C   0  0  0  0  0  0  0  0  0  0  0  0
   10.1612  -16.1646   23.9242 C   0  0  0  0  0  0  0  0  0  0  0  0
   11.2142  -16.2413   24.5810 O   0  0  0  0  0  0  0  0  0  0  0  0
    5.2831  -13.2920   26.4469 N   0  0  0  0  0  0  0  0  0  0  0  0
    6.3909  -12.5207   26.0152 C   0  0  0  0  0  0  0  0  0  0  0  0
    6.2844  -11.2877   25.7936 O   0  0  0  0  0  0  0  0  0  0  0  0
    7.6883  -13.1967   25.8274 C   0  0  0  0  0  0  0  0  0  0  0  0
    7.5677  -14.6761   26.2137 C   0  0  0  0  0  0  0  0  0  0  0  0
    8.9242  -15.2974   25.9483 C   0  0  2  0  0  0  0  0  0  0  0  0
    9.0130  -15.5714   24.5165 N   0  0  0  0  0  0  0  0  0  0  0  0
    9.0392  -16.5730   26.7052 C   0  0  0  0  0  0  0  0  0  0  0  0
    8.6007  -17.6259   26.2225 O   0  0  0  0  0  0  0  0  0  0  0  0
    9.6409  -16.5654   27.9511 O   0  0  0  0  0  0  0  0  0  0  0  0
  1  2  1  0
  1  5  1  0
  2  3  1  0
  3  4  1  0
  5  4  1  0
  5  6  1  1
  6  7  2  0
  8  6  1  0
  9 10  1  0
  9  8  1  0
 10 18  1  0
 11 10  2  0
 13 12  1  0
 13 14  2  0
 15 13  1  0
 16 15  1  0
 17 16  1  6
 17 19  1  0
 18 17  1  0
 19 20  2  0
 19 21  1  0
M  END
$$$$
