PGQ.pdb
     RDKit          3D

 21 21  0  0  1  0  0  0  0  0999 V2000
    8.6881  -14.4074   18.3400 N   0  0  0  0  0  0  0  0  0  0  0  0
    8.4581  -13.0624   17.8290 C   0  0  0  0  0  0  0  0  0  0  0  0
    7.3693  -12.5640   18.7563 C   0  0  0  0  0  0  0  0  0  0  0  0
    7.7577  -13.2033   20.0733 C   0  0  0  0  0  0  0  0  0  0  0  0
    8.8524  -14.1762   19.7496 C   0  0  1  0  0  0  0  0  0  0  0  0
    8.6467  -15.4077   20.5528 C   0  0  0  0  0  0  0  0  0  0  0  0
    8.6079  -16.4962   19.9233 O   0  0  0  0  0  0  0  0  0  0  0  0
    8.4965  -15.4204   21.9459 N   0  0  0  0  0  0  0  0  0  0  0  0
    8.5329  -16.6771   22.6667 C   0  0  0  0  0  0  0  0  0  0  0  0
    9.6530  -16.6555   23.6742 C   0  0  0  0  0  0  0  0  0  0  0  0
   10.8425  -16.6556   23.3125 O   0  0  0  0  0  0  0  0  0  0  0  0
    9.3452  -13.6306   29.0015 N   0  0  0  0  0  0  0  0  0  0  0  0
   10.3974  -14.5284   29.3099 C   0  0  0  0  0  0  0  0  0  0  0  0
   10.9559  -14.5212   30.4363 O   0  0  0  0  0  0  0  0  0  0  0  0
   10.8327  -15.4843   28.2745 C   0  0  0  0  0  0  0  0  0  0  0  0
    9.8568  -15.4541   27.0917 C   0  0  0  0  0  0  0  0  0  0  0  0
   10.3740  -16.4642   26.0872 C   0  0  2  0  0  0  0  0  0  0  0  0
    9.3475  -16.6347   25.0624 N   0  0  0  0  0  0  0  0  0  0  0  0
   10.6118  -17.7634   26.7717 C   0  0  0  0  0  0  0  0  0  0  0  0
   11.7276  -18.0258   27.2407 O   0  0  0  0  0  0  0  0  0  0  0  0
    9.5721  -18.6704   26.8760 O   0  0  0  0  0  0  0  0  0  0  0  0
  1  2  1  0
  1  5  1  0
  2  3  1  0
  3  4  1  0
  5  4  1  0
  5  6  1  1
  6  7  2  0
  8  6  1  0
  9 10  1  0
  9  8  1  0
 10 18  1  0
 11 10  2  0
 13 12  1  0
 13 14  2  0
 15 13  1  0
 16 15  1  0
 17 16  1  1
 17 19  1  0
 18 17  1  0
 19 20  2  0
 19 21  1  0
M  END
$$$$
