PGQ.pdb
     RDKit          3D

 21 21  0  0  1  0  0  0  0  0999 V2000
    7.6709  -14.9203   19.6015 N   0  0  0  0  0  0  0  0  0  0  0  0
    6.8054  -13.9410   18.9572 C   0  0  0  0  0  0  0  0  0  0  0  0
    7.0850  -12.6985   19.7769 C   0  0  0  0  0  0  0  0  0  0  0  0
    8.5602  -12.8481   20.0858 C   0  0  0  0  0  0  0  0  0  0  0  0
    8.9329  -14.2327   19.6456 C   0  0  1  0  0  0  0  0  0  0  0  0
    9.8605  -14.8163   20.6471 C   0  0  0  0  0  0  0  0  0  0  0  0
   10.9759  -14.2511   20.7849 O   0  0  0  0  0  0  0  0  0  0  0  0
    9.5645  -15.9400   21.4302 N   0  0  0  0  0  0  0  0  0  0  0  0
   10.5595  -16.4707   22.3404 C   0  0  0  0  0  0  0  0  0  0  0  0
   10.2510  -16.0295   23.7476 C   0  0  0  0  0  0  0  0  0  0  0  0
   11.0523  -16.2353   24.6757 O   0  0  0  0  0  0  0  0  0  0  0  0
    6.7011  -11.7338   25.6005 N   0  0  0  0  0  0  0  0  0  0  0  0
    6.5637  -12.5071   26.7800 C   0  0  0  0  0  0  0  0  0  0  0  0
    6.1873  -11.9901   27.8624 O   0  0  0  0  0  0  0  0  0  0  0  0
    6.8736  -13.9477   26.7167 C   0  0  0  0  0  0  0  0  0  0  0  0
    7.2577  -14.3374   25.2839 C   0  0  0  0  0  0  0  0  0  0  0  0
    8.5859  -15.0606   25.3810 C   0  0  2  0  0  0  0  0  0  0  0  0
    9.0237  -15.3664   24.0216 N   0  0  0  0  0  0  0  0  0  0  0  0
    8.4038  -16.3272   26.1398 C   0  0  0  0  0  0  0  0  0  0  0  0
    7.9916  -17.3441   25.5655 O   0  0  0  0  0  0  0  0  0  0  0  0
    8.7005  -16.3518   27.4910 O   0  0  0  0  0  0  0  0  0  0  0  0
  1  2  1  0
  1  5  1  0
  2  3  1  0
  3  4  1  0
  5  4  1  0
  5  6  1  1
  6  7  2  0
  8  6  1  0
  9 10  1  0
  9  8  1  0
 10 18  1  0
 11 10  2  0
 13 12  1  0
 13 14  2  0
 15 13  1  0
 16 15  1  0
 17 16  1  6
 17 19  1  0
 18 17  1  0
 19 20  2  0
 19 21  1  0
M  END
$$$$
