PGQ.pdb
     RDKit          3D

 21 21  0  0  1  0  0  0  0  0999 V2000
    7.5293  -15.0754   19.7614 N   0  0  0  0  0  0  0  0  0  0  0  0
    6.6732  -14.0782   19.1322 C   0  0  0  0  0  0  0  0  0  0  0  0
    7.1316  -12.8062   19.8145 C   0  0  0  0  0  0  0  0  0  0  0  0
    8.6166  -13.0532   19.9807 C   0  0  0  0  0  0  0  0  0  0  0  0
    8.8358  -14.4923   19.6188 C   0  0  1  0  0  0  0  0  0  0  0  0
    9.8217  -15.0751   20.5634 C   0  0  0  0  0  0  0  0  0  0  0  0
   10.9800  -14.5844   20.5494 O   0  0  0  0  0  0  0  0  0  0  0  0
    9.5353  -16.1210   21.4509 N   0  0  0  0  0  0  0  0  0  0  0  0
   10.5644  -16.6156   22.3434 C   0  0  0  0  0  0  0  0  0  0  0  0
   10.3874  -16.0103   23.7117 C   0  0  0  0  0  0  0  0  0  0  0  0
   11.2557  -16.1452   24.5912 O   0  0  0  0  0  0  0  0  0  0  0  0
    6.1892  -11.2013   27.2625 N   0  0  0  0  0  0  0  0  0  0  0  0
    6.2169  -12.4586   26.6094 C   0  0  0  0  0  0  0  0  0  0  0  0
    5.1930  -12.9307   26.0530 O   0  0  0  0  0  0  0  0  0  0  0  0
    7.4831  -13.2148   26.5924 C   0  0  0  0  0  0  0  0  0  0  0  0
    7.6706  -13.8898   25.2280 C   0  0  0  0  0  0  0  0  0  0  0  0
    8.9683  -14.6679   25.3128 C   0  0  2  0  0  0  0  0  0  0  0  0
    9.2085  -15.2718   24.0049 N   0  0  0  0  0  0  0  0  0  0  0  0
    8.8353  -15.7391   26.3365 C   0  0  0  0  0  0  0  0  0  0  0  0
    8.3724  -16.8449   26.0252 O   0  0  0  0  0  0  0  0  0  0  0  0
    9.2348  -15.4826   27.6362 O   0  0  0  0  0  0  0  0  0  0  0  0
  1  2  1  0
  1  5  1  0
  2  3  1  0
  3  4  1  0
  5  4  1  0
  5  6  1  1
  6  7  2  0
  8  6  1  0
  9 10  1  0
  9  8  1  0
 10 18  1  0
 11 10  2  0
 13 12  1  0
 13 14  2  0
 15 13  1  0
 16 15  1  0
 17 16  1  6
 17 19  1  0
 18 17  1  0
 19 20  2  0
 19 21  1  0
M  END
$$$$
