PGQ.pdb
     RDKit          3D

 21 21  0  0  1  0  0  0  0  0999 V2000
    8.3697  -15.1032   18.7256 N   0  0  0  0  0  0  0  0  0  0  0  0
    8.3880  -14.4958   17.4013 C   0  0  0  0  0  0  0  0  0  0  0  0
    7.4896  -13.2933   17.6031 C   0  0  0  0  0  0  0  0  0  0  0  0
    7.8252  -12.8815   19.0214 C   0  0  0  0  0  0  0  0  0  0  0  0
    8.6720  -13.9866   19.5796 C   0  0  1  0  0  0  0  0  0  0  0  0
    8.2713  -14.2271   20.9887 C   0  0  0  0  0  0  0  0  0  0  0  0
    8.4964  -13.3003   21.8091 O   0  0  0  0  0  0  0  0  0  0  0  0
    7.6681  -15.4076   21.4428 N   0  0  0  0  0  0  0  0  0  0  0  0
    7.1353  -15.4772   22.7887 C   0  0  0  0  0  0  0  0  0  0  0  0
    8.2370  -15.2327   23.7870 C   0  0  0  0  0  0  0  0  0  0  0  0
    9.4323  -15.2700   23.4468 O   0  0  0  0  0  0  0  0  0  0  0  0
    5.3521  -11.3692   26.7263 N   0  0  0  0  0  0  0  0  0  0  0  0
    6.0886  -12.5605   26.5098 C   0  0  0  0  0  0  0  0  0  0  0  0
    5.5129  -13.6656   26.3426 O   0  0  0  0  0  0  0  0  0  0  0  0
    7.5612  -12.4820   26.4833 C   0  0  0  0  0  0  0  0  0  0  0  0
    8.1627  -13.7090   27.1799 C   0  0  0  0  0  0  0  0  0  0  0  0
    8.8977  -14.4890   26.1086 C   0  0  2  0  0  0  0  0  0  0  0  0
    7.9071  -14.9542   25.1415 N   0  0  0  0  0  0  0  0  0  0  0  0
    9.5742  -15.6605   26.7277 C   0  0  0  0  0  0  0  0  0  0  0  0
    9.1140  -16.7998   26.5727 O   0  0  0  0  0  0  0  0  0  0  0  0
   10.7204  -15.4588   27.4762 O   0  0  0  0  0  0  0  0  0  0  0  0
  1  2  1  0
  1  5  1  0
  2  3  1  0
  3  4  1  0
  5  4  1  0
  5  6  1  1
  6  7  2  0
  8  6  1  0
  9 10  1  0
  9  8  1  0
 10 18  1  0
 11 10  2  0
 13 12  1  0
 13 14  2  0
 15 13  1  0
 16 15  1  0
 17 16  1  1
 17 19  1  0
 18 17  1  0
 19 20  2  0
 19 21  1  0
M  END
$$$$
