PGQ.pdb
     RDKit          3D

 21 21  0  0  1  0  0  0  0  0999 V2000
    8.4081  -15.0778   18.6817 N   0  0  0  0  0  0  0  0  0  0  0  0
    8.4916  -14.3265   17.4360 C   0  0  0  0  0  0  0  0  0  0  0  0
    7.5688  -13.1595   17.7194 C   0  0  0  0  0  0  0  0  0  0  0  0
    7.8210  -12.9063   19.1912 C   0  0  0  0  0  0  0  0  0  0  0  0
    8.6494  -14.0616   19.6699 C   0  0  1  0  0  0  0  0  0  0  0  0
    8.1749  -14.4600   21.0189 C   0  0  0  0  0  0  0  0  0  0  0  0
    8.2905  -13.6069   21.9363 O   0  0  0  0  0  0  0  0  0  0  0  0
    7.6168  -15.7103   21.3173 N   0  0  0  0  0  0  0  0  0  0  0  0
    7.0924  -15.9714   22.6428 C   0  0  0  0  0  0  0  0  0  0  0  0
    8.1077  -15.5707   23.6814 C   0  0  0  0  0  0  0  0  0  0  0  0
    9.3184  -15.5073   23.4056 O   0  0  0  0  0  0  0  0  0  0  0  0
    6.3600  -10.5528   27.0207 N   0  0  0  0  0  0  0  0  0  0  0  0
    6.0628  -11.9209   26.8010 C   0  0  0  0  0  0  0  0  0  0  0  0
    5.0229  -12.4492   27.2705 O   0  0  0  0  0  0  0  0  0  0  0  0
    7.0055  -12.7261   26.0021 C   0  0  0  0  0  0  0  0  0  0  0  0
    7.6784  -13.7787   26.8918 C   0  0  0  0  0  0  0  0  0  0  0  0
    8.5505  -14.6149   25.9770 C   0  0  2  0  0  0  0  0  0  0  0  0
    7.6769  -15.2591   24.9999 N   0  0  0  0  0  0  0  0  0  0  0  0
    9.2507  -15.6549   26.7777 C   0  0  0  0  0  0  0  0  0  0  0  0
    8.8486  -16.8263   26.7659 O   0  0  0  0  0  0  0  0  0  0  0  0
   10.3531  -15.2955   27.5327 O   0  0  0  0  0  0  0  0  0  0  0  0
  1  2  1  0
  1  5  1  0
  2  3  1  0
  3  4  1  0
  5  4  1  0
  5  6  1  1
  6  7  2  0
  8  6  1  0
  9 10  1  0
  9  8  1  0
 10 18  1  0
 11 10  2  0
 13 12  1  0
 13 14  2  0
 15 13  1  0
 16 15  1  0
 17 16  1  1
 17 19  1  0
 18 17  1  0
 19 20  2  0
 19 21  1  0
M  END
$$$$
