TEF.pdb
     RDKit          3D

 28 28  0  0  1  0  0  0  0  0999 V2000
    8.6713  -12.4689   21.0815 C   0  0  0  0  0  0  0  0  0  0  0  0
    7.8515  -12.8753   19.8894 C   0  0  1  0  0  0  0  0  0  0  0  0
    8.0971  -12.0021   18.8351 O   0  0  0  0  0  0  0  0  0  0  0  0
    8.3023  -14.2558   19.4469 C   0  0  2  0  0  0  0  0  0  0  0  0
    7.6579  -14.6636   18.2323 N   0  0  0  0  0  0  0  0  0  0  0  0
    8.0965  -15.2584   20.5423 C   0  0  0  0  0  0  0  0  0  0  0  0
    7.0011  -15.8627   20.6832 O   0  0  0  0  0  0  0  0  0  0  0  0
    9.1284  -15.5692   21.4678 N   0  0  0  0  0  0  0  0  0  0  0  0
    8.9755  -16.6901   22.3888 C   0  0  1  0  0  0  0  0  0  0  0  0
    9.9247  -17.7989   22.0987 C   0  0  0  0  0  0  0  0  0  0  0  0
   11.3136  -17.3346   21.7639 C   0  0  0  0  0  0  0  0  0  0  0  0
   12.2487  -18.4118   21.4070 C   0  0  0  0  0  0  0  0  0  0  0  0
   11.9202  -19.5500   21.0044 O   0  0  0  0  0  0  0  0  0  0  0  0
    9.2923  -16.2147   23.7858 C   0  0  0  0  0  0  0  0  0  0  0  0
   10.1694  -15.3477   23.9622 O   0  0  0  0  0  0  0  0  0  0  0  0
   13.6235  -18.1866   21.5118 O   0  0  0  0  0  0  0  0  0  0  0  0
    8.6204  -16.7250   24.9132 N   0  0  0  0  0  0  0  0  0  0  0  0
    8.8343  -16.2735   26.2811 C   0  0  1  0  0  0  0  0  0  0  0  0
    7.5912  -15.8032   26.9257 C   0  0  0  0  0  0  0  0  0  0  0  0
    7.2607  -14.4270   26.4865 C   0  0  0  0  0  0  0  0  0  0  0  0
    6.1689  -14.2241   25.6452 C   0  0  0  0  0  0  0  0  0  0  0  0
    5.7970  -12.9754   25.2225 C   0  0  0  0  0  0  0  0  0  0  0  0
    6.5233  -11.8835   25.6405 C   0  0  0  0  0  0  0  0  0  0  0  0
    7.6024  -12.0684   26.4703 C   0  0  0  0  0  0  0  0  0  0  0  0
    7.9667  -13.3228   26.8881 C   0  0  0  0  0  0  0  0  0  0  0  0
    9.5018  -17.3386   27.0142 C   0  0  0  0  0  0  0  0  0  0  0  0
   10.0332  -17.1788   28.2783 O   0  0  0  0  0  0  0  0  0  0  0  0
    9.6407  -18.5089   26.5197 O   0  0  0  0  0  0  0  0  0  0  0  0
  2  4  1  0
  2  1  1  1
  2  3  1  0
  4  5  1  6
  6  4  1  0
  6  8  1  0
  7  6  2  0
  9  8  1  0
  9 10  1  6
 11 10  1  0
 12 11  1  0
 13 12  2  0
 14  9  1  0
 15 14  2  0
 16 12  1  0
 17 14  1  0
 18 17  1  0
 18 26  1  0
 19 20  1  0
 18 19  1  1
 20 25  2  0
 21 22  2  0
 21 20  1  0
 22 23  1  0
 23 24  2  0
 25 24  1  0
 26 27  1  0
 28 26  2  0
M  END
$$$$
