TEF.pdb
     RDKit          3D

 28 28  0  0  1  0  0  0  0  0999 V2000
    8.8466  -12.7863   20.6829 C   0  0  0  0  0  0  0  0  0  0  0  0
    7.4647  -13.2802   20.3595 C   0  0  1  0  0  0  0  0  0  0  0  0
    6.9675  -12.5880   19.2604 O   0  0  0  0  0  0  0  0  0  0  0  0
    7.5594  -14.7435   19.9666 C   0  0  2  0  0  0  0  0  0  0  0  0
    6.2956  -15.2613   19.5290 N   0  0  0  0  0  0  0  0  0  0  0  0
    8.1293  -15.5589   21.0881 C   0  0  0  0  0  0  0  0  0  0  0  0
    7.3882  -16.1028   21.9483 O   0  0  0  0  0  0  0  0  0  0  0  0
    9.5297  -15.7526   21.2281 N   0  0  0  0  0  0  0  0  0  0  0  0
   10.0482  -16.6410   22.2625 C   0  0  1  0  0  0  0  0  0  0  0  0
   11.5184  -16.8445   22.1536 C   0  0  0  0  0  0  0  0  0  0  0  0
   12.0695  -17.8235   23.1509 C   0  0  0  0  0  0  0  0  0  0  0  0
   13.5246  -18.0200   23.0744 C   0  0  0  0  0  0  0  0  0  0  0  0
   14.0966  -18.9607   22.4798 O   0  0  0  0  0  0  0  0  0  0  0  0
    9.8063  -16.0065   23.6104 C   0  0  0  0  0  0  0  0  0  0  0  0
   10.0942  -14.8082   23.7928 O   0  0  0  0  0  0  0  0  0  0  0  0
   14.3723  -17.1045   23.7031 O   0  0  0  0  0  0  0  0  0  0  0  0
    9.2581  -16.7334   24.6847 N   0  0  0  0  0  0  0  0  0  0  0  0
    8.8976  -16.1620   25.9747 C   0  0  1  0  0  0  0  0  0  0  0  0
    7.4552  -15.8617   26.0807 C   0  0  0  0  0  0  0  0  0  0  0  0
    7.2160  -14.4015   25.9990 C   0  0  0  0  0  0  0  0  0  0  0  0
    8.0662  -13.5327   26.6798 C   0  0  0  0  0  0  0  0  0  0  0  0
    7.9132  -12.1726   26.6259 C   0  0  0  0  0  0  0  0  0  0  0  0
    6.8874  -11.6436   25.8760 C   0  0  0  0  0  0  0  0  0  0  0  0
    6.0413  -12.4882   25.1993 C   0  0  0  0  0  0  0  0  0  0  0  0
    6.2028  -13.8488   25.2594 C   0  0  0  0  0  0  0  0  0  0  0  0
    9.3844  -17.0503   27.0195 C   0  0  0  0  0  0  0  0  0  0  0  0
   10.0705  -18.2215   26.7676 O   0  0  0  0  0  0  0  0  0  0  0  0
    9.1996  -16.7945   28.2579 O   0  0  0  0  0  0  0  0  0  0  0  0
  2  4  1  0
  2  1  1  6
  2  3  1  0
  4  5  1  1
  6  4  1  0
  6  8  1  0
  7  6  2  0
  9  8  1  0
  9 10  1  6
 11 10  1  0
 12 11  1  0
 13 12  2  0
 14  9  1  0
 15 14  2  0
 16 12  1  0
 17 14  1  0
 18 17  1  0
 18 26  1  0
 19 20  1  0
 18 19  1  6
 20 25  2  0
 21 22  2  0
 21 20  1  0
 22 23  1  0
 23 24  2  0
 25 24  1  0
 26 27  1  0
 28 26  2  0
M  END
$$$$
