TEF.pdb
     RDKit          3D

 28 28  0  0  1  0  0  0  0  0999 V2000
    6.8007  -12.6371   18.5709 C   0  0  0  0  0  0  0  0  0  0  0  0
    6.9985  -13.9160   19.3349 C   0  0  1  0  0  0  0  0  0  0  0  0
    7.7552  -14.8011   18.5744 O   0  0  0  0  0  0  0  0  0  0  0  0
    7.7936  -13.6051   20.5903 C   0  0  2  0  0  0  0  0  0  0  0  0
    9.0450  -12.9737   20.2865 N   0  0  0  0  0  0  0  0  0  0  0  0
    7.9874  -14.8412   21.4161 C   0  0  0  0  0  0  0  0  0  0  0  0
    7.0107  -15.4550   21.9202 O   0  0  0  0  0  0  0  0  0  0  0  0
    9.2812  -15.3725   21.6649 N   0  0  0  0  0  0  0  0  0  0  0  0
    9.4387  -16.5656   22.4895 C   0  0  1  0  0  0  0  0  0  0  0  0
   10.6870  -17.3130   22.1767 C   0  0  0  0  0  0  0  0  0  0  0  0
   10.8614  -18.5660   22.9868 C   0  0  0  0  0  0  0  0  0  0  0  0
   12.1225  -19.2813   22.7422 C   0  0  0  0  0  0  0  0  0  0  0  0
   12.4719  -19.7765   21.6475 O   0  0  0  0  0  0  0  0  0  0  0  0
    9.5475  -16.1436   23.9345 C   0  0  0  0  0  0  0  0  0  0  0  0
   10.3388  -15.2375   24.2585 O   0  0  0  0  0  0  0  0  0  0  0  0
   13.0318  -19.4428   23.7906 O   0  0  0  0  0  0  0  0  0  0  0  0
    8.7736  -16.7479   24.9439 N   0  0  0  0  0  0  0  0  0  0  0  0
    8.8023  -16.3694   26.3498 C   0  0  1  0  0  0  0  0  0  0  0  0
    7.4971  -15.8737   26.8322 C   0  0  0  0  0  0  0  0  0  0  0  0
    7.3253  -14.4396   26.5004 C   0  0  0  0  0  0  0  0  0  0  0  0
    6.1888  -14.0328   25.8048 C   0  0  0  0  0  0  0  0  0  0  0  0
    5.9595  -12.7200   25.4883 C   0  0  0  0  0  0  0  0  0  0  0  0
    6.8796  -11.7694   25.8682 C   0  0  0  0  0  0  0  0  0  0  0  0
    8.0049  -12.1560   26.5547 C   0  0  0  0  0  0  0  0  0  0  0  0
    8.2254  -13.4730   26.8670 C   0  0  0  0  0  0  0  0  0  0  0  0
    9.3151  -17.4957   27.1154 C   0  0  0  0  0  0  0  0  0  0  0  0
    9.6376  -18.7158   26.5558 O   0  0  0  0  0  0  0  0  0  0  0  0
    9.4988  -17.4210   28.3779 O   0  0  0  0  0  0  0  0  0  0  0  0
  2  4  1  0
  2  1  1  6
  2  3  1  0
  4  5  1  6
  6  4  1  0
  6  8  1  0
  7  6  2  0
  9  8  1  0
  9 10  1  6
 11 10  1  0
 12 11  1  0
 13 12  2  0
 14  9  1  0
 15 14  2  0
 16 12  1  0
 17 14  1  0
 18 17  1  0
 18 26  1  0
 19 20  1  0
 18 19  1  1
 20 25  2  0
 21 22  2  0
 21 20  1  0
 22 23  1  0
 23 24  2  0
 25 24  1  0
 26 27  1  0
 28 26  2  0
M  END
$$$$
