TEF.pdb
     RDKit          3D

 28 28  0  0  1  0  0  0  0  0999 V2000
    9.6285  -12.6583   20.4372 C   0  0  0  0  0  0  0  0  0  0  0  0
    8.5488  -12.9540   19.4347 C   0  0  1  0  0  0  0  0  0  0  0  0
    8.8427  -12.3200   18.2322 O   0  0  0  0  0  0  0  0  0  0  0  0
    8.5406  -14.4484   19.1673 C   0  0  2  0  0  0  0  0  0  0  0  0
    7.5474  -14.8115   18.1984 N   0  0  0  0  0  0  0  0  0  0  0  0
    8.3702  -15.2157   20.4438 C   0  0  0  0  0  0  0  0  0  0  0  0
    7.2580  -15.2772   21.0305 O   0  0  0  0  0  0  0  0  0  0  0  0
    9.4562  -15.9059   21.0458 N   0  0  0  0  0  0  0  0  0  0  0  0
    9.2530  -16.6641   22.2755 C   0  0  1  0  0  0  0  0  0  0  0  0
    9.8185  -18.0384   22.1968 C   0  0  0  0  0  0  0  0  0  0  0  0
    9.1787  -18.8967   21.1429 C   0  0  0  0  0  0  0  0  0  0  0  0
    9.7330  -20.2548   21.0414 C   0  0  0  0  0  0  0  0  0  0  0  0
   10.6902  -20.5919   20.3095 O   0  0  0  0  0  0  0  0  0  0  0  0
    9.9829  -15.9684   23.3985 C   0  0  0  0  0  0  0  0  0  0  0  0
   11.1316  -15.5241   23.2106 O   0  0  0  0  0  0  0  0  0  0  0  0
    9.1742  -21.2806   21.8078 O   0  0  0  0  0  0  0  0  0  0  0  0
    9.4014  -15.8018   24.6701 N   0  0  0  0  0  0  0  0  0  0  0  0
   10.0891  -15.2555   25.8317 C   0  0  1  0  0  0  0  0  0  0  0  0
    9.7944  -13.8240   26.0459 C   0  0  0  0  0  0  0  0  0  0  0  0
    8.3395  -13.6094   26.2283 C   0  0  0  0  0  0  0  0  0  0  0  0
    7.5082  -13.5908   25.1105 C   0  0  0  0  0  0  0  0  0  0  0  0
    6.1530  -13.4204   25.2132 C   0  0  0  0  0  0  0  0  0  0  0  0
    5.5909  -13.2621   26.4596 C   0  0  0  0  0  0  0  0  0  0  0  0
    6.3984  -13.2784   27.5708 C   0  0  0  0  0  0  0  0  0  0  0  0
    7.7543  -13.4498   27.4576 C   0  0  0  0  0  0  0  0  0  0  0  0
    9.7775  -16.0913   26.9815 C   0  0  0  0  0  0  0  0  0  0  0  0
    8.9494  -17.1943   26.9217 O   0  0  0  0  0  0  0  0  0  0  0  0
   10.2603  -15.8471   28.1392 O   0  0  0  0  0  0  0  0  0  0  0  0
  2  4  1  0
  2  1  1  1
  2  3  1  0
  4  5  1  6
  6  4  1  0
  6  8  1  0
  7  6  2  0
  9  8  1  0
  9 10  1  6
 11 10  1  0
 12 11  1  0
 13 12  2  0
 14  9  1  0
 15 14  2  0
 16 12  1  0
 17 14  1  0
 18 17  1  0
 18 26  1  0
 19 20  1  0
 18 19  1  1
 20 25  2  0
 21 22  2  0
 21 20  1  0
 22 23  1  0
 23 24  2  0
 25 24  1  0
 26 27  1  0
 28 26  2  0
M  END
$$$$
