TEF.pdb
     RDKit          3D

 28 28  0  0  1  0  0  0  0  0999 V2000
    9.0003  -12.4709   20.9900 C   0  0  0  0  0  0  0  0  0  0  0  0
    7.7092  -12.9703   20.4052 C   0  0  1  0  0  0  0  0  0  0  0  0
    7.4412  -12.2930   19.2204 O   0  0  0  0  0  0  0  0  0  0  0  0
    7.8776  -14.4386   20.0580 C   0  0  2  0  0  0  0  0  0  0  0  0
    6.7469  -14.9497   19.3387 N   0  0  0  0  0  0  0  0  0  0  0  0
    8.1575  -15.2469   21.2891 C   0  0  0  0  0  0  0  0  0  0  0  0
    7.2273  -15.6616   22.0291 O   0  0  0  0  0  0  0  0  0  0  0  0
    9.4842  -15.5793   21.6732 N   0  0  0  0  0  0  0  0  0  0  0  0
    9.7216  -16.6172   22.6705 C   0  0  1  0  0  0  0  0  0  0  0  0
   10.9870  -17.3616   22.4273 C   0  0  0  0  0  0  0  0  0  0  0  0
   11.1812  -18.5396   23.3392 C   0  0  0  0  0  0  0  0  0  0  0  0
   12.3756  -19.3466   23.0491 C   0  0  0  0  0  0  0  0  0  0  0  0
   12.8161  -20.2701   23.7692 O   0  0  0  0  0  0  0  0  0  0  0  0
    9.8668  -15.9637   24.0231 C   0  0  0  0  0  0  0  0  0  0  0  0
   10.6357  -14.9935   24.1643 O   0  0  0  0  0  0  0  0  0  0  0  0
   13.1058  -19.0936   21.8852 O   0  0  0  0  0  0  0  0  0  0  0  0
    9.1524  -16.4196   25.1477 N   0  0  0  0  0  0  0  0  0  0  0  0
    9.2353  -15.8317   26.4775 C   0  0  1  0  0  0  0  0  0  0  0  0
    7.9080  -15.5131   27.0422 C   0  0  0  0  0  0  0  0  0  0  0  0
    7.3251  -14.3254   26.3745 C   0  0  0  0  0  0  0  0  0  0  0  0
    7.7630  -13.0546   26.7409 C   0  0  0  0  0  0  0  0  0  0  0  0
    7.2813  -11.9186   26.1461 C   0  0  0  0  0  0  0  0  0  0  0  0
    6.3340  -12.0326   25.1541 C   0  0  0  0  0  0  0  0  0  0  0  0
    5.8929  -13.2794   24.7825 C   0  0  0  0  0  0  0  0  0  0  0  0
    6.3814  -14.4109   25.3840 C   0  0  0  0  0  0  0  0  0  0  0  0
   10.0277  -16.7158   27.3189 C   0  0  0  0  0  0  0  0  0  0  0  0
   10.4540  -16.3819   28.5888 O   0  0  0  0  0  0  0  0  0  0  0  0
   10.3854  -17.8769   26.9227 O   0  0  0  0  0  0  0  0  0  0  0  0
  2  4  1  0
  2  1  1  6
  2  3  1  0
  4  5  1  1
  6  4  1  0
  6  8  1  0
  7  6  2  0
  9  8  1  0
  9 10  1  6
 11 10  1  0
 12 11  1  0
 13 12  2  0
 14  9  1  0
 15 14  2  0
 16 12  1  0
 17 14  1  0
 18 17  1  0
 18 26  1  0
 19 20  1  0
 18 19  1  1
 20 25  2  0
 21 22  2  0
 21 20  1  0
 22 23  1  0
 23 24  2  0
 25 24  1  0
 26 27  1  0
 28 26  2  0
M  END
$$$$
