TEF.pdb
     RDKit          3D

 28 28  0  0  1  0  0  0  0  0999 V2000
    8.7593  -12.2011   18.4978 C   0  0  0  0  0  0  0  0  0  0  0  0
    8.8469  -13.1996   19.6174 C   0  0  1  0  0  0  0  0  0  0  0  0
    7.8131  -12.9787   20.5211 O   0  0  0  0  0  0  0  0  0  0  0  0
    8.6499  -14.5883   19.0364 C   0  0  2  0  0  0  0  0  0  0  0  0
    7.3943  -14.7077   18.3536 N   0  0  0  0  0  0  0  0  0  0  0  0
    8.7998  -15.6350   20.0992 C   0  0  0  0  0  0  0  0  0  0  0  0
    7.7975  -16.1843   20.6270 O   0  0  0  0  0  0  0  0  0  0  0  0
   10.0789  -16.0515   20.5558 N   0  0  0  0  0  0  0  0  0  0  0  0
   10.1915  -17.0228   21.6385 C   0  0  1  0  0  0  0  0  0  0  0  0
   11.5147  -17.7035   21.6572 C   0  0  0  0  0  0  0  0  0  0  0  0
   11.6434  -18.8044   20.6432 C   0  0  0  0  0  0  0  0  0  0  0  0
   12.9329  -19.5105   20.6680 C   0  0  0  0  0  0  0  0  0  0  0  0
   13.0766  -20.7495   20.7668 O   0  0  0  0  0  0  0  0  0  0  0  0
   10.0698  -16.2952   22.9552 C   0  0  0  0  0  0  0  0  0  0  0  0
   10.8887  -15.4036   23.2495 O   0  0  0  0  0  0  0  0  0  0  0  0
   14.1172  -18.7750   20.5763 O   0  0  0  0  0  0  0  0  0  0  0  0
    9.0473  -16.5941   23.8760 N   0  0  0  0  0  0  0  0  0  0  0  0
    8.6108  -15.7092   24.9471 C   0  0  1  0  0  0  0  0  0  0  0  0
    7.7221  -14.6311   24.4676 C   0  0  0  0  0  0  0  0  0  0  0  0
    7.3491  -13.7252   25.5795 C   0  0  0  0  0  0  0  0  0  0  0  0
    6.0962  -13.8570   26.1744 C   0  0  0  0  0  0  0  0  0  0  0  0
    5.6999  -13.0669   27.2209 C   0  0  0  0  0  0  0  0  0  0  0  0
    6.5650  -12.1109   27.7027 C   0  0  0  0  0  0  0  0  0  0  0  0
    7.8037  -11.9696   27.1259 C   0  0  0  0  0  0  0  0  0  0  0  0
    8.1912  -12.7657   26.0785 C   0  0  0  0  0  0  0  0  0  0  0  0
    8.0215  -16.5229   25.9998 C   0  0  0  0  0  0  0  0  0  0  0  0
    8.3113  -16.3643   27.3402 O   0  0  0  0  0  0  0  0  0  0  0  0
    7.1850  -17.4534   25.7400 O   0  0  0  0  0  0  0  0  0  0  0  0
  2  4  1  0
  2  1  1  6
  2  3  1  0
  4  5  1  1
  6  4  1  0
  6  8  1  0
  7  6  2  0
  9  8  1  0
  9 10  1  1
 11 10  1  0
 12 11  1  0
 13 12  2  0
 14  9  1  0
 15 14  2  0
 16 12  1  0
 17 14  1  0
 18 17  1  0
 18 26  1  0
 19 20  1  0
 18 19  1  6
 20 25  2  0
 21 22  2  0
 21 20  1  0
 22 23  1  0
 23 24  2  0
 25 24  1  0
 26 27  1  0
 28 26  2  0
M  END
$$$$
