TEF.pdb
     RDKit          3D

 28 28  0  0  1  0  0  0  0  0999 V2000
    7.4670  -13.1953   18.0574 C   0  0  0  0  0  0  0  0  0  0  0  0
    7.6706  -14.4299   18.8896 C   0  0  1  0  0  0  0  0  0  0  0  0
    8.9177  -14.9792   18.6115 O   0  0  0  0  0  0  0  0  0  0  0  0
    7.6713  -14.0256   20.3530 C   0  0  2  0  0  0  0  0  0  0  0  0
    8.7173  -13.0896   20.6473 N   0  0  0  0  0  0  0  0  0  0  0  0
    7.7489  -15.2334   21.2377 C   0  0  0  0  0  0  0  0  0  0  0  0
    6.9125  -16.1698   21.1469 O   0  0  0  0  0  0  0  0  0  0  0  0
    8.7694  -15.3725   22.2161 N   0  0  0  0  0  0  0  0  0  0  0  0
    8.8713  -16.5977   23.0015 C   0  0  1  0  0  0  0  0  0  0  0  0
    9.2212  -17.7803   22.1687 C   0  0  0  0  0  0  0  0  0  0  0  0
   10.1382  -17.4631   21.0218 C   0  0  0  0  0  0  0  0  0  0  0  0
   10.5418  -18.6288   20.2217 C   0  0  0  0  0  0  0  0  0  0  0  0
   11.7175  -19.0286   20.0692 O   0  0  0  0  0  0  0  0  0  0  0  0
    9.9891  -16.4382   24.0031 C   0  0  0  0  0  0  0  0  0  0  0  0
   11.0221  -17.1262   23.8948 O   0  0  0  0  0  0  0  0  0  0  0  0
    9.5638  -19.3775   19.5623 O   0  0  0  0  0  0  0  0  0  0  0  0
    9.9030  -15.5250   25.0714 N   0  0  0  0  0  0  0  0  0  0  0  0
    9.2128  -15.7809   26.3280 C   0  0  1  0  0  0  0  0  0  0  0  0
    7.7535  -15.5752   26.2274 C   0  0  0  0  0  0  0  0  0  0  0  0
    7.4246  -14.1304   26.2487 C   0  0  0  0  0  0  0  0  0  0  0  0
    6.0885  -13.7361   26.2633 C   0  0  0  0  0  0  0  0  0  0  0  0
    5.7184  -12.4179   26.3067 C   0  0  0  0  0  0  0  0  0  0  0  0
    6.6955  -11.4491   26.3369 C   0  0  0  0  0  0  0  0  0  0  0  0
    8.0172  -11.8232   26.3230 C   0  0  0  0  0  0  0  0  0  0  0  0
    8.3777  -13.1457   26.2795 C   0  0  0  0  0  0  0  0  0  0  0  0
    9.5817  -17.1110   26.7887 C   0  0  0  0  0  0  0  0  0  0  0  0
    8.9193  -18.2614   26.4097 O   0  0  0  0  0  0  0  0  0  0  0  0
   10.5597  -17.2963   27.5902 O   0  0  0  0  0  0  0  0  0  0  0  0
  2  4  1  0
  2  1  1  6
  2  3  1  0
  4  5  1  6
  6  4  1  0
  6  8  1  0
  7  6  2  0
  9  8  1  0
  9 10  1  6
 11 10  1  0
 12 11  1  0
 13 12  2  0
 14  9  1  0
 15 14  2  0
 16 12  1  0
 17 14  1  0
 18 17  1  0
 18 26  1  0
 19 20  1  0
 18 19  1  6
 20 25  2  0
 21 22  2  0
 21 20  1  0
 22 23  1  0
 23 24  2  0
 25 24  1  0
 26 27  1  0
 28 26  2  0
M  END
$$$$
