TEF.pdb
     RDKit          3D

 28 28  0  0  1  0  0  0  0  0999 V2000
    8.5885  -12.5894   20.7252 C   0  0  0  0  0  0  0  0  0  0  0  0
    7.3784  -13.2216   20.0973 C   0  0  1  0  0  0  0  0  0  0  0  0
    7.0363  -12.5275   18.9416 O   0  0  0  0  0  0  0  0  0  0  0  0
    7.7384  -14.6374   19.6840 C   0  0  2  0  0  0  0  0  0  0  0  0
    6.6723  -15.2701   18.9629 N   0  0  0  0  0  0  0  0  0  0  0  0
    8.1550  -15.4485   20.8739 C   0  0  0  0  0  0  0  0  0  0  0  0
    7.3224  -16.1255   21.5322 O   0  0  0  0  0  0  0  0  0  0  0  0
    9.5066  -15.4878   21.3093 N   0  0  0  0  0  0  0  0  0  0  0  0
    9.9495  -16.5235   22.2363 C   0  0  1  0  0  0  0  0  0  0  0  0
   11.3886  -16.8622   22.0662 C   0  0  0  0  0  0  0  0  0  0  0  0
   11.8568  -17.9790   22.9551 C   0  0  0  0  0  0  0  0  0  0  0  0
   13.2825  -18.3119   22.8189 C   0  0  0  0  0  0  0  0  0  0  0  0
   14.0682  -17.7999   21.9905 O   0  0  0  0  0  0  0  0  0  0  0  0
    9.7989  -16.0067   23.6463 C   0  0  0  0  0  0  0  0  0  0  0  0
   10.3561  -14.9437   23.9805 O   0  0  0  0  0  0  0  0  0  0  0  0
   13.8443  -19.2724   23.6637 O   0  0  0  0  0  0  0  0  0  0  0  0
    9.0388  -16.6951   24.6114 N   0  0  0  0  0  0  0  0  0  0  0  0
    8.9966  -16.3597   26.0279 C   0  0  1  0  0  0  0  0  0  0  0  0
    7.6502  -15.9484   26.4751 C   0  0  0  0  0  0  0  0  0  0  0  0
    7.5190  -14.4724   26.4558 C   0  0  0  0  0  0  0  0  0  0  0  0
    6.4242  -13.8941   25.8173 C   0  0  0  0  0  0  0  0  0  0  0  0
    6.2328  -12.5381   25.7841 C   0  0  0  0  0  0  0  0  0  0  0  0
    7.1499  -11.7176   26.4005 C   0  0  0  0  0  0  0  0  0  0  0  0
    8.2344  -12.2739   27.0341 C   0  0  0  0  0  0  0  0  0  0  0  0
    8.4172  -13.6328   27.0619 C   0  0  0  0  0  0  0  0  0  0  0  0
    9.5410  -17.4810   26.7788 C   0  0  0  0  0  0  0  0  0  0  0  0
    9.8229  -17.4306   28.1293 O   0  0  0  0  0  0  0  0  0  0  0  0
    9.7978  -18.6014   26.2203 O   0  0  0  0  0  0  0  0  0  0  0  0
  2  4  1  0
  2  1  1  6
  2  3  1  0
  4  5  1  1
  6  4  1  0
  6  8  1  0
  7  6  2  0
  9  8  1  0
  9 10  1  6
 11 10  1  0
 12 11  1  0
 13 12  2  0
 14  9  1  0
 15 14  2  0
 16 12  1  0
 17 14  1  0
 18 17  1  0
 18 26  1  0
 19 20  1  0
 18 19  1  1
 20 25  2  0
 21 22  2  0
 21 20  1  0
 22 23  1  0
 23 24  2  0
 25 24  1  0
 26 27  1  0
 28 26  2  0
M  END
$$$$
