TEF.pdb
     RDKit          3D

 28 28  0  0  1  0  0  0  0  0999 V2000
    9.2373  -12.8121   17.9256 C   0  0  0  0  0  0  0  0  0  0  0  0
    9.3407  -13.6060   19.1973 C   0  0  1  0  0  0  0  0  0  0  0  0
    9.3632  -12.7412   20.2863 O   0  0  0  0  0  0  0  0  0  0  0  0
    8.0953  -14.4644   19.3280 C   0  0  2  0  0  0  0  0  0  0  0  0
    6.8964  -13.6841   19.2248 N   0  0  0  0  0  0  0  0  0  0  0  0
    8.1277  -15.2574   20.5998 C   0  0  0  0  0  0  0  0  0  0  0  0
    7.4219  -14.9380   21.5920 O   0  0  0  0  0  0  0  0  0  0  0  0
    8.9561  -16.4030   20.7394 N   0  0  0  0  0  0  0  0  0  0  0  0
    8.9728  -17.1486   21.9932 C   0  0  1  0  0  0  0  0  0  0  0  0
    9.6945  -18.4447   21.8752 C   0  0  0  0  0  0  0  0  0  0  0  0
    9.7794  -19.2098   23.1653 C   0  0  0  0  0  0  0  0  0  0  0  0
   10.5664  -20.4495   23.0898 C   0  0  0  0  0  0  0  0  0  0  0  0
   11.8011  -20.5111   22.8974 O   0  0  0  0  0  0  0  0  0  0  0  0
    9.7186  -16.3400   23.0265 C   0  0  0  0  0  0  0  0  0  0  0  0
   10.7921  -15.7848   22.7237 O   0  0  0  0  0  0  0  0  0  0  0  0
    9.9210  -21.6795   23.2402 O   0  0  0  0  0  0  0  0  0  0  0  0
    9.2355  -16.1893   24.3406 N   0  0  0  0  0  0  0  0  0  0  0  0
    9.9143  -15.4474   25.3940 C   0  0  1  0  0  0  0  0  0  0  0  0
    9.8622  -13.9861   25.1846 C   0  0  0  0  0  0  0  0  0  0  0  0
    8.5560  -13.4396   25.6222 C   0  0  0  0  0  0  0  0  0  0  0  0
    7.8794  -12.5465   24.7942 C   0  0  0  0  0  0  0  0  0  0  0  0
    6.6585  -12.0239   25.1298 C   0  0  0  0  0  0  0  0  0  0  0  0
    6.0786  -12.3908   26.3229 C   0  0  0  0  0  0  0  0  0  0  0  0
    6.7342  -13.2707   27.1494 C   0  0  0  0  0  0  0  0  0  0  0  0
    7.9563  -13.7886   26.8044 C   0  0  0  0  0  0  0  0  0  0  0  0
    9.3685  -15.8707   26.6748 C   0  0  0  0  0  0  0  0  0  0  0  0
    8.2784  -16.7083   26.8010 O   0  0  0  0  0  0  0  0  0  0  0  0
    9.8752  -15.4819   27.7817 O   0  0  0  0  0  0  0  0  0  0  0  0
  2  4  1  0
  2  1  1  6
  2  3  1  0
  4  5  1  1
  6  4  1  0
  6  8  1  0
  7  6  2  0
  9  8  1  0
  9 10  1  6
 11 10  1  0
 12 11  1  0
 13 12  2  0
 14  9  1  0
 15 14  2  0
 16 12  1  0
 17 14  1  0
 18 17  1  0
 18 26  1  0
 19 20  1  0
 18 19  1  6
 20 25  2  0
 21 22  2  0
 21 20  1  0
 22 23  1  0
 23 24  2  0
 25 24  1  0
 26 27  1  0
 28 26  2  0
M  END
$$$$
