KSM.pdb
     RDKit          3D

 24 23  0  0  1  0  0  0  0  0999 V2000
   17.6442  -10.6098  -15.5794 N   0  0  0  0  0  0  0  0  0  0  0  0
   18.4763   -9.8458  -16.4826 C   0  0  1  0  0  0  0  0  0  0  0  0
   17.6121   -9.1666  -17.4915 C   0  0  0  0  0  0  0  0  0  0  0  0
   16.9650  -10.0458  -18.4969 C   0  0  0  0  0  0  0  0  0  0  0  0
   15.5607   -9.7237  -18.8663 C   0  0  0  0  0  0  0  0  0  0  0  0
   14.9900  -10.6871  -19.8796 C   0  0  0  0  0  0  0  0  0  0  0  0
   15.0961  -12.0342  -19.3539 N   0  0  0  0  0  0  0  0  0  0  0  0
   19.1989   -8.8287  -15.6806 C   0  0  0  0  0  0  0  0  0  0  0  0
   18.4991   -8.1690  -14.8426 O   0  0  0  0  0  0  0  0  0  0  0  0
   23.3869   -8.2164  -15.6069 O   0  0  0  0  0  0  0  0  0  0  0  0
   22.5900   -7.9497  -14.5210 C   0  0  0  0  0  0  0  0  0  0  0  0
   21.2012   -7.5415  -14.8866 C   0  0  2  0  0  0  0  0  0  0  0  0
   20.5742   -8.5333  -15.7656 N   0  0  0  0  0  0  0  0  0  0  0  0
   21.2081   -6.2012  -15.5255 C   0  0  0  0  0  0  0  0  0  0  0  0
   21.3702   -6.1211  -16.7692 O   0  0  0  0  0  0  0  0  0  0  0  0
   17.1706   -1.9594  -14.5696 C   0  0  0  0  0  0  0  0  0  0  0  0
   18.3631   -0.7323  -15.1243 S   0  0  0  0  0  0  0  0  0  0  0  0
   19.9448   -1.5159  -15.6226 C   0  0  0  0  0  0  0  0  0  0  0  0
   19.9655   -2.8797  -15.0158 C   0  0  0  0  0  0  0  0  0  0  0  0
   21.1682   -3.6880  -15.3695 C   0  0  2  0  0  0  0  0  0  0  0  0
   21.0363   -5.0087  -14.7662 N   0  0  0  0  0  0  0  0  0  0  0  0
   22.3866   -2.9941  -14.8793 C   0  0  0  0  0  0  0  0  0  0  0  0
   23.0422   -2.0663  -15.6543 O   0  0  0  0  0  0  0  0  0  0  0  0
   22.8301   -3.2536  -13.7414 O   0  0  0  0  0  0  0  0  0  0  0  0
  2  1  1  1
  2  8  1  0
  3  2  1  0
  4  5  1  0
  4  3  1  0
  5  6  1  0
  7  6  1  0
  8  9  2  0
  8 13  1  0
 10 11  1  0
 12 11  1  6
 13 12  1  0
 14 12  1  0
 14 15  2  0
 16 17  1  0
 17 18  1  0
 18 19  1  0
 20 19  1  1
 20 21  1  0
 21 14  1  0
 22 20  1  0
 23 22  1  0
 24 22  2  0
M  END
$$$$
