KSM.pdb
     RDKit          3D

 24 23  0  0  1  0  0  0  0  0999 V2000
   17.1172  -12.6542  -14.5983 N   0  0  0  0  0  0  0  0  0  0  0  0
   16.3766  -11.4128  -14.5500 C   0  0  1  0  0  0  0  0  0  0  0  0
   14.9445  -11.7061  -14.2509 C   0  0  0  0  0  0  0  0  0  0  0  0
   14.1793  -12.3908  -15.3224 C   0  0  0  0  0  0  0  0  0  0  0  0
   12.7697  -12.7526  -15.0149 C   0  0  0  0  0  0  0  0  0  0  0  0
   12.0999  -13.4960  -16.1458 C   0  0  0  0  0  0  0  0  0  0  0  0
   10.7435  -13.8225  -15.7510 N   0  0  0  0  0  0  0  0  0  0  0  0
   16.9527  -10.5846  -13.4627 C   0  0  0  0  0  0  0  0  0  0  0  0
   16.8894  -11.0738  -12.2863 O   0  0  0  0  0  0  0  0  0  0  0  0
   18.6474   -6.6916  -13.8506 O   0  0  0  0  0  0  0  0  0  0  0  0
   19.0487   -7.5478  -12.8550 C   0  0  0  0  0  0  0  0  0  0  0  0
   18.0017   -8.5368  -12.4615 C   0  0  2  0  0  0  0  0  0  0  0  0
   17.5551   -9.3201  -13.6175 N   0  0  0  0  0  0  0  0  0  0  0  0
   16.8551   -7.8467  -11.8182 C   0  0  0  0  0  0  0  0  0  0  0  0
   15.9530   -7.3594  -12.5450 O   0  0  0  0  0  0  0  0  0  0  0  0
   11.3952   -7.7113   -6.4571 C   0  0  0  0  0  0  0  0  0  0  0  0
   12.7817   -8.4254   -7.3534 S   0  0  0  0  0  0  0  0  0  0  0  0
   13.7789   -7.1290   -8.1835 C   0  0  0  0  0  0  0  0  0  0  0  0
   14.8759   -7.8264   -8.9175 C   0  0  0  0  0  0  0  0  0  0  0  0
   15.7045   -6.9297   -9.7745 C   0  0  2  0  0  0  0  0  0  0  0  0
   16.7531   -7.7239  -10.4032 N   0  0  0  0  0  0  0  0  0  0  0  0
   16.2814   -5.8470   -8.9370 C   0  0  0  0  0  0  0  0  0  0  0  0
   15.5363   -4.7499   -8.5731 O   0  0  0  0  0  0  0  0  0  0  0  0
   17.4663   -5.9283   -8.5520 O   0  0  0  0  0  0  0  0  0  0  0  0
  2  1  1  1
  2  8  1  0
  3  2  1  0
  4  5  1  0
  4  3  1  0
  5  6  1  0
  7  6  1  0
  8  9  2  0
  8 13  1  0
 10 11  1  0
 12 11  1  6
 13 12  1  0
 14 12  1  0
 14 15  2  0
 16 17  1  0
 17 18  1  0
 18 19  1  0
 20 19  1  1
 20 21  1  0
 21 14  1  0
 22 20  1  0
 23 22  1  0
 24 22  2  0
M  END
$$$$
