KSM.pdb
     RDKit          3D

 24 23  0  0  1  0  0  0  0  0999 V2000
   17.3811  -12.5755  -18.7117 N   0  0  0  0  0  0  0  0  0  0  0  0
   17.1270  -11.8939  -17.4616 C   0  0  1  0  0  0  0  0  0  0  0  0
   17.4569  -12.8066  -16.3283 C   0  0  0  0  0  0  0  0  0  0  0  0
   16.7212  -14.0950  -16.2903 C   0  0  0  0  0  0  0  0  0  0  0  0
   17.0313  -15.0125  -15.1613 C   0  0  0  0  0  0  0  0  0  0  0  0
   16.3312  -16.3448  -15.2853 C   0  0  0  0  0  0  0  0  0  0  0  0
   16.6554  -17.1520  -14.1253 N   0  0  0  0  0  0  0  0  0  0  0  0
   18.0054  -10.6999  -17.4109 C   0  0  0  0  0  0  0  0  0  0  0  0
   19.1915  -10.8523  -17.8549 O   0  0  0  0  0  0  0  0  0  0  0  0
   17.0785   -6.9542  -15.6624 O   0  0  0  0  0  0  0  0  0  0  0  0
   17.8495   -7.0007  -16.7975 C   0  0  0  0  0  0  0  0  0  0  0  0
   18.5727   -8.2949  -16.9743 C   0  0  2  0  0  0  0  0  0  0  0  0
   17.6453   -9.4290  -16.9199 N   0  0  0  0  0  0  0  0  0  0  0  0
   19.6375   -8.4357  -15.9490 C   0  0  0  0  0  0  0  0  0  0  0  0
   19.3798   -9.0540  -14.8856 O   0  0  0  0  0  0  0  0  0  0  0  0
   27.0608  -10.2838  -15.1061 C   0  0  0  0  0  0  0  0  0  0  0  0
   25.6348   -9.7622  -16.0706 S   0  0  0  0  0  0  0  0  0  0  0  0
   24.3130   -9.0842  -14.9948 C   0  0  0  0  0  0  0  0  0  0  0  0
   23.1465   -8.7817  -15.8758 C   0  0  0  0  0  0  0  0  0  0  0  0
   22.0127   -8.1078  -15.1792 C   0  0  2  0  0  0  0  0  0  0  0  0
   20.9385   -7.8893  -16.1405 N   0  0  0  0  0  0  0  0  0  0  0  0
   22.4857   -6.8231  -14.6028 C   0  0  0  0  0  0  0  0  0  0  0  0
   23.0498   -6.7657  -13.3499 O   0  0  0  0  0  0  0  0  0  0  0  0
   22.3718   -5.7700  -15.2638 O   0  0  0  0  0  0  0  0  0  0  0  0
  2  1  1  6
  2  8  1  0
  3  2  1  0
  4  5  1  0
  4  3  1  0
  5  6  1  0
  7  6  1  0
  8  9  2  0
  8 13  1  0
 10 11  1  0
 12 11  1  1
 13 12  1  0
 14 12  1  0
 14 15  2  0
 16 17  1  0
 17 18  1  0
 18 19  1  0
 20 19  1  6
 20 21  1  0
 21 14  1  0
 22 20  1  0
 23 22  1  0
 24 22  2  0
M  END
$$$$
