KSM.pdb
     RDKit          3D

 24 23  0  0  1  0  0  0  0  0999 V2000
   24.8100  -35.2045  -13.4803 N   0  0  0  0  0  0  0  0  0  0  0  0
   24.5104  -33.9617  -12.8039 C   0  0  1  0  0  0  0  0  0  0  0  0
   23.0389  -33.7190  -12.8505 C   0  0  0  0  0  0  0  0  0  0  0  0
   22.4918  -33.2629  -14.1525 C   0  0  0  0  0  0  0  0  0  0  0  0
   23.1417  -32.0795  -14.7766 C   0  0  0  0  0  0  0  0  0  0  0  0
   22.5172  -31.7028  -16.0990 C   0  0  0  0  0  0  0  0  0  0  0  0
   23.2597  -30.5944  -16.6668 N   0  0  0  0  0  0  0  0  0  0  0  0
   24.9480  -34.0977  -11.3933 C   0  0  0  0  0  0  0  0  0  0  0  0
   24.5616  -35.1479  -10.7810 O   0  0  0  0  0  0  0  0  0  0  0  0
   27.0193  -31.1797   -9.2756 O   0  0  0  0  0  0  0  0  0  0  0  0
   27.1865  -32.4728   -8.8452 C   0  0  0  0  0  0  0  0  0  0  0  0
   26.0893  -33.3902   -9.2735 C   0  0  2  0  0  0  0  0  0  0  0  0
   25.7432  -33.1770  -10.6821 N   0  0  0  0  0  0  0  0  0  0  0  0
   24.8979  -33.2111   -8.4056 C   0  0  0  0  0  0  0  0  0  0  0  0
   23.8514  -32.7236   -8.9022 O   0  0  0  0  0  0  0  0  0  0  0  0
   18.5327  -35.0005   -5.7822 C   0  0  0  0  0  0  0  0  0  0  0  0
   20.1018  -35.0854   -6.6575 S   0  0  0  0  0  0  0  0  0  0  0  0
   21.3692  -34.0260   -5.8603 C   0  0  0  0  0  0  0  0  0  0  0  0
   22.5987  -34.1083   -6.7030 C   0  0  0  0  0  0  0  0  0  0  0  0
   23.7628  -33.3488   -6.1618 C   0  0  2  0  0  0  0  0  0  0  0  0
   24.9122  -33.5767   -7.0293 N   0  0  0  0  0  0  0  0  0  0  0  0
   24.0405  -33.8005   -4.7744 C   0  0  0  0  0  0  0  0  0  0  0  0
   23.3548  -33.2801   -3.7018 O   0  0  0  0  0  0  0  0  0  0  0  0
   24.9129  -34.6700   -4.5704 O   0  0  0  0  0  0  0  0  0  0  0  0
  2  1  1  6
  2  8  1  0
  3  2  1  0
  4  5  1  0
  4  3  1  0
  5  6  1  0
  7  6  1  0
  8  9  2  0
  8 13  1  0
 10 11  1  0
 12 11  1  1
 13 12  1  0
 14 12  1  0
 14 15  2  0
 16 17  1  0
 17 18  1  0
 18 19  1  0
 20 19  1  6
 20 21  1  0
 21 14  1  0
 22 20  1  0
 23 22  1  0
 24 22  2  0
M  END
$$$$
