KSM.pdb
     RDKit          3D

 24 23  0  0  1  0  0  0  0  0999 V2000
   20.5180  -12.1243  -16.9832 N   0  0  0  0  0  0  0  0  0  0  0  0
   19.2687  -11.4834  -17.3302 C   0  0  1  0  0  0  0  0  0  0  0  0
   18.1372  -12.3921  -16.9838 C   0  0  0  0  0  0  0  0  0  0  0  0
   18.1509  -13.7291  -17.6280 C   0  0  0  0  0  0  0  0  0  0  0  0
   17.7357  -13.7913  -19.0550 C   0  0  0  0  0  0  0  0  0  0  0  0
   17.8224  -15.1867  -19.6257 C   0  0  0  0  0  0  0  0  0  0  0  0
   17.2453  -16.1166  -18.6746 N   0  0  0  0  0  0  0  0  0  0  0  0
   19.1654  -10.2348  -16.5363 C   0  0  0  0  0  0  0  0  0  0  0  0
   18.0950   -9.5573  -16.6863 O   0  0  0  0  0  0  0  0  0  0  0  0
   22.2815   -8.4676  -14.3108 O   0  0  0  0  0  0  0  0  0  0  0  0
   20.9885   -8.2680  -13.8939 C   0  0  0  0  0  0  0  0  0  0  0  0
   19.9785   -8.4428  -14.9794 C   0  0  2  0  0  0  0  0  0  0  0  0
   20.1368   -9.7404  -15.6431 N   0  0  0  0  0  0  0  0  0  0  0  0
   20.0783   -7.3334  -15.9613 C   0  0  0  0  0  0  0  0  0  0  0  0
   20.8096   -7.4804  -16.9727 O   0  0  0  0  0  0  0  0  0  0  0  0
   15.6534   -2.0873  -16.9558 C   0  0  0  0  0  0  0  0  0  0  0  0
   16.2938   -3.0231  -18.3520 S   0  0  0  0  0  0  0  0  0  0  0  0
   18.0577   -3.4631  -18.1082 C   0  0  0  0  0  0  0  0  0  0  0  0
   18.0964   -4.5692  -17.1064 C   0  0  0  0  0  0  0  0  0  0  0  0
   19.4720   -5.0179  -16.7440 C   0  0  2  0  0  0  0  0  0  0  0  0
   19.3684   -6.1115  -15.7855 N   0  0  0  0  0  0  0  0  0  0  0  0
   20.2261   -3.8732  -16.1718 C   0  0  0  0  0  0  0  0  0  0  0  0
   20.4790   -3.7858  -14.8229 O   0  0  0  0  0  0  0  0  0  0  0  0
   20.6418   -2.9685  -16.9251 O   0  0  0  0  0  0  0  0  0  0  0  0
  2  1  1  1
  2  8  1  0
  3  2  1  0
  4  5  1  0
  4  3  1  0
  5  6  1  0
  7  6  1  0
  8  9  2  0
  8 13  1  0
 10 11  1  0
 12 11  1  1
 13 12  1  0
 14 12  1  0
 14 15  2  0
 16 17  1  0
 17 18  1  0
 18 19  1  0
 20 19  1  1
 20 21  1  0
 21 14  1  0
 22 20  1  0
 23 22  1  0
 24 22  2  0
M  END
$$$$
