KSM.pdb
     RDKit          3D

 24 23  0  0  1  0  0  0  0  0999 V2000
   26.5414  -26.6537  -16.9884 N   0  0  0  0  0  0  0  0  0  0  0  0
   26.4993  -25.3157  -17.5362 C   0  0  1  0  0  0  0  0  0  0  0  0
   25.1544  -25.0716  -18.1343 C   0  0  0  0  0  0  0  0  0  0  0  0
   24.2283  -26.2310  -18.1574 C   0  0  0  0  0  0  0  0  0  0  0  0
   23.7594  -26.6898  -19.4924 C   0  0  0  0  0  0  0  0  0  0  0  0
   22.7208  -27.7821  -19.4004 C   0  0  0  0  0  0  0  0  0  0  0  0
   21.4033  -27.1798  -19.4631 N   0  0  0  0  0  0  0  0  0  0  0  0
   26.7289  -24.3637  -16.4222 C   0  0  0  0  0  0  0  0  0  0  0  0
   26.6100  -24.8352  -15.2429 O   0  0  0  0  0  0  0  0  0  0  0  0
   27.0707  -20.1715  -16.7110 O   0  0  0  0  0  0  0  0  0  0  0  0
   27.8515  -20.8231  -15.7886 C   0  0  0  0  0  0  0  0  0  0  0  0
   27.3105  -22.1546  -15.3840 C   0  0  2  0  0  0  0  0  0  0  0  0
   27.0621  -23.0009  -16.5551 N   0  0  0  0  0  0  0  0  0  0  0  0
   26.0714  -21.9869  -14.5831 C   0  0  0  0  0  0  0  0  0  0  0  0
   24.9594  -22.1807  -15.1354 O   0  0  0  0  0  0  0  0  0  0  0  0
   23.5140  -20.8117   -7.1401 C   0  0  0  0  0  0  0  0  0  0  0  0
   24.8156  -20.8921   -8.3789 S   0  0  0  0  0  0  0  0  0  0  0  0
   24.1224  -21.1170  -10.0621 C   0  0  0  0  0  0  0  0  0  0  0  0
   25.2787  -21.1888  -11.0036 C   0  0  0  0  0  0  0  0  0  0  0  0
   24.8967  -21.4446  -12.4226 C   0  0  2  0  0  0  0  0  0  0  0  0
   26.1124  -21.6132  -13.2095 N   0  0  0  0  0  0  0  0  0  0  0  0
   24.0865  -20.3056  -12.9251 C   0  0  0  0  0  0  0  0  0  0  0  0
   22.7139  -20.3118  -12.8408 O   0  0  0  0  0  0  0  0  0  0  0  0
   24.6568  -19.3192  -13.4355 O   0  0  0  0  0  0  0  0  0  0  0  0
  2  1  1  1
  2  8  1  0
  3  2  1  0
  4  5  1  0
  4  3  1  0
  5  6  1  0
  7  6  1  0
  8  9  2  0
  8 13  1  0
 10 11  1  0
 12 11  1  6
 13 12  1  0
 14 12  1  0
 14 15  2  0
 16 17  1  0
 17 18  1  0
 18 19  1  0
 20 19  1  1
 20 21  1  0
 21 14  1  0
 22 20  1  0
 23 22  1  0
 24 22  2  0
M  END
$$$$
