YPF.pdb
     RDKit          3D

 31 33  0  0  1  0  0  0  0  0999 V2000
   10.7735  -23.0792   15.6362 O   0  0  0  0  0  0  0  0  0  0  0  0
   10.9728  -22.1376   16.6191 C   0  0  0  0  0  0  0  0  0  0  0  0
   12.2425  -21.7131   16.9810 C   0  0  0  0  0  0  0  0  0  0  0  0
   12.4270  -20.7665   17.9701 C   0  0  0  0  0  0  0  0  0  0  0  0
   11.3428  -20.2195   18.6237 C   0  0  0  0  0  0  0  0  0  0  0  0
   11.4607  -19.2100   19.6851 C   0  0  0  0  0  0  0  0  0  0  0  0
   10.8448  -17.8776   19.2516 C   0  0  2  0  0  0  0  0  0  0  0  0
   11.7510  -17.3488   18.2502 N   0  0  0  0  0  0  0  0  0  0  0  0
   10.8068  -16.9799   20.4252 C   0  0  0  0  0  0  0  0  0  0  0  0
   11.8543  -16.3619   20.7394 O   0  0  0  0  0  0  0  0  0  0  0  0
   10.0885  -20.6517   18.2526 C   0  0  0  0  0  0  0  0  0  0  0  0
    9.8867  -21.5960   17.2671 C   0  0  0  0  0  0  0  0  0  0  0  0
    9.6476  -16.7806   21.2150 N   0  0  0  0  0  0  0  0  0  0  0  0
    8.3503  -17.3472   20.9203 C   0  0  0  0  0  0  0  0  0  0  0  0
    7.4276  -16.1975   21.3499 C   0  0  0  0  0  0  0  0  0  0  0  0
    8.0497  -15.8339   22.6829 C   0  0  0  0  0  0  0  0  0  0  0  0
    9.5288  -16.0120   22.4150 C   0  0  1  0  0  0  0  0  0  0  0  0
   10.1787  -16.7287   23.5593 C   0  0  0  0  0  0  0  0  0  0  0  0
   10.2519  -17.9916   23.5987 O   0  0  0  0  0  0  0  0  0  0  0  0
   10.7459  -16.0396   24.6573 N   0  0  0  0  0  0  0  0  0  0  0  0
   11.4412  -16.7063   25.7554 C   0  0  1  0  0  0  0  0  0  0  0  0
   11.9623  -15.5845   26.6244 C   0  0  0  0  0  0  0  0  0  0  0  0
   10.9333  -14.8222   27.3254 C   0  0  0  0  0  0  0  0  0  0  0  0
   10.8761  -14.9214   28.7066 C   0  0  0  0  0  0  0  0  0  0  0  0
    9.9404  -14.2304   29.4513 C   0  0  0  0  0  0  0  0  0  0  0  0
    9.0432  -13.4225   28.7930 C   0  0  0  0  0  0  0  0  0  0  0  0
    9.0760  -13.3040   27.4195 C   0  0  0  0  0  0  0  0  0  0  0  0
   10.0338  -14.0148   26.6907 C   0  0  0  0  0  0  0  0  0  0  0  0
   10.5184  -17.5383   26.5526 C   0  0  0  0  0  0  0  0  0  0  0  0
   11.0021  -18.2860   27.4394 O   0  0  0  0  0  0  0  0  0  0  0  0
    9.1452  -17.5489   26.3877 O   0  0  0  0  0  0  0  0  0  0  0  0
  2  1  1  0
  3  2  2  0
  4  3  1  0
  5 11  1  0
  5  4  2  0
  6  5  1  0
  7  6  1  0
  7  8  1  6
  9  7  1  0
  9 10  2  0
 11 12  2  0
 12  2  1  0
 13  9  1  0
 14 13  1  0
 15 14  1  0
 16 15  1  0
 16 17  1  0
 17 13  1  0
 17 18  1  1
 19 18  2  0
 20 18  1  0
 21 29  1  0
 21 20  1  0
 21 22  1  1
 23 22  1  0
 24 23  2  0
 25 24  1  0
 26 27  1  0
 26 25  2  0
 27 28  2  0
 28 23  1  0
 29 31  1  0
 30 29  2  0
M  END
$$$$
