YPF.pdb
     RDKit          3D

 31 33  0  0  1  0  0  0  0  0999 V2000
    8.9883  -12.9593   19.3055 O   0  0  0  0  0  0  0  0  0  0  0  0
    8.4007  -13.3742   20.4782 C   0  0  0  0  0  0  0  0  0  0  0  0
    9.0941  -13.3924   21.6791 C   0  0  0  0  0  0  0  0  0  0  0  0
    8.4905  -13.8117   22.8488 C   0  0  0  0  0  0  0  0  0  0  0  0
    7.1746  -14.2243   22.8463 C   0  0  0  0  0  0  0  0  0  0  0  0
    6.4667  -14.6838   24.0494 C   0  0  0  0  0  0  0  0  0  0  0  0
    6.1996  -16.1898   23.9923 C   0  0  2  0  0  0  0  0  0  0  0  0
    5.2249  -16.4421   25.0363 N   0  0  0  0  0  0  0  0  0  0  0  0
    7.4616  -16.8970   24.2954 C   0  0  0  0  0  0  0  0  0  0  0  0
    7.8539  -16.9351   25.4881 O   0  0  0  0  0  0  0  0  0  0  0  0
    6.4999  -14.2002   21.6455 C   0  0  0  0  0  0  0  0  0  0  0  0
    7.0876  -13.7845   20.4685 C   0  0  0  0  0  0  0  0  0  0  0  0
    8.2523  -17.5351   23.3081 N   0  0  0  0  0  0  0  0  0  0  0  0
    7.9747  -17.4993   21.8895 C   0  0  0  0  0  0  0  0  0  0  0  0
    8.3854  -18.9204   21.4778 C   0  0  0  0  0  0  0  0  0  0  0  0
    9.7081  -19.0425   22.2069 C   0  0  0  0  0  0  0  0  0  0  0  0
    9.4373  -18.3112   23.5042 C   0  0  1  0  0  0  0  0  0  0  0  0
   10.5928  -17.4206   23.8465 C   0  0  0  0  0  0  0  0  0  0  0  0
   11.0922  -16.6230   23.0001 O   0  0  0  0  0  0  0  0  0  0  0  0
   11.1904  -17.4187   25.1290 N   0  0  0  0  0  0  0  0  0  0  0  0
   12.4049  -16.6738   25.4513 C   0  0  1  0  0  0  0  0  0  0  0  0
   11.9910  -15.2203   25.4165 C   0  0  0  0  0  0  0  0  0  0  0  0
   10.9826  -14.8454   26.4035 C   0  0  0  0  0  0  0  0  0  0  0  0
   11.2692  -15.0611   27.7421 C   0  0  0  0  0  0  0  0  0  0  0  0
   10.3772  -14.7303   28.7435 C   0  0  0  0  0  0  0  0  0  0  0  0
    9.1716  -14.1707   28.3910 C   0  0  0  0  0  0  0  0  0  0  0  0
    8.8588  -13.9442   27.0671 C   0  0  0  0  0  0  0  0  0  0  0  0
    9.7803  -14.2886   26.0743 C   0  0  0  0  0  0  0  0  0  0  0  0
   12.8938  -16.9984   26.8058 C   0  0  0  0  0  0  0  0  0  0  0  0
   13.9998  -16.5267   27.1714 O   0  0  0  0  0  0  0  0  0  0  0  0
   12.2093  -17.7934   27.7074 O   0  0  0  0  0  0  0  0  0  0  0  0
  2  1  1  0
  3  2  2  0
  4  3  1  0
  5 11  1  0
  5  4  2  0
  6  5  1  0
  7  6  1  0
  7  8  1  1
  9  7  1  0
  9 10  2  0
 11 12  2  0
 12  2  1  0
 13  9  1  0
 14 13  1  0
 15 14  1  0
 16 15  1  0
 16 17  1  0
 17 13  1  0
 17 18  1  6
 19 18  2  0
 20 18  1  0
 21 29  1  0
 21 20  1  0
 21 22  1  1
 23 22  1  0
 24 23  2  0
 25 24  1  0
 26 27  1  0
 26 25  2  0
 27 28  2  0
 28 23  1  0
 29 31  1  0
 30 29  2  0
M  END
$$$$
