YPF.pdb
     RDKit          3D

 31 33  0  0  1  0  0  0  0  0999 V2000
    5.1163  -19.6720   21.7975 O   0  0  0  0  0  0  0  0  0  0  0  0
    6.0850  -19.3138   20.8887 C   0  0  0  0  0  0  0  0  0  0  0  0
    5.7698  -18.9347   19.5925 C   0  0  0  0  0  0  0  0  0  0  0  0
    6.7537  -18.5776   18.6909 C   0  0  0  0  0  0  0  0  0  0  0  0
    8.0810  -18.5909   19.0646 C   0  0  0  0  0  0  0  0  0  0  0  0
    9.1812  -18.2252   18.1617 C   0  0  0  0  0  0  0  0  0  0  0  0
    9.2673  -16.7076   17.9817 C   0  0  2  0  0  0  0  0  0  0  0  0
   10.3167  -16.5007   17.0020 N   0  0  0  0  0  0  0  0  0  0  0  0
    9.6564  -16.1079   19.2754 C   0  0  0  0  0  0  0  0  0  0  0  0
   10.8496  -16.2200   19.6515 O   0  0  0  0  0  0  0  0  0  0  0  0
    8.3774  -18.9699   20.3555 C   0  0  0  0  0  0  0  0  0  0  0  0
    7.4073  -19.3294   21.2682 C   0  0  0  0  0  0  0  0  0  0  0  0
    8.7509  -15.4120   20.1139 N   0  0  0  0  0  0  0  0  0  0  0  0
    7.3327  -15.2875   19.8605 C   0  0  0  0  0  0  0  0  0  0  0  0
    7.0761  -13.8540   20.3471 C   0  0  0  0  0  0  0  0  0  0  0  0
    7.8309  -13.8742   21.6608 C   0  0  0  0  0  0  0  0  0  0  0  0
    9.0418  -14.7207   21.3314 C   0  0  1  0  0  0  0  0  0  0  0  0
    9.3047  -15.6987   22.4359 C   0  0  0  0  0  0  0  0  0  0  0  0
    8.9151  -16.9010   22.3674 O   0  0  0  0  0  0  0  0  0  0  0  0
   10.0003  -15.3378   23.6140 N   0  0  0  0  0  0  0  0  0  0  0  0
   10.3916  -16.2961   24.6446 C   0  0  1  0  0  0  0  0  0  0  0  0
   11.0779  -15.4674   25.7064 C   0  0  0  0  0  0  0  0  0  0  0  0
   10.1841  -14.6434   26.5150 C   0  0  0  0  0  0  0  0  0  0  0  0
    9.9700  -15.0143   27.8330 C   0  0  0  0  0  0  0  0  0  0  0  0
    9.1462  -14.2897   28.6721 C   0  0  0  0  0  0  0  0  0  0  0  0
    8.5245  -13.1684   28.1750 C   0  0  0  0  0  0  0  0  0  0  0  0
    8.7186  -12.7749   26.8676 C   0  0  0  0  0  0  0  0  0  0  0  0
    9.5578  -13.5268   26.0406 C   0  0  0  0  0  0  0  0  0  0  0  0
    9.2147  -16.9573   25.2419 C   0  0  0  0  0  0  0  0  0  0  0  0
    9.4050  -17.8654   26.0896 O   0  0  0  0  0  0  0  0  0  0  0  0
    7.9052  -16.6404   24.9286 O   0  0  0  0  0  0  0  0  0  0  0  0
  2  1  1  0
  3  2  2  0
  4  3  1  0
  5 11  1  0
  5  4  2  0
  6  5  1  0
  7  6  1  0
  7  8  1  6
  9  7  1  0
  9 10  2  0
 11 12  2  0
 12  2  1  0
 13  9  1  0
 14 13  1  0
 15 14  1  0
 16 15  1  0
 16 17  1  0
 17 13  1  0
 17 18  1  1
 19 18  2  0
 20 18  1  0
 21 29  1  0
 21 20  1  0
 21 22  1  1
 23 22  1  0
 24 23  2  0
 25 24  1  0
 26 27  1  0
 26 25  2  0
 27 28  2  0
 28 23  1  0
 29 31  1  0
 30 29  2  0
M  END
$$$$
