YPF.pdb
     RDKit          3D

 31 33  0  0  1  0  0  0  0  0999 V2000
    7.6642   40.7928  -27.9029 O   0  0  0  0  0  0  0  0  0  0  0  0
    6.5348   41.1092  -27.1839 C   0  0  0  0  0  0  0  0  0  0  0  0
    6.4537   40.8978  -25.8157 C   0  0  0  0  0  0  0  0  0  0  0  0
    5.3127   41.2206  -25.1070 C   0  0  0  0  0  0  0  0  0  0  0  0
    4.2213   41.7645  -25.7512 C   0  0  0  0  0  0  0  0  0  0  0  0
    2.9749   42.1320  -25.0650 C   0  0  0  0  0  0  0  0  0  0  0  0
    3.1339   43.4457  -24.2959 C   0  0  2  0  0  0  0  0  0  0  0  0
    2.6316   43.1687  -22.9638 N   0  0  0  0  0  0  0  0  0  0  0  0
    2.2950   44.4715  -24.9507 C   0  0  0  0  0  0  0  0  0  0  0  0
    1.4694   45.1061  -24.2482 O   0  0  0  0  0  0  0  0  0  0  0  0
    4.3179   41.9682  -27.1103 C   0  0  0  0  0  0  0  0  0  0  0  0
    5.4497   41.6516  -27.8329 C   0  0  0  0  0  0  0  0  0  0  0  0
    2.3749   44.7761  -26.3320 N   0  0  0  0  0  0  0  0  0  0  0  0
    2.0362   46.0588  -26.9073 C   0  0  0  0  0  0  0  0  0  0  0  0
    1.3847   45.6216  -28.2271 C   0  0  0  0  0  0  0  0  0  0  0  0
    2.3838   44.5811  -28.6913 C   0  0  0  0  0  0  0  0  0  0  0  0
    2.7903   43.9141  -27.3948 C   0  0  1  0  0  0  0  0  0  0  0  0
    4.2756   43.7194  -27.3572 C   0  0  0  0  0  0  0  0  0  0  0  0
    4.8105   42.8097  -26.6585 O   0  0  0  0  0  0  0  0  0  0  0  0
    5.1631   44.5365  -28.0968 N   0  0  0  0  0  0  0  0  0  0  0  0
    4.7243   45.6448  -28.9411 C   0  0  1  0  0  0  0  0  0  0  0  0
    5.9972   46.3503  -29.3499 C   0  0  0  0  0  0  0  0  0  0  0  0
    6.4816   47.3443  -28.3965 C   0  0  0  0  0  0  0  0  0  0  0  0
    7.5605   48.1313  -28.7671 C   0  0  0  0  0  0  0  0  0  0  0  0
    8.0798   49.1008  -27.9315 C   0  0  0  0  0  0  0  0  0  0  0  0
    7.5018   49.2825  -26.6971 C   0  0  0  0  0  0  0  0  0  0  0  0
    6.4271   48.5144  -26.3010 C   0  0  0  0  0  0  0  0  0  0  0  0
    5.9218   47.5405  -27.1668 C   0  0  0  0  0  0  0  0  0  0  0  0
    4.0366   45.1601  -30.1540 C   0  0  0  0  0  0  0  0  0  0  0  0
    2.8771   45.5816  -30.3928 O   0  0  0  0  0  0  0  0  0  0  0  0
    4.5888   44.2659  -31.0533 O   0  0  0  0  0  0  0  0  0  0  0  0
  2  1  1  0
  3  2  2  0
  4  3  1  0
  5 11  1  0
  5  4  2  0
  6  5  1  0
  7  6  1  0
  7  8  1  1
  9  7  1  0
  9 10  2  0
 11 12  2  0
 12  2  1  0
 13  9  1  0
 14 13  1  0
 15 14  1  0
 16 15  1  0
 16 17  1  0
 17 13  1  0
 17 18  1  6
 19 18  2  0
 20 18  1  0
 21 29  1  0
 21 20  1  0
 21 22  1  6
 23 22  1  0
 24 23  2  0
 25 24  1  0
 26 27  1  0
 26 25  2  0
 27 28  2  0
 28 23  1  0
 29 31  1  0
 30 29  2  0
M  END
$$$$
