YPF.pdb
     RDKit          3D

 31 33  0  0  1  0  0  0  0  0999 V2000
    6.4249  -22.0322   15.9365 O   0  0  0  0  0  0  0  0  0  0  0  0
    6.8800  -21.1596   16.8977 C   0  0  0  0  0  0  0  0  0  0  0  0
    6.4276  -19.8508   16.9728 C   0  0  0  0  0  0  0  0  0  0  0  0
    6.8940  -18.9859   17.9439 C   0  0  0  0  0  0  0  0  0  0  0  0
    7.8271  -19.4100   18.8664 C   0  0  0  0  0  0  0  0  0  0  0  0
    8.3694  -18.5481   19.9260 C   0  0  0  0  0  0  0  0  0  0  0  0
    9.0045  -17.2848   19.3401 C   0  0  2  0  0  0  0  0  0  0  0  0
   10.2719  -17.7198   18.7850 N   0  0  0  0  0  0  0  0  0  0  0  0
    9.2358  -16.3274   20.4422 C   0  0  0  0  0  0  0  0  0  0  0  0
   10.3603  -16.3206   21.0020 O   0  0  0  0  0  0  0  0  0  0  0  0
    8.2663  -20.7128   18.7782 C   0  0  0  0  0  0  0  0  0  0  0  0
    7.8110  -21.5893   17.8150 C   0  0  0  0  0  0  0  0  0  0  0  0
    8.2527  -15.4157   20.8999 N   0  0  0  0  0  0  0  0  0  0  0  0
    6.9582  -15.2311   20.2824 C   0  0  0  0  0  0  0  0  0  0  0  0
    6.7732  -13.7155   20.4446 C   0  0  0  0  0  0  0  0  0  0  0  0
    7.1943  -13.5439   21.8901 C   0  0  0  0  0  0  0  0  0  0  0  0
    8.3355  -14.5299   22.0194 C   0  0  1  0  0  0  0  0  0  0  0  0
    8.2131  -15.2970   23.3009 C   0  0  0  0  0  0  0  0  0  0  0  0
    7.4147  -16.2719   23.4197 O   0  0  0  0  0  0  0  0  0  0  0  0
    8.9786  -14.9784   24.4475 N   0  0  0  0  0  0  0  0  0  0  0  0
    8.9273  -15.7453   25.6896 C   0  0  1  0  0  0  0  0  0  0  0  0
    8.9556  -14.7081   26.7890 C   0  0  0  0  0  0  0  0  0  0  0  0
    7.9915  -13.6227   26.6339 C   0  0  0  0  0  0  0  0  0  0  0  0
    8.4606  -12.3903   26.2077 C   0  0  0  0  0  0  0  0  0  0  0  0
    7.6191  -11.3100   26.0269 C   0  0  0  0  0  0  0  0  0  0  0  0
    6.2774  -11.4728   26.2803 C   0  0  0  0  0  0  0  0  0  0  0  0
    5.7816  -12.6875   26.7053 C   0  0  0  0  0  0  0  0  0  0  0  0
    6.6560  -13.7639   26.8798 C   0  0  0  0  0  0  0  0  0  0  0  0
    7.6744  -16.5186   25.7953 C   0  0  0  0  0  0  0  0  0  0  0  0
    7.5817  -17.3864   26.6996 O   0  0  0  0  0  0  0  0  0  0  0  0
    6.5860  -16.3496   24.9585 O   0  0  0  0  0  0  0  0  0  0  0  0
  2  1  1  0
  3  2  2  0
  4  3  1  0
  5 11  1  0
  5  4  2  0
  6  5  1  0
  7  6  1  0
  7  8  1  1
  9  7  1  0
  9 10  2  0
 11 12  2  0
 12  2  1  0
 13  9  1  0
 14 13  1  0
 15 14  1  0
 16 15  1  0
 16 17  1  0
 17 13  1  0
 17 18  1  1
 19 18  2  0
 20 18  1  0
 21 29  1  0
 21 20  1  0
 21 22  1  1
 23 22  1  0
 24 23  2  0
 25 24  1  0
 26 27  1  0
 26 25  2  0
 27 28  2  0
 28 23  1  0
 29 31  1  0
 30 29  2  0
M  END
$$$$
