YPF.pdb
     RDKit          3D

 31 33  0  0  1  0  0  0  0  0999 V2000
    7.1589  -20.8002   27.2517 O   0  0  0  0  0  0  0  0  0  0  0  0
    6.7432  -20.0338   26.1875 C   0  0  0  0  0  0  0  0  0  0  0  0
    6.4261  -18.6913   26.3305 C   0  0  0  0  0  0  0  0  0  0  0  0
    6.0100  -17.9344   25.2524 C   0  0  0  0  0  0  0  0  0  0  0  0
    5.9004  -18.5032   24.0009 C   0  0  0  0  0  0  0  0  0  0  0  0
    5.4644  -17.7624   22.8090 C   0  0  0  0  0  0  0  0  0  0  0  0
    6.3730  -18.0558   21.6127 C   0  0  2  0  0  0  0  0  0  0  0  0
    6.6564  -19.4761   21.6910 N   0  0  0  0  0  0  0  0  0  0  0  0
    7.6206  -17.2803   21.7760 C   0  0  0  0  0  0  0  0  0  0  0  0
    8.7005  -17.9071   21.9133 O   0  0  0  0  0  0  0  0  0  0  0  0
    6.2191  -19.8376   23.8756 C   0  0  0  0  0  0  0  0  0  0  0  0
    6.6361  -20.6077   24.9417 C   0  0  0  0  0  0  0  0  0  0  0  0
    7.6607  -15.8642   21.7855 N   0  0  0  0  0  0  0  0  0  0  0  0
    6.4951  -15.0139   21.8830 C   0  0  0  0  0  0  0  0  0  0  0  0
    6.8976  -13.8624   20.9503 C   0  0  0  0  0  0  0  0  0  0  0  0
    8.3192  -13.6205   21.4157 C   0  0  0  0  0  0  0  0  0  0  0  0
    8.8134  -15.0216   21.7052 C   0  0  1  0  0  0  0  0  0  0  0  0
    9.5680  -15.0464   22.9996 C   0  0  0  0  0  0  0  0  0  0  0  0
   10.6522  -14.4110   23.1506 O   0  0  0  0  0  0  0  0  0  0  0  0
    9.1155  -15.7775   24.1234 N   0  0  0  0  0  0  0  0  0  0  0  0
    9.6910  -15.6410   25.4589 C   0  0  1  0  0  0  0  0  0  0  0  0
    8.5042  -15.6322   26.3952 C   0  0  0  0  0  0  0  0  0  0  0  0
    7.7962  -14.3580   26.4767 C   0  0  0  0  0  0  0  0  0  0  0  0
    6.4130  -14.3745   26.3918 C   0  0  0  0  0  0  0  0  0  0  0  0
    5.6618  -13.2178   26.4665 C   0  0  0  0  0  0  0  0  0  0  0  0
    6.3157  -12.0192   26.6300 C   0  0  0  0  0  0  0  0  0  0  0  0
    7.6911  -11.9718   26.7177 C   0  0  0  0  0  0  0  0  0  0  0  0
    8.4264  -13.1578   26.6392 C   0  0  0  0  0  0  0  0  0  0  0  0
   10.5550  -16.7899   25.7945 C   0  0  0  0  0  0  0  0  0  0  0  0
   10.5103  -17.8071   25.0577 O   0  0  0  0  0  0  0  0  0  0  0  0
   11.4186  -16.8213   26.8746 O   0  0  0  0  0  0  0  0  0  0  0  0
  2  1  1  0
  3  2  2  0
  4  3  1  0
  5 11  1  0
  5  4  2  0
  6  5  1  0
  7  6  1  0
  7  8  1  1
  9  7  1  0
  9 10  2  0
 11 12  2  0
 12  2  1  0
 13  9  1  0
 14 13  1  0
 15 14  1  0
 16 15  1  0
 16 17  1  0
 17 13  1  0
 17 18  1  1
 19 18  2  0
 20 18  1  0
 21 29  1  0
 21 20  1  0
 21 22  1  1
 23 22  1  0
 24 23  2  0
 25 24  1  0
 26 27  1  0
 26 25  2  0
 27 28  2  0
 28 23  1  0
 29 31  1  0
 30 29  2  0
M  END
$$$$
