YPF.pdb
     RDKit          3D

 31 33  0  0  1  0  0  0  0  0999 V2000
    8.4242  -12.8873   16.5801 O   0  0  0  0  0  0  0  0  0  0  0  0
    8.2074  -13.2855   17.8789 C   0  0  0  0  0  0  0  0  0  0  0  0
    6.9534  -13.2170   18.4670 C   0  0  0  0  0  0  0  0  0  0  0  0
    6.7511  -13.6206   19.7727 C   0  0  0  0  0  0  0  0  0  0  0  0
    7.8012  -14.1042   20.5245 C   0  0  0  0  0  0  0  0  0  0  0  0
    7.6629  -14.5507   21.9177 C   0  0  0  0  0  0  0  0  0  0  0  0
    7.4731  -16.0675   21.9957 C   0  0  2  0  0  0  0  0  0  0  0  0
    6.0661  -16.2884   21.7214 N   0  0  0  0  0  0  0  0  0  0  0  0
    7.7965  -16.5058   23.3697 C   0  0  0  0  0  0  0  0  0  0  0  0
    6.9668  -16.2709   24.2831 O   0  0  0  0  0  0  0  0  0  0  0  0
    9.0404  -14.1658   19.9257 C   0  0  0  0  0  0  0  0  0  0  0  0
    9.2596  -13.7669   18.6233 C   0  0  0  0  0  0  0  0  0  0  0  0
    8.9962  -17.1785   23.7096 N   0  0  0  0  0  0  0  0  0  0  0  0
   10.0341  -17.5267   22.7648 C   0  0  0  0  0  0  0  0  0  0  0  0
   10.4797  -18.8899   23.3133 C   0  0  0  0  0  0  0  0  0  0  0  0
   10.5778  -18.5691   24.7909 C   0  0  0  0  0  0  0  0  0  0  0  0
    9.4091  -17.6305   25.0019 C   0  0  1  0  0  0  0  0  0  0  0  0
    9.8261  -16.4687   25.8515 C   0  0  0  0  0  0  0  0  0  0  0  0
   10.4608  -15.4853   25.3698 O   0  0  0  0  0  0  0  0  0  0  0  0
    9.5365  -16.4027   27.2350 N   0  0  0  0  0  0  0  0  0  0  0  0
   10.2564  -15.5410   28.1691 C   0  0  1  0  0  0  0  0  0  0  0  0
    9.1827  -14.7270   28.8545 C   0  0  0  0  0  0  0  0  0  0  0  0
    8.3140  -13.9747   27.9541 C   0  0  0  0  0  0  0  0  0  0  0  0
    8.7151  -12.7044   27.5718 C   0  0  0  0  0  0  0  0  0  0  0  0
    7.9595  -11.9249   26.7178 C   0  0  0  0  0  0  0  0  0  0  0  0
    6.7755  -12.4338   26.2382 C   0  0  0  0  0  0  0  0  0  0  0  0
    6.3508  -13.6946   26.6011 C   0  0  0  0  0  0  0  0  0  0  0  0
    7.1354  -14.4618   27.4667 C   0  0  0  0  0  0  0  0  0  0  0  0
   10.9783  -16.3311   29.1858 C   0  0  0  0  0  0  0  0  0  0  0  0
   11.7047  -15.7226   30.0113 O   0  0  0  0  0  0  0  0  0  0  0  0
   10.9070  -17.7084   29.2917 O   0  0  0  0  0  0  0  0  0  0  0  0
  2  1  1  0
  3  2  2  0
  4  3  1  0
  5 11  1  0
  5  4  2  0
  6  5  1  0
  7  6  1  0
  7  8  1  1
  9  7  1  0
  9 10  2  0
 11 12  2  0
 12  2  1  0
 13  9  1  0
 14 13  1  0
 15 14  1  0
 16 15  1  0
 16 17  1  0
 17 13  1  0
 17 18  1  1
 19 18  2  0
 20 18  1  0
 21 29  1  0
 21 20  1  0
 21 22  1  1
 23 22  1  0
 24 23  2  0
 25 24  1  0
 26 27  1  0
 26 25  2  0
 27 28  2  0
 28 23  1  0
 29 31  1  0
 30 29  2  0
M  END
$$$$
