YPF.pdb
     RDKit          3D

 31 33  0  0  1  0  0  0  0  0999 V2000
    0.5950  -20.4765   20.5727 O   0  0  0  0  0  0  0  0  0  0  0  0
    1.7345  -19.8081   20.9568 C   0  0  0  0  0  0  0  0  0  0  0  0
    2.4623  -20.1833   22.0760 C   0  0  0  0  0  0  0  0  0  0  0  0
    3.6049  -19.5023   22.4493 C   0  0  0  0  0  0  0  0  0  0  0  0
    4.0489  -18.4261   21.7102 C   0  0  0  0  0  0  0  0  0  0  0  0
    5.2532  -17.6537   22.0457 C   0  0  0  0  0  0  0  0  0  0  0  0
    6.2309  -17.6152   20.8686 C   0  0  2  0  0  0  0  0  0  0  0  0
    6.5475  -19.0035   20.5929 N   0  0  0  0  0  0  0  0  0  0  0  0
    7.4471  -16.8937   21.2986 C   0  0  0  0  0  0  0  0  0  0  0  0
    8.4340  -17.5655   21.6894 O   0  0  0  0  0  0  0  0  0  0  0  0
    3.3147  -18.0661   20.6014 C   0  0  0  0  0  0  0  0  0  0  0  0
    2.1718  -18.7353   20.2148 C   0  0  0  0  0  0  0  0  0  0  0  0
    7.5568  -15.4813   21.2925 N   0  0  0  0  0  0  0  0  0  0  0  0
    6.5076  -14.5816   20.8675 C   0  0  0  0  0  0  0  0  0  0  0  0
    7.3286  -13.4888   20.1679 C   0  0  0  0  0  0  0  0  0  0  0  0
    8.4315  -13.2840   21.1866 C   0  0  0  0  0  0  0  0  0  0  0  0
    8.6797  -14.6898   21.6897 C   0  0  1  0  0  0  0  0  0  0  0  0
    8.8143  -14.6885   23.1822 C   0  0  0  0  0  0  0  0  0  0  0  0
    8.2303  -13.8273   23.9027 O   0  0  0  0  0  0  0  0  0  0  0  0
    9.5980  -15.6448   23.8703 N   0  0  0  0  0  0  0  0  0  0  0  0
    9.9600  -15.5262   25.2805 C   0  0  1  0  0  0  0  0  0  0  0  0
    8.6536  -15.6562   26.0300 C   0  0  0  0  0  0  0  0  0  0  0  0
    7.9249  -14.4047   26.2149 C   0  0  0  0  0  0  0  0  0  0  0  0
    8.5892  -13.3462   26.8140 C   0  0  0  0  0  0  0  0  0  0  0  0
    7.9801  -12.1241   27.0221 C   0  0  0  0  0  0  0  0  0  0  0  0
    6.6752  -11.9633   26.6191 C   0  0  0  0  0  0  0  0  0  0  0  0
    5.9888  -12.9986   26.0201 C   0  0  0  0  0  0  0  0  0  0  0  0
    6.6299  -14.2247   25.8218 C   0  0  0  0  0  0  0  0  0  0  0  0
   10.8614  -16.6173   25.7000 C   0  0  0  0  0  0  0  0  0  0  0  0
   11.0653  -17.5653   24.9005 O   0  0  0  0  0  0  0  0  0  0  0  0
   11.5028  -16.6655   26.9246 O   0  0  0  0  0  0  0  0  0  0  0  0
  2  1  1  0
  3  2  2  0
  4  3  1  0
  5 11  1  0
  5  4  2  0
  6  5  1  0
  7  6  1  0
  7  8  1  1
  9  7  1  0
  9 10  2  0
 11 12  2  0
 12  2  1  0
 13  9  1  0
 14 13  1  0
 15 14  1  0
 16 15  1  0
 16 17  1  0
 17 13  1  0
 17 18  1  1
 19 18  2  0
 20 18  1  0
 21 29  1  0
 21 20  1  0
 21 22  1  1
 23 22  1  0
 24 23  2  0
 25 24  1  0
 26 27  1  0
 26 25  2  0
 27 28  2  0
 28 23  1  0
 29 31  1  0
 30 29  2  0
M  END
$$$$
