YPF.pdb
     RDKit          3D

 31 33  0  0  1  0  0  0  0  0999 V2000
   14.0146  -15.5581   20.6720 O   0  0  0  0  0  0  0  0  0  0  0  0
   12.8805  -14.9503   20.1851 C   0  0  0  0  0  0  0  0  0  0  0  0
   12.4622  -15.1219   18.8740 C   0  0  0  0  0  0  0  0  0  0  0  0
   11.3210  -14.5049   18.3993 C   0  0  0  0  0  0  0  0  0  0  0  0
   10.5677  -13.6987   19.2266 C   0  0  0  0  0  0  0  0  0  0  0  0
    9.3442  -13.0100   18.7929 C   0  0  0  0  0  0  0  0  0  0  0  0
    8.1785  -13.9916   18.6496 C   0  0  2  0  0  0  0  0  0  0  0  0
    7.1056  -13.2214   18.0501 N   0  0  0  0  0  0  0  0  0  0  0  0
    7.7841  -14.4444   20.0001 C   0  0  0  0  0  0  0  0  0  0  0  0
    7.4544  -13.5785   20.8484 O   0  0  0  0  0  0  0  0  0  0  0  0
   10.9967  -13.5386   20.5259 C   0  0  0  0  0  0  0  0  0  0  0  0
   12.1337  -14.1474   21.0159 C   0  0  0  0  0  0  0  0  0  0  0  0
    7.7586  -15.8069   20.3872 N   0  0  0  0  0  0  0  0  0  0  0  0
    8.1674  -16.9053   19.5402 C   0  0  0  0  0  0  0  0  0  0  0  0
    7.1404  -17.9754   19.9372 C   0  0  0  0  0  0  0  0  0  0  0  0
    7.1811  -17.8440   21.4462 C   0  0  0  0  0  0  0  0  0  0  0  0
    7.3421  -16.3517   21.6421 C   0  0  1  0  0  0  0  0  0  0  0  0
    8.3708  -16.0768   22.6965 C   0  0  0  0  0  0  0  0  0  0  0  0
    9.5482  -15.7188   22.4009 O   0  0  0  0  0  0  0  0  0  0  0  0
    8.0882  -16.2007   24.0775 N   0  0  0  0  0  0  0  0  0  0  0  0
    9.0821  -15.9861   25.1262 C   0  0  1  0  0  0  0  0  0  0  0  0
    9.2946  -14.4898   25.1608 C   0  0  0  0  0  0  0  0  0  0  0  0
    8.2299  -13.7335   25.8134 C   0  0  0  0  0  0  0  0  0  0  0  0
    7.0104  -13.6311   25.1629 C   0  0  0  0  0  0  0  0  0  0  0  0
    5.9457  -12.9414   25.7093 C   0  0  0  0  0  0  0  0  0  0  0  0
    6.1111  -12.3420   26.9358 C   0  0  0  0  0  0  0  0  0  0  0  0
    7.3130  -12.4271   27.6066 C   0  0  0  0  0  0  0  0  0  0  0  0
    8.3737  -13.1316   27.0303 C   0  0  0  0  0  0  0  0  0  0  0  0
    8.5816  -16.4277   26.4428 C   0  0  0  0  0  0  0  0  0  0  0  0
    9.3469  -16.3348   27.4353 O   0  0  0  0  0  0  0  0  0  0  0  0
    7.3152  -16.9405   26.6587 O   0  0  0  0  0  0  0  0  0  0  0  0
  2  1  1  0
  3  2  2  0
  4  3  1  0
  5 11  1  0
  5  4  2  0
  6  5  1  0
  7  6  1  0
  7  8  1  1
  9  7  1  0
  9 10  2  0
 11 12  2  0
 12  2  1  0
 13  9  1  0
 14 13  1  0
 15 14  1  0
 16 15  1  0
 16 17  1  0
 17 13  1  0
 17 18  1  1
 19 18  2  0
 20 18  1  0
 21 29  1  0
 21 20  1  0
 21 22  1  1
 23 22  1  0
 24 23  2  0
 25 24  1  0
 26 27  1  0
 26 25  2  0
 27 28  2  0
 28 23  1  0
 29 31  1  0
 30 29  2  0
M  END
$$$$
