NHH.pdb
     RDKit          3D

 29 30  0  0  1  0  0  0  0  0999 V2000
   14.3453  -13.7277   18.0744 N   0  0  0  0  0  0  0  0  0  0  0  0
   13.9985  -14.5039   19.2727 C   0  0  0  0  0  0  0  0  0  0  0  0
   14.8695  -15.0480   19.8482 O   0  0  0  0  0  0  0  0  0  0  0  0
   12.5159  -14.5723   19.5847 C   0  0  0  0  0  0  0  0  0  0  0  0
   12.2972  -15.9221   20.1936 C   0  0  2  0  0  0  0  0  0  0  0  0
   12.9786  -16.9754   19.4746 N   0  0  0  0  0  0  0  0  0  0  0  0
   11.0209  -16.2337   20.6234 C   0  0  0  0  0  0  0  0  0  0  0  0
   10.4611  -15.2684   21.3544 O   0  0  0  0  0  0  0  0  0  0  0  0
   10.4352  -17.5241   20.3092 N   0  0  0  0  0  0  0  0  0  0  0  0
    9.1672  -17.9149   20.7067 C   0  0  1  0  0  0  0  0  0  0  0  0
    8.2314  -18.7504   19.9640 C   0  0  0  0  0  0  0  0  0  0  0  0
    8.1295  -18.2116   18.6249 C   0  0  0  0  0  0  0  0  0  0  0  0
    8.7472  -17.1000   18.1763 C   0  0  0  0  0  0  0  0  0  0  0  0
    8.4754  -16.9830   16.8621 N   0  0  0  0  0  0  0  0  0  0  0  0
    7.6488  -17.9897   16.5330 C   0  0  0  0  0  0  0  0  0  0  0  0
    7.3870  -18.7674   17.6291 N   0  0  0  0  0  0  0  0  0  0  0  0
    9.2837  -18.5230   22.1608 C   0  0  0  0  0  0  0  0  0  0  0  0
   10.1873  -19.2912   22.3145 O   0  0  0  0  0  0  0  0  0  0  0  0
    8.2622  -18.0774   23.0620 N   0  0  0  0  0  0  0  0  0  0  0  0
    8.3689  -18.6874   24.3500 C   0  0  1  0  0  0  0  0  0  0  0  0
    8.2020  -17.5860   25.5075 C   0  0  0  0  0  0  0  0  0  0  0  0
    9.5536  -16.9095   25.3168 C   0  0  0  0  0  0  0  0  0  0  0  0
    9.7887  -15.8330   24.4847 C   0  0  0  0  0  0  0  0  0  0  0  0
   10.9862  -15.3283   24.8264 N   0  0  0  0  0  0  0  0  0  0  0  0
   11.4798  -16.0509   25.8280 C   0  0  0  0  0  0  0  0  0  0  0  0
   10.6013  -17.0951   26.1372 N   0  0  0  0  0  0  0  0  0  0  0  0
    7.3745  -19.7359   24.5734 C   0  0  0  0  0  0  0  0  0  0  0  0
    7.3430  -20.4242   25.7610 O   0  0  0  0  0  0  0  0  0  0  0  0
    6.5445  -20.0718   23.6249 O   0  0  0  0  0  0  0  0  0  0  0  0
  1  2  1  0
  2  3  2  0
  4  2  1  0
  4  5  1  0
  5  6  1  6
  5  7  1  0
  7  8  2  0
  9  7  1  0
  9 10  1  0
 10 11  1  6
 11 12  1  0
 12 16  1  0
 13 14  1  0
 13 12  2  0
 14 15  1  0
 15 16  2  0
 17 10  1  0
 17 18  2  0
 19 17  1  0
 20 27  1  0
 20 19  1  0
 20 21  1  1
 22 21  1  0
 23 22  2  0
 24 25  1  0
 24 23  1  0
 25 26  2  0
 26 22  1  0
 27 28  1  0
 29 27  2  0
M  END
$$$$
