NHH.pdb
     RDKit          3D

 29 30  0  0  1  0  0  0  0  0999 V2000
   13.7621  -15.6196   12.8956 N   0  0  0  0  0  0  0  0  0  0  0  0
   12.4173  -15.9097   13.4116 C   0  0  0  0  0  0  0  0  0  0  0  0
   11.7857  -16.7408   12.8675 O   0  0  0  0  0  0  0  0  0  0  0  0
   11.9689  -15.0291   14.5620 C   0  0  0  0  0  0  0  0  0  0  0  0
   12.0612  -15.8892   15.7836 C   0  0  2  0  0  0  0  0  0  0  0  0
   11.1828  -17.0364   15.7258 N   0  0  0  0  0  0  0  0  0  0  0  0
   12.1229  -15.2568   17.0112 C   0  0  0  0  0  0  0  0  0  0  0  0
   13.0731  -14.3227   17.0752 O   0  0  0  0  0  0  0  0  0  0  0  0
   11.2383  -15.6593   18.0894 N   0  0  0  0  0  0  0  0  0  0  0  0
   11.2453  -15.0854   19.3500 C   0  0  1  0  0  0  0  0  0  0  0  0
   10.0917  -14.8150   20.1995 C   0  0  0  0  0  0  0  0  0  0  0  0
    9.0629  -14.2278   19.3684 C   0  0  0  0  0  0  0  0  0  0  0  0
    8.7962  -12.9104   19.2617 C   0  0  0  0  0  0  0  0  0  0  0  0
    7.8365  -12.7615   18.3281 N   0  0  0  0  0  0  0  0  0  0  0  0
    7.4853  -13.9909   17.9153 C   0  0  0  0  0  0  0  0  0  0  0  0
    8.2199  -14.9410   18.5731 N   0  0  0  0  0  0  0  0  0  0  0  0
   12.3001  -15.8671   20.2298 C   0  0  0  0  0  0  0  0  0  0  0  0
   12.1623  -17.0550   20.2443 O   0  0  0  0  0  0  0  0  0  0  0  0
   13.2421  -15.0198   20.8996 N   0  0  0  0  0  0  0  0  0  0  0  0
   14.1922  -15.7620   21.6668 C   0  0  1  0  0  0  0  0  0  0  0  0
   15.5068  -14.8792   21.9374 C   0  0  0  0  0  0  0  0  0  0  0  0
   15.9806  -14.8032   20.4915 C   0  0  0  0  0  0  0  0  0  0  0  0
   15.2610  -14.2489   19.4517 C   0  0  0  0  0  0  0  0  0  0  0  0
   16.1178  -14.0764   18.4310 N   0  0  0  0  0  0  0  0  0  0  0  0
   17.3201  -14.4990   18.8116 C   0  0  0  0  0  0  0  0  0  0  0  0
   17.2539  -15.0065   20.1138 N   0  0  0  0  0  0  0  0  0  0  0  0
   13.6681  -16.2044   22.9583 C   0  0  0  0  0  0  0  0  0  0  0  0
   12.3757  -15.9160   23.3212 O   0  0  0  0  0  0  0  0  0  0  0  0
   14.4402  -16.8255   23.8066 O   0  0  0  0  0  0  0  0  0  0  0  0
  1  2  1  0
  2  3  2  0
  4  2  1  0
  4  5  1  0
  5  6  1  1
  5  7  1  0
  7  8  2  0
  9  7  1  0
  9 10  1  0
 10 11  1  1
 11 12  1  0
 12 16  1  0
 13 14  1  0
 13 12  2  0
 14 15  1  0
 15 16  2  0
 17 10  1  0
 17 18  2  0
 19 17  1  0
 20 27  1  0
 20 19  1  0
 20 21  1  1
 22 21  1  0
 23 22  2  0
 24 25  1  0
 24 23  1  0
 25 26  2  0
 26 22  1  0
 27 28  1  0
 29 27  2  0
M  END
$$$$
