NHH.pdb
     RDKit          3D

 29 30  0  0  1  0  0  0  0  0999 V2000
   14.4573  -16.4953   16.2680 N   0  0  0  0  0  0  0  0  0  0  0  0
   14.7229  -15.0782   16.5509 C   0  0  0  0  0  0  0  0  0  0  0  0
   15.7337  -14.6182   16.1603 O   0  0  0  0  0  0  0  0  0  0  0  0
   13.6716  -14.3858   17.3966 C   0  0  0  0  0  0  0  0  0  0  0  0
   12.9477  -15.4831   18.1124 C   0  0  2  0  0  0  0  0  0  0  0  0
   12.2856  -16.3971   17.2083 N   0  0  0  0  0  0  0  0  0  0  0  0
   12.2252  -15.1461   19.2416 C   0  0  0  0  0  0  0  0  0  0  0  0
   12.9593  -14.5369   20.1741 O   0  0  0  0  0  0  0  0  0  0  0  0
   10.8207  -15.4974   19.3462 N   0  0  0  0  0  0  0  0  0  0  0  0
   10.0071  -15.1238   20.4032 C   0  0  1  0  0  0  0  0  0  0  0  0
    8.6024  -14.7391   20.3382 C   0  0  0  0  0  0  0  0  0  0  0  0
    8.4384  -13.8683   19.1942 C   0  0  0  0  0  0  0  0  0  0  0  0
    8.5480  -12.5245   19.2078 C   0  0  0  0  0  0  0  0  0  0  0  0
    8.4176  -12.0905   17.9392 N   0  0  0  0  0  0  0  0  0  0  0  0
    8.1723  -13.1654   17.1714 C   0  0  0  0  0  0  0  0  0  0  0  0
    8.1499  -14.3008   17.9365 N   0  0  0  0  0  0  0  0  0  0  0  0
   10.1374  -16.2285   21.5258 C   0  0  0  0  0  0  0  0  0  0  0  0
    9.7710  -17.3203   21.2031 O   0  0  0  0  0  0  0  0  0  0  0  0
   10.6488  -15.7362   22.7709 N   0  0  0  0  0  0  0  0  0  0  0  0
   10.9048  -16.7852   23.7070 C   0  0  1  0  0  0  0  0  0  0  0  0
   12.1961  -16.4390   24.5979 C   0  0  0  0  0  0  0  0  0  0  0  0
   12.2327  -17.7419   25.3864 C   0  0  0  0  0  0  0  0  0  0  0  0
   13.1383  -18.7641   25.1830 C   0  0  0  0  0  0  0  0  0  0  0  0
   13.0632  -19.5725   26.2537 N   0  0  0  0  0  0  0  0  0  0  0  0
   12.1559  -19.0806   27.0926 C   0  0  0  0  0  0  0  0  0  0  0  0
   11.5789  -17.9294   26.5451 N   0  0  0  0  0  0  0  0  0  0  0  0
    9.7828  -17.0353   24.6108 C   0  0  0  0  0  0  0  0  0  0  0  0
    9.8034  -18.1094   25.4658 O   0  0  0  0  0  0  0  0  0  0  0  0
    8.7225  -16.2766   24.5729 O   0  0  0  0  0  0  0  0  0  0  0  0
  1  2  1  0
  2  3  2  0
  4  2  1  0
  4  5  1  0
  5  6  1  6
  5  7  1  0
  7  8  2  0
  9  7  1  0
  9 10  1  0
 10 11  1  6
 11 12  1  0
 12 16  1  0
 13 14  1  0
 13 12  2  0
 14 15  1  0
 15 16  2  0
 17 10  1  0
 17 18  2  0
 19 17  1  0
 20 27  1  0
 20 19  1  0
 20 21  1  1
 22 21  1  0
 23 22  2  0
 24 25  1  0
 24 23  1  0
 25 26  2  0
 26 22  1  0
 27 28  1  0
 29 27  2  0
M  END
$$$$
