NHH.pdb
     RDKit          3D

 29 30  0  0  1  0  0  0  0  0999 V2000
   12.3915  -19.2932   17.2102 N   0  0  0  0  0  0  0  0  0  0  0  0
   11.4911  -18.6353   16.2536 C   0  0  0  0  0  0  0  0  0  0  0  0
   11.4283  -19.0752   15.1635 O   0  0  0  0  0  0  0  0  0  0  0  0
   10.7938  -17.3952   16.7790 C   0  0  0  0  0  0  0  0  0  0  0  0
   10.8640  -17.4985   18.2706 C   0  0  2  0  0  0  0  0  0  0  0  0
   10.2369  -18.6990   18.7768 N   0  0  0  0  0  0  0  0  0  0  0  0
   10.6216  -16.3533   19.0058 C   0  0  0  0  0  0  0  0  0  0  0  0
   11.6632  -15.5206   19.0423 O   0  0  0  0  0  0  0  0  0  0  0  0
    9.3500  -16.1703   19.6815 N   0  0  0  0  0  0  0  0  0  0  0  0
    9.0447  -15.0737   20.4706 C   0  0  1  0  0  0  0  0  0  0  0  0
    7.8481  -14.2440   20.3983 C   0  0  0  0  0  0  0  0  0  0  0  0
    7.6192  -13.9247   19.0056 C   0  0  0  0  0  0  0  0  0  0  0  0
    7.8896  -12.7425   18.4160 C   0  0  0  0  0  0  0  0  0  0  0  0
    7.6227  -12.8701   17.1018 N   0  0  0  0  0  0  0  0  0  0  0  0
    7.1379  -14.1084   16.9101 C   0  0  0  0  0  0  0  0  0  0  0  0
    7.0953  -14.7911   18.0963 N   0  0  0  0  0  0  0  0  0  0  0  0
    9.2258  -15.5014   21.9813 C   0  0  0  0  0  0  0  0  0  0  0  0
    8.2376  -15.9220   22.5075 O   0  0  0  0  0  0  0  0  0  0  0  0
   10.5473  -15.2871   22.4929 N   0  0  0  0  0  0  0  0  0  0  0  0
   10.9799  -16.3497   23.3450 C   0  0  1  0  0  0  0  0  0  0  0  0
   10.5987  -17.7727   22.7044 C   0  0  0  0  0  0  0  0  0  0  0  0
   10.9843  -18.6267   23.9056 C   0  0  0  0  0  0  0  0  0  0  0  0
   11.1521  -18.1528   25.1915 C   0  0  0  0  0  0  0  0  0  0  0  0
   11.1642  -19.2226   26.0045 N   0  0  0  0  0  0  0  0  0  0  0  0
   11.0083  -20.3175   25.2656 C   0  0  0  0  0  0  0  0  0  0  0  0
   10.9298  -19.9691   23.9127 N   0  0  0  0  0  0  0  0  0  0  0  0
   12.4205  -16.3352   23.5954 C   0  0  0  0  0  0  0  0  0  0  0  0
   12.9126  -16.6095   24.8475 O   0  0  0  0  0  0  0  0  0  0  0  0
   13.2522  -16.0021   22.6474 O   0  0  0  0  0  0  0  0  0  0  0  0
  1  2  1  0
  2  3  2  0
  4  2  1  0
  4  5  1  0
  5  6  1  1
  5  7  1  0
  7  8  2  0
  9  7  1  0
  9 10  1  0
 10 11  1  1
 11 12  1  0
 12 16  1  0
 13 14  1  0
 13 12  2  0
 14 15  1  0
 15 16  2  0
 17 10  1  0
 17 18  2  0
 19 17  1  0
 20 27  1  0
 20 19  1  0
 20 21  1  6
 22 21  1  0
 23 22  2  0
 24 25  1  0
 24 23  1  0
 25 26  2  0
 26 22  1  0
 27 28  1  0
 29 27  2  0
M  END
$$$$
