RIL.pdb
     RDKit          3D

 28 27  0  0  1  0  0  0  0  0999 V2000
    8.5578  -12.7080   18.8384 N   0  0  0  0  0  0  0  0  0  0  0  0
    8.0679  -13.3146   17.6609 C   0  0  0  0  0  0  0  0  0  0  0  0
    8.7014  -13.0925   16.5647 N   0  0  0  0  0  0  0  0  0  0  0  0
    6.9134  -14.1507   17.6505 N   0  0  0  0  0  0  0  0  0  0  0  0
    6.6635  -15.0778   18.6923 C   0  0  0  0  0  0  0  0  0  0  0  0
    7.4654  -16.3254   18.6244 C   0  0  0  0  0  0  0  0  0  0  0  0
    8.3615  -16.6132   19.7629 C   0  0  0  0  0  0  0  0  0  0  0  0
    7.7627  -16.7944   21.1003 C   0  0  2  0  0  0  0  0  0  0  0  0
    6.3143  -16.7287   20.9909 N   0  0  0  0  0  0  0  0  0  0  0  0
    8.2512  -15.7873   22.0925 C   0  0  0  0  0  0  0  0  0  0  0  0
    8.9464  -14.8151   21.7014 O   0  0  0  0  0  0  0  0  0  0  0  0
    8.3726  -13.4338   15.6444 C   0  0  0  0  0  0  0  0  0  0  0  0
    5.8345  -12.6580   25.1020 C   0  0  0  0  0  0  0  0  0  0  0  0
    6.9493  -13.3231   24.3298 C   0  0  2  0  0  0  0  0  0  0  0  0
    7.7314  -14.2657   25.1595 C   0  0  0  0  0  0  0  0  0  0  0  0
    8.4279  -13.5245   26.2857 C   0  0  2  0  0  0  0  0  0  0  0  0
    8.7469  -15.1158   24.4816 N   0  0  0  0  0  0  0  0  0  0  0  0
    7.9680  -15.8718   23.4723 C   0  0  0  0  0  0  0  0  0  0  0  0
    9.3680  -16.1150   25.3797 O   0  0  0  0  0  0  0  0  0  0  0  0
    8.6810  -17.1097   25.8250 C   0  0  0  0  0  0  0  0  0  0  0  0
   10.0702  -13.6963   29.9233 C   0  0  1  0  0  0  0  0  0  0  0  0
   10.7107  -14.9988   29.4197 C   0  0  0  0  0  0  0  0  0  0  0  0
   12.1291  -14.9884   29.9421 C   0  0  0  0  0  0  0  0  0  0  0  0
   10.6340  -14.9562   27.9358 C   0  0  2  0  0  0  0  0  0  0  0  0
   11.0771  -16.2098   27.2341 N   0  0  0  0  0  0  0  0  0  0  0  0
   10.7072  -16.0748   25.8101 C   0  0  0  0  0  0  0  0  0  0  0  0
   10.5156  -17.4346   27.7760 O   0  0  0  0  0  0  0  0  0  0  0  0
    9.2828  -17.6348   27.7425 O   0  0  0  0  0  0  0  0  0  0  0  0
  1  2  1  0
  2  3  2  0
  4  2  1  0
  4  5  1  0
  6  5  1  0
  7  6  1  0
  8 10  1  0
  8  7  1  0
  8  9  1  6
 10 11  2  0
 13 12  1  0
 14 13  1  0
 14 16  1  0
 14 15  1  1
 16 18  1  0
 16 17  1  6
 17 10  1  0
 18 25  1  0
 18 19  2  0
 21 20  1  1
 21 22  1  0
 23 21  1  0
 24 23  1  6
 24 26  1  0
 25 24  1  0
 26 27  2  0
 26 28  1  0
M  END
$$$$
