RIL.pdb
     RDKit          3D

 28 27  0  0  1  0  0  0  0  0999 V2000
   13.5375  -22.7957   22.6618 N   0  0  0  0  0  0  0  0  0  0  0  0
   14.5007  -22.0969   21.9013 C   0  0  0  0  0  0  0  0  0  0  0  0
   15.3741  -22.7885   21.2600 N   0  0  0  0  0  0  0  0  0  0  0  0
   14.5338  -20.6739   21.8240 N   0  0  0  0  0  0  0  0  0  0  0  0
   13.3652  -19.8964   22.0177 C   0  0  0  0  0  0  0  0  0  0  0  0
   12.3897  -19.9450   20.8996 C   0  0  0  0  0  0  0  0  0  0  0  0
   11.1333  -19.1865   21.0681 C   0  0  0  0  0  0  0  0  0  0  0  0
   10.8650  -18.0591   20.1534 C   0  0  2  0  0  0  0  0  0  0  0  0
   11.9896  -17.8988   19.2457 N   0  0  0  0  0  0  0  0  0  0  0  0
   10.6012  -16.7777   20.8788 C   0  0  0  0  0  0  0  0  0  0  0  0
   11.5624  -16.0279   21.1869 O   0  0  0  0  0  0  0  0  0  0  0  0
   16.1368  -22.3600   20.7066 C   0  0  0  0  0  0  0  0  0  0  0  0
    6.5533  -13.4399   19.6379 C   0  0  0  0  0  0  0  0  0  0  0  0
    7.8991  -13.9178   20.1299 C   0  0  2  0  0  0  0  0  0  0  0  0
    7.8228  -14.5574   21.4617 C   0  0  0  0  0  0  0  0  0  0  0  0
    7.2463  -13.5903   22.4792 C   0  0  2  0  0  0  0  0  0  0  0  0
    9.0719  -15.1263   22.0357 N   0  0  0  0  0  0  0  0  0  0  0  0
    9.3044  -16.3571   21.2434 C   0  0  0  0  0  0  0  0  0  0  0  0
    8.9291  -15.5465   23.4477 O   0  0  0  0  0  0  0  0  0  0  0  0
    8.2515  -16.5993   23.7509 C   0  0  0  0  0  0  0  0  0  0  0  0
    9.6319  -12.9932   28.9482 C   0  0  1  0  0  0  0  0  0  0  0  0
    9.4246  -14.3607   28.2793 C   0  0  0  0  0  0  0  0  0  0  0  0
   10.4072  -15.2972   28.9446 C   0  0  0  0  0  0  0  0  0  0  0  0
    9.6945  -14.1631   26.8310 C   0  0  2  0  0  0  0  0  0  0  0  0
    9.2557  -15.2893   25.9369 N   0  0  0  0  0  0  0  0  0  0  0  0
    9.4965  -14.8670   24.5417 C   0  0  0  0  0  0  0  0  0  0  0  0
    7.8676  -15.6833   26.1009 O   0  0  0  0  0  0  0  0  0  0  0  0
    7.5759  -16.7374   26.7050 O   0  0  0  0  0  0  0  0  0  0  0  0
  1  2  1  0
  2  3  2  0
  4  2  1  0
  4  5  1  0
  6  5  1  0
  7  6  1  0
  8 10  1  0
  8  7  1  0
  8  9  1  6
 10 11  2  0
 13 12  1  0
 14 13  1  0
 14 16  1  0
 14 15  1  1
 16 18  1  0
 16 17  1  1
 17 10  1  0
 18 25  1  0
 18 19  2  0
 21 20  1  1
 21 22  1  0
 23 21  1  0
 24 23  1  1
 24 26  1  0
 25 24  1  0
 26 27  2  0
 26 28  1  0
M  END
$$$$
