RIL.pdb
     RDKit          3D

 28 27  0  0  1  0  0  0  0  0999 V2000
   13.4522  -21.5868   24.8553 N   0  0  0  0  0  0  0  0  0  0  0  0
   12.3245  -21.9603   24.0916 C   0  0  0  0  0  0  0  0  0  0  0  0
   11.4462  -22.7147   24.6499 N   0  0  0  0  0  0  0  0  0  0  0  0
   12.1334  -21.5342   22.7447 N   0  0  0  0  0  0  0  0  0  0  0  0
   13.1832  -20.9389   22.0024 C   0  0  0  0  0  0  0  0  0  0  0  0
   12.8785  -19.5912   21.4592 C   0  0  0  0  0  0  0  0  0  0  0  0
   11.5457  -19.3945   20.8531 C   0  0  0  0  0  0  0  0  0  0  0  0
   11.2353  -18.0840   20.2481 C   0  0  2  0  0  0  0  0  0  0  0  0
   12.2866  -17.7274   19.3090 N   0  0  0  0  0  0  0  0  0  0  0  0
   11.0665  -17.0031   21.2682 C   0  0  0  0  0  0  0  0  0  0  0  0
   12.0652  -16.3336   21.6364 O   0  0  0  0  0  0  0  0  0  0  0  0
   10.5900  -23.0370   24.1657 C   0  0  0  0  0  0  0  0  0  0  0  0
    6.6990  -14.1211   20.6933 C   0  0  0  0  0  0  0  0  0  0  0  0
    8.1391  -14.4510   21.0077 C   0  0  2  0  0  0  0  0  0  0  0  0
    8.3155  -14.9745   22.3801 C   0  0  0  0  0  0  0  0  0  0  0  0
    7.9536  -13.9115   23.4008 C   0  0  2  0  0  0  0  0  0  0  0  0
    9.6470  -15.5240   22.7521 N   0  0  0  0  0  0  0  0  0  0  0  0
    9.8206  -16.6883   21.8514 C   0  0  0  0  0  0  0  0  0  0  0  0
    9.7003  -16.0425   24.1374 O   0  0  0  0  0  0  0  0  0  0  0  0
    9.4658  -17.2860   24.3792 C   0  0  0  0  0  0  0  0  0  0  0  0
    8.9268  -13.4820   26.7355 C   0  0  1  0  0  0  0  0  0  0  0  0
    9.7728  -13.8677   27.9585 C   0  0  0  0  0  0  0  0  0  0  0  0
   10.2840  -12.5659   28.5320 C   0  0  0  0  0  0  0  0  0  0  0  0
   10.8576  -14.7505   27.4551 C   0  0  1  0  0  0  0  0  0  0  0  0
   10.4099  -15.8667   26.5529 N   0  0  0  0  0  0  0  0  0  0  0  0
   10.0007  -15.2613   25.2687 C   0  0  0  0  0  0  0  0  0  0  0  0
    9.3268  -16.6745   27.0851 O   0  0  0  0  0  0  0  0  0  0  0  0
    9.5459  -17.5131   27.9850 O   0  0  0  0  0  0  0  0  0  0  0  0
  1  2  1  0
  2  3  2  0
  4  2  1  0
  4  5  1  0
  6  5  1  0
  7  6  1  0
  8 10  1  0
  8  7  1  0
  8  9  1  6
 10 11  2  0
 13 12  1  0
 14 13  1  0
 14 16  1  0
 14 15  1  1
 16 18  1  0
 16 17  1  6
 17 10  1  0
 18 25  1  0
 18 19  2  0
 21 20  1  1
 21 22  1  0
 23 21  1  0
 24 23  1  6
 24 26  1  0
 25 24  1  0
 26 27  2  0
 26 28  1  0
M  END
$$$$
