RIL.pdb
     RDKit          3D

 28 27  0  0  1  0  0  0  0  0999 V2000
    8.5892  -15.4400   15.2678 N   0  0  0  0  0  0  0  0  0  0  0  0
    8.7266  -14.4016   16.2151 C   0  0  0  0  0  0  0  0  0  0  0  0
    8.5185  -13.1970   15.8176 N   0  0  0  0  0  0  0  0  0  0  0  0
    9.0825  -14.6435   17.5741 N   0  0  0  0  0  0  0  0  0  0  0  0
    9.4077  -15.9443   18.0321 C   0  0  0  0  0  0  0  0  0  0  0  0
    8.2604  -16.7278   18.5554 C   0  0  0  0  0  0  0  0  0  0  0  0
    8.3107  -17.1295   19.9761 C   0  0  0  0  0  0  0  0  0  0  0  0
    7.2787  -16.6043   20.8919 C   0  0  2  0  0  0  0  0  0  0  0  0
    6.2186  -15.9822   20.1150 N   0  0  0  0  0  0  0  0  0  0  0  0
    7.8298  -15.6305   21.8847 C   0  0  0  0  0  0  0  0  0  0  0  0
    8.4780  -14.6310   21.4820 O   0  0  0  0  0  0  0  0  0  0  0  0
    8.6182  -12.3738   16.4371 C   0  0  0  0  0  0  0  0  0  0  0  0
    6.3716  -12.3313   26.3732 C   0  0  0  0  0  0  0  0  0  0  0  0
    7.5868  -13.0324   25.8133 C   0  0  2  0  0  0  0  0  0  0  0  0
    7.2327  -14.1303   24.8870 C   0  0  0  0  0  0  0  0  0  0  0  0
    6.3230  -15.1300   25.5769 C   0  0  2  0  0  0  0  0  0  0  0  0
    8.3411  -14.8917   24.2506 N   0  0  0  0  0  0  0  0  0  0  0  0
    7.6577  -15.7768   23.2776 C   0  0  0  0  0  0  0  0  0  0  0  0
    9.0650  -15.7717   25.1951 O   0  0  0  0  0  0  0  0  0  0  0  0
    8.4662  -16.7689   25.7490 C   0  0  0  0  0  0  0  0  0  0  0  0
    9.5621  -13.8221   29.9407 C   0  0  1  0  0  0  0  0  0  0  0  0
   10.3162  -14.9821   29.2727 C   0  0  0  0  0  0  0  0  0  0  0  0
   11.7552  -14.8460   29.7151 C   0  0  0  0  0  0  0  0  0  0  0  0
   10.1363  -14.8092   27.8073 C   0  0  2  0  0  0  0  0  0  0  0  0
   10.8796  -15.7945   26.9489 N   0  0  0  0  0  0  0  0  0  0  0  0
   10.4148  -15.6099   25.5586 C   0  0  0  0  0  0  0  0  0  0  0  0
   10.7156  -17.1823   27.3441 O   0  0  0  0  0  0  0  0  0  0  0  0
   11.6801  -17.9745   27.2882 O   0  0  0  0  0  0  0  0  0  0  0  0
  1  2  1  0
  2  3  2  0
  4  2  1  0
  4  5  1  0
  6  5  1  0
  7  6  1  0
  8 10  1  0
  8  7  1  0
  8  9  1  6
 10 11  2  0
 13 12  1  0
 14 13  1  0
 14 16  1  0
 14 15  1  6
 16 18  1  0
 16 17  1  1
 17 10  1  0
 18 25  1  0
 18 19  2  0
 21 20  1  1
 21 22  1  0
 23 21  1  0
 24 23  1  6
 24 26  1  0
 25 24  1  0
 26 27  2  0
 26 28  1  0
M  END
$$$$
