RIL.pdb
     RDKit          3D

 28 27  0  0  1  0  0  0  0  0999 V2000
    6.7172  -20.1477   16.8673 N   0  0  0  0  0  0  0  0  0  0  0  0
    7.2899  -19.4540   15.7787 C   0  0  0  0  0  0  0  0  0  0  0  0
    7.0448  -19.8905   14.5947 N   0  0  0  0  0  0  0  0  0  0  0  0
    8.1164  -18.3050   15.9489 N   0  0  0  0  0  0  0  0  0  0  0  0
    8.4527  -17.8215   17.2375 C   0  0  0  0  0  0  0  0  0  0  0  0
    8.4196  -18.8413   18.3160 C   0  0  0  0  0  0  0  0  0  0  0  0
    9.5796  -18.8941   19.2291 C   0  0  0  0  0  0  0  0  0  0  0  0
    9.3797  -18.5148   20.6419 C   0  0  2  0  0  0  0  0  0  0  0  0
    7.9850  -18.7159   21.0006 N   0  0  0  0  0  0  0  0  0  0  0  0
    9.7861  -17.1029   20.9233 C   0  0  0  0  0  0  0  0  0  0  0  0
   10.9408  -16.7141   20.6124 O   0  0  0  0  0  0  0  0  0  0  0  0
    7.4954  -19.5039   13.7468 C   0  0  0  0  0  0  0  0  0  0  0  0
    6.7984  -13.2435   19.2487 C   0  0  0  0  0  0  0  0  0  0  0  0
    8.0926  -13.8789   19.6991 C   0  0  2  0  0  0  0  0  0  0  0  0
    8.1992  -13.9681   21.1720 C   0  0  0  0  0  0  0  0  0  0  0  0
    8.2482  -12.5797   21.7825 C   0  0  2  0  0  0  0  0  0  0  0  0
    9.3256  -14.7537   21.7442 N   0  0  0  0  0  0  0  0  0  0  0  0
    8.9250  -16.1649   21.5316 C   0  0  0  0  0  0  0  0  0  0  0  0
    9.4860  -14.5694   23.2040 O   0  0  0  0  0  0  0  0  0  0  0  0
    9.9817  -13.4772   23.6742 C   0  0  0  0  0  0  0  0  0  0  0  0
    5.7194  -13.1397   26.5436 C   0  0  1  0  0  0  0  0  0  0  0  0
    7.1171  -13.7206   26.8070 C   0  0  0  0  0  0  0  0  0  0  0  0
    7.9284  -12.5892   27.3957 C   0  0  0  0  0  0  0  0  0  0  0  0
    7.6312  -14.1860   25.4922 C   0  0  2  0  0  0  0  0  0  0  0  0
    8.7847  -15.1480   25.5582 N   0  0  0  0  0  0  0  0  0  0  0  0
    9.1264  -15.5260   24.1714 C   0  0  0  0  0  0  0  0  0  0  0  0
    8.5305  -16.3408   26.3467 O   0  0  0  0  0  0  0  0  0  0  0  0
    8.0265  -17.3540   25.8172 O   0  0  0  0  0  0  0  0  0  0  0  0
  1  2  1  0
  2  3  2  0
  4  2  1  0
  4  5  1  0
  6  5  1  0
  7  6  1  0
  8 10  1  0
  8  7  1  0
  8  9  1  6
 10 11  2  0
 13 12  1  0
 14 13  1  0
 14 16  1  0
 14 15  1  1
 16 18  1  0
 16 17  1  6
 17 10  1  0
 18 25  1  0
 18 19  2  0
 21 20  1  1
 21 22  1  0
 23 21  1  0
 24 23  1  6
 24 26  1  0
 25 24  1  0
 26 27  2  0
 26 28  1  0
M  END
$$$$
