RIL.pdb
     RDKit          3D

 28 27  0  0  1  0  0  0  0  0999 V2000
    8.5476  -16.5467   16.2662 N   0  0  0  0  0  0  0  0  0  0  0  0
    7.2664  -17.1094   16.0749 C   0  0  0  0  0  0  0  0  0  0  0  0
    6.8603  -17.2773   14.8670 N   0  0  0  0  0  0  0  0  0  0  0  0
    6.4247  -17.4903   17.1606 N   0  0  0  0  0  0  0  0  0  0  0  0
    6.7528  -17.1632   18.4995 C   0  0  0  0  0  0  0  0  0  0  0  0
    7.9053  -16.2398   18.6530 C   0  0  0  0  0  0  0  0  0  0  0  0
    8.2628  -15.8310   20.0267 C   0  0  0  0  0  0  0  0  0  0  0  0
    7.8551  -14.4895   20.4893 C   0  0  2  0  0  0  0  0  0  0  0  0
    8.2736  -13.4968   19.5126 N   0  0  0  0  0  0  0  0  0  0  0  0
    8.4079  -14.1513   21.8375 C   0  0  0  0  0  0  0  0  0  0  0  0
    9.6441  -13.9660   21.9745 O   0  0  0  0  0  0  0  0  0  0  0  0
    5.9218  -17.6465   14.6339 C   0  0  0  0  0  0  0  0  0  0  0  0
    6.3389  -11.5271   26.8962 C   0  0  0  0  0  0  0  0  0  0  0  0
    7.4439  -12.4012   26.3516 C   0  0  2  0  0  0  0  0  0  0  0  0
    7.1400  -12.9266   25.0024 C   0  0  0  0  0  0  0  0  0  0  0  0
    5.8514  -13.7278   25.0261 C   0  0  2  0  0  0  0  0  0  0  0  0
    8.1747  -13.7544   24.3260 N   0  0  0  0  0  0  0  0  0  0  0  0
    7.5994  -14.0269   22.9874 C   0  0  0  0  0  0  0  0  0  0  0  0
    8.3906  -15.0671   24.9747 O   0  0  0  0  0  0  0  0  0  0  0  0
    7.5548  -16.0306   24.7941 C   0  0  0  0  0  0  0  0  0  0  0  0
   12.0791  -18.4552   27.0660 C   0  0  1  0  0  0  0  0  0  0  0  0
   11.5407  -18.5280   25.6289 C   0  0  0  0  0  0  0  0  0  0  0  0
   12.7259  -18.8903   24.7635 C   0  0  0  0  0  0  0  0  0  0  0  0
   10.9825  -17.1847   25.3229 C   0  0  1  0  0  0  0  0  0  0  0  0
    9.8210  -16.7622   26.1787 N   0  0  0  0  0  0  0  0  0  0  0  0
    9.4812  -15.3724   25.8100 C   0  0  0  0  0  0  0  0  0  0  0  0
   10.0624  -16.8488   27.6082 O   0  0  0  0  0  0  0  0  0  0  0  0
   10.4430  -15.8451   28.2477 O   0  0  0  0  0  0  0  0  0  0  0  0
  1  2  1  0
  2  3  2  0
  4  2  1  0
  4  5  1  0
  6  5  1  0
  7  6  1  0
  8 10  1  0
  8  7  1  0
  8  9  1  6
 10 11  2  0
 13 12  1  0
 14 13  1  0
 14 16  1  0
 14 15  1  6
 16 18  1  0
 16 17  1  1
 17 10  1  0
 18 25  1  0
 18 19  2  0
 21 20  1  1
 21 22  1  0
 23 21  1  0
 24 23  1  6
 24 26  1  0
 25 24  1  0
 26 27  2  0
 26 28  1  0
M  END
$$$$
