RIL.pdb
     RDKit          3D

 28 27  0  0  1  0  0  0  0  0999 V2000
    8.5233  -14.5792   14.6627 N   0  0  0  0  0  0  0  0  0  0  0  0
    8.6921  -14.0658   15.9674 C   0  0  0  0  0  0  0  0  0  0  0  0
    8.1027  -12.9608   16.2571 N   0  0  0  0  0  0  0  0  0  0  0  0
    9.4818  -14.7233   16.9556 N   0  0  0  0  0  0  0  0  0  0  0  0
    8.9274  -15.1271   18.1953 C   0  0  0  0  0  0  0  0  0  0  0  0
    7.7124  -14.3811   18.6093 C   0  0  0  0  0  0  0  0  0  0  0  0
    7.1419  -14.7040   19.9332 C   0  0  0  0  0  0  0  0  0  0  0  0
    7.8617  -15.6640   20.7934 C   0  0  2  0  0  0  0  0  0  0  0  0
    6.9879  -16.7858   21.0971 N   0  0  0  0  0  0  0  0  0  0  0  0
    8.3616  -15.0425   22.0589 C   0  0  0  0  0  0  0  0  0  0  0  0
    9.4344  -14.3864   22.0484 O   0  0  0  0  0  0  0  0  0  0  0  0
    8.2189  -12.4815   17.1672 C   0  0  0  0  0  0  0  0  0  0  0  0
    5.5848  -12.0357   26.0213 C   0  0  0  0  0  0  0  0  0  0  0  0
    6.8970  -12.4767   25.4169 C   0  0  2  0  0  0  0  0  0  0  0  0
    6.9350  -13.9294   25.1394 C   0  0  0  0  0  0  0  0  0  0  0  0
    6.6560  -14.7161   26.4068 C   0  0  2  0  0  0  0  0  0  0  0  0
    8.1663  -14.4901   24.5209 N   0  0  0  0  0  0  0  0  0  0  0  0
    7.6796  -15.1556   23.2891 C   0  0  0  0  0  0  0  0  0  0  0  0
    8.8122  -15.5356   25.3459 O   0  0  0  0  0  0  0  0  0  0  0  0
    8.3926  -16.7529   25.3042 C   0  0  0  0  0  0  0  0  0  0  0  0
   10.8930  -13.5849   28.0233 C   0  0  2  0  0  0  0  0  0  0  0  0
   10.1763  -14.7463   28.7289 C   0  0  0  0  0  0  0  0  0  0  0  0
   10.3073  -14.4715   30.2096 C   0  0  0  0  0  0  0  0  0  0  0  0
   10.8716  -15.9886   28.3013 C   0  0  1  0  0  0  0  0  0  0  0  0
   10.6094  -16.4152   26.8838 N   0  0  0  0  0  0  0  0  0  0  0  0
    9.8975  -15.3083   26.2123 C   0  0  0  0  0  0  0  0  0  0  0  0
    9.8452  -17.6434   26.7554 O   0  0  0  0  0  0  0  0  0  0  0  0
    8.6676  -17.6156   26.3388 O   0  0  0  0  0  0  0  0  0  0  0  0
  1  2  1  0
  2  3  2  0
  4  2  1  0
  4  5  1  0
  6  5  1  0
  7  6  1  0
  8 10  1  0
  8  7  1  0
  8  9  1  1
 10 11  2  0
 13 12  1  0
 14 13  1  0
 14 16  1  0
 14 15  1  6
 16 18  1  0
 16 17  1  1
 17 10  1  0
 18 25  1  0
 18 19  2  0
 21 20  1  6
 21 22  1  0
 23 21  1  0
 24 23  1  6
 24 26  1  0
 25 24  1  0
 26 27  2  0
 26 28  1  0
M  END
$$$$
