RIL.pdb
     RDKit          3D

 28 27  0  0  1  0  0  0  0  0999 V2000
    7.1710  -21.5765   18.6032 N   0  0  0  0  0  0  0  0  0  0  0  0
    7.4972  -21.7949   19.9598 C   0  0  0  0  0  0  0  0  0  0  0  0
    8.4521  -22.6146   20.2217 N   0  0  0  0  0  0  0  0  0  0  0  0
    6.8126  -21.1461   21.0287 N   0  0  0  0  0  0  0  0  0  0  0  0
    7.5078  -20.6585   22.1629 C   0  0  0  0  0  0  0  0  0  0  0  0
    8.3278  -19.4451   21.9196 C   0  0  0  0  0  0  0  0  0  0  0  0
    8.1499  -18.3134   22.8522 C   0  0  0  0  0  0  0  0  0  0  0  0
    7.5223  -17.0769   22.3452 C   0  0  2  0  0  0  0  0  0  0  0  0
    7.6026  -17.0577   20.8935 N   0  0  0  0  0  0  0  0  0  0  0  0
    8.1437  -15.8401   22.9124 C   0  0  0  0  0  0  0  0  0  0  0  0
    9.2134  -15.3991   22.4199 O   0  0  0  0  0  0  0  0  0  0  0  0
    8.7995  -22.7874   21.1813 C   0  0  0  0  0  0  0  0  0  0  0  0
    4.7798  -12.4584   25.6656 C   0  0  0  0  0  0  0  0  0  0  0  0
    5.8283  -12.9224   24.6823 C   0  0  2  0  0  0  0  0  0  0  0  0
    7.1079  -13.2705   25.3382 C   0  0  0  0  0  0  0  0  0  0  0  0
    7.6912  -12.0552   26.0352 C   0  0  2  0  0  0  0  0  0  0  0  0
    8.1813  -13.8702   24.5008 N   0  0  0  0  0  0  0  0  0  0  0  0
    7.5821  -15.1272   23.9931 C   0  0  0  0  0  0  0  0  0  0  0  0
    9.3840  -14.2512   25.2749 O   0  0  0  0  0  0  0  0  0  0  0  0
   10.3111  -13.3879   25.5089 C   0  0  0  0  0  0  0  0  0  0  0  0
    9.8629  -15.8135   30.5908 C   0  0  1  0  0  0  0  0  0  0  0  0
   10.8010  -15.6429   29.3862 C   0  0  0  0  0  0  0  0  0  0  0  0
   11.5980  -14.3880   29.6601 C   0  0  0  0  0  0  0  0  0  0  0  0
    9.9277  -15.5308   28.1885 C   0  0  2  0  0  0  0  0  0  0  0  0
   10.6107  -15.7729   26.8713 N   0  0  0  0  0  0  0  0  0  0  0  0
    9.6157  -15.5338   25.8056 C   0  0  0  0  0  0  0  0  0  0  0  0
   11.1829  -17.0995   26.7238 O   0  0  0  0  0  0  0  0  0  0  0  0
   10.4761  -18.0542   26.3364 O   0  0  0  0  0  0  0  0  0  0  0  0
  1  2  1  0
  2  3  2  0
  4  2  1  0
  4  5  1  0
  6  5  1  0
  7  6  1  0
  8 10  1  0
  8  7  1  0
  8  9  1  6
 10 11  2  0
 13 12  1  0
 14 13  1  0
 14 16  1  0
 14 15  1  1
 16 18  1  0
 16 17  1  6
 17 10  1  0
 18 25  1  0
 18 19  2  0
 21 20  1  1
 21 22  1  0
 23 21  1  0
 24 23  1  6
 24 26  1  0
 25 24  1  0
 26 27  2  0
 26 28  1  0
M  END
$$$$
