EYR.pdb
     RDKit          3D

 33 33  0  0  1  0  0  0  0  0999 V2000
   21.2158  -20.6736  -12.2245 N   0  0  0  0  0  0  0  0  0  0  0  0
   21.5902  -20.5785  -13.6182 C   0  0  1  0  0  0  0  0  0  0  0  0
   20.5483  -19.8182  -14.3719 C   0  0  0  0  0  0  0  0  0  0  0  0
   19.4445  -20.8208  -14.7164 C   0  0  0  0  0  0  0  0  0  0  0  0
   18.9239  -20.6595  -16.0682 C   0  0  0  0  0  0  0  0  0  0  0  0
   19.3117  -21.4068  -16.9872 O   0  0  0  0  0  0  0  0  0  0  0  0
   22.9551  -20.0310  -13.7121 C   0  0  0  0  0  0  0  0  0  0  0  0
   23.1641  -18.7708  -13.7800 O   0  0  0  0  0  0  0  0  0  0  0  0
   17.9811  -19.6749  -16.3712 O   0  0  0  0  0  0  0  0  0  0  0  0
   24.1992  -20.9508   -7.5533 O   0  0  0  0  0  0  0  0  0  0  0  0
   24.5785  -20.5490   -8.8147 C   0  0  0  0  0  0  0  0  0  0  0  0
   25.8802  -20.7134   -9.2067 C   0  0  0  0  0  0  0  0  0  0  0  0
   26.2875  -20.3206  -10.4631 C   0  0  0  0  0  0  0  0  0  0  0  0
   25.4461  -19.7535  -11.3878 C   0  0  0  0  0  0  0  0  0  0  0  0
   25.8107  -19.3402  -12.7543 C   0  0  0  0  0  0  0  0  0  0  0  0
   25.4662  -20.4227  -13.7723 C   0  0  2  0  0  0  0  0  0  0  0  0
   24.1128  -20.8608  -13.7358 N   0  0  0  0  0  0  0  0  0  0  0  0
   26.4898  -21.4849  -13.8412 C   0  0  0  0  0  0  0  0  0  0  0  0
   26.5008  -22.4008  -12.9567 O   0  0  0  0  0  0  0  0  0  0  0  0
   24.1222  -19.5942  -10.9684 C   0  0  0  0  0  0  0  0  0  0  0  0
   23.7038  -19.9831   -9.7143 C   0  0  0  0  0  0  0  0  0  0  0  0
   24.6664  -27.6599  -16.4686 N   0  0  0  0  0  0  0  0  0  0  0  0
   25.9488  -27.3639  -17.0126 C   0  0  0  0  0  0  0  0  0  0  0  0
   26.7726  -28.3569  -17.1990 N   0  0  0  0  0  0  0  0  0  0  0  0
   26.3255  -26.0296  -17.3423 N   0  0  0  0  0  0  0  0  0  0  0  0
   25.3546  -25.0093  -17.1130 C   0  0  0  0  0  0  0  0  0  0  0  0
   25.7148  -23.6311  -17.4892 C   0  0  0  0  0  0  0  0  0  0  0  0
   25.9939  -22.6274  -16.4472 C   0  0  0  0  0  0  0  0  0  0  0  0
   27.3968  -22.5333  -15.9372 C   0  0  2  0  0  0  0  0  0  0  0  0
   27.4757  -21.5632  -14.8292 N   0  0  0  0  0  0  0  0  0  0  0  0
   28.4215  -22.2318  -16.9520 C   0  0  0  0  0  0  0  0  0  0  0  0
   29.2261  -23.2239  -17.4700 O   0  0  0  0  0  0  0  0  0  0  0  0
   28.5865  -21.0585  -17.3689 O   0  0  0  0  0  0  0  0  0  0  0  0
  2  3  1  0
  2  1  1  1
  4  3  1  0
  5  4  1  0
  5  6  2  0
  7  8  2  0
  7  2  1  0
  9  5  1  0
 10 11  1  0
 11 12  2  0
 12 13  1  0
 14 15  1  0
 14 13  2  0
 16 15  1  1
 16 17  1  0
 17  7  1  0
 18 16  1  0
 19 18  2  0
 20 14  1  0
 21 20  2  0
 21 11  1  0
 23 22  1  0
 24 23  2  0
 25 23  1  0
 26 27  1  0
 26 25  1  0
 27 28  1  0
 29 28  1  6
 29 31  1  0
 29 30  1  0
 30 18  1  0
 31 32  1  0
 33 31  2  0
M  END
$$$$
