EYR.pdb
     RDKit          3D

 33 33  0  0  1  0  0  0  0  0999 V2000
   18.3491  -25.2561   -9.4784 N   0  0  0  0  0  0  0  0  0  0  0  0
   17.9193  -23.9623   -8.9958 C   0  0  1  0  0  0  0  0  0  0  0  0
   18.3120  -23.8000   -7.5636 C   0  0  0  0  0  0  0  0  0  0  0  0
   17.7600  -25.0196   -6.8218 C   0  0  0  0  0  0  0  0  0  0  0  0
   18.0807  -25.0205   -5.4001 C   0  0  0  0  0  0  0  0  0  0  0  0
   17.2269  -24.6752   -4.5603 O   0  0  0  0  0  0  0  0  0  0  0  0
   18.4242  -22.9188   -9.9055 C   0  0  0  0  0  0  0  0  0  0  0  0
   18.1460  -21.6837   -9.7220 O   0  0  0  0  0  0  0  0  0  0  0  0
   19.3408  -25.4081   -4.9396 O   0  0  0  0  0  0  0  0  0  0  0  0
   23.1779  -18.4556  -15.7863 O   0  0  0  0  0  0  0  0  0  0  0  0
   22.7352  -19.3993  -14.8865 C   0  0  0  0  0  0  0  0  0  0  0  0
   22.2890  -18.9947  -13.6568 C   0  0  0  0  0  0  0  0  0  0  0  0
   21.8402  -19.9172  -12.7369 C   0  0  0  0  0  0  0  0  0  0  0  0
   21.8067  -21.2687  -12.9759 C   0  0  0  0  0  0  0  0  0  0  0  0
   21.3124  -22.3018  -12.0491 C   0  0  0  0  0  0  0  0  0  0  0  0
   19.7903  -22.2777  -11.9513 C   0  0  2  0  0  0  0  0  0  0  0  0
   19.2410  -23.2167  -11.0339 N   0  0  0  0  0  0  0  0  0  0  0  0
   19.1367  -22.2045  -13.2735 C   0  0  0  0  0  0  0  0  0  0  0  0
   18.8494  -23.2813  -13.8893 O   0  0  0  0  0  0  0  0  0  0  0  0
   22.2664  -21.6612  -14.2364 C   0  0  0  0  0  0  0  0  0  0  0  0
   22.7177  -20.7474  -15.1640 C   0  0  0  0  0  0  0  0  0  0  0  0
   20.8477  -14.9570  -15.6263 N   0  0  0  0  0  0  0  0  0  0  0  0
   21.1726  -16.0660  -16.4586 C   0  0  0  0  0  0  0  0  0  0  0  0
   22.3175  -16.0420  -17.0817 N   0  0  0  0  0  0  0  0  0  0  0  0
   20.2802  -17.1666  -16.6109 N   0  0  0  0  0  0  0  0  0  0  0  0
   19.1492  -17.2058  -15.7417 C   0  0  0  0  0  0  0  0  0  0  0  0
   18.8012  -18.5032  -15.1367 C   0  0  0  0  0  0  0  0  0  0  0  0
   18.6941  -19.7082  -15.9779 C   0  0  0  0  0  0  0  0  0  0  0  0
   18.3022  -20.9862  -15.3068 C   0  0  2  0  0  0  0  0  0  0  0  0
   18.8014  -21.0109  -13.9193 N   0  0  0  0  0  0  0  0  0  0  0  0
   18.6954  -22.2189  -16.0114 C   0  0  0  0  0  0  0  0  0  0  0  0
   17.7526  -23.0419  -16.5892 O   0  0  0  0  0  0  0  0  0  0  0  0
   19.9038  -22.5497  -16.1009 O   0  0  0  0  0  0  0  0  0  0  0  0
  2  3  1  0
  2  1  1  6
  4  3  1  0
  5  4  1  0
  5  6  2  0
  7  8  2  0
  7  2  1  0
  9  5  1  0
 10 11  1  0
 11 12  2  0
 12 13  1  0
 14 15  1  0
 14 13  2  0
 16 15  1  6
 16 17  1  0
 17  7  1  0
 18 16  1  0
 19 18  2  0
 20 14  1  0
 21 20  2  0
 21 11  1  0
 23 22  1  0
 24 23  2  0
 25 23  1  0
 26 27  1  0
 26 25  1  0
 27 28  1  0
 29 28  1  6
 29 31  1  0
 29 30  1  0
 30 18  1  0
 31 32  1  0
 33 31  2  0
M  END
$$$$
