EYR.pdb
     RDKit          3D

 33 33  0  0  1  0  0  0  0  0999 V2000
   28.5067  -22.9552  -17.6235 N   0  0  0  0  0  0  0  0  0  0  0  0
   27.8326  -21.7042  -17.3547 C   0  0  1  0  0  0  0  0  0  0  0  0
   26.9385  -21.3545  -18.4992 C   0  0  0  0  0  0  0  0  0  0  0  0
   27.8548  -21.0056  -19.6743 C   0  0  0  0  0  0  0  0  0  0  0  0
   28.5139  -19.7143  -19.5246 C   0  0  0  0  0  0  0  0  0  0  0  0
   27.9509  -18.7854  -18.9133 O   0  0  0  0  0  0  0  0  0  0  0  0
   27.1663  -21.7903  -16.0432 C   0  0  0  0  0  0  0  0  0  0  0  0
   26.3113  -22.7074  -15.7895 O   0  0  0  0  0  0  0  0  0  0  0  0
   29.7854  -19.4817  -20.0530 O   0  0  0  0  0  0  0  0  0  0  0  0
   25.4154  -20.5813   -7.4400 O   0  0  0  0  0  0  0  0  0  0  0  0
   25.9733  -20.5008   -8.6964 C   0  0  0  0  0  0  0  0  0  0  0  0
   25.5693  -19.5057   -9.5460 C   0  0  0  0  0  0  0  0  0  0  0  0
   26.1108  -19.4011  -10.8088 C   0  0  0  0  0  0  0  0  0  0  0  0
   27.0662  -20.2586  -11.2953 C   0  0  0  0  0  0  0  0  0  0  0  0
   27.7053  -20.1838  -12.6207 C   0  0  0  0  0  0  0  0  0  0  0  0
   26.8746  -20.9025  -13.6791 C   0  0  2  0  0  0  0  0  0  0  0  0
   27.4270  -20.8673  -14.9900 N   0  0  0  0  0  0  0  0  0  0  0  0
   25.4335  -20.5975  -13.5744 C   0  0  0  0  0  0  0  0  0  0  0  0
   24.9755  -19.5450  -14.1257 O   0  0  0  0  0  0  0  0  0  0  0  0
   27.4648  -21.2670  -10.4131 C   0  0  0  0  0  0  0  0  0  0  0  0
   26.9300  -21.3813   -9.1481 C   0  0  0  0  0  0  0  0  0  0  0  0
   18.4112  -25.2348  -14.8618 N   0  0  0  0  0  0  0  0  0  0  0  0
   18.1736  -23.8859  -15.2520 C   0  0  0  0  0  0  0  0  0  0  0  0
   17.2550  -23.6672  -16.1507 N   0  0  0  0  0  0  0  0  0  0  0  0
   18.9129  -22.8076  -14.6846 N   0  0  0  0  0  0  0  0  0  0  0  0
   19.9048  -23.1443  -13.7156 C   0  0  0  0  0  0  0  0  0  0  0  0
   20.7801  -22.0615  -13.2341 C   0  0  0  0  0  0  0  0  0  0  0  0
   22.2447  -22.2003  -13.3169 C   0  0  0  0  0  0  0  0  0  0  0  0
   23.0753  -21.0535  -12.8353 C   0  0  2  0  0  0  0  0  0  0  0  0
   24.5083  -21.3968  -12.8966 N   0  0  0  0  0  0  0  0  0  0  0  0
   22.7316  -20.5391  -11.4981 C   0  0  0  0  0  0  0  0  0  0  0  0
   21.6953  -19.6475  -11.3215 O   0  0  0  0  0  0  0  0  0  0  0  0
   23.3787  -20.9022  -10.4847 O   0  0  0  0  0  0  0  0  0  0  0  0
  2  3  1  0
  2  1  1  6
  4  3  1  0
  5  4  1  0
  5  6  2  0
  7  8  2  0
  7  2  1  0
  9  5  1  0
 10 11  1  0
 11 12  2  0
 12 13  1  0
 14 15  1  0
 14 13  2  0
 16 15  1  1
 16 17  1  0
 17  7  1  0
 18 16  1  0
 19 18  2  0
 20 14  1  0
 21 20  2  0
 21 11  1  0
 23 22  1  0
 24 23  2  0
 25 23  1  0
 26 27  1  0
 26 25  1  0
 27 28  1  0
 29 28  1  1
 29 31  1  0
 29 30  1  0
 30 18  1  0
 31 32  1  0
 33 31  2  0
M  END
$$$$
