EYR.pdb
     RDKit          3D

 33 33  0  0  1  0  0  0  0  0999 V2000
   23.0852  -12.3721  -18.6977 N   0  0  0  0  0  0  0  0  0  0  0  0
   22.4179  -12.6771  -17.4514 C   0  0  1  0  0  0  0  0  0  0  0  0
   22.9365  -13.9656  -16.9013 C   0  0  0  0  0  0  0  0  0  0  0  0
   22.4704  -15.0646  -17.8591 C   0  0  0  0  0  0  0  0  0  0  0  0
   23.4304  -15.3478  -18.9186 C   0  0  0  0  0  0  0  0  0  0  0  0
   23.0740  -15.3355  -20.1129 O   0  0  0  0  0  0  0  0  0  0  0  0
   22.5349  -11.5186  -16.5484 C   0  0  0  0  0  0  0  0  0  0  0  0
   22.0997  -11.5645  -15.3463 O   0  0  0  0  0  0  0  0  0  0  0  0
   24.7664  -15.6351  -18.6311 O   0  0  0  0  0  0  0  0  0  0  0  0
   29.0000  -11.8769  -16.3633 O   0  0  0  0  0  0  0  0  0  0  0  0
   27.9274  -11.0134  -16.3571 C   0  0  0  0  0  0  0  0  0  0  0  0
   27.4375  -10.5455  -17.5471 C   0  0  0  0  0  0  0  0  0  0  0  0
   26.3651   -9.6805  -17.5707 C   0  0  0  0  0  0  0  0  0  0  0  0
   25.7264   -9.2369  -16.4393 C   0  0  0  0  0  0  0  0  0  0  0  0
   24.5595   -8.3384  -16.3974 C   0  0  0  0  0  0  0  0  0  0  0  0
   23.2685   -9.1157  -16.1606 C   0  0  2  0  0  0  0  0  0  0  0  0
   23.1300  -10.2893  -16.9533 N   0  0  0  0  0  0  0  0  0  0  0  0
   22.0823   -8.2391  -16.0874 C   0  0  0  0  0  0  0  0  0  0  0  0
   21.6788   -7.6442  -17.1384 O   0  0  0  0  0  0  0  0  0  0  0  0
   26.2416   -9.7257  -15.2352 C   0  0  0  0  0  0  0  0  0  0  0  0
   27.3137  -10.5909  -15.1997 C   0  0  0  0  0  0  0  0  0  0  0  0
   14.4675   -9.0325  -12.1868 N   0  0  0  0  0  0  0  0  0  0  0  0
   14.7943   -9.3398  -13.5384 C   0  0  0  0  0  0  0  0  0  0  0  0
   14.0837  -10.2508  -14.1422 N   0  0  0  0  0  0  0  0  0  0  0  0
   15.8617   -8.6790  -14.2129 N   0  0  0  0  0  0  0  0  0  0  0  0
   16.5816   -7.6941  -13.4728 C   0  0  0  0  0  0  0  0  0  0  0  0
   17.7490   -7.0736  -14.1230 C   0  0  0  0  0  0  0  0  0  0  0  0
   19.0184   -7.8141  -14.2296 C   0  0  0  0  0  0  0  0  0  0  0  0
   20.1632   -7.1282  -14.9050 C   0  0  2  0  0  0  0  0  0  0  0  0
   21.3493   -8.0046  -14.9204 N   0  0  0  0  0  0  0  0  0  0  0  0
   20.5160   -5.8033  -14.3657 C   0  0  0  0  0  0  0  0  0  0  0  0
   19.7706   -4.6857  -14.6747 O   0  0  0  0  0  0  0  0  0  0  0  0
   21.5091   -5.6613  -13.6098 O   0  0  0  0  0  0  0  0  0  0  0  0
  2  3  1  0
  2  1  1  6
  4  3  1  0
  5  4  1  0
  5  6  2  0
  7  8  2  0
  7  2  1  0
  9  5  1  0
 10 11  1  0
 11 12  2  0
 12 13  1  0
 14 15  1  0
 14 13  2  0
 16 15  1  6
 16 17  1  0
 17  7  1  0
 18 16  1  0
 19 18  2  0
 20 14  1  0
 21 20  2  0
 21 11  1  0
 23 22  1  0
 24 23  2  0
 25 23  1  0
 26 27  1  0
 26 25  1  0
 27 28  1  0
 29 28  1  1
 29 31  1  0
 29 30  1  0
 30 18  1  0
 31 32  1  0
 33 31  2  0
M  END
$$$$
