EYR.pdb
     RDKit          3D

 33 33  0  0  1  0  0  0  0  0999 V2000
   25.6043  -19.6310  -18.6530 N   0  0  0  0  0  0  0  0  0  0  0  0
   25.2176  -18.8891  -17.4734 C   0  0  1  0  0  0  0  0  0  0  0  0
   23.7491  -18.6170  -17.5048 C   0  0  0  0  0  0  0  0  0  0  0  0
   23.5228  -17.5867  -18.6137 C   0  0  0  0  0  0  0  0  0  0  0  0
   22.5029  -16.6000  -18.2813 C   0  0  0  0  0  0  0  0  0  0  0  0
   21.2940  -16.8973  -18.3412 O   0  0  0  0  0  0  0  0  0  0  0  0
   25.6961  -19.6054  -16.2778 C   0  0  0  0  0  0  0  0  0  0  0  0
   25.6108  -20.8784  -16.1854 O   0  0  0  0  0  0  0  0  0  0  0  0
   22.8457  -15.3054  -17.8857 O   0  0  0  0  0  0  0  0  0  0  0  0
   28.3022  -21.2172   -8.0020 O   0  0  0  0  0  0  0  0  0  0  0  0
   28.1131  -20.5967   -9.2167 C   0  0  0  0  0  0  0  0  0  0  0  0
   28.8793  -20.9731  -10.2874 C   0  0  0  0  0  0  0  0  0  0  0  0
   28.7114  -20.3695  -11.5146 C   0  0  0  0  0  0  0  0  0  0  0  0
   27.7923  -19.3772  -11.7499 C   0  0  0  0  0  0  0  0  0  0  0  0
   27.5430  -18.7136  -13.0415 C   0  0  0  0  0  0  0  0  0  0  0  0
   26.5357  -19.4931  -13.8809 C   0  0  2  0  0  0  0  0  0  0  0  0
   26.2737  -18.9331  -15.1626 N   0  0  0  0  0  0  0  0  0  0  0  0
   25.3530  -19.9145  -13.1035 C   0  0  0  0  0  0  0  0  0  0  0  0
   24.4641  -19.0542  -12.8018 O   0  0  0  0  0  0  0  0  0  0  0  0
   27.0205  -19.0073  -10.6446 C   0  0  0  0  0  0  0  0  0  0  0  0
   27.1800  -19.6040   -9.4126 C   0  0  0  0  0  0  0  0  0  0  0  0
   21.0466  -27.4432  -13.0153 N   0  0  0  0  0  0  0  0  0  0  0  0
   20.1060  -26.3814  -13.1410 C   0  0  0  0  0  0  0  0  0  0  0  0
   18.8536  -26.6981  -13.3169 N   0  0  0  0  0  0  0  0  0  0  0  0
   20.5135  -25.0171  -13.0795 N   0  0  0  0  0  0  0  0  0  0  0  0
   21.8553  -24.7623  -12.6661 C   0  0  0  0  0  0  0  0  0  0  0  0
   22.2553  -23.3560  -12.4844 C   0  0  0  0  0  0  0  0  0  0  0  0
   23.6164  -23.0259  -12.0266 C   0  0  0  0  0  0  0  0  0  0  0  0
   23.9525  -21.5797  -11.8462 C   0  0  2  0  0  0  0  0  0  0  0  0
   25.1291  -21.2212  -12.6599 N   0  0  0  0  0  0  0  0  0  0  0  0
   24.1448  -21.1425  -10.4524 C   0  0  0  0  0  0  0  0  0  0  0  0
   23.1893  -20.3914   -9.8022 O   0  0  0  0  0  0  0  0  0  0  0  0
   25.1889  -21.4447   -9.8230 O   0  0  0  0  0  0  0  0  0  0  0  0
  2  3  1  0
  2  1  1  6
  4  3  1  0
  5  4  1  0
  5  6  2  0
  7  8  2  0
  7  2  1  0
  9  5  1  0
 10 11  1  0
 11 12  2  0
 12 13  1  0
 14 15  1  0
 14 13  2  0
 16 15  1  1
 16 17  1  0
 17  7  1  0
 18 16  1  0
 19 18  2  0
 20 14  1  0
 21 20  2  0
 21 11  1  0
 23 22  1  0
 24 23  2  0
 25 23  1  0
 26 27  1  0
 26 25  1  0
 27 28  1  0
 29 28  1  1
 29 31  1  0
 29 30  1  0
 30 18  1  0
 31 32  1  0
 33 31  2  0
M  END
$$$$
