EYR.pdb
     RDKit          3D

 33 33  0  0  1  0  0  0  0  0999 V2000
   40.1495   -2.8508   -9.2290 N   0  0  0  0  0  0  0  0  0  0  0  0
   41.2017   -3.3736   -8.3857 C   0  0  1  0  0  0  0  0  0  0  0  0
   41.3388   -2.5266   -7.1629 C   0  0  0  0  0  0  0  0  0  0  0  0
   39.9719   -2.5349   -6.4743 C   0  0  0  0  0  0  0  0  0  0  0  0
   39.9500   -1.7719   -5.2327 C   0  0  0  0  0  0  0  0  0  0  0  0
   38.9214   -1.7404   -4.5295 O   0  0  0  0  0  0  0  0  0  0  0  0
   40.9477   -4.8028   -8.1321 C   0  0  0  0  0  0  0  0  0  0  0  0
   41.7750   -5.5188   -7.4692 O   0  0  0  0  0  0  0  0  0  0  0  0
   41.0707   -1.0629   -4.7954 O   0  0  0  0  0  0  0  0  0  0  0  0
   36.5828  -11.9804   -5.8016 O   0  0  0  0  0  0  0  0  0  0  0  0
   36.9103  -10.7837   -6.3988 C   0  0  0  0  0  0  0  0  0  0  0  0
   37.0729  -10.7357   -7.7577 C   0  0  0  0  0  0  0  0  0  0  0  0
   37.4003   -9.5517   -8.3818 C   0  0  0  0  0  0  0  0  0  0  0  0
   37.5821   -8.3680   -7.7105 C   0  0  0  0  0  0  0  0  0  0  0  0
   37.9029   -7.0653   -8.3195 C   0  0  0  0  0  0  0  0  0  0  0  0
   39.4075   -6.8150   -8.3349 C   0  0  2  0  0  0  0  0  0  0  0  0
   39.7812   -5.4690   -8.6059 N   0  0  0  0  0  0  0  0  0  0  0  0
   40.1494   -7.8554   -9.0753 C   0  0  0  0  0  0  0  0  0  0  0  0
   40.1762   -7.8182  -10.3478 O   0  0  0  0  0  0  0  0  0  0  0  0
   37.4120   -8.4381   -6.3248 C   0  0  0  0  0  0  0  0  0  0  0  0
   37.0847   -9.6167   -5.6900 C   0  0  0  0  0  0  0  0  0  0  0  0
   46.8219  -13.0735   -6.5870 N   0  0  0  0  0  0  0  0  0  0  0  0
   46.1361  -11.9021   -6.1561 C   0  0  0  0  0  0  0  0  0  0  0  0
   46.5109  -11.3587   -5.0320 N   0  0  0  0  0  0  0  0  0  0  0  0
   45.0743  -11.3392   -6.9222 N   0  0  0  0  0  0  0  0  0  0  0  0
   44.7798  -11.9613   -8.1721 C   0  0  0  0  0  0  0  0  0  0  0  0
   43.6658  -11.4077   -8.9614 C   0  0  0  0  0  0  0  0  0  0  0  0
   42.7372  -10.4382   -8.3540 C   0  0  0  0  0  0  0  0  0  0  0  0
   41.7011   -9.8251   -9.2415 C   0  0  2  0  0  0  0  0  0  0  0  0
   40.8423   -8.9077   -8.4696 N   0  0  0  0  0  0  0  0  0  0  0  0
   40.8740  -10.7776  -10.0026 C   0  0  0  0  0  0  0  0  0  0  0  0
   41.0970  -11.0028  -11.3441 O   0  0  0  0  0  0  0  0  0  0  0  0
   39.9420  -11.4079   -9.4440 O   0  0  0  0  0  0  0  0  0  0  0  0
  2  3  1  0
  2  1  1  6
  4  3  1  0
  5  4  1  0
  5  6  2  0
  7  8  2  0
  7  2  1  0
  9  5  1  0
 10 11  1  0
 11 12  2  0
 12 13  1  0
 14 15  1  0
 14 13  2  0
 16 15  1  6
 16 17  1  0
 17  7  1  0
 18 16  1  0
 19 18  2  0
 20 14  1  0
 21 20  2  0
 21 11  1  0
 23 22  1  0
 24 23  2  0
 25 23  1  0
 26 27  1  0
 26 25  1  0
 27 28  1  0
 29 28  1  1
 29 31  1  0
 29 30  1  0
 30 18  1  0
 31 32  1  0
 33 31  2  0
M  END
$$$$
