EYR.pdb
     RDKit          3D

 33 33  0  0  1  0  0  0  0  0999 V2000
   41.8293  -12.2674  -11.0452 N   0  0  0  0  0  0  0  0  0  0  0  0
   43.0931  -11.6549  -10.7000 C   0  0  1  0  0  0  0  0  0  0  0  0
   43.5539  -10.7789  -11.8188 C   0  0  0  0  0  0  0  0  0  0  0  0
   42.4347   -9.7642  -12.0640 C   0  0  0  0  0  0  0  0  0  0  0  0
   42.7833   -8.7530  -13.0541 C   0  0  0  0  0  0  0  0  0  0  0  0
   43.0132   -9.0788  -14.2350 O   0  0  0  0  0  0  0  0  0  0  0  0
   42.9609  -10.9851   -9.3941 C   0  0  0  0  0  0  0  0  0  0  0  0
   41.8867  -10.3732   -9.0653 O   0  0  0  0  0  0  0  0  0  0  0  0
   42.8660   -7.4011  -12.7141 O   0  0  0  0  0  0  0  0  0  0  0  0
   44.3007   -8.7986   -0.9541 O   0  0  0  0  0  0  0  0  0  0  0  0
   44.4045   -9.3990   -2.1890 C   0  0  0  0  0  0  0  0  0  0  0  0
   43.3454  -10.1181   -2.6752 C   0  0  0  0  0  0  0  0  0  0  0  0
   43.4215  -10.7291   -3.9079 C   0  0  0  0  0  0  0  0  0  0  0  0
   44.5290  -10.6650   -4.7166 C   0  0  0  0  0  0  0  0  0  0  0  0
   44.6633  -11.2689   -6.0538 C   0  0  0  0  0  0  0  0  0  0  0  0
   43.9397  -10.4418   -7.1118 C   0  0  2  0  0  0  0  0  0  0  0  0
   44.0089  -10.9746   -8.4295 N   0  0  0  0  0  0  0  0  0  0  0  0
   44.2060   -8.9950   -6.9827 C   0  0  0  0  0  0  0  0  0  0  0  0
   45.1680   -8.4757   -7.6355 O   0  0  0  0  0  0  0  0  0  0  0  0
   45.5989   -9.9268   -4.2023 C   0  0  0  0  0  0  0  0  0  0  0  0
   45.5340   -9.3117   -2.9708 C   0  0  0  0  0  0  0  0  0  0  0  0
   41.6916   -2.3091   -3.1688 N   0  0  0  0  0  0  0  0  0  0  0  0
   41.5423   -1.5995   -4.3944 C   0  0  0  0  0  0  0  0  0  0  0  0
   41.6115   -0.2983   -4.3543 N   0  0  0  0  0  0  0  0  0  0  0  0
   41.3225   -2.2825   -5.6258 N   0  0  0  0  0  0  0  0  0  0  0  0
   41.2302   -3.7052   -5.5674 C   0  0  0  0  0  0  0  0  0  0  0  0
   42.4589   -4.4773   -5.8216 C   0  0  0  0  0  0  0  0  0  0  0  0
   42.4123   -5.9492   -5.8713 C   0  0  0  0  0  0  0  0  0  0  0  0
   43.6850   -6.6703   -6.1832 C   0  0  2  0  0  0  0  0  0  0  0  0
   43.4636   -8.1283   -6.1752 N   0  0  0  0  0  0  0  0  0  0  0  0
   44.8350   -6.3251   -5.3293 C   0  0  0  0  0  0  0  0  0  0  0  0
   45.8478   -5.5121   -5.7911 O   0  0  0  0  0  0  0  0  0  0  0  0
   44.9194   -6.7668   -4.1565 O   0  0  0  0  0  0  0  0  0  0  0  0
  2  3  1  0
  2  1  1  6
  4  3  1  0
  5  4  1  0
  5  6  2  0
  7  8  2  0
  7  2  1  0
  9  5  1  0
 10 11  1  0
 11 12  2  0
 12 13  1  0
 14 15  1  0
 14 13  2  0
 16 15  1  1
 16 17  1  0
 17  7  1  0
 18 16  1  0
 19 18  2  0
 20 14  1  0
 21 20  2  0
 21 11  1  0
 23 22  1  0
 24 23  2  0
 25 23  1  0
 26 27  1  0
 26 25  1  0
 27 28  1  0
 29 28  1  1
 29 31  1  0
 29 30  1  0
 30 18  1  0
 31 32  1  0
 33 31  2  0
M  END
$$$$
