EYR.pdb
     RDKit          3D

 33 33  0  0  1  0  0  0  0  0999 V2000
   20.6514  -16.8008  -17.6495 N   0  0  0  0  0  0  0  0  0  0  0  0
   20.3992  -15.3767  -17.6490 C   0  0  1  0  0  0  0  0  0  0  0  0
   19.1400  -15.0856  -16.8997 C   0  0  0  0  0  0  0  0  0  0  0  0
   19.0052  -16.1789  -15.8372 C   0  0  0  0  0  0  0  0  0  0  0  0
   17.6278  -16.6046  -15.6230 C   0  0  0  0  0  0  0  0  0  0  0  0
   16.8828  -16.8430  -16.5934 O   0  0  0  0  0  0  0  0  0  0  0  0
   21.5981  -14.6772  -17.1542 C   0  0  0  0  0  0  0  0  0  0  0  0
   22.5287  -15.3039  -16.5397 O   0  0  0  0  0  0  0  0  0  0  0  0
   17.1069  -16.7603  -14.3368 O   0  0  0  0  0  0  0  0  0  0  0  0
   28.6562   -9.7638  -16.0762 O   0  0  0  0  0  0  0  0  0  0  0  0
   27.5884  -10.5857  -16.3601 C   0  0  0  0  0  0  0  0  0  0  0  0
   27.0044  -10.5217  -17.5970 C   0  0  0  0  0  0  0  0  0  0  0  0
   25.9347  -11.3325  -17.9086 C   0  0  0  0  0  0  0  0  0  0  0  0
   25.3911  -12.2376  -17.0310 C   0  0  0  0  0  0  0  0  0  0  0  0
   24.2703  -13.1521  -17.3109 C   0  0  0  0  0  0  0  0  0  0  0  0
   22.9336  -12.5263  -16.9257 C   0  0  2  0  0  0  0  0  0  0  0  0
   21.7919  -13.2763  -17.3243 N   0  0  0  0  0  0  0  0  0  0  0  0
   22.8847  -11.0760  -17.2000 C   0  0  0  0  0  0  0  0  0  0  0  0
   22.6880  -10.6713  -18.3912 O   0  0  0  0  0  0  0  0  0  0  0  0
   26.0012  -12.2875  -15.7743 C   0  0  0  0  0  0  0  0  0  0  0  0
   27.0713  -11.4812  -15.4517 C   0  0  0  0  0  0  0  0  0  0  0  0
   15.5322   -8.8566  -16.0017 N   0  0  0  0  0  0  0  0  0  0  0  0
   16.0691   -7.5510  -16.1905 C   0  0  0  0  0  0  0  0  0  0  0  0
   15.2446   -6.5990  -16.5274 N   0  0  0  0  0  0  0  0  0  0  0  0
   17.4594   -7.2882  -16.0205 N   0  0  0  0  0  0  0  0  0  0  0  0
   18.3477   -8.3960  -16.1604 C   0  0  0  0  0  0  0  0  0  0  0  0
   19.7933   -8.1226  -16.0820 C   0  0  0  0  0  0  0  0  0  0  0  0
   20.7645   -9.2194  -16.2392 C   0  0  0  0  0  0  0  0  0  0  0  0
   22.2173   -8.8648  -16.2098 C   0  0  2  0  0  0  0  0  0  0  0  0
   23.0438  -10.0862  -16.2257 N   0  0  0  0  0  0  0  0  0  0  0  0
   22.6326   -7.9832  -15.1049 C   0  0  0  0  0  0  0  0  0  0  0  0
   22.5184   -6.6131  -15.2040 O   0  0  0  0  0  0  0  0  0  0  0  0
   23.1033   -8.4623  -14.0434 O   0  0  0  0  0  0  0  0  0  0  0  0
  2  3  1  0
  2  1  1  1
  4  3  1  0
  5  4  1  0
  5  6  2  0
  7  8  2  0
  7  2  1  0
  9  5  1  0
 10 11  1  0
 11 12  2  0
 12 13  1  0
 14 15  1  0
 14 13  2  0
 16 15  1  6
 16 17  1  0
 17  7  1  0
 18 16  1  0
 19 18  2  0
 20 14  1  0
 21 20  2  0
 21 11  1  0
 23 22  1  0
 24 23  2  0
 25 23  1  0
 26 27  1  0
 26 25  1  0
 27 28  1  0
 29 28  1  1
 29 31  1  0
 29 30  1  0
 30 18  1  0
 31 32  1  0
 33 31  2  0
M  END
$$$$
