ETH.pdb
     RDKit          3D

 27 27  0  0  1  0  0  0  0  0999 V2000
    9.0663  -15.9931   15.5796 N   0  0  0  0  0  0  0  0  0  0  0  0
    8.2328  -16.4576   16.6633 C   0  0  1  0  0  0  0  0  0  0  0  0
    8.1459  -17.9571   16.7289 C   0  0  0  0  0  0  0  0  0  0  0  0
    9.4118  -18.6988   16.5580 C   0  0  0  0  0  0  0  0  0  0  0  0
    9.2065  -20.1530   16.5600 C   0  0  0  0  0  0  0  0  0  0  0  0
    8.0747  -20.6557   16.6642 O   0  0  0  0  0  0  0  0  0  0  0  0
    8.8280  -16.0042   17.9355 C   0  0  0  0  0  0  0  0  0  0  0  0
   10.0672  -15.9369   18.0522 O   0  0  0  0  0  0  0  0  0  0  0  0
   10.3307  -20.9711   16.4399 O   0  0  0  0  0  0  0  0  0  0  0  0
    7.0995  -13.1675   20.1502 C   0  0  0  0  0  0  0  0  0  0  0  0
    7.5670  -14.3182   20.9992 C   0  0  1  0  0  0  0  0  0  0  0  0
    6.5176  -15.1986   21.2503 O   0  0  0  0  0  0  0  0  0  0  0  0
    8.6064  -15.0783   20.2081 C   0  0  2  0  0  0  0  0  0  0  0  0
    7.9999  -15.6482   19.0164 N   0  0  0  0  0  0  0  0  0  0  0  0
    9.1640  -16.2280   21.0022 C   0  0  0  0  0  0  0  0  0  0  0  0
    9.2733  -17.3854   20.5160 O   0  0  0  0  0  0  0  0  0  0  0  0
    9.5891  -16.0481   22.3355 N   0  0  0  0  0  0  0  0  0  0  0  0
   10.6979  -16.7930   22.9176 C   0  0  1  0  0  0  0  0  0  0  0  0
   11.9159  -16.6062   22.0677 C   0  0  0  0  0  0  0  0  0  0  0  0
   13.0415  -17.3779   22.5805 C   0  0  0  0  0  0  0  0  0  0  0  0
   12.9099  -18.4129   23.5030 C   0  0  0  0  0  0  0  0  0  0  0  0
   14.1436  -18.8912   23.7434 N   0  0  0  0  0  0  0  0  0  0  0  0
   15.0178  -18.1838   23.0004 C   0  0  0  0  0  0  0  0  0  0  0  0
   14.3333  -17.2757   22.3060 N   0  0  0  0  0  0  0  0  0  0  0  0
   10.9464  -16.3805   24.3106 C   0  0  0  0  0  0  0  0  0  0  0  0
   11.2320  -17.3419   25.2571 O   0  0  0  0  0  0  0  0  0  0  0  0
   10.9118  -15.1717   24.7044 O   0  0  0  0  0  0  0  0  0  0  0  0
  2  1  1  6
  2  3  1  0
  4  5  1  0
  4  3  1  0
  5  6  2  0
  7 14  1  0
  7  2  1  0
  8  7  2  0
  9  5  1  0
 11 10  1  6
 11 12  1  0
 13 14  1  6
 13 11  1  0
 15 13  1  0
 16 15  2  0
 17 15  1  0
 18 19  1  6
 18 17  1  0
 19 20  1  0
 20 21  2  0
 21 22  1  0
 23 22  1  0
 24 20  1  0
 24 23  2  0
 25 26  1  0
 25 18  1  0
 27 25  2  0
M  END
$$$$
