ETH.pdb
     RDKit          3D

 27 27  0  0  1  0  0  0  0  0999 V2000
    9.0428  -15.3620   15.7309 N   0  0  0  0  0  0  0  0  0  0  0  0
    9.1663  -16.2473   16.8648 C   0  0  1  0  0  0  0  0  0  0  0  0
   10.3400  -17.1797   16.7499 C   0  0  0  0  0  0  0  0  0  0  0  0
   11.4735  -16.7139   15.9252 C   0  0  0  0  0  0  0  0  0  0  0  0
   12.5577  -17.7028   15.8645 C   0  0  0  0  0  0  0  0  0  0  0  0
   12.4733  -18.8046   16.4331 O   0  0  0  0  0  0  0  0  0  0  0  0
    9.3832  -15.4281   18.0732 C   0  0  0  0  0  0  0  0  0  0  0  0
   10.1845  -14.4738   18.0411 O   0  0  0  0  0  0  0  0  0  0  0  0
   13.7041  -17.3710   15.1412 O   0  0  0  0  0  0  0  0  0  0  0  0
    7.3105  -13.1501   19.4548 C   0  0  0  0  0  0  0  0  0  0  0  0
    7.5113  -14.0875   20.6144 C   0  0  1  0  0  0  0  0  0  0  0  0
    6.5033  -15.0478   20.6471 O   0  0  0  0  0  0  0  0  0  0  0  0
    8.8155  -14.8181   20.3921 C   0  0  2  0  0  0  0  0  0  0  0  0
    8.6879  -15.7222   19.2611 N   0  0  0  0  0  0  0  0  0  0  0  0
    9.1780  -15.6629   21.5830 C   0  0  0  0  0  0  0  0  0  0  0  0
    9.1472  -16.9221   21.5433 O   0  0  0  0  0  0  0  0  0  0  0  0
    9.5697  -15.0675   22.8006 N   0  0  0  0  0  0  0  0  0  0  0  0
    9.9067  -15.8443   23.9864 C   0  0  1  0  0  0  0  0  0  0  0  0
   10.4963  -14.9349   25.0190 C   0  0  0  0  0  0  0  0  0  0  0  0
   10.8290  -15.6636   26.2369 C   0  0  0  0  0  0  0  0  0  0  0  0
    9.9967  -15.7217   27.3520 C   0  0  0  0  0  0  0  0  0  0  0  0
   10.6205  -16.4742   28.2757 N   0  0  0  0  0  0  0  0  0  0  0  0
   11.8003  -16.8741   27.7611 C   0  0  0  0  0  0  0  0  0  0  0  0
   11.9073  -16.3747   26.5304 N   0  0  0  0  0  0  0  0  0  0  0  0
    8.7287  -16.5592   24.5099 C   0  0  0  0  0  0  0  0  0  0  0  0
    7.4722  -16.1996   24.0700 O   0  0  0  0  0  0  0  0  0  0  0  0
    8.7974  -17.5033   25.3592 O   0  0  0  0  0  0  0  0  0  0  0  0
  2  1  1  6
  2  3  1  0
  4  5  1  0
  4  3  1  0
  5  6  2  0
  7 14  1  0
  7  2  1  0
  8  7  2  0
  9  5  1  0
 11 10  1  6
 11 12  1  0
 13 14  1  6
 13 11  1  0
 15 13  1  0
 16 15  2  0
 17 15  1  0
 18 19  1  1
 18 17  1  0
 19 20  1  0
 20 21  2  0
 21 22  1  0
 23 22  1  0
 24 20  1  0
 24 23  2  0
 25 26  1  0
 25 18  1  0
 27 25  2  0
M  END
$$$$
