ETH.pdb
     RDKit          3D

 27 27  0  0  1  0  0  0  0  0999 V2000
   11.4926  -16.6292   18.6776 N   0  0  0  0  0  0  0  0  0  0  0  0
   10.5294  -17.3260   19.4970 C   0  0  1  0  0  0  0  0  0  0  0  0
   11.0836  -18.5855   20.1028 C   0  0  0  0  0  0  0  0  0  0  0  0
   12.5553  -18.6889   20.1769 C   0  0  0  0  0  0  0  0  0  0  0  0
   13.0168  -19.0740   21.5170 C   0  0  0  0  0  0  0  0  0  0  0  0
   12.2301  -19.2001   22.4707 O   0  0  0  0  0  0  0  0  0  0  0  0
   10.1443  -16.4431   20.6152 C   0  0  0  0  0  0  0  0  0  0  0  0
   10.9730  -15.6400   21.0863 O   0  0  0  0  0  0  0  0  0  0  0  0
   14.3822  -19.2988   21.6974 O   0  0  0  0  0  0  0  0  0  0  0  0
    7.0184  -14.2952   20.6364 C   0  0  0  0  0  0  0  0  0  0  0  0
    7.0313  -15.0863   21.9160 C   0  0  1  0  0  0  0  0  0  0  0  0
    6.2526  -16.2339   21.7893 O   0  0  0  0  0  0  0  0  0  0  0  0
    8.4527  -15.5375   22.1612 C   0  0  2  0  0  0  0  0  0  0  0  0
    8.8441  -16.5060   21.1505 N   0  0  0  0  0  0  0  0  0  0  0  0
    8.5857  -16.2239   23.4932 C   0  0  0  0  0  0  0  0  0  0  0  0
    9.0718  -17.3814   23.6030 O   0  0  0  0  0  0  0  0  0  0  0  0
    8.1656  -15.5879   24.6805 N   0  0  0  0  0  0  0  0  0  0  0  0
    8.2137  -16.2380   25.9836 C   0  0  1  0  0  0  0  0  0  0  0  0
    7.8919  -15.2342   27.0463 C   0  0  0  0  0  0  0  0  0  0  0  0
    9.1039  -14.7220   27.6739 C   0  0  0  0  0  0  0  0  0  0  0  0
   10.3749  -15.2359   27.4290 C   0  0  0  0  0  0  0  0  0  0  0  0
   11.2416  -14.5256   28.1725 N   0  0  0  0  0  0  0  0  0  0  0  0
   10.5423  -13.6002   28.8590 C   0  0  0  0  0  0  0  0  0  0  0  0
    9.2545  -13.7351   28.5445 N   0  0  0  0  0  0  0  0  0  0  0  0
    7.2982  -17.3919   26.0396 C   0  0  0  0  0  0  0  0  0  0  0  0
    7.4577  -18.3304   27.0373 O   0  0  0  0  0  0  0  0  0  0  0  0
    6.3535  -17.5828   25.2099 O   0  0  0  0  0  0  0  0  0  0  0  0
  2  1  1  6
  2  3  1  0
  4  5  1  0
  4  3  1  0
  5  6  2  0
  7 14  1  0
  7  2  1  0
  8  7  2  0
  9  5  1  0
 11 10  1  6
 11 12  1  0
 13 14  1  6
 13 11  1  0
 15 13  1  0
 16 15  2  0
 17 15  1  0
 18 19  1  1
 18 17  1  0
 19 20  1  0
 20 21  2  0
 21 22  1  0
 23 22  1  0
 24 20  1  0
 24 23  2  0
 25 26  1  0
 25 18  1  0
 27 25  2  0
M  END
$$$$
