ETH.pdb
     RDKit          3D

 27 27  0  0  1  0  0  0  0  0999 V2000
   11.2874  -14.8764   17.6200 N   0  0  0  0  0  0  0  0  0  0  0  0
   11.4836  -15.5926   18.8583 C   0  0  1  0  0  0  0  0  0  0  0  0
   12.9338  -15.7170   19.2350 C   0  0  0  0  0  0  0  0  0  0  0  0
   13.7338  -14.4759   19.1954 C   0  0  0  0  0  0  0  0  0  0  0  0
   15.1369  -14.7094   19.5611 C   0  0  0  0  0  0  0  0  0  0  0  0
   15.8539  -15.5083   18.9350 O   0  0  0  0  0  0  0  0  0  0  0  0
   10.8200  -14.8405   19.9410 C   0  0  0  0  0  0  0  0  0  0  0  0
   11.1566  -13.6636   20.1765 O   0  0  0  0  0  0  0  0  0  0  0  0
   15.6551  -14.0013   20.6462 O   0  0  0  0  0  0  0  0  0  0  0  0
    7.3058  -13.9367   20.2792 C   0  0  0  0  0  0  0  0  0  0  0  0
    7.6324  -14.7371   21.5106 C   0  0  1  0  0  0  0  0  0  0  0  0
    7.3113  -16.0789   21.3211 O   0  0  0  0  0  0  0  0  0  0  0  0
    9.1269  -14.6623   21.7223 C   0  0  2  0  0  0  0  0  0  0  0  0
    9.8088  -15.4489   20.7079 N   0  0  0  0  0  0  0  0  0  0  0  0
    9.5193  -15.2405   23.0547 C   0  0  0  0  0  0  0  0  0  0  0  0
   10.3234  -16.2057   23.1537 O   0  0  0  0  0  0  0  0  0  0  0  0
    8.9941  -14.7157   24.2544 N   0  0  0  0  0  0  0  0  0  0  0  0
    9.2572  -15.3110   25.5581 C   0  0  1  0  0  0  0  0  0  0  0  0
    9.2045  -14.2434   26.6060 C   0  0  0  0  0  0  0  0  0  0  0  0
    7.9941  -13.4405   26.4820 C   0  0  0  0  0  0  0  0  0  0  0  0
    7.8306  -12.1949   27.0832 C   0  0  0  0  0  0  0  0  0  0  0  0
    6.6038  -11.7524   26.7550 N   0  0  0  0  0  0  0  0  0  0  0  0
    6.0181  -12.6842   25.9770 C   0  0  0  0  0  0  0  0  0  0  0  0
    6.8730  -13.6948   25.8241 N   0  0  0  0  0  0  0  0  0  0  0  0
    8.3063  -16.3986   25.8508 C   0  0  0  0  0  0  0  0  0  0  0  0
    8.5663  -17.2566   26.8986 O   0  0  0  0  0  0  0  0  0  0  0  0
    7.2419  -16.6021   25.1854 O   0  0  0  0  0  0  0  0  0  0  0  0
  2  1  1  6
  2  3  1  0
  4  5  1  0
  4  3  1  0
  5  6  2  0
  7 14  1  0
  7  2  1  0
  8  7  2  0
  9  5  1  0
 11 10  1  6
 11 12  1  0
 13 14  1  6
 13 11  1  0
 15 13  1  0
 16 15  2  0
 17 15  1  0
 18 19  1  1
 18 17  1  0
 19 20  1  0
 20 21  2  0
 21 22  1  0
 23 22  1  0
 24 20  1  0
 24 23  2  0
 25 26  1  0
 25 18  1  0
 27 25  2  0
M  END
$$$$
