ETH.pdb
     RDKit          3D

 27 27  0  0  1  0  0  0  0  0999 V2000
    8.3104  -18.1554   17.8970 N   0  0  0  0  0  0  0  0  0  0  0  0
    9.6713  -17.6779   17.9653 C   0  0  1  0  0  0  0  0  0  0  0  0
   10.2096  -17.2611   16.6248 C   0  0  0  0  0  0  0  0  0  0  0  0
    9.2165  -17.0548   15.5510 C   0  0  0  0  0  0  0  0  0  0  0  0
    9.8468  -16.6828   14.2776 C   0  0  0  0  0  0  0  0  0  0  0  0
   11.0771  -16.5447   14.1702 O   0  0  0  0  0  0  0  0  0  0  0  0
    9.7026  -16.4841   18.8326 C   0  0  0  0  0  0  0  0  0  0  0  0
   10.7415  -15.7996   18.9098 O   0  0  0  0  0  0  0  0  0  0  0  0
    9.0180  -16.4848   13.1725 O   0  0  0  0  0  0  0  0  0  0  0  0
    7.4466  -13.5259   19.7948 C   0  0  0  0  0  0  0  0  0  0  0  0
    7.5395  -14.4348   20.9901 C   0  0  1  0  0  0  0  0  0  0  0  0
    6.4156  -15.2532   21.0706 O   0  0  0  0  0  0  0  0  0  0  0  0
    8.7343  -15.3377   20.7870 C   0  0  2  0  0  0  0  0  0  0  0  0
    8.5628  -16.1172   19.5721 N   0  0  0  0  0  0  0  0  0  0  0  0
    8.8736  -16.3216   21.9166 C   0  0  0  0  0  0  0  0  0  0  0  0
    8.5194  -17.5255   21.8018 O   0  0  0  0  0  0  0  0  0  0  0  0
    9.4122  -15.9256   23.1591 N   0  0  0  0  0  0  0  0  0  0  0  0
   10.1623  -16.8318   24.0188 C   0  0  1  0  0  0  0  0  0  0  0  0
   11.3317  -17.3757   23.2590 C   0  0  0  0  0  0  0  0  0  0  0  0
   12.1188  -18.2864   24.0812 C   0  0  0  0  0  0  0  0  0  0  0  0
   13.0375  -17.8621   25.0381 C   0  0  0  0  0  0  0  0  0  0  0  0
   13.5695  -18.9642   25.5956 N   0  0  0  0  0  0  0  0  0  0  0  0
   13.0068  -20.0408   25.0115 C   0  0  0  0  0  0  0  0  0  0  0  0
   12.1345  -19.6107   24.1007 N   0  0  0  0  0  0  0  0  0  0  0  0
   10.5925  -16.1597   25.2581 C   0  0  0  0  0  0  0  0  0  0  0  0
   11.0223  -16.9223   26.3236 O   0  0  0  0  0  0  0  0  0  0  0  0
   10.5910  -14.8973   25.4121 O   0  0  0  0  0  0  0  0  0  0  0  0
  2  1  1  6
  2  3  1  0
  4  5  1  0
  4  3  1  0
  5  6  2  0
  7 14  1  0
  7  2  1  0
  8  7  2  0
  9  5  1  0
 11 10  1  6
 11 12  1  0
 13 14  1  6
 13 11  1  0
 15 13  1  0
 16 15  2  0
 17 15  1  0
 18 19  1  6
 18 17  1  0
 19 20  1  0
 20 21  2  0
 21 22  1  0
 23 22  1  0
 24 20  1  0
 24 23  2  0
 25 26  1  0
 25 18  1  0
 27 25  2  0
M  END
$$$$
