ETH.pdb
     RDKit          3D

 27 27  0  0  1  0  0  0  0  0999 V2000
    9.4421  -14.8927   14.7269 N   0  0  0  0  0  0  0  0  0  0  0  0
    9.1801  -15.8476   15.7778 C   0  0  1  0  0  0  0  0  0  0  0  0
    9.9962  -17.1028   15.6403 C   0  0  0  0  0  0  0  0  0  0  0  0
   10.7933  -17.2384   14.4042 C   0  0  0  0  0  0  0  0  0  0  0  0
   11.6104  -18.4589   14.4031 C   0  0  0  0  0  0  0  0  0  0  0  0
   11.4280  -19.3712   15.2269 O   0  0  0  0  0  0  0  0  0  0  0  0
    9.5489  -15.2327   17.0678 C   0  0  0  0  0  0  0  0  0  0  0  0
   10.6192  -14.6024   17.1720 O   0  0  0  0  0  0  0  0  0  0  0  0
   12.6132  -18.5721   13.4392 O   0  0  0  0  0  0  0  0  0  0  0  0
    7.4507  -12.8551   19.0094 C   0  0  0  0  0  0  0  0  0  0  0  0
    7.8127  -13.9637   19.9600 C   0  0  1  0  0  0  0  0  0  0  0  0
    6.7935  -14.9110   20.0172 O   0  0  0  0  0  0  0  0  0  0  0  0
    9.0362  -14.6586   19.4085 C   0  0  2  0  0  0  0  0  0  0  0  0
    8.6953  -15.3567   18.1800 N   0  0  0  0  0  0  0  0  0  0  0  0
    9.5533  -15.6964   20.3671 C   0  0  0  0  0  0  0  0  0  0  0  0
    9.4547  -16.9307   20.1328 O   0  0  0  0  0  0  0  0  0  0  0  0
   10.1742  -15.3193   21.5766 N   0  0  0  0  0  0  0  0  0  0  0  0
   10.6474  -16.2884   22.5564 C   0  0  1  0  0  0  0  0  0  0  0  0
   11.6328  -15.6255   23.4677 C   0  0  0  0  0  0  0  0  0  0  0  0
   12.1776  -16.5709   24.4343 C   0  0  0  0  0  0  0  0  0  0  0  0
   13.2757  -17.3883   24.1782 C   0  0  0  0  0  0  0  0  0  0  0  0
   13.4935  -18.1209   25.2848 N   0  0  0  0  0  0  0  0  0  0  0  0
   12.5675  -17.7772   26.2020 C   0  0  0  0  0  0  0  0  0  0  0  0
   11.7831  -16.8409   25.6696 N   0  0  0  0  0  0  0  0  0  0  0  0
    9.5264  -16.8749   23.3128 C   0  0  0  0  0  0  0  0  0  0  0  0
    9.6694  -18.1313   23.8630 O   0  0  0  0  0  0  0  0  0  0  0  0
    8.4134  -16.2866   23.4926 O   0  0  0  0  0  0  0  0  0  0  0  0
  2  1  1  6
  2  3  1  0
  4  5  1  0
  4  3  1  0
  5  6  2  0
  7 14  1  0
  7  2  1  0
  8  7  2  0
  9  5  1  0
 11 10  1  6
 11 12  1  0
 13 14  1  6
 13 11  1  0
 15 13  1  0
 16 15  2  0
 17 15  1  0
 18 19  1  1
 18 17  1  0
 19 20  1  0
 20 21  2  0
 21 22  1  0
 23 22  1  0
 24 20  1  0
 24 23  2  0
 25 26  1  0
 25 18  1  0
 27 25  2  0
M  END
$$$$
