ETH.pdb
     RDKit          3D

 27 27  0  0  1  0  0  0  0  0999 V2000
   12.0838  -14.1696   15.7663 N   0  0  0  0  0  0  0  0  0  0  0  0
   12.0207  -15.1793   16.7966 C   0  0  1  0  0  0  0  0  0  0  0  0
   13.3516  -15.8281   17.0577 C   0  0  0  0  0  0  0  0  0  0  0  0
   13.9904  -16.5062   15.9114 C   0  0  0  0  0  0  0  0  0  0  0  0
   15.2542  -17.1543   16.2853 C   0  0  0  0  0  0  0  0  0  0  0  0
   16.3553  -16.6931   15.9399 O   0  0  0  0  0  0  0  0  0  0  0  0
   11.6015  -14.5336   18.0558 C   0  0  0  0  0  0  0  0  0  0  0  0
   12.2889  -13.6139   18.5410 O   0  0  0  0  0  0  0  0  0  0  0  0
   15.1889  -18.3196   17.0503 O   0  0  0  0  0  0  0  0  0  0  0  0
    8.5641  -12.6886   18.7939 C   0  0  0  0  0  0  0  0  0  0  0  0
    8.5900  -13.8060   19.8010 C   0  0  1  0  0  0  0  0  0  0  0  0
    7.8420  -14.8899   19.3481 O   0  0  0  0  0  0  0  0  0  0  0  0
   10.0211  -14.2747   19.9284 C   0  0  2  0  0  0  0  0  0  0  0  0
   10.4281  -14.9539   18.7095 N   0  0  0  0  0  0  0  0  0  0  0  0
   10.1730  -15.2673   21.0486 C   0  0  0  0  0  0  0  0  0  0  0  0
   10.1140  -16.5107   20.8524 O   0  0  0  0  0  0  0  0  0  0  0  0
   10.3894  -14.8354   22.3743 N   0  0  0  0  0  0  0  0  0  0  0  0
   10.4987  -15.7577   23.4969 C   0  0  1  0  0  0  0  0  0  0  0  0
   11.7695  -15.4817   24.2384 C   0  0  0  0  0  0  0  0  0  0  0  0
   12.9360  -15.8135   23.4295 C   0  0  0  0  0  0  0  0  0  0  0  0
   12.8572  -16.3225   22.1356 C   0  0  0  0  0  0  0  0  0  0  0  0
   14.1170  -16.5066   21.7027 N   0  0  0  0  0  0  0  0  0  0  0  0
   14.9563  -16.1279   22.6871 C   0  0  0  0  0  0  0  0  0  0  0  0
   14.2243  -15.7130   23.7203 N   0  0  0  0  0  0  0  0  0  0  0  0
    9.3265  -15.6603   24.3851 C   0  0  0  0  0  0  0  0  0  0  0  0
    9.1940  -16.5548   25.4262 O   0  0  0  0  0  0  0  0  0  0  0  0
    8.4102  -14.7888   24.2496 O   0  0  0  0  0  0  0  0  0  0  0  0
  2  1  1  6
  2  3  1  0
  4  5  1  0
  4  3  1  0
  5  6  2  0
  7 14  1  0
  7  2  1  0
  8  7  2  0
  9  5  1  0
 11 10  1  6
 11 12  1  0
 13 14  1  6
 13 11  1  0
 15 13  1  0
 16 15  2  0
 17 15  1  0
 18 19  1  1
 18 17  1  0
 19 20  1  0
 20 21  2  0
 21 22  1  0
 23 22  1  0
 24 20  1  0
 24 23  2  0
 25 26  1  0
 25 18  1  0
 27 25  2  0
M  END
$$$$
