ETH.pdb
     RDKit          3D

 27 27  0  0  1  0  0  0  0  0999 V2000
   14.6694  -22.5722   10.5929 N   0  0  0  0  0  0  0  0  0  0  0  0
   15.2047  -21.7148   11.6239 C   0  0  1  0  0  0  0  0  0  0  0  0
   14.4304  -20.4352   11.7767 C   0  0  0  0  0  0  0  0  0  0  0  0
   13.5624  -20.0510   10.6450 C   0  0  0  0  0  0  0  0  0  0  0  0
   12.8740  -18.7756   10.8829 C   0  0  0  0  0  0  0  0  0  0  0  0
   11.8666  -18.6988   11.6064 O   0  0  0  0  0  0  0  0  0  0  0  0
   15.1181  -22.4277   12.9134 C   0  0  0  0  0  0  0  0  0  0  0  0
   14.3100  -23.3667   13.0509 O   0  0  0  0  0  0  0  0  0  0  0  0
   13.3862  -17.6328   10.2672 O   0  0  0  0  0  0  0  0  0  0  0  0
   17.9643  -23.9971   14.6012 C   0  0  0  0  0  0  0  0  0  0  0  0
   17.3233  -23.1414   15.6597 C   0  0  1  0  0  0  0  0  0  0  0  0
   17.9904  -21.9244   15.7749 O   0  0  0  0  0  0  0  0  0  0  0  0
   15.9134  -22.8357   15.2096 C   0  0  2  0  0  0  0  0  0  0  0  0
   15.9453  -22.0494   13.9875 N   0  0  0  0  0  0  0  0  0  0  0  0
   15.1792  -22.0141   16.2339 C   0  0  0  0  0  0  0  0  0  0  0  0
   15.0598  -20.7642   16.1274 O   0  0  0  0  0  0  0  0  0  0  0  0
   14.5915  -22.6220   17.3634 N   0  0  0  0  0  0  0  0  0  0  0  0
   13.9050  -21.8629   18.4006 C   0  0  1  0  0  0  0  0  0  0  0  0
   12.7041  -22.6304   18.8584 C   0  0  0  0  0  0  0  0  0  0  0  0
   11.9181  -21.8607   19.8148 C   0  0  0  0  0  0  0  0  0  0  0  0
   11.1896  -20.7233   19.4755 C   0  0  0  0  0  0  0  0  0  0  0  0
   10.5958  -20.2811   20.5982 N   0  0  0  0  0  0  0  0  0  0  0  0
   10.9379  -21.1090   21.6054 C   0  0  0  0  0  0  0  0  0  0  0  0
   11.7360  -22.0552   21.1123 N   0  0  0  0  0  0  0  0  0  0  0  0
   14.8075  -21.5566   19.5249 C   0  0  0  0  0  0  0  0  0  0  0  0
   14.7595  -20.3068   20.1059 O   0  0  0  0  0  0  0  0  0  0  0  0
   15.6454  -22.3858   20.0021 O   0  0  0  0  0  0  0  0  0  0  0  0
  2  1  1  6
  2  3  1  0
  4  5  1  0
  4  3  1  0
  5  6  2  0
  7 14  1  0
  7  2  1  0
  8  7  2  0
  9  5  1  0
 11 10  1  6
 11 12  1  0
 13 14  1  6
 13 11  1  0
 15 13  1  0
 16 15  2  0
 17 15  1  0
 18 19  1  1
 18 17  1  0
 19 20  1  0
 20 21  2  0
 21 22  1  0
 23 22  1  0
 24 20  1  0
 24 23  2  0
 25 26  1  0
 25 18  1  0
 27 25  2  0
M  END
$$$$
