ETH.pdb
     RDKit          3D

 27 27  0  0  1  0  0  0  0  0999 V2000
   11.1453  -15.6328   16.0801 N   0  0  0  0  0  0  0  0  0  0  0  0
   10.3987  -16.3915   17.0558 C   0  0  1  0  0  0  0  0  0  0  0  0
   11.0596  -17.6948   17.4093 C   0  0  0  0  0  0  0  0  0  0  0  0
   11.4413  -18.5676   16.2804 C   0  0  0  0  0  0  0  0  0  0  0  0
   10.2840  -19.2621   15.7012 C   0  0  0  0  0  0  0  0  0  0  0  0
    9.1683  -19.2468   16.2484 O   0  0  0  0  0  0  0  0  0  0  0  0
   10.3167  -15.5988   18.2981 C   0  0  0  0  0  0  0  0  0  0  0  0
   11.3306  -15.0180   18.7323 O   0  0  0  0  0  0  0  0  0  0  0  0
   10.4693  -19.9509   14.5017 O   0  0  0  0  0  0  0  0  0  0  0  0
    7.6946  -12.9152   19.1648 C   0  0  0  0  0  0  0  0  0  0  0  0
    7.7043  -13.9581   20.2492 C   0  0  1  0  0  0  0  0  0  0  0  0
    6.7165  -14.9123   20.0188 O   0  0  0  0  0  0  0  0  0  0  0  0
    9.0354  -14.6709   20.1872 C   0  0  2  0  0  0  0  0  0  0  0  0
    9.0971  -15.4976   18.9932 N   0  0  0  0  0  0  0  0  0  0  0  0
    9.2164  -15.5930   21.3621 C   0  0  0  0  0  0  0  0  0  0  0  0
    8.9974  -16.8313   21.2798 O   0  0  0  0  0  0  0  0  0  0  0  0
    9.6427  -15.0974   22.6124 N   0  0  0  0  0  0  0  0  0  0  0  0
    9.7829  -15.9432   23.7905 C   0  0  1  0  0  0  0  0  0  0  0  0
   11.1235  -15.7033   24.4116 C   0  0  0  0  0  0  0  0  0  0  0  0
   12.1634  -16.4707   23.7372 C   0  0  0  0  0  0  0  0  0  0  0  0
   11.9288  -17.2749   22.6246 C   0  0  0  0  0  0  0  0  0  0  0  0
   13.1057  -17.8234   22.2745 N   0  0  0  0  0  0  0  0  0  0  0  0
   14.0448  -17.3810   23.1342 C   0  0  0  0  0  0  0  0  0  0  0  0
   13.4563  -16.5662   24.0089 N   0  0  0  0  0  0  0  0  0  0  0  0
    8.6936  -15.7028   24.7540 C   0  0  0  0  0  0  0  0  0  0  0  0
    8.5523  -16.5469   25.8352 O   0  0  0  0  0  0  0  0  0  0  0  0
    7.8580  -14.7498   24.6495 O   0  0  0  0  0  0  0  0  0  0  0  0
  2  1  1  6
  2  3  1  0
  4  5  1  0
  4  3  1  0
  5  6  2  0
  7 14  1  0
  7  2  1  0
  8  7  2  0
  9  5  1  0
 11 10  1  6
 11 12  1  0
 13 14  1  6
 13 11  1  0
 15 13  1  0
 16 15  2  0
 17 15  1  0
 18 19  1  1
 18 17  1  0
 19 20  1  0
 20 21  2  0
 21 22  1  0
 23 22  1  0
 24 20  1  0
 24 23  2  0
 25 26  1  0
 25 18  1  0
 27 25  2  0
M  END
$$$$
