ETH.pdb
     RDKit          3D

 27 27  0  0  1  0  0  0  0  0999 V2000
    9.3096  -18.0515   16.6742 N   0  0  0  0  0  0  0  0  0  0  0  0
    8.6992  -18.2819   17.9623 C   0  0  1  0  0  0  0  0  0  0  0  0
    9.1987  -19.5344   18.6272 C   0  0  0  0  0  0  0  0  0  0  0  0
   10.1271  -20.3724   17.8413 C   0  0  0  0  0  0  0  0  0  0  0  0
   10.5178  -21.5914   18.5614 C   0  0  0  0  0  0  0  0  0  0  0  0
   10.0381  -21.8801   19.6709 O   0  0  0  0  0  0  0  0  0  0  0  0
    9.0460  -17.1549   18.8500 C   0  0  0  0  0  0  0  0  0  0  0  0
   10.1127  -16.5336   18.6770 O   0  0  0  0  0  0  0  0  0  0  0  0
   11.4559  -22.4320   17.9607 O   0  0  0  0  0  0  0  0  0  0  0  0
    7.8054  -13.6889   21.9403 C   0  0  0  0  0  0  0  0  0  0  0  0
    7.3740  -14.7694   20.9864 C   0  0  1  0  0  0  0  0  0  0  0  0
    7.0395  -14.2245   19.7492 O   0  0  0  0  0  0  0  0  0  0  0  0
    8.5567  -15.6839   20.7652 C   0  0  2  0  0  0  0  0  0  0  0  0
    8.1756  -16.7806   19.8907 N   0  0  0  0  0  0  0  0  0  0  0  0
    9.0189  -16.3010   22.0571 C   0  0  0  0  0  0  0  0  0  0  0  0
    8.4672  -17.3238   22.5443 O   0  0  0  0  0  0  0  0  0  0  0  0
   10.0996  -15.7491   22.7770 N   0  0  0  0  0  0  0  0  0  0  0  0
   10.5250  -16.2573   24.0746 C   0  0  1  0  0  0  0  0  0  0  0  0
   11.9257  -15.8038   24.3454 C   0  0  0  0  0  0  0  0  0  0  0  0
   12.8985  -16.6879   23.7153 C   0  0  0  0  0  0  0  0  0  0  0  0
   12.5680  -17.9124   23.1399 C   0  0  0  0  0  0  0  0  0  0  0  0
   13.7051  -18.4471   22.6609 N   0  0  0  0  0  0  0  0  0  0  0  0
   14.7126  -17.5915   22.9250 C   0  0  0  0  0  0  0  0  0  0  0  0
   14.2054  -16.5365   23.5615 N   0  0  0  0  0  0  0  0  0  0  0  0
    9.6056  -15.8293   25.1442 C   0  0  0  0  0  0  0  0  0  0  0  0
    8.6418  -14.8832   24.8652 O   0  0  0  0  0  0  0  0  0  0  0  0
    9.6455  -16.2834   26.3314 O   0  0  0  0  0  0  0  0  0  0  0  0
  2  1  1  6
  2  3  1  0
  4  5  1  0
  4  3  1  0
  5  6  2  0
  7 14  1  0
  7  2  1  0
  8  7  2  0
  9  5  1  0
 11 10  1  1
 11 12  1  0
 13 14  1  6
 13 11  1  0
 15 13  1  0
 16 15  2  0
 17 15  1  0
 18 19  1  1
 18 17  1  0
 19 20  1  0
 20 21  2  0
 21 22  1  0
 23 22  1  0
 24 20  1  0
 24 23  2  0
 25 26  1  0
 25 18  1  0
 27 25  2  0
M  END
$$$$
