LHF.pdb
     RDKit          3D

 30 31  0  0  1  0  0  0  0  0999 V2000
    7.6856  -12.0461   18.7565 C   0  0  0  0  0  0  0  0  0  0  0  0
    8.0859  -13.4433   19.1741 C   0  0  1  0  0  0  0  0  0  0  0  0
    9.5508  -13.6476   18.8426 C   0  0  0  0  0  0  0  0  0  0  0  0
    7.8353  -13.6193   20.6522 C   0  0  0  0  0  0  0  0  0  0  0  0
    8.1346  -14.9946   21.1528 C   0  0  2  0  0  0  0  0  0  0  0  0
    7.8296  -16.0534   20.2198 N   0  0  0  0  0  0  0  0  0  0  0  0
    7.4682  -15.2055   22.4789 C   0  0  0  0  0  0  0  0  0  0  0  0
    7.6035  -14.3033   23.3076 O   0  0  0  0  0  0  0  0  0  0  0  0
    6.7458  -16.3710   22.7200 N   0  0  0  0  0  0  0  0  0  0  0  0
    6.9273  -17.3944   23.6978 C   0  0  1  0  0  0  0  0  0  0  0  0
    7.1169  -18.8012   23.1384 C   0  0  0  0  0  0  0  0  0  0  0  0
    7.2230  -19.8384   24.1759 C   0  0  0  0  0  0  0  0  0  0  0  0
    7.2120  -19.6802   25.5284 C   0  0  0  0  0  0  0  0  0  0  0  0
    7.3990  -20.8671   26.1336 N   0  0  0  0  0  0  0  0  0  0  0  0
    7.5249  -21.7560   25.1312 C   0  0  0  0  0  0  0  0  0  0  0  0
    7.4197  -21.1433   23.9359 N   0  0  0  0  0  0  0  0  0  0  0  0
    7.9307  -17.0689   24.7082 C   0  0  0  0  0  0  0  0  0  0  0  0
    9.1515  -17.0059   24.3452 O   0  0  0  0  0  0  0  0  0  0  0  0
    7.6774  -16.8125   26.0720 N   0  0  0  0  0  0  0  0  0  0  0  0
    8.6792  -16.4527   27.0458 C   0  0  1  0  0  0  0  0  0  0  0  0
    8.2183  -15.3507   27.9697 C   0  0  0  0  0  0  0  0  0  0  0  0
    7.8290  -14.1238   27.2779 C   0  0  0  0  0  0  0  0  0  0  0  0
    8.7813  -13.1702   26.9982 C   0  0  0  0  0  0  0  0  0  0  0  0
    8.4655  -11.9842   26.3419 C   0  0  0  0  0  0  0  0  0  0  0  0
    7.1783  -11.7335   25.9522 C   0  0  0  0  0  0  0  0  0  0  0  0
    6.2131  -12.6699   26.2207 C   0  0  0  0  0  0  0  0  0  0  0  0
    6.5373  -13.8532   26.8773 C   0  0  0  0  0  0  0  0  0  0  0  0
    8.9398  -17.6447   27.8772 C   0  0  0  0  0  0  0  0  0  0  0  0
    8.2081  -18.8032   27.7491 O   0  0  0  0  0  0  0  0  0  0  0  0
    9.8565  -17.5944   28.7236 O   0  0  0  0  0  0  0  0  0  0  0  0
  2  1  1  1
  3  2  1  0
  4  2  1  0
  5  4  1  0
  5  6  1  6
  7  8  2  0
  7  5  1  0
  9  7  1  0
 10  9  1  0
 10 11  1  6
 12 16  1  0
 12 11  1  0
 13 12  2  0
 14 13  1  0
 14 15  1  0
 15 16  2  0
 17 10  1  0
 17 19  1  0
 18 17  2  0
 20 19  1  0
 20 28  1  0
 20 21  1  1
 22 21  1  0
 23 22  2  0
 24 23  1  0
 25 24  2  0
 25 26  1  0
 26 27  2  0
 27 22  1  0
 28 30  2  0
 28 29  1  0
M  END
$$$$
