LHF.pdb
     RDKit          3D

 30 31  0  0  1  0  0  0  0  0999 V2000
    7.0650  -12.4898   18.3389 C   0  0  0  0  0  0  0  0  0  0  0  0
    8.2198  -13.4048   18.6798 C   0  0  1  0  0  0  0  0  0  0  0  0
    9.4737  -12.5668   18.8322 C   0  0  0  0  0  0  0  0  0  0  0  0
    7.9109  -14.1540   19.9532 C   0  0  0  0  0  0  0  0  0  0  0  0
    9.0523  -14.9736   20.4601 C   0  0  2  0  0  0  0  0  0  0  0  0
    9.5091  -15.9962   19.5491 N   0  0  0  0  0  0  0  0  0  0  0  0
    8.7122  -15.5338   21.8084 C   0  0  0  0  0  0  0  0  0  0  0  0
    8.1196  -14.7776   22.5803 O   0  0  0  0  0  0  0  0  0  0  0  0
    9.0649  -16.8416   22.1303 N   0  0  0  0  0  0  0  0  0  0  0  0
    8.8798  -17.5877   23.3327 C   0  0  1  0  0  0  0  0  0  0  0  0
    8.9069  -19.1042   23.1670 C   0  0  0  0  0  0  0  0  0  0  0  0
    7.9228  -19.6086   22.1972 C   0  0  0  0  0  0  0  0  0  0  0  0
    6.8299  -18.9685   21.6968 C   0  0  0  0  0  0  0  0  0  0  0  0
    6.1442  -19.7925   20.8839 N   0  0  0  0  0  0  0  0  0  0  0  0
    6.8334  -20.9482   20.8935 C   0  0  0  0  0  0  0  0  0  0  0  0
    7.9169  -20.8495   21.6882 N   0  0  0  0  0  0  0  0  0  0  0  0
    9.7292  -17.1437   24.4350 C   0  0  0  0  0  0  0  0  0  0  0  0
   10.9819  -17.0348   24.2229 O   0  0  0  0  0  0  0  0  0  0  0  0
    9.2919  -16.8174   25.7358 N   0  0  0  0  0  0  0  0  0  0  0  0
   10.1364  -16.3078   26.7887 C   0  0  1  0  0  0  0  0  0  0  0  0
   10.0458  -14.8069   26.9274 C   0  0  0  0  0  0  0  0  0  0  0  0
    8.6914  -14.2799   26.7747 C   0  0  0  0  0  0  0  0  0  0  0  0
    8.4385  -12.9599   27.0718 C   0  0  0  0  0  0  0  0  0  0  0  0
    7.1679  -12.4066   26.9443 C   0  0  0  0  0  0  0  0  0  0  0  0
    6.1213  -13.1750   26.5130 C   0  0  0  0  0  0  0  0  0  0  0  0
    6.3505  -14.4931   26.2113 C   0  0  0  0  0  0  0  0  0  0  0  0
    7.6241  -15.0384   26.3416 C   0  0  0  0  0  0  0  0  0  0  0  0
    9.6680  -16.8970   28.0589 C   0  0  0  0  0  0  0  0  0  0  0  0
    8.5892  -17.7493   28.1191 O   0  0  0  0  0  0  0  0  0  0  0  0
   10.2751  -16.6086   29.1113 O   0  0  0  0  0  0  0  0  0  0  0  0
  2  1  1  1
  3  2  1  0
  4  2  1  0
  5  4  1  0
  5  6  1  6
  7  8  2  0
  7  5  1  0
  9  7  1  0
 10  9  1  0
 10 11  1  6
 12 16  1  0
 12 11  1  0
 13 12  2  0
 14 13  1  0
 14 15  1  0
 15 16  2  0
 17 10  1  0
 17 19  1  0
 18 17  2  0
 20 19  1  0
 20 28  1  0
 20 21  1  1
 22 21  1  0
 23 22  2  0
 24 23  1  0
 25 24  2  0
 25 26  1  0
 26 27  2  0
 27 22  1  0
 28 30  2  0
 28 29  1  0
M  END
$$$$
