LHF.pdb
     RDKit          3D

 30 31  0  0  1  0  0  0  0  0999 V2000
    6.7355  -12.5502   18.2093 C   0  0  0  0  0  0  0  0  0  0  0  0
    7.7841  -13.5514   18.6394 C   0  0  1  0  0  0  0  0  0  0  0  0
    9.1291  -12.8539   18.6889 C   0  0  0  0  0  0  0  0  0  0  0  0
    7.4174  -14.1172   19.9899 C   0  0  0  0  0  0  0  0  0  0  0  0
    8.4641  -15.0104   20.5714 C   0  0  2  0  0  0  0  0  0  0  0  0
    8.9439  -16.0363   19.6760 N   0  0  0  0  0  0  0  0  0  0  0  0
    7.9769  -15.5808   21.8694 C   0  0  0  0  0  0  0  0  0  0  0  0
    7.5111  -14.7765   22.6787 O   0  0  0  0  0  0  0  0  0  0  0  0
    8.0645  -16.9498   22.1072 N   0  0  0  0  0  0  0  0  0  0  0  0
    7.6612  -17.7278   23.2335 C   0  0  1  0  0  0  0  0  0  0  0  0
    7.6656  -19.2379   23.0152 C   0  0  0  0  0  0  0  0  0  0  0  0
    7.2739  -20.0065   24.2065 C   0  0  0  0  0  0  0  0  0  0  0  0
    8.0769  -20.6862   25.0711 C   0  0  0  0  0  0  0  0  0  0  0  0
    7.3305  -21.3157   25.9967 N   0  0  0  0  0  0  0  0  0  0  0  0
    6.0569  -21.0116   25.6863 C   0  0  0  0  0  0  0  0  0  0  0  0
    6.0089  -20.2162   24.5999 N   0  0  0  0  0  0  0  0  0  0  0  0
    8.3330  -17.3538   24.4755 C   0  0  0  0  0  0  0  0  0  0  0  0
    9.5977  -17.1923   24.4502 O   0  0  0  0  0  0  0  0  0  0  0  0
    7.7087  -17.1498   25.7238 N   0  0  0  0  0  0  0  0  0  0  0  0
    8.3686  -16.6551   26.9075 C   0  0  1  0  0  0  0  0  0  0  0  0
    7.4948  -15.7195   27.7085 C   0  0  0  0  0  0  0  0  0  0  0  0
    7.3248  -14.4024   27.0987 C   0  0  0  0  0  0  0  0  0  0  0  0
    8.3834  -13.5229   27.0752 C   0  0  0  0  0  0  0  0  0  0  0  0
    8.2765  -12.2567   26.5075 C   0  0  0  0  0  0  0  0  0  0  0  0
    7.0960  -11.8487   25.9494 C   0  0  0  0  0  0  0  0  0  0  0  0
    6.0279  -12.7089   25.9618 C   0  0  0  0  0  0  0  0  0  0  0  0
    6.1433  -13.9732   26.5314 C   0  0  0  0  0  0  0  0  0  0  0  0
    8.6728  -17.8172   27.7658 C   0  0  0  0  0  0  0  0  0  0  0  0
    9.5906  -17.7536   28.7894 O   0  0  0  0  0  0  0  0  0  0  0  0
    8.0742  -18.8918   27.5512 O   0  0  0  0  0  0  0  0  0  0  0  0
  2  1  1  1
  3  2  1  0
  4  2  1  0
  5  4  1  0
  5  6  1  6
  7  8  2  0
  7  5  1  0
  9  7  1  0
 10  9  1  0
 10 11  1  6
 12 16  1  0
 12 11  1  0
 13 12  2  0
 14 13  1  0
 14 15  1  0
 15 16  2  0
 17 10  1  0
 17 19  1  0
 18 17  2  0
 20 19  1  0
 20 28  1  0
 20 21  1  1
 22 21  1  0
 23 22  2  0
 24 23  1  0
 25 24  2  0
 25 26  1  0
 26 27  2  0
 27 22  1  0
 28 30  2  0
 28 29  1  0
M  END
$$$$
