LHF.pdb
     RDKit          3D

 30 31  0  0  1  0  0  0  0  0999 V2000
    7.5758  -11.5883   19.8895 C   0  0  0  0  0  0  0  0  0  0  0  0
    7.8582  -12.9823   19.3755 C   0  0  1  0  0  0  0  0  0  0  0  0
    9.2141  -12.9836   18.6977 C   0  0  0  0  0  0  0  0  0  0  0  0
    7.8264  -13.9599   20.5251 C   0  0  0  0  0  0  0  0  0  0  0  0
    7.9296  -15.3888   20.1018 C   0  0  2  0  0  0  0  0  0  0  0  0
    6.9187  -15.8117   19.1618 N   0  0  0  0  0  0  0  0  0  0  0  0
    7.9757  -16.2720   21.3122 C   0  0  0  0  0  0  0  0  0  0  0  0
    6.9089  -16.4409   21.9059 O   0  0  0  0  0  0  0  0  0  0  0  0
    9.1784  -16.8499   21.7096 N   0  0  0  0  0  0  0  0  0  0  0  0
    9.4914  -17.6700   22.8347 C   0  0  1  0  0  0  0  0  0  0  0  0
   10.6433  -18.6483   22.6252 C   0  0  0  0  0  0  0  0  0  0  0  0
   10.2947  -19.7950   21.7726 C   0  0  0  0  0  0  0  0  0  0  0  0
    9.0857  -20.0999   21.2251 C   0  0  0  0  0  0  0  0  0  0  0  0
    9.1604  -21.2685   20.5626 N   0  0  0  0  0  0  0  0  0  0  0  0
   10.4342  -21.6757   20.7123 C   0  0  0  0  0  0  0  0  0  0  0  0
   11.1343  -20.7887   21.4459 N   0  0  0  0  0  0  0  0  0  0  0  0
    9.6284  -16.9249   24.0837 C   0  0  0  0  0  0  0  0  0  0  0  0
   10.4239  -15.9285   24.1055 O   0  0  0  0  0  0  0  0  0  0  0  0
    8.9545  -17.2043   25.2909 N   0  0  0  0  0  0  0  0  0  0  0  0
    9.0652  -16.4243   26.4996 C   0  0  1  0  0  0  0  0  0  0  0  0
    7.7210  -15.9877   27.0314 C   0  0  0  0  0  0  0  0  0  0  0  0
    7.3843  -14.6004   26.7192 C   0  0  0  0  0  0  0  0  0  0  0  0
    6.1555  -14.3059   26.1734 C   0  0  0  0  0  0  0  0  0  0  0  0
    5.7833  -13.0027   25.8570 C   0  0  0  0  0  0  0  0  0  0  0  0
    6.6451  -11.9649   26.0851 C   0  0  0  0  0  0  0  0  0  0  0  0
    7.8750  -12.2353   26.6283 C   0  0  0  0  0  0  0  0  0  0  0  0
    8.2392  -13.5413   26.9417 C   0  0  0  0  0  0  0  0  0  0  0  0
    9.6883  -17.2822   27.5270 C   0  0  0  0  0  0  0  0  0  0  0  0
   10.3267  -16.7615   28.6295 O   0  0  0  0  0  0  0  0  0  0  0  0
    9.6312  -18.5216   27.3859 O   0  0  0  0  0  0  0  0  0  0  0  0
  2  1  1  1
  3  2  1  0
  4  2  1  0
  5  4  1  0
  5  6  1  6
  7  8  2  0
  7  5  1  0
  9  7  1  0
 10  9  1  0
 10 11  1  6
 12 16  1  0
 12 11  1  0
 13 12  2  0
 14 13  1  0
 14 15  1  0
 15 16  2  0
 17 10  1  0
 17 19  1  0
 18 17  2  0
 20 19  1  0
 20 28  1  0
 20 21  1  1
 22 21  1  0
 23 22  2  0
 24 23  1  0
 25 24  2  0
 25 26  1  0
 26 27  2  0
 27 22  1  0
 28 30  2  0
 28 29  1  0
M  END
$$$$
