ILA.pdb
     RDKit          3D

 22 21  0  0  1  0  0  0  0  0999 V2000
   28.5105  -19.6988  -17.6284 C   0  0  0  0  0  0  0  0  0  0  0  0
   28.1679  -18.3137  -17.1596 C   0  0  0  0  0  0  0  0  0  0  0  0
   27.2619  -18.2646  -15.9739 C   0  0  2  0  0  0  0  0  0  0  0  0
   27.8893  -19.1273  -14.8950 C   0  0  0  0  0  0  0  0  0  0  0  0
   25.8863  -18.7680  -16.3490 C   0  0  2  0  0  0  0  0  0  0  0  0
   25.2901  -17.8577  -17.2850 N   0  0  0  0  0  0  0  0  0  0  0  0
   25.0182  -18.8888  -15.1526 C   0  0  0  0  0  0  0  0  0  0  0  0
   24.6662  -17.8278  -14.5916 O   0  0  0  0  0  0  0  0  0  0  0  0
   20.4343  -22.1016  -12.9939 C   0  0  0  0  0  0  0  0  0  0  0  0
   21.4583  -21.0434  -12.7111 C   0  0  2  0  0  0  0  0  0  0  0  0
   20.8187  -19.8646  -12.0397 C   0  0  0  0  0  0  0  0  0  0  0  0
   22.4664  -20.7865  -13.7404 C   0  0  0  0  0  0  0  0  0  0  0  0
   23.7698  -20.1971  -13.4059 C   0  0  2  0  0  0  0  0  0  0  0  0
   24.5831  -20.1235  -14.6331 N   0  0  0  0  0  0  0  0  0  0  0  0
   24.5359  -20.7137  -12.2871 C   0  0  0  0  0  0  0  0  0  0  0  0
   25.0295  -21.8633  -12.3516 O   0  0  0  0  0  0  0  0  0  0  0  0
   26.2263  -19.5744   -9.1480 C   0  0  0  0  0  0  0  0  0  0  0  0
   25.4781  -20.6028   -9.9763 C   0  0  2  0  0  0  0  0  0  0  0  0
   24.7805  -19.9940  -11.0796 N   0  0  0  0  0  0  0  0  0  0  0  0
   24.4957  -21.2805   -9.1064 C   0  0  0  0  0  0  0  0  0  0  0  0
   24.8923  -21.9589   -8.1429 O   0  0  0  0  0  0  0  0  0  0  0  0
   23.1219  -21.1579   -9.3679 O   0  0  0  0  0  0  0  0  0  0  0  0
  2  1  1  0
  3  2  1  0
  3  4  1  1
  5  3  1  0
  5  6  1  6
  7  5  1  0
  7  8  2  0
 10  9  1  6
 10 12  1  0
 10 11  1  0
 13 12  1  6
 13 14  1  0
 14  7  1  0
 15 13  1  0
 15 19  1  0
 16 15  2  0
 18 17  1  1
 18 20  1  0
 19 18  1  0
 20 21  2  0
 20 22  1  0
M  END
$$$$
