ILA.pdb
     RDKit          3D

 22 21  0  0  1  0  0  0  0  0999 V2000
   16.2904  -12.0877  -19.3446 C   0  0  0  0  0  0  0  0  0  0  0  0
   15.8052  -11.9862  -17.9269 C   0  0  0  0  0  0  0  0  0  0  0  0
   16.4268  -10.8842  -17.1341 C   0  0  2  0  0  0  0  0  0  0  0  0
   16.4112   -9.6422  -18.0053 C   0  0  0  0  0  0  0  0  0  0  0  0
   17.8368  -11.2596  -16.7378 C   0  0  2  0  0  0  0  0  0  0  0  0
   17.8082  -12.4947  -16.0070 N   0  0  0  0  0  0  0  0  0  0  0  0
   18.4550  -10.2024  -15.9014 C   0  0  0  0  0  0  0  0  0  0  0  0
   17.8479   -9.8686  -14.8601 O   0  0  0  0  0  0  0  0  0  0  0  0
   21.2901   -9.2669  -12.6905 C   0  0  0  0  0  0  0  0  0  0  0  0
   21.9835   -9.4895  -14.0012 C   0  0  2  0  0  0  0  0  0  0  0  0
   23.4477   -9.7294  -13.7826 C   0  0  0  0  0  0  0  0  0  0  0  0
   21.5844   -8.6459  -15.1285 C   0  0  0  0  0  0  0  0  0  0  0  0
   20.1696   -8.4192  -15.4524 C   0  0  2  0  0  0  0  0  0  0  0  0
   19.6721   -9.5719  -16.2249 N   0  0  0  0  0  0  0  0  0  0  0  0
   19.7508   -7.1607  -16.0407 C   0  0  0  0  0  0  0  0  0  0  0  0
   20.0721   -6.8904  -17.2210 O   0  0  0  0  0  0  0  0  0  0  0  0
   17.3988   -4.3008  -15.3553 C   0  0  0  0  0  0  0  0  0  0  0  0
   18.6159   -4.9357  -16.0026 C   0  0  2  0  0  0  0  0  0  0  0  0
   18.9770   -6.1735  -15.3606 N   0  0  0  0  0  0  0  0  0  0  0  0
   19.7487   -3.9943  -15.8949 C   0  0  0  0  0  0  0  0  0  0  0  0
   20.7580   -4.3183  -15.2450 O   0  0  0  0  0  0  0  0  0  0  0  0
   19.6841   -2.7409  -16.5237 O   0  0  0  0  0  0  0  0  0  0  0  0
  2  1  1  0
  3  2  1  0
  3  4  1  6
  5  3  1  0
  5  6  1  1
  7  5  1  0
  7  8  2  0
 10  9  1  1
 10 12  1  0
 10 11  1  0
 13 12  1  6
 13 14  1  0
 14  7  1  0
 15 13  1  0
 15 19  1  0
 16 15  2  0
 18 17  1  1
 18 20  1  0
 19 18  1  0
 20 21  2  0
 20 22  1  0
M  END
$$$$
