ILA.pdb
     RDKit          3D

 22 21  0  0  1  0  0  0  0  0999 V2000
   15.6774  -13.3519  -19.2676 C   0  0  0  0  0  0  0  0  0  0  0  0
   17.0468  -13.3951  -18.6524 C   0  0  0  0  0  0  0  0  0  0  0  0
   17.3559  -12.2531  -17.7416 C   0  0  2  0  0  0  0  0  0  0  0  0
   17.2131  -10.9805  -18.5550 C   0  0  0  0  0  0  0  0  0  0  0  0
   18.7545  -12.3954  -17.1849 C   0  0  2  0  0  0  0  0  0  0  0  0
   18.8603  -13.6467  -16.4897 N   0  0  0  0  0  0  0  0  0  0  0  0
   19.0748  -11.2836  -16.2571 C   0  0  0  0  0  0  0  0  0  0  0  0
   18.3819  -11.1861  -15.2203 O   0  0  0  0  0  0  0  0  0  0  0  0
   21.5068  -10.0196  -12.7882 C   0  0  0  0  0  0  0  0  0  0  0  0
   22.2293  -10.0745  -14.1010 C   0  0  2  0  0  0  0  0  0  0  0  0
   23.7100  -10.1598  -13.8784 C   0  0  0  0  0  0  0  0  0  0  0  0
   21.7431   -9.2092  -15.1764 C   0  0  0  0  0  0  0  0  0  0  0  0
   20.3316   -9.2129  -15.5835 C   0  0  2  0  0  0  0  0  0  0  0  0
   20.1053  -10.3525  -16.4907 N   0  0  0  0  0  0  0  0  0  0  0  0
   19.7167   -7.9988  -16.0868 C   0  0  0  0  0  0  0  0  0  0  0  0
   19.9941   -7.5951  -17.2398 O   0  0  0  0  0  0  0  0  0  0  0  0
   16.7024   -5.9381  -15.5484 C   0  0  0  0  0  0  0  0  0  0  0  0
   18.1644   -6.0472  -15.9413 C   0  0  2  0  0  0  0  0  0  0  0  0
   18.7910   -7.2013  -15.3499 N   0  0  0  0  0  0  0  0  0  0  0  0
   18.8661   -4.8333  -15.4775 C   0  0  0  0  0  0  0  0  0  0  0  0
   19.7373   -4.9257  -14.5953 O   0  0  0  0  0  0  0  0  0  0  0  0
   18.5494   -3.5827  -16.0312 O   0  0  0  0  0  0  0  0  0  0  0  0
  2  1  1  0
  3  2  1  0
  3  4  1  6
  5  3  1  0
  5  6  1  1
  7  5  1  0
  7  8  2  0
 10  9  1  1
 10 12  1  0
 10 11  1  0
 13 12  1  6
 13 14  1  0
 14  7  1  0
 15 13  1  0
 15 19  1  0
 16 15  2  0
 18 17  1  1
 18 20  1  0
 19 18  1  0
 20 21  2  0
 20 22  1  0
M  END
$$$$
