ILA.pdb
     RDKit          3D

 22 21  0  0  1  0  0  0  0  0999 V2000
   24.7016  -18.6489  -18.9112 C   0  0  0  0  0  0  0  0  0  0  0  0
   25.4915  -19.0589  -17.7013 C   0  0  0  0  0  0  0  0  0  0  0  0
   24.6876  -19.7110  -16.6253 C   0  0  2  0  0  0  0  0  0  0  0  0
   23.6291  -18.7146  -16.1911 C   0  0  0  0  0  0  0  0  0  0  0  0
   25.5826  -20.1000  -15.4704 C   0  0  2  0  0  0  0  0  0  0  0  0
   26.6126  -20.9787  -15.9472 N   0  0  0  0  0  0  0  0  0  0  0  0
   24.8093  -20.7763  -14.4007 C   0  0  0  0  0  0  0  0  0  0  0  0
   24.4890  -21.9698  -14.5937 O   0  0  0  0  0  0  0  0  0  0  0  0
   25.8578  -22.2870  -10.5404 C   0  0  0  0  0  0  0  0  0  0  0  0
   25.4649  -20.8476  -10.3917 C   0  0  2  0  0  0  0  0  0  0  0  0
   25.9420  -20.3100   -9.0754 C   0  0  0  0  0  0  0  0  0  0  0  0
   24.1303  -20.4606  -10.8509 C   0  0  0  0  0  0  0  0  0  0  0  0
   23.6351  -20.8475  -12.1787 C   0  0  2  0  0  0  0  0  0  0  0  0
   24.4287  -20.1429  -13.2018 N   0  0  0  0  0  0  0  0  0  0  0  0
   22.2149  -20.7897  -12.4704 C   0  0  0  0  0  0  0  0  0  0  0  0
   21.4057  -21.4034  -11.7370 O   0  0  0  0  0  0  0  0  0  0  0  0
   19.9310  -19.8168  -15.2907 C   0  0  0  0  0  0  0  0  0  0  0  0
   20.2335  -20.1146  -13.8335 C   0  0  2  0  0  0  0  0  0  0  0  0
   21.6471  -20.0665  -13.5615 N   0  0  0  0  0  0  0  0  0  0  0  0
   19.7328  -21.4676  -13.5179 C   0  0  0  0  0  0  0  0  0  0  0  0
   20.5093  -22.4375  -13.5660 O   0  0  0  0  0  0  0  0  0  0  0  0
   18.3869  -21.6553  -13.1658 O   0  0  0  0  0  0  0  0  0  0  0  0
  2  1  1  0
  3  2  1  0
  3  4  1  1
  5  3  1  0
  5  6  1  6
  7  5  1  0
  7  8  2  0
 10  9  1  1
 10 12  1  0
 10 11  1  0
 13 12  1  1
 13 14  1  0
 14  7  1  0
 15 13  1  0
 15 19  1  0
 16 15  2  0
 18 17  1  6
 18 20  1  0
 19 18  1  0
 20 21  2  0
 20 22  1  0
M  END
$$$$
