NRW.pdb
     RDKit          3D

 34 35  0  0  1  0  0  0  0  0999 V2000
   24.4411  -16.2928  -19.6455 N   0  0  0  0  0  0  0  0  0  0  0  0
   23.0373  -16.2040  -19.4579 C   0  0  0  0  0  0  0  0  0  0  0  0
   22.4260  -15.1877  -19.8485 O   0  0  0  0  0  0  0  0  0  0  0  0
   22.2903  -17.2910  -18.8101 C   0  0  0  0  0  0  0  0  0  0  0  0
   23.2262  -18.4018  -18.3744 C   0  0  2  0  0  0  0  0  0  0  0  0
   23.6313  -19.2167  -19.4968 N   0  0  0  0  0  0  0  0  0  0  0  0
   22.6512  -19.2036  -17.2783 C   0  0  0  0  0  0  0  0  0  0  0  0
   21.7618  -20.0836  -17.4494 O   0  0  0  0  0  0  0  0  0  0  0  0
   25.3498  -21.9478  -14.2955 N   0  0  0  0  0  0  0  0  0  0  0  0
   25.3304  -22.2194  -12.9063 C   0  0  0  0  0  0  0  0  0  0  0  0
   26.4294  -22.5628  -12.2770 N   0  0  0  0  0  0  0  0  0  0  0  0
   24.1507  -22.1408  -12.1220 N   0  0  0  0  0  0  0  0  0  0  0  0
   22.9168  -21.6075  -12.6559 C   0  0  0  0  0  0  0  0  0  0  0  0
   22.9345  -20.1141  -12.4331 C   0  0  0  0  0  0  0  0  0  0  0  0
   23.4738  -19.3688  -13.6422 C   0  0  0  0  0  0  0  0  0  0  0  0
   22.5580  -19.6191  -14.7825 C   0  0  2  0  0  0  0  0  0  0  0  0
   23.1146  -18.9803  -15.9704 N   0  0  0  0  0  0  0  0  0  0  0  0
   21.1597  -19.2918  -14.5693 C   0  0  0  0  0  0  0  0  0  0  0  0
   20.8426  -18.1033  -14.3579 O   0  0  0  0  0  0  0  0  0  0  0  0
   26.4723  -22.8001  -11.2862 N   0  0  0  0  0  0  0  0  0  0  0  0
   20.1622  -20.2805  -14.5960 C   0  0  2  0  0  0  0  0  0  0  0  0
   18.7608  -20.0410  -14.3811 C   0  0  0  0  0  0  0  0  0  0  0  0
   18.2334  -19.2402  -15.5500 C   0  0  0  0  0  0  0  0  0  0  0  0
   18.2715  -20.0181  -16.8122 C   0  0  0  0  0  0  0  0  0  0  0  0
   18.0563  -21.3749  -16.9203 N   0  0  0  0  0  0  0  0  0  0  0  0
   18.1796  -21.6779  -18.2272 C   0  0  0  0  0  0  0  0  0  0  0  0
   18.4636  -20.5516  -18.9250 C   0  0  0  0  0  0  0  0  0  0  0  0
   18.6815  -20.3257  -20.2671 C   0  0  0  0  0  0  0  0  0  0  0  0
   18.9575  -19.0558  -20.7208 C   0  0  0  0  0  0  0  0  0  0  0  0
   19.0207  -17.9908  -19.8432 C   0  0  0  0  0  0  0  0  0  0  0  0
   18.8062  -18.1974  -18.5028 C   0  0  0  0  0  0  0  0  0  0  0  0
   18.5303  -19.4682  -18.0508 C   0  0  0  0  0  0  0  0  0  0  0  0
   17.9718  -21.2892  -14.1568 O   0  0  0  0  0  0  0  0  0  0  0  0
   16.7679  -21.1752  -13.8290 O   0  0  0  0  0  0  0  0  0  0  0  0
  2  1  1  0
  2  4  1  0
  3  2  2  0
  5  4  1  0
  5  6  1  6
  7  8  2  0
  7  5  1  0
  9 10  1  0
 10 12  1  0
 11 10  2  0
 12 13  1  0
 13 14  1  0
 14 15  1  0
 16 15  1  1
 16 17  1  0
 17  7  1  0
 18 16  1  0
 19 18  2  0
 20 18  1  0
 21 22  1  1
 21 20  1  0
 22 23  1  0
 23 31  1  0
 24 23  2  0
 24 25  1  0
 25 26  1  0
 26 27  1  0
 27 28  2  0
 29 28  1  0
 30 29  2  0
 31 26  2  0
 31 30  1  0
 32 34  1  0
 32 21  1  0
 33 32  2  0
M  END
$$$$
