NRW.pdb
     RDKit          3D

 34 35  0  0  1  0  0  0  0  0999 V2000
   20.4681  -21.0087  -16.9084 N   0  0  0  0  0  0  0  0  0  0  0  0
   20.2822  -21.4932  -15.5876 C   0  0  0  0  0  0  0  0  0  0  0  0
   19.1257  -21.6220  -15.1350 O   0  0  0  0  0  0  0  0  0  0  0  0
   21.4314  -21.8465  -14.7426 C   0  0  0  0  0  0  0  0  0  0  0  0
   22.7352  -21.5938  -15.4746 C   0  0  2  0  0  0  0  0  0  0  0  0
   22.8842  -22.4839  -16.6030 N   0  0  0  0  0  0  0  0  0  0  0  0
   23.8936  -21.6456  -14.5631 C   0  0  0  0  0  0  0  0  0  0  0  0
   24.3381  -22.7149  -14.0594 O   0  0  0  0  0  0  0  0  0  0  0  0
   29.4772  -20.2011  -16.5434 N   0  0  0  0  0  0  0  0  0  0  0  0
   28.2601  -19.6603  -17.0231 C   0  0  0  0  0  0  0  0  0  0  0  0
   27.7307  -20.0949  -18.1423 N   0  0  0  0  0  0  0  0  0  0  0  0
   27.5498  -18.6378  -16.3428 N   0  0  0  0  0  0  0  0  0  0  0  0
   27.9481  -18.1795  -15.0300 C   0  0  0  0  0  0  0  0  0  0  0  0
   27.5947  -19.2670  -14.0437 C   0  0  0  0  0  0  0  0  0  0  0  0
   26.2522  -19.0129  -13.3796 C   0  0  0  0  0  0  0  0  0  0  0  0
   25.5703  -20.3194  -13.2067 C   0  0  2  0  0  0  0  0  0  0  0  0
   24.5414  -20.4427  -14.2339 N   0  0  0  0  0  0  0  0  0  0  0  0
   25.0752  -20.6160  -11.8745 C   0  0  0  0  0  0  0  0  0  0  0  0
   23.8720  -20.4072  -11.6165 O   0  0  0  0  0  0  0  0  0  0  0  0
   26.8495  -19.7573  -18.5286 N   0  0  0  0  0  0  0  0  0  0  0  0
   25.9185  -21.1304  -10.8758 C   0  0  2  0  0  0  0  0  0  0  0  0
   25.7126  -20.9691   -9.4620 C   0  0  0  0  0  0  0  0  0  0  0  0
   26.9667  -21.4187   -8.7471 C   0  0  0  0  0  0  0  0  0  0  0  0
   27.0847  -20.8032   -7.4028 C   0  0  0  0  0  0  0  0  0  0  0  0
   26.0300  -20.3812   -6.6229 N   0  0  0  0  0  0  0  0  0  0  0  0
   26.5666  -19.8890   -5.4894 C   0  0  0  0  0  0  0  0  0  0  0  0
   27.9162  -19.9949   -5.5480 C   0  0  0  0  0  0  0  0  0  0  0  0
   28.9106  -19.6430   -4.6608 C   0  0  0  0  0  0  0  0  0  0  0  0
   30.2319  -19.8656   -4.9760 C   0  0  0  0  0  0  0  0  0  0  0  0
   30.5826  -20.4428   -6.1811 C   0  0  0  0  0  0  0  0  0  0  0  0
   29.6051  -20.7998   -7.0769 C   0  0  0  0  0  0  0  0  0  0  0  0
   28.2841  -20.5763   -6.7600 C   0  0  0  0  0  0  0  0  0  0  0  0
   25.3138  -19.5830   -9.0735 O   0  0  0  0  0  0  0  0  0  0  0  0
   25.9552  -18.6251   -9.5644 O   0  0  0  0  0  0  0  0  0  0  0  0
  2  1  1  0
  2  4  1  0
  3  2  2  0
  5  4  1  0
  5  6  1  6
  7  8  2  0
  7  5  1  0
  9 10  1  0
 10 12  1  0
 11 10  2  0
 12 13  1  0
 13 14  1  0
 14 15  1  0
 16 15  1  1
 16 17  1  0
 17  7  1  0
 18 16  1  0
 19 18  2  0
 20 18  1  0
 21 22  1  6
 21 20  1  0
 22 23  1  0
 23 31  1  0
 24 23  2  0
 24 25  1  0
 25 26  1  0
 26 27  1  0
 27 28  2  0
 29 28  1  0
 30 29  2  0
 31 26  2  0
 31 30  1  0
 32 34  1  0
 32 21  1  0
 33 32  2  0
M  END
$$$$
