NRW.pdb
     RDKit          3D

 34 35  0  0  1  0  0  0  0  0999 V2000
   29.3053  -20.2335  -18.4401 N   0  0  0  0  0  0  0  0  0  0  0  0
   28.0146  -19.6438  -18.4273 C   0  0  0  0  0  0  0  0  0  0  0  0
   27.8185  -18.5755  -19.0432 O   0  0  0  0  0  0  0  0  0  0  0  0
   26.9031  -20.2717  -17.6995 C   0  0  0  0  0  0  0  0  0  0  0  0
   27.3809  -21.4918  -16.9362 C   0  0  2  0  0  0  0  0  0  0  0  0
   27.7042  -22.5779  -17.8327 N   0  0  0  0  0  0  0  0  0  0  0  0
   26.4209  -21.8944  -15.8914 C   0  0  0  0  0  0  0  0  0  0  0  0
   25.4289  -22.6455  -16.1070 O   0  0  0  0  0  0  0  0  0  0  0  0
   22.8309  -20.2360   -9.6729 N   0  0  0  0  0  0  0  0  0  0  0  0
   23.6591  -20.9547   -8.7775 C   0  0  0  0  0  0  0  0  0  0  0  0
   23.1405  -21.6025   -7.7611 N   0  0  0  0  0  0  0  0  0  0  0  0
   25.0696  -21.0202   -8.9161 N   0  0  0  0  0  0  0  0  0  0  0  0
   25.7684  -20.2751   -9.9401 C   0  0  0  0  0  0  0  0  0  0  0  0
   25.1892  -20.6842  -11.2733 C   0  0  0  0  0  0  0  0  0  0  0  0
   26.2655  -21.1555  -12.2363 C   0  0  0  0  0  0  0  0  0  0  0  0
   25.6132  -21.4918  -13.5259 C   0  0  2  0  0  0  0  0  0  0  0  0
   26.6160  -21.4192  -14.5833 N   0  0  0  0  0  0  0  0  0  0  0  0
   24.4024  -20.7574  -13.8459 C   0  0  0  0  0  0  0  0  0  0  0  0
   24.4653  -19.5184  -13.9824 O   0  0  0  0  0  0  0  0  0  0  0  0
   23.6783  -22.1784   -7.1138 N   0  0  0  0  0  0  0  0  0  0  0  0
   23.1684  -21.4098  -14.0040 C   0  0  1  0  0  0  0  0  0  0  0  0
   21.9085  -20.7479  -14.2083 C   0  0  0  0  0  0  0  0  0  0  0  0
   21.3664  -21.1686  -15.5556 C   0  0  0  0  0  0  0  0  0  0  0  0
   21.8951  -20.3200  -16.6511 C   0  0  0  0  0  0  0  0  0  0  0  0
   23.2238  -20.1974  -16.9953 N   0  0  0  0  0  0  0  0  0  0  0  0
   23.2715  -19.3393  -18.0328 C   0  0  0  0  0  0  0  0  0  0  0  0
   22.0157  -18.9310  -18.3366 C   0  0  0  0  0  0  0  0  0  0  0  0
   21.5304  -18.0703  -19.2977 C   0  0  0  0  0  0  0  0  0  0  0  0
   20.1791  -17.8255  -19.3908 C   0  0  0  0  0  0  0  0  0  0  0  0
   19.2901  -18.4351  -18.5268 C   0  0  0  0  0  0  0  0  0  0  0  0
   19.7558  -19.2955  -17.5634 C   0  0  0  0  0  0  0  0  0  0  0  0
   21.1077  -19.5391  -17.4718 C   0  0  0  0  0  0  0  0  0  0  0  0
   20.9253  -20.9887  -13.1099 O   0  0  0  0  0  0  0  0  0  0  0  0
   21.2228  -21.8237  -12.2244 O   0  0  0  0  0  0  0  0  0  0  0  0
  2  1  1  0
  2  4  1  0
  3  2  2  0
  5  4  1  0
  5  6  1  6
  7  8  2  0
  7  5  1  0
  9 10  1  0
 10 12  1  0
 11 10  2  0
 12 13  1  0
 13 14  1  0
 14 15  1  0
 16 15  1  1
 16 17  1  0
 17  7  1  0
 18 16  1  0
 19 18  2  0
 20 18  1  0
 21 22  1  6
 21 20  1  0
 22 23  1  0
 23 31  1  0
 24 23  2  0
 24 25  1  0
 25 26  1  0
 26 27  1  0
 27 28  2  0
 29 28  1  0
 30 29  2  0
 31 26  2  0
 31 30  1  0
 32 34  1  0
 32 21  1  0
 33 32  2  0
M  END
$$$$
