NRW.pdb
     RDKit          3D

 34 35  0  0  1  0  0  0  0  0999 V2000
   17.0253  -18.6951  -12.7042 N   0  0  0  0  0  0  0  0  0  0  0  0
   18.0025  -19.1936  -13.6044 C   0  0  0  0  0  0  0  0  0  0  0  0
   17.6407  -19.8128  -14.6265 O   0  0  0  0  0  0  0  0  0  0  0  0
   19.4361  -18.9922  -13.3523 C   0  0  0  0  0  0  0  0  0  0  0  0
   20.1375  -20.3205  -13.1441 C   0  0  2  0  0  0  0  0  0  0  0  0
   20.0909  -20.7267  -11.7582 N   0  0  0  0  0  0  0  0  0  0  0  0
   21.5126  -20.3028  -13.6770 C   0  0  0  0  0  0  0  0  0  0  0  0
   22.5401  -20.1793  -12.9534 O   0  0  0  0  0  0  0  0  0  0  0  0
   25.1749  -24.9604  -16.0678 N   0  0  0  0  0  0  0  0  0  0  0  0
   26.1166  -24.5006  -17.0195 C   0  0  0  0  0  0  0  0  0  0  0  0
   27.3542  -24.9361  -16.9995 N   0  0  0  0  0  0  0  0  0  0  0  0
   25.7929  -23.5615  -18.0325 N   0  0  0  0  0  0  0  0  0  0  0  0
   24.4619  -23.0100  -18.1610 C   0  0  0  0  0  0  0  0  0  0  0  0
   24.3742  -21.8181  -17.2379 C   0  0  0  0  0  0  0  0  0  0  0  0
   23.0584  -21.7868  -16.4791 C   0  0  0  0  0  0  0  0  0  0  0  0
   22.9977  -20.5154  -15.7166 C   0  0  2  0  0  0  0  0  0  0  0  0
   21.6951  -20.4298  -15.0647 N   0  0  0  0  0  0  0  0  0  0  0  0
   23.3428  -19.3093  -16.4472 C   0  0  0  0  0  0  0  0  0  0  0  0
   22.6135  -18.9458  -17.3926 O   0  0  0  0  0  0  0  0  0  0  0  0
   28.0734  -24.6499  -17.6633 N   0  0  0  0  0  0  0  0  0  0  0  0
   24.4747  -18.5474  -16.1132 C   0  0  2  0  0  0  0  0  0  0  0  0
   24.8430  -17.3050  -16.7362 C   0  0  0  0  0  0  0  0  0  0  0  0
   25.9092  -16.6488  -15.8885 C   0  0  0  0  0  0  0  0  0  0  0  0
   27.0492  -17.5626  -15.6331 C   0  0  0  0  0  0  0  0  0  0  0  0
   28.1911  -17.6476  -16.3996 N   0  0  0  0  0  0  0  0  0  0  0  0
   28.9654  -18.5901  -15.8275 C   0  0  0  0  0  0  0  0  0  0  0  0
   28.3360  -19.0866  -14.7350 C   0  0  0  0  0  0  0  0  0  0  0  0
   28.6962  -20.0519  -13.8194 C   0  0  0  0  0  0  0  0  0  0  0  0
   27.8517  -20.3721  -12.7806 C   0  0  0  0  0  0  0  0  0  0  0  0
   26.6344  -19.7346  -12.6384 C   0  0  0  0  0  0  0  0  0  0  0  0
   26.2594  -18.7704  -13.5411 C   0  0  0  0  0  0  0  0  0  0  0  0
   27.1053  -18.4515  -14.5795 C   0  0  0  0  0  0  0  0  0  0  0  0
   25.2743  -17.4578  -18.1581 O   0  0  0  0  0  0  0  0  0  0  0  0
   25.5132  -16.4192  -18.8170 O   0  0  0  0  0  0  0  0  0  0  0  0
  2  1  1  0
  2  4  1  0
  3  2  2  0
  5  4  1  0
  5  6  1  1
  7  8  2  0
  7  5  1  0
  9 10  1  0
 10 12  1  0
 11 10  2  0
 12 13  1  0
 13 14  1  0
 14 15  1  0
 16 15  1  6
 16 17  1  0
 17  7  1  0
 18 16  1  0
 19 18  2  0
 20 18  1  0
 21 22  1  1
 21 20  1  0
 22 23  1  0
 23 31  1  0
 24 23  2  0
 24 25  1  0
 25 26  1  0
 26 27  1  0
 27 28  2  0
 29 28  1  0
 30 29  2  0
 31 26  2  0
 31 30  1  0
 32 34  1  0
 32 21  1  0
 33 32  2  0
M  END
$$$$
