NRW.pdb
     RDKit          3D

 34 35  0  0  1  0  0  0  0  0999 V2000
   25.7484  -17.1159  -17.2833 N   0  0  0  0  0  0  0  0  0  0  0  0
   26.3987  -16.8758  -16.0451 C   0  0  0  0  0  0  0  0  0  0  0  0
   27.4289  -16.1708  -16.0161 O   0  0  0  0  0  0  0  0  0  0  0  0
   25.8781  -17.4447  -14.7942 C   0  0  0  0  0  0  0  0  0  0  0  0
   24.7204  -18.3842  -15.0714 C   0  0  2  0  0  0  0  0  0  0  0  0
   23.6108  -17.6846  -15.6774 N   0  0  0  0  0  0  0  0  0  0  0  0
   24.3201  -19.1306  -13.8640 C   0  0  0  0  0  0  0  0  0  0  0  0
   23.5725  -18.6542  -12.9646 O   0  0  0  0  0  0  0  0  0  0  0  0
   25.9536  -26.1659  -15.8244 N   0  0  0  0  0  0  0  0  0  0  0  0
   24.5894  -25.9737  -15.4987 C   0  0  0  0  0  0  0  0  0  0  0  0
   23.7513  -26.9833  -15.5082 N   0  0  0  0  0  0  0  0  0  0  0  0
   24.0512  -24.7082  -15.1496 N   0  0  0  0  0  0  0  0  0  0  0  0
   24.8562  -23.5068  -15.1735 C   0  0  0  0  0  0  0  0  0  0  0  0
   25.2802  -23.2171  -13.7534 C   0  0  0  0  0  0  0  0  0  0  0  0
   24.1495  -22.6128  -12.9382 C   0  0  0  0  0  0  0  0  0  0  0  0
   24.5668  -21.2551  -12.5091 C   0  0  2  0  0  0  0  0  0  0  0  0
   24.7935  -20.4437  -13.7003 N   0  0  0  0  0  0  0  0  0  0  0  0
   25.6666  -21.1883  -11.5638 C   0  0  0  0  0  0  0  0  0  0  0  0
   26.7834  -21.6301  -11.9035 O   0  0  0  0  0  0  0  0  0  0  0  0
   22.7530  -26.9013  -15.3171 N   0  0  0  0  0  0  0  0  0  0  0  0
   25.5000  -20.6393  -10.2815 C   0  0  1  0  0  0  0  0  0  0  0  0
   26.3009  -20.9710   -9.1344 C   0  0  0  0  0  0  0  0  0  0  0  0
   27.3253  -19.8760   -8.9404 C   0  0  0  0  0  0  0  0  0  0  0  0
   28.3037  -20.2192   -7.8798 C   0  0  0  0  0  0  0  0  0  0  0  0
   29.2818  -21.1847   -7.9785 N   0  0  0  0  0  0  0  0  0  0  0  0
   29.9475  -21.1748   -6.8073 C   0  0  0  0  0  0  0  0  0  0  0  0
   29.4099  -20.2347   -5.9927 C   0  0  0  0  0  0  0  0  0  0  0  0
   29.7210  -19.8349   -4.7108 C   0  0  0  0  0  0  0  0  0  0  0  0
   28.9986  -18.8337   -4.1021 C   0  0  0  0  0  0  0  0  0  0  0  0
   27.9544  -18.2153   -4.7621 C   0  0  0  0  0  0  0  0  0  0  0  0
   27.6306  -18.6008   -6.0396 C   0  0  0  0  0  0  0  0  0  0  0  0
   28.3542  -19.6024   -6.6468 C   0  0  0  0  0  0  0  0  0  0  0  0
   25.4980  -21.2113   -7.8980 O   0  0  0  0  0  0  0  0  0  0  0  0
   25.9621  -21.9932   -7.0359 O   0  0  0  0  0  0  0  0  0  0  0  0
  2  1  1  0
  2  4  1  0
  3  2  2  0
  5  4  1  0
  5  6  1  1
  7  8  2  0
  7  5  1  0
  9 10  1  0
 10 12  1  0
 11 10  2  0
 12 13  1  0
 13 14  1  0
 14 15  1  0
 16 15  1  6
 16 17  1  0
 17  7  1  0
 18 16  1  0
 19 18  2  0
 20 18  1  0
 21 22  1  1
 21 20  1  0
 22 23  1  0
 23 31  1  0
 24 23  2  0
 24 25  1  0
 25 26  1  0
 26 27  1  0
 27 28  2  0
 29 28  1  0
 30 29  2  0
 31 26  2  0
 31 30  1  0
 32 34  1  0
 32 21  1  0
 33 32  2  0
M  END
$$$$
