NRW.pdb
     RDKit          3D

 34 35  0  0  1  0  0  0  0  0999 V2000
   29.7800  -23.7822  -20.2193 N   0  0  0  0  0  0  0  0  0  0  0  0
   30.0995  -22.8498  -19.1984 C   0  0  0  0  0  0  0  0  0  0  0  0
   31.2949  -22.6475  -18.8999 O   0  0  0  0  0  0  0  0  0  0  0  0
   29.0438  -22.1169  -18.4857 C   0  0  0  0  0  0  0  0  0  0  0  0
   29.2043  -22.2665  -16.9852 C   0  0  2  0  0  0  0  0  0  0  0  0
   29.0733  -23.6469  -16.5787 N   0  0  0  0  0  0  0  0  0  0  0  0
   28.2909  -21.3754  -16.2455 C   0  0  0  0  0  0  0  0  0  0  0  0
   28.0256  -20.1941  -16.6044 O   0  0  0  0  0  0  0  0  0  0  0  0
   24.8341  -20.9944  -18.6144 N   0  0  0  0  0  0  0  0  0  0  0  0
   24.1789  -22.2302  -18.3967 C   0  0  0  0  0  0  0  0  0  0  0  0
   24.2315  -23.1824  -19.2979 N   0  0  0  0  0  0  0  0  0  0  0  0
   23.4399  -22.5138  -17.2192 N   0  0  0  0  0  0  0  0  0  0  0  0
   23.3967  -21.5896  -16.1074 C   0  0  0  0  0  0  0  0  0  0  0  0
   24.5814  -21.8913  -15.2209 C   0  0  0  0  0  0  0  0  0  0  0  0
   25.5748  -20.7423  -15.1949 C   0  0  0  0  0  0  0  0  0  0  0  0
   26.6937  -21.1221  -14.2975 C   0  0  2  0  0  0  0  0  0  0  0  0
   27.6801  -21.8623  -15.0772 N   0  0  0  0  0  0  0  0  0  0  0  0
   26.3296  -21.7956  -13.0640 C   0  0  0  0  0  0  0  0  0  0  0  0
   26.8377  -22.9068  -12.8093 O   0  0  0  0  0  0  0  0  0  0  0  0
   23.7029  -24.0528  -19.2436 N   0  0  0  0  0  0  0  0  0  0  0  0
   25.4220  -21.2248  -12.1563 C   0  0  1  0  0  0  0  0  0  0  0  0
   25.6102  -21.1661  -10.7321 C   0  0  0  0  0  0  0  0  0  0  0  0
   26.9589  -20.5399  -10.4588 C   0  0  0  0  0  0  0  0  0  0  0  0
   27.1127  -20.1647   -9.0321 C   0  0  0  0  0  0  0  0  0  0  0  0
   26.2241  -19.4000   -8.3078 N   0  0  0  0  0  0  0  0  0  0  0  0
   26.7336  -19.2978   -7.0648 C   0  0  0  0  0  0  0  0  0  0  0  0
   27.9059  -19.9745   -7.0025 C   0  0  0  0  0  0  0  0  0  0  0  0
   28.8047  -20.1743   -5.9767 C   0  0  0  0  0  0  0  0  0  0  0  0
   29.9429  -20.9194   -6.1871 C   0  0  0  0  0  0  0  0  0  0  0  0
   30.2027  -21.4772   -7.4239 C   0  0  0  0  0  0  0  0  0  0  0  0
   29.3183  -21.2885   -8.4572 C   0  0  0  0  0  0  0  0  0  0  0  0
   28.1806  -20.5430   -8.2449 C   0  0  0  0  0  0  0  0  0  0  0  0
   24.5084  -20.4564  -10.0155 O   0  0  0  0  0  0  0  0  0  0  0  0
   23.8985  -19.5469  -10.6244 O   0  0  0  0  0  0  0  0  0  0  0  0
  2  1  1  0
  2  4  1  0
  3  2  2  0
  5  4  1  0
  5  6  1  1
  7  8  2  0
  7  5  1  0
  9 10  1  0
 10 12  1  0
 11 10  2  0
 12 13  1  0
 13 14  1  0
 14 15  1  0
 16 15  1  6
 16 17  1  0
 17  7  1  0
 18 16  1  0
 19 18  2  0
 20 18  1  0
 21 22  1  1
 21 20  1  0
 22 23  1  0
 23 31  1  0
 24 23  2  0
 24 25  1  0
 25 26  1  0
 26 27  1  0
 27 28  2  0
 29 28  1  0
 30 29  2  0
 31 26  2  0
 31 30  1  0
 32 34  1  0
 32 21  1  0
 33 32  2  0
M  END
$$$$
