NRW.pdb
     RDKit          3D

 34 35  0  0  1  0  0  0  0  0999 V2000
   28.9415  -23.7957  -17.2001 N   0  0  0  0  0  0  0  0  0  0  0  0
   29.7813  -23.0915  -16.2986 C   0  0  0  0  0  0  0  0  0  0  0  0
   30.9672  -23.4530  -16.1502 O   0  0  0  0  0  0  0  0  0  0  0  0
   29.2766  -21.9414  -15.5357 C   0  0  0  0  0  0  0  0  0  0  0  0
   27.7851  -21.7679  -15.7479 C   0  0  2  0  0  0  0  0  0  0  0  0
   27.4796  -21.5078  -17.1360 N   0  0  0  0  0  0  0  0  0  0  0  0
   27.2196  -20.7450  -14.8484 C   0  0  0  0  0  0  0  0  0  0  0  0
   27.2551  -19.5061  -15.0904 O   0  0  0  0  0  0  0  0  0  0  0  0
   23.1476  -22.6335  -15.4479 N   0  0  0  0  0  0  0  0  0  0  0  0
   22.1114  -22.7500  -14.4905 C   0  0  0  0  0  0  0  0  0  0  0  0
   21.6282  -23.9266  -14.1685 N   0  0  0  0  0  0  0  0  0  0  0  0
   21.5406  -21.6302  -13.8324 N   0  0  0  0  0  0  0  0  0  0  0  0
   22.0942  -20.3014  -13.9738 C   0  0  0  0  0  0  0  0  0  0  0  0
   23.2625  -20.1936  -13.0231 C   0  0  0  0  0  0  0  0  0  0  0  0
   24.5662  -19.9311  -13.7574 C   0  0  0  0  0  0  0  0  0  0  0  0
   25.6832  -20.3502  -12.8751 C   0  0  2  0  0  0  0  0  0  0  0  0
   26.6070  -21.1663  -13.6558 N   0  0  0  0  0  0  0  0  0  0  0  0
   25.3114  -20.9684  -11.6152 C   0  0  0  0  0  0  0  0  0  0  0  0
   24.7660  -22.0909  -11.6305 O   0  0  0  0  0  0  0  0  0  0  0  0
   20.8049  -24.0677  -13.5836 N   0  0  0  0  0  0  0  0  0  0  0  0
   25.5519  -20.3320  -10.3862 C   0  0  1  0  0  0  0  0  0  0  0  0
   25.3097  -20.9175   -9.0955 C   0  0  0  0  0  0  0  0  0  0  0  0
   26.0521  -20.1034   -8.0602 C   0  0  0  0  0  0  0  0  0  0  0  0
   27.4363  -20.5975   -7.8605 C   0  0  0  0  0  0  0  0  0  0  0  0
   28.1258  -21.4134   -8.7310 N   0  0  0  0  0  0  0  0  0  0  0  0
   29.3370  -21.6227   -8.1795 C   0  0  0  0  0  0  0  0  0  0  0  0
   29.4136  -20.9621   -6.9988 C   0  0  0  0  0  0  0  0  0  0  0  0
   30.4197  -20.8552   -6.0627 C   0  0  0  0  0  0  0  0  0  0  0  0
   30.2314  -20.1035   -4.9251 C   0  0  0  0  0  0  0  0  0  0  0  0
   29.0368  -19.4464   -4.7028 C   0  0  0  0  0  0  0  0  0  0  0  0
   28.0236  -19.5417   -5.6247 C   0  0  0  0  0  0  0  0  0  0  0  0
   28.2137  -20.2940   -6.7619 C   0  0  0  0  0  0  0  0  0  0  0  0
   23.8589  -21.0518   -8.7664 O   0  0  0  0  0  0  0  0  0  0  0  0
   23.0367  -20.3923   -9.4438 O   0  0  0  0  0  0  0  0  0  0  0  0
  2  1  1  0
  2  4  1  0
  3  2  2  0
  5  4  1  0
  5  6  1  6
  7  8  2  0
  7  5  1  0
  9 10  1  0
 10 12  1  0
 11 10  2  0
 12 13  1  0
 13 14  1  0
 14 15  1  0
 16 15  1  6
 16 17  1  0
 17  7  1  0
 18 16  1  0
 19 18  2  0
 20 18  1  0
 21 22  1  1
 21 20  1  0
 22 23  1  0
 23 31  1  0
 24 23  2  0
 24 25  1  0
 25 26  1  0
 26 27  1  0
 27 28  2  0
 29 28  1  0
 30 29  2  0
 31 26  2  0
 31 30  1  0
 32 34  1  0
 32 21  1  0
 33 32  2  0
M  END
$$$$
