NRW.pdb
     RDKit          3D

 34 35  0  0  1  0  0  0  0  0999 V2000
   29.4821  -20.3616  -18.0821 N   0  0  0  0  0  0  0  0  0  0  0  0
   29.2964  -18.9559  -18.0241 C   0  0  0  0  0  0  0  0  0  0  0  0
   30.1309  -18.2007  -18.5649 O   0  0  0  0  0  0  0  0  0  0  0  0
   28.1355  -18.3739  -17.3364 C   0  0  0  0  0  0  0  0  0  0  0  0
   27.3048  -19.4557  -16.6737 C   0  0  2  0  0  0  0  0  0  0  0  0
   27.1731  -20.6133  -17.5284 N   0  0  0  0  0  0  0  0  0  0  0  0
   25.9986  -18.9423  -16.2203 C   0  0  0  0  0  0  0  0  0  0  0  0
   25.8686  -17.9680  -15.4275 O   0  0  0  0  0  0  0  0  0  0  0  0
   24.7267  -16.7203  -20.8791 N   0  0  0  0  0  0  0  0  0  0  0  0
   23.6783  -17.6680  -20.9614 C   0  0  0  0  0  0  0  0  0  0  0  0
   23.6337  -18.5313  -21.9485 N   0  0  0  0  0  0  0  0  0  0  0  0
   22.6321  -17.7449  -20.0061 N   0  0  0  0  0  0  0  0  0  0  0  0
   22.5434  -16.8180  -18.8993 C   0  0  0  0  0  0  0  0  0  0  0  0
   23.2882  -17.4283  -17.7361 C   0  0  0  0  0  0  0  0  0  0  0  0
   22.6737  -18.7480  -17.3016 C   0  0  0  0  0  0  0  0  0  0  0  0
   23.4912  -19.2914  -16.1889 C   0  0  2  0  0  0  0  0  0  0  0  0
   24.8322  -19.5675  -16.6932 N   0  0  0  0  0  0  0  0  0  0  0  0
   22.9223  -20.4096  -15.4584 C   0  0  0  0  0  0  0  0  0  0  0  0
   23.2021  -21.5716  -15.8180 O   0  0  0  0  0  0  0  0  0  0  0  0
   22.9028  -19.2330  -22.0637 N   0  0  0  0  0  0  0  0  0  0  0  0
   22.0679  -20.2111  -14.3611 C   0  0  1  0  0  0  0  0  0  0  0  0
   21.6022  -21.2499  -13.4829 C   0  0  0  0  0  0  0  0  0  0  0  0
   22.8072  -21.9243  -12.8674 C   0  0  0  0  0  0  0  0  0  0  0  0
   23.3993  -21.1079  -11.7798 C   0  0  0  0  0  0  0  0  0  0  0  0
   22.6882  -20.4212  -10.8199 N   0  0  0  0  0  0  0  0  0  0  0  0
   23.5976  -19.8171  -10.0306 C   0  0  0  0  0  0  0  0  0  0  0  0
   24.8438  -20.1105  -10.4747 C   0  0  0  0  0  0  0  0  0  0  0  0
   26.0950  -19.7467  -10.0251 C   0  0  0  0  0  0  0  0  0  0  0  0
   27.2227  -20.1943  -10.6752 C   0  0  0  0  0  0  0  0  0  0  0  0
   27.1206  -21.0118  -11.7841 C   0  0  0  0  0  0  0  0  0  0  0  0
   25.8823  -21.3843  -12.2457 C   0  0  0  0  0  0  0  0  0  0  0  0
   24.7555  -20.9356  -11.5943 C   0  0  0  0  0  0  0  0  0  0  0  0
   20.6418  -20.7660  -12.4463 O   0  0  0  0  0  0  0  0  0  0  0  0
   20.5363  -19.5298  -12.2711 O   0  0  0  0  0  0  0  0  0  0  0  0
  2  1  1  0
  2  4  1  0
  3  2  2  0
  5  4  1  0
  5  6  1  6
  7  8  2  0
  7  5  1  0
  9 10  1  0
 10 12  1  0
 11 10  2  0
 12 13  1  0
 13 14  1  0
 14 15  1  0
 16 15  1  6
 16 17  1  0
 17  7  1  0
 18 16  1  0
 19 18  2  0
 20 18  1  0
 21 22  1  6
 21 20  1  0
 22 23  1  0
 23 31  1  0
 24 23  2  0
 24 25  1  0
 25 26  1  0
 26 27  1  0
 27 28  2  0
 29 28  1  0
 30 29  2  0
 31 26  2  0
 31 30  1  0
 32 34  1  0
 32 21  1  0
 33 32  2  0
M  END
$$$$
