NRW.pdb
     RDKit          3D

 34 35  0  0  1  0  0  0  0  0999 V2000
   22.7986  -13.8417  -16.3518 N   0  0  0  0  0  0  0  0  0  0  0  0
   23.5268  -12.8767  -15.6087 C   0  0  0  0  0  0  0  0  0  0  0  0
   24.5345  -13.2290  -14.9610 O   0  0  0  0  0  0  0  0  0  0  0  0
   23.1130  -11.4668  -15.5893 C   0  0  0  0  0  0  0  0  0  0  0  0
   21.9185  -11.2443  -16.4966 C   0  0  2  0  0  0  0  0  0  0  0  0
   22.2438  -11.5381  -17.8735 N   0  0  0  0  0  0  0  0  0  0  0  0
   21.3495   -9.8937  -16.3311 C   0  0  0  0  0  0  0  0  0  0  0  0
   21.8842   -8.8490  -16.7976 O   0  0  0  0  0  0  0  0  0  0  0  0
   12.8200   -7.9059  -15.8217 N   0  0  0  0  0  0  0  0  0  0  0  0
   13.6248   -7.5187  -16.9200 C   0  0  0  0  0  0  0  0  0  0  0  0
   13.0791   -7.0344  -18.0106 N   0  0  0  0  0  0  0  0  0  0  0  0
   15.0395   -7.6264  -16.9148 N   0  0  0  0  0  0  0  0  0  0  0  0
   15.7545   -8.1977  -15.7948 C   0  0  0  0  0  0  0  0  0  0  0  0
   17.2304   -8.0826  -16.0928 C   0  0  0  0  0  0  0  0  0  0  0  0
   18.0775   -8.7312  -15.0114 C   0  0  0  0  0  0  0  0  0  0  0  0
   19.5041   -8.4779  -15.3311 C   0  0  2  0  0  0  0  0  0  0  0  0
   20.1474   -9.7560  -15.6162 N   0  0  0  0  0  0  0  0  0  0  0  0
   20.2452   -7.6744  -14.3757 C   0  0  0  0  0  0  0  0  0  0  0  0
   20.5614   -8.1785  -13.2786 O   0  0  0  0  0  0  0  0  0  0  0  0
   13.6034   -6.7619  -18.8416 N   0  0  0  0  0  0  0  0  0  0  0  0
   20.6116   -6.3483  -14.6598 C   0  0  2  0  0  0  0  0  0  0  0  0
   21.4600   -5.5342  -13.8323 C   0  0  0  0  0  0  0  0  0  0  0  0
   22.7715   -6.2613  -13.6399 C   0  0  0  0  0  0  0  0  0  0  0  0
   23.5865   -6.2638  -14.8792 C   0  0  0  0  0  0  0  0  0  0  0  0
   23.8021   -5.1742  -15.6946 N   0  0  0  0  0  0  0  0  0  0  0  0
   24.5901   -5.6005  -16.7008 C   0  0  0  0  0  0  0  0  0  0  0  0
   24.8652   -6.9163  -16.5297 C   0  0  0  0  0  0  0  0  0  0  0  0
   25.6135   -7.8080  -17.2677 C   0  0  0  0  0  0  0  0  0  0  0  0
   25.7314   -9.1178  -16.8610 C   0  0  0  0  0  0  0  0  0  0  0  0
   25.1048   -9.5591  -15.7117 C   0  0  0  0  0  0  0  0  0  0  0  0
   24.3554   -8.6846  -14.9641 C   0  0  0  0  0  0  0  0  0  0  0  0
   24.2386   -7.3750  -15.3724 C   0  0  0  0  0  0  0  0  0  0  0  0
   21.6592   -4.1523  -14.3630 O   0  0  0  0  0  0  0  0  0  0  0  0
   21.2604   -3.9031  -15.5244 O   0  0  0  0  0  0  0  0  0  0  0  0
  2  1  1  0
  2  4  1  0
  3  2  2  0
  5  4  1  0
  5  6  1  6
  7  8  2  0
  7  5  1  0
  9 10  1  0
 10 12  1  0
 11 10  2  0
 12 13  1  0
 13 14  1  0
 14 15  1  0
 16 15  1  1
 16 17  1  0
 17  7  1  0
 18 16  1  0
 19 18  2  0
 20 18  1  0
 21 22  1  1
 21 20  1  0
 22 23  1  0
 23 31  1  0
 24 23  2  0
 24 25  1  0
 25 26  1  0
 26 27  1  0
 27 28  2  0
 29 28  1  0
 30 29  2  0
 31 26  2  0
 31 30  1  0
 32 34  1  0
 32 21  1  0
 33 32  2  0
M  END
$$$$
