NRW.pdb
     RDKit          3D

 34 35  0  0  1  0  0  0  0  0999 V2000
   17.5474  -22.7305  -14.5040 N   0  0  0  0  0  0  0  0  0  0  0  0
   18.1142  -21.5220  -14.0223 C   0  0  0  0  0  0  0  0  0  0  0  0
   17.3991  -20.5036  -13.9193 O   0  0  0  0  0  0  0  0  0  0  0  0
   19.5318  -21.4499  -13.6421 C   0  0  0  0  0  0  0  0  0  0  0  0
   20.2055  -22.7969  -13.8196 C   0  0  2  0  0  0  0  0  0  0  0  0
   19.7468  -23.7468  -12.8321 N   0  0  0  0  0  0  0  0  0  0  0  0
   21.6752  -22.6753  -13.8401 C   0  0  0  0  0  0  0  0  0  0  0  0
   22.3302  -21.9853  -13.0097 O   0  0  0  0  0  0  0  0  0  0  0  0
   28.5727  -26.5777  -16.1079 N   0  0  0  0  0  0  0  0  0  0  0  0
   27.2680  -27.1270  -16.1071 C   0  0  0  0  0  0  0  0  0  0  0  0
   27.0292  -28.2814  -15.5309 N   0  0  0  0  0  0  0  0  0  0  0  0
   26.1598  -26.4821  -16.7145 N   0  0  0  0  0  0  0  0  0  0  0  0
   26.2585  -25.1407  -17.2464 C   0  0  0  0  0  0  0  0  0  0  0  0
   25.7570  -24.1932  -16.1829 C   0  0  0  0  0  0  0  0  0  0  0  0
   24.2578  -24.3217  -15.9732 C   0  0  0  0  0  0  0  0  0  0  0  0
   23.8329  -23.2586  -15.0293 C   0  0  2  0  0  0  0  0  0  0  0  0
   22.3905  -23.3626  -14.8357 N   0  0  0  0  0  0  0  0  0  0  0  0
   24.2635  -21.9083  -15.3440 C   0  0  0  0  0  0  0  0  0  0  0  0
   23.5793  -21.2240  -16.1322 O   0  0  0  0  0  0  0  0  0  0  0  0
   26.1064  -28.7107  -15.4682 N   0  0  0  0  0  0  0  0  0  0  0  0
   25.4283  -21.3597  -14.7823 C   0  0  2  0  0  0  0  0  0  0  0  0
   25.8942  -20.0174  -15.0024 C   0  0  0  0  0  0  0  0  0  0  0  0
   25.8935  -19.2930  -13.6753 C   0  0  0  0  0  0  0  0  0  0  0  0
   26.8071  -19.9337  -12.6981 C   0  0  0  0  0  0  0  0  0  0  0  0
   28.1489  -20.1742  -12.8990 N   0  0  0  0  0  0  0  0  0  0  0  0
   28.6032  -20.7639  -11.7761 C   0  0  0  0  0  0  0  0  0  0  0  0
   27.5840  -20.8935  -10.8925 C   0  0  0  0  0  0  0  0  0  0  0  0
   27.5243  -21.4221   -9.6209 C   0  0  0  0  0  0  0  0  0  0  0  0
   26.3350  -21.4291   -8.9280 C   0  0  0  0  0  0  0  0  0  0  0  0
   25.1862  -20.9091   -9.4921 C   0  0  0  0  0  0  0  0  0  0  0  0
   25.2272  -20.3783  -10.7578 C   0  0  0  0  0  0  0  0  0  0  0  0
   26.4176  -20.3722  -11.4494 C   0  0  0  0  0  0  0  0  0  0  0  0
   27.2267  -19.9531  -15.6741 O   0  0  0  0  0  0  0  0  0  0  0  0
   27.8643  -21.0213  -15.8235 O   0  0  0  0  0  0  0  0  0  0  0  0
  2  1  1  0
  2  4  1  0
  3  2  2  0
  5  4  1  0
  5  6  1  1
  7  8  2  0
  7  5  1  0
  9 10  1  0
 10 12  1  0
 11 10  2  0
 12 13  1  0
 13 14  1  0
 14 15  1  0
 16 15  1  6
 16 17  1  0
 17  7  1  0
 18 16  1  0
 19 18  2  0
 20 18  1  0
 21 22  1  1
 21 20  1  0
 22 23  1  0
 23 31  1  0
 24 23  2  0
 24 25  1  0
 25 26  1  0
 26 27  1  0
 27 28  2  0
 29 28  1  0
 30 29  2  0
 31 26  2  0
 31 30  1  0
 32 34  1  0
 32 21  1  0
 33 32  2  0
M  END
$$$$
