NRW.pdb
     RDKit          3D

 34 35  0  0  1  0  0  0  0  0999 V2000
   19.1521  -17.1134  -13.0212 N   0  0  0  0  0  0  0  0  0  0  0  0
   20.0713  -18.0795  -13.5063 C   0  0  0  0  0  0  0  0  0  0  0  0
   20.1797  -18.2646  -14.7364 O   0  0  0  0  0  0  0  0  0  0  0  0
   20.8992  -18.8671  -12.5823 C   0  0  0  0  0  0  0  0  0  0  0  0
   21.1757  -20.2459  -13.1498 C   0  0  2  0  0  0  0  0  0  0  0  0
   19.9893  -21.0704  -13.1259 N   0  0  0  0  0  0  0  0  0  0  0  0
   22.3211  -20.8927  -12.4828 C   0  0  0  0  0  0  0  0  0  0  0  0
   22.3288  -21.2106  -11.2607 O   0  0  0  0  0  0  0  0  0  0  0  0
   27.8408  -25.2312  -15.9105 N   0  0  0  0  0  0  0  0  0  0  0  0
   26.5123  -25.7183  -15.8713 C   0  0  0  0  0  0  0  0  0  0  0  0
   26.2745  -26.9996  -15.7183 N   0  0  0  0  0  0  0  0  0  0  0  0
   25.3781  -24.8746  -15.9923 N   0  0  0  0  0  0  0  0  0  0  0  0
   25.4942  -23.4335  -15.9485 C   0  0  0  0  0  0  0  0  0  0  0  0
   24.7146  -22.9522  -14.7481 C   0  0  0  0  0  0  0  0  0  0  0  0
   25.5802  -22.1383  -13.8014 C   0  0  0  0  0  0  0  0  0  0  0  0
   24.7232  -21.6667  -12.6857 C   0  0  2  0  0  0  0  0  0  0  0  0
   23.4689  -21.1726  -13.2439 N   0  0  0  0  0  0  0  0  0  0  0  0
   25.3328  -20.7332  -11.7558 C   0  0  0  0  0  0  0  0  0  0  0  0
   25.3283  -19.5159  -12.0312 O   0  0  0  0  0  0  0  0  0  0  0  0
   25.3467  -27.4202  -15.7664 N   0  0  0  0  0  0  0  0  0  0  0  0
   25.9243  -21.1703  -10.5589 C   0  0  2  0  0  0  0  0  0  0  0  0
   26.7874  -20.3739   -9.7293 C   0  0  0  0  0  0  0  0  0  0  0  0
   26.4764  -20.6891   -8.2837 C   0  0  0  0  0  0  0  0  0  0  0  0
   27.2330  -19.8148   -7.3547 C   0  0  0  0  0  0  0  0  0  0  0  0
   27.3299  -18.4436   -7.4499 N   0  0  0  0  0  0  0  0  0  0  0  0
   28.0996  -18.0429   -6.4193 C   0  0  0  0  0  0  0  0  0  0  0  0
   28.4784  -19.1234   -5.6946 C   0  0  0  0  0  0  0  0  0  0  0  0
   29.2557  -19.2517   -4.5635 C   0  0  0  0  0  0  0  0  0  0  0  0
   29.4889  -20.4945   -4.0196 C   0  0  0  0  0  0  0  0  0  0  0  0
   28.9505  -21.6291   -4.5950 C   0  0  0  0  0  0  0  0  0  0  0  0
   28.1737  -21.5201   -5.7219 C   0  0  0  0  0  0  0  0  0  0  0  0
   27.9416  -20.2763   -6.2646 C   0  0  0  0  0  0  0  0  0  0  0  0
   28.2379  -20.5485  -10.0403 O   0  0  0  0  0  0  0  0  0  0  0  0
   28.5790  -21.5400  -10.7262 O   0  0  0  0  0  0  0  0  0  0  0  0
  2  1  1  0
  2  4  1  0
  3  2  2  0
  5  4  1  0
  5  6  1  1
  7  8  2  0
  7  5  1  0
  9 10  1  0
 10 12  1  0
 11 10  2  0
 12 13  1  0
 13 14  1  0
 14 15  1  0
 16 15  1  6
 16 17  1  0
 17  7  1  0
 18 16  1  0
 19 18  2  0
 20 18  1  0
 21 22  1  1
 21 20  1  0
 22 23  1  0
 23 31  1  0
 24 23  2  0
 24 25  1  0
 25 26  1  0
 26 27  1  0
 27 28  2  0
 29 28  1  0
 30 29  2  0
 31 26  2  0
 31 30  1  0
 32 34  1  0
 32 21  1  0
 33 32  2  0
M  END
$$$$
