NRW.pdb
     RDKit          3D

 34 35  0  0  1  0  0  0  0  0999 V2000
   20.0085  -17.9350  -15.5442 N   0  0  0  0  0  0  0  0  0  0  0  0
   20.7570  -17.3401  -14.4957 C   0  0  0  0  0  0  0  0  0  0  0  0
   20.7066  -16.1040  -14.3264 O   0  0  0  0  0  0  0  0  0  0  0  0
   21.5921  -18.1571  -13.6043 C   0  0  0  0  0  0  0  0  0  0  0  0
   21.4844  -19.6265  -13.9634 C   0  0  2  0  0  0  0  0  0  0  0  0
   20.1451  -20.1229  -13.7452 N   0  0  0  0  0  0  0  0  0  0  0  0
   22.5024  -20.4359  -13.2679 C   0  0  0  0  0  0  0  0  0  0  0  0
   22.3514  -20.8953  -12.1014 O   0  0  0  0  0  0  0  0  0  0  0  0
   28.9580  -25.2525  -16.6908 N   0  0  0  0  0  0  0  0  0  0  0  0
   27.5675  -25.1547  -16.4442 C   0  0  0  0  0  0  0  0  0  0  0  0
   26.7397  -26.0560  -16.9177 N   0  0  0  0  0  0  0  0  0  0  0  0
   26.9910  -24.1018  -15.6879 N   0  0  0  0  0  0  0  0  0  0  0  0
   27.7910  -23.2553  -14.8302 C   0  0  0  0  0  0  0  0  0  0  0  0
   26.8699  -22.6652  -13.7892 C   0  0  0  0  0  0  0  0  0  0  0  0
   25.6418  -22.0284  -14.4171 C   0  0  0  0  0  0  0  0  0  0  0  0
   24.8360  -21.4158  -13.3322 C   0  0  2  0  0  0  0  0  0  0  0  0
   23.7077  -20.7140  -13.9349 N   0  0  0  0  0  0  0  0  0  0  0  0
   25.5604  -20.6002  -12.3741 C   0  0  0  0  0  0  0  0  0  0  0  0
   25.8201  -19.4143  -12.6640 O   0  0  0  0  0  0  0  0  0  0  0  0
   25.7367  -26.0659  -16.7337 N   0  0  0  0  0  0  0  0  0  0  0  0
   25.9726  -21.1162  -11.1343 C   0  0  2  0  0  0  0  0  0  0  0  0
   26.7424  -20.3942  -10.1578 C   0  0  0  0  0  0  0  0  0  0  0  0
   26.0125  -20.4628   -8.8355 C   0  0  0  0  0  0  0  0  0  0  0  0
   26.6876  -19.6538   -7.7916 C   0  0  0  0  0  0  0  0  0  0  0  0
   26.6933  -18.2773   -7.7282 N   0  0  0  0  0  0  0  0  0  0  0  0
   27.4113  -17.9487   -6.6366 C   0  0  0  0  0  0  0  0  0  0  0  0
   27.8467  -19.0784   -6.0280 C   0  0  0  0  0  0  0  0  0  0  0  0
   28.6059  -19.2851   -4.8963 C   0  0  0  0  0  0  0  0  0  0  0  0
   28.9108  -20.5644   -4.4899 C   0  0  0  0  0  0  0  0  0  0  0  0
   28.4634  -21.6580   -5.2055 C   0  0  0  0  0  0  0  0  0  0  0  0
   27.7057  -21.4707   -6.3353 C   0  0  0  0  0  0  0  0  0  0  0  0
   27.4018  -20.1905   -6.7404 C   0  0  0  0  0  0  0  0  0  0  0  0
   28.1536  -20.8700  -10.0431 O   0  0  0  0  0  0  0  0  0  0  0  0
   28.3910  -22.0763  -10.2845 O   0  0  0  0  0  0  0  0  0  0  0  0
  2  1  1  0
  2  4  1  0
  3  2  2  0
  5  4  1  0
  5  6  1  1
  7  8  2  0
  7  5  1  0
  9 10  1  0
 10 12  1  0
 11 10  2  0
 12 13  1  0
 13 14  1  0
 14 15  1  0
 16 15  1  6
 16 17  1  0
 17  7  1  0
 18 16  1  0
 19 18  2  0
 20 18  1  0
 21 22  1  1
 21 20  1  0
 22 23  1  0
 23 31  1  0
 24 23  2  0
 24 25  1  0
 25 26  1  0
 26 27  1  0
 27 28  2  0
 29 28  1  0
 30 29  2  0
 31 26  2  0
 31 30  1  0
 32 34  1  0
 32 21  1  0
 33 32  2  0
M  END
$$$$
