NRW.pdb
     RDKit          3D

 34 35  0  0  1  0  0  0  0  0999 V2000
   29.2834  -17.9302  -17.3225 N   0  0  0  0  0  0  0  0  0  0  0  0
   28.9556  -19.0390  -16.4999 C   0  0  0  0  0  0  0  0  0  0  0  0
   29.3026  -20.1875  -16.8458 O   0  0  0  0  0  0  0  0  0  0  0  0
   28.2129  -18.8567  -15.2450 C   0  0  0  0  0  0  0  0  0  0  0  0
   27.1315  -19.9101  -15.1021 C   0  0  2  0  0  0  0  0  0  0  0  0
   26.3493  -20.0261  -16.3115 N   0  0  0  0  0  0  0  0  0  0  0  0
   26.2923  -19.6751  -13.9122 C   0  0  0  0  0  0  0  0  0  0  0  0
   25.7946  -18.5519  -13.6199 O   0  0  0  0  0  0  0  0  0  0  0  0
   21.8812  -22.5555  -15.8726 N   0  0  0  0  0  0  0  0  0  0  0  0
   21.8158  -23.1003  -14.5677 C   0  0  0  0  0  0  0  0  0  0  0  0
   21.7263  -24.3970  -14.3885 N   0  0  0  0  0  0  0  0  0  0  0  0
   21.8415  -22.3002  -13.3963 N   0  0  0  0  0  0  0  0  0  0  0  0
   21.9097  -20.8569  -13.4625 C   0  0  0  0  0  0  0  0  0  0  0  0
   23.3461  -20.4594  -13.2196 C   0  0  0  0  0  0  0  0  0  0  0  0
   23.9248  -21.1512  -11.9971 C   0  0  0  0  0  0  0  0  0  0  0  0
   25.3044  -20.6448  -11.7924 C   0  0  2  0  0  0  0  0  0  0  0  0
   26.0291  -20.7563  -13.0538 N   0  0  0  0  0  0  0  0  0  0  0  0
   26.0361  -21.2050  -10.6705 C   0  0  0  0  0  0  0  0  0  0  0  0
   27.0890  -21.8378  -10.8911 O   0  0  0  0  0  0  0  0  0  0  0  0
   21.6429  -24.8452  -13.4763 N   0  0  0  0  0  0  0  0  0  0  0  0
   25.5852  -21.0500   -9.3491 C   0  0  1  0  0  0  0  0  0  0  0  0
   26.2651  -21.5482   -8.1843 C   0  0  0  0  0  0  0  0  0  0  0  0
   27.6710  -20.9921   -8.1834 C   0  0  0  0  0  0  0  0  0  0  0  0
   27.8416  -19.9284   -7.1640 C   0  0  0  0  0  0  0  0  0  0  0  0
   27.0822  -18.7823   -7.0717 N   0  0  0  0  0  0  0  0  0  0  0  0
   27.5592  -18.0923   -6.0175 C   0  0  0  0  0  0  0  0  0  0  0  0
   28.5866  -18.7773   -5.4596 C   0  0  0  0  0  0  0  0  0  0  0  0
   29.3989  -18.5079   -4.3791 C   0  0  0  0  0  0  0  0  0  0  0  0
   30.3897  -19.3929   -4.0185 C   0  0  0  0  0  0  0  0  0  0  0  0
   30.5862  -20.5607   -4.7298 C   0  0  0  0  0  0  0  0  0  0  0  0
   29.7862  -20.8453   -5.8089 C   0  0  0  0  0  0  0  0  0  0  0  0
   28.7959  -19.9590   -6.1681 C   0  0  0  0  0  0  0  0  0  0  0  0
   25.5476  -21.2570   -6.9070 O   0  0  0  0  0  0  0  0  0  0  0  0
   24.7115  -20.3239   -6.8995 O   0  0  0  0  0  0  0  0  0  0  0  0
  2  1  1  0
  2  4  1  0
  3  2  2  0
  5  4  1  0
  5  6  1  6
  7  8  2  0
  7  5  1  0
  9 10  1  0
 10 12  1  0
 11 10  2  0
 12 13  1  0
 13 14  1  0
 14 15  1  0
 16 15  1  6
 16 17  1  0
 17  7  1  0
 18 16  1  0
 19 18  2  0
 20 18  1  0
 21 22  1  1
 21 20  1  0
 22 23  1  0
 23 31  1  0
 24 23  2  0
 24 25  1  0
 25 26  1  0
 26 27  1  0
 27 28  2  0
 29 28  1  0
 30 29  2  0
 31 26  2  0
 31 30  1  0
 32 34  1  0
 32 21  1  0
 33 32  2  0
M  END
$$$$
