NRW.pdb
     RDKit          3D

 34 35  0  0  1  0  0  0  0  0999 V2000
   27.4256  -15.1397  -16.0466 N   0  0  0  0  0  0  0  0  0  0  0  0
   28.0183  -16.4091  -16.2720 C   0  0  0  0  0  0  0  0  0  0  0  0
   29.1583  -16.4766  -16.7772 O   0  0  0  0  0  0  0  0  0  0  0  0
   27.3106  -17.6479  -15.9198 C   0  0  0  0  0  0  0  0  0  0  0  0
   27.6207  -18.7469  -16.9176 C   0  0  2  0  0  0  0  0  0  0  0  0
   27.2880  -18.3419  -18.2641 N   0  0  0  0  0  0  0  0  0  0  0  0
   26.9830  -20.0227  -16.5423 C   0  0  0  0  0  0  0  0  0  0  0  0
   25.7351  -20.1687  -16.4157 O   0  0  0  0  0  0  0  0  0  0  0  0
   30.5532  -26.3779  -16.1707 N   0  0  0  0  0  0  0  0  0  0  0  0
   29.4907  -26.5837  -17.0832 C   0  0  0  0  0  0  0  0  0  0  0  0
   28.7905  -27.6930  -17.0545 N   0  0  0  0  0  0  0  0  0  0  0  0
   29.1220  -25.6282  -18.0650 N   0  0  0  0  0  0  0  0  0  0  0  0
   29.7342  -24.3189  -18.1195 C   0  0  0  0  0  0  0  0  0  0  0  0
   28.6936  -23.3136  -17.6870 C   0  0  0  0  0  0  0  0  0  0  0  0
   28.3378  -23.4652  -16.2179 C   0  0  0  0  0  0  0  0  0  0  0  0
   27.3120  -22.4457  -15.8858 C   0  0  2  0  0  0  0  0  0  0  0  0
   27.8040  -21.1399  -16.3119 N   0  0  0  0  0  0  0  0  0  0  0  0
   26.8235  -22.4454  -14.5186 C   0  0  0  0  0  0  0  0  0  0  0  0
   27.1826  -23.3594  -13.7483 O   0  0  0  0  0  0  0  0  0  0  0  0
   28.0405  -27.9145  -17.7090 N   0  0  0  0  0  0  0  0  0  0  0  0
   25.9597  -21.4426  -14.0481 C   0  0  1  0  0  0  0  0  0  0  0  0
   25.5734  -21.2678  -12.6742 C   0  0  0  0  0  0  0  0  0  0  0  0
   26.8295  -21.1400  -11.8425 C   0  0  0  0  0  0  0  0  0  0  0  0
   26.5239  -20.7889  -10.4342 C   0  0  0  0  0  0  0  0  0  0  0  0
   25.2662  -20.5426   -9.9281 N   0  0  0  0  0  0  0  0  0  0  0  0
   25.4290  -20.2646   -8.6199 C   0  0  0  0  0  0  0  0  0  0  0  0
   26.7456  -20.3322   -8.3065 C   0  0  0  0  0  0  0  0  0  0  0  0
   27.4256  -20.1366   -7.1236 C   0  0  0  0  0  0  0  0  0  0  0  0
   28.7949  -20.2705   -7.0805 C   0  0  0  0  0  0  0  0  0  0  0  0
   29.5079  -20.6016   -8.2164 C   0  0  0  0  0  0  0  0  0  0  0  0
   28.8469  -20.8002   -9.4035 C   0  0  0  0  0  0  0  0  0  0  0  0
   27.4773  -20.6658   -9.4447 C   0  0  0  0  0  0  0  0  0  0  0  0
   24.6415  -20.1204  -12.4599 O   0  0  0  0  0  0  0  0  0  0  0  0
   23.8424  -20.1813  -11.4968 O   0  0  0  0  0  0  0  0  0  0  0  0
  2  1  1  0
  2  4  1  0
  3  2  2  0
  5  4  1  0
  5  6  1  6
  7  8  2  0
  7  5  1  0
  9 10  1  0
 10 12  1  0
 11 10  2  0
 12 13  1  0
 13 14  1  0
 14 15  1  0
 16 15  1  1
 16 17  1  0
 17  7  1  0
 18 16  1  0
 19 18  2  0
 20 18  1  0
 21 22  1  1
 21 20  1  0
 22 23  1  0
 23 31  1  0
 24 23  2  0
 24 25  1  0
 25 26  1  0
 26 27  1  0
 27 28  2  0
 29 28  1  0
 30 29  2  0
 31 26  2  0
 31 30  1  0
 32 34  1  0
 32 21  1  0
 33 32  2  0
M  END
$$$$
