PHE.pdb
     RDKit          3D

 27 28  0  0  1  0  0  0  0  0999 V2000
   28.0336  -21.2409  -10.4362 N   0  0  0  0  0  0  0  0  0  0  0  0
   29.2829  -21.1398   -9.6917 C   0  0  0  0  0  0  0  0  0  0  0  0
   30.2907  -21.4849  -10.7862 C   0  0  0  0  0  0  0  0  0  0  0  0
   29.6613  -20.9046  -12.0366 C   0  0  0  0  0  0  0  0  0  0  0  0
   28.3163  -20.4102  -11.5722 C   0  0  1  0  0  0  0  0  0  0  0  0
   27.2845  -20.5086  -12.6313 C   0  0  0  0  0  0  0  0  0  0  0  0
   27.4233  -19.8740  -13.7147 O   0  0  0  0  0  0  0  0  0  0  0  0
   26.1544  -21.3319  -12.3793 N   0  0  0  0  0  0  0  0  0  0  0  0
   25.1815  -21.6800  -13.3751 C   0  0  1  0  0  0  0  0  0  0  0  0
   25.0028  -23.1404  -13.5894 C   0  0  0  0  0  0  0  0  0  0  0  0
   24.1431  -23.4165  -14.7699 C   0  0  0  0  0  0  0  0  0  0  0  0
   24.3082  -23.0125  -16.0747 C   0  0  0  0  0  0  0  0  0  0  0  0
   23.2955  -23.4829  -16.8335 N   0  0  0  0  0  0  0  0  0  0  0  0
   22.4929  -24.1802  -16.0193 C   0  0  0  0  0  0  0  0  0  0  0  0
   23.0052  -24.1428  -14.7600 N   0  0  0  0  0  0  0  0  0  0  0  0
   23.9063  -20.9490  -13.1551 C   0  0  0  0  0  0  0  0  0  0  0  0
   23.4826  -20.8423  -11.9860 O   0  0  0  0  0  0  0  0  0  0  0  0
   23.1669  -20.3775  -14.2150 N   0  0  0  0  0  0  0  0  0  0  0  0
   21.9603  -19.6101  -13.9215 C   0  0  1  0  0  0  0  0  0  0  0  0
   21.6770  -18.7165  -15.1076 C   0  0  0  0  0  0  0  0  0  0  0  0
   20.4803  -17.8458  -14.9577 C   0  0  0  0  0  0  0  0  0  0  0  0
   20.0918  -17.0873  -16.1559 C   0  0  0  0  0  0  0  0  0  0  0  0
   20.5529  -15.9960  -16.5113 O   0  0  0  0  0  0  0  0  0  0  0  0
   20.8490  -20.5236  -13.6260 C   0  0  0  0  0  0  0  0  0  0  0  0
   20.7267  -21.6167  -14.1955 O   0  0  0  0  0  0  0  0  0  0  0  0
   19.1087  -17.6532  -16.9697 O   0  0  0  0  0  0  0  0  0  0  0  0
   19.9042  -20.1598  -12.6831 O   0  0  0  0  0  0  0  0  0  0  0  0
  2  1  1  0
  3  2  1  0
  4  3  1  0
  4  5  1  0
  5  1  1  0
  5  6  1  6
  6  7  2  0
  8  6  1  0
  8  9  1  0
  9 10  1  1
 11 10  1  0
 12 11  2  0
 13 12  1  0
 14 13  1  0
 14 15  2  0
 15 11  1  0
 16 17  2  0
 16  9  1  0
 18 16  1  0
 19 18  1  0
 19 20  1  6
 21 20  1  0
 22 23  2  0
 22 21  1  0
 24 19  1  0
 24 27  1  0
 25 24  2  0
 26 22  1  0
M  END
$$$$
