PHE.pdb
     RDKit          3D

 27 28  0  0  1  0  0  0  0  0999 V2000
   19.2498  -11.5524  -17.6700 N   0  0  0  0  0  0  0  0  0  0  0  0
   18.6113  -12.8340  -17.9439 C   0  0  0  0  0  0  0  0  0  0  0  0
   19.1795  -13.6796  -16.8060 C   0  0  0  0  0  0  0  0  0  0  0  0
   19.3034  -12.6913  -15.6640 C   0  0  0  0  0  0  0  0  0  0  0  0
   18.9287  -11.3700  -16.2829 C   0  0  1  0  0  0  0  0  0  0  0  0
   19.6538  -10.2343  -15.6662 C   0  0  0  0  0  0  0  0  0  0  0  0
   19.5112   -9.9815  -14.4367 O   0  0  0  0  0  0  0  0  0  0  0  0
   20.4998   -9.4574  -16.5024 N   0  0  0  0  0  0  0  0  0  0  0  0
   21.3228   -8.3818  -16.0279 C   0  0  1  0  0  0  0  0  0  0  0  0
   22.7699   -8.5184  -16.3407 C   0  0  0  0  0  0  0  0  0  0  0  0
   23.3199   -9.7996  -15.8259 C   0  0  0  0  0  0  0  0  0  0  0  0
   23.7268  -10.1168  -14.5505 C   0  0  0  0  0  0  0  0  0  0  0  0
   24.1630  -11.3939  -14.5110 N   0  0  0  0  0  0  0  0  0  0  0  0
   24.0350  -11.8853  -15.7501 C   0  0  0  0  0  0  0  0  0  0  0  0
   23.5214  -10.9173  -16.5556 N   0  0  0  0  0  0  0  0  0  0  0  0
   20.7520   -7.0636  -16.4092 C   0  0  0  0  0  0  0  0  0  0  0  0
   20.4811   -6.8644  -17.6111 O   0  0  0  0  0  0  0  0  0  0  0  0
   20.5091   -6.0405  -15.4653 N   0  0  0  0  0  0  0  0  0  0  0  0
   19.7929   -4.8361  -15.8748 C   0  0  1  0  0  0  0  0  0  0  0  0
   18.3373   -5.0122  -15.5061 C   0  0  0  0  0  0  0  0  0  0  0  0
   17.4825   -3.8229  -15.7658 C   0  0  0  0  0  0  0  0  0  0  0  0
   16.0780   -3.9460  -15.3482 C   0  0  0  0  0  0  0  0  0  0  0  0
   15.2550   -3.0259  -15.2718 O   0  0  0  0  0  0  0  0  0  0  0  0
   20.3966   -3.6578  -15.2394 C   0  0  0  0  0  0  0  0  0  0  0  0
   21.2273   -3.7560  -14.3259 O   0  0  0  0  0  0  0  0  0  0  0  0
   15.6314   -5.2235  -15.0054 O   0  0  0  0  0  0  0  0  0  0  0  0
   20.0318   -2.3941  -15.6684 O   0  0  0  0  0  0  0  0  0  0  0  0
  2  1  1  0
  3  2  1  0
  4  3  1  0
  4  5  1  0
  5  1  1  0
  5  6  1  1
  6  7  2  0
  8  6  1  0
  8  9  1  0
  9 10  1  6
 11 10  1  0
 12 11  2  0
 13 12  1  0
 14 13  1  0
 14 15  2  0
 15 11  1  0
 16 17  2  0
 16  9  1  0
 18 16  1  0
 19 18  1  0
 19 20  1  1
 21 20  1  0
 22 23  2  0
 22 21  1  0
 24 19  1  0
 24 27  1  0
 25 24  2  0
 26 22  1  0
M  END
$$$$
