PHE.pdb
     RDKit          3D

 27 28  0  0  1  0  0  0  0  0999 V2000
   18.4091  -15.8807    2.1393 N   0  0  0  0  0  0  0  0  0  0  0  0
   18.5953  -14.5839    1.4998 C   0  0  0  0  0  0  0  0  0  0  0  0
   17.2169  -13.9631    1.7174 C   0  0  0  0  0  0  0  0  0  0  0  0
   16.7917  -14.5180    3.0618 C   0  0  0  0  0  0  0  0  0  0  0  0
   17.8859  -15.4902    3.4177 C   0  0  1  0  0  0  0  0  0  0  0  0
   17.3837  -16.6365    4.2114 C   0  0  0  0  0  0  0  0  0  0  0  0
   16.8822  -16.4466    5.3551 O   0  0  0  0  0  0  0  0  0  0  0  0
   17.4892  -17.9332    3.6402 N   0  0  0  0  0  0  0  0  0  0  0  0
   17.0785  -19.1357    4.3071 C   0  0  1  0  0  0  0  0  0  0  0  0
   16.2336  -20.0454    3.4891 C   0  0  0  0  0  0  0  0  0  0  0  0
   14.9027  -19.4468    3.2079 C   0  0  0  0  0  0  0  0  0  0  0  0
   14.4016  -18.2270    3.6003 C   0  0  0  0  0  0  0  0  0  0  0  0
   13.1458  -18.0724    3.1293 N   0  0  0  0  0  0  0  0  0  0  0  0
   12.8500  -19.1837    2.4432 C   0  0  0  0  0  0  0  0  0  0  0  0
   13.9178  -20.0249    2.4880 N   0  0  0  0  0  0  0  0  0  0  0  0
   18.2353  -19.8126    4.9493 C   0  0  0  0  0  0  0  0  0  0  0  0
   19.2377  -20.0586    4.2476 O   0  0  0  0  0  0  0  0  0  0  0  0
   18.2364  -20.1824    6.3131 N   0  0  0  0  0  0  0  0  0  0  0  0
   19.4403  -20.7599    6.9032 C   0  0  1  0  0  0  0  0  0  0  0  0
   20.1829  -19.6554    7.6203 C   0  0  0  0  0  0  0  0  0  0  0  0
   21.4205  -20.0919    8.3206 C   0  0  0  0  0  0  0  0  0  0  0  0
   22.1325  -19.0435    9.0662 C   0  0  0  0  0  0  0  0  0  0  0  0
   21.7955  -17.8572    9.1612 O   0  0  0  0  0  0  0  0  0  0  0  0
   19.0749  -21.8661    7.7973 C   0  0  0  0  0  0  0  0  0  0  0  0
   17.9348  -21.9834    8.2668 O   0  0  0  0  0  0  0  0  0  0  0  0
   23.3003  -19.4238    9.7302 O   0  0  0  0  0  0  0  0  0  0  0  0
   20.0281  -22.8117    8.1311 O   0  0  0  0  0  0  0  0  0  0  0  0
  2  1  1  0
  3  2  1  0
  4  3  1  0
  4  5  1  0
  5  1  1  0
  5  6  1  6
  6  7  2  0
  8  6  1  0
  8  9  1  0
  9 10  1  6
 11 10  1  0
 12 11  2  0
 13 12  1  0
 14 13  1  0
 14 15  2  0
 15 11  1  0
 16 17  2  0
 16  9  1  0
 18 16  1  0
 19 18  1  0
 19 20  1  1
 21 20  1  0
 22 23  2  0
 22 21  1  0
 24 19  1  0
 24 27  1  0
 25 24  2  0
 26 22  1  0
M  END
$$$$
