PHE.pdb
     RDKit          3D

 27 28  0  0  1  0  0  0  0  0999 V2000
   25.0542  -12.1789  -15.9683 N   0  0  0  0  0  0  0  0  0  0  0  0
   26.0358  -13.2430  -16.1397 C   0  0  0  0  0  0  0  0  0  0  0  0
   25.2412  -14.4429  -15.6284 C   0  0  0  0  0  0  0  0  0  0  0  0
   23.8205  -14.1270  -16.0502 C   0  0  0  0  0  0  0  0  0  0  0  0
   23.9127  -12.7409  -16.6328 C   0  0  1  0  0  0  0  0  0  0  0  0
   22.6741  -11.9565  -16.4170 C   0  0  0  0  0  0  0  0  0  0  0  0
   21.5578  -12.4162  -16.7888 O   0  0  0  0  0  0  0  0  0  0  0  0
   22.7952  -10.6894  -15.7858 N   0  0  0  0  0  0  0  0  0  0  0  0
   21.6757   -9.8965  -15.3644 C   0  0  1  0  0  0  0  0  0  0  0  0
   20.7808  -10.5554  -14.3766 C   0  0  0  0  0  0  0  0  0  0  0  0
   19.6591  -11.2642  -15.0458 C   0  0  0  0  0  0  0  0  0  0  0  0
   19.3617  -11.3430  -16.3868 C   0  0  0  0  0  0  0  0  0  0  0  0
   18.2518  -12.0897  -16.5689 N   0  0  0  0  0  0  0  0  0  0  0  0
   17.8460  -12.4828  -15.3548 C   0  0  0  0  0  0  0  0  0  0  0  0
   18.7006  -11.9822  -14.4227 N   0  0  0  0  0  0  0  0  0  0  0  0
   22.1080   -8.5330  -14.9611 C   0  0  0  0  0  0  0  0  0  0  0  0
   22.9775   -8.4297  -14.0716 O   0  0  0  0  0  0  0  0  0  0  0  0
   21.5723   -7.3633  -15.5456 N   0  0  0  0  0  0  0  0  0  0  0  0
   22.1430   -6.0623  -15.2098 C   0  0  1  0  0  0  0  0  0  0  0  0
   21.5497   -5.0373  -16.1494 C   0  0  0  0  0  0  0  0  0  0  0  0
   22.0131   -3.6426  -15.9201 C   0  0  0  0  0  0  0  0  0  0  0  0
   21.4738   -2.6335  -16.8436 C   0  0  0  0  0  0  0  0  0  0  0  0
   21.7871   -2.4881  -18.0313 O   0  0  0  0  0  0  0  0  0  0  0  0
   21.8796   -5.7525  -13.7987 C   0  0  0  0  0  0  0  0  0  0  0  0
   22.5900   -4.9697  -13.1532 O   0  0  0  0  0  0  0  0  0  0  0  0
   20.5168   -1.7559  -16.3306 O   0  0  0  0  0  0  0  0  0  0  0  0
   20.8059   -6.3494  -13.1622 O   0  0  0  0  0  0  0  0  0  0  0  0
  2  1  1  0
  3  2  1  0
  4  3  1  0
  4  5  1  0
  5  1  1  0
  5  6  1  1
  6  7  2  0
  8  6  1  0
  8  9  1  0
  9 10  1  1
 11 10  1  0
 12 11  2  0
 13 12  1  0
 14 13  1  0
 14 15  2  0
 15 11  1  0
 16 17  2  0
 16  9  1  0
 18 16  1  0
 19 18  1  0
 19 20  1  6
 21 20  1  0
 22 23  2  0
 22 21  1  0
 24 19  1  0
 24 27  1  0
 25 24  2  0
 26 22  1  0
M  END
$$$$
