PHE.pdb
     RDKit          3D

 27 28  0  0  1  0  0  0  0  0999 V2000
   26.4643  -20.6173   -7.1481 N   0  0  0  0  0  0  0  0  0  0  0  0
   27.0467  -20.3114   -5.8472 C   0  0  0  0  0  0  0  0  0  0  0  0
   28.3778  -19.6957   -6.2734 C   0  0  0  0  0  0  0  0  0  0  0  0
   28.0343  -18.9783   -7.5632 C   0  0  0  0  0  0  0  0  0  0  0  0
   26.5986  -19.3555   -7.8192 C   0  0  1  0  0  0  0  0  0  0  0  0
   26.2869  -19.4341   -9.2658 C   0  0  0  0  0  0  0  0  0  0  0  0
   26.5461  -18.4589  -10.0257 O   0  0  0  0  0  0  0  0  0  0  0  0
   25.6954  -20.6314   -9.7508 N   0  0  0  0  0  0  0  0  0  0  0  0
   25.5639  -20.9501  -11.1439 C   0  0  1  0  0  0  0  0  0  0  0  0
   26.2850  -22.1771  -11.5740 C   0  0  0  0  0  0  0  0  0  0  0  0
   26.2018  -22.3703  -13.0453 C   0  0  0  0  0  0  0  0  0  0  0  0
   25.6709  -23.4249  -13.7514 C   0  0  0  0  0  0  0  0  0  0  0  0
   25.7984  -23.2019  -15.0769 N   0  0  0  0  0  0  0  0  0  0  0  0
   26.4050  -22.0159  -15.2133 C   0  0  0  0  0  0  0  0  0  0  0  0
   26.6532  -21.5047  -13.9777 N   0  0  0  0  0  0  0  0  0  0  0  0
   24.1400  -20.9155  -11.5681 C   0  0  0  0  0  0  0  0  0  0  0  0
   23.2846  -21.4018  -10.8003 O   0  0  0  0  0  0  0  0  0  0  0  0
   23.7284  -20.3561  -12.7987 N   0  0  0  0  0  0  0  0  0  0  0  0
   22.3043  -20.2190  -13.0887 C   0  0  1  0  0  0  0  0  0  0  0  0
   22.1581  -19.2961  -14.2772 C   0  0  0  0  0  0  0  0  0  0  0  0
   20.7529  -19.0124  -14.6743 C   0  0  0  0  0  0  0  0  0  0  0  0
   20.4906  -17.6467  -15.1518 C   0  0  0  0  0  0  0  0  0  0  0  0
   21.3409  -16.8168  -15.4957 O   0  0  0  0  0  0  0  0  0  0  0  0
   21.7153  -21.5429  -13.3275 C   0  0  0  0  0  0  0  0  0  0  0  0
   22.3231  -22.4331  -13.9375 O   0  0  0  0  0  0  0  0  0  0  0  0
   19.1542  -17.2492  -15.2238 O   0  0  0  0  0  0  0  0  0  0  0  0
   20.4416  -21.8131  -12.8597 O   0  0  0  0  0  0  0  0  0  0  0  0
  2  1  1  0
  3  2  1  0
  4  3  1  0
  4  5  1  0
  5  1  1  0
  5  6  1  6
  6  7  2  0
  8  6  1  0
  8  9  1  0
  9 10  1  1
 11 10  1  0
 12 11  2  0
 13 12  1  0
 14 13  1  0
 14 15  2  0
 15 11  1  0
 16 17  2  0
 16  9  1  0
 18 16  1  0
 19 18  1  0
 19 20  1  6
 21 20  1  0
 22 23  2  0
 22 21  1  0
 24 19  1  0
 24 27  1  0
 25 24  2  0
 26 22  1  0
M  END
$$$$
