PHE.pdb
     RDKit          3D

 27 28  0  0  1  0  0  0  0  0999 V2000
   29.0171  -21.5501  -11.5175 N   0  0  0  0  0  0  0  0  0  0  0  0
   30.0448  -21.7925  -10.5124 C   0  0  0  0  0  0  0  0  0  0  0  0
   29.8464  -20.5768   -9.6093 C   0  0  0  0  0  0  0  0  0  0  0  0
   28.3520  -20.3342   -9.6729 C   0  0  0  0  0  0  0  0  0  0  0  0
   27.8637  -21.3304  -10.6919 C   0  0  1  0  0  0  0  0  0  0  0  0
   26.6949  -20.8296  -11.4529 C   0  0  0  0  0  0  0  0  0  0  0  0
   25.6630  -20.4308  -10.8433 O   0  0  0  0  0  0  0  0  0  0  0  0
   26.7846  -20.8182  -12.8708 N   0  0  0  0  0  0  0  0  0  0  0  0
   25.9148  -20.0556  -13.7202 C   0  0  1  0  0  0  0  0  0  0  0  0
   26.5386  -19.5739  -14.9809 C   0  0  0  0  0  0  0  0  0  0  0  0
   25.6059  -18.7155  -15.7568 C   0  0  0  0  0  0  0  0  0  0  0  0
   24.8710  -19.0277  -16.8772 C   0  0  0  0  0  0  0  0  0  0  0  0
   24.1491  -17.9556  -17.2674 N   0  0  0  0  0  0  0  0  0  0  0  0
   24.4220  -16.9697  -16.4033 C   0  0  0  0  0  0  0  0  0  0  0  0
   25.3097  -17.4278  -15.4803 N   0  0  0  0  0  0  0  0  0  0  0  0
   24.6196  -20.7551  -13.9249 C   0  0  0  0  0  0  0  0  0  0  0  0
   24.6354  -21.9952  -14.0646 O   0  0  0  0  0  0  0  0  0  0  0  0
   23.3850  -20.0688  -13.9660 N   0  0  0  0  0  0  0  0  0  0  0  0
   22.1378  -20.8273  -13.9755 C   0  0  1  0  0  0  0  0  0  0  0  0
   21.0578  -19.9545  -13.3776 C   0  0  0  0  0  0  0  0  0  0  0  0
   19.7174  -20.5941  -13.2943 C   0  0  0  0  0  0  0  0  0  0  0  0
   18.6478  -19.7577  -12.7300 C   0  0  0  0  0  0  0  0  0  0  0  0
   18.5763  -19.3512  -11.5640 O   0  0  0  0  0  0  0  0  0  0  0  0
   21.8243  -21.2526  -15.3457 C   0  0  0  0  0  0  0  0  0  0  0  0
   21.2219  -22.3079  -15.5854 O   0  0  0  0  0  0  0  0  0  0  0  0
   17.6147  -19.3873  -13.5929 O   0  0  0  0  0  0  0  0  0  0  0  0
   22.2103  -20.4554  -16.4085 O   0  0  0  0  0  0  0  0  0  0  0  0
  2  1  1  0
  3  2  1  0
  4  3  1  0
  4  5  1  0
  5  1  1  0
  5  6  1  6
  6  7  2  0
  8  6  1  0
  8  9  1  0
  9 10  1  6
 11 10  1  0
 12 11  2  0
 13 12  1  0
 14 13  1  0
 14 15  2  0
 15 11  1  0
 16 17  2  0
 16  9  1  0
 18 16  1  0
 19 18  1  0
 19 20  1  6
 21 20  1  0
 22 23  2  0
 22 21  1  0
 24 19  1  0
 24 27  1  0
 25 24  2  0
 26 22  1  0
M  END
$$$$
