PHE.pdb
     RDKit          3D

 27 28  0  0  1  0  0  0  0  0999 V2000
   17.3614  -13.6247  -16.3911 N   0  0  0  0  0  0  0  0  0  0  0  0
   16.9390  -14.9945  -16.1261 C   0  0  0  0  0  0  0  0  0  0  0  0
   18.1188  -15.7698  -16.7090 C   0  0  0  0  0  0  0  0  0  0  0  0
   19.3038  -14.8694  -16.4242 C   0  0  0  0  0  0  0  0  0  0  0  0
   18.6856  -13.6275  -15.8372 C   0  0  1  0  0  0  0  0  0  0  0  0
   19.4542  -12.4051  -16.1704 C   0  0  0  0  0  0  0  0  0  0  0  0
   20.6581  -12.2920  -15.8049 O   0  0  0  0  0  0  0  0  0  0  0  0
   18.7903  -11.3860  -16.9047 N   0  0  0  0  0  0  0  0  0  0  0  0
   19.4269  -10.1806  -17.3532 C   0  0  1  0  0  0  0  0  0  0  0  0
   19.1376   -9.8097  -18.7637 C   0  0  0  0  0  0  0  0  0  0  0  0
   19.9194  -10.6401  -19.7166 C   0  0  0  0  0  0  0  0  0  0  0  0
   21.2832  -10.7179  -19.8803 C   0  0  0  0  0  0  0  0  0  0  0  0
   21.5795  -11.5986  -20.8598 N   0  0  0  0  0  0  0  0  0  0  0  0
   20.4149  -12.0772  -21.3156 C   0  0  0  0  0  0  0  0  0  0  0  0
   19.3996  -11.4960  -20.6219 N   0  0  0  0  0  0  0  0  0  0  0  0
   19.2108   -9.0711  -16.3883 C   0  0  0  0  0  0  0  0  0  0  0  0
   18.1100   -9.0045  -15.8041 O   0  0  0  0  0  0  0  0  0  0  0  0
   20.2005   -8.1004  -16.1145 N   0  0  0  0  0  0  0  0  0  0  0  0
   19.9212   -7.0357  -15.1556 C   0  0  1  0  0  0  0  0  0  0  0  0
   21.2076   -6.2798  -14.9117 C   0  0  0  0  0  0  0  0  0  0  0  0
   21.0764   -5.1059  -14.0075 C   0  0  0  0  0  0  0  0  0  0  0  0
   22.3178   -4.3623  -13.7469 C   0  0  0  0  0  0  0  0  0  0  0  0
   23.4639   -4.7314  -14.0300 O   0  0  0  0  0  0  0  0  0  0  0  0
   18.8491   -6.1729  -15.6682 C   0  0  0  0  0  0  0  0  0  0  0  0
   18.8037   -5.8130  -16.8524 O   0  0  0  0  0  0  0  0  0  0  0  0
   22.1904   -3.1214  -13.1200 O   0  0  0  0  0  0  0  0  0  0  0  0
   17.8540   -5.7437  -14.8080 O   0  0  0  0  0  0  0  0  0  0  0  0
  2  1  1  0
  3  2  1  0
  4  3  1  0
  4  5  1  0
  5  1  1  0
  5  6  1  6
  6  7  2  0
  8  6  1  0
  8  9  1  0
  9 10  1  6
 11 10  1  0
 12 11  2  0
 13 12  1  0
 14 13  1  0
 14 15  2  0
 15 11  1  0
 16 17  2  0
 16  9  1  0
 18 16  1  0
 19 18  1  0
 19 20  1  6
 21 20  1  0
 22 23  2  0
 22 21  1  0
 24 19  1  0
 24 27  1  0
 25 24  2  0
 26 22  1  0
M  END
$$$$
