PHE.pdb
     RDKit          3D

 27 28  0  0  1  0  0  0  0  0999 V2000
   22.9055  -10.0997  -20.3153 N   0  0  0  0  0  0  0  0  0  0  0  0
   22.5227  -10.9314  -21.4497 C   0  0  0  0  0  0  0  0  0  0  0  0
   22.0967  -12.2093  -20.7298 C   0  0  0  0  0  0  0  0  0  0  0  0
   21.4909  -11.6977  -19.4384 C   0  0  0  0  0  0  0  0  0  0  0  0
   21.7438  -10.2133  -19.4798 C   0  0  1  0  0  0  0  0  0  0  0  0
   21.9453   -9.6391  -18.1286 C   0  0  0  0  0  0  0  0  0  0  0  0
   21.0080   -9.6621  -17.2820 O   0  0  0  0  0  0  0  0  0  0  0  0
   23.2143   -9.0728  -17.8331 N   0  0  0  0  0  0  0  0  0  0  0  0
   23.5798   -8.5603  -16.5434 C   0  0  1  0  0  0  0  0  0  0  0  0
   24.9939   -8.8027  -16.1534 C   0  0  0  0  0  0  0  0  0  0  0  0
   25.2961  -10.2557  -16.0756 C   0  0  0  0  0  0  0  0  0  0  0  0
   24.4837  -11.3261  -16.3709 C   0  0  0  0  0  0  0  0  0  0  0  0
   25.1511  -12.4812  -16.1638 N   0  0  0  0  0  0  0  0  0  0  0  0
   26.3774  -12.1494  -15.7403 C   0  0  0  0  0  0  0  0  0  0  0  0
   26.4710  -10.7937  -15.6848 N   0  0  0  0  0  0  0  0  0  0  0  0
   23.1529   -7.1450  -16.3900 C   0  0  0  0  0  0  0  0  0  0  0  0
   23.4710   -6.3336  -17.2834 O   0  0  0  0  0  0  0  0  0  0  0  0
   22.4070   -6.6939  -15.2779 N   0  0  0  0  0  0  0  0  0  0  0  0
   21.9370   -5.3125  -15.2366 C   0  0  1  0  0  0  0  0  0  0  0  0
   20.4428   -5.3222  -15.4668 C   0  0  0  0  0  0  0  0  0  0  0  0
   19.8008   -3.9807  -15.4365 C   0  0  0  0  0  0  0  0  0  0  0  0
   18.3422   -3.9696  -15.6218 C   0  0  0  0  0  0  0  0  0  0  0  0
   17.4914   -3.9720  -14.7240 O   0  0  0  0  0  0  0  0  0  0  0  0
   22.3056   -4.6995  -13.9540 C   0  0  0  0  0  0  0  0  0  0  0  0
   22.5652   -5.3780  -12.9510 O   0  0  0  0  0  0  0  0  0  0  0  0
   17.8733   -3.9548  -16.9367 O   0  0  0  0  0  0  0  0  0  0  0  0
   22.3673   -3.3209  -13.8540 O   0  0  0  0  0  0  0  0  0  0  0  0
  2  1  1  0
  3  2  1  0
  4  3  1  0
  4  5  1  0
  5  1  1  0
  5  6  1  1
  6  7  2  0
  8  6  1  0
  8  9  1  0
  9 10  1  6
 11 10  1  0
 12 11  2  0
 13 12  1  0
 14 13  1  0
 14 15  2  0
 15 11  1  0
 16 17  2  0
 16  9  1  0
 18 16  1  0
 19 18  1  0
 19 20  1  1
 21 20  1  0
 22 23  2  0
 22 21  1  0
 24 19  1  0
 24 27  1  0
 25 24  2  0
 26 22  1  0
M  END
$$$$
