PHE.pdb
     RDKit          3D

 27 28  0  0  1  0  0  0  0  0999 V2000
   22.2577  -13.0769  -17.6543 N   0  0  0  0  0  0  0  0  0  0  0  0
   22.7060  -14.1656  -18.5140 C   0  0  0  0  0  0  0  0  0  0  0  0
   21.3891  -14.5567  -19.1814 C   0  0  0  0  0  0  0  0  0  0  0  0
   20.6549  -13.2370  -19.3062 C   0  0  0  0  0  0  0  0  0  0  0  0
   21.5456  -12.2550  -18.5911 C   0  0  1  0  0  0  0  0  0  0  0  0
   20.7763  -11.1690  -17.9392 C   0  0  0  0  0  0  0  0  0  0  0  0
   20.0724  -10.3833  -18.6341 O   0  0  0  0  0  0  0  0  0  0  0  0
   20.8638  -11.0529  -16.5259 N   0  0  0  0  0  0  0  0  0  0  0  0
   20.1312  -10.0879  -15.7567 C   0  0  1  0  0  0  0  0  0  0  0  0
   19.3432  -10.6555  -14.6309 C   0  0  0  0  0  0  0  0  0  0  0  0
   18.0750  -11.2665  -15.1073 C   0  0  0  0  0  0  0  0  0  0  0  0
   17.5564  -11.3031  -16.3811 C   0  0  0  0  0  0  0  0  0  0  0  0
   16.3767  -11.9596  -16.3790 N   0  0  0  0  0  0  0  0  0  0  0  0
   16.1462  -12.3377  -15.1152 C   0  0  0  0  0  0  0  0  0  0  0  0
   17.1786  -11.9176  -14.3358 N   0  0  0  0  0  0  0  0  0  0  0  0
   20.9997   -8.9483  -15.3621 C   0  0  0  0  0  0  0  0  0  0  0  0
   22.1579   -9.1985  -14.9701 O   0  0  0  0  0  0  0  0  0  0  0  0
   20.5611   -7.6062  -15.4158 N   0  0  0  0  0  0  0  0  0  0  0  0
   21.4905   -6.5295  -15.0872 C   0  0  1  0  0  0  0  0  0  0  0  0
   21.0281   -5.2808  -15.8031 C   0  0  0  0  0  0  0  0  0  0  0  0
   21.8964   -4.0903  -15.5993 C   0  0  0  0  0  0  0  0  0  0  0  0
   21.4182   -2.8422  -16.2122 C   0  0  0  0  0  0  0  0  0  0  0  0
   21.3468   -1.7376  -15.6603 O   0  0  0  0  0  0  0  0  0  0  0  0
   21.5533   -6.3535  -13.6306 C   0  0  0  0  0  0  0  0  0  0  0  0
   22.5579   -5.9003  -13.0653 O   0  0  0  0  0  0  0  0  0  0  0  0
   21.0057   -2.9110  -17.5442 O   0  0  0  0  0  0  0  0  0  0  0  0
   20.4603   -6.7022  -12.8574 O   0  0  0  0  0  0  0  0  0  0  0  0
  2  1  1  0
  3  2  1  0
  4  3  1  0
  4  5  1  0
  5  1  1  0
  5  6  1  1
  6  7  2  0
  8  6  1  0
  8  9  1  0
  9 10  1  1
 11 10  1  0
 12 11  2  0
 13 12  1  0
 14 13  1  0
 14 15  2  0
 15 11  1  0
 16 17  2  0
 16  9  1  0
 18 16  1  0
 19 18  1  0
 19 20  1  6
 21 20  1  0
 22 23  2  0
 22 21  1  0
 24 19  1  0
 24 27  1  0
 25 24  2  0
 26 22  1  0
M  END
$$$$
