PTD.pdb
     RDKit          3D

 23 23  0  0  1  0  0  0  0  0999 V2000
    8.1621  -15.4238   18.1028 N   0  0  0  0  0  0  0  0  0  0  0  0
    7.0769  -14.8509   17.3681 C   0  0  0  0  0  0  0  0  0  0  0  0
    7.7439  -13.6686   16.6597 C   0  0  0  0  0  0  0  0  0  0  0  0
    8.5394  -13.1014   17.8360 C   0  0  0  0  0  0  0  0  0  0  0  0
    9.1511  -14.4034   18.3612 C   0  0  1  0  0  0  0  0  0  0  0  0
    9.4776  -14.3220   19.7922 C   0  0  0  0  0  0  0  0  0  0  0  0
   10.3944  -13.5159   20.1552 O   0  0  0  0  0  0  0  0  0  0  0  0
    7.2817  -13.4517   22.6634 C   0  0  0  0  0  0  0  0  0  0  0  0
    7.9139  -14.7853   22.9947 C   0  0  1  0  0  0  0  0  0  0  0  0
    6.9933  -15.8070   22.7874 O   0  0  0  0  0  0  0  0  0  0  0  0
    9.1557  -14.9887   22.1411 C   0  0  2  0  0  0  0  0  0  0  0  0
    8.7890  -15.1223   20.7490 N   0  0  0  0  0  0  0  0  0  0  0  0
    9.8844  -16.2084   22.6228 C   0  0  0  0  0  0  0  0  0  0  0  0
    9.7658  -17.2828   21.9979 O   0  0  0  0  0  0  0  0  0  0  0  0
   10.6999  -16.1569   23.7690 N   0  0  0  0  0  0  0  0  0  0  0  0
   11.3429  -17.3529   24.3350 C   0  0  1  0  0  0  0  0  0  0  0  0
   12.8100  -17.0847   24.5250 C   0  0  0  0  0  0  0  0  0  0  0  0
   13.5363  -16.9251   23.2704 C   0  0  0  0  0  0  0  0  0  0  0  0
   13.4567  -17.7265   22.3003 O   0  0  0  0  0  0  0  0  0  0  0  0
   10.6661  -17.6321   25.6268 C   0  0  0  0  0  0  0  0  0  0  0  0
   11.0375  -18.8039   26.3240 O   0  0  0  0  0  0  0  0  0  0  0  0
   14.3886  -15.8087   23.1099 O   0  0  0  0  0  0  0  0  0  0  0  0
    9.7939  -16.8781   26.1098 O   0  0  0  0  0  0  0  0  0  0  0  0
  2  1  1  0
  3  2  1  0
  4  3  1  0
  4  5  1  0
  5  1  1  0
  5  6  1  1
  7  6  2  0
  9  8  1  6
  9 11  1  0
 10  9  1  0
 11 12  1  6
 11 13  1  0
 12  6  1  0
 13 15  1  0
 13 14  2  0
 15 16  1  0
 16 17  1  1
 17 18  1  0
 18 22  1  0
 18 19  2  0
 20 16  1  0
 20 21  1  0
 23 20  2  0
M  END
$$$$
