PTD.pdb
     RDKit          3D

 23 23  0  0  1  0  0  0  0  0999 V2000
    7.8473  -13.8530   16.7962 N   0  0  0  0  0  0  0  0  0  0  0  0
    8.5242  -13.9295   15.5385 C   0  0  0  0  0  0  0  0  0  0  0  0
    8.7649  -15.4336   15.3827 C   0  0  0  0  0  0  0  0  0  0  0  0
    9.2745  -15.7424   16.7910 C   0  0  0  0  0  0  0  0  0  0  0  0
    8.2089  -14.9973   17.5999 C   0  0  1  0  0  0  0  0  0  0  0  0
    8.7044  -14.5898   18.9224 C   0  0  0  0  0  0  0  0  0  0  0  0
    9.3934  -13.5217   19.0038 O   0  0  0  0  0  0  0  0  0  0  0  0
    6.9709  -13.4768   21.8675 C   0  0  0  0  0  0  0  0  0  0  0  0
    7.7866  -14.6657   22.3250 C   0  0  1  0  0  0  0  0  0  0  0  0
    6.9708  -15.7883   22.4181 O   0  0  0  0  0  0  0  0  0  0  0  0
    8.9327  -14.9035   21.3545 C   0  0  2  0  0  0  0  0  0  0  0  0
    8.4234  -15.3668   20.0832 N   0  0  0  0  0  0  0  0  0  0  0  0
    9.8770  -15.9054   21.9507 C   0  0  0  0  0  0  0  0  0  0  0  0
    9.8083  -17.1012   21.5982 O   0  0  0  0  0  0  0  0  0  0  0  0
   10.8390  -15.5146   22.9011 N   0  0  0  0  0  0  0  0  0  0  0  0
   11.7762  -16.4686   23.5142 C   0  0  1  0  0  0  0  0  0  0  0  0
   13.0147  -15.7367   23.9508 C   0  0  0  0  0  0  0  0  0  0  0  0
   14.2431  -16.4875   23.7172 C   0  0  0  0  0  0  0  0  0  0  0  0
   14.8511  -17.1430   24.6062 O   0  0  0  0  0  0  0  0  0  0  0  0
   11.0691  -17.0829   24.6664 C   0  0  0  0  0  0  0  0  0  0  0  0
   11.5095  -18.3510   25.1080 O   0  0  0  0  0  0  0  0  0  0  0  0
   14.8049  -16.4949   22.4200 O   0  0  0  0  0  0  0  0  0  0  0  0
   10.1139  -16.5252   25.2487 O   0  0  0  0  0  0  0  0  0  0  0  0
  2  1  1  0
  3  2  1  0
  4  3  1  0
  4  5  1  0
  5  1  1  0
  5  6  1  1
  7  6  2  0
  9  8  1  6
  9 11  1  0
 10  9  1  0
 11 12  1  6
 11 13  1  0
 12  6  1  0
 13 15  1  0
 13 14  2  0
 15 16  1  0
 16 17  1  1
 17 18  1  0
 18 22  1  0
 18 19  2  0
 20 16  1  0
 20 21  1  0
 23 20  2  0
M  END
$$$$
