PTD.pdb
     RDKit          3D

 23 23  0  0  1  0  0  0  0  0999 V2000
    8.4681  -15.1975   13.8507 N   0  0  0  0  0  0  0  0  0  0  0  0
    8.7974  -16.2615   12.9533 C   0  0  0  0  0  0  0  0  0  0  0  0
    8.0988  -17.4638   13.5945 C   0  0  0  0  0  0  0  0  0  0  0  0
    8.5207  -17.2403   15.0471 C   0  0  0  0  0  0  0  0  0  0  0  0
    8.2052  -15.7461   15.1607 C   0  0  1  0  0  0  0  0  0  0  0  0
    9.0190  -15.0869   16.1922 C   0  0  0  0  0  0  0  0  0  0  0  0
   10.1789  -14.6718   15.8692 O   0  0  0  0  0  0  0  0  0  0  0  0
    7.3781  -12.6579   18.8839 C   0  0  0  0  0  0  0  0  0  0  0  0
    8.4272  -13.5403   19.5232 C   0  0  1  0  0  0  0  0  0  0  0  0
    7.8110  -14.5373   20.2720 O   0  0  0  0  0  0  0  0  0  0  0  0
    9.3175  -14.1391   18.4458 C   0  0  2  0  0  0  0  0  0  0  0  0
    8.5261  -14.9160   17.5181 N   0  0  0  0  0  0  0  0  0  0  0  0
   10.3676  -14.9896   19.0975 C   0  0  0  0  0  0  0  0  0  0  0  0
   10.2827  -16.2333   19.0274 O   0  0  0  0  0  0  0  0  0  0  0  0
   11.4466  -14.4037   19.7858 N   0  0  0  0  0  0  0  0  0  0  0  0
   12.5097  -15.2032   20.4145 C   0  0  1  0  0  0  0  0  0  0  0  0
   13.7765  -14.3949   20.4618 C   0  0  0  0  0  0  0  0  0  0  0  0
   14.9077  -15.1244   21.0232 C   0  0  0  0  0  0  0  0  0  0  0  0
   14.9240  -15.6213   22.1819 O   0  0  0  0  0  0  0  0  0  0  0  0
   12.0332  -15.5536   21.7764 C   0  0  0  0  0  0  0  0  0  0  0  0
   12.5877  -16.6980   22.3929 O   0  0  0  0  0  0  0  0  0  0  0  0
   16.0694  -15.2975   20.2363 O   0  0  0  0  0  0  0  0  0  0  0  0
   11.1729  -14.8816   22.3854 O   0  0  0  0  0  0  0  0  0  0  0  0
  2  1  1  0
  3  2  1  0
  4  3  1  0
  4  5  1  0
  5  1  1  0
  5  6  1  1
  7  6  2  0
  9  8  1  6
  9 11  1  0
 10  9  1  0
 11 12  1  6
 11 13  1  0
 12  6  1  0
 13 15  1  0
 13 14  2  0
 15 16  1  0
 16 17  1  1
 17 18  1  0
 18 22  1  0
 18 19  2  0
 20 16  1  0
 20 21  1  0
 23 20  2  0
M  END
$$$$
