PTD.pdb
     RDKit          3D

 23 23  0  0  1  0  0  0  0  0999 V2000
    8.0834  -15.4345   18.3106 N   0  0  0  0  0  0  0  0  0  0  0  0
    6.9843  -14.8427   17.6123 C   0  0  0  0  0  0  0  0  0  0  0  0
    7.6568  -13.7047   16.8395 C   0  0  0  0  0  0  0  0  0  0  0  0
    8.5276  -13.1352   17.9600 C   0  0  0  0  0  0  0  0  0  0  0  0
    9.1186  -14.4437   18.4924 C   0  0  1  0  0  0  0  0  0  0  0  0
    9.5168  -14.3358   19.9033 C   0  0  0  0  0  0  0  0  0  0  0  0
   10.5359  -13.6271   20.1884 O   0  0  0  0  0  0  0  0  0  0  0  0
    7.3435  -13.4208   22.9317 C   0  0  0  0  0  0  0  0  0  0  0  0
    8.0617  -14.7177   23.2321 C   0  0  1  0  0  0  0  0  0  0  0  0
    7.1781  -15.7847   23.1076 O   0  0  0  0  0  0  0  0  0  0  0  0
    9.2450  -14.8770   22.2906 C   0  0  2  0  0  0  0  0  0  0  0  0
    8.7845  -15.0051   20.9261 N   0  0  0  0  0  0  0  0  0  0  0  0
   10.0385  -16.0813   22.7037 C   0  0  0  0  0  0  0  0  0  0  0  0
    9.7949  -17.1881   22.1795 O   0  0  0  0  0  0  0  0  0  0  0  0
   11.0537  -15.9794   23.6735 N   0  0  0  0  0  0  0  0  0  0  0  0
   11.8549  -17.1364   24.1024 C   0  0  1  0  0  0  0  0  0  0  0  0
   13.2328  -16.6716   24.4844 C   0  0  0  0  0  0  0  0  0  0  0  0
   14.1016  -16.4328   23.3376 C   0  0  0  0  0  0  0  0  0  0  0  0
   13.8295  -16.7867   22.1584 O   0  0  0  0  0  0  0  0  0  0  0  0
   11.1441  -17.7458   25.2548 C   0  0  0  0  0  0  0  0  0  0  0  0
   10.1956  -16.9510   25.9373 O   0  0  0  0  0  0  0  0  0  0  0  0
   15.3310  -15.7641   23.5374 O   0  0  0  0  0  0  0  0  0  0  0  0
   11.3529  -18.9182   25.6347 O   0  0  0  0  0  0  0  0  0  0  0  0
  2  1  1  0
  3  2  1  0
  4  3  1  0
  4  5  1  0
  5  1  1  0
  5  6  1  1
  7  6  2  0
  9  8  1  6
  9 11  1  0
 10  9  1  0
 11 12  1  6
 11 13  1  0
 12  6  1  0
 13 15  1  0
 13 14  2  0
 15 16  1  0
 16 17  1  1
 17 18  1  0
 18 22  1  0
 18 19  2  0
 20 16  1  0
 20 21  1  0
 23 20  2  0
M  END
$$$$
