PTD.pdb
     RDKit          3D

 23 23  0  0  1  0  0  0  0  0999 V2000
    9.3951  -16.0060   16.1581 N   0  0  0  0  0  0  0  0  0  0  0  0
    8.1269  -16.4432   15.6618 C   0  0  0  0  0  0  0  0  0  0  0  0
    7.5425  -15.1583   15.0685 C   0  0  0  0  0  0  0  0  0  0  0  0
    7.8695  -14.1958   16.2108 C   0  0  0  0  0  0  0  0  0  0  0  0
    9.3296  -14.5924   16.4473 C   0  0  1  0  0  0  0  0  0  0  0  0
    9.7641  -14.3047   17.8218 C   0  0  0  0  0  0  0  0  0  0  0  0
   10.9457  -13.8637   17.9994 O   0  0  0  0  0  0  0  0  0  0  0  0
    7.5763  -12.4880   20.6369 C   0  0  0  0  0  0  0  0  0  0  0  0
    8.1939  -13.7743   21.1391 C   0  0  1  0  0  0  0  0  0  0  0  0
    7.2321  -14.7787   21.1667 O   0  0  0  0  0  0  0  0  0  0  0  0
    9.3627  -14.1627   20.2475 C   0  0  2  0  0  0  0  0  0  0  0  0
    8.8894  -14.5128   18.9270 N   0  0  0  0  0  0  0  0  0  0  0  0
   10.0953  -15.3111   20.8762 C   0  0  0  0  0  0  0  0  0  0  0  0
    9.8391  -16.4776   20.5120 O   0  0  0  0  0  0  0  0  0  0  0  0
   11.0673  -15.0904   21.8701 N   0  0  0  0  0  0  0  0  0  0  0  0
   11.7003  -16.1908   22.6137 C   0  0  1  0  0  0  0  0  0  0  0  0
   13.0478  -15.7445   23.1091 C   0  0  0  0  0  0  0  0  0  0  0  0
   14.0454  -15.6329   22.0511 C   0  0  0  0  0  0  0  0  0  0  0  0
   13.8755  -16.0468   20.8723 O   0  0  0  0  0  0  0  0  0  0  0  0
   10.7891  -16.5286   23.7363 C   0  0  0  0  0  0  0  0  0  0  0  0
   11.0361  -17.7252   24.4465 O   0  0  0  0  0  0  0  0  0  0  0  0
   15.2882  -15.0256   22.3432 O   0  0  0  0  0  0  0  0  0  0  0  0
    9.8275  -15.8023   24.0686 O   0  0  0  0  0  0  0  0  0  0  0  0
  2  1  1  0
  3  2  1  0
  4  3  1  0
  4  5  1  0
  5  1  1  0
  5  6  1  1
  7  6  2  0
  9  8  1  6
  9 11  1  0
 10  9  1  0
 11 12  1  6
 11 13  1  0
 12  6  1  0
 13 15  1  0
 13 14  2  0
 15 16  1  0
 16 17  1  1
 17 18  1  0
 18 22  1  0
 18 19  2  0
 20 16  1  0
 20 21  1  0
 23 20  2  0
M  END
$$$$
