PTD.pdb
     RDKit          3D

 23 23  0  0  1  0  0  0  0  0999 V2000
    9.4281  -13.9302   18.8196 N   0  0  0  0  0  0  0  0  0  0  0  0
    8.5939  -13.7708   17.6687 C   0  0  0  0  0  0  0  0  0  0  0  0
    7.6869  -12.6063   18.0756 C   0  0  0  0  0  0  0  0  0  0  0  0
    7.3291  -13.0634   19.4903 C   0  0  0  0  0  0  0  0  0  0  0  0
    8.7305  -13.4349   19.9833 C   0  0  1  0  0  0  0  0  0  0  0  0
    8.6902  -14.4413   21.0540 C   0  0  0  0  0  0  0  0  0  0  0  0
    7.9378  -14.2219   22.0579 O   0  0  0  0  0  0  0  0  0  0  0  0
    7.3491  -17.6511   21.2493 C   0  0  0  0  0  0  0  0  0  0  0  0
    8.7957  -17.8743   21.6309 C   0  0  1  0  0  0  0  0  0  0  0  0
    9.4899  -18.4098   20.5512 O   0  0  0  0  0  0  0  0  0  0  0  0
    9.4148  -16.5600   22.0795 C   0  0  2  0  0  0  0  0  0  0  0  0
    9.4709  -15.6305   20.9736 N   0  0  0  0  0  0  0  0  0  0  0  0
   10.7866  -16.8278   22.6246 C   0  0  0  0  0  0  0  0  0  0  0  0
   11.7887  -16.4626   21.9754 O   0  0  0  0  0  0  0  0  0  0  0  0
   10.9583  -17.4846   23.8577 N   0  0  0  0  0  0  0  0  0  0  0  0
   12.2853  -17.8342   24.3881 C   0  0  1  0  0  0  0  0  0  0  0  0
   12.1552  -18.2207   25.8352 C   0  0  0  0  0  0  0  0  0  0  0  0
   13.3931  -18.7347   26.4103 C   0  0  0  0  0  0  0  0  0  0  0  0
   14.4279  -18.0394   26.5979 O   0  0  0  0  0  0  0  0  0  0  0  0
   12.7922  -18.9608   23.5644 C   0  0  0  0  0  0  0  0  0  0  0  0
   14.1737  -18.9889   23.2678 O   0  0  0  0  0  0  0  0  0  0  0  0
   13.4590  -20.0953   26.7885 O   0  0  0  0  0  0  0  0  0  0  0  0
   12.0507  -19.8695   23.1322 O   0  0  0  0  0  0  0  0  0  0  0  0
  2  1  1  0
  3  2  1  0
  4  3  1  0
  4  5  1  0
  5  1  1  0
  5  6  1  1
  7  6  2  0
  9  8  1  6
  9 11  1  0
 10  9  1  0
 11 12  1  6
 11 13  1  0
 12  6  1  0
 13 15  1  0
 13 14  2  0
 15 16  1  0
 16 17  1  1
 17 18  1  0
 18 22  1  0
 18 19  2  0
 20 16  1  0
 20 21  1  0
 23 20  2  0
M  END
$$$$
