PTD.pdb
     RDKit          3D

 23 23  0  0  1  0  0  0  0  0999 V2000
    8.3646  -13.8186   17.9283 N   0  0  0  0  0  0  0  0  0  0  0  0
    7.1380  -13.4432   18.5611 C   0  0  0  0  0  0  0  0  0  0  0  0
    7.5617  -12.2518   19.4246 C   0  0  0  0  0  0  0  0  0  0  0  0
    8.8386  -12.8359   20.0299 C   0  0  0  0  0  0  0  0  0  0  0  0
    9.4724  -13.3987   18.7545 C   0  0  1  0  0  0  0  0  0  0  0  0
   10.3847  -14.5159   19.0380 C   0  0  0  0  0  0  0  0  0  0  0  0
    9.9008  -15.6935   19.0742 O   0  0  0  0  0  0  0  0  0  0  0  0
   13.1719  -15.7547   17.1488 C   0  0  0  0  0  0  0  0  0  0  0  0
   13.7433  -15.5130   18.5283 C   0  0  1  0  0  0  0  0  0  0  0  0
   14.4962  -14.3435   18.5276 O   0  0  0  0  0  0  0  0  0  0  0  0
   12.6137  -15.4336   19.5431 C   0  0  2  0  0  0  0  0  0  0  0  0
   11.7728  -14.2904   19.2668 N   0  0  0  0  0  0  0  0  0  0  0  0
   13.2008  -15.3464   20.9209 C   0  0  0  0  0  0  0  0  0  0  0  0
   13.3707  -14.2272   21.4476 O   0  0  0  0  0  0  0  0  0  0  0  0
   13.5616  -16.5094   21.6271 N   0  0  0  0  0  0  0  0  0  0  0  0
   14.1035  -16.4669   22.9942 C   0  0  1  0  0  0  0  0  0  0  0  0
   13.7258  -17.7298   23.7173 C   0  0  0  0  0  0  0  0  0  0  0  0
   14.3066  -17.8284   25.0515 C   0  0  0  0  0  0  0  0  0  0  0  0
   14.9993  -16.9229   25.5899 O   0  0  0  0  0  0  0  0  0  0  0  0
   15.5764  -16.3291   22.8668 C   0  0  0  0  0  0  0  0  0  0  0  0
   16.2716  -15.6974   23.9226 O   0  0  0  0  0  0  0  0  0  0  0  0
   14.0919  -19.0042   25.8065 O   0  0  0  0  0  0  0  0  0  0  0  0
   16.2111  -16.7462   21.8739 O   0  0  0  0  0  0  0  0  0  0  0  0
  2  1  1  0
  3  2  1  0
  4  3  1  0
  4  5  1  0
  5  1  1  0
  5  6  1  1
  7  6  2  0
  9  8  1  6
  9 11  1  0
 10  9  1  0
 11 12  1  6
 11 13  1  0
 12  6  1  0
 13 15  1  0
 13 14  2  0
 15 16  1  0
 16 17  1  6
 17 18  1  0
 18 22  1  0
 18 19  2  0
 20 16  1  0
 20 21  1  0
 23 20  2  0
M  END
$$$$
