WAI.pdb
     RDKit          3D

 28 29  0  0  1  0  0  0  0  0999 V2000
   25.2603  -20.1190  -15.6294 N   0  0  0  0  0  0  0  0  0  0  0  0
   26.3287  -19.6009  -14.8236 C   0  0  1  0  0  0  0  0  0  0  0  0
   25.9197  -18.3927  -14.0192 C   0  0  0  0  0  0  0  0  0  0  0  0
   25.6101  -17.2142  -14.8295 C   0  0  0  0  0  0  0  0  0  0  0  0
   24.4624  -16.4604  -14.7743 C   0  0  0  0  0  0  0  0  0  0  0  0
   24.5834  -15.4827  -15.6754 N   0  0  0  0  0  0  0  0  0  0  0  0
   25.7656  -15.5828  -16.3051 C   0  0  0  0  0  0  0  0  0  0  0  0
   26.3348  -14.8019  -17.3104 C   0  0  0  0  0  0  0  0  0  0  0  0
   27.5860  -15.1536  -17.7686 C   0  0  0  0  0  0  0  0  0  0  0  0
   28.2535  -16.2373  -17.2541 C   0  0  0  0  0  0  0  0  0  0  0  0
   27.7040  -17.0170  -16.2619 C   0  0  0  0  0  0  0  0  0  0  0  0
   26.4312  -16.6667  -15.7894 C   0  0  0  0  0  0  0  0  0  0  0  0
   26.8881  -20.5997  -13.8862 C   0  0  0  0  0  0  0  0  0  0  0  0
   26.2317  -21.6778  -13.7626 O   0  0  0  0  0  0  0  0  0  0  0  0
   29.9695  -20.9980  -11.8363 C   0  0  0  0  0  0  0  0  0  0  0  0
   28.5843  -21.4433  -12.3272 C   0  0  2  0  0  0  0  0  0  0  0  0
   28.0829  -20.3976  -13.1540 N   0  0  0  0  0  0  0  0  0  0  0  0
   27.7782  -21.6636  -11.1027 C   0  0  0  0  0  0  0  0  0  0  0  0
   28.0488  -22.6605  -10.3898 O   0  0  0  0  0  0  0  0  0  0  0  0
   26.3362  -19.1245   -6.1184 C   0  0  0  0  0  0  0  0  0  0  0  0
   25.7045  -20.0990   -7.1074 C   0  0  0  0  0  0  0  0  0  0  0  0
   26.4697  -19.9682   -8.4023 C   0  0  2  0  0  0  0  0  0  0  0  0
   26.3046  -18.5465   -8.8881 C   0  0  0  0  0  0  0  0  0  0  0  0
   26.0133  -20.9391   -9.4470 C   0  0  2  0  0  0  0  0  0  0  0  0
   26.7214  -20.8160  -10.6902 N   0  0  0  0  0  0  0  0  0  0  0  0
   24.5708  -20.7086   -9.7044 C   0  0  0  0  0  0  0  0  0  0  0  0
   24.1341  -20.3319  -10.8270 O   0  0  0  0  0  0  0  0  0  0  0  0
   23.6406  -20.9043   -8.6988 O   0  0  0  0  0  0  0  0  0  0  0  0
  2  1  1  1
  2  3  1  0
  2 13  1  0
  4  3  1  0
  4  5  2  0
  6  5  1  0
  7  6  1  0
  8  7  2  0
  9  8  1  0
 10  9  2  0
 10 11  1  0
 11 12  2  0
 12  7  1  0
 12  4  1  0
 13 14  2  0
 13 17  1  0
 16 15  1  1
 17 16  1  0
 18 19  2  0
 18 16  1  0
 20 21  1  0
 21 22  1  0
 22 23  1  6
 24 22  1  0
 24 25  1  6
 25 18  1  0
 26 24  1  0
 27 26  2  0
 28 26  1  0
M  END
$$$$
