WAI.pdb
     RDKit          3D

 28 29  0  0  1  0  0  0  0  0999 V2000
   22.8587  -20.5253  -12.3264 N   0  0  0  0  0  0  0  0  0  0  0  0
   24.0663  -19.7571  -12.2223 C   0  0  1  0  0  0  0  0  0  0  0  0
   25.2111  -20.5460  -11.6382 C   0  0  0  0  0  0  0  0  0  0  0  0
   25.0722  -20.8286  -10.2091 C   0  0  0  0  0  0  0  0  0  0  0  0
   24.2315  -21.7513   -9.6344 C   0  0  0  0  0  0  0  0  0  0  0  0
   24.4153  -21.6901   -8.3134 N   0  0  0  0  0  0  0  0  0  0  0  0
   25.3421  -20.7627   -8.0215 C   0  0  0  0  0  0  0  0  0  0  0  0
   25.8629  -20.3445   -6.7975 C   0  0  0  0  0  0  0  0  0  0  0  0
   26.8217  -19.3547   -6.8098 C   0  0  0  0  0  0  0  0  0  0  0  0
   27.2526  -18.7961   -7.9875 C   0  0  0  0  0  0  0  0  0  0  0  0
   26.7475  -19.1989   -9.2028 C   0  0  0  0  0  0  0  0  0  0  0  0
   25.7714  -20.2055   -9.2000 C   0  0  0  0  0  0  0  0  0  0  0  0
   24.5156  -19.2001  -13.5174 C   0  0  0  0  0  0  0  0  0  0  0  0
   24.2524  -19.8952  -14.5450 O   0  0  0  0  0  0  0  0  0  0  0  0
   26.2491  -16.1382  -14.7404 C   0  0  0  0  0  0  0  0  0  0  0  0
   25.6713  -17.5499  -14.9175 C   0  0  2  0  0  0  0  0  0  0  0  0
   25.2012  -17.9674  -13.6395 N   0  0  0  0  0  0  0  0  0  0  0  0
   26.7883  -18.3771  -15.4329 C   0  0  0  0  0  0  0  0  0  0  0  0
   27.3183  -18.0411  -16.5200 O   0  0  0  0  0  0  0  0  0  0  0  0
   30.2557  -21.1198  -12.0268 C   0  0  0  0  0  0  0  0  0  0  0  0
   29.7805  -20.2162  -13.1601 C   0  0  0  0  0  0  0  0  0  0  0  0
   29.0686  -21.0992  -14.1566 C   0  0  2  0  0  0  0  0  0  0  0  0
   30.0923  -22.0454  -14.7406 C   0  0  0  0  0  0  0  0  0  0  0  0
   28.3903  -20.3208  -15.2413 C   0  0  2  0  0  0  0  0  0  0  0  0
   27.2924  -19.5233  -14.7715 N   0  0  0  0  0  0  0  0  0  0  0  0
   27.8768  -21.2755  -16.2538 C   0  0  0  0  0  0  0  0  0  0  0  0
   26.8383  -21.9679  -16.0674 O   0  0  0  0  0  0  0  0  0  0  0  0
   28.5360  -21.4386  -17.4594 O   0  0  0  0  0  0  0  0  0  0  0  0
  2  1  1  6
  2  3  1  0
  2 13  1  0
  4  3  1  0
  4  5  2  0
  6  5  1  0
  7  6  1  0
  8  7  2  0
  9  8  1  0
 10  9  2  0
 10 11  1  0
 11 12  2  0
 12  7  1  0
 12  4  1  0
 13 14  2  0
 13 17  1  0
 16 15  1  1
 17 16  1  0
 18 19  2  0
 18 16  1  0
 20 21  1  0
 21 22  1  0
 22 23  1  6
 24 22  1  0
 24 25  1  1
 25 18  1  0
 26 24  1  0
 27 26  2  0
 28 26  1  0
M  END
$$$$
