WAI.pdb
     RDKit          3D

 28 29  0  0  1  0  0  0  0  0999 V2000
   25.8099  -18.9134  -13.2379 N   0  0  0  0  0  0  0  0  0  0  0  0
   26.7188  -20.0162  -13.3681 C   0  0  1  0  0  0  0  0  0  0  0  0
   26.2678  -21.2371  -12.6064 C   0  0  0  0  0  0  0  0  0  0  0  0
   26.1554  -21.0305  -11.1621 C   0  0  0  0  0  0  0  0  0  0  0  0
   24.9945  -20.9947  -10.4276 C   0  0  0  0  0  0  0  0  0  0  0  0
   25.3347  -20.7845   -9.1538 N   0  0  0  0  0  0  0  0  0  0  0  0
   26.6698  -20.6846   -9.0459 C   0  0  0  0  0  0  0  0  0  0  0  0
   27.4834  -20.4688   -7.9342 C   0  0  0  0  0  0  0  0  0  0  0  0
   28.8458  -20.4128   -8.1342 C   0  0  0  0  0  0  0  0  0  0  0  0
   29.3880  -20.5644   -9.3863 C   0  0  0  0  0  0  0  0  0  0  0  0
   28.5972  -20.7779  -10.4924 C   0  0  0  0  0  0  0  0  0  0  0  0
   27.2098  -20.8363  -10.2985 C   0  0  0  0  0  0  0  0  0  0  0  0
   26.9478  -20.4192  -14.7733 C   0  0  0  0  0  0  0  0  0  0  0  0
   26.0943  -20.0094  -15.6173 O   0  0  0  0  0  0  0  0  0  0  0  0
   29.6356  -22.1303  -16.6980 C   0  0  0  0  0  0  0  0  0  0  0  0
   28.2904  -21.3995  -16.5775 C   0  0  2  0  0  0  0  0  0  0  0  0
   28.0437  -21.2143  -15.1871 N   0  0  0  0  0  0  0  0  0  0  0  0
   27.2974  -22.2786  -17.2399 C   0  0  0  0  0  0  0  0  0  0  0  0
   27.4327  -22.5012  -18.4677 O   0  0  0  0  0  0  0  0  0  0  0  0
   25.8300  -27.1061  -15.8611 C   0  0  0  0  0  0  0  0  0  0  0  0
   26.0569  -25.9317  -16.8077 C   0  0  0  0  0  0  0  0  0  0  0  0
   24.9151  -24.9675  -16.5927 C   0  0  2  0  0  0  0  0  0  0  0  0
   23.6691  -25.6003  -17.1683 C   0  0  0  0  0  0  0  0  0  0  0  0
   25.1618  -23.6277  -17.2144 C   0  0  2  0  0  0  0  0  0  0  0  0
   26.2056  -22.8818  -16.5692 N   0  0  0  0  0  0  0  0  0  0  0  0
   23.9081  -22.8383  -17.1422 C   0  0  0  0  0  0  0  0  0  0  0  0
   23.5271  -22.2663  -16.0837 O   0  0  0  0  0  0  0  0  0  0  0  0
   23.1014  -22.7026  -18.2583 O   0  0  0  0  0  0  0  0  0  0  0  0
  2  1  1  6
  2  3  1  0
  2 13  1  0
  4  3  1  0
  4  5  2  0
  6  5  1  0
  7  6  1  0
  8  7  2  0
  9  8  1  0
 10  9  2  0
 10 11  1  0
 11 12  2  0
 12  7  1  0
 12  4  1  0
 13 14  2  0
 13 17  1  0
 16 15  1  1
 17 16  1  0
 18 19  2  0
 18 16  1  0
 20 21  1  0
 21 22  1  0
 22 23  1  6
 24 22  1  0
 24 25  1  1
 25 18  1  0
 26 24  1  0
 27 26  2  0
 28 26  1  0
M  END
$$$$
