WAI.pdb
     RDKit          3D

 28 29  0  0  1  0  0  0  0  0999 V2000
   28.1335  -21.5873  -13.5245 N   0  0  0  0  0  0  0  0  0  0  0  0
   27.0034  -21.8947  -12.6953 C   0  0  1  0  0  0  0  0  0  0  0  0
   26.8295  -20.9171  -11.5602 C   0  0  0  0  0  0  0  0  0  0  0  0
   27.8889  -20.9793  -10.5526 C   0  0  0  0  0  0  0  0  0  0  0  0
   29.2201  -21.2349  -10.7783 C   0  0  0  0  0  0  0  0  0  0  0  0
   29.8389  -21.2010   -9.5957 N   0  0  0  0  0  0  0  0  0  0  0  0
   28.9533  -20.9332   -8.6219 C   0  0  0  0  0  0  0  0  0  0  0  0
   29.1223  -20.7988   -7.2444 C   0  0  0  0  0  0  0  0  0  0  0  0
   28.0086  -20.5169   -6.4833 C   0  0  0  0  0  0  0  0  0  0  0  0
   26.7709  -20.3724   -7.0595 C   0  0  0  0  0  0  0  0  0  0  0  0
   26.5893  -20.5024   -8.4176 C   0  0  0  0  0  0  0  0  0  0  0  0
   27.7169  -20.7892   -9.2000 C   0  0  0  0  0  0  0  0  0  0  0  0
   25.7287  -21.9484  -13.4447 C   0  0  0  0  0  0  0  0  0  0  0  0
   25.4501  -20.9285  -14.1452 O   0  0  0  0  0  0  0  0  0  0  0  0
   22.9387  -24.3687  -13.9425 C   0  0  0  0  0  0  0  0  0  0  0  0
   23.6783  -23.0514  -14.2181 C   0  0  2  0  0  0  0  0  0  0  0  0
   24.8480  -23.0562  -13.4056 N   0  0  0  0  0  0  0  0  0  0  0  0
   22.7216  -21.9749  -13.8667 C   0  0  0  0  0  0  0  0  0  0  0  0
   22.6076  -21.6587  -12.6574 O   0  0  0  0  0  0  0  0  0  0  0  0
   22.9202  -17.2345  -15.9544 C   0  0  0  0  0  0  0  0  0  0  0  0
   22.6644  -18.3417  -14.9368 C   0  0  0  0  0  0  0  0  0  0  0  0
   21.3257  -18.9508  -15.2778 C   0  0  2  0  0  0  0  0  0  0  0  0
   20.2676  -17.9049  -15.0119 C   0  0  0  0  0  0  0  0  0  0  0  0
   21.0409  -20.1989  -14.5008 C   0  0  2  0  0  0  0  0  0  0  0  0
   21.9292  -21.2827  -14.8145 N   0  0  0  0  0  0  0  0  0  0  0  0
   19.6527  -20.6298  -14.7965 C   0  0  0  0  0  0  0  0  0  0  0  0
   18.6645  -20.2520  -14.1084 O   0  0  0  0  0  0  0  0  0  0  0  0
   19.3946  -21.4777  -15.8591 O   0  0  0  0  0  0  0  0  0  0  0  0
  2  1  1  6
  2  3  1  0
  2 13  1  0
  4  3  1  0
  4  5  2  0
  6  5  1  0
  7  6  1  0
  8  7  2  0
  9  8  1  0
 10  9  2  0
 10 11  1  0
 11 12  2  0
 12  7  1  0
 12  4  1  0
 13 14  2  0
 13 17  1  0
 16 15  1  1
 17 16  1  0
 18 19  2  0
 18 16  1  0
 20 21  1  0
 21 22  1  0
 22 23  1  1
 24 22  1  0
 24 25  1  6
 25 18  1  0
 26 24  1  0
 27 26  2  0
 28 26  1  0
M  END
$$$$
