WAI.pdb
     RDKit          3D

 28 29  0  0  1  0  0  0  0  0999 V2000
   25.8803  -22.3413  -12.2453 N   0  0  0  0  0  0  0  0  0  0  0  0
   26.8652  -21.3392  -11.9540 C   0  0  1  0  0  0  0  0  0  0  0  0
   26.2888  -19.9460  -11.9237 C   0  0  0  0  0  0  0  0  0  0  0  0
   25.9389  -19.4171  -13.2425 C   0  0  0  0  0  0  0  0  0  0  0  0
   24.6746  -19.2945  -13.7668 C   0  0  0  0  0  0  0  0  0  0  0  0
   24.7984  -18.7701  -14.9884 N   0  0  0  0  0  0  0  0  0  0  0  0
   26.0947  -18.5527  -15.2652 C   0  0  0  0  0  0  0  0  0  0  0  0
   26.7114  -18.0266  -16.3998 C   0  0  0  0  0  0  0  0  0  0  0  0
   28.0854  -17.9214  -16.3957 C   0  0  0  0  0  0  0  0  0  0  0  0
   28.8265  -18.3206  -15.3112 C   0  0  0  0  0  0  0  0  0  0  0  0
   28.2314  -18.8416  -14.1848 C   0  0  0  0  0  0  0  0  0  0  0  0
   26.8337  -18.9524  -14.1799 C   0  0  0  0  0  0  0  0  0  0  0  0
   27.5653  -21.5666  -10.6704 C   0  0  0  0  0  0  0  0  0  0  0  0
   26.8372  -21.9142   -9.6918 O   0  0  0  0  0  0  0  0  0  0  0  0
   31.0578  -21.3939   -9.3811 C   0  0  0  0  0  0  0  0  0  0  0  0
   29.5470  -21.6209   -9.2252 C   0  0  2  0  0  0  0  0  0  0  0  0
   28.9635  -21.4147  -10.5079 N   0  0  0  0  0  0  0  0  0  0  0  0
   29.0981  -20.6391   -8.2093 C   0  0  0  0  0  0  0  0  0  0  0  0
   28.7473  -19.5005   -8.6040 O   0  0  0  0  0  0  0  0  0  0  0  0
   25.5258  -21.5424   -4.3678 C   0  0  0  0  0  0  0  0  0  0  0  0
   26.3474  -20.8382   -5.4429 C   0  0  0  0  0  0  0  0  0  0  0  0
   27.6805  -20.4954   -4.8226 C   0  0  2  0  0  0  0  0  0  0  0  0
   27.4271  -19.4886   -3.7242 C   0  0  0  0  0  0  0  0  0  0  0  0
   28.6619  -19.9558   -5.8168 C   0  0  2  0  0  0  0  0  0  0  0  0
   29.0419  -20.9099   -6.8204 N   0  0  0  0  0  0  0  0  0  0  0  0
   29.8821  -19.5299   -5.0888 C   0  0  0  0  0  0  0  0  0  0  0  0
   29.9981  -18.3843   -4.5721 O   0  0  0  0  0  0  0  0  0  0  0  0
   30.9530  -20.3954   -4.9517 O   0  0  0  0  0  0  0  0  0  0  0  0
  2  1  1  1
  2  3  1  0
  2 13  1  0
  4  3  1  0
  4  5  2  0
  6  5  1  0
  7  6  1  0
  8  7  2  0
  9  8  1  0
 10  9  2  0
 10 11  1  0
 11 12  2  0
 12  7  1  0
 12  4  1  0
 13 14  2  0
 13 17  1  0
 16 15  1  6
 17 16  1  0
 18 19  2  0
 18 16  1  0
 20 21  1  0
 21 22  1  0
 22 23  1  1
 24 22  1  0
 24 25  1  6
 25 18  1  0
 26 24  1  0
 27 26  2  0
 28 26  1  0
M  END
$$$$
