WAI.pdb
     RDKit          3D

 28 29  0  0  1  0  0  0  0  0999 V2000
   24.5187  -20.0430  -16.2583 N   0  0  0  0  0  0  0  0  0  0  0  0
   24.6219  -20.0013  -14.8277 C   0  0  1  0  0  0  0  0  0  0  0  0
   23.4489  -20.6524  -14.1389 C   0  0  0  0  0  0  0  0  0  0  0  0
   22.3182  -19.7524  -13.9089 C   0  0  0  0  0  0  0  0  0  0  0  0
   21.7147  -18.9409  -14.8394 C   0  0  0  0  0  0  0  0  0  0  0  0
   20.7290  -18.2876  -14.2196 N   0  0  0  0  0  0  0  0  0  0  0  0
   20.6794  -18.6508  -12.9273 C   0  0  0  0  0  0  0  0  0  0  0  0
   19.8326  -18.2462  -11.8960 C   0  0  0  0  0  0  0  0  0  0  0  0
   20.0240  -18.8025  -10.6498 C   0  0  0  0  0  0  0  0  0  0  0  0
   21.0155  -19.7255  -10.4272 C   0  0  0  0  0  0  0  0  0  0  0  0
   21.8586  -20.1341  -11.4355 C   0  0  0  0  0  0  0  0  0  0  0  0
   21.6713  -19.5734  -12.7069 C   0  0  0  0  0  0  0  0  0  0  0  0
   25.8564  -20.6352  -14.3141 C   0  0  0  0  0  0  0  0  0  0  0  0
   25.9084  -21.8999  -14.3933 O   0  0  0  0  0  0  0  0  0  0  0  0
   28.9949  -19.5422  -12.6281 C   0  0  0  0  0  0  0  0  0  0  0  0
   27.9664  -20.5963  -13.0632 C   0  0  2  0  0  0  0  0  0  0  0  0
   26.9353  -19.9045  -13.7607 N   0  0  0  0  0  0  0  0  0  0  0  0
   27.5010  -21.2408  -11.8120 C   0  0  0  0  0  0  0  0  0  0  0  0
   27.3351  -22.4849  -11.8156 O   0  0  0  0  0  0  0  0  0  0  0  0
   27.7791  -18.7467   -6.6560 C   0  0  0  0  0  0  0  0  0  0  0  0
   27.2015  -19.1123   -8.0197 C   0  0  0  0  0  0  0  0  0  0  0  0
   27.3297  -20.6098   -8.1637 C   0  0  2  0  0  0  0  0  0  0  0  0
   28.8026  -20.9469   -8.1288 C   0  0  0  0  0  0  0  0  0  0  0  0
   26.6993  -21.1284   -9.4191 C   0  0  2  0  0  0  0  0  0  0  0  0
   27.2327  -20.5358  -10.6134 N   0  0  0  0  0  0  0  0  0  0  0  0
   25.2441  -20.8462   -9.3653 C   0  0  0  0  0  0  0  0  0  0  0  0
   24.6727  -20.0734  -10.1832 O   0  0  0  0  0  0  0  0  0  0  0  0
   24.4525  -21.4352   -8.3951 O   0  0  0  0  0  0  0  0  0  0  0  0
  2  1  1  6
  2  3  1  0
  2 13  1  0
  4  3  1  0
  4  5  2  0
  6  5  1  0
  7  6  1  0
  8  7  2  0
  9  8  1  0
 10  9  2  0
 10 11  1  0
 11 12  2  0
 12  7  1  0
 12  4  1  0
 13 14  2  0
 13 17  1  0
 16 15  1  1
 17 16  1  0
 18 19  2  0
 18 16  1  0
 20 21  1  0
 21 22  1  0
 22 23  1  6
 24 22  1  0
 24 25  1  6
 25 18  1  0
 26 24  1  0
 27 26  2  0
 28 26  1  0
M  END
$$$$
