WAI.pdb
     RDKit          3D

 28 29  0  0  1  0  0  0  0  0999 V2000
   27.3943  -22.1611  -15.4580 N   0  0  0  0  0  0  0  0  0  0  0  0
   26.5532  -22.0137  -14.3047 C   0  0  1  0  0  0  0  0  0  0  0  0
   26.6953  -20.6638  -13.6476 C   0  0  0  0  0  0  0  0  0  0  0  0
   27.9192  -20.5103  -12.8602 C   0  0  0  0  0  0  0  0  0  0  0  0
   29.1388  -20.0733  -13.3184 C   0  0  0  0  0  0  0  0  0  0  0  0
   29.9805  -20.0812  -12.2821 N   0  0  0  0  0  0  0  0  0  0  0  0
   29.3450  -20.5070  -11.1780 C   0  0  0  0  0  0  0  0  0  0  0  0
   29.8001  -20.6820   -9.8716 C   0  0  0  0  0  0  0  0  0  0  0  0
   28.9019  -21.1414   -8.9328 C   0  0  0  0  0  0  0  0  0  0  0  0
   27.6001  -21.4188   -9.2694 C   0  0  0  0  0  0  0  0  0  0  0  0
   27.1373  -21.2507  -10.5547 C   0  0  0  0  0  0  0  0  0  0  0  0
   28.0441  -20.7837  -11.5166 C   0  0  0  0  0  0  0  0  0  0  0  0
   25.1185  -22.2239  -14.5997 C   0  0  0  0  0  0  0  0  0  0  0  0
   24.6396  -21.5412  -15.5552 O   0  0  0  0  0  0  0  0  0  0  0  0
   22.4613  -24.6183  -13.6525 C   0  0  0  0  0  0  0  0  0  0  0  0
   22.9348  -23.2875  -14.2549 C   0  0  2  0  0  0  0  0  0  0  0  0
   24.2988  -23.1254  -13.8787 N   0  0  0  0  0  0  0  0  0  0  0  0
   22.0401  -22.2510  -13.6867 C   0  0  0  0  0  0  0  0  0  0  0  0
   21.9209  -22.1944  -12.4385 O   0  0  0  0  0  0  0  0  0  0  0  0
   22.0606  -17.5353  -15.7071 C   0  0  0  0  0  0  0  0  0  0  0  0
   21.8379  -18.3899  -14.4634 C   0  0  0  0  0  0  0  0  0  0  0  0
   20.4731  -19.0205  -14.6026 C   0  0  2  0  0  0  0  0  0  0  0  0
   19.4659  -18.0644  -14.0059 C   0  0  0  0  0  0  0  0  0  0  0  0
   20.3831  -20.3615  -13.9423 C   0  0  2  0  0  0  0  0  0  0  0  0
   21.3124  -21.3213  -14.4688 N   0  0  0  0  0  0  0  0  0  0  0  0
   19.0089  -20.8870  -14.1314 C   0  0  0  0  0  0  0  0  0  0  0  0
   18.6084  -21.3573  -15.2320 O   0  0  0  0  0  0  0  0  0  0  0  0
   18.1054  -20.8767  -13.0834 O   0  0  0  0  0  0  0  0  0  0  0  0
  2  1  1  6
  2  3  1  0
  2 13  1  0
  4  3  1  0
  4  5  2  0
  6  5  1  0
  7  6  1  0
  8  7  2  0
  9  8  1  0
 10  9  2  0
 10 11  1  0
 11 12  2  0
 12  7  1  0
 12  4  1  0
 13 14  2  0
 13 17  1  0
 16 15  1  1
 17 16  1  0
 18 19  2  0
 18 16  1  0
 20 21  1  0
 21 22  1  0
 22 23  1  1
 24 22  1  0
 24 25  1  6
 25 18  1  0
 26 24  1  0
 27 26  2  0
 28 26  1  0
M  END
$$$$
