WAI.pdb
     RDKit          3D

 28 29  0  0  1  0  0  0  0  0999 V2000
   26.9688  -17.9771   -9.4095 N   0  0  0  0  0  0  0  0  0  0  0  0
   26.8566  -19.4077   -9.4114 C   0  0  1  0  0  0  0  0  0  0  0  0
   26.4022  -19.9590   -8.0833 C   0  0  0  0  0  0  0  0  0  0  0  0
   27.2589  -19.5839   -6.9578 C   0  0  0  0  0  0  0  0  0  0  0  0
   27.0624  -18.5344   -6.0928 C   0  0  0  0  0  0  0  0  0  0  0  0
   28.0699  -18.5452   -5.2169 N   0  0  0  0  0  0  0  0  0  0  0  0
   28.9037  -19.5625   -5.4891 C   0  0  0  0  0  0  0  0  0  0  0  0
   30.0790  -19.9740   -4.8617 C   0  0  0  0  0  0  0  0  0  0  0  0
   30.7319  -21.0738   -5.3747 C   0  0  0  0  0  0  0  0  0  0  0  0
   30.2438  -21.7452   -6.4682 C   0  0  0  0  0  0  0  0  0  0  0  0
   29.0851  -21.3504   -7.0974 C   0  0  0  0  0  0  0  0  0  0  0  0
   28.4140  -20.2322   -6.5824 C   0  0  0  0  0  0  0  0  0  0  0  0
   25.9363  -19.9183  -10.4514 C   0  0  0  0  0  0  0  0  0  0  0  0
   24.8386  -19.2960  -10.5791 O   0  0  0  0  0  0  0  0  0  0  0  0
   25.9623  -22.5619  -13.0749 C   0  0  0  0  0  0  0  0  0  0  0  0
   25.2990  -21.4323  -12.2736 C   0  0  2  0  0  0  0  0  0  0  0  0
   26.2309  -21.0326  -11.2735 N   0  0  0  0  0  0  0  0  0  0  0  0
   24.0534  -22.0141  -11.7189 C   0  0  0  0  0  0  0  0  0  0  0  0
   23.5667  -23.0200  -12.2903 O   0  0  0  0  0  0  0  0  0  0  0  0
   22.7941  -21.8348   -6.2972 C   0  0  0  0  0  0  0  0  0  0  0  0
   23.0210  -22.3637   -7.7098 C   0  0  0  0  0  0  0  0  0  0  0  0
   21.9696  -21.7311   -8.5896 C   0  0  2  0  0  0  0  0  0  0  0  0
   20.6217  -22.2243   -8.1162 C   0  0  0  0  0  0  0  0  0  0  0  0
   22.1646  -22.0410  -10.0417 C   0  0  2  0  0  0  0  0  0  0  0  0
   23.3806  -21.5020  -10.5828 N   0  0  0  0  0  0  0  0  0  0  0  0
   21.0225  -21.4751  -10.8003 C   0  0  0  0  0  0  0  0  0  0  0  0
   20.9759  -20.2640  -11.1523 O   0  0  0  0  0  0  0  0  0  0  0  0
   19.9506  -22.2762  -11.1522 O   0  0  0  0  0  0  0  0  0  0  0  0
  2  1  1  1
  2  3  1  0
  2 13  1  0
  4  3  1  0
  4  5  2  0
  6  5  1  0
  7  6  1  0
  8  7  2  0
  9  8  1  0
 10  9  2  0
 10 11  1  0
 11 12  2  0
 12  7  1  0
 12  4  1  0
 13 14  2  0
 13 17  1  0
 16 15  1  6
 17 16  1  0
 18 19  2  0
 18 16  1  0
 20 21  1  0
 21 22  1  0
 22 23  1  1
 24 22  1  0
 24 25  1  6
 25 18  1  0
 26 24  1  0
 27 26  2  0
 28 26  1  0
M  END
$$$$
