WAI.pdb
     RDKit          3D

 28 29  0  0  1  0  0  0  0  0999 V2000
   22.7807  -17.6732  -17.0930 N   0  0  0  0  0  0  0  0  0  0  0  0
   24.0318  -17.7849  -16.3990 C   0  0  1  0  0  0  0  0  0  0  0  0
   23.9763  -18.7593  -15.2494 C   0  0  0  0  0  0  0  0  0  0  0  0
   24.9490  -18.4877  -14.1905 C   0  0  0  0  0  0  0  0  0  0  0  0
   25.8276  -17.4323  -14.1361 C   0  0  0  0  0  0  0  0  0  0  0  0
   26.5330  -17.5581  -13.0096 N   0  0  0  0  0  0  0  0  0  0  0  0
   26.1387  -18.6544  -12.3412 C   0  0  0  0  0  0  0  0  0  0  0  0
   26.5747  -19.1936  -11.1314 C   0  0  0  0  0  0  0  0  0  0  0  0
   25.9717  -20.3504  -10.6873 C   0  0  0  0  0  0  0  0  0  0  0  0
   24.9735  -20.9553  -11.4101 C   0  0  0  0  0  0  0  0  0  0  0  0
   24.5332  -20.4344  -12.6056 C   0  0  0  0  0  0  0  0  0  0  0  0
   25.1409  -19.2575  -13.0654 C   0  0  0  0  0  0  0  0  0  0  0  0
   25.1517  -18.1868  -17.2785 C   0  0  0  0  0  0  0  0  0  0  0  0
   24.9441  -19.1938  -18.0211 O   0  0  0  0  0  0  0  0  0  0  0  0
   28.6441  -17.0790  -17.9568 C   0  0  0  0  0  0  0  0  0  0  0  0
   27.4806  -18.0776  -18.0422 C   0  0  2  0  0  0  0  0  0  0  0  0
   26.3951  -17.5107  -17.3151 N   0  0  0  0  0  0  0  0  0  0  0  0
   27.9912  -19.3375  -17.4511 C   0  0  0  0  0  0  0  0  0  0  0  0
   28.9507  -19.9107  -18.0223 O   0  0  0  0  0  0  0  0  0  0  0  0
   29.3366  -20.1518  -12.3124 C   0  0  0  0  0  0  0  0  0  0  0  0
   29.3337  -20.2489  -13.8346 C   0  0  0  0  0  0  0  0  0  0  0  0
   28.1328  -21.0792  -14.2194 C   0  0  2  0  0  0  0  0  0  0  0  0
   28.3257  -22.4591  -13.6335 C   0  0  0  0  0  0  0  0  0  0  0  0
   27.9325  -21.1585  -15.7013 C   0  0  2  0  0  0  0  0  0  0  0  0
   27.4604  -19.9323  -16.2806 N   0  0  0  0  0  0  0  0  0  0  0  0
   26.9399  -22.2236  -15.9849 C   0  0  0  0  0  0  0  0  0  0  0  0
   25.7497  -21.9696  -16.3188 O   0  0  0  0  0  0  0  0  0  0  0  0
   27.2977  -23.5569  -15.8895 O   0  0  0  0  0  0  0  0  0  0  0  0
  2  1  1  6
  2  3  1  0
  2 13  1  0
  4  3  1  0
  4  5  2  0
  6  5  1  0
  7  6  1  0
  8  7  2  0
  9  8  1  0
 10  9  2  0
 10 11  1  0
 11 12  2  0
 12  7  1  0
 12  4  1  0
 13 14  2  0
 13 17  1  0
 16 15  1  1
 17 16  1  0
 18 19  2  0
 18 16  1  0
 20 21  1  0
 21 22  1  0
 22 23  1  6
 24 22  1  0
 24 25  1  1
 25 18  1  0
 26 24  1  0
 27 26  2  0
 28 26  1  0
M  END
$$$$
