WAI.pdb
     RDKit          3D

 28 29  0  0  1  0  0  0  0  0999 V2000
   26.5835  -18.8987  -12.9172 N   0  0  0  0  0  0  0  0  0  0  0  0
   27.3409  -20.1137  -13.0135 C   0  0  1  0  0  0  0  0  0  0  0  0
   26.6875  -21.2670  -12.2945 C   0  0  0  0  0  0  0  0  0  0  0  0
   26.4477  -21.0233  -10.8716 C   0  0  0  0  0  0  0  0  0  0  0  0
   25.2257  -20.8786  -10.2598 C   0  0  0  0  0  0  0  0  0  0  0  0
   25.4521  -20.6715   -8.9604 N   0  0  0  0  0  0  0  0  0  0  0  0
   26.7733  -20.6782   -8.7181 C   0  0  0  0  0  0  0  0  0  0  0  0
   27.4858  -20.5071   -7.5318 C   0  0  0  0  0  0  0  0  0  0  0  0
   28.8613  -20.5661   -7.5924 C   0  0  0  0  0  0  0  0  0  0  0  0
   29.5124  -20.7861   -8.7808 C   0  0  0  0  0  0  0  0  0  0  0  0
   28.8221  -20.9567   -9.9593 C   0  0  0  0  0  0  0  0  0  0  0  0
   27.4222  -20.8982   -9.9072 C   0  0  0  0  0  0  0  0  0  0  0  0
   27.5910  -20.5349  -14.4097 C   0  0  0  0  0  0  0  0  0  0  0  0
   27.0263  -19.8434  -15.3106 O   0  0  0  0  0  0  0  0  0  0  0  0
   29.7901  -22.9708  -16.1592 C   0  0  0  0  0  0  0  0  0  0  0  0
   28.6941  -21.8957  -16.1273 C   0  0  2  0  0  0  0  0  0  0  0  0
   28.4065  -21.6391  -14.7563 N   0  0  0  0  0  0  0  0  0  0  0  0
   27.5483  -22.4709  -16.8717 C   0  0  0  0  0  0  0  0  0  0  0  0
   27.7128  -22.7495  -18.0844 O   0  0  0  0  0  0  0  0  0  0  0  0
   24.2727  -25.6903  -14.3378 C   0  0  0  0  0  0  0  0  0  0  0  0
   24.8801  -25.3563  -15.6966 C   0  0  0  0  0  0  0  0  0  0  0  0
   24.2353  -24.0729  -16.1622 C   0  0  2  0  0  0  0  0  0  0  0  0
   22.9851  -24.4420  -16.9272 C   0  0  0  0  0  0  0  0  0  0  0  0
   25.1461  -23.2400  -17.0102 C   0  0  2  0  0  0  0  0  0  0  0  0
   26.2799  -22.7244  -16.2954 N   0  0  0  0  0  0  0  0  0  0  0  0
   24.3710  -22.0955  -17.5481 C   0  0  0  0  0  0  0  0  0  0  0  0
   24.0046  -22.0318  -18.7542 O   0  0  0  0  0  0  0  0  0  0  0  0
   24.0189  -21.0403  -16.7252 O   0  0  0  0  0  0  0  0  0  0  0  0
  2  1  1  6
  2  3  1  0
  2 13  1  0
  4  3  1  0
  4  5  2  0
  6  5  1  0
  7  6  1  0
  8  7  2  0
  9  8  1  0
 10  9  2  0
 10 11  1  0
 11 12  2  0
 12  7  1  0
 12  4  1  0
 13 14  2  0
 13 17  1  0
 16 15  1  1
 17 16  1  0
 18 19  2  0
 18 16  1  0
 20 21  1  0
 21 22  1  0
 22 23  1  6
 24 22  1  0
 24 25  1  1
 25 18  1  0
 26 24  1  0
 27 26  2  0
 28 26  1  0
M  END
$$$$
