QMI.pdb
     RDKit          3D

 26 25  0  0  1  0  0  0  0  0999 V2000
    9.0727  -12.8811   17.4109 N   0  0  0  0  0  0  0  0  0  0  0  0
    8.0680  -13.9119   17.3639 C   0  0  0  0  0  0  0  0  0  0  0  0
    7.8717  -14.4297   16.2532 O   0  0  0  0  0  0  0  0  0  0  0  0
    7.3457  -14.2900   18.5709 C   0  0  0  0  0  0  0  0  0  0  0  0
    7.9387  -13.7514   19.8288 C   0  0  0  0  0  0  0  0  0  0  0  0
    8.5821  -14.8155   20.6340 C   0  0  2  0  0  0  0  0  0  0  0  0
    7.8878  -16.0667   20.7129 N   0  0  0  0  0  0  0  0  0  0  0  0
    8.8212  -14.3821   22.0526 C   0  0  0  0  0  0  0  0  0  0  0  0
    9.4631  -13.3418   22.3507 O   0  0  0  0  0  0  0  0  0  0  0  0
    6.5699  -11.3319   26.7841 C   0  0  0  0  0  0  0  0  0  0  0  0
    5.5408  -12.6501   26.1351 S   0  0  0  0  0  0  0  0  0  0  0  0
    6.2958  -13.4007   24.6449 C   0  0  0  0  0  0  0  0  0  0  0  0
    7.0750  -14.6032   25.0846 C   0  0  0  0  0  0  0  0  0  0  0  0
    8.4640  -14.6900   24.5396 C   0  0  2  0  0  0  0  0  0  0  0  0
    8.3223  -15.1440   23.1489 N   0  0  0  0  0  0  0  0  0  0  0  0
    9.3220  -15.6873   25.2490 C   0  0  0  0  0  0  0  0  0  0  0  0
    9.8896  -16.5897   24.5876 O   0  0  0  0  0  0  0  0  0  0  0  0
   10.3479  -13.7416   29.7054 C   0  0  0  0  0  0  0  0  0  0  0  0
   11.0663  -14.5038   28.6532 C   0  0  0  0  0  0  0  0  0  0  0  0
   10.8526  -15.9584   28.5800 C   0  0  2  0  0  0  0  0  0  0  0  0
   11.8401  -16.8012   29.3475 C   0  0  0  0  0  0  0  0  0  0  0  0
   10.5156  -16.5211   27.2578 C   0  0  2  0  0  0  0  0  0  0  0  0
    9.5069  -15.6362   26.6403 N   0  0  0  0  0  0  0  0  0  0  0  0
   10.0461  -17.9034   27.1957 C   0  0  0  0  0  0  0  0  0  0  0  0
   10.9225  -18.9726   26.9817 O   0  0  0  0  0  0  0  0  0  0  0  0
    8.8372  -18.2042   27.3302 O   0  0  0  0  0  0  0  0  0  0  0  0
  2  3  2  0
  2  1  1  0
  4  2  1  0
  5  4  1  0
  6  5  1  0
  6  7  1  1
  8  9  2  0
  8  6  1  0
 10 11  1  0
 11 12  1  0
 13 12  1  0
 14 13  1  1
 14 15  1  0
 15  8  1  0
 16 14  1  0
 16 17  2  0
 19 20  1  0
 19 18  1  0
 20 21  1  6
 20 22  1  0
 22 23  1  1
 22 24  1  0
 23 16  1  0
 24 25  1  0
 26 24  2  0
M  END
$$$$
