QMI.pdb
     RDKit          3D

 26 25  0  0  1  0  0  0  0  0999 V2000
   10.5720  -18.0590   17.5325 N   0  0  0  0  0  0  0  0  0  0  0  0
    9.1753  -17.8114   17.2829 C   0  0  0  0  0  0  0  0  0  0  0  0
    8.7172  -18.2904   16.2337 O   0  0  0  0  0  0  0  0  0  0  0  0
    8.3856  -17.0357   18.2297 C   0  0  0  0  0  0  0  0  0  0  0  0
    9.1346  -16.6210   19.4508 C   0  0  0  0  0  0  0  0  0  0  0  0
    8.3282  -16.8039   20.6799 C   0  0  2  0  0  0  0  0  0  0  0  0
    6.9089  -16.6621   20.5414 N   0  0  0  0  0  0  0  0  0  0  0  0
    8.7371  -15.8529   21.7689 C   0  0  0  0  0  0  0  0  0  0  0  0
    9.4243  -14.8212   21.5533 O   0  0  0  0  0  0  0  0  0  0  0  0
    6.3663  -11.5246   26.3287 C   0  0  0  0  0  0  0  0  0  0  0  0
    5.6886  -12.7528   25.2106 S   0  0  0  0  0  0  0  0  0  0  0  0
    6.9939  -13.4535   24.1341 C   0  0  0  0  0  0  0  0  0  0  0  0
    7.5706  -14.6470   24.8339 C   0  0  0  0  0  0  0  0  0  0  0  0
    8.8116  -15.2041   24.2146 C   0  0  2  0  0  0  0  0  0  0  0  0
    8.3584  -16.0793   23.1242 N   0  0  0  0  0  0  0  0  0  0  0  0
    9.6216  -16.0413   25.1510 C   0  0  0  0  0  0  0  0  0  0  0  0
   10.0373  -17.1619   24.7696 O   0  0  0  0  0  0  0  0  0  0  0  0
   10.9543  -14.6377   30.6733 C   0  0  0  0  0  0  0  0  0  0  0  0
   10.4257  -15.0574   29.3509 C   0  0  0  0  0  0  0  0  0  0  0  0
   11.3848  -15.5152   28.3323 C   0  0  2  0  0  0  0  0  0  0  0  0
   12.3384  -14.4663   27.8176 C   0  0  0  0  0  0  0  0  0  0  0  0
   10.8642  -16.3963   27.2689 C   0  0  2  0  0  0  0  0  0  0  0  0
    9.9278  -15.6009   26.4490 N   0  0  0  0  0  0  0  0  0  0  0  0
   10.2172  -17.6456   27.6632 C   0  0  0  0  0  0  0  0  0  0  0  0
   10.9423  -18.7179   28.1939 O   0  0  0  0  0  0  0  0  0  0  0  0
    8.9823  -17.8231   27.5475 O   0  0  0  0  0  0  0  0  0  0  0  0
  2  3  2  0
  2  1  1  0
  4  2  1  0
  5  4  1  0
  6  5  1  0
  6  7  1  6
  8  9  2  0
  8  6  1  0
 10 11  1  0
 11 12  1  0
 13 12  1  0
 14 13  1  1
 14 15  1  0
 15  8  1  0
 16 14  1  0
 16 17  2  0
 19 20  1  0
 19 18  1  0
 20 21  1  6
 20 22  1  0
 22 23  1  1
 22 24  1  0
 23 16  1  0
 24 25  1  0
 26 24  2  0
M  END
$$$$
