QMI.pdb
     RDKit          3D

 26 25  0  0  1  0  0  0  0  0999 V2000
   12.4984  -15.7693   17.7377 N   0  0  0  0  0  0  0  0  0  0  0  0
   11.7322  -16.9476   17.4232 C   0  0  0  0  0  0  0  0  0  0  0  0
   12.1248  -17.6072   16.4479 O   0  0  0  0  0  0  0  0  0  0  0  0
   10.5700  -17.3044   18.2254 C   0  0  0  0  0  0  0  0  0  0  0  0
   10.3721  -16.4431   19.4266 C   0  0  0  0  0  0  0  0  0  0  0  0
   10.1063  -17.2467   20.6425 C   0  0  2  0  0  0  0  0  0  0  0  0
    9.0047  -18.1610   20.5773 N   0  0  0  0  0  0  0  0  0  0  0  0
    9.8591  -16.3823   21.8463 C   0  0  0  0  0  0  0  0  0  0  0  0
   10.5797  -15.3928   22.1371 O   0  0  0  0  0  0  0  0  0  0  0  0
    6.2012  -12.3686   26.4165 C   0  0  0  0  0  0  0  0  0  0  0  0
    6.8254  -13.3541   25.0538 S   0  0  0  0  0  0  0  0  0  0  0  0
    6.5551  -15.1401   25.3560 C   0  0  0  0  0  0  0  0  0  0  0  0
    7.0416  -15.8857   24.1501 C   0  0  0  0  0  0  0  0  0  0  0  0
    8.5159  -15.8145   23.9154 C   0  0  2  0  0  0  0  0  0  0  0  0
    8.7752  -16.6480   22.7330 N   0  0  0  0  0  0  0  0  0  0  0  0
    9.3267  -16.3720   25.0405 C   0  0  0  0  0  0  0  0  0  0  0  0
    9.7922  -17.5331   24.9455 O   0  0  0  0  0  0  0  0  0  0  0  0
   10.8487  -12.7430   28.9080 C   0  0  0  0  0  0  0  0  0  0  0  0
   10.8681  -13.8166   27.8826 C   0  0  0  0  0  0  0  0  0  0  0  0
   10.5929  -15.1964   28.3155 C   0  0  2  0  0  0  0  0  0  0  0  0
   11.4088  -15.6869   29.4854 C   0  0  0  0  0  0  0  0  0  0  0  0
   10.4302  -16.2117   27.2568 C   0  0  2  0  0  0  0  0  0  0  0  0
    9.5791  -15.6242   26.2022 N   0  0  0  0  0  0  0  0  0  0  0  0
    9.8984  -17.5201   27.6314 C   0  0  0  0  0  0  0  0  0  0  0  0
   10.7359  -18.5969   27.9417 O   0  0  0  0  0  0  0  0  0  0  0  0
    8.6678  -17.7470   27.6946 O   0  0  0  0  0  0  0  0  0  0  0  0
  2  3  2  0
  2  1  1  0
  4  2  1  0
  5  4  1  0
  6  5  1  0
  6  7  1  6
  8  9  2  0
  8  6  1  0
 10 11  1  0
 11 12  1  0
 13 12  1  0
 14 13  1  1
 14 15  1  0
 15  8  1  0
 16 14  1  0
 16 17  2  0
 19 20  1  0
 19 18  1  0
 20 21  1  1
 20 22  1  0
 22 23  1  6
 22 24  1  0
 23 16  1  0
 24 25  1  0
 26 24  2  0
M  END
$$$$
