QMI.pdb
     RDKit          3D

 26 25  0  0  1  0  0  0  0  0999 V2000
    6.6892  -13.6979   19.3934 N   0  0  0  0  0  0  0  0  0  0  0  0
    8.0435  -13.5094   18.9409 C   0  0  0  0  0  0  0  0  0  0  0  0
    8.3303  -12.3692   18.5436 O   0  0  0  0  0  0  0  0  0  0  0  0
    8.9864  -14.6194   18.9610 C   0  0  0  0  0  0  0  0  0  0  0  0
    8.4217  -15.8878   19.5054 C   0  0  0  0  0  0  0  0  0  0  0  0
    9.2797  -16.4609   20.5684 C   0  0  2  0  0  0  0  0  0  0  0  0
    8.9583  -17.7876   21.0047 N   0  0  0  0  0  0  0  0  0  0  0  0
    9.2909  -15.6074   21.8049 C   0  0  0  0  0  0  0  0  0  0  0  0
    9.8718  -14.4927   21.8611 O   0  0  0  0  0  0  0  0  0  0  0  0
    6.8392  -11.5332   26.2223 C   0  0  0  0  0  0  0  0  0  0  0  0
    6.0287  -13.1145   25.9762 S   0  0  0  0  0  0  0  0  0  0  0  0
    6.5397  -13.8757   24.3909 C   0  0  0  0  0  0  0  0  0  0  0  0
    7.2515  -15.1561   24.7079 C   0  0  0  0  0  0  0  0  0  0  0  0
    8.6652  -15.2286   24.2283 C   0  0  2  0  0  0  0  0  0  0  0  0
    8.6309  -16.0287   22.9959 N   0  0  0  0  0  0  0  0  0  0  0  0
    9.5845  -15.9195   25.1831 C   0  0  0  0  0  0  0  0  0  0  0  0
   10.4258  -16.7387   24.7415 O   0  0  0  0  0  0  0  0  0  0  0  0
   10.5010  -13.1299   29.6191 C   0  0  0  0  0  0  0  0  0  0  0  0
   10.7956  -14.0225   28.4699 C   0  0  0  0  0  0  0  0  0  0  0  0
   10.6428  -15.4742   28.6603 C   0  0  2  0  0  0  0  0  0  0  0  0
   11.5265  -16.0892   29.7165 C   0  0  0  0  0  0  0  0  0  0  0  0
   10.5325  -16.3023   27.4436 C   0  0  2  0  0  0  0  0  0  0  0  0
    9.5271  -15.6716   26.5643 N   0  0  0  0  0  0  0  0  0  0  0  0
   10.2137  -17.7196   27.6002 C   0  0  0  0  0  0  0  0  0  0  0  0
   11.2111  -18.6892   27.7502 O   0  0  0  0  0  0  0  0  0  0  0  0
    9.0339  -18.1414   27.6085 O   0  0  0  0  0  0  0  0  0  0  0  0
  2  3  2  0
  2  1  1  0
  4  2  1  0
  5  4  1  0
  6  5  1  0
  6  7  1  1
  8  9  2  0
  8  6  1  0
 10 11  1  0
 11 12  1  0
 13 12  1  0
 14 13  1  1
 14 15  1  0
 15  8  1  0
 16 14  1  0
 16 17  2  0
 19 20  1  0
 19 18  1  0
 20 21  1  6
 20 22  1  0
 22 23  1  6
 22 24  1  0
 23 16  1  0
 24 25  1  0
 26 24  2  0
M  END
$$$$
