QMI.pdb
     RDKit          3D

 26 25  0  0  1  0  0  0  0  0999 V2000
    9.3194  -17.2506   17.7823 N   0  0  0  0  0  0  0  0  0  0  0  0
    8.0756  -17.8726   18.1569 C   0  0  0  0  0  0  0  0  0  0  0  0
    7.1106  -17.6532   17.4080 O   0  0  0  0  0  0  0  0  0  0  0  0
    7.9981  -18.6984   19.3543 C   0  0  0  0  0  0  0  0  0  0  0  0
    9.2939  -18.8439   20.0780 C   0  0  0  0  0  0  0  0  0  0  0  0
    9.1235  -18.7130   21.5438 C   0  0  2  0  0  0  0  0  0  0  0  0
    7.7886  -18.8470   22.0476 N   0  0  0  0  0  0  0  0  0  0  0  0
    9.6307  -17.3941   22.0544 C   0  0  0  0  0  0  0  0  0  0  0  0
   10.8082  -16.9939   21.8633 O   0  0  0  0  0  0  0  0  0  0  0  0
    5.7090  -13.9138   25.5983 C   0  0  0  0  0  0  0  0  0  0  0  0
    6.7657  -12.5417   25.1303 S   0  0  0  0  0  0  0  0  0  0  0  0
    8.3156  -13.1388   24.3587 C   0  0  0  0  0  0  0  0  0  0  0  0
    8.0594  -14.5166   23.8270 C   0  0  0  0  0  0  0  0  0  0  0  0
    9.2707  -15.2373   23.3298 C   0  0  2  0  0  0  0  0  0  0  0  0
    8.7851  -16.5169   22.7940 N   0  0  0  0  0  0  0  0  0  0  0  0
   10.2614  -15.5508   24.4041 C   0  0  0  0  0  0  0  0  0  0  0  0
   11.3537  -14.9343   24.4310 O   0  0  0  0  0  0  0  0  0  0  0  0
   10.2242  -14.0030   29.5933 C   0  0  0  0  0  0  0  0  0  0  0  0
   10.9524  -14.8015   28.5753 C   0  0  0  0  0  0  0  0  0  0  0  0
   10.2233  -15.2169   27.3658 C   0  0  2  0  0  0  0  0  0  0  0  0
    8.7197  -15.1358   27.4516 C   0  0  0  0  0  0  0  0  0  0  0  0
   10.6993  -16.4344   26.6807 C   0  0  2  0  0  0  0  0  0  0  0  0
    9.9962  -16.5208   25.3846 N   0  0  0  0  0  0  0  0  0  0  0  0
   10.5785  -17.7116   27.3801 C   0  0  0  0  0  0  0  0  0  0  0  0
   11.5410  -18.1454   28.2980 O   0  0  0  0  0  0  0  0  0  0  0  0
    9.6095  -18.4843   27.1959 O   0  0  0  0  0  0  0  0  0  0  0  0
  2  3  2  0
  2  1  1  0
  4  2  1  0
  5  4  1  0
  6  5  1  0
  6  7  1  6
  8  9  2  0
  8  6  1  0
 10 11  1  0
 11 12  1  0
 13 12  1  0
 14 13  1  1
 14 15  1  0
 15  8  1  0
 16 14  1  0
 16 17  2  0
 19 20  1  0
 19 18  1  0
 20 21  1  1
 20 22  1  0
 22 23  1  6
 22 24  1  0
 23 16  1  0
 24 25  1  0
 26 24  2  0
M  END
$$$$
