QMI.pdb
     RDKit          3D

 26 25  0  0  1  0  0  0  0  0999 V2000
   13.0004  -14.2165   19.7813 N   0  0  0  0  0  0  0  0  0  0  0  0
   11.8069  -14.7898   19.2147 C   0  0  0  0  0  0  0  0  0  0  0  0
   11.4090  -14.2806   18.1552 O   0  0  0  0  0  0  0  0  0  0  0  0
   11.1357  -15.8976   19.8811 C   0  0  0  0  0  0  0  0  0  0  0  0
   11.8107  -16.3557   21.1294 C   0  0  0  0  0  0  0  0  0  0  0  0
   11.1475  -17.5472   21.7085 C   0  0  2  0  0  0  0  0  0  0  0  0
   10.4530  -18.4021   20.7917 N   0  0  0  0  0  0  0  0  0  0  0  0
   10.1501  -17.1771   22.7695 C   0  0  0  0  0  0  0  0  0  0  0  0
    8.9063  -17.2500   22.5939 O   0  0  0  0  0  0  0  0  0  0  0  0
   11.3837  -14.2231   29.0928 C   0  0  0  0  0  0  0  0  0  0  0  0
   10.7538  -15.9009   29.0159 S   0  0  0  0  0  0  0  0  0  0  0  0
    9.5896  -16.1028   27.6166 C   0  0  0  0  0  0  0  0  0  0  0  0
   10.4013  -16.3227   26.3758 C   0  0  0  0  0  0  0  0  0  0  0  0
    9.6153  -16.3608   25.1051 C   0  0  2  0  0  0  0  0  0  0  0  0
   10.5745  -16.7170   24.0500 N   0  0  0  0  0  0  0  0  0  0  0  0
    9.0147  -15.0430   24.7354 C   0  0  0  0  0  0  0  0  0  0  0  0
    9.7689  -14.0666   24.5079 O   0  0  0  0  0  0  0  0  0  0  0  0
    7.1012  -13.1975   20.6973 C   0  0  0  0  0  0  0  0  0  0  0  0
    7.5603  -13.4443   22.0875 C   0  0  0  0  0  0  0  0  0  0  0  0
    6.5814  -13.3050   23.1780 C   0  0  2  0  0  0  0  0  0  0  0  0
    5.6301  -12.1411   23.0545 C   0  0  0  0  0  0  0  0  0  0  0  0
    7.0771  -13.5041   24.5538 C   0  0  2  0  0  0  0  0  0  0  0  0
    7.6240  -14.8737   24.6371 N   0  0  0  0  0  0  0  0  0  0  0  0
    6.1472  -13.2889   25.6601 C   0  0  0  0  0  0  0  0  0  0  0  0
    5.8526  -12.0079   26.1392 O   0  0  0  0  0  0  0  0  0  0  0  0
    5.5658  -14.2369   26.2373 O   0  0  0  0  0  0  0  0  0  0  0  0
  2  3  2  0
  2  1  1  0
  4  2  1  0
  5  4  1  0
  6  5  1  0
  6  7  1  6
  8  9  2  0
  8  6  1  0
 10 11  1  0
 11 12  1  0
 13 12  1  0
 14 13  1  1
 14 15  1  0
 15  8  1  0
 16 14  1  0
 16 17  2  0
 19 20  1  0
 19 18  1  0
 20 21  1  1
 20 22  1  0
 22 23  1  6
 22 24  1  0
 23 16  1  0
 24 25  1  0
 26 24  2  0
M  END
$$$$
