QMI.pdb
     RDKit          3D

 26 25  0  0  1  0  0  0  0  0999 V2000
   11.4647  -18.1249   17.5153 N   0  0  0  0  0  0  0  0  0  0  0  0
   10.5839  -19.2055   17.8766 C   0  0  0  0  0  0  0  0  0  0  0  0
   10.4064  -20.0755   17.0095 O   0  0  0  0  0  0  0  0  0  0  0  0
    9.9561  -19.2340   19.1907 C   0  0  0  0  0  0  0  0  0  0  0  0
   10.2001  -18.0110   20.0083 C   0  0  0  0  0  0  0  0  0  0  0  0
    9.7054  -18.1685   21.3958 C   0  0  2  0  0  0  0  0  0  0  0  0
    8.3265  -18.5286   21.5468 N   0  0  0  0  0  0  0  0  0  0  0  0
    9.9010  -16.9203   22.2089 C   0  0  0  0  0  0  0  0  0  0  0  0
   11.0158  -16.3490   22.3272 O   0  0  0  0  0  0  0  0  0  0  0  0
    5.8218  -11.6969   26.5612 C   0  0  0  0  0  0  0  0  0  0  0  0
    6.0840  -13.3109   25.8234 S   0  0  0  0  0  0  0  0  0  0  0  0
    7.4487  -13.2623   24.6031 C   0  0  0  0  0  0  0  0  0  0  0  0
    7.5658  -14.6272   23.9948 C   0  0  0  0  0  0  0  0  0  0  0  0
    8.9473  -15.0171   23.5786 C   0  0  2  0  0  0  0  0  0  0  0  0
    8.8113  -16.3127   22.8981 N   0  0  0  0  0  0  0  0  0  0  0  0
    9.8836  -15.2126   24.7271 C   0  0  0  0  0  0  0  0  0  0  0  0
   10.9547  -14.5604   24.7640 O   0  0  0  0  0  0  0  0  0  0  0  0
   10.4480  -12.8569   28.5354 C   0  0  0  0  0  0  0  0  0  0  0  0
   10.6415  -13.9035   27.5004 C   0  0  0  0  0  0  0  0  0  0  0  0
   10.3706  -15.3031   27.8677 C   0  0  2  0  0  0  0  0  0  0  0  0
   10.8629  -15.7261   29.2291 C   0  0  0  0  0  0  0  0  0  0  0  0
   10.5957  -16.3253   26.8272 C   0  0  2  0  0  0  0  0  0  0  0  0
    9.5906  -16.1108   25.7662 N   0  0  0  0  0  0  0  0  0  0  0  0
   10.5820  -17.7307   27.2264 C   0  0  0  0  0  0  0  0  0  0  0  0
   11.6713  -18.3264   27.8713 O   0  0  0  0  0  0  0  0  0  0  0  0
    9.5972  -18.4755   27.0132 O   0  0  0  0  0  0  0  0  0  0  0  0
  2  3  2  0
  2  1  1  0
  4  2  1  0
  5  4  1  0
  6  5  1  0
  6  7  1  6
  8  9  2  0
  8  6  1  0
 10 11  1  0
 11 12  1  0
 13 12  1  0
 14 13  1  1
 14 15  1  0
 15  8  1  0
 16 14  1  0
 16 17  2  0
 19 20  1  0
 19 18  1  0
 20 21  1  1
 20 22  1  0
 22 23  1  6
 22 24  1  0
 23 16  1  0
 24 25  1  0
 26 24  2  0
M  END
$$$$
