GNM.pdb
     RDKit          3D

 21 20  0  0  1  0  0  0  0  0999 V2000
   29.7011  -34.1396   -5.4441 N   0  0  0  0  0  0  0  0  0  0  0  0
   28.8346  -34.9366   -4.6291 C   0  0  0  0  0  0  0  0  0  0  0  0
   28.1115  -34.0911   -3.6336 C   0  0  0  0  0  0  0  0  0  0  0  0
   28.3690  -32.8643   -3.5156 O   0  0  0  0  0  0  0  0  0  0  0  0
   24.5532  -31.8079   -2.5408 N   0  0  0  0  0  0  0  0  0  0  0  0
   24.0060  -33.1625   -2.4507 C   0  0  0  0  0  0  0  0  0  0  0  0
   22.8092  -33.2228   -2.7310 O   0  0  0  0  0  0  0  0  0  0  0  0
   24.9586  -34.1681   -2.0543 C   0  0  0  0  0  0  0  0  0  0  0  0
   26.3785  -33.8170   -1.7929 C   0  0  2  0  0  0  0  0  0  0  0  0
   27.1179  -34.6536   -2.7987 N   0  0  0  0  0  0  0  0  0  0  0  0
   26.9064  -34.2261   -0.4737 C   0  0  0  0  0  0  0  0  0  0  0  0
   27.2111  -35.4650   -0.2570 O   0  0  0  0  0  0  0  0  0  0  0  0
   27.9758  -31.0405    5.8530 C   0  0  0  0  0  0  0  0  0  0  0  0
   29.4263  -31.8260    5.0520 S   0  0  0  0  0  0  0  0  0  0  0  0
   28.8621  -33.1911    4.0174 C   0  0  0  0  0  0  0  0  0  0  0  0
   28.2988  -32.7839    2.7014 C   0  0  0  0  0  0  0  0  0  0  0  0
   27.7711  -33.8903    1.8499 C   0  0  2  0  0  0  0  0  0  0  0  0
   27.1341  -33.3751    0.6362 N   0  0  0  0  0  0  0  0  0  0  0  0
   26.7401  -34.6880    2.5502 C   0  0  0  0  0  0  0  0  0  0  0  0
   27.0687  -35.8215    3.3138 O   0  0  0  0  0  0  0  0  0  0  0  0
   25.5086  -34.4027    2.5037 O   0  0  0  0  0  0  0  0  0  0  0  0
  1  2  1  0
  2  3  1  0
  3  4  2  0
  5  6  1  0
  6  8  1  0
  7  6  2  0
  9  8  1  1
  9 11  1  0
 10  3  1  0
 10  9  1  0
 11 12  2  0
 13 14  1  0
 14 15  1  0
 15 16  1  0
 17 16  1  1
 17 19  1  0
 18 11  1  0
 18 17  1  0
 19 21  2  0
 19 20  1  0
M  END
$$$$
