GNM.pdb
     RDKit          3D

 21 20  0  0  1  0  0  0  0  0999 V2000
   20.2188  -14.7379  -17.2950 N   0  0  0  0  0  0  0  0  0  0  0  0
   19.7331  -13.7726  -16.3557 C   0  0  0  0  0  0  0  0  0  0  0  0
   20.0563  -12.3849  -16.8015 C   0  0  0  0  0  0  0  0  0  0  0  0
   20.9616  -12.1703  -17.6497 O   0  0  0  0  0  0  0  0  0  0  0  0
   15.9543   -9.1159  -16.5730 N   0  0  0  0  0  0  0  0  0  0  0  0
   17.2409   -9.2229  -17.2628 C   0  0  0  0  0  0  0  0  0  0  0  0
   17.1293   -9.3578  -18.4810 O   0  0  0  0  0  0  0  0  0  0  0  0
   18.3915   -9.1515  -16.3988 C   0  0  0  0  0  0  0  0  0  0  0  0
   19.6452   -9.8763  -16.7317 C   0  0  2  0  0  0  0  0  0  0  0  0
   19.3487  -11.2778  -16.2776 N   0  0  0  0  0  0  0  0  0  0  0  0
   20.8450   -9.4607  -15.9743 C   0  0  0  0  0  0  0  0  0  0  0  0
   20.8809   -9.6110  -14.6895 O   0  0  0  0  0  0  0  0  0  0  0  0
   26.3672  -12.0463  -15.5218 C   0  0  0  0  0  0  0  0  0  0  0  0
   26.9633  -10.3186  -15.6714 S   0  0  0  0  0  0  0  0  0  0  0  0
   25.6065   -9.1914  -15.2960 C   0  0  0  0  0  0  0  0  0  0  0  0
   24.3217   -9.5154  -15.9738 C   0  0  0  0  0  0  0  0  0  0  0  0
   23.1771   -8.6090  -15.6646 C   0  0  2  0  0  0  0  0  0  0  0  0
   22.0229   -8.8925  -16.5200 N   0  0  0  0  0  0  0  0  0  0  0  0
   23.5175   -7.1865  -15.8890 C   0  0  0  0  0  0  0  0  0  0  0  0
   23.3220   -6.5626  -17.1333 O   0  0  0  0  0  0  0  0  0  0  0  0
   24.0034   -6.4500  -14.9825 O   0  0  0  0  0  0  0  0  0  0  0  0
  1  2  1  0
  2  3  1  0
  3  4  2  0
  5  6  1  0
  6  8  1  0
  7  6  2  0
  9  8  1  1
  9 11  1  0
 10  3  1  0
 10  9  1  0
 11 12  2  0
 13 14  1  0
 14 15  1  0
 15 16  1  0
 17 16  1  6
 17 19  1  0
 18 11  1  0
 18 17  1  0
 19 21  2  0
 19 20  1  0
M  END
$$$$
