GNM.pdb
     RDKit          3D

 21 20  0  0  1  0  0  0  0  0999 V2000
   21.6305  -12.0526  -18.4023 N   0  0  0  0  0  0  0  0  0  0  0  0
   20.8208  -11.2267  -19.2463 C   0  0  0  0  0  0  0  0  0  0  0  0
   20.2924  -10.0506  -18.4936 C   0  0  0  0  0  0  0  0  0  0  0  0
   19.6539   -9.1381  -19.0807 O   0  0  0  0  0  0  0  0  0  0  0  0
   17.0492  -10.4499  -14.9486 N   0  0  0  0  0  0  0  0  0  0  0  0
   18.0024   -9.3963  -14.5966 C   0  0  0  0  0  0  0  0  0  0  0  0
   17.5050   -8.4976  -13.9190 O   0  0  0  0  0  0  0  0  0  0  0  0
   19.3357   -9.6015  -15.1025 C   0  0  0  0  0  0  0  0  0  0  0  0
   19.8245   -8.8617  -16.2949 C   0  0  2  0  0  0  0  0  0  0  0  0
   20.4994   -9.9370  -17.0989 N   0  0  0  0  0  0  0  0  0  0  0  0
   20.8688   -7.8478  -16.0351 C   0  0  0  0  0  0  0  0  0  0  0  0
   22.0864   -8.2205  -15.8043 O   0  0  0  0  0  0  0  0  0  0  0  0
   23.8525   -0.5964  -17.0774 C   0  0  0  0  0  0  0  0  0  0  0  0
   22.4826   -1.7620  -17.4338 S   0  0  0  0  0  0  0  0  0  0  0  0
   22.7296   -3.2727  -16.4803 C   0  0  0  0  0  0  0  0  0  0  0  0
   21.6677   -4.3006  -16.6554 C   0  0  0  0  0  0  0  0  0  0  0  0
   21.8274   -5.5444  -15.8462 C   0  0  2  0  0  0  0  0  0  0  0  0
   20.6834   -6.4431  -16.0135 N   0  0  0  0  0  0  0  0  0  0  0  0
   21.9183   -5.2577  -14.3973 C   0  0  0  0  0  0  0  0  0  0  0  0
   23.1064   -4.7978  -13.8036 O   0  0  0  0  0  0  0  0  0  0  0  0
   20.9406   -5.4094  -13.6091 O   0  0  0  0  0  0  0  0  0  0  0  0
  1  2  1  0
  2  3  1  0
  3  4  2  0
  5  6  1  0
  6  8  1  0
  7  6  2  0
  9  8  1  1
  9 11  1  0
 10  3  1  0
 10  9  1  0
 11 12  2  0
 13 14  1  0
 14 15  1  0
 15 16  1  0
 17 16  1  6
 17 19  1  0
 18 11  1  0
 18 17  1  0
 19 21  2  0
 19 20  1  0
M  END
$$$$
