GNM.pdb
     RDKit          3D

 21 20  0  0  1  0  0  0  0  0999 V2000
   27.9187  -19.3339  -16.1841 N   0  0  0  0  0  0  0  0  0  0  0  0
   28.3234  -19.9735  -14.9686 C   0  0  0  0  0  0  0  0  0  0  0  0
   27.4403  -19.5706  -13.8341 C   0  0  0  0  0  0  0  0  0  0  0  0
   27.4238  -18.3836  -13.4147 O   0  0  0  0  0  0  0  0  0  0  0  0
   23.2113  -20.8789  -14.9427 N   0  0  0  0  0  0  0  0  0  0  0  0
   23.5435  -20.0448  -13.7866 C   0  0  0  0  0  0  0  0  0  0  0  0
   23.1056  -18.8980  -13.8731 O   0  0  0  0  0  0  0  0  0  0  0  0
   24.3146  -20.7117  -12.7686 C   0  0  0  0  0  0  0  0  0  0  0  0
   25.5494  -20.0961  -12.2171 C   0  0  2  0  0  0  0  0  0  0  0  0
   26.6004  -20.5187  -13.2045 N   0  0  0  0  0  0  0  0  0  0  0  0
   25.9989  -20.6234  -10.9110 C   0  0  0  0  0  0  0  0  0  0  0  0
   26.3288  -21.8696  -10.7975 O   0  0  0  0  0  0  0  0  0  0  0  0
   28.6427  -19.8508   -3.4677 C   0  0  0  0  0  0  0  0  0  0  0  0
   28.2845  -19.0053   -5.0549 S   0  0  0  0  0  0  0  0  0  0  0  0
   27.4270  -20.1502   -6.1533 C   0  0  0  0  0  0  0  0  0  0  0  0
   27.2225  -19.6485   -7.5394 C   0  0  0  0  0  0  0  0  0  0  0  0
   26.4700  -20.5560   -8.4546 C   0  0  2  0  0  0  0  0  0  0  0  0
   26.1219  -19.8841   -9.7084 N   0  0  0  0  0  0  0  0  0  0  0  0
   25.1926  -21.0101   -7.8614 C   0  0  0  0  0  0  0  0  0  0  0  0
   25.1382  -22.0581   -6.9263 O   0  0  0  0  0  0  0  0  0  0  0  0
   24.0790  -20.4886   -8.1582 O   0  0  0  0  0  0  0  0  0  0  0  0
  1  2  1  0
  2  3  1  0
  3  4  2  0
  5  6  1  0
  6  8  1  0
  7  6  2  0
  9  8  1  6
  9 11  1  0
 10  3  1  0
 10  9  1  0
 11 12  2  0
 13 14  1  0
 14 15  1  0
 15 16  1  0
 17 16  1  1
 17 19  1  0
 18 11  1  0
 18 17  1  0
 19 21  2  0
 19 20  1  0
M  END
$$$$
