GNM.pdb
     RDKit          3D

 21 20  0  0  1  0  0  0  0  0999 V2000
   29.6461  -20.9941  -14.1037 N   0  0  0  0  0  0  0  0  0  0  0  0
   28.3923  -20.5587  -14.6410 C   0  0  0  0  0  0  0  0  0  0  0  0
   27.4680  -20.1228  -13.5527 C   0  0  0  0  0  0  0  0  0  0  0  0
   27.6929  -19.0753  -12.8914 O   0  0  0  0  0  0  0  0  0  0  0  0
   23.3845  -18.7328  -13.5519 N   0  0  0  0  0  0  0  0  0  0  0  0
   23.0340  -20.1501  -13.4479 C   0  0  0  0  0  0  0  0  0  0  0  0
   21.9386  -20.4172  -13.9411 O   0  0  0  0  0  0  0  0  0  0  0  0
   24.0252  -20.9658  -12.7938 C   0  0  0  0  0  0  0  0  0  0  0  0
   25.2840  -20.3717  -12.2740 C   0  0  2  0  0  0  0  0  0  0  0  0
   26.3154  -20.8811  -13.2410 N   0  0  0  0  0  0  0  0  0  0  0  0
   25.7170  -20.8520  -10.9444 C   0  0  0  0  0  0  0  0  0  0  0  0
   26.0670  -22.0880  -10.7877 O   0  0  0  0  0  0  0  0  0  0  0  0
   29.0925  -19.8613   -3.9206 C   0  0  0  0  0  0  0  0  0  0  0  0
   28.1935  -18.9873   -5.2587 S   0  0  0  0  0  0  0  0  0  0  0  0
   27.3415  -20.1994   -6.2870 C   0  0  0  0  0  0  0  0  0  0  0  0
   26.9408  -19.7037   -7.6319 C   0  0  0  0  0  0  0  0  0  0  0  0
   26.2284  -20.6859   -8.5009 C   0  0  2  0  0  0  0  0  0  0  0  0
   25.8029  -20.0756   -9.7621 N   0  0  0  0  0  0  0  0  0  0  0  0
   25.0008  -21.2078   -7.8602 C   0  0  0  0  0  0  0  0  0  0  0  0
   23.7214  -20.9424   -8.3784 O   0  0  0  0  0  0  0  0  0  0  0  0
   25.0264  -21.9180   -6.8137 O   0  0  0  0  0  0  0  0  0  0  0  0
  1  2  1  0
  2  3  1  0
  3  4  2  0
  5  6  1  0
  6  8  1  0
  7  6  2  0
  9  8  1  6
  9 11  1  0
 10  3  1  0
 10  9  1  0
 11 12  2  0
 13 14  1  0
 14 15  1  0
 15 16  1  0
 17 16  1  1
 17 19  1  0
 18 11  1  0
 18 17  1  0
 19 21  2  0
 19 20  1  0
M  END
$$$$
