GNM.pdb
     RDKit          3D

 21 20  0  0  1  0  0  0  0  0999 V2000
   29.0209  -22.3251  -15.1519 N   0  0  0  0  0  0  0  0  0  0  0  0
   28.6253  -21.1320  -14.4660 C   0  0  0  0  0  0  0  0  0  0  0  0
   27.1525  -21.1206  -14.2218 C   0  0  0  0  0  0  0  0  0  0  0  0
   26.3490  -21.5705  -15.0804 O   0  0  0  0  0  0  0  0  0  0  0  0
   25.6398  -21.6251   -9.1418 N   0  0  0  0  0  0  0  0  0  0  0  0
   25.4089  -21.8130  -10.5749 C   0  0  0  0  0  0  0  0  0  0  0  0
   25.5546  -22.9786  -10.9419 O   0  0  0  0  0  0  0  0  0  0  0  0
   25.0568  -20.6113  -11.2875 C   0  0  0  0  0  0  0  0  0  0  0  0
   25.1459  -20.5458  -12.7692 C   0  0  2  0  0  0  0  0  0  0  0  0
   26.6273  -20.6016  -13.0154 N   0  0  0  0  0  0  0  0  0  0  0  0
   24.6905  -19.2798  -13.3824 C   0  0  0  0  0  0  0  0  0  0  0  0
   25.3920  -18.2025  -13.2343 O   0  0  0  0  0  0  0  0  0  0  0  0
   25.6422  -14.7487  -16.5266 C   0  0  0  0  0  0  0  0  0  0  0  0
   26.2263  -16.3915  -17.0943 S   0  0  0  0  0  0  0  0  0  0  0  0
   24.8033  -17.4722  -17.3384 C   0  0  0  0  0  0  0  0  0  0  0  0
   24.5927  -18.4777  -16.2616 C   0  0  0  0  0  0  0  0  0  0  0  0
   23.5073  -18.1669  -15.2854 C   0  0  2  0  0  0  0  0  0  0  0  0
   23.5178  -19.1005  -14.1573 N   0  0  0  0  0  0  0  0  0  0  0  0
   22.1633  -18.2721  -15.8956 C   0  0  0  0  0  0  0  0  0  0  0  0
   21.5669  -17.1932  -16.5708 O   0  0  0  0  0  0  0  0  0  0  0  0
   21.4725  -19.3307  -15.8461 O   0  0  0  0  0  0  0  0  0  0  0  0
  1  2  1  0
  2  3  1  0
  3  4  2  0
  5  6  1  0
  6  8  1  0
  7  6  2  0
  9  8  1  1
  9 11  1  0
 10  3  1  0
 10  9  1  0
 11 12  2  0
 13 14  1  0
 14 15  1  0
 15 16  1  0
 17 16  1  6
 17 19  1  0
 18 11  1  0
 18 17  1  0
 19 21  2  0
 19 20  1  0
M  END
$$$$
