GNM.pdb
     RDKit          3D

 21 20  0  0  1  0  0  0  0  0999 V2000
   15.5004  -11.7542  -11.1582 N   0  0  0  0  0  0  0  0  0  0  0  0
   15.9533  -10.3971  -11.2176 C   0  0  0  0  0  0  0  0  0  0  0  0
   16.5360  -10.0873  -12.5568 C   0  0  0  0  0  0  0  0  0  0  0  0
   16.5675  -10.9562  -13.4673 O   0  0  0  0  0  0  0  0  0  0  0  0
   15.5481   -8.4547  -16.1716 N   0  0  0  0  0  0  0  0  0  0  0  0
   15.7596   -7.1790  -15.4858 C   0  0  0  0  0  0  0  0  0  0  0  0
   14.9958   -6.2914  -15.8643 O   0  0  0  0  0  0  0  0  0  0  0  0
   16.8126   -7.1949  -14.5027 C   0  0  0  0  0  0  0  0  0  0  0  0
   17.5616   -8.4428  -14.2030 C   0  0  2  0  0  0  0  0  0  0  0  0
   17.0671   -8.8054  -12.8311 N   0  0  0  0  0  0  0  0  0  0  0  0
   19.0265   -8.2932  -14.0687 C   0  0  0  0  0  0  0  0  0  0  0  0
   19.5210   -7.6868  -13.0380 O   0  0  0  0  0  0  0  0  0  0  0  0
   26.4139  -10.8239  -15.1695 C   0  0  0  0  0  0  0  0  0  0  0  0
   24.6355  -11.0869  -15.5309 S   0  0  0  0  0  0  0  0  0  0  0  0
   23.6987   -9.6568  -14.9570 C   0  0  0  0  0  0  0  0  0  0  0  0
   22.2230   -9.7768  -15.1093 C   0  0  0  0  0  0  0  0  0  0  0  0
   21.4287   -8.5790  -14.7073 C   0  0  2  0  0  0  0  0  0  0  0  0
   20.0023   -8.7654  -14.9812 N   0  0  0  0  0  0  0  0  0  0  0  0
   21.8364   -7.3659  -15.4502 C   0  0  0  0  0  0  0  0  0  0  0  0
   21.3952   -7.1133  -16.7606 O   0  0  0  0  0  0  0  0  0  0  0  0
   22.6028   -6.4889  -14.9565 O   0  0  0  0  0  0  0  0  0  0  0  0
  1  2  1  0
  2  3  1  0
  3  4  2  0
  5  6  1  0
  6  8  1  0
  7  6  2  0
  9  8  1  1
  9 11  1  0
 10  3  1  0
 10  9  1  0
 11 12  2  0
 13 14  1  0
 14 15  1  0
 15 16  1  0
 17 16  1  6
 17 19  1  0
 18 11  1  0
 18 17  1  0
 19 21  2  0
 19 20  1  0
M  END
$$$$
