GNM.pdb
     RDKit          3D

 21 20  0  0  1  0  0  0  0  0999 V2000
   22.9153  -21.7786  -16.9264 N   0  0  0  0  0  0  0  0  0  0  0  0
   23.0734  -21.3549  -15.5678 C   0  0  0  0  0  0  0  0  0  0  0  0
   23.2040  -19.8700  -15.4838 C   0  0  0  0  0  0  0  0  0  0  0  0
   23.3572  -19.2939  -14.3749 O   0  0  0  0  0  0  0  0  0  0  0  0
   24.3017  -15.6270  -19.6232 N   0  0  0  0  0  0  0  0  0  0  0  0
   24.4026  -15.9263  -18.1939 C   0  0  0  0  0  0  0  0  0  0  0  0
   24.7634  -14.9621  -17.5198 O   0  0  0  0  0  0  0  0  0  0  0  0
   24.0646  -17.2815  -17.8405 C   0  0  0  0  0  0  0  0  0  0  0  0
   23.3191  -17.5837  -16.5912 C   0  0  2  0  0  0  0  0  0  0  0  0
   23.1579  -19.0765  -16.6538 N   0  0  0  0  0  0  0  0  0  0  0  0
   21.9459  -17.0403  -16.5180 C   0  0  0  0  0  0  0  0  0  0  0  0
   20.9920  -17.6063  -17.1847 O   0  0  0  0  0  0  0  0  0  0  0  0
   18.0135  -18.5609  -11.6825 C   0  0  0  0  0  0  0  0  0  0  0  0
   18.4401  -16.8467  -12.1743 S   0  0  0  0  0  0  0  0  0  0  0  0
   19.1644  -16.8692  -13.8258 C   0  0  0  0  0  0  0  0  0  0  0  0
   19.5758  -15.5361  -14.3439 C   0  0  0  0  0  0  0  0  0  0  0  0
   20.1216  -15.5188  -15.7328 C   0  0  2  0  0  0  0  0  0  0  0  0
   21.5303  -15.9176  -15.7600 N   0  0  0  0  0  0  0  0  0  0  0  0
   20.0631  -14.1691  -16.3369 C   0  0  0  0  0  0  0  0  0  0  0  0
   18.8617  -13.6220  -16.8195 O   0  0  0  0  0  0  0  0  0  0  0  0
   21.0831  -13.4307  -16.4570 O   0  0  0  0  0  0  0  0  0  0  0  0
  1  2  1  0
  2  3  1  0
  3  4  2  0
  5  6  1  0
  6  8  1  0
  7  6  2  0
  9  8  1  6
  9 11  1  0
 10  3  1  0
 10  9  1  0
 11 12  2  0
 13 14  1  0
 14 15  1  0
 15 16  1  0
 17 16  1  1
 17 19  1  0
 18 11  1  0
 18 17  1  0
 19 21  2  0
 19 20  1  0
M  END
$$$$
