KHD.pdb
     RDKit          3D

 28 28  0  0  1  0  0  0  0  0999 V2000
    9.3147  -17.8466   17.0076 N   0  0  0  0  0  0  0  0  0  0  0  0
    8.7274  -18.1205   18.3044 C   0  0  1  0  0  0  0  0  0  0  0  0
    9.1513  -19.5290   18.6682 C   0  0  0  0  0  0  0  0  0  0  0  0
   10.5826  -19.8017   18.3834 C   0  0  0  0  0  0  0  0  0  0  0  0
   11.0997  -21.1457   18.7374 C   0  0  0  0  0  0  0  0  0  0  0  0
   12.5776  -21.3395   18.5361 C   0  0  0  0  0  0  0  0  0  0  0  0
   13.0859  -22.6008   18.9940 N   0  0  0  0  0  0  0  0  0  0  0  0
    9.3314  -17.2203   19.3140 C   0  0  0  0  0  0  0  0  0  0  0  0
   10.4911  -16.7904   19.1109 O   0  0  0  0  0  0  0  0  0  0  0  0
    8.6656  -16.8200   20.4975 N   0  0  0  0  0  0  0  0  0  0  0  0
    9.2615  -15.9140   21.4225 C   0  0  1  0  0  0  0  0  0  0  0  0
    8.4270  -14.7268   21.7552 C   0  0  0  0  0  0  0  0  0  0  0  0
    7.9905  -13.9160   20.6010 C   0  0  0  0  0  0  0  0  0  0  0  0
    6.7120  -13.8475   20.1005 C   0  0  0  0  0  0  0  0  0  0  0  0
    6.7291  -12.9869   19.0464 N   0  0  0  0  0  0  0  0  0  0  0  0
    7.9681  -12.5238   18.8799 C   0  0  0  0  0  0  0  0  0  0  0  0
    8.7221  -13.0885   19.8206 N   0  0  0  0  0  0  0  0  0  0  0  0
    9.8433  -16.5942   22.6105 C   0  0  0  0  0  0  0  0  0  0  0  0
    9.1302  -17.0442   23.5439 O   0  0  0  0  0  0  0  0  0  0  0  0
   11.2546  -16.7738   22.7620 N   0  0  0  0  0  0  0  0  0  0  0  0
   11.8904  -17.4417   23.8511 C   0  0  1  0  0  0  0  0  0  0  0  0
   12.2959  -18.8563   23.6070 C   0  0  0  0  0  0  0  0  0  0  0  0
   12.9927  -19.5112   24.7283 C   0  0  0  0  0  0  0  0  0  0  0  0
   14.2190  -19.7809   24.7214 O   0  0  0  0  0  0  0  0  0  0  0  0
   13.1314  -16.7355   24.2980 C   0  0  0  0  0  0  0  0  0  0  0  0
   13.7044  -17.0244   25.5049 O   0  0  0  0  0  0  0  0  0  0  0  0
   12.2838  -19.8613   25.8671 O   0  0  0  0  0  0  0  0  0  0  0  0
   13.6264  -15.8830   23.5478 O   0  0  0  0  0  0  0  0  0  0  0  0
  2  1  1  6
  2  3  1  0
  4  3  1  0
  5  4  1  0
  6  5  1  0
  7  6  1  0
  8  9  2  0
  8  2  1  0
 10  8  1  0
 11 10  1  0
 11 12  1  1
 12 13  1  0
 13 17  1  0
 13 14  2  0
 14 15  1  0
 16 15  1  0
 17 16  2  0
 18 20  1  0
 18 11  1  0
 19 18  2  0
 21 25  1  0
 21 20  1  0
 21 22  1  6
 22 23  1  0
 23 27  1  0
 23 24  2  0
 25 26  1  0
 28 25  2  0
M  END
$$$$
