KHD.pdb
     RDKit          3D

 28 28  0  0  1  0  0  0  0  0999 V2000
    8.7985  -16.5470   17.9155 N   0  0  0  0  0  0  0  0  0  0  0  0
    9.3894  -15.3635   18.5087 C   0  0  1  0  0  0  0  0  0  0  0  0
    8.4904  -14.2067   18.1222 C   0  0  0  0  0  0  0  0  0  0  0  0
    7.8285  -14.3935   16.8066 C   0  0  0  0  0  0  0  0  0  0  0  0
    8.3045  -13.5510   15.6829 C   0  0  0  0  0  0  0  0  0  0  0  0
    7.5795  -13.7477   14.3799 C   0  0  0  0  0  0  0  0  0  0  0  0
    8.0018  -12.8771   13.3203 N   0  0  0  0  0  0  0  0  0  0  0  0
    9.3288  -15.4747   19.9846 C   0  0  0  0  0  0  0  0  0  0  0  0
    9.7236  -14.5037   20.6719 O   0  0  0  0  0  0  0  0  0  0  0  0
    8.8473  -16.6222   20.6596 N   0  0  0  0  0  0  0  0  0  0  0  0
    8.8294  -16.7020   22.0827 C   0  0  1  0  0  0  0  0  0  0  0  0
    7.5554  -17.2111   22.6607 C   0  0  0  0  0  0  0  0  0  0  0  0
    6.3238  -16.7096   22.0190 C   0  0  0  0  0  0  0  0  0  0  0  0
    5.9808  -15.3888   21.8532 C   0  0  0  0  0  0  0  0  0  0  0  0
    4.7807  -15.3534   21.2123 N   0  0  0  0  0  0  0  0  0  0  0  0
    4.3732  -16.6008   20.9778 C   0  0  0  0  0  0  0  0  0  0  0  0
    5.3086  -17.4121   21.4670 N   0  0  0  0  0  0  0  0  0  0  0  0
   10.0466  -17.3462   22.6446 C   0  0  0  0  0  0  0  0  0  0  0  0
   10.4153  -18.4994   22.3035 O   0  0  0  0  0  0  0  0  0  0  0  0
   10.8703  -16.6892   23.6125 N   0  0  0  0  0  0  0  0  0  0  0  0
   12.0334  -17.2470   24.2227 C   0  0  1  0  0  0  0  0  0  0  0  0
   13.2938  -16.4634   24.0714 C   0  0  0  0  0  0  0  0  0  0  0  0
   13.7788  -16.3170   22.6876 C   0  0  0  0  0  0  0  0  0  0  0  0
   13.3420  -16.9925   21.7235 O   0  0  0  0  0  0  0  0  0  0  0  0
   11.8559  -17.4491   25.6944 C   0  0  0  0  0  0  0  0  0  0  0  0
   12.7889  -18.1309   26.4245 O   0  0  0  0  0  0  0  0  0  0  0  0
   14.7708  -15.3917   22.4016 O   0  0  0  0  0  0  0  0  0  0  0  0
   10.8429  -16.9837   26.2348 O   0  0  0  0  0  0  0  0  0  0  0  0
  2  1  1  6
  2  3  1  0
  4  3  1  0
  5  4  1  0
  6  5  1  0
  7  6  1  0
  8  9  2  0
  8  2  1  0
 10  8  1  0
 11 10  1  0
 11 12  1  6
 12 13  1  0
 13 17  1  0
 13 14  2  0
 14 15  1  0
 16 15  1  0
 17 16  2  0
 18 20  1  0
 18 11  1  0
 19 18  2  0
 21 25  1  0
 21 20  1  0
 21 22  1  1
 22 23  1  0
 23 27  1  0
 23 24  2  0
 25 26  1  0
 28 25  2  0
M  END
$$$$
