KHD.pdb
     RDKit          3D

 28 28  0  0  1  0  0  0  0  0999 V2000
   10.0129  -16.4701   19.1306 N   0  0  0  0  0  0  0  0  0  0  0  0
    8.9284  -16.7939   20.0366 C   0  0  1  0  0  0  0  0  0  0  0  0
    9.1662  -18.2224   20.4825 C   0  0  0  0  0  0  0  0  0  0  0  0
    8.9519  -19.2168   19.4012 C   0  0  0  0  0  0  0  0  0  0  0  0
    7.5492  -19.5200   19.0278 C   0  0  0  0  0  0  0  0  0  0  0  0
    7.3780  -20.5996   17.9947 C   0  0  0  0  0  0  0  0  0  0  0  0
    8.2450  -21.7311   18.1589 N   0  0  0  0  0  0  0  0  0  0  0  0
    9.0342  -15.9471   21.2475 C   0  0  0  0  0  0  0  0  0  0  0  0
   10.1695  -15.7546   21.7424 O   0  0  0  0  0  0  0  0  0  0  0  0
    7.9181  -15.3431   21.8748 N   0  0  0  0  0  0  0  0  0  0  0  0
    8.0008  -14.8006   23.1904 C   0  0  1  0  0  0  0  0  0  0  0  0
    6.7530  -14.1472   23.6729 C   0  0  0  0  0  0  0  0  0  0  0  0
    6.8233  -13.5731   25.0313 C   0  0  0  0  0  0  0  0  0  0  0  0
    7.4429  -12.3961   25.3787 C   0  0  0  0  0  0  0  0  0  0  0  0
    7.2725  -12.2219   26.7177 N   0  0  0  0  0  0  0  0  0  0  0  0
    6.5724  -13.2457   27.2064 C   0  0  0  0  0  0  0  0  0  0  0  0
    6.3057  -14.0554   26.1839 N   0  0  0  0  0  0  0  0  0  0  0  0
    8.6069  -15.7410   24.1704 C   0  0  0  0  0  0  0  0  0  0  0  0
    8.2354  -16.9385   24.2716 O   0  0  0  0  0  0  0  0  0  0  0  0
    9.6503  -15.3347   25.0610 N   0  0  0  0  0  0  0  0  0  0  0  0
   10.2960  -16.1760   26.0159 C   0  0  1  0  0  0  0  0  0  0  0  0
   11.7859  -16.2168   25.9535 C   0  0  0  0  0  0  0  0  0  0  0  0
   12.3468  -17.1777   24.9872 C   0  0  0  0  0  0  0  0  0  0  0  0
   11.6463  -17.9633   24.3026 O   0  0  0  0  0  0  0  0  0  0  0  0
    9.9594  -15.7935   27.4226 C   0  0  0  0  0  0  0  0  0  0  0  0
   10.2650  -16.6230   28.4652 O   0  0  0  0  0  0  0  0  0  0  0  0
   13.7190  -17.2424   24.8005 O   0  0  0  0  0  0  0  0  0  0  0  0
    9.3974  -14.7071   27.6191 O   0  0  0  0  0  0  0  0  0  0  0  0
  2  1  1  6
  2  3  1  0
  4  3  1  0
  5  4  1  0
  6  5  1  0
  7  6  1  0
  8  9  2  0
  8  2  1  0
 10  8  1  0
 11 10  1  0
 11 12  1  1
 12 13  1  0
 13 17  1  0
 13 14  2  0
 14 15  1  0
 16 15  1  0
 17 16  2  0
 18 20  1  0
 18 11  1  0
 19 18  2  0
 21 25  1  0
 21 20  1  0
 21 22  1  1
 22 23  1  0
 23 27  1  0
 23 24  2  0
 25 26  1  0
 28 25  2  0
M  END
$$$$
