KHD.pdb
     RDKit          3D

 28 28  0  0  1  0  0  0  0  0999 V2000
    8.9437  -18.8191   18.0697 N   0  0  0  0  0  0  0  0  0  0  0  0
   10.0235  -17.9242   17.7025 C   0  0  1  0  0  0  0  0  0  0  0  0
    9.4831  -17.0483   16.5905 C   0  0  0  0  0  0  0  0  0  0  0  0
    8.4528  -17.7231   15.7617 C   0  0  0  0  0  0  0  0  0  0  0  0
    8.7263  -17.8479   14.3096 C   0  0  0  0  0  0  0  0  0  0  0  0
    7.6037  -18.4240   13.4910 C   0  0  0  0  0  0  0  0  0  0  0  0
    7.8233  -18.4054   12.0732 N   0  0  0  0  0  0  0  0  0  0  0  0
   10.3238  -17.0274   18.8427 C   0  0  0  0  0  0  0  0  0  0  0  0
   11.3938  -16.3750   18.8217 O   0  0  0  0  0  0  0  0  0  0  0  0
    9.4635  -16.8688   19.9558 N   0  0  0  0  0  0  0  0  0  0  0  0
    9.8158  -16.0437   21.0634 C   0  0  1  0  0  0  0  0  0  0  0  0
    8.6857  -15.2683   21.6451 C   0  0  0  0  0  0  0  0  0  0  0  0
    7.9645  -14.3937   20.6990 C   0  0  0  0  0  0  0  0  0  0  0  0
    8.2692  -13.0827   20.4197 C   0  0  0  0  0  0  0  0  0  0  0  0
    7.3748  -12.6414   19.4937 N   0  0  0  0  0  0  0  0  0  0  0  0
    6.5327  -13.6302   19.1931 C   0  0  0  0  0  0  0  0  0  0  0  0
    6.8948  -14.6826   19.9237 N   0  0  0  0  0  0  0  0  0  0  0  0
   10.6459  -16.7508   22.0749 C   0  0  0  0  0  0  0  0  0  0  0  0
   10.4359  -17.9479   22.3991 O   0  0  0  0  0  0  0  0  0  0  0  0
   11.7343  -16.1059   22.7430 N   0  0  0  0  0  0  0  0  0  0  0  0
   12.7547  -16.7678   23.4892 C   0  0  1  0  0  0  0  0  0  0  0  0
   14.1133  -16.1546   23.4307 C   0  0  0  0  0  0  0  0  0  0  0  0
   15.1520  -16.8566   24.2053 C   0  0  0  0  0  0  0  0  0  0  0  0
   15.3556  -18.0935   24.1324 O   0  0  0  0  0  0  0  0  0  0  0  0
   12.4162  -16.8653   24.9433 C   0  0  0  0  0  0  0  0  0  0  0  0
   13.0943  -17.7232   25.7634 O   0  0  0  0  0  0  0  0  0  0  0  0
   15.9653  -16.1409   25.0703 O   0  0  0  0  0  0  0  0  0  0  0  0
   11.5067  -16.1498   25.3855 O   0  0  0  0  0  0  0  0  0  0  0  0
  2  1  1  1
  2  3  1  0
  4  3  1  0
  5  4  1  0
  6  5  1  0
  7  6  1  0
  8  9  2  0
  8  2  1  0
 10  8  1  0
 11 10  1  0
 11 12  1  1
 12 13  1  0
 13 17  1  0
 13 14  2  0
 14 15  1  0
 16 15  1  0
 17 16  2  0
 18 20  1  0
 18 11  1  0
 19 18  2  0
 21 25  1  0
 21 20  1  0
 21 22  1  1
 22 23  1  0
 23 27  1  0
 23 24  2  0
 25 26  1  0
 28 25  2  0
M  END
$$$$
