TNR.pdb
     RDKit          3D

 27 26  0  0  1  0  0  0  0  0999 V2000
   33.7895  -11.8511  -21.3614 C   0  0  0  0  0  0  0  0  0  0  0  0
   33.4275  -13.2480  -20.9039 C   0  0  1  0  0  0  0  0  0  0  0  0
   34.2469  -14.1139  -21.6600 O   0  0  0  0  0  0  0  0  0  0  0  0
   33.8521  -13.4187  -19.4610 C   0  0  2  0  0  0  0  0  0  0  0  0
   33.7135  -14.7788  -19.0133 N   0  0  0  0  0  0  0  0  0  0  0  0
   33.0866  -12.5388  -18.5499 C   0  0  0  0  0  0  0  0  0  0  0  0
   31.9684  -12.8687  -18.0517 O   0  0  0  0  0  0  0  0  0  0  0  0
   32.1325   -7.8546  -16.0387 N   0  0  0  0  0  0  0  0  0  0  0  0
   33.5009   -8.0722  -16.3610 C   0  0  0  0  0  0  0  0  0  0  0  0
   34.3265   -7.2138  -15.9946 O   0  0  0  0  0  0  0  0  0  0  0  0
   33.9264   -9.2500  -17.0917 C   0  0  0  0  0  0  0  0  0  0  0  0
   32.9148  -10.3153  -17.3363 C   0  0  2  0  0  0  0  0  0  0  0  0
   33.6021  -11.2879  -18.2122 N   0  0  0  0  0  0  0  0  0  0  0  0
   31.7669   -9.8047  -18.1043 C   0  0  0  0  0  0  0  0  0  0  0  0
   31.9802   -9.5608  -19.3520 O   0  0  0  0  0  0  0  0  0  0  0  0
   23.1578  -11.4497  -18.5507 N   0  0  0  0  0  0  0  0  0  0  0  0
   23.4824  -10.7587  -19.7531 C   0  0  0  0  0  0  0  0  0  0  0  0
   22.5937  -10.6379  -20.6719 N   0  0  0  0  0  0  0  0  0  0  0  0
   24.7880  -10.2294  -19.8770 N   0  0  0  0  0  0  0  0  0  0  0  0
   25.8065  -10.5107  -18.8957 C   0  0  0  0  0  0  0  0  0  0  0  0
   27.0890   -9.7620  -19.2524 C   0  0  0  0  0  0  0  0  0  0  0  0
   28.1911  -10.0800  -18.2923 C   0  0  0  0  0  0  0  0  0  0  0  0
   29.4088   -9.2693  -18.5624 C   0  0  2  0  0  0  0  0  0  0  0  0
   30.4602   -9.5687  -17.5853 N   0  0  0  0  0  0  0  0  0  0  0  0
   29.1303   -7.8301  -18.5180 C   0  0  0  0  0  0  0  0  0  0  0  0
   28.4108   -7.2089  -19.3552 O   0  0  0  0  0  0  0  0  0  0  0  0
   29.6780   -7.0359  -17.4922 O   0  0  0  0  0  0  0  0  0  0  0  0
  2  1  1  6
  2  4  1  0
  3  2  1  0
  4  6  1  0
  4  5  1  1
  6  7  2  0
  8  9  1  0
  9 11  1  0
 10  9  2  0
 12 11  1  6
 13 12  1  0
 13  6  1  0
 14 15  2  0
 14 12  1  0
 16 17  1  0
 17 19  1  0
 18 17  2  0
 19 20  1  0
 21 20  1  0
 21 22  1  0
 23 22  1  1
 23 25  1  0
 23 24  1  0
 24 14  1  0
 25 27  1  0
 26 25  2  0
M  END
$$$$
