TNR.pdb
     RDKit          3D

 27 26  0  0  1  0  0  0  0  0999 V2000
   28.1969  -20.3701  -15.9463 C   0  0  0  0  0  0  0  0  0  0  0  0
   27.0057  -19.6965  -15.2989 C   0  0  1  0  0  0  0  0  0  0  0  0
   26.6964  -18.6001  -16.1326 O   0  0  0  0  0  0  0  0  0  0  0  0
   25.8151  -20.6287  -15.3692 C   0  0  2  0  0  0  0  0  0  0  0  0
   25.4625  -20.9550  -16.7251 N   0  0  0  0  0  0  0  0  0  0  0  0
   24.6267  -20.0623  -14.6929 C   0  0  0  0  0  0  0  0  0  0  0  0
   24.6210  -19.7376  -13.4673 O   0  0  0  0  0  0  0  0  0  0  0  0
   20.2865  -16.3293  -16.0313 N   0  0  0  0  0  0  0  0  0  0  0  0
   20.4463  -17.7135  -15.7444 C   0  0  0  0  0  0  0  0  0  0  0  0
   19.4594  -18.3312  -15.3003 O   0  0  0  0  0  0  0  0  0  0  0  0
   21.7119  -18.3878  -15.9583 C   0  0  0  0  0  0  0  0  0  0  0  0
   22.2238  -19.2610  -14.8657 C   0  0  2  0  0  0  0  0  0  0  0  0
   23.4522  -19.8692  -15.4194 N   0  0  0  0  0  0  0  0  0  0  0  0
   21.3005  -20.3733  -14.5852 C   0  0  0  0  0  0  0  0  0  0  0  0
   21.2841  -21.3306  -15.4483 O   0  0  0  0  0  0  0  0  0  0  0  0
   18.3182  -26.2434   -9.0207 N   0  0  0  0  0  0  0  0  0  0  0  0
   18.2949  -24.9824   -8.3589 C   0  0  0  0  0  0  0  0  0  0  0  0
   18.1089  -24.9386   -7.0892 N   0  0  0  0  0  0  0  0  0  0  0  0
   18.4829  -23.8220   -9.1451 N   0  0  0  0  0  0  0  0  0  0  0  0
   18.6134  -23.9019  -10.5790 C   0  0  0  0  0  0  0  0  0  0  0  0
   18.7574  -22.4983  -11.1641 C   0  0  0  0  0  0  0  0  0  0  0  0
   19.9695  -22.3921  -12.0341 C   0  0  0  0  0  0  0  0  0  0  0  0
   19.6662  -21.7107  -13.3214 C   0  0  2  0  0  0  0  0  0  0  0  0
   20.4431  -20.4739  -13.4507 N   0  0  0  0  0  0  0  0  0  0  0  0
   18.2428  -21.3796  -13.4444 C   0  0  0  0  0  0  0  0  0  0  0  0
   17.7586  -20.2172  -13.3077 O   0  0  0  0  0  0  0  0  0  0  0  0
   17.3051  -22.3896  -13.7338 O   0  0  0  0  0  0  0  0  0  0  0  0
  2  1  1  6
  2  4  1  0
  3  2  1  0
  4  6  1  0
  4  5  1  6
  6  7  2  0
  8  9  1  0
  9 11  1  0
 10  9  2  0
 12 11  1  6
 13 12  1  0
 13  6  1  0
 14 15  2  0
 14 12  1  0
 16 17  1  0
 17 19  1  0
 18 17  2  0
 19 20  1  0
 21 20  1  0
 21 22  1  0
 23 22  1  1
 23 25  1  0
 23 24  1  0
 24 14  1  0
 25 27  1  0
 26 25  2  0
M  END
$$$$
