TNR.pdb
     RDKit          3D

 27 26  0  0  1  0  0  0  0  0999 V2000
   13.8217  -16.8473    8.2651 C   0  0  0  0  0  0  0  0  0  0  0  0
   14.6442  -17.9899    8.8218 C   0  0  1  0  0  0  0  0  0  0  0  0
   13.7612  -18.7198    9.6468 O   0  0  0  0  0  0  0  0  0  0  0  0
   15.0272  -18.9181    7.6890 C   0  0  2  0  0  0  0  0  0  0  0  0
   15.3004  -20.2525    8.1516 N   0  0  0  0  0  0  0  0  0  0  0  0
   16.2053  -18.4243    6.9417 C   0  0  0  0  0  0  0  0  0  0  0  0
   17.3772  -18.4231    7.4256 O   0  0  0  0  0  0  0  0  0  0  0  0
   18.4305  -19.2843    3.0615 N   0  0  0  0  0  0  0  0  0  0  0  0
   17.3350  -18.5187    2.5740 C   0  0  0  0  0  0  0  0  0  0  0  0
   16.9750  -18.7068    1.3959 O   0  0  0  0  0  0  0  0  0  0  0  0
   16.6572  -17.5506    3.4139 C   0  0  0  0  0  0  0  0  0  0  0  0
   17.1362  -17.3952    4.8155 C   0  0  2  0  0  0  0  0  0  0  0  0
   16.0392  -17.9354    5.6463 N   0  0  0  0  0  0  0  0  0  0  0  0
   17.2762  -15.9767    5.1848 C   0  0  0  0  0  0  0  0  0  0  0  0
   16.1950  -15.3722    5.5417 O   0  0  0  0  0  0  0  0  0  0  0  0
   23.3124  -10.0726    7.9840 N   0  0  0  0  0  0  0  0  0  0  0  0
   22.0947   -9.3456    7.8527 C   0  0  0  0  0  0  0  0  0  0  0  0
   22.0501   -8.1163    8.2209 N   0  0  0  0  0  0  0  0  0  0  0  0
   20.9772  -10.0237    7.3128 N   0  0  0  0  0  0  0  0  0  0  0  0
   21.0724  -11.3947    6.8760 C   0  0  0  0  0  0  0  0  0  0  0  0
   19.6837  -11.9212    6.5194 C   0  0  0  0  0  0  0  0  0  0  0  0
   19.7371  -13.3533    6.0909 C   0  0  0  0  0  0  0  0  0  0  0  0
   18.4125  -13.8367    5.6165 C   0  0  2  0  0  0  0  0  0  0  0  0
   18.4939  -15.2351    5.1834 N   0  0  0  0  0  0  0  0  0  0  0  0
   17.9038  -13.0339    4.4995 C   0  0  0  0  0  0  0  0  0  0  0  0
   17.9827  -13.3645    3.2793 O   0  0  0  0  0  0  0  0  0  0  0  0
   17.2743  -11.7987    4.7466 O   0  0  0  0  0  0  0  0  0  0  0  0
  2  1  1  6
  2  4  1  0
  3  2  1  0
  4  6  1  0
  4  5  1  1
  6  7  2  0
  8  9  1  0
  9 11  1  0
 10  9  2  0
 12 11  1  6
 13 12  1  0
 13  6  1  0
 14 15  2  0
 14 12  1  0
 16 17  1  0
 17 19  1  0
 18 17  2  0
 19 20  1  0
 21 20  1  0
 21 22  1  0
 23 22  1  6
 23 25  1  0
 23 24  1  0
 24 14  1  0
 25 27  1  0
 26 25  2  0
M  END
$$$$
