TNR.pdb
     RDKit          3D

 27 26  0  0  1  0  0  0  0  0999 V2000
   26.2763  -19.8475  -17.0924 C   0  0  0  0  0  0  0  0  0  0  0  0
   27.6071  -19.4686  -16.4782 C   0  0  1  0  0  0  0  0  0  0  0  0
   27.3114  -18.4592  -15.5367 O   0  0  0  0  0  0  0  0  0  0  0  0
   28.1350  -20.6443  -15.6841 C   0  0  2  0  0  0  0  0  0  0  0  0
   28.5255  -21.7387  -16.5321 N   0  0  0  0  0  0  0  0  0  0  0  0
   27.1466  -21.1366  -14.6988 C   0  0  0  0  0  0  0  0  0  0  0  0
   26.2270  -21.9571  -14.9965 O   0  0  0  0  0  0  0  0  0  0  0  0
   24.8907  -21.4653   -9.8109 N   0  0  0  0  0  0  0  0  0  0  0  0
   26.2151  -20.9458   -9.8111 C   0  0  0  0  0  0  0  0  0  0  0  0
   26.7373  -20.6891   -8.7092 O   0  0  0  0  0  0  0  0  0  0  0  0
   26.9373  -20.7195  -11.0478 C   0  0  0  0  0  0  0  0  0  0  0  0
   26.2540  -21.0744  -12.3227 C   0  0  2  0  0  0  0  0  0  0  0  0
   27.2139  -20.6902  -13.3794 N   0  0  0  0  0  0  0  0  0  0  0  0
   25.0504  -20.2538  -12.5376 C   0  0  0  0  0  0  0  0  0  0  0  0
   25.2472  -19.0620  -12.9878 O   0  0  0  0  0  0  0  0  0  0  0  0
   23.0923  -16.6166  -18.4485 N   0  0  0  0  0  0  0  0  0  0  0  0
   21.7650  -16.6499  -17.9331 C   0  0  0  0  0  0  0  0  0  0  0  0
   20.9035  -15.7941  -18.3506 N   0  0  0  0  0  0  0  0  0  0  0  0
   21.4555  -17.6411  -16.9731 N   0  0  0  0  0  0  0  0  0  0  0  0
   22.4918  -18.3066  -16.2229 C   0  0  0  0  0  0  0  0  0  0  0  0
   21.8727  -19.3676  -15.3152 C   0  0  0  0  0  0  0  0  0  0  0  0
   22.9185  -20.0808  -14.5182 C   0  0  0  0  0  0  0  0  0  0  0  0
   22.6600  -19.9829  -13.0564 C   0  0  2  0  0  0  0  0  0  0  0  0
   23.7084  -20.6698  -12.2958 N   0  0  0  0  0  0  0  0  0  0  0  0
   21.3641  -20.5630  -12.6887 C   0  0  0  0  0  0  0  0  0  0  0  0
   21.1975  -21.7454  -12.2662 O   0  0  0  0  0  0  0  0  0  0  0  0
   20.1899  -19.7931  -12.7949 O   0  0  0  0  0  0  0  0  0  0  0  0
  2  1  1  1
  2  4  1  0
  3  2  1  0
  4  6  1  0
  4  5  1  6
  6  7  2  0
  8  9  1  0
  9 11  1  0
 10  9  2  0
 12 11  1  1
 13 12  1  0
 13  6  1  0
 14 15  2  0
 14 12  1  0
 16 17  1  0
 17 19  1  0
 18 17  2  0
 19 20  1  0
 21 20  1  0
 21 22  1  0
 23 22  1  6
 23 25  1  0
 23 24  1  0
 24 14  1  0
 25 27  1  0
 26 25  2  0
M  END
$$$$
