TNR.pdb
     RDKit          3D

 27 26  0  0  1  0  0  0  0  0999 V2000
   22.2116  -28.0623  -16.8511 C   0  0  0  0  0  0  0  0  0  0  0  0
   21.5849  -27.2715  -15.7225 C   0  0  1  0  0  0  0  0  0  0  0  0
   22.3138  -27.6261  -14.5667 O   0  0  0  0  0  0  0  0  0  0  0  0
   21.8461  -25.7979  -15.9500 C   0  0  2  0  0  0  0  0  0  0  0  0
   23.2406  -25.5234  -16.1719 N   0  0  0  0  0  0  0  0  0  0  0  0
   21.3735  -24.9697  -14.8182 C   0  0  0  0  0  0  0  0  0  0  0  0
   22.1602  -24.3314  -14.0559 O   0  0  0  0  0  0  0  0  0  0  0  0
   17.7786  -22.1567  -12.0353 N   0  0  0  0  0  0  0  0  0  0  0  0
   17.4877  -22.4010  -13.4063 C   0  0  0  0  0  0  0  0  0  0  0  0
   16.5200  -21.7988  -13.9099 O   0  0  0  0  0  0  0  0  0  0  0  0
   18.2857  -23.3189  -14.1955 C   0  0  0  0  0  0  0  0  0  0  0  0
   19.4141  -24.0145  -13.5165 C   0  0  2  0  0  0  0  0  0  0  0  0
   20.0058  -24.8744  -14.5633 N   0  0  0  0  0  0  0  0  0  0  0  0
   18.9333  -24.9196  -12.4592 C   0  0  0  0  0  0  0  0  0  0  0  0
   18.7965  -26.1582  -12.7892 O   0  0  0  0  0  0  0  0  0  0  0  0
   17.1751  -25.2502   -3.6941 N   0  0  0  0  0  0  0  0  0  0  0  0
   17.0298  -26.5794   -4.1844 C   0  0  0  0  0  0  0  0  0  0  0  0
   16.7064  -27.5203   -3.3727 N   0  0  0  0  0  0  0  0  0  0  0  0
   17.2505  -26.8009   -5.5636 N   0  0  0  0  0  0  0  0  0  0  0  0
   17.6883  -25.7365   -6.4325 C   0  0  0  0  0  0  0  0  0  0  0  0
   17.6936  -26.2207   -7.8811 C   0  0  0  0  0  0  0  0  0  0  0  0
   18.1394  -25.1409   -8.8152 C   0  0  0  0  0  0  0  0  0  0  0  0
   18.1501  -25.6044  -10.2288 C   0  0  2  0  0  0  0  0  0  0  0  0
   18.6184  -24.5398  -11.1216 N   0  0  0  0  0  0  0  0  0  0  0  0
   16.8205  -26.0331  -10.6753 C   0  0  0  0  0  0  0  0  0  0  0  0
   15.7842  -25.3050  -10.6564 O   0  0  0  0  0  0  0  0  0  0  0  0
   16.6278  -27.3379  -11.1688 O   0  0  0  0  0  0  0  0  0  0  0  0
  2  1  1  6
  2  4  1  0
  3  2  1  0
  4  6  1  0
  4  5  1  1
  6  7  2  0
  8  9  1  0
  9 11  1  0
 10  9  2  0
 12 11  1  6
 13 12  1  0
 13  6  1  0
 14 15  2  0
 14 12  1  0
 16 17  1  0
 17 19  1  0
 18 17  2  0
 19 20  1  0
 21 20  1  0
 21 22  1  0
 23 22  1  1
 23 25  1  0
 23 24  1  0
 24 14  1  0
 25 27  1  0
 26 25  2  0
M  END
$$$$
