QPV.pdb
     RDKit          3D

 24 24  0  0  1  0  0  0  0  0999 V2000
   22.1444  -16.0713  -16.0445 N   0  0  0  0  0  0  0  0  0  0  0  0
   22.1727  -16.9630  -17.1706 C   0  0  0  0  0  0  0  0  0  0  0  0
   21.0593  -17.3884  -17.5682 O   0  0  0  0  0  0  0  0  0  0  0  0
   23.4520  -17.3524  -17.8191 C   0  0  0  0  0  0  0  0  0  0  0  0
   24.3672  -17.8672  -16.7491 C   0  0  0  0  0  0  0  0  0  0  0  0
   25.0584  -19.1567  -17.1501 C   0  0  2  0  0  0  0  0  0  0  0  0
   24.1727  -19.9304  -18.0252 N   0  0  0  0  0  0  0  0  0  0  0  0
   25.3242  -19.9281  -15.9122 C   0  0  0  0  0  0  0  0  0  0  0  0
   24.4589  -20.8217  -15.5799 O   0  0  0  0  0  0  0  0  0  0  0  0
   26.4395  -19.7521  -15.0938 N   0  0  0  0  0  0  0  0  0  0  0  0
   27.4309  -18.6749  -15.2512 C   0  0  0  0  0  0  0  0  0  0  0  0
   28.7213  -19.2239  -14.7081 C   0  0  0  0  0  0  0  0  0  0  0  0
   28.3734  -20.5225  -14.0142 C   0  0  0  0  0  0  0  0  0  0  0  0
   26.8551  -20.5583  -13.9672 C   0  0  1  0  0  0  0  0  0  0  0  0
   26.4495  -19.9291  -12.6869 C   0  0  0  0  0  0  0  0  0  0  0  0
   26.5537  -18.6956  -12.5136 O   0  0  0  0  0  0  0  0  0  0  0  0
   23.5892  -21.9016  -10.3748 C   0  0  0  0  0  0  0  0  0  0  0  0
   23.8752  -20.4279  -10.4224 C   0  0  2  0  0  0  0  0  0  0  0  0
   23.2132  -19.7696  -11.6097 C   0  0  0  0  0  0  0  0  0  0  0  0
   25.3788  -20.1627  -10.4453 C   0  0  2  0  0  0  0  0  0  0  0  0
   25.9387  -20.7380  -11.6507 N   0  0  0  0  0  0  0  0  0  0  0  0
   26.0347  -20.7636   -9.2715 C   0  0  0  0  0  0  0  0  0  0  0  0
   26.7854  -21.9136   -9.3998 O   0  0  0  0  0  0  0  0  0  0  0  0
   25.9164  -20.2357   -8.1471 O   0  0  0  0  0  0  0  0  0  0  0  0
  2  1  1  0
  3  2  2  0
  4  2  1  0
  5  4  1  0
  6  5  1  0
  6  7  1  6
  8  6  1  0
  9  8  2  0
 10  8  1  0
 10 14  1  0
 11 12  1  0
 11 10  1  0
 12 13  1  0
 14 13  1  0
 15 21  1  0
 14 15  1  1
 16 15  2  0
 18 17  1  6
 19 18  1  0
 20 21  1  6
 20 18  1  0
 22 20  1  0
 22 23  1  0
 24 22  2  0
M  END
$$$$
