QPV.pdb
     RDKit          3D

 24 24  0  0  1  0  0  0  0  0999 V2000
   21.1189  -16.6738  -17.0842 N   0  0  0  0  0  0  0  0  0  0  0  0
   22.0273  -17.4685  -17.8635 C   0  0  0  0  0  0  0  0  0  0  0  0
   22.6721  -16.8598  -18.7536 O   0  0  0  0  0  0  0  0  0  0  0  0
   22.1862  -18.9262  -17.6210 C   0  0  0  0  0  0  0  0  0  0  0  0
   23.2793  -19.1036  -16.6104 C   0  0  0  0  0  0  0  0  0  0  0  0
   24.5090  -19.7691  -17.1989 C   0  0  2  0  0  0  0  0  0  0  0  0
   24.0933  -20.8639  -18.0806 N   0  0  0  0  0  0  0  0  0  0  0  0
   25.3051  -20.3173  -16.0748 C   0  0  0  0  0  0  0  0  0  0  0  0
   24.9356  -21.4524  -15.5924 O   0  0  0  0  0  0  0  0  0  0  0  0
   26.4172  -19.6913  -15.5129 N   0  0  0  0  0  0  0  0  0  0  0  0
   26.9837  -18.4151  -15.9802 C   0  0  0  0  0  0  0  0  0  0  0  0
   28.4473  -18.4675  -15.6383 C   0  0  0  0  0  0  0  0  0  0  0  0
   28.6337  -19.6760  -14.7475 C   0  0  0  0  0  0  0  0  0  0  0  0
   27.2290  -20.1422  -14.4040 C   0  0  1  0  0  0  0  0  0  0  0  0
   26.8419  -19.4527  -13.1492 C   0  0  0  0  0  0  0  0  0  0  0  0
   26.5487  -18.2377  -13.1455 O   0  0  0  0  0  0  0  0  0  0  0  0
   23.2646  -20.4077  -10.7086 C   0  0  0  0  0  0  0  0  0  0  0  0
   24.4292  -20.5433  -11.6473 C   0  0  2  0  0  0  0  0  0  0  0  0
   24.6088  -21.9696  -12.1104 C   0  0  0  0  0  0  0  0  0  0  0  0
   25.7156  -20.0351  -11.0002 C   0  0  2  0  0  0  0  0  0  0  0  0
   26.8052  -20.1824  -11.9428 N   0  0  0  0  0  0  0  0  0  0  0  0
   26.0246  -20.7982   -9.7790 C   0  0  0  0  0  0  0  0  0  0  0  0
   26.9539  -21.8173   -9.8053 O   0  0  0  0  0  0  0  0  0  0  0  0
   25.4466  -20.5285   -8.7067 O   0  0  0  0  0  0  0  0  0  0  0  0
  2  1  1  0
  3  2  2  0
  4  2  1  0
  5  4  1  0
  6  5  1  0
  6  7  1  6
  8  6  1  0
  9  8  2  0
 10  8  1  0
 10 14  1  0
 11 12  1  0
 11 10  1  0
 12 13  1  0
 14 13  1  0
 15 21  1  0
 14 15  1  1
 16 15  2  0
 18 17  1  1
 19 18  1  0
 20 21  1  6
 20 18  1  0
 22 20  1  0
 22 23  1  0
 24 22  2  0
M  END
$$$$
