QPV.pdb
     RDKit          3D

 24 24  0  0  1  0  0  0  0  0999 V2000
   13.2621   -9.7396  -16.3828 N   0  0  0  0  0  0  0  0  0  0  0  0
   13.0758  -10.4425  -15.1437 C   0  0  0  0  0  0  0  0  0  0  0  0
   11.8887  -10.5696  -14.7522 O   0  0  0  0  0  0  0  0  0  0  0  0
   14.2293  -10.9835  -14.3783 C   0  0  0  0  0  0  0  0  0  0  0  0
   15.4710  -10.7128  -15.1734 C   0  0  0  0  0  0  0  0  0  0  0  0
   16.7277  -11.1713  -14.4578 C   0  0  2  0  0  0  0  0  0  0  0  0
   16.6045  -12.5933  -14.1237 N   0  0  0  0  0  0  0  0  0  0  0  0
   16.8481  -10.3808  -13.2094 C   0  0  0  0  0  0  0  0  0  0  0  0
   16.5639  -10.9794  -12.1056 O   0  0  0  0  0  0  0  0  0  0  0  0
   17.2468   -9.0457  -13.1531 N   0  0  0  0  0  0  0  0  0  0  0  0
   17.4285   -8.1767  -14.3278 C   0  0  0  0  0  0  0  0  0  0  0  0
   18.4688   -7.1655  -13.9317 C   0  0  0  0  0  0  0  0  0  0  0  0
   18.6732   -7.3259  -12.4413 C   0  0  0  0  0  0  0  0  0  0  0  0
   17.5652   -8.2587  -11.9822 C   0  0  1  0  0  0  0  0  0  0  0  0
   16.4182   -7.4038  -11.5904 C   0  0  0  0  0  0  0  0  0  0  0  0
   15.6221   -6.9615  -12.4464 O   0  0  0  0  0  0  0  0  0  0  0  0
   13.4018   -6.2668   -7.8932 C   0  0  0  0  0  0  0  0  0  0  0  0
   14.5980   -6.9923   -8.4397 C   0  0  2  0  0  0  0  0  0  0  0  0
   15.7484   -6.9867   -7.4611 C   0  0  0  0  0  0  0  0  0  0  0  0
   15.0394   -6.3931   -9.7730 C   0  0  2  0  0  0  0  0  0  0  0  0
   16.2258   -7.0867  -10.2297 N   0  0  0  0  0  0  0  0  0  0  0  0
   15.3418   -4.9589   -9.6283 C   0  0  0  0  0  0  0  0  0  0  0  0
   14.3496   -4.0138   -9.7855 O   0  0  0  0  0  0  0  0  0  0  0  0
   16.5020   -4.5855   -9.3613 O   0  0  0  0  0  0  0  0  0  0  0  0
  2  1  1  0
  3  2  2  0
  4  2  1  0
  5  4  1  0
  6  5  1  0
  6  7  1  1
  8  6  1  0
  9  8  2  0
 10  8  1  0
 10 14  1  0
 11 12  1  0
 11 10  1  0
 12 13  1  0
 14 13  1  0
 15 21  1  0
 14 15  1  6
 16 15  2  0
 18 17  1  1
 19 18  1  0
 20 21  1  1
 20 18  1  0
 22 20  1  0
 22 23  1  0
 24 22  2  0
M  END
$$$$
