QPV.pdb
     RDKit          3D

 24 24  0  0  1  0  0  0  0  0999 V2000
   28.2870  -23.6086  -16.3332 N   0  0  0  0  0  0  0  0  0  0  0  0
   27.3402  -23.8898  -17.3766 C   0  0  0  0  0  0  0  0  0  0  0  0
   27.5802  -24.8994  -18.0848 O   0  0  0  0  0  0  0  0  0  0  0  0
   26.1491  -23.0282  -17.5954 C   0  0  0  0  0  0  0  0  0  0  0  0
   24.9451  -23.7866  -17.1235 C   0  0  0  0  0  0  0  0  0  0  0  0
   24.9464  -23.9975  -15.6212 C   0  0  2  0  0  0  0  0  0  0  0  0
   25.3811  -25.3654  -15.3235 N   0  0  0  0  0  0  0  0  0  0  0  0
   23.5575  -23.8062  -15.1391 C   0  0  0  0  0  0  0  0  0  0  0  0
   22.8136  -24.8541  -15.0609 O   0  0  0  0  0  0  0  0  0  0  0  0
   23.0105  -22.5786  -14.7670 N   0  0  0  0  0  0  0  0  0  0  0  0
   23.6313  -21.2706  -15.0352 C   0  0  0  0  0  0  0  0  0  0  0  0
   23.1560  -20.3594  -13.9372 C   0  0  0  0  0  0  0  0  0  0  0  0
   22.0636  -21.1076  -13.2055 C   0  0  0  0  0  0  0  0  0  0  0  0
   21.7741  -22.3312  -14.0587 C   0  0  1  0  0  0  0  0  0  0  0  0
   20.6912  -21.9533  -14.9990 C   0  0  0  0  0  0  0  0  0  0  0  0
   20.9299  -21.2619  -16.0125 O   0  0  0  0  0  0  0  0  0  0  0  0
   17.0980  -24.1414  -14.7668 C   0  0  0  0  0  0  0  0  0  0  0  0
   17.6415  -23.5021  -16.0126 C   0  0  2  0  0  0  0  0  0  0  0  0
   18.6162  -24.4095  -16.7251 C   0  0  0  0  0  0  0  0  0  0  0  0
   18.3047  -22.1636  -15.6961 C   0  0  2  0  0  0  0  0  0  0  0  0
   19.3724  -22.3825  -14.7425 N   0  0  0  0  0  0  0  0  0  0  0  0
   17.3304  -21.2184  -15.1245 C   0  0  0  0  0  0  0  0  0  0  0  0
   16.3819  -20.6185  -15.9264 O   0  0  0  0  0  0  0  0  0  0  0  0
   17.3548  -20.9515  -13.9059 O   0  0  0  0  0  0  0  0  0  0  0  0
  2  1  1  0
  3  2  2  0
  4  2  1  0
  5  4  1  0
  6  5  1  0
  6  7  1  6
  8  6  1  0
  9  8  2  0
 10  8  1  0
 10 14  1  0
 11 12  1  0
 11 10  1  0
 12 13  1  0
 14 13  1  0
 15 21  1  0
 14 15  1  6
 16 15  2  0
 18 17  1  1
 19 18  1  0
 20 21  1  1
 20 18  1  0
 22 20  1  0
 22 23  1  0
 24 22  2  0
M  END
$$$$
