QPV.pdb
     RDKit          3D

 24 24  0  0  1  0  0  0  0  0999 V2000
   24.9095  -20.2565  -14.7141 N   0  0  0  0  0  0  0  0  0  0  0  0
   24.3954  -19.3285  -13.7453 C   0  0  0  0  0  0  0  0  0  0  0  0
   23.9622  -18.2392  -14.1973 O   0  0  0  0  0  0  0  0  0  0  0  0
   24.3823  -19.6504  -12.2943 C   0  0  0  0  0  0  0  0  0  0  0  0
   25.7964  -19.9164  -11.8737 C   0  0  0  0  0  0  0  0  0  0  0  0
   26.1309  -21.3961  -11.8720 C   0  0  2  0  0  0  0  0  0  0  0  0
   24.8906  -22.1742  -11.9428 N   0  0  0  0  0  0  0  0  0  0  0  0
   26.8295  -21.6977  -10.5996 C   0  0  0  0  0  0  0  0  0  0  0  0
   26.1391  -22.2599   -9.6696 O   0  0  0  0  0  0  0  0  0  0  0  0
   28.1719  -21.4168  -10.3476 N   0  0  0  0  0  0  0  0  0  0  0  0
   29.0757  -20.7373  -11.2907 C   0  0  0  0  0  0  0  0  0  0  0  0
   30.4547  -21.2482  -10.9761 C   0  0  0  0  0  0  0  0  0  0  0  0
   30.3373  -22.0221   -9.6815 C   0  0  0  0  0  0  0  0  0  0  0  0
   28.9405  -21.7261   -9.1621 C   0  0  1  0  0  0  0  0  0  0  0  0
   29.0526  -20.5399   -8.2787 C   0  0  0  0  0  0  0  0  0  0  0  0
   29.0787  -19.3837   -8.7527 O   0  0  0  0  0  0  0  0  0  0  0  0
   27.3328  -18.6006   -4.3582 C   0  0  0  0  0  0  0  0  0  0  0  0
   27.5731  -19.7328   -5.3154 C   0  0  2  0  0  0  0  0  0  0  0  0
   27.4245  -21.0753   -4.6395 C   0  0  0  0  0  0  0  0  0  0  0  0
   28.9519  -19.6196   -5.9618 C   0  0  2  0  0  0  0  0  0  0  0  0
   29.1307  -20.7230   -6.8825 N   0  0  0  0  0  0  0  0  0  0  0  0
   30.0136  -19.6623   -4.9419 C   0  0  0  0  0  0  0  0  0  0  0  0
   30.3953  -18.5147   -4.2787 O   0  0  0  0  0  0  0  0  0  0  0  0
   30.5787  -20.7406   -4.6682 O   0  0  0  0  0  0  0  0  0  0  0  0
  2  1  1  0
  3  2  2  0
  4  2  1  0
  5  4  1  0
  6  5  1  0
  6  7  1  1
  8  6  1  0
  9  8  2  0
 10  8  1  0
 10 14  1  0
 11 12  1  0
 11 10  1  0
 12 13  1  0
 14 13  1  0
 15 21  1  0
 14 15  1  1
 16 15  2  0
 18 17  1  1
 19 18  1  0
 20 21  1  6
 20 18  1  0
 22 20  1  0
 22 23  1  0
 24 22  2  0
M  END
$$$$
