QPV.pdb
     RDKit          3D

 24 24  0  0  1  0  0  0  0  0999 V2000
   22.4407  -21.2852  -13.9560 N   0  0  0  0  0  0  0  0  0  0  0  0
   21.6763  -21.6432  -12.7934 C   0  0  0  0  0  0  0  0  0  0  0  0
   20.4273  -21.5661  -12.9065 O   0  0  0  0  0  0  0  0  0  0  0  0
   22.3367  -22.0782  -11.5350 C   0  0  0  0  0  0  0  0  0  0  0  0
   23.8159  -22.0935  -11.7784 C   0  0  0  0  0  0  0  0  0  0  0  0
   24.5223  -20.9216  -11.1232 C   0  0  2  0  0  0  0  0  0  0  0  0
   23.5985  -20.2503  -10.2041 N   0  0  0  0  0  0  0  0  0  0  0  0
   24.9205  -19.9795  -12.1965 C   0  0  0  0  0  0  0  0  0  0  0  0
   24.1526  -18.9670  -12.4037 O   0  0  0  0  0  0  0  0  0  0  0  0
   26.0613  -20.1159  -12.9867 N   0  0  0  0  0  0  0  0  0  0  0  0
   26.9563  -21.2850  -12.9687 C   0  0  0  0  0  0  0  0  0  0  0  0
   28.3129  -20.7677  -13.3610 C   0  0  0  0  0  0  0  0  0  0  0  0
   28.1046  -19.3496  -13.8450 C   0  0  0  0  0  0  0  0  0  0  0  0
   26.5984  -19.1774  -13.9472 C   0  0  1  0  0  0  0  0  0  0  0  0
   26.2151  -19.5557  -15.3291 C   0  0  0  0  0  0  0  0  0  0  0  0
   26.1713  -20.7544  -15.6805 O   0  0  0  0  0  0  0  0  0  0  0  0
   24.1417  -16.6368  -17.4226 C   0  0  0  0  0  0  0  0  0  0  0  0
   23.9540  -18.1111  -17.6393 C   0  0  2  0  0  0  0  0  0  0  0  0
   22.9559  -18.6948  -16.6676 C   0  0  0  0  0  0  0  0  0  0  0  0
   25.2845  -18.8532  -17.5351 C   0  0  2  0  0  0  0  0  0  0  0  0
   25.8955  -18.5445  -16.2589 N   0  0  0  0  0  0  0  0  0  0  0  0
   26.1959  -18.4494  -18.6193 C   0  0  0  0  0  0  0  0  0  0  0  0
   26.1217  -19.0511  -19.8582 O   0  0  0  0  0  0  0  0  0  0  0  0
   27.0457  -17.5565  -18.4256 O   0  0  0  0  0  0  0  0  0  0  0  0
  2  1  1  0
  3  2  2  0
  4  2  1  0
  5  4  1  0
  6  5  1  0
  6  7  1  1
  8  6  1  0
  9  8  2  0
 10  8  1  0
 10 14  1  0
 11 12  1  0
 11 10  1  0
 12 13  1  0
 14 13  1  0
 15 21  1  0
 14 15  1  6
 16 15  2  0
 18 17  1  1
 19 18  1  0
 20 21  1  1
 20 18  1  0
 22 20  1  0
 22 23  1  0
 24 22  2  0
M  END
$$$$
