QPV.pdb
     RDKit          3D

 24 24  0  0  1  0  0  0  0  0999 V2000
   28.4567  -22.7832  -14.3460 N   0  0  0  0  0  0  0  0  0  0  0  0
   27.7595  -21.6065  -14.7857 C   0  0  0  0  0  0  0  0  0  0  0  0
   26.6324  -21.7935  -15.3084 O   0  0  0  0  0  0  0  0  0  0  0  0
   28.3484  -20.2513  -14.6256 C   0  0  0  0  0  0  0  0  0  0  0  0
   28.1101  -19.8150  -13.2113 C   0  0  0  0  0  0  0  0  0  0  0  0
   26.6463  -19.5311  -12.9322 C   0  0  2  0  0  0  0  0  0  0  0  0
   26.2252  -18.3549  -13.6991 N   0  0  0  0  0  0  0  0  0  0  0  0
   26.5114  -19.2482  -11.4831 C   0  0  0  0  0  0  0  0  0  0  0  0
   26.8793  -18.0838  -11.0754 O   0  0  0  0  0  0  0  0  0  0  0  0
   26.0157  -20.1510  -10.5430 N   0  0  0  0  0  0  0  0  0  0  0  0
   25.6681  -21.5525  -10.8314 C   0  0  0  0  0  0  0  0  0  0  0  0
   24.5889  -21.9167   -9.8494 C   0  0  0  0  0  0  0  0  0  0  0  0
   24.5240  -20.7845   -8.8481 C   0  0  0  0  0  0  0  0  0  0  0  0
   25.7365  -19.9176   -9.1432 C   0  0  1  0  0  0  0  0  0  0  0  0
   26.8419  -20.4200   -8.2914 C   0  0  0  0  0  0  0  0  0  0  0  0
   27.4695  -21.4571   -8.5956 O   0  0  0  0  0  0  0  0  0  0  0  0
   28.5928  -18.3954   -4.5236 C   0  0  0  0  0  0  0  0  0  0  0  0
   29.0892  -18.9686   -5.8201 C   0  0  2  0  0  0  0  0  0  0  0  0
   29.1066  -17.9314   -6.9178 C   0  0  0  0  0  0  0  0  0  0  0  0
   28.2476  -20.1696   -6.2453 C   0  0  2  0  0  0  0  0  0  0  0  0
   27.1877  -19.7139   -7.1206 N   0  0  0  0  0  0  0  0  0  0  0  0
   27.6554  -20.8357   -5.0728 C   0  0  0  0  0  0  0  0  0  0  0  0
   28.4562  -21.4849   -4.1564 O   0  0  0  0  0  0  0  0  0  0  0  0
   26.4201  -20.8183   -4.8979 O   0  0  0  0  0  0  0  0  0  0  0  0
  2  1  1  0
  3  2  2  0
  4  2  1  0
  5  4  1  0
  6  5  1  0
  6  7  1  6
  8  6  1  0
  9  8  2  0
 10  8  1  0
 10 14  1  0
 11 12  1  0
 11 10  1  0
 12 13  1  0
 14 13  1  0
 15 21  1  0
 14 15  1  1
 16 15  2  0
 18 17  1  1
 19 18  1  0
 20 21  1  6
 20 18  1  0
 22 20  1  0
 22 23  1  0
 24 22  2  0
M  END
$$$$
