QPV.pdb
     RDKit          3D

 24 24  0  0  1  0  0  0  0  0999 V2000
   23.7524  -21.8288  -14.6214 N   0  0  0  0  0  0  0  0  0  0  0  0
   23.9834  -22.9194  -13.7151 C   0  0  0  0  0  0  0  0  0  0  0  0
   23.0392  -23.7374  -13.5809 O   0  0  0  0  0  0  0  0  0  0  0  0
   25.2698  -23.0608  -12.9842 C   0  0  0  0  0  0  0  0  0  0  0  0
   26.2138  -22.0262  -13.5188 C   0  0  0  0  0  0  0  0  0  0  0  0
   26.3517  -20.8341  -12.5907 C   0  0  2  0  0  0  0  0  0  0  0  0
   25.7153  -21.1425  -11.3067 N   0  0  0  0  0  0  0  0  0  0  0  0
   25.6547  -19.6887  -13.2233 C   0  0  0  0  0  0  0  0  0  0  0  0
   24.5106  -19.3557  -12.7358 O   0  0  0  0  0  0  0  0  0  0  0  0
   26.1530  -18.9550  -14.2994 N   0  0  0  0  0  0  0  0  0  0  0  0
   27.3881  -19.2793  -15.0325 C   0  0  0  0  0  0  0  0  0  0  0  0
   27.9062  -17.9699  -15.5605 C   0  0  0  0  0  0  0  0  0  0  0  0
   26.8094  -16.9537  -15.3302 C   0  0  0  0  0  0  0  0  0  0  0  0
   25.5972  -17.7619  -14.8990 C   0  0  1  0  0  0  0  0  0  0  0  0
   24.8397  -18.0914  -16.1308 C   0  0  0  0  0  0  0  0  0  0  0  0
   25.3511  -18.7859  -17.0354 O   0  0  0  0  0  0  0  0  0  0  0  0
   20.7135  -17.0359  -16.1378 C   0  0  0  0  0  0  0  0  0  0  0  0
   21.2445  -18.3346  -16.6738 C   0  0  2  0  0  0  0  0  0  0  0  0
   21.2893  -19.4018  -15.6061 C   0  0  0  0  0  0  0  0  0  0  0  0
   22.6299  -18.1474  -17.2881 C   0  0  2  0  0  0  0  0  0  0  0  0
   23.5218  -17.6121  -16.2805 N   0  0  0  0  0  0  0  0  0  0  0  0
   22.5755  -17.2188  -18.4300 C   0  0  0  0  0  0  0  0  0  0  0  0
   22.1172  -17.6451  -19.6592 O   0  0  0  0  0  0  0  0  0  0  0  0
   22.9448  -16.0347  -18.2948 O   0  0  0  0  0  0  0  0  0  0  0  0
  2  1  1  0
  3  2  2  0
  4  2  1  0
  5  4  1  0
  6  5  1  0
  6  7  1  1
  8  6  1  0
  9  8  2  0
 10  8  1  0
 10 14  1  0
 11 12  1  0
 11 10  1  0
 12 13  1  0
 14 13  1  0
 15 21  1  0
 14 15  1  6
 16 15  2  0
 18 17  1  1
 19 18  1  0
 20 21  1  1
 20 18  1  0
 22 20  1  0
 22 23  1  0
 24 22  2  0
M  END
$$$$
