QPV.pdb
     RDKit          3D

 24 24  0  0  1  0  0  0  0  0999 V2000
   15.7936   -7.1537  -18.0198 N   0  0  0  0  0  0  0  0  0  0  0  0
   15.2529   -7.7170  -16.8138 C   0  0  0  0  0  0  0  0  0  0  0  0
   14.2914   -7.0962  -16.2952 O   0  0  0  0  0  0  0  0  0  0  0  0
   15.8077   -8.9630  -16.2234 C   0  0  0  0  0  0  0  0  0  0  0  0
   16.8683   -9.4740  -17.1515 C   0  0  0  0  0  0  0  0  0  0  0  0
   17.6464  -10.6335  -16.5585 C   0  0  2  0  0  0  0  0  0  0  0  0
   16.7094  -11.6033  -15.9836 N   0  0  0  0  0  0  0  0  0  0  0  0
   18.5138  -10.0911  -15.4855 C   0  0  0  0  0  0  0  0  0  0  0  0
   18.1715  -10.3429  -14.2702 O   0  0  0  0  0  0  0  0  0  0  0  0
   19.6651   -9.3354  -15.7044 N   0  0  0  0  0  0  0  0  0  0  0  0
   20.1248   -8.8748  -17.0252 C   0  0  0  0  0  0  0  0  0  0  0  0
   21.6206   -8.7584  -16.9201 C   0  0  0  0  0  0  0  0  0  0  0  0
   21.9578   -8.9120  -15.4534 C   0  0  0  0  0  0  0  0  0  0  0  0
   20.6237   -8.8672  -14.7278 C   0  0  1  0  0  0  0  0  0  0  0  0
   20.3725   -7.4483  -14.3766 C   0  0  0  0  0  0  0  0  0  0  0  0
   19.8459   -6.6652  -15.1961 O   0  0  0  0  0  0  0  0  0  0  0  0
   19.3481   -4.5814  -10.5615 C   0  0  0  0  0  0  0  0  0  0  0  0
   19.7529   -5.8948  -11.1673 C   0  0  2  0  0  0  0  0  0  0  0  0
   20.7978   -6.5956  -10.3319 C   0  0  0  0  0  0  0  0  0  0  0  0
   20.2615   -5.7054  -12.5946 C   0  0  2  0  0  0  0  0  0  0  0  0
   20.7347   -6.9785  -13.0971 N   0  0  0  0  0  0  0  0  0  0  0  0
   21.3637   -4.7292  -12.6327 C   0  0  0  0  0  0  0  0  0  0  0  0
   22.6763   -5.1530  -12.6238 O   0  0  0  0  0  0  0  0  0  0  0  0
   21.1186   -3.5065  -12.6735 O   0  0  0  0  0  0  0  0  0  0  0  0
  2  1  1  0
  3  2  2  0
  4  2  1  0
  5  4  1  0
  6  5  1  0
  6  7  1  1
  8  6  1  0
  9  8  2  0
 10  8  1  0
 10 14  1  0
 11 12  1  0
 11 10  1  0
 12 13  1  0
 14 13  1  0
 15 21  1  0
 14 15  1  6
 16 15  2  0
 18 17  1  1
 19 18  1  0
 20 21  1  1
 20 18  1  0
 22 20  1  0
 22 23  1  0
 24 22  2  0
M  END
$$$$
