QPV.pdb
     RDKit          3D

 24 24  0  0  1  0  0  0  0  0999 V2000
   21.9927  -18.7962  -14.6027 N   0  0  0  0  0  0  0  0  0  0  0  0
   21.7848  -18.2909  -15.9315 C   0  0  0  0  0  0  0  0  0  0  0  0
   20.6650  -17.7673  -16.1559 O   0  0  0  0  0  0  0  0  0  0  0  0
   22.8416  -18.3880  -16.9720 C   0  0  0  0  0  0  0  0  0  0  0  0
   24.1566  -18.5552  -16.2718 C   0  0  0  0  0  0  0  0  0  0  0  0
   24.7994  -19.8985  -16.5609 C   0  0  2  0  0  0  0  0  0  0  0  0
   23.8397  -20.7543  -17.2648 N   0  0  0  0  0  0  0  0  0  0  0  0
   25.1505  -20.5182  -15.2606 C   0  0  0  0  0  0  0  0  0  0  0  0
   24.3062  -21.3514  -14.7602 O   0  0  0  0  0  0  0  0  0  0  0  0
   26.3241  -20.2616  -14.5525 N   0  0  0  0  0  0  0  0  0  0  0  0
   27.2923  -19.2056  -14.8925 C   0  0  0  0  0  0  0  0  0  0  0  0
   28.6248  -19.6979  -14.3988 C   0  0  0  0  0  0  0  0  0  0  0  0
   28.3411  -20.9206  -13.5543 C   0  0  0  0  0  0  0  0  0  0  0  0
   26.8312  -20.9513  -13.3868 C   0  0  1  0  0  0  0  0  0  0  0  0
   26.5206  -20.1972  -12.1479 C   0  0  0  0  0  0  0  0  0  0  0  0
   26.5887  -18.9495  -12.1189 O   0  0  0  0  0  0  0  0  0  0  0  0
   24.6080  -22.3218   -8.9371 C   0  0  0  0  0  0  0  0  0  0  0  0
   24.3366  -20.9106   -9.3738 C   0  0  2  0  0  0  0  0  0  0  0  0
   23.3075  -20.8568  -10.4779 C   0  0  0  0  0  0  0  0  0  0  0  0
   25.6227  -20.2189   -9.8201 C   0  0  2  0  0  0  0  0  0  0  0  0
   26.1428  -20.9021  -10.9863 N   0  0  0  0  0  0  0  0  0  0  0  0
   26.6332  -20.2503   -8.7490 C   0  0  0  0  0  0  0  0  0  0  0  0
   26.5033  -19.4423   -7.6387 O   0  0  0  0  0  0  0  0  0  0  0  0
   27.6186  -21.0105   -8.8373 O   0  0  0  0  0  0  0  0  0  0  0  0
  2  1  1  0
  3  2  2  0
  4  2  1  0
  5  4  1  0
  6  5  1  0
  6  7  1  1
  8  6  1  0
  9  8  2  0
 10  8  1  0
 10 14  1  0
 11 12  1  0
 11 10  1  0
 12 13  1  0
 14 13  1  0
 15 21  1  0
 14 15  1  1
 16 15  2  0
 18 17  1  6
 19 18  1  0
 20 21  1  6
 20 18  1  0
 22 20  1  0
 22 23  1  0
 24 22  2  0
M  END
$$$$
