QPV.pdb
     RDKit          3D

 24 24  0  0  1  0  0  0  0  0999 V2000
   19.0814  -15.8871  -20.4774 N   0  0  0  0  0  0  0  0  0  0  0  0
   18.3051  -15.1303  -19.5347 C   0  0  0  0  0  0  0  0  0  0  0  0
   17.0569  -15.2221  -19.6449 O   0  0  0  0  0  0  0  0  0  0  0  0
   18.9532  -14.2906  -18.4936 C   0  0  0  0  0  0  0  0  0  0  0  0
   20.4341  -14.3464  -18.7198 C   0  0  0  0  0  0  0  0  0  0  0  0
   21.1759  -14.9591  -17.5469 C   0  0  2  0  0  0  0  0  0  0  0  0
   20.4155  -16.1034  -17.0359 N   0  0  0  0  0  0  0  0  0  0  0  0
   21.2787  -13.9245  -16.4899 C   0  0  0  0  0  0  0  0  0  0  0  0
   20.2828  -13.8093  -15.6822 O   0  0  0  0  0  0  0  0  0  0  0  0
   22.3729  -13.0782  -16.3141 N   0  0  0  0  0  0  0  0  0  0  0  0
   23.5717  -13.0724  -17.1692 C   0  0  0  0  0  0  0  0  0  0  0  0
   24.6977  -12.5989  -16.2919 C   0  0  0  0  0  0  0  0  0  0  0  0
   24.0608  -12.0983  -15.0142 C   0  0  0  0  0  0  0  0  0  0  0  0
   22.5675  -12.0722  -15.2934 C   0  0  1  0  0  0  0  0  0  0  0  0
   22.2510  -10.7202  -15.8146 C   0  0  0  0  0  0  0  0  0  0  0  0
   22.5176  -10.4058  -16.9946 O   0  0  0  0  0  0  0  0  0  0  0  0
   18.9493   -9.7992  -16.2683 C   0  0  0  0  0  0  0  0  0  0  0  0
   19.4783   -8.7499  -15.3330 C   0  0  2  0  0  0  0  0  0  0  0  0
   18.7939   -7.4200  -15.5427 C   0  0  0  0  0  0  0  0  0  0  0  0
   20.9895   -8.5929  -15.4851 C   0  0  2  0  0  0  0  0  0  0  0  0
   21.6395   -9.7770  -14.9630 N   0  0  0  0  0  0  0  0  0  0  0  0
   21.4702   -7.4114  -14.7488 C   0  0  0  0  0  0  0  0  0  0  0  0
   21.6064   -6.1956  -15.3859 O   0  0  0  0  0  0  0  0  0  0  0  0
   21.7592   -7.5004  -13.5383 O   0  0  0  0  0  0  0  0  0  0  0  0
  2  1  1  0
  3  2  2  0
  4  2  1  0
  5  4  1  0
  6  5  1  0
  6  7  1  1
  8  6  1  0
  9  8  2  0
 10  8  1  0
 10 14  1  0
 11 12  1  0
 11 10  1  0
 12 13  1  0
 14 13  1  0
 15 21  1  0
 14 15  1  6
 16 15  2  0
 18 17  1  6
 19 18  1  0
 20 21  1  1
 20 18  1  0
 22 20  1  0
 22 23  1  0
 24 22  2  0
M  END
$$$$
