NLP.pdb
     RDKit          3D

 24 24  0  0  1  0  0  0  0  0999 V2000
   10.3908  -19.0105   19.7381 N   0  0  0  0  0  0  0  0  0  0  0  0
    9.3949  -18.4352   20.5557 C   0  0  0  0  0  0  0  0  0  0  0  0
    8.2056  -18.5322   20.1612 O   0  0  0  0  0  0  0  0  0  0  0  0
    9.7117  -17.7411   21.8293 C   0  0  0  0  0  0  0  0  0  0  0  0
    8.9459  -16.4623   21.8826 C   0  0  2  0  0  0  0  0  0  0  0  0
    9.4403  -15.6370   20.7719 N   0  0  0  0  0  0  0  0  0  0  0  0
    9.1003  -15.6815   23.1149 C   0  0  0  0  0  0  0  0  0  0  0  0
   10.1928  -15.0902   23.3946 O   0  0  0  0  0  0  0  0  0  0  0  0
    7.6354  -12.0587   25.3022 C   0  0  0  0  0  0  0  0  0  0  0  0
    6.5198  -13.1122   25.1416 C   0  0  2  0  0  0  0  0  0  0  0  0
    5.2432  -12.5250   25.6269 C   0  0  0  0  0  0  0  0  0  0  0  0
    6.9999  -14.3224   25.8473 C   0  0  0  0  0  0  0  0  0  0  0  0
    8.3327  -14.8520   25.3620 C   0  0  2  0  0  0  0  0  0  0  0  0
    8.0711  -15.5054   24.1024 N   0  0  0  0  0  0  0  0  0  0  0  0
    9.0921  -15.6234   26.3624 C   0  0  0  0  0  0  0  0  0  0  0  0
    8.7660  -16.8895   26.4124 O   0  0  0  0  0  0  0  0  0  0  0  0
   10.0805  -15.2234   27.2407 N   0  0  0  0  0  0  0  0  0  0  0  0
   10.8295  -13.9815   27.2510 C   0  0  0  0  0  0  0  0  0  0  0  0
   10.6723  -13.5829   28.7440 C   0  0  0  0  0  0  0  0  0  0  0  0
   10.2603  -14.8813   29.4575 C   0  0  0  0  0  0  0  0  0  0  0  0
   10.6655  -15.9050   28.3605 C   0  0  1  0  0  0  0  0  0  0  0  0
   10.4180  -17.2584   28.6727 C   0  0  0  0  0  0  0  0  0  0  0  0
    9.2466  -17.8541   28.1290 O   0  0  0  0  0  0  0  0  0  0  0  0
   11.0916  -18.0147   29.3672 O   0  0  0  0  0  0  0  0  0  0  0  0
  2  3  2  0
  2  1  1  0
  4  2  1  0
  5  4  1  0
  5  6  1  6
  7  8  2  0
  7  5  1  0
 10  9  1  1
 10 12  1  0
 11 10  1  0
 13 12  1  1
 13 14  1  0
 14  7  1  0
 15 13  1  0
 16 15  2  0
 17 15  1  0
 17 18  1  0
 19 18  1  0
 20 19  1  0
 21 22  1  1
 21 20  1  0
 21 17  1  0
 22 23  1  0
 24 22  2  0
M  END
$$$$
