NLP.pdb
     RDKit          3D

 24 24  0  0  1  0  0  0  0  0999 V2000
   10.3306  -19.4076   19.8421 N   0  0  0  0  0  0  0  0  0  0  0  0
    9.5325  -18.8902   20.8845 C   0  0  0  0  0  0  0  0  0  0  0  0
    8.3375  -19.2760   20.9345 O   0  0  0  0  0  0  0  0  0  0  0  0
   10.0572  -17.9318   21.8897 C   0  0  0  0  0  0  0  0  0  0  0  0
    9.1473  -16.7514   21.9484 C   0  0  2  0  0  0  0  0  0  0  0  0
    9.4435  -15.9408   20.7591 N   0  0  0  0  0  0  0  0  0  0  0  0
    9.3059  -15.8862   23.1224 C   0  0  0  0  0  0  0  0  0  0  0  0
   10.3762  -15.2259   23.3218 O   0  0  0  0  0  0  0  0  0  0  0  0
    7.9074  -12.1775   25.1398 C   0  0  0  0  0  0  0  0  0  0  0  0
    6.7834  -13.2301   25.0468 C   0  0  2  0  0  0  0  0  0  0  0  0
    5.5145  -12.6070   25.5069 C   0  0  0  0  0  0  0  0  0  0  0  0
    7.2602  -14.4020   25.8166 C   0  0  0  0  0  0  0  0  0  0  0  0
    8.5842  -14.9698   25.3509 C   0  0  2  0  0  0  0  0  0  0  0  0
    8.3050  -15.6968   24.1363 N   0  0  0  0  0  0  0  0  0  0  0  0
    9.3491  -15.6842   26.3887 C   0  0  0  0  0  0  0  0  0  0  0  0
    9.0700  -16.9601   26.4668 O   0  0  0  0  0  0  0  0  0  0  0  0
   10.3013  -15.2231   27.2770 N   0  0  0  0  0  0  0  0  0  0  0  0
   10.9788  -13.9407   27.2879 C   0  0  0  0  0  0  0  0  0  0  0  0
   10.7791  -13.5417   28.7758 C   0  0  0  0  0  0  0  0  0  0  0  0
   10.4315  -14.8565   29.4934 C   0  0  0  0  0  0  0  0  0  0  0  0
   10.9087  -15.8629   28.4095 C   0  0  1  0  0  0  0  0  0  0  0  0
   10.7339  -17.2261   28.7284 C   0  0  0  0  0  0  0  0  0  0  0  0
    9.4282  -17.6518   29.0980 O   0  0  0  0  0  0  0  0  0  0  0  0
   11.5748  -18.1209   28.7313 O   0  0  0  0  0  0  0  0  0  0  0  0
  2  3  2  0
  2  1  1  0
  4  2  1  0
  5  4  1  0
  5  6  1  6
  7  8  2  0
  7  5  1  0
 10  9  1  1
 10 12  1  0
 11 10  1  0
 13 12  1  1
 13 14  1  0
 14  7  1  0
 15 13  1  0
 16 15  2  0
 17 15  1  0
 17 18  1  0
 19 18  1  0
 20 19  1  0
 21 22  1  1
 21 20  1  0
 21 17  1  0
 22 23  1  0
 24 22  2  0
M  END
$$$$
