NLP.pdb
     RDKit          3D

 24 24  0  0  1  0  0  0  0  0999 V2000
    9.3284  -19.1446   20.0416 N   0  0  0  0  0  0  0  0  0  0  0  0
   10.5253  -18.7431   20.6721 C   0  0  0  0  0  0  0  0  0  0  0  0
   11.6024  -19.1212   20.1467 O   0  0  0  0  0  0  0  0  0  0  0  0
   10.5383  -17.9112   21.9018 C   0  0  0  0  0  0  0  0  0  0  0  0
    9.5783  -16.7830   21.7285 C   0  0  2  0  0  0  0  0  0  0  0  0
    9.9856  -16.0769   20.5058 N   0  0  0  0  0  0  0  0  0  0  0  0
    9.5516  -15.8001   22.8171 C   0  0  0  0  0  0  0  0  0  0  0  0
   10.6041  -15.1830   23.1815 O   0  0  0  0  0  0  0  0  0  0  0  0
    5.5222  -12.8107   26.3262 C   0  0  0  0  0  0  0  0  0  0  0  0
    7.0226  -12.9980   26.0201 C   0  0  2  0  0  0  0  0  0  0  0  0
    7.6106  -11.6679   25.7117 C   0  0  0  0  0  0  0  0  0  0  0  0
    7.0938  -14.0159   24.9468 C   0  0  0  0  0  0  0  0  0  0  0  0
    8.4543  -14.6563   24.7702 C   0  0  2  0  0  0  0  0  0  0  0  0
    8.3759  -15.4400   23.5614 N   0  0  0  0  0  0  0  0  0  0  0  0
    8.9762  -15.3382   25.9682 C   0  0  0  0  0  0  0  0  0  0  0  0
    8.3532  -16.4521   26.2560 O   0  0  0  0  0  0  0  0  0  0  0  0
   10.0062  -14.9897   26.8203 N   0  0  0  0  0  0  0  0  0  0  0  0
   10.9879  -13.9336   26.6641 C   0  0  0  0  0  0  0  0  0  0  0  0
   10.8827  -13.2578   28.0588 C   0  0  0  0  0  0  0  0  0  0  0  0
   10.2049  -14.3073   28.9554 C   0  0  0  0  0  0  0  0  0  0  0  0
   10.4200  -15.5654   28.0686 C   0  0  1  0  0  0  0  0  0  0  0  0
    9.9007  -16.7699   28.5883 C   0  0  0  0  0  0  0  0  0  0  0  0
    8.4983  -16.9807   28.4810 O   0  0  0  0  0  0  0  0  0  0  0  0
   10.5072  -17.6869   29.1351 O   0  0  0  0  0  0  0  0  0  0  0  0
  2  3  2  0
  2  1  1  0
  4  2  1  0
  5  4  1  0
  5  6  1  6
  7  8  2  0
  7  5  1  0
 10  9  1  6
 10 12  1  0
 11 10  1  0
 13 12  1  1
 13 14  1  0
 14  7  1  0
 15 13  1  0
 16 15  2  0
 17 15  1  0
 17 18  1  0
 19 18  1  0
 20 19  1  0
 21 22  1  1
 21 20  1  0
 21 17  1  0
 22 23  1  0
 24 22  2  0
M  END
$$$$
