NLP.pdb
     RDKit          3D

 24 24  0  0  1  0  0  0  0  0999 V2000
    9.1107  -15.9953   18.1917 N   0  0  0  0  0  0  0  0  0  0  0  0
    9.7423  -16.3390   19.4059 C   0  0  0  0  0  0  0  0  0  0  0  0
   10.3546  -17.4359   19.4409 O   0  0  0  0  0  0  0  0  0  0  0  0
    9.7001  -15.4615   20.6028 C   0  0  0  0  0  0  0  0  0  0  0  0
    9.4388  -16.3030   21.8062 C   0  0  2  0  0  0  0  0  0  0  0  0
    8.1030  -16.8867   21.6211 N   0  0  0  0  0  0  0  0  0  0  0  0
    9.4352  -15.5915   23.0890 C   0  0  0  0  0  0  0  0  0  0  0  0
   10.4683  -14.9793   23.5124 O   0  0  0  0  0  0  0  0  0  0  0  0
    7.6146  -12.1625   25.3999 C   0  0  0  0  0  0  0  0  0  0  0  0
    6.5398  -13.2106   25.0445 C   0  0  2  0  0  0  0  0  0  0  0  0
    5.2171  -12.6999   25.4912 C   0  0  0  0  0  0  0  0  0  0  0  0
    6.9960  -14.4818   25.6521 C   0  0  0  0  0  0  0  0  0  0  0  0
    8.4025  -14.8957   25.2745 C   0  0  2  0  0  0  0  0  0  0  0  0
    8.3048  -15.5107   23.9729 N   0  0  0  0  0  0  0  0  0  0  0  0
    9.1227  -15.6548   26.3126 C   0  0  0  0  0  0  0  0  0  0  0  0
    8.8199  -16.9272   26.3427 O   0  0  0  0  0  0  0  0  0  0  0  0
   10.0545  -15.2378   27.2432 N   0  0  0  0  0  0  0  0  0  0  0  0
   10.8413  -14.0194   27.2485 C   0  0  0  0  0  0  0  0  0  0  0  0
   10.5849  -13.5378   28.7028 C   0  0  0  0  0  0  0  0  0  0  0  0
   10.0774  -14.7840   29.4472 C   0  0  0  0  0  0  0  0  0  0  0  0
   10.5303  -15.8757   28.4380 C   0  0  1  0  0  0  0  0  0  0  0  0
   10.2152  -17.2030   28.7982 C   0  0  0  0  0  0  0  0  0  0  0  0
   10.9620  -17.7912   29.8560 O   0  0  0  0  0  0  0  0  0  0  0  0
    9.3627  -17.9414   28.3126 O   0  0  0  0  0  0  0  0  0  0  0  0
  2  3  2  0
  2  1  1  0
  4  2  1  0
  5  4  1  0
  5  6  1  6
  7  8  2  0
  7  5  1  0
 10  9  1  1
 10 12  1  0
 11 10  1  0
 13 12  1  1
 13 14  1  0
 14  7  1  0
 15 13  1  0
 16 15  2  0
 17 15  1  0
 17 18  1  0
 19 18  1  0
 20 19  1  0
 21 22  1  1
 21 20  1  0
 21 17  1  0
 22 23  1  0
 24 22  2  0
M  END
$$$$
