NLP.pdb
     RDKit          3D

 24 24  0  0  1  0  0  0  0  0999 V2000
   10.8623  -19.5834   20.0043 N   0  0  0  0  0  0  0  0  0  0  0  0
    9.9147  -19.0612   20.9102 C   0  0  0  0  0  0  0  0  0  0  0  0
    8.7247  -19.4418   20.7747 O   0  0  0  0  0  0  0  0  0  0  0  0
   10.2817  -18.1039   21.9841 C   0  0  0  0  0  0  0  0  0  0  0  0
    9.5902  -16.8073   21.7283 C   0  0  2  0  0  0  0  0  0  0  0  0
   10.2990  -16.1742   20.6075 N   0  0  0  0  0  0  0  0  0  0  0  0
    9.5925  -15.8562   22.8451 C   0  0  0  0  0  0  0  0  0  0  0  0
   10.6221  -15.1607   23.1238 O   0  0  0  0  0  0  0  0  0  0  0  0
    5.6995  -12.9004   26.4673 C   0  0  0  0  0  0  0  0  0  0  0  0
    7.1936  -13.0924   26.1344 C   0  0  2  0  0  0  0  0  0  0  0  0
    7.7801  -11.7643   25.8146 C   0  0  0  0  0  0  0  0  0  0  0  0
    7.2424  -14.1111   25.0606 C   0  0  0  0  0  0  0  0  0  0  0  0
    8.5872  -14.7844   24.8866 C   0  0  2  0  0  0  0  0  0  0  0  0
    8.4721  -15.6150   23.7124 N   0  0  0  0  0  0  0  0  0  0  0  0
    9.1182  -15.4269   26.1022 C   0  0  0  0  0  0  0  0  0  0  0  0
    8.5743  -16.5869   26.3675 O   0  0  0  0  0  0  0  0  0  0  0  0
   10.0871  -15.0016   26.9902 N   0  0  0  0  0  0  0  0  0  0  0  0
   10.9080  -13.8076   26.9260 C   0  0  0  0  0  0  0  0  0  0  0  0
   10.7061  -13.2624   28.3664 C   0  0  0  0  0  0  0  0  0  0  0  0
   10.1845  -14.4633   29.1730 C   0  0  0  0  0  0  0  0  0  0  0  0
   10.5779  -15.6063   28.1962 C   0  0  1  0  0  0  0  0  0  0  0  0
   10.2355  -16.9087   28.6171 C   0  0  0  0  0  0  0  0  0  0  0  0
    8.8560  -17.2545   28.6262 O   0  0  0  0  0  0  0  0  0  0  0  0
   10.9830  -17.8101   28.9867 O   0  0  0  0  0  0  0  0  0  0  0  0
  2  3  2  0
  2  1  1  0
  4  2  1  0
  5  4  1  0
  5  6  1  6
  7  8  2  0
  7  5  1  0
 10  9  1  6
 10 12  1  0
 11 10  1  0
 13 12  1  1
 13 14  1  0
 14  7  1  0
 15 13  1  0
 16 15  2  0
 17 15  1  0
 17 18  1  0
 19 18  1  0
 20 19  1  0
 21 22  1  1
 21 20  1  0
 21 17  1  0
 22 23  1  0
 24 22  2  0
M  END
$$$$
