NLP.pdb
     RDKit          3D

 24 24  0  0  1  0  0  0  0  0999 V2000
   10.3641  -18.5644   19.4056 N   0  0  0  0  0  0  0  0  0  0  0  0
    9.4880  -18.2751   20.4734 C   0  0  0  0  0  0  0  0  0  0  0  0
    8.3163  -18.7215   20.3880 O   0  0  0  0  0  0  0  0  0  0  0  0
    9.9072  -17.4811   21.6558 C   0  0  0  0  0  0  0  0  0  0  0  0
    8.9583  -16.3438   21.8314 C   0  0  2  0  0  0  0  0  0  0  0  0
    9.2308  -15.4042   20.7350 N   0  0  0  0  0  0  0  0  0  0  0  0
    9.0846  -15.6011   23.0902 C   0  0  0  0  0  0  0  0  0  0  0  0
   10.1583  -14.9885   23.3956 O   0  0  0  0  0  0  0  0  0  0  0  0
    7.4606  -12.0732   25.3175 C   0  0  0  0  0  0  0  0  0  0  0  0
    6.3986  -13.1759   25.1272 C   0  0  2  0  0  0  0  0  0  0  0  0
    5.0874  -12.6536   25.5940 C   0  0  0  0  0  0  0  0  0  0  0  0
    6.9220  -14.3692   25.8311 C   0  0  0  0  0  0  0  0  0  0  0  0
    8.2756  -14.8461   25.3490 C   0  0  2  0  0  0  0  0  0  0  0  0
    8.0462  -15.4882   24.0774 N   0  0  0  0  0  0  0  0  0  0  0  0
    9.0527  -15.6071   26.3438 C   0  0  0  0  0  0  0  0  0  0  0  0
    8.6918  -16.8602   26.4504 O   0  0  0  0  0  0  0  0  0  0  0  0
   10.0878  -15.2090   27.1674 N   0  0  0  0  0  0  0  0  0  0  0  0
   10.9040  -14.0135   27.0767 C   0  0  0  0  0  0  0  0  0  0  0  0
   10.8144  -13.5125   28.5443 C   0  0  0  0  0  0  0  0  0  0  0  0
   10.3535  -14.7374   29.3517 C   0  0  0  0  0  0  0  0  0  0  0  0
   10.6682  -15.8501   28.3132 C   0  0  1  0  0  0  0  0  0  0  0  0
   10.3563  -17.1647   28.7194 C   0  0  0  0  0  0  0  0  0  0  0  0
    8.9838  -17.5367   28.7424 O   0  0  0  0  0  0  0  0  0  0  0  0
   11.1256  -18.0572   29.0652 O   0  0  0  0  0  0  0  0  0  0  0  0
  2  3  2  0
  2  1  1  0
  4  2  1  0
  5  4  1  0
  5  6  1  6
  7  8  2  0
  7  5  1  0
 10  9  1  1
 10 12  1  0
 11 10  1  0
 13 12  1  1
 13 14  1  0
 14  7  1  0
 15 13  1  0
 16 15  2  0
 17 15  1  0
 17 18  1  0
 19 18  1  0
 20 19  1  0
 21 22  1  1
 21 20  1  0
 21 17  1  0
 22 23  1  0
 24 22  2  0
M  END
$$$$
