FAD.pdb
     RDKit          3D

 25 25  0  0  1  0  0  0  0  0999 V2000
   16.6841  -10.1780  -17.4128 N   0  0  0  0  0  0  0  0  0  0  0  0
   17.8074   -9.9042  -16.5725 C   0  0  1  0  0  0  0  0  0  0  0  0
   18.9930   -9.3545  -17.3500 C   0  0  0  0  0  0  0  0  0  0  0  0
   19.4834  -10.3138  -18.3643 C   0  0  0  0  0  0  0  0  0  0  0  0
   19.3318  -10.0011  -19.6988 C   0  0  0  0  0  0  0  0  0  0  0  0
   19.7747  -10.8664  -20.6906 C   0  0  0  0  0  0  0  0  0  0  0  0
   20.3778  -12.0613  -20.3592 C   0  0  0  0  0  0  0  0  0  0  0  0
   20.5273  -12.3699  -19.0252 C   0  0  0  0  0  0  0  0  0  0  0  0
   20.0854  -11.5065  -18.0326 C   0  0  0  0  0  0  0  0  0  0  0  0
   17.5139   -9.0097  -15.4500 C   0  0  0  0  0  0  0  0  0  0  0  0
   16.6780   -8.0835  -15.6423 O   0  0  0  0  0  0  0  0  0  0  0  0
   18.1585   -8.6990  -11.7502 C   0  0  0  0  0  0  0  0  0  0  0  0
   17.8085   -8.1694  -13.1028 C   0  0  2  0  0  0  0  0  0  0  0  0
   18.0894   -9.0936  -14.1601 N   0  0  0  0  0  0  0  0  0  0  0  0
   18.4155   -6.8440  -13.2950 C   0  0  0  0  0  0  0  0  0  0  0  0
   18.1017   -5.9178  -12.5039 O   0  0  0  0  0  0  0  0  0  0  0  0
   19.3448   -6.5271  -14.3243 N   0  0  0  0  0  0  0  0  0  0  0  0
   19.8704   -5.1743  -14.4987 C   0  0  1  0  0  0  0  0  0  0  0  0
   21.3772   -5.3144  -14.5409 C   0  0  0  0  0  0  0  0  0  0  0  0
   21.9507   -5.7322  -13.2475 C   0  0  0  0  0  0  0  0  0  0  0  0
   22.1301   -4.8958  -12.3387 O   0  0  0  0  0  0  0  0  0  0  0  0
   19.3046   -4.5362  -15.7085 C   0  0  0  0  0  0  0  0  0  0  0  0
   19.3275   -3.2937  -15.8816 O   0  0  0  0  0  0  0  0  0  0  0  0
   22.2880   -7.0605  -13.0515 O   0  0  0  0  0  0  0  0  0  0  0  0
   18.7220   -5.3078  -16.7046 O   0  0  0  0  0  0  0  0  0  0  0  0
  2  1  1  6
  2  3  1  0
  4  5  2  0
  4  3  1  0
  6  5  1  0
  7  6  2  0
  8  7  1  0
  8  9  2  0
  9  4  1  0
 10  2  1  0
 11 10  2  0
 13 12  1  1
 13 14  1  0
 14 10  1  0
 15 16  2  0
 15 13  1  0
 17 15  1  0
 18 17  1  0
 18 19  1  6
 20 21  2  0
 20 19  1  0
 22 25  1  0
 22 18  1  0
 23 22  2  0
 24 20  1  0
M  END
$$$$
