FAD.pdb
     RDKit          3D

 25 25  0  0  1  0  0  0  0  0999 V2000
   24.5534  -12.2542  -15.3362 N   0  0  0  0  0  0  0  0  0  0  0  0
   23.5897  -11.6533  -16.2041 C   0  0  1  0  0  0  0  0  0  0  0  0
   22.1651  -11.8387  -15.7058 C   0  0  0  0  0  0  0  0  0  0  0  0
   21.7691  -13.2641  -15.6770 C   0  0  0  0  0  0  0  0  0  0  0  0
   21.7746  -13.9764  -16.8578 C   0  0  0  0  0  0  0  0  0  0  0  0
   21.4118  -15.3167  -16.8860 C   0  0  0  0  0  0  0  0  0  0  0  0
   21.0371  -15.9650  -15.7282 C   0  0  0  0  0  0  0  0  0  0  0  0
   21.0330  -15.2501  -14.5510 C   0  0  0  0  0  0  0  0  0  0  0  0
   21.3952  -13.9107  -14.5208 C   0  0  0  0  0  0  0  0  0  0  0  0
   23.8239  -10.2316  -16.4688 C   0  0  0  0  0  0  0  0  0  0  0  0
   24.1820   -9.5066  -15.4996 O   0  0  0  0  0  0  0  0  0  0  0  0
   23.9732   -7.8227  -19.3805 C   0  0  0  0  0  0  0  0  0  0  0  0
   23.8992   -8.1956  -17.9355 C   0  0  2  0  0  0  0  0  0  0  0  0
   23.6829   -9.5955  -17.7249 N   0  0  0  0  0  0  0  0  0  0  0  0
   22.9292   -7.3336  -17.2441 C   0  0  0  0  0  0  0  0  0  0  0  0
   23.1322   -6.0923  -17.2265 O   0  0  0  0  0  0  0  0  0  0  0  0
   21.7610   -7.8064  -16.5842 N   0  0  0  0  0  0  0  0  0  0  0  0
   20.8269   -6.8961  -15.9240 C   0  0  1  0  0  0  0  0  0  0  0  0
   19.4880   -7.6029  -15.9205 C   0  0  0  0  0  0  0  0  0  0  0  0
   18.8018   -7.5378  -17.2247 C   0  0  0  0  0  0  0  0  0  0  0  0
   18.8795   -8.4919  -18.0254 O   0  0  0  0  0  0  0  0  0  0  0  0
   21.3046   -6.5339  -14.5707 C   0  0  0  0  0  0  0  0  0  0  0  0
   21.1479   -5.3848  -14.0920 O   0  0  0  0  0  0  0  0  0  0  0  0
   18.0710   -6.4084  -17.5521 O   0  0  0  0  0  0  0  0  0  0  0  0
   21.9514   -7.4719  -13.7777 O   0  0  0  0  0  0  0  0  0  0  0  0
  2  1  1  1
  2  3  1  0
  4  5  2  0
  4  3  1  0
  6  5  1  0
  7  6  2  0
  8  7  1  0
  8  9  2  0
  9  4  1  0
 10  2  1  0
 11 10  2  0
 13 12  1  6
 13 14  1  0
 14 10  1  0
 15 16  2  0
 15 13  1  0
 17 15  1  0
 18 17  1  0
 18 19  1  1
 20 21  2  0
 20 19  1  0
 22 25  1  0
 22 18  1  0
 23 22  2  0
 24 20  1  0
M  END
$$$$
