FAD.pdb
     RDKit          3D

 25 25  0  0  1  0  0  0  0  0999 V2000
   28.6587  -20.7398   -8.7701 N   0  0  0  0  0  0  0  0  0  0  0  0
   27.2340  -20.6781   -8.6734 C   0  0  1  0  0  0  0  0  0  0  0  0
   26.7647  -19.6139   -7.6938 C   0  0  0  0  0  0  0  0  0  0  0  0
   27.4838  -19.6931   -6.4030 C   0  0  0  0  0  0  0  0  0  0  0  0
   27.1701  -20.7155   -5.5323 C   0  0  0  0  0  0  0  0  0  0  0  0
   27.8153  -20.8354   -4.3084 C   0  0  0  0  0  0  0  0  0  0  0  0
   28.7871  -19.9302   -3.9375 C   0  0  0  0  0  0  0  0  0  0  0  0
   29.0974  -18.9106   -4.8099 C   0  0  0  0  0  0  0  0  0  0  0  0
   28.4539  -18.7891   -6.0335 C   0  0  0  0  0  0  0  0  0  0  0  0
   26.5528  -20.4832   -9.9557 C   0  0  0  0  0  0  0  0  0  0  0  0
   26.7695  -19.4055  -10.5761 O   0  0  0  0  0  0  0  0  0  0  0  0
   25.5675  -22.2126  -12.8670 C   0  0  0  0  0  0  0  0  0  0  0  0
   25.0920  -21.2146  -11.8617 C   0  0  2  0  0  0  0  0  0  0  0  0
   25.6671  -21.4039  -10.5639 N   0  0  0  0  0  0  0  0  0  0  0  0
   23.6224  -21.1662  -11.8594 C   0  0  0  0  0  0  0  0  0  0  0  0
   22.9940  -21.9911  -11.1475 O   0  0  0  0  0  0  0  0  0  0  0  0
   22.8474  -20.2421  -12.6138 N   0  0  0  0  0  0  0  0  0  0  0  0
   21.3865  -20.2380  -12.5614 C   0  0  1  0  0  0  0  0  0  0  0  0
   20.9633  -18.8106  -12.8365 C   0  0  0  0  0  0  0  0  0  0  0  0
   19.5009  -18.6252  -12.7803 C   0  0  0  0  0  0  0  0  0  0  0  0
   18.8331  -19.1586  -11.8710 O   0  0  0  0  0  0  0  0  0  0  0  0
   20.8178  -21.2148  -13.5171 C   0  0  0  0  0  0  0  0  0  0  0  0
   21.3531  -21.4540  -14.6263 O   0  0  0  0  0  0  0  0  0  0  0  0
   18.8765  -17.8540  -13.7458 O   0  0  0  0  0  0  0  0  0  0  0  0
   19.6549  -21.9071  -13.2082 O   0  0  0  0  0  0  0  0  0  0  0  0
  2  1  1  6
  2  3  1  0
  4  5  2  0
  4  3  1  0
  6  5  1  0
  7  6  2  0
  8  7  1  0
  8  9  2  0
  9  4  1  0
 10  2  1  0
 11 10  2  0
 13 12  1  6
 13 14  1  0
 14 10  1  0
 15 16  2  0
 15 13  1  0
 17 15  1  0
 18 17  1  0
 18 19  1  6
 20 21  2  0
 20 19  1  0
 22 25  1  0
 22 18  1  0
 23 22  2  0
 24 20  1  0
M  END
$$$$
