FAD.pdb
     RDKit          3D

 25 25  0  0  1  0  0  0  0  0999 V2000
   24.5646  -11.0348  -17.8465 N   0  0  0  0  0  0  0  0  0  0  0  0
   24.2606  -10.6722  -16.4977 C   0  0  1  0  0  0  0  0  0  0  0  0
   25.4386  -10.0173  -15.7936 C   0  0  0  0  0  0  0  0  0  0  0  0
   26.6699  -10.8311  -15.8999 C   0  0  0  0  0  0  0  0  0  0  0  0
   26.6948  -12.0745  -15.3041 C   0  0  0  0  0  0  0  0  0  0  0  0
   27.8251  -12.8784  -15.3742 C   0  0  0  0  0  0  0  0  0  0  0  0
   28.9504  -12.4471  -16.0442 C   0  0  0  0  0  0  0  0  0  0  0  0
   28.9215  -11.2046  -16.6378 C   0  0  0  0  0  0  0  0  0  0  0  0
   27.7929  -10.3999  -16.5689 C   0  0  0  0  0  0  0  0  0  0  0  0
   23.0812   -9.8144  -16.3577 C   0  0  0  0  0  0  0  0  0  0  0  0
   22.9877   -8.8172  -17.1259 O   0  0  0  0  0  0  0  0  0  0  0  0
   19.7751   -9.7671  -14.5220 C   0  0  0  0  0  0  0  0  0  0  0  0
   20.8541   -9.1918  -15.3807 C   0  0  2  0  0  0  0  0  0  0  0  0
   22.0303  -10.0074  -15.4301 N   0  0  0  0  0  0  0  0  0  0  0  0
   21.1136   -7.7974  -14.9931 C   0  0  0  0  0  0  0  0  0  0  0  0
   22.1910   -7.5273  -14.4025 O   0  0  0  0  0  0  0  0  0  0  0  0
   20.2236   -6.7155  -15.2399 N   0  0  0  0  0  0  0  0  0  0  0  0
   20.5777   -5.3357  -14.9117 C   0  0  1  0  0  0  0  0  0  0  0  0
   21.7429   -4.9791  -15.8101 C   0  0  0  0  0  0  0  0  0  0  0  0
   22.1629   -3.5716  -15.6729 C   0  0  0  0  0  0  0  0  0  0  0  0
   21.5358   -2.6673  -16.2614 O   0  0  0  0  0  0  0  0  0  0  0  0
   19.4137   -4.4357  -15.0726 C   0  0  0  0  0  0  0  0  0  0  0  0
   18.5251   -4.6399  -15.9345 O   0  0  0  0  0  0  0  0  0  0  0  0
   23.2592   -3.2636  -14.8854 O   0  0  0  0  0  0  0  0  0  0  0  0
   19.2688   -3.3196  -14.2600 O   0  0  0  0  0  0  0  0  0  0  0  0
  2  1  1  6
  2  3  1  0
  4  5  2  0
  4  3  1  0
  6  5  1  0
  7  6  2  0
  8  7  1  0
  8  9  2  0
  9  4  1  0
 10  2  1  0
 11 10  2  0
 13 12  1  1
 13 14  1  0
 14 10  1  0
 15 16  2  0
 15 13  1  0
 17 15  1  0
 18 17  1  0
 18 19  1  6
 20 21  2  0
 20 19  1  0
 22 25  1  0
 22 18  1  0
 23 22  2  0
 24 20  1  0
M  END
$$$$
