FAD.pdb
     RDKit          3D

 25 25  0  0  1  0  0  0  0  0999 V2000
   23.0521   -8.2285  -16.2071 N   0  0  0  0  0  0  0  0  0  0  0  0
   21.8145   -8.6127  -15.6038 C   0  0  1  0  0  0  0  0  0  0  0  0
   22.0144   -9.3465  -14.2870 C   0  0  0  0  0  0  0  0  0  0  0  0
   22.6807  -10.6540  -14.4768 C   0  0  0  0  0  0  0  0  0  0  0  0
   24.0154  -10.7701  -14.1501 C   0  0  0  0  0  0  0  0  0  0  0  0
   24.6882  -11.9746  -14.3089 C   0  0  0  0  0  0  0  0  0  0  0  0
   24.0318  -13.0838  -14.7988 C   0  0  0  0  0  0  0  0  0  0  0  0
   22.6988  -12.9637  -15.1239 C   0  0  0  0  0  0  0  0  0  0  0  0
   22.0247  -11.7609  -14.9659 C   0  0  0  0  0  0  0  0  0  0  0  0
   20.8774   -7.5055  -15.3982 C   0  0  0  0  0  0  0  0  0  0  0  0
   21.2076   -6.6031  -14.5796 O   0  0  0  0  0  0  0  0  0  0  0  0
   17.8318   -5.9963  -16.9876 C   0  0  0  0  0  0  0  0  0  0  0  0
   18.7543   -6.2402  -15.8378 C   0  0  2  0  0  0  0  0  0  0  0  0
   19.6258   -7.3581  -16.0416 N   0  0  0  0  0  0  0  0  0  0  0  0
   17.9877   -6.3048  -14.5847 C   0  0  0  0  0  0  0  0  0  0  0  0
   17.8170   -7.4260  -14.0406 O   0  0  0  0  0  0  0  0  0  0  0  0
   17.4164   -5.1768  -13.9329 N   0  0  0  0  0  0  0  0  0  0  0  0
   16.6794   -5.3038  -12.6768 C   0  0  1  0  0  0  0  0  0  0  0  0
   17.6877   -5.7665  -11.6466 C   0  0  0  0  0  0  0  0  0  0  0  0
   17.1384   -5.7920  -10.2777 C   0  0  0  0  0  0  0  0  0  0  0  0
   15.9203   -5.6016  -10.0845 O   0  0  0  0  0  0  0  0  0  0  0  0
   16.0151   -4.0303  -12.3193 C   0  0  0  0  0  0  0  0  0  0  0  0
   14.8286   -3.9864  -11.9136 O   0  0  0  0  0  0  0  0  0  0  0  0
   17.9869   -6.0291   -9.2097 O   0  0  0  0  0  0  0  0  0  0  0  0
   16.6977   -2.8262  -12.4244 O   0  0  0  0  0  0  0  0  0  0  0  0
  2  1  1  1
  2  3  1  0
  4  5  2  0
  4  3  1  0
  6  5  1  0
  7  6  2  0
  8  7  1  0
  8  9  2  0
  9  4  1  0
 10  2  1  0
 11 10  2  0
 13 12  1  6
 13 14  1  0
 14 10  1  0
 15 16  2  0
 15 13  1  0
 17 15  1  0
 18 17  1  0
 18 19  1  1
 20 21  2  0
 20 19  1  0
 22 25  1  0
 22 18  1  0
 23 22  2  0
 24 20  1  0
M  END
$$$$
