FAD.pdb
     RDKit          3D

 25 25  0  0  1  0  0  0  0  0999 V2000
   26.3974  -20.1618  -17.8926 N   0  0  0  0  0  0  0  0  0  0  0  0
   26.3784  -19.6557  -16.5560 C   0  0  1  0  0  0  0  0  0  0  0  0
   26.1465  -18.1537  -16.5077 C   0  0  0  0  0  0  0  0  0  0  0  0
   27.1418  -17.4131  -17.3142 C   0  0  0  0  0  0  0  0  0  0  0  0
   28.4549  -17.3969  -16.8931 C   0  0  0  0  0  0  0  0  0  0  0  0
   29.4283  -16.7171  -17.6134 C   0  0  0  0  0  0  0  0  0  0  0  0
   29.0998  -16.0414  -18.7696 C   0  0  0  0  0  0  0  0  0  0  0  0
   27.7872  -16.0600  -19.1867 C   0  0  0  0  0  0  0  0  0  0  0  0
   26.8130  -16.7388  -18.4683 C   0  0  0  0  0  0  0  0  0  0  0  0
   25.4121  -20.3185  -15.6766 C   0  0  0  0  0  0  0  0  0  0  0  0
   24.3007  -20.6521  -16.1736 O   0  0  0  0  0  0  0  0  0  0  0  0
   25.0868  -21.4242  -12.0645 C   0  0  0  0  0  0  0  0  0  0  0  0
   24.6120  -21.1865  -13.4611 C   0  0  2  0  0  0  0  0  0  0  0  0
   25.6170  -20.6197  -14.3094 N   0  0  0  0  0  0  0  0  0  0  0  0
   23.3536  -20.4262  -13.4405 C   0  0  0  0  0  0  0  0  0  0  0  0
   23.4098  -19.1703  -13.3956 O   0  0  0  0  0  0  0  0  0  0  0  0
   22.0586  -21.0142  -13.4679 N   0  0  0  0  0  0  0  0  0  0  0  0
   20.8435  -20.2018  -13.4887 C   0  0  1  0  0  0  0  0  0  0  0  0
   20.9204  -19.3685  -14.7504 C   0  0  0  0  0  0  0  0  0  0  0  0
   19.6597  -18.6633  -15.0495 C   0  0  0  0  0  0  0  0  0  0  0  0
   18.5663  -19.2550  -14.9414 O   0  0  0  0  0  0  0  0  0  0  0  0
   19.6342  -21.0526  -13.4183 C   0  0  0  0  0  0  0  0  0  0  0  0
   18.5451  -20.6294  -12.9614 O   0  0  0  0  0  0  0  0  0  0  0  0
   19.7011  -17.3391  -15.4513 O   0  0  0  0  0  0  0  0  0  0  0  0
   19.6709  -22.3668  -13.8637 O   0  0  0  0  0  0  0  0  0  0  0  0
  2  1  1  6
  2  3  1  0
  4  5  2  0
  4  3  1  0
  6  5  1  0
  7  6  2  0
  8  7  1  0
  8  9  2  0
  9  4  1  0
 10  2  1  0
 11 10  2  0
 13 12  1  1
 13 14  1  0
 14 10  1  0
 15 16  2  0
 15 13  1  0
 17 15  1  0
 18 17  1  0
 18 19  1  6
 20 21  2  0
 20 19  1  0
 22 25  1  0
 22 18  1  0
 23 22  2  0
 24 20  1  0
M  END
$$$$
