FAD.pdb
     RDKit          3D

 25 25  0  0  1  0  0  0  0  0999 V2000
   18.3036  -11.9970  -17.9733 N   0  0  0  0  0  0  0  0  0  0  0  0
   17.9383  -10.6504  -18.2839 C   0  0  1  0  0  0  0  0  0  0  0  0
   16.7042  -10.1937  -17.5219 C   0  0  0  0  0  0  0  0  0  0  0  0
   15.5064  -10.9842  -17.8821 C   0  0  0  0  0  0  0  0  0  0  0  0
   14.7802  -10.6154  -18.9950 C   0  0  0  0  0  0  0  0  0  0  0  0
   13.6482  -11.3234  -19.3769 C   0  0  0  0  0  0  0  0  0  0  0  0
   13.2256  -12.4146  -18.6474 C   0  0  0  0  0  0  0  0  0  0  0  0
   13.9536  -12.7796  -17.5366 C   0  0  0  0  0  0  0  0  0  0  0  0
   15.0852  -12.0734  -17.1534 C   0  0  0  0  0  0  0  0  0  0  0  0
   19.0133   -9.6753  -18.0842 C   0  0  0  0  0  0  0  0  0  0  0  0
   19.7550   -9.8201  -17.0731 O   0  0  0  0  0  0  0  0  0  0  0  0
   20.6214   -6.7543  -19.8716 C   0  0  0  0  0  0  0  0  0  0  0  0
   20.3663   -7.6544  -18.7065 C   0  0  2  0  0  0  0  0  0  0  0  0
   19.2948   -8.5776  -18.9314 N   0  0  0  0  0  0  0  0  0  0  0  0
   20.2166   -6.8573  -17.4802 C   0  0  0  0  0  0  0  0  0  0  0  0
   19.0637   -6.4861  -17.1404 O   0  0  0  0  0  0  0  0  0  0  0  0
   21.2947   -6.4691  -16.6371 N   0  0  0  0  0  0  0  0  0  0  0  0
   21.0891   -5.6220  -15.4636 C   0  0  1  0  0  0  0  0  0  0  0  0
   22.1971   -5.9759  -14.4945 C   0  0  0  0  0  0  0  0  0  0  0  0
   22.1063   -5.2328  -13.2234 C   0  0  0  0  0  0  0  0  0  0  0  0
   21.0918   -4.5547  -12.9617 O   0  0  0  0  0  0  0  0  0  0  0  0
   21.0704   -4.1902  -15.8385 C   0  0  0  0  0  0  0  0  0  0  0  0
   21.8283   -3.7204  -16.7211 O   0  0  0  0  0  0  0  0  0  0  0  0
   23.1568   -5.2948  -12.3238 O   0  0  0  0  0  0  0  0  0  0  0  0
   20.1981   -3.3099  -15.2131 O   0  0  0  0  0  0  0  0  0  0  0  0
  2  1  1  1
  2  3  1  0
  4  5  2  0
  4  3  1  0
  6  5  1  0
  7  6  2  0
  8  7  1  0
  8  9  2  0
  9  4  1  0
 10  2  1  0
 11 10  2  0
 13 12  1  6
 13 14  1  0
 14 10  1  0
 15 16  2  0
 15 13  1  0
 17 15  1  0
 18 17  1  0
 18 19  1  1
 20 21  2  0
 20 19  1  0
 22 25  1  0
 22 18  1  0
 23 22  2  0
 24 20  1  0
M  END
$$$$
