FAD.pdb
     RDKit          3D

 25 25  0  0  1  0  0  0  0  0999 V2000
   16.3578  -13.8362    7.5572 N   0  0  0  0  0  0  0  0  0  0  0  0
   16.7855  -15.0741    6.9847 C   0  0  1  0  0  0  0  0  0  0  0  0
   18.2586  -15.0606    6.6076 C   0  0  0  0  0  0  0  0  0  0  0  0
   18.5443  -14.0947    5.5237 C   0  0  0  0  0  0  0  0  0  0  0  0
   19.2289  -12.9378    5.8316 C   0  0  0  0  0  0  0  0  0  0  0  0
   19.5227  -11.9986    4.8516 C   0  0  0  0  0  0  0  0  0  0  0  0
   19.1337  -12.2051    3.5450 C   0  0  0  0  0  0  0  0  0  0  0  0
   18.4501  -13.3617    3.2416 C   0  0  0  0  0  0  0  0  0  0  0  0
   18.1556  -14.3015    4.2195 C   0  0  0  0  0  0  0  0  0  0  0  0
   16.5152  -16.2471    7.8198 C   0  0  0  0  0  0  0  0  0  0  0  0
   16.6936  -16.1338    9.0642 O   0  0  0  0  0  0  0  0  0  0  0  0
   14.4704  -19.2512    7.9542 C   0  0  0  0  0  0  0  0  0  0  0  0
   15.8032  -18.6236    8.2038 C   0  0  2  0  0  0  0  0  0  0  0  0
   16.0683  -17.5048    7.3500 N   0  0  0  0  0  0  0  0  0  0  0  0
   16.8541  -19.6518    8.1799 C   0  0  0  0  0  0  0  0  0  0  0  0
   17.5636  -19.7634    7.1472 O   0  0  0  0  0  0  0  0  0  0  0  0
   17.1318  -20.5425    9.2537 N   0  0  0  0  0  0  0  0  0  0  0  0
   18.2723  -21.4563    9.2219 C   0  0  1  0  0  0  0  0  0  0  0  0
   18.4455  -21.9568   10.6402 C   0  0  0  0  0  0  0  0  0  0  0  0
   19.2032  -21.0193   11.4906 C   0  0  0  0  0  0  0  0  0  0  0  0
   19.7072  -19.9892   10.9982 O   0  0  0  0  0  0  0  0  0  0  0  0
   18.0573  -22.5405    8.2375 C   0  0  0  0  0  0  0  0  0  0  0  0
   16.9332  -23.0690    8.0601 O   0  0  0  0  0  0  0  0  0  0  0  0
   19.3499  -21.2929   12.8398 O   0  0  0  0  0  0  0  0  0  0  0  0
   19.1120  -23.0126    7.4681 O   0  0  0  0  0  0  0  0  0  0  0  0
  2  1  1  1
  2  3  1  0
  4  5  2  0
  4  3  1  0
  6  5  1  0
  7  6  2  0
  8  7  1  0
  8  9  2  0
  9  4  1  0
 10  2  1  0
 11 10  2  0
 13 12  1  6
 13 14  1  0
 14 10  1  0
 15 16  2  0
 15 13  1  0
 17 15  1  0
 18 17  1  0
 18 19  1  1
 20 21  2  0
 20 19  1  0
 22 25  1  0
 22 18  1  0
 23 22  2  0
 24 20  1  0
M  END
$$$$
