MIK.pdb
     RDKit          3D

 26 25  0  0  1  0  0  0  0  0999 V2000
    6.6481  -11.7928   26.1690 C   0  0  0  0  0  0  0  0  0  0  0  0
    6.6005  -12.6458   27.7707 S   0  0  0  0  0  0  0  0  0  0  0  0
    6.1497  -14.3716   27.4453 C   0  0  0  0  0  0  0  0  0  0  0  0
    7.1344  -15.0354   26.4924 C   0  0  0  0  0  0  0  0  0  0  0  0
    6.3182  -15.8728   25.5378 C   0  0  2  0  0  0  0  0  0  0  0  0
    6.0679  -17.1523   26.1268 N   0  0  0  0  0  0  0  0  0  0  0  0
    7.0447  -15.9686   24.2467 C   0  0  0  0  0  0  0  0  0  0  0  0
    7.5547  -17.0732   23.8923 O   0  0  0  0  0  0  0  0  0  0  0  0
    8.2503  -12.7737   19.0145 C   0  0  0  0  0  0  0  0  0  0  0  0
    8.4146  -13.9579   19.8999 C   0  0  0  0  0  0  0  0  0  0  0  0
    7.6729  -13.8473   21.2252 C   0  0  2  0  0  0  0  0  0  0  0  0
    8.1991  -12.6069   21.9118 C   0  0  0  0  0  0  0  0  0  0  0  0
    7.9391  -15.0505   22.0925 C   0  0  2  0  0  0  0  0  0  0  0  0
    7.2025  -14.8704   23.3715 N   0  0  0  0  0  0  0  0  0  0  0  0
    9.3245  -15.3099   22.4366 C   0  0  0  0  0  0  0  0  0  0  0  0
    9.8482  -14.5774   23.3689 O   0  0  0  0  0  0  0  0  0  0  0  0
   10.1779  -16.2846   21.8662 N   0  0  0  0  0  0  0  0  0  0  0  0
   11.4947  -16.6116   22.4191 C   0  0  1  0  0  0  0  0  0  0  0  0
   11.5578  -18.0378   22.8317 C   0  0  0  0  0  0  0  0  0  0  0  0
   12.8503  -18.5239   23.3784 C   0  0  0  0  0  0  0  0  0  0  0  0
   12.9273  -19.9733   23.7021 C   0  0  0  0  0  0  0  0  0  0  0  0
   14.2916  -20.2550   24.3024 C   0  0  0  0  0  0  0  0  0  0  0  0
   14.3859  -21.5912   24.8361 N   0  0  0  0  0  0  0  0  0  0  0  0
   12.5788  -16.1414   21.5472 C   0  0  0  0  0  0  0  0  0  0  0  0
   12.3766  -15.9555   20.1855 O   0  0  0  0  0  0  0  0  0  0  0  0
   13.7170  -15.8944   22.0147 O   0  0  0  0  0  0  0  0  0  0  0  0
  2  1  1  0
  3  2  1  0
  4  3  1  0
  4  5  1  0
  5  7  1  0
  5  6  1  1
  7  8  2  0
 10  9  1  0
 11 13  1  0
 11 10  1  0
 11 12  1  1
 13 14  1  1
 14  7  1  0
 15 13  1  0
 16 15  2  0
 17 15  1  0
 18 19  1  6
 18 17  1  0
 19 20  1  0
 20 21  1  0
 21 22  1  0
 23 22  1  0
 24 25  1  0
 24 18  1  0
 26 24  2  0
M  END
$$$$
