MIK.pdb
     RDKit          3D

 26 25  0  0  1  0  0  0  0  0999 V2000
    7.2163  -10.9804   26.4244 C   0  0  0  0  0  0  0  0  0  0  0  0
    6.8300  -12.3617   27.5370 S   0  0  0  0  0  0  0  0  0  0  0  0
    5.9754  -13.6208   26.5511 C   0  0  0  0  0  0  0  0  0  0  0  0
    6.9243  -14.7307   26.1198 C   0  0  0  0  0  0  0  0  0  0  0  0
    6.2195  -15.5074   25.0341 C   0  0  2  0  0  0  0  0  0  0  0  0
    5.5865  -16.6546   25.6086 N   0  0  0  0  0  0  0  0  0  0  0  0
    7.2075  -15.8635   23.9847 C   0  0  0  0  0  0  0  0  0  0  0  0
    7.6412  -17.0517   23.9062 O   0  0  0  0  0  0  0  0  0  0  0  0
    7.3960  -12.6682   19.7008 C   0  0  0  0  0  0  0  0  0  0  0  0
    7.5078  -14.0147   20.3232 C   0  0  0  0  0  0  0  0  0  0  0  0
    8.8416  -14.2690   21.0126 C   0  0  2  0  0  0  0  0  0  0  0  0
    9.8069  -14.7095   19.9351 C   0  0  0  0  0  0  0  0  0  0  0  0
    8.7139  -15.3582   22.0460 C   0  0  2  0  0  0  0  0  0  0  0  0
    7.7023  -14.9288   23.0476 N   0  0  0  0  0  0  0  0  0  0  0  0
    9.9168  -15.7005   22.7815 C   0  0  0  0  0  0  0  0  0  0  0  0
   10.2535  -14.9186   23.7588 O   0  0  0  0  0  0  0  0  0  0  0  0
   10.7721  -16.8050   22.5530 N   0  0  0  0  0  0  0  0  0  0  0  0
   12.0082  -17.0244   23.3085 C   0  0  1  0  0  0  0  0  0  0  0  0
   11.9113  -18.2527   24.1393 C   0  0  0  0  0  0  0  0  0  0  0  0
   13.1349  -18.6687   24.8710 C   0  0  0  0  0  0  0  0  0  0  0  0
   13.0095  -19.8699   25.7387 C   0  0  0  0  0  0  0  0  0  0  0  0
   14.3394  -20.0972   26.4320 C   0  0  0  0  0  0  0  0  0  0  0  0
   14.2614  -21.1323   27.4328 N   0  0  0  0  0  0  0  0  0  0  0  0
   13.1936  -16.9166   22.4484 C   0  0  0  0  0  0  0  0  0  0  0  0
   14.4138  -16.4894   22.9567 O   0  0  0  0  0  0  0  0  0  0  0  0
   13.1313  -17.2105   21.2299 O   0  0  0  0  0  0  0  0  0  0  0  0
  2  1  1  0
  3  2  1  0
  4  3  1  0
  4  5  1  0
  5  7  1  0
  5  6  1  1
  7  8  2  0
 10  9  1  0
 11 13  1  0
 11 10  1  0
 11 12  1  6
 13 14  1  1
 14  7  1  0
 15 13  1  0
 16 15  2  0
 17 15  1  0
 18 19  1  6
 18 17  1  0
 19 20  1  0
 20 21  1  0
 21 22  1  0
 23 22  1  0
 24 25  1  0
 24 18  1  0
 26 24  2  0
M  END
$$$$
