MIK.pdb
     RDKit          3D

 26 25  0  0  1  0  0  0  0  0999 V2000
    7.3402  -11.1545   26.7569 C   0  0  0  0  0  0  0  0  0  0  0  0
    6.3395  -12.2197   27.8335 S   0  0  0  0  0  0  0  0  0  0  0  0
    5.8852  -13.6840   26.8655 C   0  0  0  0  0  0  0  0  0  0  0  0
    7.0204  -14.1223   25.9505 C   0  0  0  0  0  0  0  0  0  0  0  0
    6.4900  -15.2624   25.1153 C   0  0  2  0  0  0  0  0  0  0  0  0
    6.2000  -16.3760   25.9653 N   0  0  0  0  0  0  0  0  0  0  0  0
    7.4871  -15.5878   24.0646 C   0  0  0  0  0  0  0  0  0  0  0  0
    8.0068  -16.7431   24.0268 O   0  0  0  0  0  0  0  0  0  0  0  0
    7.1505  -12.7221   19.4915 C   0  0  0  0  0  0  0  0  0  0  0  0
    7.3256  -13.8749   20.4154 C   0  0  0  0  0  0  0  0  0  0  0  0
    8.7578  -14.0729   20.8933 C   0  0  2  0  0  0  0  0  0  0  0  0
    9.5444  -14.5737   19.7028 C   0  0  0  0  0  0  0  0  0  0  0  0
    8.8193  -15.0942   21.9995 C   0  0  2  0  0  0  0  0  0  0  0  0
    7.8981  -14.6589   23.0823 N   0  0  0  0  0  0  0  0  0  0  0  0
   10.1166  -15.3119   22.6116 C   0  0  0  0  0  0  0  0  0  0  0  0
   10.3408  -14.7237   23.7446 O   0  0  0  0  0  0  0  0  0  0  0  0
   11.1758  -16.1049   22.1086 N   0  0  0  0  0  0  0  0  0  0  0  0
   12.0057  -16.9591   22.9621 C   0  0  1  0  0  0  0  0  0  0  0  0
   11.1626  -17.7986   23.8525 C   0  0  0  0  0  0  0  0  0  0  0  0
   11.5237  -17.8253   25.2928 C   0  0  0  0  0  0  0  0  0  0  0  0
   10.6817  -18.6821   26.1693 C   0  0  0  0  0  0  0  0  0  0  0  0
   11.1449  -18.4980   27.6019 C   0  0  0  0  0  0  0  0  0  0  0  0
   10.3523  -19.2626   28.5327 N   0  0  0  0  0  0  0  0  0  0  0  0
   13.0306  -17.6672   22.1846 C   0  0  0  0  0  0  0  0  0  0  0  0
   14.3830  -17.4870   22.4458 O   0  0  0  0  0  0  0  0  0  0  0  0
   12.7066  -18.4557   21.2635 O   0  0  0  0  0  0  0  0  0  0  0  0
  2  1  1  0
  3  2  1  0
  4  3  1  0
  4  5  1  0
  5  7  1  0
  5  6  1  1
  7  8  2  0
 10  9  1  0
 11 13  1  0
 11 10  1  0
 11 12  1  6
 13 14  1  1
 14  7  1  0
 15 13  1  0
 16 15  2  0
 17 15  1  0
 18 19  1  6
 18 17  1  0
 19 20  1  0
 20 21  1  0
 21 22  1  0
 23 22  1  0
 24 25  1  0
 24 18  1  0
 26 24  2  0
M  END
$$$$
