MIK.pdb
     RDKit          3D

 26 25  0  0  1  0  0  0  0  0999 V2000
    5.2406  -10.8280   27.8822 C   0  0  0  0  0  0  0  0  0  0  0  0
    6.6437  -11.8609   27.3727 S   0  0  0  0  0  0  0  0  0  0  0  0
    5.9888  -13.1548   26.2843 C   0  0  0  0  0  0  0  0  0  0  0  0
    7.0955  -14.0675   25.7739 C   0  0  0  0  0  0  0  0  0  0  0  0
    6.4321  -15.1171   24.9156 C   0  0  2  0  0  0  0  0  0  0  0  0
    5.9210  -16.1586   25.7528 N   0  0  0  0  0  0  0  0  0  0  0  0
    7.4172  -15.6125   23.9215 C   0  0  0  0  0  0  0  0  0  0  0  0
    7.7668  -16.8305   23.9355 O   0  0  0  0  0  0  0  0  0  0  0  0
    7.6110  -12.4032   19.9555 C   0  0  0  0  0  0  0  0  0  0  0  0
    7.6345  -13.8556   20.2764 C   0  0  0  0  0  0  0  0  0  0  0  0
    8.9859  -14.3597   20.7649 C   0  0  2  0  0  0  0  0  0  0  0  0
    9.6649  -14.9970   19.5735 C   0  0  0  0  0  0  0  0  0  0  0  0
    8.8150  -15.3880   21.8530 C   0  0  2  0  0  0  0  0  0  0  0  0
    7.9999  -14.7814   22.9385 N   0  0  0  0  0  0  0  0  0  0  0  0
   10.0289  -15.8912   22.4680 C   0  0  0  0  0  0  0  0  0  0  0  0
   10.6951  -15.0698   23.2175 O   0  0  0  0  0  0  0  0  0  0  0  0
   10.5730  -17.1921   22.3443 N   0  0  0  0  0  0  0  0  0  0  0  0
   11.8566  -17.5779   22.9361 C   0  0  1  0  0  0  0  0  0  0  0  0
   11.9291  -19.0490   23.1333 C   0  0  0  0  0  0  0  0  0  0  0  0
   13.2444  -19.6104   23.5343 C   0  0  0  0  0  0  0  0  0  0  0  0
   13.2134  -20.7404   24.5004 C   0  0  0  0  0  0  0  0  0  0  0  0
   14.6393  -21.1962   24.7457 C   0  0  0  0  0  0  0  0  0  0  0  0
   14.7196  -22.2017   25.7761 N   0  0  0  0  0  0  0  0  0  0  0  0
   12.9856  -16.9635   22.2259 C   0  0  0  0  0  0  0  0  0  0  0  0
   14.0876  -16.4737   22.9154 O   0  0  0  0  0  0  0  0  0  0  0  0
   12.9812  -16.8680   20.9745 O   0  0  0  0  0  0  0  0  0  0  0  0
  2  1  1  0
  3  2  1  0
  4  3  1  0
  4  5  1  0
  5  7  1  0
  5  6  1  1
  7  8  2  0
 10  9  1  0
 11 13  1  0
 11 10  1  0
 11 12  1  6
 13 14  1  1
 14  7  1  0
 15 13  1  0
 16 15  2  0
 17 15  1  0
 18 19  1  6
 18 17  1  0
 19 20  1  0
 20 21  1  0
 21 22  1  0
 23 22  1  0
 24 25  1  0
 24 18  1  0
 26 24  2  0
M  END
$$$$
