MIK.pdb
     RDKit          3D

 26 25  0  0  1  0  0  0  0  0999 V2000
    7.0606  -11.1885   27.5655 C   0  0  0  0  0  0  0  0  0  0  0  0
    6.4950  -12.8088   26.9742 S   0  0  0  0  0  0  0  0  0  0  0  0
    7.9141  -13.9344   27.0569 C   0  0  0  0  0  0  0  0  0  0  0  0
    7.5234  -15.3542   26.6696 C   0  0  0  0  0  0  0  0  0  0  0  0
    6.6077  -15.2424   25.4748 C   0  0  2  0  0  0  0  0  0  0  0  0
    5.4525  -16.0593   25.6866 N   0  0  0  0  0  0  0  0  0  0  0  0
    7.3647  -15.6253   24.2564 C   0  0  0  0  0  0  0  0  0  0  0  0
    7.5306  -16.8504   23.9780 O   0  0  0  0  0  0  0  0  0  0  0  0
    7.4561  -12.1905   20.2180 C   0  0  0  0  0  0  0  0  0  0  0  0
    7.5249  -13.5989   20.6920 C   0  0  0  0  0  0  0  0  0  0  0  0
    8.8840  -13.9980   21.2512 C   0  0  2  0  0  0  0  0  0  0  0  0
    9.7230  -14.4380   20.0725 C   0  0  0  0  0  0  0  0  0  0  0  0
    8.7506  -15.1402   22.2249 C   0  0  2  0  0  0  0  0  0  0  0  0
    7.9234  -14.6769   23.3703 N   0  0  0  0  0  0  0  0  0  0  0  0
    9.9828  -15.6676   22.7806 C   0  0  0  0  0  0  0  0  0  0  0  0
   10.6385  -14.9014   23.5948 O   0  0  0  0  0  0  0  0  0  0  0  0
   10.5549  -16.9388   22.5348 N   0  0  0  0  0  0  0  0  0  0  0  0
   11.8594  -17.3411   23.0670 C   0  0  1  0  0  0  0  0  0  0  0  0
   11.8370  -18.7591   23.5109 C   0  0  0  0  0  0  0  0  0  0  0  0
   13.1316  -19.3538   23.9304 C   0  0  0  0  0  0  0  0  0  0  0  0
   13.0852  -20.7550   24.4261 C   0  0  0  0  0  0  0  0  0  0  0  0
   14.4636  -21.1237   24.9409 C   0  0  0  0  0  0  0  0  0  0  0  0
   14.5357  -22.4996   25.3660 N   0  0  0  0  0  0  0  0  0  0  0  0
   12.9522  -16.9635   22.1617 C   0  0  0  0  0  0  0  0  0  0  0  0
   14.1745  -16.5242   22.6545 O   0  0  0  0  0  0  0  0  0  0  0  0
   12.8067  -17.0307   20.9169 O   0  0  0  0  0  0  0  0  0  0  0  0
  2  1  1  0
  3  2  1  0
  4  3  1  0
  4  5  1  0
  5  7  1  0
  5  6  1  1
  7  8  2  0
 10  9  1  0
 11 13  1  0
 11 10  1  0
 11 12  1  6
 13 14  1  1
 14  7  1  0
 15 13  1  0
 16 15  2  0
 17 15  1  0
 18 19  1  6
 18 17  1  0
 19 20  1  0
 20 21  1  0
 21 22  1  0
 23 22  1  0
 24 25  1  0
 24 18  1  0
 26 24  2  0
M  END
$$$$
