MIK.pdb
     RDKit          3D

 26 25  0  0  1  0  0  0  0  0999 V2000
    6.2762  -20.8566   22.9922 C   0  0  0  0  0  0  0  0  0  0  0  0
    6.2763  -21.7105   21.3904 S   0  0  0  0  0  0  0  0  0  0  0  0
    6.5274  -20.4500   20.1114 C   0  0  0  0  0  0  0  0  0  0  0  0
    7.3835  -19.2993   20.6225 C   0  0  0  0  0  0  0  0  0  0  0  0
    7.4412  -18.2753   19.5149 C   0  0  2  0  0  0  0  0  0  0  0  0
    8.1075  -18.8412   18.3823 N   0  0  0  0  0  0  0  0  0  0  0  0
    8.1167  -17.0566   20.0271 C   0  0  0  0  0  0  0  0  0  0  0  0
    9.3327  -16.8438   19.7406 O   0  0  0  0  0  0  0  0  0  0  0  0
    8.0780  -12.1350   19.9003 C   0  0  0  0  0  0  0  0  0  0  0  0
    7.0310  -13.1120   20.3030 C   0  0  0  0  0  0  0  0  0  0  0  0
    7.3139  -13.8126   21.6251 C   0  0  2  0  0  0  0  0  0  0  0  0
    7.9751  -12.7904   22.5221 C   0  0  0  0  0  0  0  0  0  0  0  0
    8.2448  -14.9808   21.4264 C   0  0  2  0  0  0  0  0  0  0  0  0
    7.4634  -16.0992   20.8354 N   0  0  0  0  0  0  0  0  0  0  0  0
    8.8958  -15.5022   22.6135 C   0  0  0  0  0  0  0  0  0  0  0  0
    9.7479  -14.7273   23.2080 O   0  0  0  0  0  0  0  0  0  0  0  0
    8.7020  -16.7736   23.2049 N   0  0  0  0  0  0  0  0  0  0  0  0
    9.4264  -17.2148   24.3996 C   0  0  1  0  0  0  0  0  0  0  0  0
    8.6367  -18.2193   25.1583 C   0  0  0  0  0  0  0  0  0  0  0  0
    9.2593  -18.7777   26.3856 C   0  0  0  0  0  0  0  0  0  0  0  0
    8.5042  -19.8558   27.0776 C   0  0  0  0  0  0  0  0  0  0  0  0
    9.4950  -20.7227   27.8310 C   0  0  0  0  0  0  0  0  0  0  0  0
    9.0872  -20.9562   29.1942 N   0  0  0  0  0  0  0  0  0  0  0  0
   10.8126  -17.5841   24.0855 C   0  0  0  0  0  0  0  0  0  0  0  0
   11.8268  -17.4319   25.0224 O   0  0  0  0  0  0  0  0  0  0  0  0
   11.1134  -18.0490   22.9593 O   0  0  0  0  0  0  0  0  0  0  0  0
  2  1  1  0
  3  2  1  0
  4  3  1  0
  4  5  1  0
  5  7  1  0
  5  6  1  6
  7  8  2  0
 10  9  1  0
 11 13  1  0
 11 10  1  0
 11 12  1  1
 13 14  1  1
 14  7  1  0
 15 13  1  0
 16 15  2  0
 17 15  1  0
 18 19  1  6
 18 17  1  0
 19 20  1  0
 20 21  1  0
 21 22  1  0
 23 22  1  0
 24 25  1  0
 24 18  1  0
 26 24  2  0
M  END
$$$$
