MIK.pdb
     RDKit          3D

 26 25  0  0  1  0  0  0  0  0999 V2000
    8.1799  -11.1186   19.5788 C   0  0  0  0  0  0  0  0  0  0  0  0
    7.4062  -12.4801   18.6607 S   0  0  0  0  0  0  0  0  0  0  0  0
    7.8337  -14.0176   19.5213 C   0  0  0  0  0  0  0  0  0  0  0  0
    7.5882  -13.9051   21.0198 C   0  0  0  0  0  0  0  0  0  0  0  0
    8.0520  -15.2033   21.6348 C   0  0  2  0  0  0  0  0  0  0  0  0
    6.9656  -16.1341   21.6495 N   0  0  0  0  0  0  0  0  0  0  0  0
    8.5856  -14.9241   22.9918 C   0  0  0  0  0  0  0  0  0  0  0  0
    9.7913  -14.5593   23.1309 O   0  0  0  0  0  0  0  0  0  0  0  0
    5.9966  -11.9296   26.3023 C   0  0  0  0  0  0  0  0  0  0  0  0
    7.0751  -12.6938   25.6198 C   0  0  0  0  0  0  0  0  0  0  0  0
    7.4489  -13.9945   26.3179 C   0  0  2  0  0  0  0  0  0  0  0  0
    8.0978  -13.6095   27.6285 C   0  0  0  0  0  0  0  0  0  0  0  0
    8.4261  -14.7880   25.4896 C   0  0  2  0  0  0  0  0  0  0  0  0
    7.8052  -15.0460   24.1635 N   0  0  0  0  0  0  0  0  0  0  0  0
    8.8344  -16.0746   26.0216 C   0  0  0  0  0  0  0  0  0  0  0  0
    7.8989  -16.9414   26.2530 O   0  0  0  0  0  0  0  0  0  0  0  0
   10.1528  -16.4970   26.3169 N   0  0  0  0  0  0  0  0  0  0  0  0
   10.4678  -17.8437   26.8006 C   0  0  1  0  0  0  0  0  0  0  0  0
   11.4712  -18.5012   25.9235 C   0  0  0  0  0  0  0  0  0  0  0  0
   11.9355  -19.8529   26.3275 C   0  0  0  0  0  0  0  0  0  0  0  0
   13.0394  -20.4401   25.5226 C   0  0  0  0  0  0  0  0  0  0  0  0
   13.2717  -21.8615   25.9986 C   0  0  0  0  0  0  0  0  0  0  0  0
   14.2624  -22.5460   25.2055 N   0  0  0  0  0  0  0  0  0  0  0  0
   10.7649  -17.8456   28.2387 C   0  0  0  0  0  0  0  0  0  0  0  0
   10.8785  -16.6582   28.9507 O   0  0  0  0  0  0  0  0  0  0  0  0
   10.9222  -18.9246   28.8601 O   0  0  0  0  0  0  0  0  0  0  0  0
  2  1  1  0
  3  2  1  0
  4  3  1  0
  4  5  1  0
  5  7  1  0
  5  6  1  1
  7  8  2  0
 10  9  1  0
 11 13  1  0
 11 10  1  0
 11 12  1  1
 13 14  1  6
 14  7  1  0
 15 13  1  0
 16 15  2  0
 17 15  1  0
 18 19  1  6
 18 17  1  0
 19 20  1  0
 20 21  1  0
 21 22  1  0
 23 22  1  0
 24 25  1  0
 24 18  1  0
 26 24  2  0
M  END
$$$$
