RDT.pdb
     RDKit          3D

 27 26  0  0  1  0  0  0  0  0999 V2000
    6.6532  -13.5710   15.9296 N   0  0  0  0  0  0  0  0  0  0  0  0
    7.4700  -14.7124   16.1868 C   0  0  0  0  0  0  0  0  0  0  0  0
    7.3672  -15.7236   15.4132 N   0  0  0  0  0  0  0  0  0  0  0  0
    8.3894  -14.7477   17.2662 N   0  0  0  0  0  0  0  0  0  0  0  0
    8.5151  -13.7087   18.2529 C   0  0  0  0  0  0  0  0  0  0  0  0
    7.4764  -13.7497   19.3171 C   0  0  0  0  0  0  0  0  0  0  0  0
    7.7650  -14.5559   20.5271 C   0  0  0  0  0  0  0  0  0  0  0  0
    8.9808  -14.1455   21.3045 C   0  0  2  0  0  0  0  0  0  0  0  0
   10.1353  -14.3971   20.4102 N   0  0  0  0  0  0  0  0  0  0  0  0
    9.1078  -15.0890   22.4776 C   0  0  0  0  0  0  0  0  0  0  0  0
    8.1801  -15.1007   23.3119 O   0  0  0  0  0  0  0  0  0  0  0  0
   10.2281  -15.9409   22.6493 N   0  0  0  0  0  0  0  0  0  0  0  0
   10.4155  -16.8190   23.7768 C   0  0  1  0  0  0  0  0  0  0  0  0
   11.4223  -17.8769   23.4071 C   0  0  0  0  0  0  0  0  0  0  0  0
   11.6083  -18.8240   24.5023 C   0  0  0  0  0  0  0  0  0  0  0  0
   11.8423  -18.3994   25.6585 O   0  0  0  0  0  0  0  0  0  0  0  0
   10.8723  -16.0476   24.9832 C   0  0  0  0  0  0  0  0  0  0  0  0
   11.9672  -15.4105   24.9978 O   0  0  0  0  0  0  0  0  0  0  0  0
   11.5329  -20.1983   24.2999 O   0  0  0  0  0  0  0  0  0  0  0  0
   10.2401  -13.0079   28.3364 C   0  0  0  0  0  0  0  0  0  0  0  0
    9.5265  -14.0711   27.5313 C   0  0  1  0  0  0  0  0  0  0  0  0
    9.1645  -13.5699   26.2896 O   0  0  0  0  0  0  0  0  0  0  0  0
   10.4900  -15.2494   27.3389 C   0  0  2  0  0  0  0  0  0  0  0  0
   10.0955  -15.9949   26.1707 N   0  0  0  0  0  0  0  0  0  0  0  0
   10.5526  -16.0683   28.5612 C   0  0  0  0  0  0  0  0  0  0  0  0
   10.0866  -17.3640   28.5433 O   0  0  0  0  0  0  0  0  0  0  0  0
   11.0268  -15.5863   29.6067 O   0  0  0  0  0  0  0  0  0  0  0  0
  2  3  2  0
  2  1  1  0
  4  2  1  0
  5  4  1  0
  6  5  1  0
  7  6  1  0
  8  7  1  0
  8  9  1  6
 10 12  1  0
 10  8  1  0
 11 10  2  0
 13 12  1  0
 13 14  1  6
 15 19  1  0
 15 14  1  0
 16 15  2  0
 17 24  1  0
 17 13  1  0
 18 17  2  0
 21 20  1  1
 22 21  1  0
 23 25  1  0
 23 21  1  0
 23 24  1  6
 25 26  1  0
 27 25  2  0
M  END
$$$$
