RDT.pdb
     RDKit          3D

 27 26  0  0  1  0  0  0  0  0999 V2000
    7.0088  -13.0577   16.5459 N   0  0  0  0  0  0  0  0  0  0  0  0
    8.2180  -13.7504   16.8529 C   0  0  0  0  0  0  0  0  0  0  0  0
    8.6679  -14.5968   16.0086 N   0  0  0  0  0  0  0  0  0  0  0  0
    8.9288  -13.5186   18.0582 N   0  0  0  0  0  0  0  0  0  0  0  0
    8.3507  -12.9256   19.2342 C   0  0  0  0  0  0  0  0  0  0  0  0
    7.3428  -13.7815   19.9160 C   0  0  0  0  0  0  0  0  0  0  0  0
    7.7453  -14.4404   21.1814 C   0  0  0  0  0  0  0  0  0  0  0  0
    8.4348  -15.7644   21.0318 C   0  0  2  0  0  0  0  0  0  0  0  0
    7.3867  -16.7184   20.5987 N   0  0  0  0  0  0  0  0  0  0  0  0
    8.8927  -16.1942   22.4060 C   0  0  0  0  0  0  0  0  0  0  0  0
    8.0173  -16.5479   23.2215 O   0  0  0  0  0  0  0  0  0  0  0  0
   10.2597  -16.2052   22.7821 N   0  0  0  0  0  0  0  0  0  0  0  0
   10.7420  -16.6082   24.0791 C   0  0  1  0  0  0  0  0  0  0  0  0
   12.1664  -17.0793   23.9434 C   0  0  0  0  0  0  0  0  0  0  0  0
   12.2435  -18.2678   23.0991 C   0  0  0  0  0  0  0  0  0  0  0  0
   11.4066  -19.1896   23.2453 O   0  0  0  0  0  0  0  0  0  0  0  0
   10.6478  -15.4726   25.0593 C   0  0  0  0  0  0  0  0  0  0  0  0
   11.2111  -14.3572   24.8510 O   0  0  0  0  0  0  0  0  0  0  0  0
   13.2283  -18.4100   22.1268 O   0  0  0  0  0  0  0  0  0  0  0  0
    8.5163  -13.0655   25.9883 C   0  0  0  0  0  0  0  0  0  0  0  0
    8.6027  -13.8322   27.2892 C   0  0  1  0  0  0  0  0  0  0  0  0
    7.5581  -14.7403   27.3809 O   0  0  0  0  0  0  0  0  0  0  0  0
    9.9354  -14.5921   27.3065 C   0  0  2  0  0  0  0  0  0  0  0  0
    9.9195  -15.5951   26.2722 N   0  0  0  0  0  0  0  0  0  0  0  0
   10.1985  -15.1399   28.6478 C   0  0  0  0  0  0  0  0  0  0  0  0
   10.4087  -14.2865   29.7080 O   0  0  0  0  0  0  0  0  0  0  0  0
   10.2301  -16.3728   28.8188 O   0  0  0  0  0  0  0  0  0  0  0  0
  2  3  2  0
  2  1  1  0
  4  2  1  0
  5  4  1  0
  6  5  1  0
  7  6  1  0
  8  7  1  0
  8  9  1  1
 10 12  1  0
 10  8  1  0
 11 10  2  0
 13 12  1  0
 13 14  1  6
 15 19  1  0
 15 14  1  0
 16 15  2  0
 17 24  1  0
 17 13  1  0
 18 17  2  0
 21 20  1  6
 22 21  1  0
 23 25  1  0
 23 21  1  0
 23 24  1  6
 25 26  1  0
 27 25  2  0
M  END
$$$$
