RDT.pdb
     RDKit          3D

 27 26  0  0  1  0  0  0  0  0999 V2000
    9.0049  -13.6635   20.5711 N   0  0  0  0  0  0  0  0  0  0  0  0
    8.3233  -12.7905   19.6713 C   0  0  0  0  0  0  0  0  0  0  0  0
    8.5406  -11.5347   19.7570 N   0  0  0  0  0  0  0  0  0  0  0  0
    7.4246  -13.2799   18.6893 N   0  0  0  0  0  0  0  0  0  0  0  0
    7.6133  -14.5073   17.9635 C   0  0  0  0  0  0  0  0  0  0  0  0
    8.5382  -15.4689   18.6217 C   0  0  0  0  0  0  0  0  0  0  0  0
    9.8902  -15.6312   18.0360 C   0  0  0  0  0  0  0  0  0  0  0  0
   10.3010  -17.0426   17.7356 C   0  0  2  0  0  0  0  0  0  0  0  0
    9.0407  -17.8132   17.6177 N   0  0  0  0  0  0  0  0  0  0  0  0
   11.0363  -17.5674   18.9466 C   0  0  0  0  0  0  0  0  0  0  0  0
   10.3956  -18.2769   19.7483 O   0  0  0  0  0  0  0  0  0  0  0  0
   12.4037  -17.2805   19.1882 N   0  0  0  0  0  0  0  0  0  0  0  0
   13.1387  -17.7397   20.3399 C   0  0  1  0  0  0  0  0  0  0  0  0
   14.5770  -17.3136   20.2004 C   0  0  0  0  0  0  0  0  0  0  0  0
   15.2557  -18.0998   19.1745 C   0  0  0  0  0  0  0  0  0  0  0  0
   16.1650  -17.5751   18.4892 O   0  0  0  0  0  0  0  0  0  0  0  0
   12.5417  -17.1927   21.6062 C   0  0  0  0  0  0  0  0  0  0  0  0
   12.2270  -15.9715   21.7274 O   0  0  0  0  0  0  0  0  0  0  0  0
   14.9205  -19.4279   18.9316 O   0  0  0  0  0  0  0  0  0  0  0  0
    9.4629  -17.1102   24.9844 C   0  0  0  0  0  0  0  0  0  0  0  0
   10.1354  -17.4827   23.6818 C   0  0  1  0  0  0  0  0  0  0  0  0
    9.8769  -16.5207   22.7165 O   0  0  0  0  0  0  0  0  0  0  0  0
   11.6476  -17.5550   23.9304 C   0  0  2  0  0  0  0  0  0  0  0  0
   12.3002  -18.0216   22.7336 N   0  0  0  0  0  0  0  0  0  0  0  0
   11.9360  -18.3823   25.1139 C   0  0  0  0  0  0  0  0  0  0  0  0
   11.7406  -17.8663   26.3756 O   0  0  0  0  0  0  0  0  0  0  0  0
   12.3556  -19.5457   24.9697 O   0  0  0  0  0  0  0  0  0  0  0  0
  2  3  2  0
  2  1  1  0
  4  2  1  0
  5  4  1  0
  6  5  1  0
  7  6  1  0
  8  7  1  0
  8  9  1  1
 10 12  1  0
 10  8  1  0
 11 10  2  0
 13 12  1  0
 13 14  1  6
 15 19  1  0
 15 14  1  0
 16 15  2  0
 17 24  1  0
 17 13  1  0
 18 17  2  0
 21 20  1  1
 22 21  1  0
 23 25  1  0
 23 21  1  0
 23 24  1  6
 25 26  1  0
 27 25  2  0
M  END
$$$$
