RDT.pdb
     RDKit          3D

 27 26  0  0  1  0  0  0  0  0999 V2000
    8.7718  -11.8540   19.8575 N   0  0  0  0  0  0  0  0  0  0  0  0
    8.1130  -12.7466   18.9600 C   0  0  0  0  0  0  0  0  0  0  0  0
    8.3420  -12.6332   17.7085 N   0  0  0  0  0  0  0  0  0  0  0  0
    7.2242  -13.7513   19.4207 N   0  0  0  0  0  0  0  0  0  0  0  0
    7.5597  -14.7271   20.4227 C   0  0  0  0  0  0  0  0  0  0  0  0
    8.3947  -15.8522   19.9226 C   0  0  0  0  0  0  0  0  0  0  0  0
    9.6126  -16.1985   20.6935 C   0  0  0  0  0  0  0  0  0  0  0  0
    9.7433  -17.6409   21.0851 C   0  0  2  0  0  0  0  0  0  0  0  0
    8.5835  -18.3316   20.4738 N   0  0  0  0  0  0  0  0  0  0  0  0
    9.5736  -17.7199   22.5843 C   0  0  0  0  0  0  0  0  0  0  0  0
    8.4387  -17.9960   23.0229 O   0  0  0  0  0  0  0  0  0  0  0  0
   10.6467  -17.4937   23.4831 N   0  0  0  0  0  0  0  0  0  0  0  0
   10.5397  -17.5931   24.9170 C   0  0  1  0  0  0  0  0  0  0  0  0
   11.6856  -18.4235   25.4337 C   0  0  0  0  0  0  0  0  0  0  0  0
   11.6728  -18.4780   26.8925 C   0  0  0  0  0  0  0  0  0  0  0  0
   10.6010  -18.7194   27.4963 O   0  0  0  0  0  0  0  0  0  0  0  0
   10.5440  -16.2288   25.5477 C   0  0  0  0  0  0  0  0  0  0  0  0
   11.4674  -15.3900   25.3273 O   0  0  0  0  0  0  0  0  0  0  0  0
   12.8265  -18.2679   27.6410 O   0  0  0  0  0  0  0  0  0  0  0  0
    8.1802  -13.3928   25.4437 C   0  0  0  0  0  0  0  0  0  0  0  0
    8.2191  -13.8136   26.8960 C   0  0  1  0  0  0  0  0  0  0  0  0
    7.1559  -14.6585   27.1791 O   0  0  0  0  0  0  0  0  0  0  0  0
    9.5367  -14.5608   27.1401 C   0  0  2  0  0  0  0  0  0  0  0  0
    9.5086  -15.8116   26.4254 N   0  0  0  0  0  0  0  0  0  0  0  0
    9.7797  -14.7179   28.5839 C   0  0  0  0  0  0  0  0  0  0  0  0
    9.9243  -13.6038   29.3803 O   0  0  0  0  0  0  0  0  0  0  0  0
    9.8538  -15.8577   29.0797 O   0  0  0  0  0  0  0  0  0  0  0  0
  2  3  2  0
  2  1  1  0
  4  2  1  0
  5  4  1  0
  6  5  1  0
  7  6  1  0
  8  7  1  0
  8  9  1  6
 10 12  1  0
 10  8  1  0
 11 10  2  0
 13 12  1  0
 13 14  1  1
 15 19  1  0
 15 14  1  0
 16 15  2  0
 17 24  1  0
 17 13  1  0
 18 17  2  0
 21 20  1  6
 22 21  1  0
 23 25  1  0
 23 21  1  0
 23 24  1  6
 25 26  1  0
 27 25  2  0
M  END
$$$$
