RDT.pdb
     RDKit          3D

 27 26  0  0  1  0  0  0  0  0999 V2000
    6.1503  -14.4923   15.3237 N   0  0  0  0  0  0  0  0  0  0  0  0
    7.2221  -13.5930   15.0429 C   0  0  0  0  0  0  0  0  0  0  0  0
    7.5112  -13.3499   13.8227 N   0  0  0  0  0  0  0  0  0  0  0  0
    7.9620  -12.9636   16.0763 N   0  0  0  0  0  0  0  0  0  0  0  0
    8.2366  -13.5657   17.3533 C   0  0  0  0  0  0  0  0  0  0  0  0
    9.1961  -14.7014   17.2982 C   0  0  0  0  0  0  0  0  0  0  0  0
    9.5533  -15.3606   18.5770 C   0  0  0  0  0  0  0  0  0  0  0  0
   10.5315  -16.4933   18.4709 C   0  0  2  0  0  0  0  0  0  0  0  0
    9.9379  -17.4500   17.5073 N   0  0  0  0  0  0  0  0  0  0  0  0
   10.5760  -17.1803   19.8158 C   0  0  0  0  0  0  0  0  0  0  0  0
    9.7169  -18.0553   20.0456 O   0  0  0  0  0  0  0  0  0  0  0  0
   11.5468  -16.8626   20.7991 N   0  0  0  0  0  0  0  0  0  0  0  0
   11.5813  -17.4355   22.1212 C   0  0  1  0  0  0  0  0  0  0  0  0
   12.9911  -17.8702   22.4262 C   0  0  0  0  0  0  0  0  0  0  0  0
   13.0872  -18.4149   23.7772 C   0  0  0  0  0  0  0  0  0  0  0  0
   13.9646  -17.9820   24.5611 O   0  0  0  0  0  0  0  0  0  0  0  0
   11.0962  -16.4462   23.1436 C   0  0  0  0  0  0  0  0  0  0  0  0
   11.7933  -15.4492   23.4970 O   0  0  0  0  0  0  0  0  0  0  0  0
   12.2254  -19.4104   24.2261 O   0  0  0  0  0  0  0  0  0  0  0  0
    8.0374  -14.4092   23.1059 C   0  0  0  0  0  0  0  0  0  0  0  0
    7.9334  -15.2026   24.3895 C   0  0  1  0  0  0  0  0  0  0  0  0
    7.1171  -16.3088   24.2047 O   0  0  0  0  0  0  0  0  0  0  0  0
    9.3421  -15.6732   24.7740 C   0  0  2  0  0  0  0  0  0  0  0  0
    9.8271  -16.5815   23.7661 N   0  0  0  0  0  0  0  0  0  0  0  0
    9.3405  -16.2501   26.1288 C   0  0  0  0  0  0  0  0  0  0  0  0
    8.9330  -15.4857   27.1993 O   0  0  0  0  0  0  0  0  0  0  0  0
    9.7076  -17.4272   26.3018 O   0  0  0  0  0  0  0  0  0  0  0  0
  2  3  2  0
  2  1  1  0
  4  2  1  0
  5  4  1  0
  6  5  1  0
  7  6  1  0
  8  7  1  0
  8  9  1  6
 10 12  1  0
 10  8  1  0
 11 10  2  0
 13 12  1  0
 13 14  1  1
 15 19  1  0
 15 14  1  0
 16 15  2  0
 17 24  1  0
 17 13  1  0
 18 17  2  0
 21 20  1  6
 22 21  1  0
 23 25  1  0
 23 21  1  0
 23 24  1  6
 25 26  1  0
 27 25  2  0
M  END
$$$$
