RDT.pdb
     RDKit          3D

 27 26  0  0  1  0  0  0  0  0999 V2000
    8.4036  -12.4035   17.6878 N   0  0  0  0  0  0  0  0  0  0  0  0
    7.4023  -13.4096   17.5416 C   0  0  0  0  0  0  0  0  0  0  0  0
    7.0979  -13.8016   16.3646 N   0  0  0  0  0  0  0  0  0  0  0  0
    6.7484  -13.9840   18.6616 N   0  0  0  0  0  0  0  0  0  0  0  0
    7.4159  -14.7496   19.6800 C   0  0  0  0  0  0  0  0  0  0  0  0
    8.8285  -14.3478   19.9173 C   0  0  0  0  0  0  0  0  0  0  0  0
    9.5154  -14.9201   21.0997 C   0  0  0  0  0  0  0  0  0  0  0  0
    9.8889  -16.3694   20.9936 C   0  0  2  0  0  0  0  0  0  0  0  0
    8.7414  -17.0344   20.3325 N   0  0  0  0  0  0  0  0  0  0  0  0
    9.9769  -16.9181   22.3985 C   0  0  0  0  0  0  0  0  0  0  0  0
    8.9120  -17.2550   22.9544 O   0  0  0  0  0  0  0  0  0  0  0  0
   11.2104  -17.0562   23.0840 N   0  0  0  0  0  0  0  0  0  0  0  0
   11.3376  -17.5272   24.4402 C   0  0  1  0  0  0  0  0  0  0  0  0
   12.6416  -18.2690   24.5771 C   0  0  0  0  0  0  0  0  0  0  0  0
   12.8065  -18.7864   25.9322 C   0  0  0  0  0  0  0  0  0  0  0  0
   11.8081  -19.2081   26.5625 O   0  0  0  0  0  0  0  0  0  0  0  0
   11.2724  -16.3813   25.4108 C   0  0  0  0  0  0  0  0  0  0  0  0
   12.0401  -15.3779   25.3176 O   0  0  0  0  0  0  0  0  0  0  0  0
   14.0512  -18.8261   26.5521 O   0  0  0  0  0  0  0  0  0  0  0  0
    8.6394  -13.4470   28.0710 C   0  0  0  0  0  0  0  0  0  0  0  0
    8.7520  -14.6942   27.2227 C   0  0  1  0  0  0  0  0  0  0  0  0
    8.5148  -14.3907   25.8901 O   0  0  0  0  0  0  0  0  0  0  0  0
   10.1772  -15.2429   27.3696 C   0  0  2  0  0  0  0  0  0  0  0  0
   10.3429  -16.3675   26.4843 N   0  0  0  0  0  0  0  0  0  0  0  0
   10.4638  -15.5611   28.7786 C   0  0  0  0  0  0  0  0  0  0  0  0
   10.5615  -14.5465   29.7046 O   0  0  0  0  0  0  0  0  0  0  0  0
   10.6168  -16.7464   29.1278 O   0  0  0  0  0  0  0  0  0  0  0  0
  2  3  2  0
  2  1  1  0
  4  2  1  0
  5  4  1  0
  6  5  1  0
  7  6  1  0
  8  7  1  0
  8  9  1  6
 10 12  1  0
 10  8  1  0
 11 10  2  0
 13 12  1  0
 13 14  1  6
 15 19  1  0
 15 14  1  0
 16 15  2  0
 17 24  1  0
 17 13  1  0
 18 17  2  0
 21 20  1  1
 22 21  1  0
 23 25  1  0
 23 21  1  0
 23 24  1  6
 25 26  1  0
 27 25  2  0
M  END
$$$$
