RDT.pdb
     RDKit          3D

 27 26  0  0  1  0  0  0  0  0999 V2000
    9.3472  -13.7085   15.6075 N   0  0  0  0  0  0  0  0  0  0  0  0
    7.9340  -13.6006   15.7737 C   0  0  0  0  0  0  0  0  0  0  0  0
    7.1736  -14.1466   14.9046 N   0  0  0  0  0  0  0  0  0  0  0  0
    7.3595  -12.9143   16.8739 N   0  0  0  0  0  0  0  0  0  0  0  0
    7.7655  -13.0997   18.2412 C   0  0  0  0  0  0  0  0  0  0  0  0
    7.9704  -14.5212   18.6291 C   0  0  0  0  0  0  0  0  0  0  0  0
    8.3733  -14.7997   20.0282 C   0  0  0  0  0  0  0  0  0  0  0  0
    8.8050  -16.2086   20.3100 C   0  0  2  0  0  0  0  0  0  0  0  0
    7.7809  -17.0773   19.6833 N   0  0  0  0  0  0  0  0  0  0  0  0
    8.7182  -16.4184   21.8037 C   0  0  0  0  0  0  0  0  0  0  0  0
    7.5860  -16.5960   22.2967 O   0  0  0  0  0  0  0  0  0  0  0  0
    9.8643  -16.4185   22.6384 N   0  0  0  0  0  0  0  0  0  0  0  0
    9.8276  -16.5954   24.0684 C   0  0  1  0  0  0  0  0  0  0  0  0
   11.1086  -17.2539   24.5099 C   0  0  0  0  0  0  0  0  0  0  0  0
   11.3337  -18.4973   23.7788 C   0  0  0  0  0  0  0  0  0  0  0  0
   10.4818  -19.4153   23.8362 O   0  0  0  0  0  0  0  0  0  0  0  0
    9.6396  -15.2764   24.7640 C   0  0  0  0  0  0  0  0  0  0  0  0
   10.5095  -14.3572   24.7071 O   0  0  0  0  0  0  0  0  0  0  0  0
   12.4773  -18.6966   23.0121 O   0  0  0  0  0  0  0  0  0  0  0  0
    6.7410  -12.7830   24.7110 C   0  0  0  0  0  0  0  0  0  0  0  0
    6.8879  -13.2663   26.1367 C   0  0  1  0  0  0  0  0  0  0  0  0
    5.9832  -14.2862   26.3928 O   0  0  0  0  0  0  0  0  0  0  0  0
    8.3150  -13.8010   26.3136 C   0  0  2  0  0  0  0  0  0  0  0  0
    8.4725  -14.9948   25.5224 N   0  0  0  0  0  0  0  0  0  0  0  0
    8.6164  -14.0018   27.7409 C   0  0  0  0  0  0  0  0  0  0  0  0
    8.5558  -12.9364   28.6113 O   0  0  0  0  0  0  0  0  0  0  0  0
    8.9252  -15.1344   28.1560 O   0  0  0  0  0  0  0  0  0  0  0  0
  2  3  2  0
  2  1  1  0
  4  2  1  0
  5  4  1  0
  6  5  1  0
  7  6  1  0
  8  7  1  0
  8  9  1  6
 10 12  1  0
 10  8  1  0
 11 10  2  0
 13 12  1  0
 13 14  1  1
 15 19  1  0
 15 14  1  0
 16 15  2  0
 17 24  1  0
 17 13  1  0
 18 17  2  0
 21 20  1  6
 22 21  1  0
 23 25  1  0
 23 21  1  0
 23 24  1  6
 25 26  1  0
 27 25  2  0
M  END
$$$$
