LCL.pdb
     RDKit          3D

 23 22  0  0  1  0  0  0  0  0999 V2000
   20.9853  -17.5573  -18.0373 C   0  0  0  0  0  0  0  0  0  0  0  0
   21.1827  -18.7531  -17.0959 C   0  0  2  0  0  0  0  0  0  0  0  0
   19.9488  -19.6150  -17.1676 C   0  0  0  0  0  0  0  0  0  0  0  0
   21.3480  -18.1916  -15.7263 C   0  0  0  0  0  0  0  0  0  0  0  0
   22.7557  -18.1204  -15.2228 C   0  0  2  0  0  0  0  0  0  0  0  0
   23.6744  -18.6885  -16.1915 N   0  0  0  0  0  0  0  0  0  0  0  0
   22.8160  -18.9675  -13.9947 C   0  0  0  0  0  0  0  0  0  0  0  0
   21.9171  -18.9031  -13.1050 O   0  0  0  0  0  0  0  0  0  0  0  0
   23.8790  -19.8766  -13.7734 N   0  0  0  0  0  0  0  0  0  0  0  0
   23.9675  -20.5850  -12.5139 C   0  0  1  0  0  0  0  0  0  0  0  0
   23.9238  -22.0969  -12.7484 C   0  0  0  0  0  0  0  0  0  0  0  0
   25.3102  -22.6428  -13.7459 S   0  0  0  0  0  0  0  0  0  0  0  0
   25.2476  -20.2582  -11.8083 C   0  0  0  0  0  0  0  0  0  0  0  0
   26.2612  -19.8239  -12.4380 O   0  0  0  0  0  0  0  0  0  0  0  0
   28.8197  -19.6066   -7.7520 C   0  0  0  0  0  0  0  0  0  0  0  0
   27.3361  -19.2494   -7.5341 C   0  0  2  0  0  0  0  0  0  0  0  0
   27.1593  -19.2651   -6.0295 C   0  0  0  0  0  0  0  0  0  0  0  0
   26.5567  -20.2956   -8.2487 C   0  0  0  0  0  0  0  0  0  0  0  0
   26.6966  -20.3393   -9.7279 C   0  0  2  0  0  0  0  0  0  0  0  0
   25.4025  -20.4126  -10.4091 N   0  0  0  0  0  0  0  0  0  0  0  0
   27.5255  -21.4496  -10.2440 C   0  0  0  0  0  0  0  0  0  0  0  0
   28.8547  -21.2980  -10.6499 O   0  0  0  0  0  0  0  0  0  0  0  0
   27.0406  -22.6053  -10.3351 O   0  0  0  0  0  0  0  0  0  0  0  0
  2  3  1  1
  2  1  1  0
  4  2  1  0
  5  7  1  0
  5  4  1  0
  5  6  1  6
  7  8  2  0
  9  7  1  0
  9 10  1  0
 10 11  1  6
 12 11  1  0
 13 20  1  0
 13 10  1  0
 14 13  2  0
 16 15  1  1
 16 17  1  0
 18 16  1  0
 19 20  1  0
 19 18  1  1
 21 22  1  0
 21 19  1  0
 23 21  2  0
M  END
$$$$
