LCL.pdb
     RDKit          3D

 23 22  0  0  1  0  0  0  0  0999 V2000
   11.7960  -21.8246    0.7850 C   0  0  0  0  0  0  0  0  0  0  0  0
   12.7334  -20.9578   -0.0665 C   0  0  2  0  0  0  0  0  0  0  0  0
   13.0990  -21.7378   -1.3029 C   0  0  0  0  0  0  0  0  0  0  0  0
   13.9425  -20.6993    0.7639 C   0  0  0  0  0  0  0  0  0  0  0  0
   13.7034  -19.9505    2.0376 C   0  0  2  0  0  0  0  0  0  0  0  0
   13.5099  -18.5374    1.7713 N   0  0  0  0  0  0  0  0  0  0  0  0
   14.9445  -20.0883    2.8563 C   0  0  0  0  0  0  0  0  0  0  0  0
   16.0691  -19.7056    2.4177 O   0  0  0  0  0  0  0  0  0  0  0  0
   14.9163  -20.6520    4.1551 N   0  0  0  0  0  0  0  0  0  0  0  0
   16.1366  -20.7315    4.9300 C   0  0  1  0  0  0  0  0  0  0  0  0
   15.8695  -20.3445    6.3865 C   0  0  0  0  0  0  0  0  0  0  0  0
   16.3302  -18.6410    6.7042 S   0  0  0  0  0  0  0  0  0  0  0  0
   16.6898  -22.1232    4.9100 C   0  0  0  0  0  0  0  0  0  0  0  0
   15.9318  -23.1405    4.9650 O   0  0  0  0  0  0  0  0  0  0  0  0
   21.5746  -25.2422    3.1576 C   0  0  0  0  0  0  0  0  0  0  0  0
   20.1291  -25.3854    3.6735 C   0  0  2  0  0  0  0  0  0  0  0  0
   19.4367  -26.2381    2.6300 C   0  0  0  0  0  0  0  0  0  0  0  0
   19.5957  -24.0008    3.7787 C   0  0  0  0  0  0  0  0  0  0  0  0
   18.6512  -23.7316    4.8944 C   0  0  2  0  0  0  0  0  0  0  0  0
   18.0792  -22.3853    4.8292 N   0  0  0  0  0  0  0  0  0  0  0  0
   19.2209  -23.8991    6.2486 C   0  0  0  0  0  0  0  0  0  0  0  0
   19.7623  -22.8481    6.9948 O   0  0  0  0  0  0  0  0  0  0  0  0
   19.2343  -25.0338    6.7881 O   0  0  0  0  0  0  0  0  0  0  0  0
  2  3  1  6
  2  1  1  0
  4  2  1  0
  5  7  1  0
  5  4  1  0
  5  6  1  6
  7  8  2  0
  9  7  1  0
  9 10  1  0
 10 11  1  1
 12 11  1  0
 13 20  1  0
 13 10  1  0
 14 13  2  0
 16 15  1  6
 16 17  1  0
 18 16  1  0
 19 20  1  0
 19 18  1  6
 21 22  1  0
 21 19  1  0
 23 21  2  0
M  END
$$$$
