LCL.pdb
     RDKit          3D

 23 22  0  0  1  0  0  0  0  0999 V2000
   19.9364  -18.1281  -15.1864 C   0  0  0  0  0  0  0  0  0  0  0  0
   20.8343  -18.2086  -16.4283 C   0  0  2  0  0  0  0  0  0  0  0  0
   22.1271  -18.8725  -16.0300 C   0  0  0  0  0  0  0  0  0  0  0  0
   21.0809  -16.8060  -16.8647 C   0  0  0  0  0  0  0  0  0  0  0  0
   19.8595  -16.0124  -17.2087 C   0  0  2  0  0  0  0  0  0  0  0  0
   19.1970  -16.5720  -18.3719 N   0  0  0  0  0  0  0  0  0  0  0  0
   20.3263  -14.6416  -17.5727 C   0  0  0  0  0  0  0  0  0  0  0  0
   21.2443  -14.4633  -18.4267 O   0  0  0  0  0  0  0  0  0  0  0  0
   19.7636  -13.4855  -16.9793 N   0  0  0  0  0  0  0  0  0  0  0  0
   20.1268  -12.1746  -17.4752 C   0  0  1  0  0  0  0  0  0  0  0  0
   18.8740  -11.3273  -17.7094 C   0  0  0  0  0  0  0  0  0  0  0  0
   17.5834  -12.2788  -18.5121 S   0  0  0  0  0  0  0  0  0  0  0  0
   20.9995  -11.4569  -16.4921 C   0  0  0  0  0  0  0  0  0  0  0  0
   20.6806  -11.3611  -15.2666 O   0  0  0  0  0  0  0  0  0  0  0  0
   26.9428   -9.9843  -16.1901 C   0  0  0  0  0  0  0  0  0  0  0  0
   25.6226   -9.9388  -15.3958 C   0  0  2  0  0  0  0  0  0  0  0  0
   25.8865  -10.7926  -14.1724 C   0  0  0  0  0  0  0  0  0  0  0  0
   24.5813  -10.4863  -16.3061 C   0  0  0  0  0  0  0  0  0  0  0  0
   23.1656  -10.2742  -15.9058 C   0  0  2  0  0  0  0  0  0  0  0  0
   22.2217  -10.8476  -16.8672 N   0  0  0  0  0  0  0  0  0  0  0  0
   22.7790   -8.8614  -15.7037 C   0  0  0  0  0  0  0  0  0  0  0  0
   22.8012   -8.2244  -14.4594 O   0  0  0  0  0  0  0  0  0  0  0  0
   22.4062   -8.1664  -16.6819 O   0  0  0  0  0  0  0  0  0  0  0  0
  2  3  1  1
  2  1  1  0
  4  2  1  0
  5  7  1  0
  5  4  1  0
  5  6  1  6
  7  8  2  0
  9  7  1  0
  9 10  1  0
 10 11  1  1
 12 11  1  0
 13 20  1  0
 13 10  1  0
 14 13  2  0
 16 15  1  6
 16 17  1  0
 18 16  1  0
 19 20  1  0
 19 18  1  6
 21 22  1  0
 21 19  1  0
 23 21  2  0
M  END
$$$$
