LCL.pdb
     RDKit          3D

 23 22  0  0  1  0  0  0  0  0999 V2000
   26.1270  -21.6356  -17.2262 C   0  0  0  0  0  0  0  0  0  0  0  0
   25.2882  -20.5530  -16.5337 C   0  0  2  0  0  0  0  0  0  0  0  0
   24.8675  -19.5483  -17.5750 C   0  0  0  0  0  0  0  0  0  0  0  0
   26.1734  -19.9145  -15.5203 C   0  0  0  0  0  0  0  0  0  0  0  0
   26.6237  -20.8039  -14.4038 C   0  0  2  0  0  0  0  0  0  0  0  0
   25.8879  -22.0543  -14.4178 N   0  0  0  0  0  0  0  0  0  0  0  0
   26.2887  -20.0987  -13.1311 C   0  0  0  0  0  0  0  0  0  0  0  0
   26.5623  -18.8735  -12.9648 O   0  0  0  0  0  0  0  0  0  0  0  0
   25.6524  -20.7691  -12.0582 N   0  0  0  0  0  0  0  0  0  0  0  0
   25.2669  -20.0277  -10.8758 C   0  0  1  0  0  0  0  0  0  0  0  0
   23.7591  -20.1455  -10.6408 C   0  0  0  0  0  0  0  0  0  0  0  0
   23.1940  -21.8329  -10.8614 S   0  0  0  0  0  0  0  0  0  0  0  0
   25.9715  -20.5551   -9.6640 C   0  0  0  0  0  0  0  0  0  0  0  0
   26.3275  -21.7710   -9.5789 O   0  0  0  0  0  0  0  0  0  0  0  0
   28.6143  -18.2578   -4.5888 C   0  0  0  0  0  0  0  0  0  0  0  0
   28.1844  -19.5813   -5.2518 C   0  0  2  0  0  0  0  0  0  0  0  0
   29.4472  -20.4179   -5.2823 C   0  0  0  0  0  0  0  0  0  0  0  0
   27.6665  -19.2131   -6.5967 C   0  0  0  0  0  0  0  0  0  0  0  0
   26.8752  -20.2470   -7.3139 C   0  0  2  0  0  0  0  0  0  0  0  0
   26.2800  -19.7363   -8.5504 N   0  0  0  0  0  0  0  0  0  0  0  0
   25.7847  -20.8577   -6.5240 C   0  0  0  0  0  0  0  0  0  0  0  0
   24.4342  -20.7716   -6.8749 O   0  0  0  0  0  0  0  0  0  0  0  0
   26.0509  -21.4966   -5.4752 O   0  0  0  0  0  0  0  0  0  0  0  0
  2  3  1  6
  2  1  1  0
  4  2  1  0
  5  7  1  0
  5  4  1  0
  5  6  1  1
  7  8  2  0
  9  7  1  0
  9 10  1  0
 10 11  1  1
 12 11  1  0
 13 20  1  0
 13 10  1  0
 14 13  2  0
 16 15  1  1
 16 17  1  0
 18 16  1  0
 19 20  1  0
 19 18  1  1
 21 22  1  0
 21 19  1  0
 23 21  2  0
M  END
$$$$
