LCL.pdb
     RDKit          3D

 23 22  0  0  1  0  0  0  0  0999 V2000
   18.7786  -17.1489  -14.2569 C   0  0  0  0  0  0  0  0  0  0  0  0
   19.6947  -17.2322  -15.4853 C   0  0  2  0  0  0  0  0  0  0  0  0
   21.0066  -17.8335  -15.0518 C   0  0  0  0  0  0  0  0  0  0  0  0
   19.8933  -15.8350  -15.9615 C   0  0  0  0  0  0  0  0  0  0  0  0
   18.6553  -15.1233  -16.4100 C   0  0  2  0  0  0  0  0  0  0  0  0
   18.1346  -15.7199  -17.6258 N   0  0  0  0  0  0  0  0  0  0  0  0
   19.0584  -13.7223  -16.7331 C   0  0  0  0  0  0  0  0  0  0  0  0
   19.6537  -13.4408  -17.8148 O   0  0  0  0  0  0  0  0  0  0  0  0
   18.7928  -12.6517  -15.8451 N   0  0  0  0  0  0  0  0  0  0  0  0
   19.1385  -11.2988  -16.2278 C   0  0  1  0  0  0  0  0  0  0  0  0
   17.9556  -10.3579  -15.9868 C   0  0  0  0  0  0  0  0  0  0  0  0
   17.2219  -10.6320  -14.3738 S   0  0  0  0  0  0  0  0  0  0  0  0
   20.3026  -10.8007  -15.4280 C   0  0  0  0  0  0  0  0  0  0  0  0
   20.4254  -11.0717  -14.1935 O   0  0  0  0  0  0  0  0  0  0  0  0
   25.3792   -8.4147  -15.5664 C   0  0  0  0  0  0  0  0  0  0  0  0
   24.9608   -9.7234  -14.8675 C   0  0  2  0  0  0  0  0  0  0  0  0
   26.1551  -10.6407  -15.0339 C   0  0  0  0  0  0  0  0  0  0  0  0
   23.7354  -10.1869  -15.5719 C   0  0  0  0  0  0  0  0  0  0  0  0
   22.4664   -9.4913  -15.2326 C   0  0  2  0  0  0  0  0  0  0  0  0
   21.3270  -10.0045  -15.9958 N   0  0  0  0  0  0  0  0  0  0  0  0
   22.4901   -8.0243  -15.4165 C   0  0  0  0  0  0  0  0  0  0  0  0
   22.7959   -7.1219  -14.3935 O   0  0  0  0  0  0  0  0  0  0  0  0
   22.2270   -7.5282  -16.5406 O   0  0  0  0  0  0  0  0  0  0  0  0
  2  3  1  1
  2  1  1  0
  4  2  1  0
  5  7  1  0
  5  4  1  0
  5  6  1  6
  7  8  2  0
  9  7  1  0
  9 10  1  0
 10 11  1  1
 12 11  1  0
 13 20  1  0
 13 10  1  0
 14 13  2  0
 16 15  1  6
 16 17  1  0
 18 16  1  0
 19 20  1  0
 19 18  1  6
 21 22  1  0
 21 19  1  0
 23 21  2  0
M  END
$$$$
