LCL.pdb
     RDKit          3D

 23 22  0  0  1  0  0  0  0  0999 V2000
   21.4599  -27.5263  -17.8877 C   0  0  0  0  0  0  0  0  0  0  0  0
   22.5330  -27.7238  -16.8086 C   0  0  2  0  0  0  0  0  0  0  0  0
   22.4012  -29.1239  -16.2672 C   0  0  0  0  0  0  0  0  0  0  0  0
   22.2509  -26.7232  -15.7420 C   0  0  0  0  0  0  0  0  0  0  0  0
   22.5397  -25.2989  -16.0998 C   0  0  2  0  0  0  0  0  0  0  0  0
   23.9459  -24.9982  -15.9064 N   0  0  0  0  0  0  0  0  0  0  0  0
   21.7631  -24.4508  -15.1474 C   0  0  0  0  0  0  0  0  0  0  0  0
   22.1203  -24.3201  -13.9394 O   0  0  0  0  0  0  0  0  0  0  0  0
   20.5965  -23.7586  -15.5538 N   0  0  0  0  0  0  0  0  0  0  0  0
   19.8308  -23.0085  -14.5804 C   0  0  1  0  0  0  0  0  0  0  0  0
   19.1799  -21.7897  -15.2387 C   0  0  0  0  0  0  0  0  0  0  0  0
   18.2219  -20.8427  -14.0553 S   0  0  0  0  0  0  0  0  0  0  0  0
   18.7462  -23.8556  -13.9894 C   0  0  0  0  0  0  0  0  0  0  0  0
   17.8559  -24.3969  -14.7152 O   0  0  0  0  0  0  0  0  0  0  0  0
   18.2345  -27.7903  -11.7837 C   0  0  0  0  0  0  0  0  0  0  0  0
   18.9825  -26.7155  -10.9705 C   0  0  2  0  0  0  0  0  0  0  0  0
   19.3881  -27.4209   -9.6924 C   0  0  0  0  0  0  0  0  0  0  0  0
   18.0109  -25.6070  -10.7710 C   0  0  0  0  0  0  0  0  0  0  0  0
   17.5688  -24.8789  -11.9892 C   0  0  2  0  0  0  0  0  0  0  0  0
   18.6498  -24.1012  -12.5980 N   0  0  0  0  0  0  0  0  0  0  0  0
   16.4289  -23.9590  -11.7874 C   0  0  0  0  0  0  0  0  0  0  0  0
   16.5617  -22.5696  -11.7075 O   0  0  0  0  0  0  0  0  0  0  0  0
   15.2640  -24.4173  -11.6786 O   0  0  0  0  0  0  0  0  0  0  0  0
  2  3  1  1
  2  1  1  0
  4  2  1  0
  5  7  1  0
  5  4  1  0
  5  6  1  1
  7  8  2  0
  9  7  1  0
  9 10  1  0
 10 11  1  6
 12 11  1  0
 13 20  1  0
 13 10  1  0
 14 13  2  0
 16 15  1  6
 16 17  1  0
 18 16  1  0
 19 20  1  0
 19 18  1  1
 21 22  1  0
 21 19  1  0
 23 21  2  0
M  END
$$$$
