LCL.pdb
     RDKit          3D

 23 22  0  0  1  0  0  0  0  0999 V2000
   32.7096  -35.1309   -6.9613 C   0  0  0  0  0  0  0  0  0  0  0  0
   32.2044  -33.7761   -6.4473 C   0  0  2  0  0  0  0  0  0  0  0  0
   33.3950  -32.8709   -6.2633 C   0  0  0  0  0  0  0  0  0  0  0  0
   31.5420  -34.0391   -5.1394 C   0  0  0  0  0  0  0  0  0  0  0  0
   30.2574  -34.8041   -5.2082 C   0  0  2  0  0  0  0  0  0  0  0  0
   29.2463  -34.0428   -5.9176 N   0  0  0  0  0  0  0  0  0  0  0  0
   29.7854  -34.9785   -3.8024 C   0  0  0  0  0  0  0  0  0  0  0  0
   29.2172  -34.0357   -3.1764 O   0  0  0  0  0  0  0  0  0  0  0  0
   29.9534  -36.2030   -3.1112 N   0  0  0  0  0  0  0  0  0  0  0  0
   29.4987  -36.3228   -1.7419 C   0  0  1  0  0  0  0  0  0  0  0  0
   28.1630  -37.0682   -1.6870 C   0  0  0  0  0  0  0  0  0  0  0  0
   27.4386  -36.9893   -0.0486 S   0  0  0  0  0  0  0  0  0  0  0  0
   30.4916  -37.0813   -0.9160 C   0  0  0  0  0  0  0  0  0  0  0  0
   31.0947  -38.1012   -1.3728 O   0  0  0  0  0  0  0  0  0  0  0  0
   34.6215  -36.7109    1.0426 C   0  0  0  0  0  0  0  0  0  0  0  0
   33.5713  -35.7300    1.6002 C   0  0  2  0  0  0  0  0  0  0  0  0
   34.3303  -34.8974    2.6131 C   0  0  0  0  0  0  0  0  0  0  0  0
   32.4981  -36.5748    2.1893 C   0  0  0  0  0  0  0  0  0  0  0  0
   31.7518  -37.4559    1.2533 C   0  0  2  0  0  0  0  0  0  0  0  0
   30.8141  -36.7097    0.4119 N   0  0  0  0  0  0  0  0  0  0  0  0
   30.9886  -38.5464    1.8970 C   0  0  0  0  0  0  0  0  0  0  0  0
   31.5781  -39.5497    2.6718 O   0  0  0  0  0  0  0  0  0  0  0  0
   29.7406  -38.6041    1.7616 O   0  0  0  0  0  0  0  0  0  0  0  0
  2  3  1  1
  2  1  1  0
  4  2  1  0
  5  7  1  0
  5  4  1  0
  5  6  1  6
  7  8  2  0
  9  7  1  0
  9 10  1  0
 10 11  1  6
 12 11  1  0
 13 20  1  0
 13 10  1  0
 14 13  2  0
 16 15  1  1
 16 17  1  0
 18 16  1  0
 19 20  1  0
 19 18  1  1
 21 22  1  0
 21 19  1  0
 23 21  2  0
M  END
$$$$
