LCL.pdb
     RDKit          3D

 23 22  0  0  1  0  0  0  0  0999 V2000
   18.9896  -17.5900  -15.1544 C   0  0  0  0  0  0  0  0  0  0  0  0
   20.4606  -17.3193  -15.4979 C   0  0  2  0  0  0  0  0  0  0  0  0
   21.2886  -17.6043  -14.2716 C   0  0  0  0  0  0  0  0  0  0  0  0
   20.5518  -15.8789  -15.8658 C   0  0  0  0  0  0  0  0  0  0  0  0
   19.7159  -15.4561  -17.0332 C   0  0  2  0  0  0  0  0  0  0  0  0
   20.1738  -16.1005  -18.2499 N   0  0  0  0  0  0  0  0  0  0  0  0
   19.9204  -13.9863  -17.1980 C   0  0  0  0  0  0  0  0  0  0  0  0
   20.9123  -13.5266  -17.8373 O   0  0  0  0  0  0  0  0  0  0  0  0
   19.0158  -13.0462  -16.6474 N   0  0  0  0  0  0  0  0  0  0  0  0
   19.2218  -11.6316  -16.8771 C   0  0  1  0  0  0  0  0  0  0  0  0
   17.9046  -10.8685  -16.7191 C   0  0  0  0  0  0  0  0  0  0  0  0
   18.1557   -9.0982  -16.8545 S   0  0  0  0  0  0  0  0  0  0  0  0
   20.2070  -11.0715  -15.8980 C   0  0  0  0  0  0  0  0  0  0  0  0
   20.2043  -11.4231  -14.6777 O   0  0  0  0  0  0  0  0  0  0  0  0
   25.9768  -10.3205  -15.4821 C   0  0  0  0  0  0  0  0  0  0  0  0
   24.7015   -9.7638  -14.8189 C   0  0  2  0  0  0  0  0  0  0  0  0
   24.6950  -10.3783  -13.4341 C   0  0  0  0  0  0  0  0  0  0  0  0
   23.5711  -10.1989  -15.6824 C   0  0  0  0  0  0  0  0  0  0  0  0
   22.2315   -9.6406  -15.3609 C   0  0  2  0  0  0  0  0  0  0  0  0
   21.1918  -10.1247  -16.2712 N   0  0  0  0  0  0  0  0  0  0  0  0
   22.1554   -8.1640  -15.3565 C   0  0  0  0  0  0  0  0  0  0  0  0
   22.4401   -7.3786  -14.2355 O   0  0  0  0  0  0  0  0  0  0  0  0
   21.8207   -7.5495  -16.4002 O   0  0  0  0  0  0  0  0  0  0  0  0
  2  3  1  1
  2  1  1  0
  4  2  1  0
  5  7  1  0
  5  4  1  0
  5  6  1  6
  7  8  2  0
  9  7  1  0
  9 10  1  0
 10 11  1  1
 12 11  1  0
 13 20  1  0
 13 10  1  0
 14 13  2  0
 16 15  1  6
 16 17  1  0
 18 16  1  0
 19 20  1  0
 19 18  1  6
 21 22  1  0
 21 19  1  0
 23 21  2  0
M  END
$$$$
