RQF.pdb
     RDKit          3D

 32 32  0  0  1  0  0  0  0  0999 V2000
    8.8747  -15.3068   15.4950 N   0  0  0  0  0  0  0  0  0  0  0  0
    8.0406  -14.1605   15.5005 C   0  0  0  0  0  0  0  0  0  0  0  0
    7.7723  -13.6083   14.3642 N   0  0  0  0  0  0  0  0  0  0  0  0
    7.4911  -13.6113   16.7026 N   0  0  0  0  0  0  0  0  0  0  0  0
    7.6465  -14.2559   17.9774 C   0  0  0  0  0  0  0  0  0  0  0  0
    6.3831  -14.7903   18.5822 C   0  0  0  0  0  0  0  0  0  0  0  0
    6.5645  -15.7138   19.7348 C   0  0  0  0  0  0  0  0  0  0  0  0
    7.0920  -15.0021   20.9682 C   0  0  2  0  0  0  0  0  0  0  0  0
    7.5668  -13.6913   20.6933 N   0  0  0  0  0  0  0  0  0  0  0  0
    8.0517  -15.9048   21.6304 C   0  0  0  0  0  0  0  0  0  0  0  0
    7.7150  -17.1105   21.7478 O   0  0  0  0  0  0  0  0  0  0  0  0
    7.2941  -12.6883   14.3474 N   0  0  0  0  0  0  0  0  0  0  0  0
   12.6246  -18.3837   21.4280 C   0  0  0  0  0  0  0  0  0  0  0  0
   13.0542  -18.0011   22.7322 O   0  0  0  0  0  0  0  0  0  0  0  0
   13.8688  -18.7604   23.3423 C   0  0  0  0  0  0  0  0  0  0  0  0
   12.5471  -16.7584   23.3202 C   0  0  0  0  0  0  0  0  0  0  0  0
   11.5603  -16.0112   22.5019 C   0  0  1  0  0  0  0  0  0  0  0  0
   10.1373  -16.2593   22.8983 N   0  0  0  0  0  0  0  0  0  0  0  0
    9.2777  -15.4144   22.0990 C   0  0  0  0  0  0  0  0  0  0  0  0
    9.8551  -15.8678   24.3204 O   0  0  0  0  0  0  0  0  0  0  0  0
    9.5573  -14.6758   24.5579 N   0  0  0  0  0  0  0  0  0  0  0  0
    9.9054  -16.7651   25.4036 C   0  0  1  0  0  0  0  0  0  0  0  0
    9.4224  -16.4083   26.7326 C   0  0  0  0  0  0  0  0  0  0  0  0
    7.9279  -16.2119   26.7336 C   0  0  0  0  0  0  0  0  0  0  0  0
    7.6596  -14.7570   26.4966 C   0  0  0  0  0  0  0  0  0  0  0  0
    8.3515  -13.7698   27.1599 C   0  0  0  0  0  0  0  0  0  0  0  0
    8.1390  -12.4160   26.9635 C   0  0  0  0  0  0  0  0  0  0  0  0
    7.1748  -12.0297   26.0468 C   0  0  0  0  0  0  0  0  0  0  0  0
    6.4732  -13.0173   25.3744 C   0  0  0  0  0  0  0  0  0  0  0  0
    6.6969  -14.3571   25.5818 C   0  0  0  0  0  0  0  0  0  0  0  0
    9.9191  -17.3159   27.7658 O   0  0  0  0  0  0  0  0  0  0  0  0
   10.4662  -18.3853   27.3980 O   0  0  0  0  0  0  0  0  0  0  0  0
  2  3  2  0
  2  1  1  0
  4  2  1  0
  5  4  1  0
  6  5  1  0
  7  6  1  0
  8  9  1  6
  8  7  1  0
 10 18  1  0
 10  8  1  0
 11 10  2  0
 13 12  1  0
 14 13  2  0
 15 13  1  0
 16 15  1  0
 17 18  1  0
 17 16  1  6
 19 17  1  0
 20 19  2  0
 21 19  1  0
 22 23  1  1
 22 21  1  0
 23 24  1  0
 24 25  2  0
 25 26  1  0
 27 26  2  0
 28 27  1  0
 29 24  1  0
 29 28  2  0
 30 32  1  0
 30 22  1  0
 31 30  2  0
M  END
$$$$
