RQF.pdb
     RDKit          3D

 32 32  0  0  1  0  0  0  0  0999 V2000
    7.4213  -15.3986   17.2024 N   0  0  0  0  0  0  0  0  0  0  0  0
    8.0842  -14.1485   17.1176 C   0  0  0  0  0  0  0  0  0  0  0  0
    8.7499  -13.8941   16.0404 N   0  0  0  0  0  0  0  0  0  0  0  0
    8.0334  -13.1750   18.1657 N   0  0  0  0  0  0  0  0  0  0  0  0
    7.3717  -13.4318   19.4151 C   0  0  0  0  0  0  0  0  0  0  0  0
    7.2119  -14.8798   19.7685 C   0  0  0  0  0  0  0  0  0  0  0  0
    6.5311  -15.1527   21.0633 C   0  0  0  0  0  0  0  0  0  0  0  0
    6.4927  -16.6340   21.3952 C   0  0  2  0  0  0  0  0  0  0  0  0
    5.5061  -17.3435   20.6586 N   0  0  0  0  0  0  0  0  0  0  0  0
    6.4120  -16.7626   22.8620 C   0  0  0  0  0  0  0  0  0  0  0  0
    5.3730  -16.3242   23.4179 O   0  0  0  0  0  0  0  0  0  0  0  0
    9.2954  -13.0146   15.9767 N   0  0  0  0  0  0  0  0  0  0  0  0
    8.9374  -21.0576   27.6337 C   0  0  0  0  0  0  0  0  0  0  0  0
    7.6481  -20.6298   27.2018 O   0  0  0  0  0  0  0  0  0  0  0  0
    6.7115  -21.4866   27.1687 C   0  0  0  0  0  0  0  0  0  0  0  0
    7.4477  -19.2311   26.8135 C   0  0  0  0  0  0  0  0  0  0  0  0
    7.4588  -18.9566   25.3553 C   0  0  1  0  0  0  0  0  0  0  0  0
    7.3615  -17.5011   25.0151 N   0  0  0  0  0  0  0  0  0  0  0  0
    7.4612  -17.3512   23.5801 C   0  0  0  0  0  0  0  0  0  0  0  0
    8.5025  -16.6985   25.5709 O   0  0  0  0  0  0  0  0  0  0  0  0
    9.5377  -16.5829   24.8774 N   0  0  0  0  0  0  0  0  0  0  0  0
    8.4753  -16.0666   26.8283 C   0  0  1  0  0  0  0  0  0  0  0  0
    9.5842  -15.2542   27.3151 C   0  0  0  0  0  0  0  0  0  0  0  0
    9.0965  -14.1606   28.2307 C   0  0  0  0  0  0  0  0  0  0  0  0
    8.0100  -13.4180   27.5145 C   0  0  0  0  0  0  0  0  0  0  0  0
    8.2092  -12.8451   26.2794 C   0  0  0  0  0  0  0  0  0  0  0  0
    7.2299  -12.1583   25.5824 C   0  0  0  0  0  0  0  0  0  0  0  0
    5.9759  -12.0393   26.1591 C   0  0  0  0  0  0  0  0  0  0  0  0
    5.7665  -12.6131   27.4027 C   0  0  0  0  0  0  0  0  0  0  0  0
    6.7503  -13.2914   28.0809 C   0  0  0  0  0  0  0  0  0  0  0  0
   10.6703  -16.0672   27.8605 O   0  0  0  0  0  0  0  0  0  0  0  0
   10.4393  -17.2798   28.0941 O   0  0  0  0  0  0  0  0  0  0  0  0
  2  3  2  0
  2  1  1  0
  4  2  1  0
  5  4  1  0
  6  5  1  0
  7  6  1  0
  8  9  1  6
  8  7  1  0
 10 18  1  0
 10  8  1  0
 11 10  2  0
 13 12  1  0
 14 13  2  0
 15 13  1  0
 16 15  1  0
 17 18  1  0
 17 16  1  6
 19 17  1  0
 20 19  2  0
 21 19  1  0
 22 23  1  1
 22 21  1  0
 23 24  1  0
 24 25  2  0
 25 26  1  0
 27 26  2  0
 28 27  1  0
 29 24  1  0
 29 28  2  0
 30 32  1  0
 30 22  1  0
 31 30  2  0
M  END
$$$$
