RQF.pdb
     RDKit          3D

 32 32  0  0  1  0  0  0  0  0999 V2000
    8.0482  -13.9466   17.8612 N   0  0  0  0  0  0  0  0  0  0  0  0
    7.9536  -12.9270   18.8416 C   0  0  0  0  0  0  0  0  0  0  0  0
    8.7508  -11.9165   18.7353 N   0  0  0  0  0  0  0  0  0  0  0  0
    7.0146  -12.9783   19.9207 N   0  0  0  0  0  0  0  0  0  0  0  0
    6.1845  -14.1272   20.1567 C   0  0  0  0  0  0  0  0  0  0  0  0
    6.9026  -15.4430   20.1718 C   0  0  0  0  0  0  0  0  0  0  0  0
    7.5509  -15.8051   21.4614 C   0  0  0  0  0  0  0  0  0  0  0  0
    8.2034  -17.1755   21.4155 C   0  0  2  0  0  0  0  0  0  0  0  0
    7.2778  -18.2238   21.1628 N   0  0  0  0  0  0  0  0  0  0  0  0
    9.0211  -17.3235   22.6336 C   0  0  0  0  0  0  0  0  0  0  0  0
    8.7087  -18.2511   23.4227 O   0  0  0  0  0  0  0  0  0  0  0  0
    8.6985  -11.1530   19.4349 N   0  0  0  0  0  0  0  0  0  0  0  0
   15.6790  -17.0866   23.5394 C   0  0  0  0  0  0  0  0  0  0  0  0
   14.7956  -16.1674   24.1772 O   0  0  0  0  0  0  0  0  0  0  0  0
   15.2194  -14.9941   24.4142 C   0  0  0  0  0  0  0  0  0  0  0  0
   13.4426  -16.6016   24.5352 C   0  0  0  0  0  0  0  0  0  0  0  0
   12.4072  -16.4217   23.4877 C   0  0  1  0  0  0  0  0  0  0  0  0
   11.0176  -16.7299   23.9544 N   0  0  0  0  0  0  0  0  0  0  0  0
   10.0932  -16.4549   22.8768 C   0  0  0  0  0  0  0  0  0  0  0  0
   10.5752  -15.8434   25.0829 O   0  0  0  0  0  0  0  0  0  0  0  0
    9.6777  -15.0013   24.8569 N   0  0  0  0  0  0  0  0  0  0  0  0
   11.1116  -15.9050   26.3827 C   0  0  2  0  0  0  0  0  0  0  0  0
   10.2792  -16.1349   27.5579 C   0  0  0  0  0  0  0  0  0  0  0  0
    8.8285  -16.2836   27.1762 C   0  0  0  0  0  0  0  0  0  0  0  0
    8.2475  -14.9084   27.0503 C   0  0  0  0  0  0  0  0  0  0  0  0
    8.7658  -13.8318   27.7326 C   0  0  0  0  0  0  0  0  0  0  0  0
    8.2631  -12.5454   27.6374 C   0  0  0  0  0  0  0  0  0  0  0  0
    7.1754  -12.3262   26.8078 C   0  0  0  0  0  0  0  0  0  0  0  0
    6.6470  -13.4047   26.1170 C   0  0  0  0  0  0  0  0  0  0  0  0
    7.1585  -14.6756   26.2235 C   0  0  0  0  0  0  0  0  0  0  0  0
   10.7997  -17.2063   28.4059 O   0  0  0  0  0  0  0  0  0  0  0  0
   10.1971  -17.4538   29.4801 O   0  0  0  0  0  0  0  0  0  0  0  0
  2  3  2  0
  2  1  1  0
  4  2  1  0
  5  4  1  0
  6  5  1  0
  7  6  1  0
  8  9  1  1
  8  7  1  0
 10 18  1  0
 10  8  1  0
 11 10  2  0
 13 12  1  0
 14 13  2  0
 15 13  1  0
 16 15  1  0
 17 18  1  0
 17 16  1  6
 19 17  1  0
 20 19  2  0
 21 19  1  0
 22 23  1  1
 22 21  1  0
 23 24  1  0
 24 25  2  0
 25 26  1  0
 27 26  2  0
 28 27  1  0
 29 24  1  0
 29 28  2  0
 30 32  1  0
 30 22  1  0
 31 30  2  0
M  END
$$$$
