RQF.pdb
     RDKit          3D

 32 32  0  0  1  0  0  0  0  0999 V2000
   14.8558  -19.3773   15.8600 N   0  0  0  0  0  0  0  0  0  0  0  0
   13.5596  -19.9500   15.8993 C   0  0  0  0  0  0  0  0  0  0  0  0
   13.4680  -21.2093   16.1707 N   0  0  0  0  0  0  0  0  0  0  0  0
   12.3716  -19.1885   15.6594 N   0  0  0  0  0  0  0  0  0  0  0  0
   12.0335  -18.0332   16.4442 C   0  0  0  0  0  0  0  0  0  0  0  0
   12.4195  -18.1074   17.8908 C   0  0  0  0  0  0  0  0  0  0  0  0
   12.0260  -16.9363   18.7204 C   0  0  0  0  0  0  0  0  0  0  0  0
   11.4589  -17.3471   20.0680 C   0  0  2  0  0  0  0  0  0  0  0  0
   10.5336  -18.4217   19.9775 N   0  0  0  0  0  0  0  0  0  0  0  0
   10.9625  -16.1294   20.7352 C   0  0  0  0  0  0  0  0  0  0  0  0
   11.7699  -15.1729   20.8537 O   0  0  0  0  0  0  0  0  0  0  0  0
   12.5302  -21.6374   16.2829 N   0  0  0  0  0  0  0  0  0  0  0  0
    7.0109  -11.8230   19.4003 C   0  0  0  0  0  0  0  0  0  0  0  0
    7.2220  -13.2205   19.2144 O   0  0  0  0  0  0  0  0  0  0  0  0
    6.4374  -13.8477   18.4376 C   0  0  0  0  0  0  0  0  0  0  0  0
    8.3246  -13.8806   19.9184 C   0  0  0  0  0  0  0  0  0  0  0  0
    8.0462  -14.2898   21.3172 C   0  0  2  0  0  0  0  0  0  0  0  0
    9.2119  -14.9376   21.9992 N   0  0  0  0  0  0  0  0  0  0  0  0
    9.6448  -16.0677   21.2074 C   0  0  0  0  0  0  0  0  0  0  0  0
    8.8524  -15.5149   23.3381 O   0  0  0  0  0  0  0  0  0  0  0  0
    8.0085  -16.4381   23.3772 N   0  0  0  0  0  0  0  0  0  0  0  0
    9.4109  -15.0780   24.5540 C   0  0  2  0  0  0  0  0  0  0  0  0
    8.9710  -15.5979   25.8436 C   0  0  0  0  0  0  0  0  0  0  0  0
    7.4877  -15.4051   26.0304 C   0  0  0  0  0  0  0  0  0  0  0  0
    7.2602  -13.9776   26.4245 C   0  0  0  0  0  0  0  0  0  0  0  0
    6.0646  -13.3377   26.1912 C   0  0  0  0  0  0  0  0  0  0  0  0
    5.8125  -12.0237   26.5467 C   0  0  0  0  0  0  0  0  0  0  0  0
    6.8202  -11.3092   27.1739 C   0  0  0  0  0  0  0  0  0  0  0  0
    8.0274  -11.9457   27.4128 C   0  0  0  0  0  0  0  0  0  0  0  0
    8.2607  -13.2511   27.0528 C   0  0  0  0  0  0  0  0  0  0  0  0
    9.4439  -16.9606   26.0832 O   0  0  0  0  0  0  0  0  0  0  0  0
    9.1071  -17.5217   27.1555 O   0  0  0  0  0  0  0  0  0  0  0  0
  2  3  2  0
  2  1  1  0
  4  2  1  0
  5  4  1  0
  6  5  1  0
  7  6  1  0
  8  9  1  6
  8  7  1  0
 10 18  1  0
 10  8  1  0
 11 10  2  0
 13 12  1  0
 14 13  2  0
 15 13  1  0
 16 15  1  0
 17 18  1  0
 17 16  1  6
 19 17  1  0
 20 19  2  0
 21 19  1  0
 22 23  1  6
 22 21  1  0
 23 24  1  0
 24 25  2  0
 25 26  1  0
 27 26  2  0
 28 27  1  0
 29 24  1  0
 29 28  2  0
 30 32  1  0
 30 22  1  0
 31 30  2  0
M  END
$$$$
