RQF.pdb
     RDKit          3D

 32 32  0  0  1  0  0  0  0  0999 V2000
    8.8538  -13.4114   16.7850 N   0  0  0  0  0  0  0  0  0  0  0  0
    8.3780  -13.1177   18.0877 C   0  0  0  0  0  0  0  0  0  0  0  0
    8.7768  -12.0199   18.6389 N   0  0  0  0  0  0  0  0  0  0  0  0
    7.4805  -13.9801   18.7945 N   0  0  0  0  0  0  0  0  0  0  0  0
    7.8927  -14.7313   19.9480 C   0  0  0  0  0  0  0  0  0  0  0  0
    8.1819  -16.1807   19.6976 C   0  0  0  0  0  0  0  0  0  0  0  0
    8.7157  -16.9386   20.8616 C   0  0  0  0  0  0  0  0  0  0  0  0
    7.6696  -17.8402   21.4932 C   0  0  2  0  0  0  0  0  0  0  0  0
    6.3576  -17.5966   21.0046 N   0  0  0  0  0  0  0  0  0  0  0  0
    7.8330  -17.7594   22.9565 C   0  0  0  0  0  0  0  0  0  0  0  0
    7.0570  -16.9886   23.5766 O   0  0  0  0  0  0  0  0  0  0  0  0
    8.5027  -11.8147   19.6176 N   0  0  0  0  0  0  0  0  0  0  0  0
    7.7652  -21.2813   27.2174 C   0  0  0  0  0  0  0  0  0  0  0  0
    8.6116  -20.2575   27.7344 O   0  0  0  0  0  0  0  0  0  0  0  0
    8.3115  -19.7395   28.8543 C   0  0  0  0  0  0  0  0  0  0  0  0
    9.7868  -19.8400   26.9651 C   0  0  0  0  0  0  0  0  0  0  0  0
    9.6013  -19.7559   25.4953 C   0  0  1  0  0  0  0  0  0  0  0  0
    8.9124  -18.5043   25.0452 N   0  0  0  0  0  0  0  0  0  0  0  0
    8.8177  -18.5187   23.6022 C   0  0  0  0  0  0  0  0  0  0  0  0
    9.6928  -17.2636   25.3720 O   0  0  0  0  0  0  0  0  0  0  0  0
   10.5115  -16.8396   24.5259 N   0  0  0  0  0  0  0  0  0  0  0  0
    9.5564  -16.5481   26.5763 C   0  0  1  0  0  0  0  0  0  0  0  0
   10.3632  -15.3712   26.8777 C   0  0  0  0  0  0  0  0  0  0  0  0
    9.9103  -14.1804   26.0720 C   0  0  0  0  0  0  0  0  0  0  0  0
    8.5890  -13.7354   26.6205 C   0  0  0  0  0  0  0  0  0  0  0  0
    7.4004  -14.2826   26.1950 C   0  0  0  0  0  0  0  0  0  0  0  0
    6.1608  -13.9048   26.6821 C   0  0  0  0  0  0  0  0  0  0  0  0
    6.1109  -12.9191   27.6543 C   0  0  0  0  0  0  0  0  0  0  0  0
    7.3031  -12.3624   28.0885 C   0  0  0  0  0  0  0  0  0  0  0  0
    8.5252  -12.7493   27.5938 C   0  0  0  0  0  0  0  0  0  0  0  0
   10.4748  -15.1281   28.3153 O   0  0  0  0  0  0  0  0  0  0  0  0
   11.1525  -14.1410   28.6956 O   0  0  0  0  0  0  0  0  0  0  0  0
  2  3  2  0
  2  1  1  0
  4  2  1  0
  5  4  1  0
  6  5  1  0
  7  6  1  0
  8  9  1  1
  8  7  1  0
 10 18  1  0
 10  8  1  0
 11 10  2  0
 13 12  1  0
 14 13  2  0
 15 13  1  0
 16 15  1  0
 17 18  1  0
 17 16  1  1
 19 17  1  0
 20 19  2  0
 21 19  1  0
 22 23  1  1
 22 21  1  0
 23 24  1  0
 24 25  2  0
 25 26  1  0
 27 26  2  0
 28 27  1  0
 29 24  1  0
 29 28  2  0
 30 32  1  0
 30 22  1  0
 31 30  2  0
M  END
$$$$
