RQF.pdb
     RDKit          3D

 32 32  0  0  1  0  0  0  0  0999 V2000
    8.1898  -16.6424   16.2917 N   0  0  0  0  0  0  0  0  0  0  0  0
    9.0427  -15.6010   15.8471 C   0  0  0  0  0  0  0  0  0  0  0  0
    9.4380  -15.6327   14.6180 N   0  0  0  0  0  0  0  0  0  0  0  0
    9.4653  -14.5320   16.7000 N   0  0  0  0  0  0  0  0  0  0  0  0
    8.5376  -13.5843   17.2534 C   0  0  0  0  0  0  0  0  0  0  0  0
    7.3253  -14.1805   17.9031 C   0  0  0  0  0  0  0  0  0  0  0  0
    6.9098  -13.5507   19.1857 C   0  0  0  0  0  0  0  0  0  0  0  0
    8.0692  -13.3913   20.1535 C   0  0  2  0  0  0  0  0  0  0  0  0
    9.2859  -13.0378   19.5101 N   0  0  0  0  0  0  0  0  0  0  0  0
    8.1187  -14.6002   20.9964 C   0  0  0  0  0  0  0  0  0  0  0  0
    7.0315  -15.1962   21.2056 O   0  0  0  0  0  0  0  0  0  0  0  0
   10.1278  -14.9322   14.2885 N   0  0  0  0  0  0  0  0  0  0  0  0
   12.8048  -18.6458   21.0727 C   0  0  0  0  0  0  0  0  0  0  0  0
   12.0114  -19.0891   22.1709 O   0  0  0  0  0  0  0  0  0  0  0  0
   12.3393  -20.1704   22.7501 C   0  0  0  0  0  0  0  0  0  0  0  0
   10.8556  -18.2919   22.5905 C   0  0  0  0  0  0  0  0  0  0  0  0
   10.6419  -17.0235   21.8508 C   0  0  1  0  0  0  0  0  0  0  0  0
    9.3979  -16.2929   22.2539 N   0  0  0  0  0  0  0  0  0  0  0  0
    9.3367  -15.0432   21.5286 C   0  0  0  0  0  0  0  0  0  0  0  0
    9.3995  -15.9020   23.7039 O   0  0  0  0  0  0  0  0  0  0  0  0
    9.9817  -14.8437   24.0307 N   0  0  0  0  0  0  0  0  0  0  0  0
    8.7825  -16.6575   24.7185 C   0  0  1  0  0  0  0  0  0  0  0  0
    8.7953  -16.2407   26.1160 C   0  0  0  0  0  0  0  0  0  0  0  0
    7.4199  -15.8255   26.5724 C   0  0  0  0  0  0  0  0  0  0  0  0
    7.3097  -14.3419   26.3945 C   0  0  0  0  0  0  0  0  0  0  0  0
    6.2636  -13.7644   25.7122 C   0  0  0  0  0  0  0  0  0  0  0  0
    6.1218  -12.3990   25.5330 C   0  0  0  0  0  0  0  0  0  0  0  0
    7.0871  -11.5633   26.0704 C   0  0  0  0  0  0  0  0  0  0  0  0
    8.1440  -12.1363   26.7589 C   0  0  0  0  0  0  0  0  0  0  0  0
    8.2695  -13.4943   26.9273 C   0  0  0  0  0  0  0  0  0  0  0  0
    9.4558  -17.2176   26.9806 O   0  0  0  0  0  0  0  0  0  0  0  0
    9.6921  -18.3578   26.5090 O   0  0  0  0  0  0  0  0  0  0  0  0
  2  3  2  0
  2  1  1  0
  4  2  1  0
  5  4  1  0
  6  5  1  0
  7  6  1  0
  8  9  1  6
  8  7  1  0
 10 18  1  0
 10  8  1  0
 11 10  2  0
 13 12  1  0
 14 13  2  0
 15 13  1  0
 16 15  1  0
 17 18  1  0
 17 16  1  6
 19 17  1  0
 20 19  2  0
 21 19  1  0
 22 23  1  1
 22 21  1  0
 23 24  1  0
 24 25  2  0
 25 26  1  0
 27 26  2  0
 28 27  1  0
 29 24  1  0
 29 28  2  0
 30 32  1  0
 30 22  1  0
 31 30  2  0
M  END
$$$$
