RQF.pdb
     RDKit          3D

 32 32  0  0  1  0  0  0  0  0999 V2000
    8.4696  -12.5389   18.3832 N   0  0  0  0  0  0  0  0  0  0  0  0
    7.9119  -12.9411   19.6229 C   0  0  0  0  0  0  0  0  0  0  0  0
    8.1357  -12.1937   20.6521 N   0  0  0  0  0  0  0  0  0  0  0  0
    7.1175  -14.1232   19.7648 N   0  0  0  0  0  0  0  0  0  0  0  0
    6.4609  -14.4586   20.9982 C   0  0  0  0  0  0  0  0  0  0  0  0
    6.9454  -15.7133   21.6601 C   0  0  0  0  0  0  0  0  0  0  0  0
    7.4942  -16.7505   20.7449 C   0  0  0  0  0  0  0  0  0  0  0  0
    7.8618  -18.0300   21.4756 C   0  0  2  0  0  0  0  0  0  0  0  0
    6.7302  -18.7309   21.9730 N   0  0  0  0  0  0  0  0  0  0  0  0
    8.8963  -17.6956   22.4719 C   0  0  0  0  0  0  0  0  0  0  0  0
    8.7209  -18.1197   23.6424 O   0  0  0  0  0  0  0  0  0  0  0  0
    7.7862  -12.4922   21.5816 N   0  0  0  0  0  0  0  0  0  0  0  0
   14.2814  -14.4220   21.3029 C   0  0  0  0  0  0  0  0  0  0  0  0
   14.4140  -14.8699   22.6497 O   0  0  0  0  0  0  0  0  0  0  0  0
   15.4640  -14.5496   23.2879 C   0  0  0  0  0  0  0  0  0  0  0  0
   13.3467  -15.6770   23.2470 C   0  0  0  0  0  0  0  0  0  0  0  0
   12.1939  -15.9807   22.3636 C   0  0  1  0  0  0  0  0  0  0  0  0
   11.0913  -16.7295   23.0473 N   0  0  0  0  0  0  0  0  0  0  0  0
   10.0151  -16.9369   22.1037 C   0  0  0  0  0  0  0  0  0  0  0  0
   10.4759  -15.9525   24.1754 O   0  0  0  0  0  0  0  0  0  0  0  0
    9.4700  -15.2496   23.9302 N   0  0  0  0  0  0  0  0  0  0  0  0
   10.9648  -15.9693   25.4952 C   0  0  2  0  0  0  0  0  0  0  0  0
   10.0790  -15.9453   26.6534 C   0  0  0  0  0  0  0  0  0  0  0  0
    8.6333  -15.8813   26.2313 C   0  0  0  0  0  0  0  0  0  0  0  0
    8.2272  -14.4392   26.2148 C   0  0  0  0  0  0  0  0  0  0  0  0
    7.2193  -13.9740   25.4018 C   0  0  0  0  0  0  0  0  0  0  0  0
    6.8097  -12.6522   25.3631 C   0  0  0  0  0  0  0  0  0  0  0  0
    7.4495  -11.7429   26.1895 C   0  0  0  0  0  0  0  0  0  0  0  0
    8.4657  -12.2026   27.0114 C   0  0  0  0  0  0  0  0  0  0  0  0
    8.8599  -13.5187   27.0370 C   0  0  0  0  0  0  0  0  0  0  0  0
   10.3884  -17.0063   27.6109 O   0  0  0  0  0  0  0  0  0  0  0  0
   10.9295  -18.0534   27.1763 O   0  0  0  0  0  0  0  0  0  0  0  0
  2  3  2  0
  2  1  1  0
  4  2  1  0
  5  4  1  0
  6  5  1  0
  7  6  1  0
  8  9  1  1
  8  7  1  0
 10 18  1  0
 10  8  1  0
 11 10  2  0
 13 12  1  0
 14 13  2  0
 15 13  1  0
 16 15  1  0
 17 18  1  0
 17 16  1  6
 19 17  1  0
 20 19  2  0
 21 19  1  0
 22 23  1  6
 22 21  1  0
 23 24  1  0
 24 25  2  0
 25 26  1  0
 27 26  2  0
 28 27  1  0
 29 24  1  0
 29 28  2  0
 30 32  1  0
 30 22  1  0
 31 30  2  0
M  END
$$$$
