RQF.pdb
     RDKit          3D

 32 32  0  0  1  0  0  0  0  0999 V2000
    9.5397  -15.1684   16.4865 N   0  0  0  0  0  0  0  0  0  0  0  0
    8.9113  -13.9757   16.0484 C   0  0  0  0  0  0  0  0  0  0  0  0
    8.8206  -13.7780   14.7753 N   0  0  0  0  0  0  0  0  0  0  0  0
    8.3779  -13.0058   16.9558 N   0  0  0  0  0  0  0  0  0  0  0  0
    8.3062  -13.2426   18.3713 C   0  0  0  0  0  0  0  0  0  0  0  0
    7.2345  -14.1961   18.8069 C   0  0  0  0  0  0  0  0  0  0  0  0
    7.3090  -14.6403   20.2251 C   0  0  0  0  0  0  0  0  0  0  0  0
    8.6854  -15.1644   20.5951 C   0  0  2  0  0  0  0  0  0  0  0  0
    9.3012  -15.8987   19.5458 N   0  0  0  0  0  0  0  0  0  0  0  0
    8.5647  -15.8696   21.8845 C   0  0  0  0  0  0  0  0  0  0  0  0
    7.5752  -15.5799   22.6040 O   0  0  0  0  0  0  0  0  0  0  0  0
    8.2666  -12.9747   14.4246 N   0  0  0  0  0  0  0  0  0  0  0  0
    9.1562  -21.3733   20.7912 C   0  0  0  0  0  0  0  0  0  0  0  0
   10.0057  -20.8520   21.8103 O   0  0  0  0  0  0  0  0  0  0  0  0
   10.7264  -21.6667   22.4655 C   0  0  0  0  0  0  0  0  0  0  0  0
   10.0189  -19.4093   22.0664 C   0  0  0  0  0  0  0  0  0  0  0  0
    9.3264  -18.9652   23.3013 C   0  0  1  0  0  0  0  0  0  0  0  0
    9.4099  -17.4891   23.5416 N   0  0  0  0  0  0  0  0  0  0  0  0
    9.5246  -16.8160   22.2667 C   0  0  0  0  0  0  0  0  0  0  0  0
   10.6429  -17.0946   24.3027 O   0  0  0  0  0  0  0  0  0  0  0  0
   11.4785  -17.9846   24.5776 N   0  0  0  0  0  0  0  0  0  0  0  0
   10.9144  -15.7797   24.7251 C   0  0  2  0  0  0  0  0  0  0  0  0
    9.9798  -15.0171   25.5448 C   0  0  0  0  0  0  0  0  0  0  0  0
    8.7652  -14.6109   24.7497 C   0  0  0  0  0  0  0  0  0  0  0  0
    7.9476  -13.6920   25.6052 C   0  0  0  0  0  0  0  0  0  0  0  0
    8.4987  -12.9806   26.6461 C   0  0  0  0  0  0  0  0  0  0  0  0
    7.7795  -12.1165   27.4539 C   0  0  0  0  0  0  0  0  0  0  0  0
    6.4266  -11.9565   27.2022 C   0  0  0  0  0  0  0  0  0  0  0  0
    5.8634  -12.6691   26.1560 C   0  0  0  0  0  0  0  0  0  0  0  0
    6.5922  -13.5232   25.3640 C   0  0  0  0  0  0  0  0  0  0  0  0
    9.6842  -15.6816   26.8133 O   0  0  0  0  0  0  0  0  0  0  0  0
    8.9558  -16.7048   26.7874 O   0  0  0  0  0  0  0  0  0  0  0  0
  2  3  2  0
  2  1  1  0
  4  2  1  0
  5  4  1  0
  6  5  1  0
  7  6  1  0
  8  9  1  6
  8  7  1  0
 10 18  1  0
 10  8  1  0
 11 10  2  0
 13 12  1  0
 14 13  2  0
 15 13  1  0
 16 15  1  0
 17 18  1  0
 17 16  1  6
 19 17  1  0
 20 19  2  0
 21 19  1  0
 22 23  1  6
 22 21  1  0
 23 24  1  0
 24 25  2  0
 25 26  1  0
 27 26  2  0
 28 27  1  0
 29 24  1  0
 29 28  2  0
 30 32  1  0
 30 22  1  0
 31 30  2  0
M  END
$$$$
