RQF.pdb
     RDKit          3D

 32 32  0  0  1  0  0  0  0  0999 V2000
    8.5999  -14.8750   16.9140 N   0  0  0  0  0  0  0  0  0  0  0  0
    8.1343  -13.5610   16.6571 C   0  0  0  0  0  0  0  0  0  0  0  0
    7.9792  -13.2097   15.4239 N   0  0  0  0  0  0  0  0  0  0  0  0
    7.8293  -12.6318   17.7023 N   0  0  0  0  0  0  0  0  0  0  0  0
    7.9702  -12.9717   19.0913 C   0  0  0  0  0  0  0  0  0  0  0  0
    7.8629  -14.4334   19.4063 C   0  0  0  0  0  0  0  0  0  0  0  0
    7.8486  -14.7782   20.8538 C   0  0  0  0  0  0  0  0  0  0  0  0
    7.6482  -16.2645   21.0919 C   0  0  2  0  0  0  0  0  0  0  0  0
    6.3095  -16.6873   20.8719 N   0  0  0  0  0  0  0  0  0  0  0  0
    8.2115  -16.5861   22.4162 C   0  0  0  0  0  0  0  0  0  0  0  0
    7.4196  -16.5733   23.3927 O   0  0  0  0  0  0  0  0  0  0  0  0
    7.7094  -12.2327   15.2047 N   0  0  0  0  0  0  0  0  0  0  0  0
   13.7070  -19.6421   23.2936 C   0  0  0  0  0  0  0  0  0  0  0  0
   13.2730  -19.3345   24.6161 O   0  0  0  0  0  0  0  0  0  0  0  0
   13.9687  -19.7591   25.5899 C   0  0  0  0  0  0  0  0  0  0  0  0
   12.0516  -18.5477   24.8070 C   0  0  0  0  0  0  0  0  0  0  0  0
   11.3676  -18.1042   23.5672 C   0  0  1  0  0  0  0  0  0  0  0  0
   10.0836  -17.3738   23.8153 N   0  0  0  0  0  0  0  0  0  0  0  0
    9.5727  -16.8887   22.5523 C   0  0  0  0  0  0  0  0  0  0  0  0
   10.2694  -16.1449   24.6582 O   0  0  0  0  0  0  0  0  0  0  0  0
   10.0520  -15.0296   24.1341 N   0  0  0  0  0  0  0  0  0  0  0  0
   10.6739  -16.1744   26.0060 C   0  0  2  0  0  0  0  0  0  0  0  0
    9.9039  -15.5301   27.0637 C   0  0  0  0  0  0  0  0  0  0  0  0
    8.4230  -15.7010   26.8396 C   0  0  0  0  0  0  0  0  0  0  0  0
    7.8388  -14.3421   26.6012 C   0  0  0  0  0  0  0  0  0  0  0  0
    6.4885  -14.1497   26.4195 C   0  0  0  0  0  0  0  0  0  0  0  0
    5.9094  -12.9108   26.2047 C   0  0  0  0  0  0  0  0  0  0  0  0
    6.7344  -11.7984   26.1702 C   0  0  0  0  0  0  0  0  0  0  0  0
    8.0955  -11.9829   26.3521 C   0  0  0  0  0  0  0  0  0  0  0  0
    8.6538  -13.2204   26.5641 C   0  0  0  0  0  0  0  0  0  0  0  0
   10.3668  -15.9104   28.3976 O   0  0  0  0  0  0  0  0  0  0  0  0
   10.7567  -17.0918   28.5720 O   0  0  0  0  0  0  0  0  0  0  0  0
  2  3  2  0
  2  1  1  0
  4  2  1  0
  5  4  1  0
  6  5  1  0
  7  6  1  0
  8  9  1  1
  8  7  1  0
 10 18  1  0
 10  8  1  0
 11 10  2  0
 13 12  1  0
 14 13  2  0
 15 13  1  0
 16 15  1  0
 17 18  1  0
 17 16  1  6
 19 17  1  0
 20 19  2  0
 21 19  1  0
 22 23  1  1
 22 21  1  0
 23 24  1  0
 24 25  2  0
 25 26  1  0
 27 26  2  0
 28 27  1  0
 29 24  1  0
 29 28  2  0
 30 32  1  0
 30 22  1  0
 31 30  2  0
M  END
$$$$
