RQF.pdb
     RDKit          3D

 32 32  0  0  1  0  0  0  0  0999 V2000
    8.6368  -13.7647   15.7295 N   0  0  0  0  0  0  0  0  0  0  0  0
    8.9694  -14.0757   17.0720 C   0  0  0  0  0  0  0  0  0  0  0  0
    9.5493  -15.2069   17.2999 N   0  0  0  0  0  0  0  0  0  0  0  0
    8.6942  -13.1883   18.1609 N   0  0  0  0  0  0  0  0  0  0  0  0
    8.6554  -13.6412   19.5240 C   0  0  0  0  0  0  0  0  0  0  0  0
    7.4241  -14.4045   19.9096 C   0  0  0  0  0  0  0  0  0  0  0  0
    7.4005  -14.9212   21.3049 C   0  0  0  0  0  0  0  0  0  0  0  0
    7.3214  -16.4368   21.3587 C   0  0  2  0  0  0  0  0  0  0  0  0
    6.0288  -16.9375   21.0457 N   0  0  0  0  0  0  0  0  0  0  0  0
    7.8788  -16.8690   22.6536 C   0  0  0  0  0  0  0  0  0  0  0  0
    7.0983  -16.8730   23.6393 O   0  0  0  0  0  0  0  0  0  0  0  0
    9.7728  -15.4750   18.2763 N   0  0  0  0  0  0  0  0  0  0  0  0
   11.7904  -20.4443   21.6188 C   0  0  0  0  0  0  0  0  0  0  0  0
   10.9123  -21.0248   22.5800 O   0  0  0  0  0  0  0  0  0  0  0  0
   10.6098  -22.2515   22.4525 C   0  0  0  0  0  0  0  0  0  0  0  0
   10.3925  -20.1965   23.6712 C   0  0  0  0  0  0  0  0  0  0  0  0
   10.8251  -18.7771   23.6684 C   0  0  2  0  0  0  0  0  0  0  0  0
    9.7260  -17.8113   23.9889 N   0  0  0  0  0  0  0  0  0  0  0  0
    9.2227  -17.2527   22.7535 C   0  0  0  0  0  0  0  0  0  0  0  0
   10.2054  -16.6305   24.7834 O   0  0  0  0  0  0  0  0  0  0  0  0
   10.7886  -15.7055   24.1751 N   0  0  0  0  0  0  0  0  0  0  0  0
   10.0360  -16.5029   26.1748 C   0  0  1  0  0  0  0  0  0  0  0  0
   10.6121  -15.3967   26.9306 C   0  0  0  0  0  0  0  0  0  0  0  0
   10.2191  -14.0685   26.3356 C   0  0  0  0  0  0  0  0  0  0  0  0
    8.7998  -13.7951   26.7299 C   0  0  0  0  0  0  0  0  0  0  0  0
    7.7353  -14.2372   25.9784 C   0  0  0  0  0  0  0  0  0  0  0  0
    6.4109  -14.0122   26.3125 C   0  0  0  0  0  0  0  0  0  0  0  0
    6.1381  -13.3012   27.4698 C   0  0  0  0  0  0  0  0  0  0  0  0
    7.2040  -12.8521   28.2326 C   0  0  0  0  0  0  0  0  0  0  0  0
    8.5132  -13.0843   27.8859 C   0  0  0  0  0  0  0  0  0  0  0  0
   10.3663  -15.5182   28.3669 O   0  0  0  0  0  0  0  0  0  0  0  0
   10.8779  -14.6592   29.1275 O   0  0  0  0  0  0  0  0  0  0  0  0
  2  3  2  0
  2  1  1  0
  4  2  1  0
  5  4  1  0
  6  5  1  0
  7  6  1  0
  8  9  1  1
  8  7  1  0
 10 18  1  0
 10  8  1  0
 11 10  2  0
 13 12  1  0
 14 13  2  0
 15 13  1  0
 16 15  1  0
 17 18  1  0
 17 16  1  6
 19 17  1  0
 20 19  2  0
 21 19  1  0
 22 23  1  1
 22 21  1  0
 23 24  1  0
 24 25  2  0
 25 26  1  0
 27 26  2  0
 28 27  1  0
 29 24  1  0
 29 28  2  0
 30 32  1  0
 30 22  1  0
 31 30  2  0
M  END
$$$$
