RQF.pdb
     RDKit          3D

 32 32  0  0  1  0  0  0  0  0999 V2000
    8.0808  -13.2477   17.4196 N   0  0  0  0  0  0  0  0  0  0  0  0
    8.1866  -13.0637   18.8212 C   0  0  0  0  0  0  0  0  0  0  0  0
    7.8375  -11.9178   19.3040 N   0  0  0  0  0  0  0  0  0  0  0  0
    8.6524  -14.0914   19.7017 N   0  0  0  0  0  0  0  0  0  0  0  0
    7.7507  -14.9683   20.3967 C   0  0  0  0  0  0  0  0  0  0  0  0
    7.3816  -16.2207   19.6601 C   0  0  0  0  0  0  0  0  0  0  0  0
    8.5220  -16.9935   19.0972 C   0  0  0  0  0  0  0  0  0  0  0  0
    8.6198  -18.3902   19.6851 C   0  0  2  0  0  0  0  0  0  0  0  0
    7.3936  -19.1059   19.6248 N   0  0  0  0  0  0  0  0  0  0  0  0
    9.2263  -18.2714   21.0239 C   0  0  0  0  0  0  0  0  0  0  0  0
    8.5443  -18.6782   21.9987 O   0  0  0  0  0  0  0  0  0  0  0  0
    7.8340  -11.7799   20.3317 N   0  0  0  0  0  0  0  0  0  0  0  0
   15.4345  -17.7996   21.1405 C   0  0  0  0  0  0  0  0  0  0  0  0
   14.3978  -18.7497   20.9072 O   0  0  0  0  0  0  0  0  0  0  0  0
   14.4585  -19.4577   19.8549 C   0  0  0  0  0  0  0  0  0  0  0  0
   13.3075  -18.8765   21.8780 C   0  0  0  0  0  0  0  0  0  0  0  0
   12.6355  -17.6114   22.2650 C   0  0  2  0  0  0  0  0  0  0  0  0
   11.1578  -17.7509   22.4666 N   0  0  0  0  0  0  0  0  0  0  0  0
   10.5077  -17.7252   21.1750 C   0  0  0  0  0  0  0  0  0  0  0  0
   10.5649  -16.5978   23.2242 O   0  0  0  0  0  0  0  0  0  0  0  0
   10.4962  -15.4868   22.6523 N   0  0  0  0  0  0  0  0  0  0  0  0
   10.0802  -16.6939   24.5421 C   0  0  1  0  0  0  0  0  0  0  0  0
    9.4850  -15.5583   25.2370 C   0  0  0  0  0  0  0  0  0  0  0  0
    8.3431  -14.9739   24.4452 C   0  0  0  0  0  0  0  0  0  0  0  0
    7.7165  -13.8968   25.2771 C   0  0  0  0  0  0  0  0  0  0  0  0
    6.5645  -14.1093   25.9991 C   0  0  0  0  0  0  0  0  0  0  0  0
    5.9594  -13.1436   26.7851 C   0  0  0  0  0  0  0  0  0  0  0  0
    6.5452  -11.8899   26.8506 C   0  0  0  0  0  0  0  0  0  0  0  0
    7.7053  -11.6671   26.1268 C   0  0  0  0  0  0  0  0  0  0  0  0
    8.2926  -12.6374   25.3511 C   0  0  0  0  0  0  0  0  0  0  0  0
    9.1667  -15.8652   26.6307 O   0  0  0  0  0  0  0  0  0  0  0  0
    8.6493  -16.9813   26.8855 O   0  0  0  0  0  0  0  0  0  0  0  0
  2  3  2  0
  2  1  1  0
  4  2  1  0
  5  4  1  0
  6  5  1  0
  7  6  1  0
  8  9  1  1
  8  7  1  0
 10 18  1  0
 10  8  1  0
 11 10  2  0
 13 12  1  0
 14 13  2  0
 15 13  1  0
 16 15  1  0
 17 18  1  0
 17 16  1  6
 19 17  1  0
 20 19  2  0
 21 19  1  0
 22 23  1  1
 22 21  1  0
 23 24  1  0
 24 25  2  0
 25 26  1  0
 27 26  2  0
 28 27  1  0
 29 24  1  0
 29 28  2  0
 30 32  1  0
 30 22  1  0
 31 30  2  0
M  END
$$$$
