VPY.pdb
     RDKit          3D

 27 28  0  0  1  0  0  0  0  0999 V2000
   37.6500  -10.9354  -17.9668 C   0  0  0  0  0  0  0  0  0  0  0  0
   36.2192  -11.2205  -18.2898 C   0  0  1  0  0  0  0  0  0  0  0  0
   36.1020  -12.3238  -19.2905 C   0  0  0  0  0  0  0  0  0  0  0  0
   35.4641  -11.5531  -16.9854 C   0  0  2  0  0  0  0  0  0  0  0  0
   34.1977  -12.0390  -17.3723 N   0  0  0  0  0  0  0  0  0  0  0  0
   35.5459  -10.4416  -16.0481 C   0  0  0  0  0  0  0  0  0  0  0  0
   35.1249   -9.3236  -16.5458 O   0  0  0  0  0  0  0  0  0  0  0  0
   35.9901  -10.3796  -14.7345 N   0  0  0  0  0  0  0  0  0  0  0  0
   35.7082  -11.4592  -13.7410 C   0  0  0  0  0  0  0  0  0  0  0  0
   37.1089  -11.6569  -13.1675 C   0  0  0  0  0  0  0  0  0  0  0  0
   37.9291  -10.4280  -13.6022 C   0  0  0  0  0  0  0  0  0  0  0  0
   36.7419   -9.4920  -13.9161 C   0  0  1  0  0  0  0  0  0  0  0  0
   37.0942   -8.1634  -14.2287 C   0  0  0  0  0  0  0  0  0  0  0  0
   37.9939   -8.0216  -15.1653 O   0  0  0  0  0  0  0  0  0  0  0  0
   31.1318   -6.4322  -16.7138 O   0  0  0  0  0  0  0  0  0  0  0  0
   32.4645   -6.1387  -16.4313 C   0  0  0  0  0  0  0  0  0  0  0  0
   32.8159   -5.0604  -15.6483 C   0  0  0  0  0  0  0  0  0  0  0  0
   34.1416   -4.7957  -15.3865 C   0  0  0  0  0  0  0  0  0  0  0  0
   35.1364   -5.5944  -15.8955 C   0  0  0  0  0  0  0  0  0  0  0  0
   36.5575   -5.3167  -15.6024 C   0  0  0  0  0  0  0  0  0  0  0  0
   37.0034   -5.6640  -14.2465 C   0  0  2  0  0  0  0  0  0  0  0  0
   36.6557   -6.9486  -13.7028 N   0  0  0  0  0  0  0  0  0  0  0  0
   36.4897   -4.6063  -13.3163 C   0  0  0  0  0  0  0  0  0  0  0  0
   36.7031   -3.3867  -13.4863 O   0  0  0  0  0  0  0  0  0  0  0  0
   34.7824   -6.6777  -16.6824 C   0  0  0  0  0  0  0  0  0  0  0  0
   33.4605   -6.9559  -16.9538 C   0  0  0  0  0  0  0  0  0  0  0  0
   35.7505   -5.0386  -12.2327 O   0  0  0  0  0  0  0  0  0  0  0  0
  2  3  1  6
  2  1  1  0
  4  5  1  6
  4  2  1  0
  6  4  1  0
  7  6  2  0
  8  9  1  0
  8  6  1  0
 10  9  1  0
 11 10  1  0
 11 12  1  0
 12  8  1  0
 12 13  1  6
 13 14  2  0
 16 15  1  0
 17 16  2  0
 18 17  1  0
 19 25  1  0
 19 18  2  0
 21 20  1  6
 20 19  1  0
 21 22  1  0
 22 13  1  0
 23 21  1  0
 24 23  2  0
 25 26  2  0
 26 16  1  0
 27 23  1  0
M  END
$$$$
