VPY.pdb
     RDKit          3D

 27 28  0  0  1  0  0  0  0  0999 V2000
   30.6198  -26.1868  -16.0776 C   0  0  0  0  0  0  0  0  0  0  0  0
   30.8308  -25.8294  -17.5131 C   0  0  1  0  0  0  0  0  0  0  0  0
   29.9811  -26.6709  -18.4086 C   0  0  0  0  0  0  0  0  0  0  0  0
   30.5443  -24.3250  -17.7058 C   0  0  2  0  0  0  0  0  0  0  0  0
   31.6236  -23.6361  -17.1138 N   0  0  0  0  0  0  0  0  0  0  0  0
   29.1838  -24.0057  -17.2968 C   0  0  0  0  0  0  0  0  0  0  0  0
   28.9961  -24.1165  -16.0211 O   0  0  0  0  0  0  0  0  0  0  0  0
   28.0742  -23.6088  -18.0303 N   0  0  0  0  0  0  0  0  0  0  0  0
   28.1636  -22.6230  -19.1494 C   0  0  0  0  0  0  0  0  0  0  0  0
   27.3744  -23.3724  -20.2196 C   0  0  0  0  0  0  0  0  0  0  0  0
   26.6078  -24.4888  -19.4861 C   0  0  0  0  0  0  0  0  0  0  0  0
   26.6796  -23.8858  -18.0666 C   0  0  1  0  0  0  0  0  0  0  0  0
   25.9390  -24.5757  -17.0855 C   0  0  0  0  0  0  0  0  0  0  0  0
   26.4765  -25.6817  -16.6441 O   0  0  0  0  0  0  0  0  0  0  0  0
   21.2416  -19.7671  -13.0347 O   0  0  0  0  0  0  0  0  0  0  0  0
   21.9971  -20.9143  -13.2697 C   0  0  0  0  0  0  0  0  0  0  0  0
   21.4359  -22.1719  -13.2160 C   0  0  0  0  0  0  0  0  0  0  0  0
   22.2081  -23.2870  -13.4529 C   0  0  0  0  0  0  0  0  0  0  0  0
   23.5450  -23.1724  -13.7463 C   0  0  0  0  0  0  0  0  0  0  0  0
   24.3689  -24.3693  -14.0134 C   0  0  0  0  0  0  0  0  0  0  0  0
   24.1929  -24.9752  -15.3400 C   0  0  2  0  0  0  0  0  0  0  0  0
   24.7078  -24.2923  -16.4954 N   0  0  0  0  0  0  0  0  0  0  0  0
   22.7246  -25.2002  -15.5435 C   0  0  0  0  0  0  0  0  0  0  0  0
   22.0246  -24.4919  -16.2986 O   0  0  0  0  0  0  0  0  0  0  0  0
   24.1083  -21.9084  -13.7998 C   0  0  0  0  0  0  0  0  0  0  0  0
   23.3492  -20.7826  -13.5651 C   0  0  0  0  0  0  0  0  0  0  0  0
   22.1550  -26.2481  -14.8473 O   0  0  0  0  0  0  0  0  0  0  0  0
  2  3  1  6
  2  1  1  0
  4  5  1  1
  4  2  1  0
  6  4  1  0
  7  6  2  0
  8  9  1  0
  8  6  1  0
 10  9  1  0
 11 10  1  0
 11 12  1  0
 12  8  1  0
 12 13  1  1
 13 14  2  0
 16 15  1  0
 17 16  2  0
 18 17  1  0
 19 25  1  0
 19 18  2  0
 21 20  1  1
 20 19  1  0
 21 22  1  0
 22 13  1  0
 23 21  1  0
 24 23  2  0
 25 26  2  0
 26 16  1  0
 27 23  1  0
M  END
$$$$
