VPY.pdb
     RDKit          3D

 27 28  0  0  1  0  0  0  0  0999 V2000
   19.5931  -19.1037  -11.9741 C   0  0  0  0  0  0  0  0  0  0  0  0
   20.3200  -19.7803  -13.0906 C   0  0  1  0  0  0  0  0  0  0  0  0
   20.5504  -18.8423  -14.2304 C   0  0  0  0  0  0  0  0  0  0  0  0
   21.6461  -20.3580  -12.5522 C   0  0  2  0  0  0  0  0  0  0  0  0
   22.3757  -20.7936  -13.6782 N   0  0  0  0  0  0  0  0  0  0  0  0
   21.3942  -21.2892  -11.4614 C   0  0  0  0  0  0  0  0  0  0  0  0
   20.4847  -22.1665  -11.7404 O   0  0  0  0  0  0  0  0  0  0  0  0
   21.9553  -21.3940  -10.1961 N   0  0  0  0  0  0  0  0  0  0  0  0
   23.4141  -21.1902   -9.9465 C   0  0  0  0  0  0  0  0  0  0  0  0
   23.3437  -20.2341   -8.7588 C   0  0  0  0  0  0  0  0  0  0  0  0
   21.8999  -20.3128   -8.2283 C   0  0  0  0  0  0  0  0  0  0  0  0
   21.5214  -21.6656   -8.8691 C   0  0  1  0  0  0  0  0  0  0  0  0
   20.2636  -22.1762   -8.4894 C   0  0  0  0  0  0  0  0  0  0  0  0
   19.2333  -21.6570   -9.1025 O   0  0  0  0  0  0  0  0  0  0  0  0
   12.3165  -25.0984   -7.2566 O   0  0  0  0  0  0  0  0  0  0  0  0
   13.6630  -24.8693   -7.5331 C   0  0  0  0  0  0  0  0  0  0  0  0
   14.6083  -25.8622   -7.3914 C   0  0  0  0  0  0  0  0  0  0  0  0
   15.9316  -25.6055   -7.6723 C   0  0  0  0  0  0  0  0  0  0  0  0
   16.3367  -24.3638   -8.0973 C   0  0  0  0  0  0  0  0  0  0  0  0
   17.7550  -24.0942   -8.4111 C   0  0  0  0  0  0  0  0  0  0  0  0
   18.5597  -23.5683   -7.3003 C   0  0  2  0  0  0  0  0  0  0  0  0
   19.9107  -23.1470   -7.5527 N   0  0  0  0  0  0  0  0  0  0  0  0
   18.5873  -24.6145   -6.2266 C   0  0  0  0  0  0  0  0  0  0  0  0
   19.6253  -25.2288   -5.8998 O   0  0  0  0  0  0  0  0  0  0  0  0
   15.3863  -23.3666   -8.2392 C   0  0  0  0  0  0  0  0  0  0  0  0
   14.0581  -23.6072   -7.9620 C   0  0  0  0  0  0  0  0  0  0  0  0
   17.3906  -24.8841   -5.5920 O   0  0  0  0  0  0  0  0  0  0  0  0
  2  3  1  6
  2  1  1  0
  4  5  1  6
  4  2  1  0
  6  4  1  0
  7  6  2  0
  8  9  1  0
  8  6  1  0
 10  9  1  0
 11 10  1  0
 11 12  1  0
 12  8  1  0
 12 13  1  6
 13 14  2  0
 16 15  1  0
 17 16  2  0
 18 17  1  0
 19 25  1  0
 19 18  2  0
 21 20  1  6
 20 19  1  0
 21 22  1  0
 22 13  1  0
 23 21  1  0
 24 23  2  0
 25 26  2  0
 26 16  1  0
 27 23  1  0
M  END
$$$$
