VPY.pdb
     RDKit          3D

 27 28  0  0  1  0  0  0  0  0999 V2000
   13.5077  -10.8381  -15.3721 C   0  0  0  0  0  0  0  0  0  0  0  0
   14.1402   -9.8217  -14.4779 C   0  0  1  0  0  0  0  0  0  0  0  0
   13.2682   -9.5205  -13.3027 C   0  0  0  0  0  0  0  0  0  0  0  0
   15.5299  -10.3307  -14.0395 C   0  0  2  0  0  0  0  0  0  0  0  0
   15.3902  -11.7146  -13.8050 N   0  0  0  0  0  0  0  0  0  0  0  0
   16.0798   -9.4815  -12.9922 C   0  0  0  0  0  0  0  0  0  0  0  0
   15.5030   -9.6483  -11.8458 O   0  0  0  0  0  0  0  0  0  0  0  0
   17.1005   -8.5410  -13.0146 N   0  0  0  0  0  0  0  0  0  0  0  0
   18.4077   -8.7924  -13.6930 C   0  0  0  0  0  0  0  0  0  0  0  0
   18.5359   -7.5013  -14.4970 C   0  0  0  0  0  0  0  0  0  0  0  0
   17.5145   -6.5174  -13.8965 C   0  0  0  0  0  0  0  0  0  0  0  0
   17.3299   -7.2218  -12.5351 C   0  0  1  0  0  0  0  0  0  0  0  0
   16.5376   -6.5224  -11.6022 C   0  0  0  0  0  0  0  0  0  0  0  0
   15.2893   -6.3413  -11.9427 O   0  0  0  0  0  0  0  0  0  0  0  0
   11.5143   -9.7878   -8.1803 O   0  0  0  0  0  0  0  0  0  0  0  0
   12.5011   -8.8038   -8.1901 C   0  0  0  0  0  0  0  0  0  0  0  0
   12.1840   -7.4631   -8.1536 C   0  0  0  0  0  0  0  0  0  0  0  0
   13.1813   -6.5138   -8.1644 C   0  0  0  0  0  0  0  0  0  0  0  0
   14.5047   -6.8784   -8.2110 C   0  0  0  0  0  0  0  0  0  0  0  0
   15.5737   -5.8586   -8.2090 C   0  0  0  0  0  0  0  0  0  0  0  0
   15.9057   -5.2876   -9.5211 C   0  0  2  0  0  0  0  0  0  0  0  0
   16.8522   -5.9687  -10.3617 N   0  0  0  0  0  0  0  0  0  0  0  0
   16.3997   -3.8902   -9.2946 C   0  0  0  0  0  0  0  0  0  0  0  0
   17.5707   -3.5322   -9.5444 O   0  0  0  0  0  0  0  0  0  0  0  0
   14.8225   -8.2258   -8.2479 C   0  0  0  0  0  0  0  0  0  0  0  0
   13.8363   -9.1882   -8.2379 C   0  0  0  0  0  0  0  0  0  0  0  0
   15.4894   -2.9851   -8.7853 O   0  0  0  0  0  0  0  0  0  0  0  0
  2  3  1  1
  2  1  1  0
  4  5  1  1
  4  2  1  0
  6  4  1  0
  7  6  2  0
  8  9  1  0
  8  6  1  0
 10  9  1  0
 11 10  1  0
 11 12  1  0
 12  8  1  0
 12 13  1  6
 13 14  2  0
 16 15  1  0
 17 16  2  0
 18 17  1  0
 19 25  1  0
 19 18  2  0
 21 20  1  1
 20 19  1  0
 21 22  1  0
 22 13  1  0
 23 21  1  0
 24 23  2  0
 25 26  2  0
 26 16  1  0
 27 23  1  0
M  END
$$$$
