VPY.pdb
     RDKit          3D

 27 28  0  0  1  0  0  0  0  0999 V2000
   26.3240  -18.7660  -21.3942 C   0  0  0  0  0  0  0  0  0  0  0  0
   26.0886  -19.2424  -19.9976 C   0  0  1  0  0  0  0  0  0  0  0  0
   25.0301  -20.2961  -19.9587 C   0  0  0  0  0  0  0  0  0  0  0  0
   27.4205  -19.7521  -19.4072 C   0  0  2  0  0  0  0  0  0  0  0  0
   27.9462  -20.6663  -20.3439 N   0  0  0  0  0  0  0  0  0  0  0  0
   27.2410  -20.1715  -18.0243 C   0  0  0  0  0  0  0  0  0  0  0  0
   26.9110  -21.4175  -17.9087 O   0  0  0  0  0  0  0  0  0  0  0  0
   27.3628  -19.4738  -16.8305 N   0  0  0  0  0  0  0  0  0  0  0  0
   28.5131  -18.5633  -16.5477 C   0  0  0  0  0  0  0  0  0  0  0  0
   27.7563  -17.3366  -16.0455 C   0  0  0  0  0  0  0  0  0  0  0  0
   26.3259  -17.8127  -15.7306 C   0  0  0  0  0  0  0  0  0  0  0  0
   26.6339  -19.3215  -15.6187 C   0  0  1  0  0  0  0  0  0  0  0  0
   25.5571  -20.1213  -15.1853 C   0  0  0  0  0  0  0  0  0  0  0  0
   24.5465  -20.2049  -16.0091 O   0  0  0  0  0  0  0  0  0  0  0  0
   26.4300  -20.0853   -7.8526 O   0  0  0  0  0  0  0  0  0  0  0  0
   25.8762  -20.6534   -8.9982 C   0  0  0  0  0  0  0  0  0  0  0  0
   26.6426  -21.3710   -9.8910 C   0  0  0  0  0  0  0  0  0  0  0  0
   26.0668  -21.9206  -11.0145 C   0  0  0  0  0  0  0  0  0  0  0  0
   24.7258  -21.7679  -11.2691 C   0  0  0  0  0  0  0  0  0  0  0  0
   24.1072  -22.3698  -12.4682 C   0  0  0  0  0  0  0  0  0  0  0  0
   24.1537  -21.5472  -13.6844 C   0  0  2  0  0  0  0  0  0  0  0  0
   25.3659  -20.8462  -14.0095 N   0  0  0  0  0  0  0  0  0  0  0  0
   23.0417  -20.5453  -13.5959 C   0  0  0  0  0  0  0  0  0  0  0  0
   21.8343  -20.8669  -13.5766 O   0  0  0  0  0  0  0  0  0  0  0  0
   23.9564  -21.0464  -10.3716 C   0  0  0  0  0  0  0  0  0  0  0  0
   24.5174  -20.4900   -9.2428 C   0  0  0  0  0  0  0  0  0  0  0  0
   23.4083  -19.2152  -13.5345 O   0  0  0  0  0  0  0  0  0  0  0  0
  2  3  1  6
  2  1  1  0
  4  5  1  6
  4  2  1  0
  6  4  1  0
  7  6  2  0
  8  9  1  0
  8  6  1  0
 10  9  1  0
 11 10  1  0
 11 12  1  0
 12  8  1  0
 12 13  1  6
 13 14  2  0
 16 15  1  0
 17 16  2  0
 18 17  1  0
 19 25  1  0
 19 18  2  0
 21 20  1  1
 20 19  1  0
 21 22  1  0
 22 13  1  0
 23 21  1  0
 24 23  2  0
 25 26  2  0
 26 16  1  0
 27 23  1  0
M  END
$$$$
