VPY.pdb
     RDKit          3D

 27 28  0  0  1  0  0  0  0  0999 V2000
   23.4369  -16.2678  -17.9070 C   0  0  0  0  0  0  0  0  0  0  0  0
   24.1734  -16.9995  -16.8323 C   0  0  1  0  0  0  0  0  0  0  0  0
   23.3365  -17.1359  -15.6022 C   0  0  0  0  0  0  0  0  0  0  0  0
   24.6191  -18.3749  -17.3726 C   0  0  2  0  0  0  0  0  0  0  0  0
   23.5288  -18.8850  -18.1080 N   0  0  0  0  0  0  0  0  0  0  0  0
   25.2005  -19.1801  -16.3077 C   0  0  0  0  0  0  0  0  0  0  0  0
   24.3447  -19.5137  -15.3961 O   0  0  0  0  0  0  0  0  0  0  0  0
   26.4940  -19.6429  -16.1090 N   0  0  0  0  0  0  0  0  0  0  0  0
   27.3406  -20.1612  -17.2256 C   0  0  0  0  0  0  0  0  0  0  0  0
   28.6292  -19.3891  -16.9549 C   0  0  0  0  0  0  0  0  0  0  0  0
   28.5063  -18.8358  -15.5229 C   0  0  0  0  0  0  0  0  0  0  0  0
   27.4045  -19.7972  -15.0273 C   0  0  1  0  0  0  0  0  0  0  0  0
   27.0965  -19.6977  -13.6554 C   0  0  0  0  0  0  0  0  0  0  0  0
   27.2621  -18.5165  -13.1222 O   0  0  0  0  0  0  0  0  0  0  0  0
   20.3078  -20.9045  -13.6292 O   0  0  0  0  0  0  0  0  0  0  0  0
   21.4976  -20.5567  -12.9922 C   0  0  0  0  0  0  0  0  0  0  0  0
   21.8160  -21.0423  -11.7423 C   0  0  0  0  0  0  0  0  0  0  0  0
   22.9993  -20.6806  -11.1383 C   0  0  0  0  0  0  0  0  0  0  0  0
   23.8828  -19.8345  -11.7629 C   0  0  0  0  0  0  0  0  0  0  0  0
   25.1581  -19.4584  -11.1188 C   0  0  0  0  0  0  0  0  0  0  0  0
   26.2892  -20.3579  -11.3821 C   0  0  2  0  0  0  0  0  0  0  0  0
   26.6479  -20.6519  -12.7428 N   0  0  0  0  0  0  0  0  0  0  0  0
   26.0103  -21.6531  -10.6802 C   0  0  0  0  0  0  0  0  0  0  0  0
   26.0542  -22.7626  -11.2536 O   0  0  0  0  0  0  0  0  0  0  0  0
   23.5620  -19.3469  -13.0187 C   0  0  0  0  0  0  0  0  0  0  0  0
   22.3818  -19.6991  -13.6367 C   0  0  0  0  0  0  0  0  0  0  0  0
   25.6937  -21.5759   -9.3381 O   0  0  0  0  0  0  0  0  0  0  0  0
  2  3  1  1
  2  1  1  0
  4  5  1  1
  4  2  1  0
  6  4  1  0
  7  6  2  0
  8  9  1  0
  8  6  1  0
 10  9  1  0
 11 10  1  0
 11 12  1  0
 12  8  1  0
 12 13  1  1
 13 14  2  0
 16 15  1  0
 17 16  2  0
 18 17  1  0
 19 25  1  0
 19 18  2  0
 21 20  1  6
 20 19  1  0
 21 22  1  0
 22 13  1  0
 23 21  1  0
 24 23  2  0
 25 26  2  0
 26 16  1  0
 27 23  1  0
M  END
$$$$
