NHQ.pdb
     RDKit          3D

 28 28  0  0  1  0  0  0  0  0999 V2000
   10.5022  -14.4715   12.4285 N   0  0  0  0  0  0  0  0  0  0  0  0
   10.6609  -15.4921   13.4023 C   0  0  0  0  0  0  0  0  0  0  0  0
   10.4981  -16.7146   13.1373 O   0  0  0  0  0  0  0  0  0  0  0  0
   11.0333  -15.0845   14.7812 C   0  0  0  0  0  0  0  0  0  0  0  0
   11.1584  -16.2783   15.7032 C   0  0  2  0  0  0  0  0  0  0  0  0
   10.0367  -17.1663   15.4981 N   0  0  0  0  0  0  0  0  0  0  0  0
   11.2014  -15.7514   17.0907 C   0  0  0  0  0  0  0  0  0  0  0  0
   12.1751  -15.0478   17.4575 O   0  0  0  0  0  0  0  0  0  0  0  0
   10.1792  -16.0058   18.0450 N   0  0  0  0  0  0  0  0  0  0  0  0
   10.1697  -15.5390   19.3981 C   0  0  1  0  0  0  0  0  0  0  0  0
    8.7876  -15.3650   19.9604 C   0  0  0  0  0  0  0  0  0  0  0  0
    7.9610  -14.4100   19.2176 C   0  0  0  0  0  0  0  0  0  0  0  0
    7.8431  -13.0667   19.4781 C   0  0  0  0  0  0  0  0  0  0  0  0
    6.9928  -12.5520   18.5696 N   0  0  0  0  0  0  0  0  0  0  0  0
    6.5733  -13.5347   17.7459 C   0  0  0  0  0  0  0  0  0  0  0  0
    7.1835  -14.6835   18.1611 N   0  0  0  0  0  0  0  0  0  0  0  0
   10.9023  -16.5000   20.2924 C   0  0  0  0  0  0  0  0  0  0  0  0
   11.3266  -17.5956   19.8454 O   0  0  0  0  0  0  0  0  0  0  0  0
   15.8349  -14.4595   20.0571 N   0  0  0  0  0  0  0  0  0  0  0  0
   16.0236  -15.3710   21.1571 C   0  0  0  0  0  0  0  0  0  0  0  0
   17.2119  -15.6738   21.3856 O   0  0  0  0  0  0  0  0  0  0  0  0
   14.9304  -15.8979   21.9353 C   0  0  0  0  0  0  0  0  0  0  0  0
   13.5426  -15.8044   21.4674 C   0  0  0  0  0  0  0  0  0  0  0  0
   12.4582  -16.3959   22.2838 C   0  0  2  0  0  0  0  0  0  0  0  0
   11.1455  -16.2195   21.6639 N   0  0  0  0  0  0  0  0  0  0  0  0
   12.3870  -16.0135   23.6828 C   0  0  0  0  0  0  0  0  0  0  0  0
   13.2577  -16.5689   24.6016 O   0  0  0  0  0  0  0  0  0  0  0  0
   11.5470  -15.1742   24.1244 O   0  0  0  0  0  0  0  0  0  0  0  0
  2  4  1  0
  2  1  1  0
  3  2  2  0
  5  4  1  0
  5  6  1  1
  7  8  2  0
  7  5  1  0
  9  7  1  0
 10  9  1  0
 11 12  1  0
 10 11  1  1
 12 13  2  0
 12 16  1  0
 13 14  1  0
 14 15  1  0
 16 15  2  0
 17 18  2  0
 17 10  1  0
 20 19  1  0
 21 20  2  0
 22 20  1  0
 23 22  1  0
 24 23  1  6
 24 25  1  0
 25 17  1  0
 26 24  1  0
 27 26  1  0
 28 26  2  0
M  END
$$$$
