NHQ.pdb
     RDKit          3D

 28 28  0  0  1  0  0  0  0  0999 V2000
    7.7817  -15.9373   18.4794 N   0  0  0  0  0  0  0  0  0  0  0  0
    8.4477  -14.7872   18.9782 C   0  0  0  0  0  0  0  0  0  0  0  0
    8.7494  -13.8060   18.2452 O   0  0  0  0  0  0  0  0  0  0  0  0
    8.7944  -14.7571   20.4222 C   0  0  0  0  0  0  0  0  0  0  0  0
    8.3919  -16.0379   21.1213 C   0  0  2  0  0  0  0  0  0  0  0  0
    6.9997  -16.3175   20.8526 N   0  0  0  0  0  0  0  0  0  0  0  0
    8.6475  -15.8391   22.5703 C   0  0  0  0  0  0  0  0  0  0  0  0
    9.7970  -15.5146   22.9590 O   0  0  0  0  0  0  0  0  0  0  0  0
    7.6409  -15.9999   23.5608 N   0  0  0  0  0  0  0  0  0  0  0  0
    7.8458  -15.9218   24.9753 C   0  0  1  0  0  0  0  0  0  0  0  0
    6.6640  -15.3695   25.7206 C   0  0  0  0  0  0  0  0  0  0  0  0
    6.5587  -13.9090   25.6669 C   0  0  0  0  0  0  0  0  0  0  0  0
    7.4954  -13.0478   25.1501 C   0  0  0  0  0  0  0  0  0  0  0  0
    7.0162  -11.7974   25.2914 N   0  0  0  0  0  0  0  0  0  0  0  0
    5.8046  -11.8492   25.8827 C   0  0  0  0  0  0  0  0  0  0  0  0
    5.5338  -13.1682   26.1100 N   0  0  0  0  0  0  0  0  0  0  0  0
    8.1395  -17.2831   25.5415 C   0  0  0  0  0  0  0  0  0  0  0  0
    7.5988  -18.3092   25.0570 O   0  0  0  0  0  0  0  0  0  0  0  0
   11.5343  -20.9804   23.7099 N   0  0  0  0  0  0  0  0  0  0  0  0
   12.0368  -19.7466   24.2589 C   0  0  0  0  0  0  0  0  0  0  0  0
   13.0920  -19.3347   23.7365 O   0  0  0  0  0  0  0  0  0  0  0  0
   11.3794  -19.0393   25.3293 C   0  0  0  0  0  0  0  0  0  0  0  0
   10.1250  -19.5285   25.9133 C   0  0  0  0  0  0  0  0  0  0  0  0
    9.5106  -18.7902   27.0401 C   0  0  2  0  0  0  0  0  0  0  0  0
    9.0281  -17.4707   26.6341 N   0  0  0  0  0  0  0  0  0  0  0  0
   10.2844  -18.6665   28.2625 C   0  0  0  0  0  0  0  0  0  0  0  0
   10.7519  -19.7959   28.9080 O   0  0  0  0  0  0  0  0  0  0  0  0
   10.5650  -17.5486   28.7886 O   0  0  0  0  0  0  0  0  0  0  0  0
  2  4  1  0
  2  1  1  0
  3  2  2  0
  5  4  1  0
  5  6  1  1
  7  8  2  0
  7  5  1  0
  9  7  1  0
 10  9  1  0
 11 12  1  0
 10 11  1  1
 12 13  2  0
 12 16  1  0
 13 14  1  0
 14 15  1  0
 16 15  2  0
 17 18  2  0
 17 10  1  0
 20 19  1  0
 21 20  2  0
 22 20  1  0
 23 22  1  0
 24 23  1  6
 24 25  1  0
 25 17  1  0
 26 24  1  0
 27 26  1  0
 28 26  2  0
M  END
$$$$
