NHQ.pdb
     RDKit          3D

 28 28  0  0  1  0  0  0  0  0999 V2000
    9.9070  -16.4507   13.3799 N   0  0  0  0  0  0  0  0  0  0  0  0
   10.9662  -16.8649   14.2294 C   0  0  0  0  0  0  0  0  0  0  0  0
   11.6310  -17.9167   14.0222 O   0  0  0  0  0  0  0  0  0  0  0  0
   11.2891  -16.0131   15.4026 C   0  0  0  0  0  0  0  0  0  0  0  0
   11.7218  -16.8414   16.5934 C   0  0  2  0  0  0  0  0  0  0  0  0
   11.0117  -18.1001   16.5895 N   0  0  0  0  0  0  0  0  0  0  0  0
   11.4246  -16.0413   17.8083 C   0  0  0  0  0  0  0  0  0  0  0  0
   12.0377  -14.9632   18.0069 O   0  0  0  0  0  0  0  0  0  0  0  0
   10.4642  -16.4383   18.7781 N   0  0  0  0  0  0  0  0  0  0  0  0
   10.2506  -15.8062   20.0445 C   0  0  1  0  0  0  0  0  0  0  0  0
    8.8026  -15.7306   20.4377 C   0  0  0  0  0  0  0  0  0  0  0  0
    8.0556  -14.6744   19.7497 C   0  0  0  0  0  0  0  0  0  0  0  0
    7.2861  -14.8291   18.6227 C   0  0  0  0  0  0  0  0  0  0  0  0
    6.7732  -13.6227   18.3148 N   0  0  0  0  0  0  0  0  0  0  0  0
    7.1993  -12.7146   19.2170 C   0  0  0  0  0  0  0  0  0  0  0  0
    7.9954  -13.3831   20.1024 N   0  0  0  0  0  0  0  0  0  0  0  0
   10.9749  -16.5482   21.1329 C   0  0  0  0  0  0  0  0  0  0  0  0
   11.3254  -17.7443   20.9699 O   0  0  0  0  0  0  0  0  0  0  0  0
   11.9832  -18.0322   27.3598 N   0  0  0  0  0  0  0  0  0  0  0  0
   12.3326  -16.6788   27.0098 C   0  0  0  0  0  0  0  0  0  0  0  0
   12.0304  -15.8239   27.8664 O   0  0  0  0  0  0  0  0  0  0  0  0
   12.9780  -16.3316   25.7683 C   0  0  0  0  0  0  0  0  0  0  0  0
   12.2167  -15.7989   24.6324 C   0  0  0  0  0  0  0  0  0  0  0  0
   11.9509  -16.6677   23.4633 C   0  0  2  0  0  0  0  0  0  0  0  0
   11.2923  -15.9417   22.3780 N   0  0  0  0  0  0  0  0  0  0  0  0
   11.2521  -17.9180   23.7017 C   0  0  0  0  0  0  0  0  0  0  0  0
   11.9637  -19.0792   23.9385 O   0  0  0  0  0  0  0  0  0  0  0  0
    9.9885  -18.0097   23.7057 O   0  0  0  0  0  0  0  0  0  0  0  0
  2  4  1  0
  2  1  1  0
  3  2  2  0
  5  4  1  0
  5  6  1  1
  7  8  2  0
  7  5  1  0
  9  7  1  0
 10  9  1  0
 11 12  1  0
 10 11  1  1
 12 13  2  0
 12 16  1  0
 13 14  1  0
 14 15  1  0
 16 15  2  0
 17 18  2  0
 17 10  1  0
 20 19  1  0
 21 20  2  0
 22 20  1  0
 23 22  1  0
 24 23  1  1
 24 25  1  0
 25 17  1  0
 26 24  1  0
 27 26  1  0
 28 26  2  0
M  END
$$$$
