NHQ.pdb
     RDKit          3D

 28 28  0  0  1  0  0  0  0  0999 V2000
   16.0947  -14.2279   17.2951 N   0  0  0  0  0  0  0  0  0  0  0  0
   14.7163  -14.1469   16.9655 C   0  0  0  0  0  0  0  0  0  0  0  0
   14.2976  -14.2099   15.7773 O   0  0  0  0  0  0  0  0  0  0  0  0
   13.7450  -13.9816   18.0770 C   0  0  0  0  0  0  0  0  0  0  0  0
   13.4684  -15.2940   18.7784 C   0  0  2  0  0  0  0  0  0  0  0  0
   12.8773  -16.2253   17.8446 N   0  0  0  0  0  0  0  0  0  0  0  0
   12.5590  -14.9952   19.9135 C   0  0  0  0  0  0  0  0  0  0  0  0
   12.9305  -14.2026   20.8143 O   0  0  0  0  0  0  0  0  0  0  0  0
   11.2649  -15.5697   20.0377 N   0  0  0  0  0  0  0  0  0  0  0  0
   10.3556  -15.3453   21.1201 C   0  0  1  0  0  0  0  0  0  0  0  0
    8.9211  -15.2472   20.6848 C   0  0  0  0  0  0  0  0  0  0  0  0
    8.6952  -14.2909   19.5978 C   0  0  0  0  0  0  0  0  0  0  0  0
    8.4191  -12.9532   19.7402 C   0  0  0  0  0  0  0  0  0  0  0  0
    8.2827  -12.4349   18.5048 N   0  0  0  0  0  0  0  0  0  0  0  0
    8.4654  -13.4100   17.5905 C   0  0  0  0  0  0  0  0  0  0  0  0
    8.7209  -14.5577   18.2849 N   0  0  0  0  0  0  0  0  0  0  0  0
   10.4464  -16.4601   22.1246 C   0  0  0  0  0  0  0  0  0  0  0  0
   10.9591  -17.5644   21.8123 O   0  0  0  0  0  0  0  0  0  0  0  0
   12.6938  -20.2009   24.0732 N   0  0  0  0  0  0  0  0  0  0  0  0
   12.8176  -19.5750   25.3652 C   0  0  0  0  0  0  0  0  0  0  0  0
   13.2265  -20.3273   26.2723 O   0  0  0  0  0  0  0  0  0  0  0  0
   12.4940  -18.1899   25.5997 C   0  0  0  0  0  0  0  0  0  0  0  0
   11.8750  -17.3613   24.5585 C   0  0  0  0  0  0  0  0  0  0  0  0
   10.4050  -17.1845   24.5476 C   0  0  2  0  0  0  0  0  0  0  0  0
    9.9640  -16.3199   23.4537 N   0  0  0  0  0  0  0  0  0  0  0  0
    9.7711  -16.7612   25.7835 C   0  0  0  0  0  0  0  0  0  0  0  0
    9.0332  -15.5930   25.8229 O   0  0  0  0  0  0  0  0  0  0  0  0
    9.8574  -17.4208   26.8617 O   0  0  0  0  0  0  0  0  0  0  0  0
  2  4  1  0
  2  1  1  0
  3  2  2  0
  5  4  1  0
  5  6  1  6
  7  8  2  0
  7  5  1  0
  9  7  1  0
 10  9  1  0
 11 12  1  0
 10 11  1  6
 12 13  2  0
 12 16  1  0
 13 14  1  0
 14 15  1  0
 16 15  2  0
 17 18  2  0
 17 10  1  0
 20 19  1  0
 21 20  2  0
 22 20  1  0
 23 22  1  0
 24 23  1  1
 24 25  1  0
 25 17  1  0
 26 24  1  0
 27 26  1  0
 28 26  2  0
M  END
$$$$
