NHQ.pdb
     RDKit          3D

 28 28  0  0  1  0  0  0  0  0999 V2000
    6.0139  -21.1586   14.7486 N   0  0  0  0  0  0  0  0  0  0  0  0
    7.0331  -21.1985   15.7359 C   0  0  0  0  0  0  0  0  0  0  0  0
    7.4460  -22.2774   16.2423 O   0  0  0  0  0  0  0  0  0  0  0  0
    7.6236  -19.9088   16.1769 C   0  0  0  0  0  0  0  0  0  0  0  0
    8.0028  -19.9388   17.6419 C   0  0  2  0  0  0  0  0  0  0  0  0
    6.8425  -20.2778   18.4340 N   0  0  0  0  0  0  0  0  0  0  0  0
    8.5307  -18.5929   17.9802 C   0  0  0  0  0  0  0  0  0  0  0  0
    9.5224  -18.1403   17.3563 O   0  0  0  0  0  0  0  0  0  0  0  0
    7.9623  -17.7730   18.9927 N   0  0  0  0  0  0  0  0  0  0  0  0
    8.4273  -16.4723   19.3681 C   0  0  1  0  0  0  0  0  0  0  0  0
    7.3310  -15.4491   19.4587 C   0  0  0  0  0  0  0  0  0  0  0  0
    7.7969  -14.1129   19.8391 C   0  0  0  0  0  0  0  0  0  0  0  0
    7.3795  -13.3896   20.9294 C   0  0  0  0  0  0  0  0  0  0  0  0
    8.0484  -12.2210   20.9193 N   0  0  0  0  0  0  0  0  0  0  0  0
    8.8743  -12.1902   19.8528 C   0  0  0  0  0  0  0  0  0  0  0  0
    8.7067  -13.3728   19.1911 N   0  0  0  0  0  0  0  0  0  0  0  0
    9.1087  -16.5223   20.7072 C   0  0  0  0  0  0  0  0  0  0  0  0
    8.4971  -16.9404   21.7226 O   0  0  0  0  0  0  0  0  0  0  0  0
    9.8922  -19.3248   24.8304 N   0  0  0  0  0  0  0  0  0  0  0  0
   11.2568  -18.8636   24.8702 C   0  0  0  0  0  0  0  0  0  0  0  0
   11.8803  -19.1683   25.9067 O   0  0  0  0  0  0  0  0  0  0  0  0
   11.8602  -18.1067   23.8019 C   0  0  0  0  0  0  0  0  0  0  0  0
   11.0888  -17.6988   22.6219 C   0  0  0  0  0  0  0  0  0  0  0  0
   11.1824  -16.3025   22.1385 C   0  0  2  0  0  0  0  0  0  0  0  0
   10.4553  -16.1053   20.8852 N   0  0  0  0  0  0  0  0  0  0  0  0
   12.5074  -15.7192   22.0252 C   0  0  0  0  0  0  0  0  0  0  0  0
   13.0746  -15.5162   20.7811 O   0  0  0  0  0  0  0  0  0  0  0  0
   13.1955  -15.3747   23.0316 O   0  0  0  0  0  0  0  0  0  0  0  0
  2  4  1  0
  2  1  1  0
  3  2  2  0
  5  4  1  0
  5  6  1  1
  7  8  2  0
  7  5  1  0
  9  7  1  0
 10  9  1  0
 11 12  1  0
 10 11  1  1
 12 13  2  0
 12 16  1  0
 13 14  1  0
 14 15  1  0
 16 15  2  0
 17 18  2  0
 17 10  1  0
 20 19  1  0
 21 20  2  0
 22 20  1  0
 23 22  1  0
 24 23  1  6
 24 25  1  0
 25 17  1  0
 26 24  1  0
 27 26  1  0
 28 26  2  0
M  END
$$$$
