NHQ.pdb
     RDKit          3D

 28 28  0  0  1  0  0  0  0  0999 V2000
    6.8525  -12.6135   16.3080 N   0  0  0  0  0  0  0  0  0  0  0  0
    6.8633  -13.9227   15.7594 C   0  0  0  0  0  0  0  0  0  0  0  0
    6.1261  -14.2601   14.7931 O   0  0  0  0  0  0  0  0  0  0  0  0
    7.7855  -14.9200   16.3606 C   0  0  0  0  0  0  0  0  0  0  0  0
    8.5532  -14.3395   17.5288 C   0  0  2  0  0  0  0  0  0  0  0  0
    9.6895  -13.5941   17.0371 N   0  0  0  0  0  0  0  0  0  0  0  0
    8.9671  -15.4800   18.3846 C   0  0  0  0  0  0  0  0  0  0  0  0
    8.0922  -16.2267   18.8895 O   0  0  0  0  0  0  0  0  0  0  0  0
   10.3275  -15.7779   18.6689 N   0  0  0  0  0  0  0  0  0  0  0  0
   10.7930  -16.9028   19.4217 C   0  0  1  0  0  0  0  0  0  0  0  0
   11.6583  -17.8378   18.6256 C   0  0  0  0  0  0  0  0  0  0  0  0
   10.9191  -18.6465   17.6527 C   0  0  0  0  0  0  0  0  0  0  0  0
   10.9109  -18.4685   16.2909 C   0  0  0  0  0  0  0  0  0  0  0  0
   10.1127  -19.4165   15.7642 N   0  0  0  0  0  0  0  0  0  0  0  0
    9.6193  -20.1850   16.7573 C   0  0  0  0  0  0  0  0  0  0  0  0
   10.1293  -19.6942   17.9251 N   0  0  0  0  0  0  0  0  0  0  0  0
   11.5950  -16.4474   20.6089 C   0  0  0  0  0  0  0  0  0  0  0  0
   12.4886  -15.5726   20.4814 O   0  0  0  0  0  0  0  0  0  0  0  0
    9.7878  -17.3131   26.8187 N   0  0  0  0  0  0  0  0  0  0  0  0
    9.3530  -16.3769   25.8133 C   0  0  0  0  0  0  0  0  0  0  0  0
    8.2735  -15.8050   26.0651 O   0  0  0  0  0  0  0  0  0  0  0  0
   10.0997  -16.1180   24.6075 C   0  0  0  0  0  0  0  0  0  0  0  0
   11.3817  -16.7818   24.3434 C   0  0  0  0  0  0  0  0  0  0  0  0
   12.1063  -16.4904   23.0856 C   0  0  2  0  0  0  0  0  0  0  0  0
   11.3841  -16.9765   21.9105 N   0  0  0  0  0  0  0  0  0  0  0  0
   13.4967  -16.9006   23.0018 C   0  0  0  0  0  0  0  0  0  0  0  0
   14.5000  -16.0521   23.4309 O   0  0  0  0  0  0  0  0  0  0  0  0
   13.8552  -18.0262   22.5441 O   0  0  0  0  0  0  0  0  0  0  0  0
  2  4  1  0
  2  1  1  0
  3  2  2  0
  5  4  1  0
  5  6  1  6
  7  8  2  0
  7  5  1  0
  9  7  1  0
 10  9  1  0
 11 12  1  0
 10 11  1  6
 12 13  2  0
 12 16  1  0
 13 14  1  0
 14 15  1  0
 16 15  2  0
 17 18  2  0
 17 10  1  0
 20 19  1  0
 21 20  2  0
 22 20  1  0
 23 22  1  0
 24 23  1  1
 24 25  1  0
 25 17  1  0
 26 24  1  0
 27 26  1  0
 28 26  2  0
M  END
$$$$
