IDS.pdb
     RDKit          3D

 23 22  0  0  1  0  0  0  0  0999 V2000
   27.4522  -14.2756  -15.3229 C   0  0  0  0  0  0  0  0  0  0  0  0
   25.9619  -14.2558  -15.4638 C   0  0  0  0  0  0  0  0  0  0  0  0
   25.3602  -12.8993  -15.7059 C   0  0  2  0  0  0  0  0  0  0  0  0
   25.8304  -11.9065  -14.6569 C   0  0  0  0  0  0  0  0  0  0  0  0
   23.8893  -12.9452  -15.8322 C   0  0  2  0  0  0  0  0  0  0  0  0
   23.5111  -13.9947  -16.7819 N   0  0  0  0  0  0  0  0  0  0  0  0
   23.2642  -11.6439  -16.2827 C   0  0  0  0  0  0  0  0  0  0  0  0
   23.5376  -11.2256  -17.4124 O   0  0  0  0  0  0  0  0  0  0  0  0
   22.3956  -10.9153  -15.4600 N   0  0  0  0  0  0  0  0  0  0  0  0
   21.6082   -9.7453  -15.7088 C   0  0  1  0  0  0  0  0  0  0  0  0
   20.1408   -9.8399  -15.6343 C   0  0  0  0  0  0  0  0  0  0  0  0
   19.5021  -11.0616  -16.1413 C   0  0  0  0  0  0  0  0  0  0  0  0
   19.7841  -11.4661  -17.3134 O   0  0  0  0  0  0  0  0  0  0  0  0
   22.2223   -8.5129  -15.2526 C   0  0  0  0  0  0  0  0  0  0  0  0
   22.3838   -8.3408  -14.0017 O   0  0  0  0  0  0  0  0  0  0  0  0
   18.6066  -11.8076  -15.4224 O   0  0  0  0  0  0  0  0  0  0  0  0
   24.3069   -4.2032  -16.1259 O   0  0  0  0  0  0  0  0  0  0  0  0
   23.6492   -5.2829  -16.7051 C   0  0  0  0  0  0  0  0  0  0  0  0
   23.1956   -6.2144  -15.6116 C   0  0  2  0  0  0  0  0  0  0  0  0
   22.6644   -7.4636  -16.0958 N   0  0  0  0  0  0  0  0  0  0  0  0
   22.2133   -5.5301  -14.7683 C   0  0  0  0  0  0  0  0  0  0  0  0
   20.8713   -5.5715  -15.1009 O   0  0  0  0  0  0  0  0  0  0  0  0
   22.5254   -4.8900  -13.7328 O   0  0  0  0  0  0  0  0  0  0  0  0
  2  1  1  0
  3  2  1  0
  3  4  1  1
  5  7  1  0
  5  6  1  6
  5  3  1  0
  7  8  2  0
  9  7  1  0
  9 10  1  0
 10 14  1  0
 10 11  1  1
 12 13  2  0
 12 11  1  0
 14 15  2  0
 14 20  1  0
 16 12  1  0
 17 18  1  0
 19 18  1  6
 19 21  1  0
 20 19  1  0
 21 23  2  0
 21 22  1  0
M  END
$$$$
