IDS.pdb
     RDKit          3D

 23 22  0  0  1  0  0  0  0  0999 V2000
   27.3566  -14.6897  -15.2117 C   0  0  0  0  0  0  0  0  0  0  0  0
   25.8843  -14.9171  -15.3602 C   0  0  0  0  0  0  0  0  0  0  0  0
   25.0929  -13.7172  -15.8014 C   0  0  2  0  0  0  0  0  0  0  0  0
   25.2870  -12.5598  -14.8371 C   0  0  0  0  0  0  0  0  0  0  0  0
   23.6696  -14.0321  -16.0390 C   0  0  2  0  0  0  0  0  0  0  0  0
   23.5656  -15.1947  -16.9244 N   0  0  0  0  0  0  0  0  0  0  0  0
   22.8755  -12.8965  -16.6447 C   0  0  0  0  0  0  0  0  0  0  0  0
   23.0521  -12.6327  -17.8385 O   0  0  0  0  0  0  0  0  0  0  0  0
   21.9586  -12.1502  -15.8933 N   0  0  0  0  0  0  0  0  0  0  0  0
   21.0889  -11.0712  -16.2538 C   0  0  1  0  0  0  0  0  0  0  0  0
   19.6585  -11.3452  -16.4696 C   0  0  0  0  0  0  0  0  0  0  0  0
   19.2864  -12.6312  -17.0739 C   0  0  0  0  0  0  0  0  0  0  0  0
   19.5762  -12.8487  -18.2928 O   0  0  0  0  0  0  0  0  0  0  0  0
   21.4421   -9.8012  -15.6483 C   0  0  0  0  0  0  0  0  0  0  0  0
   21.5798   -9.7479  -14.3839 O   0  0  0  0  0  0  0  0  0  0  0  0
   18.6362  -13.6301  -16.3994 O   0  0  0  0  0  0  0  0  0  0  0  0
   21.7297   -6.1776  -17.7471 O   0  0  0  0  0  0  0  0  0  0  0  0
   22.6276   -6.3510  -16.6994 C   0  0  0  0  0  0  0  0  0  0  0  0
   22.0549   -7.3566  -15.7350 C   0  0  2  0  0  0  0  0  0  0  0  0
   21.6488   -8.5917  -16.3568 N   0  0  0  0  0  0  0  0  0  0  0  0
   20.9342   -6.7517  -15.0123 C   0  0  0  0  0  0  0  0  0  0  0  0
   21.1489   -5.6489  -14.2054 O   0  0  0  0  0  0  0  0  0  0  0  0
   19.7573   -7.1869  -15.0830 O   0  0  0  0  0  0  0  0  0  0  0  0
  2  1  1  0
  3  2  1  0
  3  4  1  1
  5  7  1  0
  5  6  1  6
  5  3  1  0
  7  8  2  0
  9  7  1  0
  9 10  1  0
 10 14  1  0
 10 11  1  1
 12 13  2  0
 12 11  1  0
 14 15  2  0
 14 20  1  0
 16 12  1  0
 17 18  1  0
 19 18  1  6
 19 21  1  0
 20 19  1  0
 21 23  2  0
 21 22  1  0
M  END
$$$$
