IDS.pdb
     RDKit          3D

 23 22  0  0  1  0  0  0  0  0999 V2000
   16.4048  -13.0015  -14.1306 C   0  0  0  0  0  0  0  0  0  0  0  0
   17.1007  -12.6343  -15.4042 C   0  0  0  0  0  0  0  0  0  0  0  0
   17.9633  -11.4050  -15.3306 C   0  0  2  0  0  0  0  0  0  0  0  0
   17.1706  -10.2216  -14.8031 C   0  0  0  0  0  0  0  0  0  0  0  0
   18.6462  -11.1135  -16.6074 C   0  0  2  0  0  0  0  0  0  0  0  0
   19.4156  -12.2860  -17.0310 N   0  0  0  0  0  0  0  0  0  0  0  0
   19.5773   -9.9229  -16.5554 C   0  0  0  0  0  0  0  0  0  0  0  0
   20.6903  -10.0747  -16.0413 O   0  0  0  0  0  0  0  0  0  0  0  0
   19.2109   -8.6727  -17.0700 N   0  0  0  0  0  0  0  0  0  0  0  0
   19.9309   -7.4392  -17.1738 C   0  0  1  0  0  0  0  0  0  0  0  0
   19.8645   -6.6742  -18.4300 C   0  0  0  0  0  0  0  0  0  0  0  0
   20.0113   -7.4091  -19.6933 C   0  0  0  0  0  0  0  0  0  0  0  0
   20.9492   -8.2600  -19.8084 O   0  0  0  0  0  0  0  0  0  0  0  0
   19.9929   -6.6864  -15.9355 C   0  0  0  0  0  0  0  0  0  0  0  0
   18.9024   -6.3840  -15.3524 O   0  0  0  0  0  0  0  0  0  0  0  0
   19.1900   -7.2357  -20.7753 O   0  0  0  0  0  0  0  0  0  0  0  0
   21.2963   -7.2176  -12.5428 O   0  0  0  0  0  0  0  0  0  0  0  0
   21.9889   -6.0933  -12.9788 C   0  0  0  0  0  0  0  0  0  0  0  0
   21.2158   -5.4571  -14.1044 C   0  0  2  0  0  0  0  0  0  0  0  0
   21.1858   -6.2487  -15.3084 N   0  0  0  0  0  0  0  0  0  0  0  0
   21.7630   -4.1265  -14.3771 C   0  0  0  0  0  0  0  0  0  0  0  0
   21.7527   -3.1607  -13.3869 O   0  0  0  0  0  0  0  0  0  0  0  0
   22.2541   -3.8010  -15.4871 O   0  0  0  0  0  0  0  0  0  0  0  0
  2  1  1  0
  3  2  1  0
  3  4  1  6
  5  7  1  0
  5  6  1  1
  5  3  1  0
  7  8  2  0
  9  7  1  0
  9 10  1  0
 10 14  1  0
 10 11  1  6
 12 13  2  0
 12 11  1  0
 14 15  2  0
 14 20  1  0
 16 12  1  0
 17 18  1  0
 19 18  1  1
 19 21  1  0
 20 19  1  0
 21 23  2  0
 21 22  1  0
M  END
$$$$
