IDS.pdb
     RDKit          3D

 23 22  0  0  1  0  0  0  0  0999 V2000
   17.4014  -15.9017  -16.5354 C   0  0  0  0  0  0  0  0  0  0  0  0
   17.4221  -14.6207  -15.7609 C   0  0  0  0  0  0  0  0  0  0  0  0
   18.2646  -13.5267  -16.3561 C   0  0  2  0  0  0  0  0  0  0  0  0
   19.7317  -13.9196  -16.3622 C   0  0  0  0  0  0  0  0  0  0  0  0
   18.0254  -12.2158  -15.7191 C   0  0  2  0  0  0  0  0  0  0  0  0
   16.5853  -11.9519  -15.6656 N   0  0  0  0  0  0  0  0  0  0  0  0
   18.6994  -11.0551  -16.4158 C   0  0  0  0  0  0  0  0  0  0  0  0
   19.4244  -11.2982  -17.3860 O   0  0  0  0  0  0  0  0  0  0  0  0
   18.5214   -9.7319  -15.9918 N   0  0  0  0  0  0  0  0  0  0  0  0
   19.0483   -8.4959  -16.4870 C   0  0  1  0  0  0  0  0  0  0  0  0
   18.5115   -7.9386  -17.7396 C   0  0  0  0  0  0  0  0  0  0  0  0
   19.0274   -6.6404  -18.1934 C   0  0  0  0  0  0  0  0  0  0  0  0
   20.0889   -6.6070  -18.8928 O   0  0  0  0  0  0  0  0  0  0  0  0
   19.4291   -7.5583  -15.4477 C   0  0  0  0  0  0  0  0  0  0  0  0
   18.5528   -7.2096  -14.5927 O   0  0  0  0  0  0  0  0  0  0  0  0
   18.4303   -5.4414  -17.9082 O   0  0  0  0  0  0  0  0  0  0  0  0
   22.7323   -5.2415  -12.8057 O   0  0  0  0  0  0  0  0  0  0  0  0
   22.5378   -6.0279  -13.9361 C   0  0  0  0  0  0  0  0  0  0  0  0
   21.0665   -6.0539  -14.2582 C   0  0  2  0  0  0  0  0  0  0  0  0
   20.7165   -6.9851  -15.3010 N   0  0  0  0  0  0  0  0  0  0  0  0
   20.6222   -4.7024  -14.6051 C   0  0  0  0  0  0  0  0  0  0  0  0
   21.0401   -4.1219  -15.7890 O   0  0  0  0  0  0  0  0  0  0  0  0
   19.8638   -4.0200  -13.8712 O   0  0  0  0  0  0  0  0  0  0  0  0
  2  1  1  0
  3  2  1  0
  3  4  1  1
  5  7  1  0
  5  6  1  6
  5  3  1  0
  7  8  2  0
  9  7  1  0
  9 10  1  0
 10 14  1  0
 10 11  1  6
 12 13  2  0
 12 11  1  0
 14 15  2  0
 14 20  1  0
 16 12  1  0
 17 18  1  0
 19 18  1  6
 19 21  1  0
 20 19  1  0
 21 23  2  0
 21 22  1  0
M  END
$$$$
