IDS.pdb
     RDKit          3D

 23 22  0  0  1  0  0  0  0  0999 V2000
   27.6642  -15.9455  -16.4523 C   0  0  0  0  0  0  0  0  0  0  0  0
   26.4442  -15.6891  -15.6233 C   0  0  0  0  0  0  0  0  0  0  0  0
   25.6622  -14.4609  -15.9985 C   0  0  2  0  0  0  0  0  0  0  0  0
   26.5407  -13.2234  -15.9369 C   0  0  0  0  0  0  0  0  0  0  0  0
   24.4178  -14.3193  -15.2157 C   0  0  2  0  0  0  0  0  0  0  0  0
   23.7227  -15.6078  -15.1620 N   0  0  0  0  0  0  0  0  0  0  0  0
   23.4600  -13.2807  -15.7553 C   0  0  0  0  0  0  0  0  0  0  0  0
   23.8341  -12.5762  -16.6985 O   0  0  0  0  0  0  0  0  0  0  0  0
   22.1786  -13.1042  -15.2176 N   0  0  0  0  0  0  0  0  0  0  0  0
   21.1402  -12.1667  -15.5233 C   0  0  1  0  0  0  0  0  0  0  0  0
   19.7351  -12.5916  -15.4105 C   0  0  0  0  0  0  0  0  0  0  0  0
   18.6906  -11.6161  -15.7495 C   0  0  0  0  0  0  0  0  0  0  0  0
   18.9852  -10.6280  -16.4937 O   0  0  0  0  0  0  0  0  0  0  0  0
   21.4556  -10.7980  -15.1605 C   0  0  0  0  0  0  0  0  0  0  0  0
   21.8144  -10.5535  -13.9639 O   0  0  0  0  0  0  0  0  0  0  0  0
   17.3966  -11.7015  -15.3093 O   0  0  0  0  0  0  0  0  0  0  0  0
   22.9613   -6.4041  -16.3001 O   0  0  0  0  0  0  0  0  0  0  0  0
   22.4049   -7.5716  -16.8113 C   0  0  0  0  0  0  0  0  0  0  0  0
   21.7966   -8.3532  -15.6762 C   0  0  2  0  0  0  0  0  0  0  0  0
   21.3954   -9.6888  -16.0401 N   0  0  0  0  0  0  0  0  0  0  0  0
   20.6627   -7.6072  -15.1267 C   0  0  0  0  0  0  0  0  0  0  0  0
   20.8780   -6.6313  -14.1703 O   0  0  0  0  0  0  0  0  0  0  0  0
   19.4737   -7.8065  -15.4814 O   0  0  0  0  0  0  0  0  0  0  0  0
  2  1  1  0
  3  2  1  0
  3  4  1  1
  5  7  1  0
  5  6  1  6
  5  3  1  0
  7  8  2  0
  9  7  1  0
  9 10  1  0
 10 14  1  0
 10 11  1  1
 12 13  2  0
 12 11  1  0
 14 15  2  0
 14 20  1  0
 16 12  1  0
 17 18  1  0
 19 18  1  6
 19 21  1  0
 20 19  1  0
 21 23  2  0
 21 22  1  0
M  END
$$$$
