IDS.pdb
     RDKit          3D

 23 22  0  0  1  0  0  0  0  0999 V2000
   29.6189  -18.3157   -4.3432 C   0  0  0  0  0  0  0  0  0  0  0  0
   28.6137  -19.4250   -4.3236 C   0  0  0  0  0  0  0  0  0  0  0  0
   28.5364  -20.2407   -5.5843 C   0  0  2  0  0  0  0  0  0  0  0  0
   29.8727  -20.8979   -5.8833 C   0  0  0  0  0  0  0  0  0  0  0  0
   28.0090  -19.4692   -6.7281 C   0  0  2  0  0  0  0  0  0  0  0  0
   26.8709  -18.6577   -6.2894 N   0  0  0  0  0  0  0  0  0  0  0  0
   27.5684  -20.3186   -7.8992 C   0  0  0  0  0  0  0  0  0  0  0  0
   28.3463  -21.1811   -8.3198 O   0  0  0  0  0  0  0  0  0  0  0  0
   26.3172  -20.1514   -8.5064 N   0  0  0  0  0  0  0  0  0  0  0  0
   25.7210  -20.7830   -9.6450 C   0  0  1  0  0  0  0  0  0  0  0  0
   24.2972  -21.1544   -9.5948 C   0  0  0  0  0  0  0  0  0  0  0  0
   23.6665  -21.2909   -8.2753 C   0  0  0  0  0  0  0  0  0  0  0  0
   22.8083  -20.4276   -7.9077 O   0  0  0  0  0  0  0  0  0  0  0  0
   26.2477  -20.3253  -10.9167 C   0  0  0  0  0  0  0  0  0  0  0  0
   26.3087  -19.0725  -11.1340 O   0  0  0  0  0  0  0  0  0  0  0  0
   23.9463  -22.3049   -7.3985 O   0  0  0  0  0  0  0  0  0  0  0  0
   29.3154  -21.7864  -13.1097 O   0  0  0  0  0  0  0  0  0  0  0  0
   28.1700  -21.6535  -13.8872 C   0  0  0  0  0  0  0  0  0  0  0  0
   27.2361  -20.6858  -13.2086 C   0  0  2  0  0  0  0  0  0  0  0  0
   26.7070  -21.1692  -11.9582 N   0  0  0  0  0  0  0  0  0  0  0  0
   26.1497  -20.3361  -14.1260 C   0  0  0  0  0  0  0  0  0  0  0  0
   26.4245  -19.6271  -15.2815 O   0  0  0  0  0  0  0  0  0  0  0  0
   24.9503  -20.6498  -13.9202 O   0  0  0  0  0  0  0  0  0  0  0  0
  2  1  1  0
  3  2  1  0
  3  4  1  6
  5  7  1  0
  5  6  1  1
  5  3  1  0
  7  8  2  0
  9  7  1  0
  9 10  1  0
 10 14  1  0
 10 11  1  6
 12 13  2  0
 12 11  1  0
 14 15  2  0
 14 20  1  0
 16 12  1  0
 17 18  1  0
 19 18  1  6
 19 21  1  0
 20 19  1  0
 21 23  2  0
 21 22  1  0
M  END
$$$$
