IDS.pdb
     RDKit          3D

 23 22  0  0  1  0  0  0  0  0999 V2000
   11.3615  -13.9305  -11.5021 C   0  0  0  0  0  0  0  0  0  0  0  0
   12.7028  -13.7000  -12.1259 C   0  0  0  0  0  0  0  0  0  0  0  0
   13.5328  -12.6256  -11.4797 C   0  0  2  0  0  0  0  0  0  0  0  0
   12.7460  -11.3313  -11.3678 C   0  0  0  0  0  0  0  0  0  0  0  0
   14.8415  -12.4450  -12.1402 C   0  0  2  0  0  0  0  0  0  0  0  0
   15.5816  -13.7092  -12.1164 N   0  0  0  0  0  0  0  0  0  0  0  0
   15.7071  -11.3716  -11.5193 C   0  0  0  0  0  0  0  0  0  0  0  0
   16.1992  -11.5896  -10.4074 O   0  0  0  0  0  0  0  0  0  0  0  0
   15.9592  -10.1558  -12.1679 N   0  0  0  0  0  0  0  0  0  0  0  0
   16.6700   -8.9850  -11.7502 C   0  0  1  0  0  0  0  0  0  0  0  0
   17.7606   -8.4695  -12.5944 C   0  0  0  0  0  0  0  0  0  0  0  0
   18.4291   -7.2302  -12.1762 C   0  0  0  0  0  0  0  0  0  0  0  0
   18.9009   -7.1492  -10.9982 O   0  0  0  0  0  0  0  0  0  0  0  0
   15.8489   -8.0138  -11.0525 C   0  0  0  0  0  0  0  0  0  0  0  0
   14.9136   -7.4357  -11.6939 O   0  0  0  0  0  0  0  0  0  0  0  0
   18.5809   -6.1361  -12.9857 O   0  0  0  0  0  0  0  0  0  0  0  0
   14.2555   -5.7889   -7.0759 O   0  0  0  0  0  0  0  0  0  0  0  0
   15.1048   -6.7763   -7.5636 C   0  0  0  0  0  0  0  0  0  0  0  0
   15.2425   -6.6012   -9.0534 C   0  0  2  0  0  0  0  0  0  0  0  0
   16.0029   -7.6451   -9.6931 N   0  0  0  0  0  0  0  0  0  0  0  0
   15.8305   -5.2900   -9.3353 C   0  0  0  0  0  0  0  0  0  0  0  0
   15.1084   -4.1398   -9.0726 O   0  0  0  0  0  0  0  0  0  0  0  0
   16.9827   -5.1437   -9.8150 O   0  0  0  0  0  0  0  0  0  0  0  0
  2  1  1  0
  3  2  1  0
  3  4  1  6
  5  7  1  0
  5  6  1  1
  5  3  1  0
  7  8  2  0
  9  7  1  0
  9 10  1  0
 10 14  1  0
 10 11  1  6
 12 13  2  0
 12 11  1  0
 14 15  2  0
 14 20  1  0
 16 12  1  0
 17 18  1  0
 19 18  1  1
 19 21  1  0
 20 19  1  0
 21 23  2  0
 21 22  1  0
M  END
$$$$
