IDS.pdb
     RDKit          3D

 23 22  0  0  1  0  0  0  0  0999 V2000
   18.8520  -13.9445  -16.0110 C   0  0  0  0  0  0  0  0  0  0  0  0
   19.0928  -12.6363  -16.6980 C   0  0  0  0  0  0  0  0  0  0  0  0
   18.8887  -11.4171  -15.8422 C   0  0  2  0  0  0  0  0  0  0  0  0
   17.5089  -11.4297  -15.2072 C   0  0  0  0  0  0  0  0  0  0  0  0
   19.1748  -10.1615  -16.5655 C   0  0  2  0  0  0  0  0  0  0  0  0
   20.4980  -10.2451  -17.1887 N   0  0  0  0  0  0  0  0  0  0  0  0
   19.1308   -8.9225  -15.6994 C   0  0  0  0  0  0  0  0  0  0  0  0
   18.0931   -8.6855  -15.0724 O   0  0  0  0  0  0  0  0  0  0  0  0
   20.2239   -8.0529  -15.5942 N   0  0  0  0  0  0  0  0  0  0  0  0
   20.3904   -6.8158  -14.8924 C   0  0  1  0  0  0  0  0  0  0  0  0
   21.6355   -6.5790  -14.1430 C   0  0  0  0  0  0  0  0  0  0  0  0
   21.7367   -5.3500  -13.3451 C   0  0  0  0  0  0  0  0  0  0  0  0
   20.6964   -4.6406  -13.1673 O   0  0  0  0  0  0  0  0  0  0  0  0
   19.7804   -5.6768  -15.5516 C   0  0  0  0  0  0  0  0  0  0  0  0
   20.1901   -5.3554  -16.7132 O   0  0  0  0  0  0  0  0  0  0  0  0
   22.8984   -4.9090  -12.7694 O   0  0  0  0  0  0  0  0  0  0  0  0
   16.1265   -2.6092  -16.1632 O   0  0  0  0  0  0  0  0  0  0  0  0
   16.6452   -3.6437  -15.3919 C   0  0  0  0  0  0  0  0  0  0  0  0
   18.1100   -3.7941  -15.7094 C   0  0  2  0  0  0  0  0  0  0  0  0
   18.7495   -4.8749  -15.0021 N   0  0  0  0  0  0  0  0  0  0  0  0
   18.7963   -2.5282  -15.4437 C   0  0  0  0  0  0  0  0  0  0  0  0
   18.6129   -1.4528  -16.2941 O   0  0  0  0  0  0  0  0  0  0  0  0
   19.5629   -2.3561  -14.4628 O   0  0  0  0  0  0  0  0  0  0  0  0
  2  1  1  0
  3  2  1  0
  3  4  1  6
  5  7  1  0
  5  6  1  1
  5  3  1  0
  7  8  2  0
  9  7  1  0
  9 10  1  0
 10 14  1  0
 10 11  1  6
 12 13  2  0
 12 11  1  0
 14 15  2  0
 14 20  1  0
 16 12  1  0
 17 18  1  0
 19 18  1  1
 19 21  1  0
 20 19  1  0
 21 23  2  0
 21 22  1  0
M  END
$$$$
