IDS.pdb
     RDKit          3D

 23 22  0  0  1  0  0  0  0  0999 V2000
   28.9946  -13.8594  -16.0479 C   0  0  0  0  0  0  0  0  0  0  0  0
   27.5294  -13.7353  -16.3287 C   0  0  0  0  0  0  0  0  0  0  0  0
   26.9580  -12.3562  -16.1491 C   0  0  2  0  0  0  0  0  0  0  0  0
   27.2444  -11.8321  -14.7526 C   0  0  0  0  0  0  0  0  0  0  0  0
   25.5265  -12.2840  -16.5055 C   0  0  2  0  0  0  0  0  0  0  0  0
   25.3178  -12.8897  -17.8230 N   0  0  0  0  0  0  0  0  0  0  0  0
   24.9627  -10.8809  -16.5288 C   0  0  0  0  0  0  0  0  0  0  0  0
   24.9013  -10.2590  -15.4632 O   0  0  0  0  0  0  0  0  0  0  0  0
   24.5169  -10.2811  -17.7136 N   0  0  0  0  0  0  0  0  0  0  0  0
   23.9162   -9.0060  -17.9660 C   0  0  1  0  0  0  0  0  0  0  0  0
   24.0692   -8.3923  -19.2956 C   0  0  0  0  0  0  0  0  0  0  0  0
   25.3749   -8.5023  -19.9595 C   0  0  0  0  0  0  0  0  0  0  0  0
   26.3830   -7.9267  -19.4405 O   0  0  0  0  0  0  0  0  0  0  0  0
   22.6570   -8.8000  -17.2760 C   0  0  0  0  0  0  0  0  0  0  0  0
   21.6333   -9.4437  -17.6739 O   0  0  0  0  0  0  0  0  0  0  0  0
   25.5825   -9.1964  -21.1216 O   0  0  0  0  0  0  0  0  0  0  0  0
   19.9683   -8.2636  -13.5285 O   0  0  0  0  0  0  0  0  0  0  0  0
   21.2098   -8.4668  -14.1213 C   0  0  0  0  0  0  0  0  0  0  0  0
   21.2177   -7.7912  -15.4676 C   0  0  2  0  0  0  0  0  0  0  0  0
   22.4646   -7.9258  -16.1777 N   0  0  0  0  0  0  0  0  0  0  0  0
   20.8692   -6.3784  -15.3033 C   0  0  0  0  0  0  0  0  0  0  0  0
   19.5648   -6.0190  -15.0157 O   0  0  0  0  0  0  0  0  0  0  0  0
   21.7072   -5.4481  -15.4114 O   0  0  0  0  0  0  0  0  0  0  0  0
  2  1  1  0
  3  2  1  0
  3  4  1  1
  5  7  1  0
  5  6  1  6
  5  3  1  0
  7  8  2  0
  9  7  1  0
  9 10  1  0
 10 14  1  0
 10 11  1  6
 12 13  2  0
 12 11  1  0
 14 15  2  0
 14 20  1  0
 16 12  1  0
 17 18  1  0
 19 18  1  1
 19 21  1  0
 20 19  1  0
 21 23  2  0
 21 22  1  0
M  END
$$$$
