IDS.pdb
     RDKit          3D

 23 22  0  0  1  0  0  0  0  0999 V2000
   10.9633  -12.9965   -9.5929 C   0  0  0  0  0  0  0  0  0  0  0  0
   11.8063  -12.9946  -10.8301 C   0  0  0  0  0  0  0  0  0  0  0  0
   13.0945  -12.2262  -10.7255 C   0  0  2  0  0  0  0  0  0  0  0  0
   12.8445  -10.8256  -10.1935 C   0  0  0  0  0  0  0  0  0  0  0  0
   13.8623  -12.2309  -11.9872 C   0  0  2  0  0  0  0  0  0  0  0  0
   14.0952  -13.6128  -12.4145 N   0  0  0  0  0  0  0  0  0  0  0  0
   15.1966  -11.5240  -11.9043 C   0  0  0  0  0  0  0  0  0  0  0  0
   16.2205  -12.1845  -12.1079 O   0  0  0  0  0  0  0  0  0  0  0  0
   15.2944  -10.1586  -11.6073 N   0  0  0  0  0  0  0  0  0  0  0  0
   16.3816   -9.2346  -11.7295 C   0  0  1  0  0  0  0  0  0  0  0  0
   17.3895   -9.4490  -12.7811 C   0  0  0  0  0  0  0  0  0  0  0  0
   18.4935   -8.4856  -12.8845 C   0  0  0  0  0  0  0  0  0  0  0  0
   18.4149   -7.5439  -13.7355 O   0  0  0  0  0  0  0  0  0  0  0  0
   16.0296   -7.8639  -11.4109 C   0  0  0  0  0  0  0  0  0  0  0  0
   15.3695   -7.1911  -12.2665 O   0  0  0  0  0  0  0  0  0  0  0  0
   19.6227   -8.5350  -12.1112 O   0  0  0  0  0  0  0  0  0  0  0  0
   17.2576   -5.9761   -7.9334 O   0  0  0  0  0  0  0  0  0  0  0  0
   16.0521   -5.5017   -8.4390 C   0  0  0  0  0  0  0  0  0  0  0  0
   15.9764   -5.8422   -9.9045 C   0  0  2  0  0  0  0  0  0  0  0  0
   16.3655   -7.1966  -10.2070 N   0  0  0  0  0  0  0  0  0  0  0  0
   16.7891   -4.8913  -10.6658 C   0  0  0  0  0  0  0  0  0  0  0  0
   16.4827   -3.5428  -10.6347 O   0  0  0  0  0  0  0  0  0  0  0  0
   17.7746   -5.2369  -11.3649 O   0  0  0  0  0  0  0  0  0  0  0  0
  2  1  1  0
  3  2  1  0
  3  4  1  6
  5  7  1  0
  5  6  1  1
  5  3  1  0
  7  8  2  0
  9  7  1  0
  9 10  1  0
 10 14  1  0
 10 11  1  6
 12 13  2  0
 12 11  1  0
 14 15  2  0
 14 20  1  0
 16 12  1  0
 17 18  1  0
 19 18  1  1
 19 21  1  0
 20 19  1  0
 21 23  2  0
 21 22  1  0
M  END
$$$$
