IDS.pdb
     RDKit          3D

 23 22  0  0  1  0  0  0  0  0999 V2000
   22.5332  -32.3859  -10.7243 C   0  0  0  0  0  0  0  0  0  0  0  0
   23.6422  -31.9687   -9.8092 C   0  0  0  0  0  0  0  0  0  0  0  0
   23.9934  -32.9610   -8.7356 C   0  0  2  0  0  0  0  0  0  0  0  0
   22.7475  -33.4203   -7.9982 C   0  0  0  0  0  0  0  0  0  0  0  0
   25.0466  -32.4649   -7.8267 C   0  0  2  0  0  0  0  0  0  0  0  0
   26.2450  -32.1310   -8.6005 N   0  0  0  0  0  0  0  0  0  0  0  0
   25.4359  -33.4392   -6.7376 C   0  0  0  0  0  0  0  0  0  0  0  0
   26.0020  -34.4867   -7.0668 O   0  0  0  0  0  0  0  0  0  0  0  0
   25.1734  -33.1830   -5.3857 N   0  0  0  0  0  0  0  0  0  0  0  0
   25.4569  -33.9380   -4.2024 C   0  0  1  0  0  0  0  0  0  0  0  0
   25.5450  -33.2385   -2.9099 C   0  0  0  0  0  0  0  0  0  0  0  0
   25.9097  -34.0247   -1.7239 C   0  0  0  0  0  0  0  0  0  0  0  0
   25.3156  -35.1278   -1.5066 O   0  0  0  0  0  0  0  0  0  0  0  0
   24.8867  -35.2718   -4.2028 C   0  0  0  0  0  0  0  0  0  0  0  0
   23.6213  -35.3920   -4.1322 O   0  0  0  0  0  0  0  0  0  0  0  0
   26.8646  -33.6417   -0.8201 O   0  0  0  0  0  0  0  0  0  0  0  0
   26.3775  -38.4376   -6.2124 O   0  0  0  0  0  0  0  0  0  0  0  0
   25.9702  -38.8280   -4.9413 C   0  0  0  0  0  0  0  0  0  0  0  0
   25.0357  -37.7820   -4.3919 C   0  0  2  0  0  0  0  0  0  0  0  0
   25.6315  -36.4750   -4.2744 N   0  0  0  0  0  0  0  0  0  0  0  0
   24.5153  -38.2283   -3.0979 C   0  0  0  0  0  0  0  0  0  0  0  0
   23.4996  -39.1660   -3.0497 O   0  0  0  0  0  0  0  0  0  0  0  0
   24.9480  -37.7982   -1.9993 O   0  0  0  0  0  0  0  0  0  0  0  0
  2  1  1  0
  3  2  1  0
  3  4  1  1
  5  7  1  0
  5  6  1  6
  5  3  1  0
  7  8  2  0
  9  7  1  0
  9 10  1  0
 10 14  1  0
 10 11  1  1
 12 13  2  0
 12 11  1  0
 14 15  2  0
 14 20  1  0
 16 12  1  0
 17 18  1  0
 19 18  1  1
 19 21  1  0
 20 19  1  0
 21 23  2  0
 21 22  1  0
M  END
$$$$
