GEF.pdb
     RDKit          3D

 25 25  0  0  1  0  0  0  0  0999 V2000
    5.6194  -18.6349   20.2648 N   0  0  0  0  0  0  0  0  0  0  0  0
    5.6513  -17.9989   21.5610 C   0  0  0  0  0  0  0  0  0  0  0  0
    6.9763  -17.3087   21.7791 C   0  0  0  0  0  0  0  0  0  0  0  0
    7.9844  -18.0100   22.0419 O   0  0  0  0  0  0  0  0  0  0  0  0
    7.0612  -15.9021   21.6856 N   0  0  0  0  0  0  0  0  0  0  0  0
    8.2049  -15.0842   21.9117 C   0  0  1  0  0  0  0  0  0  0  0  0
    8.0621  -13.6430   21.4212 C   0  0  0  0  0  0  0  0  0  0  0  0
    7.4479  -13.4925   20.0789 C   0  0  0  0  0  0  0  0  0  0  0  0
    8.3334  -13.9990   18.9764 C   0  0  0  0  0  0  0  0  0  0  0  0
    9.4874  -14.4247   19.1234 O   0  0  0  0  0  0  0  0  0  0  0  0
    8.7582  -15.0894   23.2609 C   0  0  0  0  0  0  0  0  0  0  0  0
    9.8342  -14.4869   23.5083 O   0  0  0  0  0  0  0  0  0  0  0  0
    7.7741  -13.9718   17.6942 O   0  0  0  0  0  0  0  0  0  0  0  0
    8.1518  -15.7517   24.3728 N   0  0  0  0  0  0  0  0  0  0  0  0
    8.7382  -15.7116   25.7161 C   0  0  1  0  0  0  0  0  0  0  0  0
    7.6083  -15.3894   26.6567 C   0  0  0  0  0  0  0  0  0  0  0  0
    7.2045  -13.9773   26.6850 C   0  0  0  0  0  0  0  0  0  0  0  0
    8.0832  -12.9762   27.0475 C   0  0  0  0  0  0  0  0  0  0  0  0
    7.6262  -11.6701   27.0373 C   0  0  0  0  0  0  0  0  0  0  0  0
    6.3298  -11.3584   26.6769 C   0  0  0  0  0  0  0  0  0  0  0  0
    5.4565  -12.3535   26.3165 C   0  0  0  0  0  0  0  0  0  0  0  0
    5.9095  -13.6697   26.3245 C   0  0  0  0  0  0  0  0  0  0  0  0
    9.2817  -17.0378   26.0757 C   0  0  0  0  0  0  0  0  0  0  0  0
    9.9514  -17.1712   27.2821 O   0  0  0  0  0  0  0  0  0  0  0  0
    9.1757  -18.0589   25.3548 O   0  0  0  0  0  0  0  0  0  0  0  0
  1  2  1  0
  3  2  1  0
  3  4  2  0
  5  3  1  0
  6  5  1  0
  6 11  1  0
  6  7  1  1
  8  7  1  0
  9  8  1  0
 10  9  2  0
 11 14  1  0
 11 12  2  0
 13  9  1  0
 14 15  1  0
 15 16  1  1
 17 16  1  0
 18 17  2  0
 19 20  2  0
 19 18  1  0
 20 21  1  0
 21 22  2  0
 22 17  1  0
 23 15  1  0
 23 24  1  0
 25 23  2  0
M  END
$$$$
