GEF.pdb
     RDKit          3D

 25 25  0  0  1  0  0  0  0  0999 V2000
    6.9410  -12.5865   19.3656 N   0  0  0  0  0  0  0  0  0  0  0  0
    8.2663  -12.9805   19.7827 C   0  0  0  0  0  0  0  0  0  0  0  0
    8.2002  -14.1962   20.6757 C   0  0  0  0  0  0  0  0  0  0  0  0
    7.1011  -14.4961   21.2041 O   0  0  0  0  0  0  0  0  0  0  0  0
    9.3611  -14.9685   20.9006 N   0  0  0  0  0  0  0  0  0  0  0  0
    9.5057  -16.0854   21.7720 C   0  0  1  0  0  0  0  0  0  0  0  0
   10.5428  -17.1140   21.3197 C   0  0  0  0  0  0  0  0  0  0  0  0
   10.4404  -17.5285   19.8987 C   0  0  0  0  0  0  0  0  0  0  0  0
   11.4938  -18.5257   19.5087 C   0  0  0  0  0  0  0  0  0  0  0  0
   12.4395  -18.3045   18.7398 O   0  0  0  0  0  0  0  0  0  0  0  0
    9.6926  -15.7922   23.1882 C   0  0  0  0  0  0  0  0  0  0  0  0
   10.6554  -15.0770   23.5670 O   0  0  0  0  0  0  0  0  0  0  0  0
   11.3619  -19.7958   20.0806 O   0  0  0  0  0  0  0  0  0  0  0  0
    8.8344  -16.2717   24.2256 N   0  0  0  0  0  0  0  0  0  0  0  0
    9.0647  -15.9483   25.6371 C   0  0  1  0  0  0  0  0  0  0  0  0
    7.7056  -15.7169   26.2407 C   0  0  0  0  0  0  0  0  0  0  0  0
    7.2716  -14.3140   26.2795 C   0  0  0  0  0  0  0  0  0  0  0  0
    8.1163  -13.3020   26.6896 C   0  0  0  0  0  0  0  0  0  0  0  0
    7.6326  -12.0054   26.6860 C   0  0  0  0  0  0  0  0  0  0  0  0
    6.3432  -11.7137   26.2863 C   0  0  0  0  0  0  0  0  0  0  0  0
    5.5038  -12.7196   25.8786 C   0  0  0  0  0  0  0  0  0  0  0  0
    5.9837  -14.0262   25.8795 C   0  0  0  0  0  0  0  0  0  0  0  0
    9.6936  -17.0936   26.3273 C   0  0  0  0  0  0  0  0  0  0  0  0
   10.2087  -16.8955   27.5990 O   0  0  0  0  0  0  0  0  0  0  0  0
    9.7925  -18.2426   25.8336 O   0  0  0  0  0  0  0  0  0  0  0  0
  1  2  1  0
  3  2  1  0
  3  4  2  0
  5  3  1  0
  6  5  1  0
  6 11  1  0
  6  7  1  6
  8  7  1  0
  9  8  1  0
 10  9  2  0
 11 14  1  0
 11 12  2  0
 13  9  1  0
 14 15  1  0
 15 16  1  1
 17 16  1  0
 18 17  2  0
 19 20  2  0
 19 18  1  0
 20 21  1  0
 21 22  2  0
 22 17  1  0
 23 15  1  0
 23 24  1  0
 25 23  2  0
M  END
$$$$
