GEF.pdb
     RDKit          3D

 25 25  0  0  1  0  0  0  0  0999 V2000
    7.8378  -13.5860   17.2550 N   0  0  0  0  0  0  0  0  0  0  0  0
    8.7110  -13.2768   18.3630 C   0  0  0  0  0  0  0  0  0  0  0  0
    8.5620  -14.3064   19.4572 C   0  0  0  0  0  0  0  0  0  0  0  0
    7.5459  -14.2596   20.1937 O   0  0  0  0  0  0  0  0  0  0  0  0
    9.5554  -15.2946   19.6340 N   0  0  0  0  0  0  0  0  0  0  0  0
    9.6874  -16.2091   20.7177 C   0  0  1  0  0  0  0  0  0  0  0  0
   10.7798  -17.2625   20.5304 C   0  0  0  0  0  0  0  0  0  0  0  0
   10.6195  -18.1309   19.3381 C   0  0  0  0  0  0  0  0  0  0  0  0
   11.7345  -19.1268   19.1925 C   0  0  0  0  0  0  0  0  0  0  0  0
   11.6695  -20.3246   19.5016 O   0  0  0  0  0  0  0  0  0  0  0  0
    9.7871  -15.6327   22.0535 C   0  0  0  0  0  0  0  0  0  0  0  0
   10.7156  -14.8312   22.3316 O   0  0  0  0  0  0  0  0  0  0  0  0
   12.9267  -18.6227   18.6612 O   0  0  0  0  0  0  0  0  0  0  0  0
    8.8770  -15.9164   23.1183 N   0  0  0  0  0  0  0  0  0  0  0  0
    8.8487  -15.1211   24.3498 C   0  0  1  0  0  0  0  0  0  0  0  0
    7.6121  -14.2671   24.2683 C   0  0  0  0  0  0  0  0  0  0  0  0
    7.3441  -13.4436   25.4549 C   0  0  0  0  0  0  0  0  0  0  0  0
    8.3368  -12.7055   26.0677 C   0  0  0  0  0  0  0  0  0  0  0  0
    7.9983  -11.9471   27.1746 C   0  0  0  0  0  0  0  0  0  0  0  0
    6.7080  -11.9176   27.6663 C   0  0  0  0  0  0  0  0  0  0  0  0
    5.7215  -12.6512   27.0571 C   0  0  0  0  0  0  0  0  0  0  0  0
    6.0548  -13.4164   25.9430 C   0  0  0  0  0  0  0  0  0  0  0  0
    8.7282  -16.0065   25.5267 C   0  0  0  0  0  0  0  0  0  0  0  0
    8.4128  -17.3404   25.3193 O   0  0  0  0  0  0  0  0  0  0  0  0
    8.8938  -15.6267   26.7107 O   0  0  0  0  0  0  0  0  0  0  0  0
  1  2  1  0
  3  2  1  0
  3  4  2  0
  5  3  1  0
  6  5  1  0
  6 11  1  0
  6  7  1  6
  8  7  1  0
  9  8  1  0
 10  9  2  0
 11 14  1  0
 11 12  2  0
 13  9  1  0
 14 15  1  0
 15 16  1  6
 17 16  1  0
 18 17  2  0
 19 20  2  0
 19 18  1  0
 20 21  1  0
 21 22  2  0
 22 17  1  0
 23 15  1  0
 23 24  1  0
 25 23  2  0
M  END
$$$$
