GEF.pdb
     RDKit          3D

 25 25  0  0  1  0  0  0  0  0999 V2000
    7.5673  -12.0636   19.2315 N   0  0  0  0  0  0  0  0  0  0  0  0
    8.5738  -13.0753   19.4532 C   0  0  0  0  0  0  0  0  0  0  0  0
    8.0735  -14.1148   20.4272 C   0  0  0  0  0  0  0  0  0  0  0  0
    7.0288  -13.8737   21.0812 O   0  0  0  0  0  0  0  0  0  0  0  0
    8.7789  -15.3279   20.5862 N   0  0  0  0  0  0  0  0  0  0  0  0
    8.4916  -16.3870   21.4938 C   0  0  1  0  0  0  0  0  0  0  0  0
    8.9606  -17.7663   21.0294 C   0  0  0  0  0  0  0  0  0  0  0  0
    8.6108  -18.8883   21.9350 C   0  0  0  0  0  0  0  0  0  0  0  0
    9.0118  -20.2260   21.3819 C   0  0  0  0  0  0  0  0  0  0  0  0
    8.4047  -20.8465   20.4981 O   0  0  0  0  0  0  0  0  0  0  0  0
    8.8779  -16.1814   22.8848 C   0  0  0  0  0  0  0  0  0  0  0  0
   10.0537  -15.8405   23.1736 O   0  0  0  0  0  0  0  0  0  0  0  0
   10.1697  -20.7838   21.9348 O   0  0  0  0  0  0  0  0  0  0  0  0
    7.9918  -16.3427   23.9945 N   0  0  0  0  0  0  0  0  0  0  0  0
    8.3802  -15.9748   25.3597 C   0  0  1  0  0  0  0  0  0  0  0  0
    7.1024  -15.6486   26.0849 C   0  0  0  0  0  0  0  0  0  0  0  0
    6.7972  -14.2159   26.1961 C   0  0  0  0  0  0  0  0  0  0  0  0
    5.5260  -13.7632   26.4871 C   0  0  0  0  0  0  0  0  0  0  0  0
    5.3251  -12.3975   26.5852 C   0  0  0  0  0  0  0  0  0  0  0  0
    6.3566  -11.4979   26.4001 C   0  0  0  0  0  0  0  0  0  0  0  0
    7.6201  -11.9480   26.1110 C   0  0  0  0  0  0  0  0  0  0  0  0
    7.8294  -13.3205   26.0109 C   0  0  0  0  0  0  0  0  0  0  0  0
    9.0208  -17.1224   26.0351 C   0  0  0  0  0  0  0  0  0  0  0  0
    9.7211  -16.8901   27.2088 O   0  0  0  0  0  0  0  0  0  0  0  0
    8.9720  -18.3024   25.6123 O   0  0  0  0  0  0  0  0  0  0  0  0
  1  2  1  0
  3  2  1  0
  3  4  2  0
  5  3  1  0
  6  5  1  0
  6 11  1  0
  6  7  1  6
  8  7  1  0
  9  8  1  0
 10  9  2  0
 11 14  1  0
 11 12  2  0
 13  9  1  0
 14 15  1  0
 15 16  1  1
 17 16  1  0
 18 17  2  0
 19 20  2  0
 19 18  1  0
 20 21  1  0
 21 22  2  0
 22 17  1  0
 23 15  1  0
 23 24  1  0
 25 23  2  0
M  END
$$$$
