GEF.pdb
     RDKit          3D

 25 25  0  0  1  0  0  0  0  0999 V2000
    7.1541  -12.5951   18.7376 N   0  0  0  0  0  0  0  0  0  0  0  0
    8.2781  -12.8291   19.6137 C   0  0  0  0  0  0  0  0  0  0  0  0
    8.0700  -14.0913   20.4156 C   0  0  0  0  0  0  0  0  0  0  0  0
    6.8992  -14.4175   20.7319 O   0  0  0  0  0  0  0  0  0  0  0  0
    9.1814  -14.8767   20.7932 N   0  0  0  0  0  0  0  0  0  0  0  0
    9.1835  -16.0409   21.6134 C   0  0  1  0  0  0  0  0  0  0  0  0
   10.1041  -17.1600   21.1255 C   0  0  0  0  0  0  0  0  0  0  0  0
    9.8946  -17.5790   19.7176 C   0  0  0  0  0  0  0  0  0  0  0  0
   10.8417  -18.6629   19.2886 C   0  0  0  0  0  0  0  0  0  0  0  0
   10.8574  -19.8181   19.7353 O   0  0  0  0  0  0  0  0  0  0  0  0
    9.3793  -15.8347   23.0437 C   0  0  0  0  0  0  0  0  0  0  0  0
   10.4268  -15.2830   23.4683 O   0  0  0  0  0  0  0  0  0  0  0  0
   11.7660  -18.2997   18.3029 O   0  0  0  0  0  0  0  0  0  0  0  0
    8.4378  -16.2252   24.0456 N   0  0  0  0  0  0  0  0  0  0  0  0
    8.6987  -16.0322   25.4755 C   0  0  1  0  0  0  0  0  0  0  0  0
    7.3942  -15.5922   26.0835 C   0  0  0  0  0  0  0  0  0  0  0  0
    7.2460  -14.1411   26.2579 C   0  0  0  0  0  0  0  0  0  0  0  0
    6.0634  -13.5774   26.6930 C   0  0  0  0  0  0  0  0  0  0  0  0
    6.0105  -12.2026   26.8418 C   0  0  0  0  0  0  0  0  0  0  0  0
    7.1012  -11.4012   26.5671 C   0  0  0  0  0  0  0  0  0  0  0  0
    8.2767  -11.9615   26.1348 C   0  0  0  0  0  0  0  0  0  0  0  0
    8.3371  -13.3439   25.9830 C   0  0  0  0  0  0  0  0  0  0  0  0
    9.0968  -17.3114   26.0991 C   0  0  0  0  0  0  0  0  0  0  0  0
    9.5741  -17.2905   27.4004 O   0  0  0  0  0  0  0  0  0  0  0  0
    9.0305  -18.4238   25.5230 O   0  0  0  0  0  0  0  0  0  0  0  0
  1  2  1  0
  3  2  1  0
  3  4  2  0
  5  3  1  0
  6  5  1  0
  6 11  1  0
  6  7  1  6
  8  7  1  0
  9  8  1  0
 10  9  2  0
 11 14  1  0
 11 12  2  0
 13  9  1  0
 14 15  1  0
 15 16  1  1
 17 16  1  0
 18 17  2  0
 19 20  2  0
 19 18  1  0
 20 21  1  0
 21 22  2  0
 22 17  1  0
 23 15  1  0
 23 24  1  0
 25 23  2  0
M  END
$$$$
