GEF.pdb
     RDKit          3D

 25 25  0  0  1  0  0  0  0  0999 V2000
    4.3510  -19.1991   20.1783 N   0  0  0  0  0  0  0  0  0  0  0  0
    5.1985  -19.7723   21.1976 C   0  0  0  0  0  0  0  0  0  0  0  0
    5.4242  -18.7830   22.3157 C   0  0  0  0  0  0  0  0  0  0  0  0
    4.9941  -17.6111   22.1787 O   0  0  0  0  0  0  0  0  0  0  0  0
    6.1072  -19.1854   23.4844 N   0  0  0  0  0  0  0  0  0  0  0  0
    6.4319  -18.3878   24.6186 C   0  0  1  0  0  0  0  0  0  0  0  0
    6.3382  -19.1198   25.9578 C   0  0  0  0  0  0  0  0  0  0  0  0
    6.8787  -20.5016   25.9594 C   0  0  0  0  0  0  0  0  0  0  0  0
    7.2224  -20.9878   27.3383 C   0  0  0  0  0  0  0  0  0  0  0  0
    7.6834  -22.1052   27.6093 O   0  0  0  0  0  0  0  0  0  0  0  0
    7.6813  -17.6382   24.5569 C   0  0  0  0  0  0  0  0  0  0  0  0
    8.7025  -18.1484   24.0289 O   0  0  0  0  0  0  0  0  0  0  0  0
    6.9888  -20.0764   28.3739 O   0  0  0  0  0  0  0  0  0  0  0  0
    7.8474  -16.3145   25.0696 N   0  0  0  0  0  0  0  0  0  0  0  0
    9.1004  -15.5701   24.9094 C   0  0  1  0  0  0  0  0  0  0  0  0
    8.7079  -14.1396   24.6547 C   0  0  0  0  0  0  0  0  0  0  0  0
    7.7917  -13.5589   25.6455 C   0  0  0  0  0  0  0  0  0  0  0  0
    8.2531  -12.9649   26.8030 C   0  0  0  0  0  0  0  0  0  0  0  0
    7.3241  -12.4318   27.6792 C   0  0  0  0  0  0  0  0  0  0  0  0
    5.9688  -12.4838   27.4187 C   0  0  0  0  0  0  0  0  0  0  0  0
    5.5102  -13.0741   26.2681 C   0  0  0  0  0  0  0  0  0  0  0  0
    6.4392  -13.6123   25.3821 C   0  0  0  0  0  0  0  0  0  0  0  0
    9.8889  -15.6228   26.1581 C   0  0  0  0  0  0  0  0  0  0  0  0
    9.3252  -16.2311   27.2690 O   0  0  0  0  0  0  0  0  0  0  0  0
   11.0441  -15.1492   26.2794 O   0  0  0  0  0  0  0  0  0  0  0  0
  1  2  1  0
  3  2  1  0
  3  4  2  0
  5  3  1  0
  6  5  1  0
  6 11  1  0
  6  7  1  1
  8  7  1  0
  9  8  1  0
 10  9  2  0
 11 14  1  0
 11 12  2  0
 13  9  1  0
 14 15  1  0
 15 16  1  1
 17 16  1  0
 18 17  2  0
 19 20  2  0
 19 18  1  0
 20 21  1  0
 21 22  2  0
 22 17  1  0
 23 15  1  0
 23 24  1  0
 25 23  2  0
M  END
$$$$
