GEF.pdb
     RDKit          3D

 25 25  0  0  1  0  0  0  0  0999 V2000
    9.0223  -17.0876   16.7941 N   0  0  0  0  0  0  0  0  0  0  0  0
    9.8361  -16.5219   17.8445 C   0  0  0  0  0  0  0  0  0  0  0  0
    9.3522  -16.9870   19.1970 C   0  0  0  0  0  0  0  0  0  0  0  0
    8.1372  -17.2724   19.3364 O   0  0  0  0  0  0  0  0  0  0  0  0
   10.2621  -17.0927   20.2720 N   0  0  0  0  0  0  0  0  0  0  0  0
    9.9833  -17.4954   21.6092 C   0  0  1  0  0  0  0  0  0  0  0  0
   10.8603  -18.6369   22.1248 C   0  0  0  0  0  0  0  0  0  0  0  0
   12.1928  -18.7472   21.4815 C   0  0  0  0  0  0  0  0  0  0  0  0
   13.1315  -19.6395   22.2424 C   0  0  0  0  0  0  0  0  0  0  0  0
   13.0396  -20.8721   22.3236 O   0  0  0  0  0  0  0  0  0  0  0  0
    9.9163  -16.4384   22.6116 C   0  0  0  0  0  0  0  0  0  0  0  0
   10.8002  -15.5445   22.6520 O   0  0  0  0  0  0  0  0  0  0  0  0
   14.1815  -18.9886   22.8993 O   0  0  0  0  0  0  0  0  0  0  0  0
    8.8841  -16.3306   23.5942 N   0  0  0  0  0  0  0  0  0  0  0  0
    8.8573  -15.2437   24.5780 C   0  0  1  0  0  0  0  0  0  0  0  0
    7.5230  -14.5663   24.4171 C   0  0  0  0  0  0  0  0  0  0  0  0
    7.2434  -13.5014   25.3897 C   0  0  0  0  0  0  0  0  0  0  0  0
    8.0363  -12.3753   25.4838 C   0  0  0  0  0  0  0  0  0  0  0  0
    7.6973  -11.4136   26.4195 C   0  0  0  0  0  0  0  0  0  0  0  0
    6.5994  -11.5601   27.2445 C   0  0  0  0  0  0  0  0  0  0  0  0
    5.8113  -12.6794   27.1508 C   0  0  0  0  0  0  0  0  0  0  0  0
    6.1463  -13.6508   26.2117 C   0  0  0  0  0  0  0  0  0  0  0  0
    8.9405  -15.7923   25.9475 C   0  0  0  0  0  0  0  0  0  0  0  0
    9.5415  -15.0223   26.9312 O   0  0  0  0  0  0  0  0  0  0  0  0
    8.4993  -16.9183   26.2807 O   0  0  0  0  0  0  0  0  0  0  0  0
  1  2  1  0
  3  2  1  0
  3  4  2  0
  5  3  1  0
  6  5  1  0
  6 11  1  0
  6  7  1  1
  8  7  1  0
  9  8  1  0
 10  9  2  0
 11 14  1  0
 11 12  2  0
 13  9  1  0
 14 15  1  0
 15 16  1  1
 17 16  1  0
 18 17  2  0
 19 20  2  0
 19 18  1  0
 20 21  1  0
 21 22  2  0
 22 17  1  0
 23 15  1  0
 23 24  1  0
 25 23  2  0
M  END
$$$$
