GEF.pdb
     RDKit          3D

 25 25  0  0  1  0  0  0  0  0999 V2000
    6.9185  -13.3464   19.1995 N   0  0  0  0  0  0  0  0  0  0  0  0
    8.2858  -13.6976   19.5041 C   0  0  0  0  0  0  0  0  0  0  0  0
    8.3317  -14.8041   20.5304 C   0  0  0  0  0  0  0  0  0  0  0  0
    7.2503  -15.2250   21.0107 O   0  0  0  0  0  0  0  0  0  0  0  0
    9.5746  -15.3424   20.9301 N   0  0  0  0  0  0  0  0  0  0  0  0
    9.8035  -16.4992   21.7285 C   0  0  1  0  0  0  0  0  0  0  0  0
   10.9068  -17.4216   21.2088 C   0  0  0  0  0  0  0  0  0  0  0  0
   11.0485  -18.7064   21.9372 C   0  0  0  0  0  0  0  0  0  0  0  0
   12.3566  -19.3897   21.6578 C   0  0  0  0  0  0  0  0  0  0  0  0
   13.3518  -19.3597   22.3948 O   0  0  0  0  0  0  0  0  0  0  0  0
    9.9799  -16.2834   23.1599 C   0  0  0  0  0  0  0  0  0  0  0  0
    9.8043  -17.2286   23.9710 O   0  0  0  0  0  0  0  0  0  0  0  0
   12.4168  -20.1079   20.4585 O   0  0  0  0  0  0  0  0  0  0  0  0
   10.3519  -15.0320   23.7415 N   0  0  0  0  0  0  0  0  0  0  0  0
    9.6225  -14.4535   24.8743 C   0  0  1  0  0  0  0  0  0  0  0  0
    8.4128  -13.7746   24.2905 C   0  0  0  0  0  0  0  0  0  0  0  0
    7.5348  -13.1173   25.2678 C   0  0  0  0  0  0  0  0  0  0  0  0
    6.3464  -13.6876   25.6776 C   0  0  0  0  0  0  0  0  0  0  0  0
    5.5828  -13.0080   26.6104 C   0  0  0  0  0  0  0  0  0  0  0  0
    5.9833  -11.7917   27.1277 C   0  0  0  0  0  0  0  0  0  0  0  0
    7.1646  -11.2249   26.7204 C   0  0  0  0  0  0  0  0  0  0  0  0
    7.9379  -11.9031   25.7824 C   0  0  0  0  0  0  0  0  0  0  0  0
    9.1640  -15.5224   25.7858 C   0  0  0  0  0  0  0  0  0  0  0  0
    9.5301  -15.4527   27.1211 O   0  0  0  0  0  0  0  0  0  0  0  0
    8.4596  -16.4964   25.4273 O   0  0  0  0  0  0  0  0  0  0  0  0
  1  2  1  0
  3  2  1  0
  3  4  2  0
  5  3  1  0
  6  5  1  0
  6 11  1  0
  6  7  1  6
  8  7  1  0
  9  8  1  0
 10  9  2  0
 11 14  1  0
 11 12  2  0
 13  9  1  0
 14 15  1  0
 15 16  1  6
 17 16  1  0
 18 17  2  0
 19 20  2  0
 19 18  1  0
 20 21  1  0
 21 22  2  0
 22 17  1  0
 23 15  1  0
 23 24  1  0
 25 23  2  0
M  END
$$$$
