GEF.pdb
     RDKit          3D

 25 25  0  0  1  0  0  0  0  0999 V2000
    5.5674  -20.2414   22.8232 N   0  0  0  0  0  0  0  0  0  0  0  0
    5.1640  -18.8553   22.8643 C   0  0  0  0  0  0  0  0  0  0  0  0
    6.3269  -17.9555   22.5217 C   0  0  0  0  0  0  0  0  0  0  0  0
    7.4677  -18.4662   22.3991 O   0  0  0  0  0  0  0  0  0  0  0  0
    6.1172  -16.5699   22.3464 N   0  0  0  0  0  0  0  0  0  0  0  0
    7.1021  -15.5609   22.1469 C   0  0  1  0  0  0  0  0  0  0  0  0
    6.5700  -14.2669   21.5301 C   0  0  0  0  0  0  0  0  0  0  0  0
    7.5998  -13.2405   21.2339 C   0  0  0  0  0  0  0  0  0  0  0  0
    8.1677  -13.3723   19.8496 C   0  0  0  0  0  0  0  0  0  0  0  0
    7.8070  -14.2023   19.0037 O   0  0  0  0  0  0  0  0  0  0  0  0
    7.9569  -15.2450   23.2854 C   0  0  0  0  0  0  0  0  0  0  0  0
    8.3384  -14.0631   23.4845 O   0  0  0  0  0  0  0  0  0  0  0  0
    9.1844  -12.4668   19.5270 O   0  0  0  0  0  0  0  0  0  0  0  0
    8.4166  -16.2101   24.2341 N   0  0  0  0  0  0  0  0  0  0  0  0
    8.9290  -15.8222   25.5520 C   0  0  1  0  0  0  0  0  0  0  0  0
    7.7281  -15.4259   26.3680 C   0  0  0  0  0  0  0  0  0  0  0  0
    7.4642  -13.9820   26.4278 C   0  0  0  0  0  0  0  0  0  0  0  0
    6.1842  -13.4807   26.5536 C   0  0  0  0  0  0  0  0  0  0  0  0
    6.0230  -12.1076   26.6140 C   0  0  0  0  0  0  0  0  0  0  0  0
    7.1018  -11.2476   26.5518 C   0  0  0  0  0  0  0  0  0  0  0  0
    8.3741  -11.7459   26.4270 C   0  0  0  0  0  0  0  0  0  0  0  0
    8.5437  -13.1262   26.3657 C   0  0  0  0  0  0  0  0  0  0  0  0
    9.5787  -16.9764   26.2072 C   0  0  0  0  0  0  0  0  0  0  0  0
   10.2759  -16.7596   27.3856 O   0  0  0  0  0  0  0  0  0  0  0  0
    9.5403  -18.1489   25.7630 O   0  0  0  0  0  0  0  0  0  0  0  0
  1  2  1  0
  3  2  1  0
  3  4  2  0
  5  3  1  0
  6  5  1  0
  6 11  1  0
  6  7  1  1
  8  7  1  0
  9  8  1  0
 10  9  2  0
 11 14  1  0
 11 12  2  0
 13  9  1  0
 14 15  1  0
 15 16  1  1
 17 16  1  0
 18 17  2  0
 19 20  2  0
 19 18  1  0
 20 21  1  0
 21 22  2  0
 22 17  1  0
 23 15  1  0
 23 24  1  0
 25 23  2  0
M  END
$$$$
