RWI.pdb
     RDKit          3D

 34 35  0  0  1  0  0  0  0  0999 V2000
   31.0237  -18.1845  -18.3327 N   0  0  0  0  0  0  0  0  0  0  0  0
   30.2326  -18.6279  -19.4317 C   0  0  0  0  0  0  0  0  0  0  0  0
   30.2997  -18.0476  -20.5808 N   0  0  0  0  0  0  0  0  0  0  0  0
   29.3425  -19.7387  -19.2568 N   0  0  0  0  0  0  0  0  0  0  0  0
   29.2838  -20.4704  -18.0062 C   0  0  0  0  0  0  0  0  0  0  0  0
   28.4421  -19.7106  -17.0438 C   0  0  0  0  0  0  0  0  0  0  0  0
   27.3461  -20.4480  -16.3770 C   0  0  0  0  0  0  0  0  0  0  0  0
   27.7201  -21.5744  -15.4831 C   0  0  2  0  0  0  0  0  0  0  0  0
   28.4150  -22.6097  -16.1875 N   0  0  0  0  0  0  0  0  0  0  0  0
   26.5832  -22.1443  -14.7309 C   0  0  0  0  0  0  0  0  0  0  0  0
   25.8302  -23.0379  -15.1925 O   0  0  0  0  0  0  0  0  0  0  0  0
   29.7691  -18.3660  -21.3974 N   0  0  0  0  0  0  0  0  0  0  0  0
   26.3037  -21.6806  -13.4244 C   0  0  2  0  0  0  0  0  0  0  0  0
   25.2860  -22.2106  -12.5671 C   0  0  0  0  0  0  0  0  0  0  0  0
   25.6743  -22.3690  -11.1287 C   0  0  0  0  0  0  0  0  0  0  0  0
   25.9211  -21.0660  -10.5061 C   0  0  0  0  0  0  0  0  0  0  0  0
   25.2747  -19.8555  -10.6769 N   0  0  0  0  0  0  0  0  0  0  0  0
   25.8555  -18.9369   -9.8894 C   0  0  0  0  0  0  0  0  0  0  0  0
   26.8693  -19.4682   -9.1895 C   0  0  0  0  0  0  0  0  0  0  0  0
   27.7429  -18.9218   -8.2661 C   0  0  0  0  0  0  0  0  0  0  0  0
   28.7080  -19.7420   -7.6967 C   0  0  0  0  0  0  0  0  0  0  0  0
   28.7874  -21.0579   -8.0444 C   0  0  0  0  0  0  0  0  0  0  0  0
   27.8913  -21.5749   -8.9776 C   0  0  0  0  0  0  0  0  0  0  0  0
   26.9199  -20.7913   -9.5642 C   0  0  0  0  0  0  0  0  0  0  0  0
   24.0022  -21.4593  -12.6830 O   0  0  0  0  0  0  0  0  0  0  0  0
   23.9979  -20.2089  -12.5950 C   0  0  0  0  0  0  0  0  0  0  0  0
   21.5124  -22.3027  -16.9587 C   0  0  0  0  0  0  0  0  0  0  0  0
   21.9546  -21.7133  -15.6494 C   0  0  2  0  0  0  0  0  0  0  0  0
   20.9754  -22.0046  -14.5428 C   0  0  0  0  0  0  0  0  0  0  0  0
   19.5856  -21.5510  -14.8496 C   0  0  2  0  0  0  0  0  0  0  0  0
   21.5407  -21.4120  -13.2681 N   0  0  0  0  0  0  0  0  0  0  0  0
   22.7564  -22.1055  -12.8930 C   0  0  0  0  0  0  0  0  0  0  0  0
   20.5404  -21.5866  -12.2013 O   0  0  0  0  0  0  0  0  0  0  0  0
   20.3931  -22.8302  -11.6143 O   0  0  0  0  0  0  0  0  0  0  0  0
  2  1  1  0
  3  2  2  0
  4  2  1  0
  5  4  1  0
  6  5  1  0
  7  6  1  0
  7  8  1  0
  8  9  1  6
 10  8  1  0
 11 10  2  0
 12 10  1  0
 13 12  1  0
 13 24  1  0
 13 14  1  1
 15 23  1  0
 15 14  1  0
 16 15  2  0
 17 16  1  0
 17 18  1  0
 18 23  2  0
 19 18  1  0
 19 20  2  0
 20 21  1  0
 21 22  2  0
 23 22  1  0
 24 31  1  0
 25 24  2  0
 26 27  1  0
 28 29  1  1
 28 27  1  0
 30 28  1  0
 30 32  1  0
 30 31  1  1
 32 34  2  0
 32 33  1  0
M  END
$$$$
