RWI.pdb
     RDKit          3D

 34 35  0  0  1  0  0  0  0  0999 V2000
   30.6752  -20.9273  -23.2406 N   0  0  0  0  0  0  0  0  0  0  0  0
   31.2251  -21.5956  -22.1088 C   0  0  0  0  0  0  0  0  0  0  0  0
   32.4311  -22.0510  -22.1221 N   0  0  0  0  0  0  0  0  0  0  0  0
   30.4223  -21.7683  -20.9330 N   0  0  0  0  0  0  0  0  0  0  0  0
   29.2967  -20.8981  -20.6522 C   0  0  0  0  0  0  0  0  0  0  0  0
   29.7557  -19.7852  -19.7791 C   0  0  0  0  0  0  0  0  0  0  0  0
   28.9184  -19.4602  -18.6031 C   0  0  0  0  0  0  0  0  0  0  0  0
   28.4026  -20.5937  -17.7926 C   0  0  2  0  0  0  0  0  0  0  0  0
   27.8315  -21.6212  -18.6107 N   0  0  0  0  0  0  0  0  0  0  0  0
   27.4475  -20.1908  -16.7398 C   0  0  0  0  0  0  0  0  0  0  0  0
   27.7135  -19.3355  -15.8587 O   0  0  0  0  0  0  0  0  0  0  0  0
   32.8583  -22.5197  -21.3175 N   0  0  0  0  0  0  0  0  0  0  0  0
   26.1627  -20.7802  -16.6956 C   0  0  2  0  0  0  0  0  0  0  0  0
   25.1254  -20.4161  -15.7774 C   0  0  0  0  0  0  0  0  0  0  0  0
   23.7263  -20.6225  -16.2721 C   0  0  0  0  0  0  0  0  0  0  0  0
   22.7536  -20.0106  -15.3633 C   0  0  0  0  0  0  0  0  0  0  0  0
   22.5651  -18.6860  -15.0139 N   0  0  0  0  0  0  0  0  0  0  0  0
   21.5468  -18.6060  -14.1433 C   0  0  0  0  0  0  0  0  0  0  0  0
   21.0330  -19.8180  -13.8841 C   0  0  0  0  0  0  0  0  0  0  0  0
   19.9932  -20.2272  -13.0683 C   0  0  0  0  0  0  0  0  0  0  0  0
   19.6878  -21.5804  -13.0077 C   0  0  0  0  0  0  0  0  0  0  0  0
   20.4018  -22.4822  -13.7398 C   0  0  0  0  0  0  0  0  0  0  0  0
   21.4426  -22.0350  -14.5508 C   0  0  0  0  0  0  0  0  0  0  0  0
   21.7749  -20.6993  -14.6367 C   0  0  0  0  0  0  0  0  0  0  0  0
   25.3066  -21.0514  -14.4396 O   0  0  0  0  0  0  0  0  0  0  0  0
   25.3178  -22.3006  -14.3357 C   0  0  0  0  0  0  0  0  0  0  0  0
   29.2673  -21.1477  -11.5922 C   0  0  0  0  0  0  0  0  0  0  0  0
   27.8847  -21.2755  -12.1662 C   0  0  2  0  0  0  0  0  0  0  0  0
   26.8470  -20.6400  -11.2788 C   0  0  0  0  0  0  0  0  0  0  0  0
   26.9217  -21.1003   -9.8597 C   0  0  2  0  0  0  0  0  0  0  0  0
   25.4952  -20.8714  -11.9226 N   0  0  0  0  0  0  0  0  0  0  0  0
   25.4708  -20.2937  -13.2512 C   0  0  0  0  0  0  0  0  0  0  0  0
   24.4752  -20.2081  -11.0926 O   0  0  0  0  0  0  0  0  0  0  0  0
   23.6870  -20.9755  -10.2544 O   0  0  0  0  0  0  0  0  0  0  0  0
  2  1  1  0
  3  2  2  0
  4  2  1  0
  5  4  1  0
  6  5  1  0
  7  6  1  0
  7  8  1  0
  8  9  1  6
 10  8  1  0
 11 10  2  0
 12 10  1  0
 13 12  1  0
 13 24  1  0
 13 14  1  6
 15 23  1  0
 15 14  1  0
 16 15  2  0
 17 16  1  0
 17 18  1  0
 18 23  2  0
 19 18  1  0
 19 20  2  0
 20 21  1  0
 21 22  2  0
 23 22  1  0
 24 31  1  0
 25 24  2  0
 26 27  1  0
 28 29  1  6
 28 27  1  0
 30 28  1  0
 30 32  1  0
 30 31  1  6
 32 34  2  0
 32 33  1  0
M  END
$$$$
