RWI.pdb
     RDKit          3D

 34 35  0  0  1  0  0  0  0  0999 V2000
   30.5058  -20.3974  -18.6537 N   0  0  0  0  0  0  0  0  0  0  0  0
   29.1606  -20.7442  -18.9707 C   0  0  0  0  0  0  0  0  0  0  0  0
   28.8341  -21.1452  -20.1515 N   0  0  0  0  0  0  0  0  0  0  0  0
   28.1494  -20.6431  -17.9588 N   0  0  0  0  0  0  0  0  0  0  0  0
   28.3957  -19.9460  -16.7113 C   0  0  0  0  0  0  0  0  0  0  0  0
   29.1565  -20.8432  -15.8014 C   0  0  0  0  0  0  0  0  0  0  0  0
   28.4206  -21.4262  -14.6576 C   0  0  0  0  0  0  0  0  0  0  0  0
   27.9844  -20.5026  -13.5785 C   0  0  2  0  0  0  0  0  0  0  0  0
   29.0660  -20.1424  -12.7117 N   0  0  0  0  0  0  0  0  0  0  0  0
   26.8421  -21.0041  -12.7869 C   0  0  0  0  0  0  0  0  0  0  0  0
   25.7581  -21.3772  -13.3012 O   0  0  0  0  0  0  0  0  0  0  0  0
   27.8714  -21.3766  -20.4148 N   0  0  0  0  0  0  0  0  0  0  0  0
   26.9440  -21.0789  -11.3783 C   0  0  2  0  0  0  0  0  0  0  0  0
   25.9019  -21.5275  -10.5041 C   0  0  0  0  0  0  0  0  0  0  0  0
   26.3269  -21.8345   -9.1005 C   0  0  0  0  0  0  0  0  0  0  0  0
   26.5687  -20.6026   -8.3451 C   0  0  0  0  0  0  0  0  0  0  0  0
   26.2474  -19.2914   -8.6444 N   0  0  0  0  0  0  0  0  0  0  0  0
   26.6714  -18.5005   -7.6464 C   0  0  0  0  0  0  0  0  0  0  0  0
   27.2676  -19.2153   -6.6801 C   0  0  0  0  0  0  0  0  0  0  0  0
   27.8481  -18.8456   -5.4798 C   0  0  0  0  0  0  0  0  0  0  0  0
   28.3935  -19.8345   -4.6719 C   0  0  0  0  0  0  0  0  0  0  0  0
   28.3542  -21.1412   -5.0591 C   0  0  0  0  0  0  0  0  0  0  0  0
   27.7617  -21.4778   -6.2744 C   0  0  0  0  0  0  0  0  0  0  0  0
   27.2098  -20.5235   -7.1030 C   0  0  0  0  0  0  0  0  0  0  0  0
   24.7276  -20.6072  -10.5061 O   0  0  0  0  0  0  0  0  0  0  0  0
   24.8971  -19.3751  -10.3494 C   0  0  0  0  0  0  0  0  0  0  0  0
   21.1632  -19.6560  -14.8262 C   0  0  0  0  0  0  0  0  0  0  0  0
   21.2119  -19.6089  -13.3253 C   0  0  2  0  0  0  0  0  0  0  0  0
   22.3034  -20.4861  -12.7708 C   0  0  0  0  0  0  0  0  0  0  0  0
   22.1697  -21.9191  -13.1707 C   0  0  2  0  0  0  0  0  0  0  0  0
   22.3386  -20.2744  -11.2710 N   0  0  0  0  0  0  0  0  0  0  0  0
   23.3971  -21.0684  -10.6807 C   0  0  0  0  0  0  0  0  0  0  0  0
   21.0456  -20.7121  -10.7181 O   0  0  0  0  0  0  0  0  0  0  0  0
   20.9384  -21.9828  -10.1828 O   0  0  0  0  0  0  0  0  0  0  0  0
  2  1  1  0
  3  2  2  0
  4  2  1  0
  5  4  1  0
  6  5  1  0
  7  6  1  0
  7  8  1  0
  8  9  1  1
 10  8  1  0
 11 10  2  0
 12 10  1  0
 13 12  1  0
 13 24  1  0
 13 14  1  1
 15 23  1  0
 15 14  1  0
 16 15  2  0
 17 16  1  0
 17 18  1  0
 18 23  2  0
 19 18  1  0
 19 20  2  0
 20 21  1  0
 21 22  2  0
 23 22  1  0
 24 31  1  0
 25 24  2  0
 26 27  1  0
 28 29  1  6
 28 27  1  0
 30 28  1  0
 30 32  1  0
 30 31  1  1
 32 34  2  0
 32 33  1  0
M  END
$$$$
