RWI.pdb
     RDKit          3D

 34 35  0  0  1  0  0  0  0  0999 V2000
   29.8843  -25.9360  -16.5056 N   0  0  0  0  0  0  0  0  0  0  0  0
   29.6049  -26.3042  -17.8534 C   0  0  0  0  0  0  0  0  0  0  0  0
   30.0015  -27.4328  -18.3340 N   0  0  0  0  0  0  0  0  0  0  0  0
   28.8714  -25.4022  -18.6931 N   0  0  0  0  0  0  0  0  0  0  0  0
   28.2906  -24.1825  -18.1661 C   0  0  0  0  0  0  0  0  0  0  0  0
   29.0079  -23.8088  -16.9180 C   0  0  0  0  0  0  0  0  0  0  0  0
   28.1830  -23.5478  -15.7176 C   0  0  0  0  0  0  0  0  0  0  0  0
   27.2060  -22.4304  -15.7850 C   0  0  2  0  0  0  0  0  0  0  0  0
   27.8439  -21.1761  -16.0514 N   0  0  0  0  0  0  0  0  0  0  0  0
   26.3410  -22.3190  -14.5924 C   0  0  0  0  0  0  0  0  0  0  0  0
   25.6424  -23.2682  -14.1565 O   0  0  0  0  0  0  0  0  0  0  0  0
   29.7718  -27.7460  -19.2820 N   0  0  0  0  0  0  0  0  0  0  0  0
   26.2748  -21.0957  -13.8858 C   0  0  1  0  0  0  0  0  0  0  0  0
   25.4942  -20.8722  -12.7058 C   0  0  0  0  0  0  0  0  0  0  0  0
   26.0934  -19.9304  -11.7065 C   0  0  0  0  0  0  0  0  0  0  0  0
   27.2558  -20.5335  -11.0496 C   0  0  0  0  0  0  0  0  0  0  0  0
   28.3153  -21.2452  -11.5815 N   0  0  0  0  0  0  0  0  0  0  0  0
   29.1444  -21.5998  -10.5875 C   0  0  0  0  0  0  0  0  0  0  0  0
   28.6964  -21.1610   -9.4014 C   0  0  0  0  0  0  0  0  0  0  0  0
   29.2033  -21.2787   -8.1194 C   0  0  0  0  0  0  0  0  0  0  0  0
   28.4991  -20.7036   -7.0699 C   0  0  0  0  0  0  0  0  0  0  0  0
   27.3327  -20.0377   -7.3047 C   0  0  0  0  0  0  0  0  0  0  0  0
   26.8514  -19.9385   -8.6084 C   0  0  0  0  0  0  0  0  0  0  0  0
   27.5230  -20.4966   -9.6757 C   0  0  0  0  0  0  0  0  0  0  0  0
   24.0913  -20.4756  -13.0233 O   0  0  0  0  0  0  0  0  0  0  0  0
   23.8394  -19.3035  -13.3894 C   0  0  0  0  0  0  0  0  0  0  0  0
   18.7236  -22.8481  -14.8580 C   0  0  0  0  0  0  0  0  0  0  0  0
   19.5062  -21.7699  -14.1635 C   0  0  2  0  0  0  0  0  0  0  0  0
   20.9137  -22.2078  -13.8544 C   0  0  0  0  0  0  0  0  0  0  0  0
   20.9774  -23.4510  -13.0287 C   0  0  2  0  0  0  0  0  0  0  0  0
   21.6305  -21.0272  -13.2318 N   0  0  0  0  0  0  0  0  0  0  0  0
   23.0027  -21.3808  -12.9291 C   0  0  0  0  0  0  0  0  0  0  0  0
   20.9371  -20.6814  -11.9792 O   0  0  0  0  0  0  0  0  0  0  0  0
   19.8362  -19.8458  -12.0284 O   0  0  0  0  0  0  0  0  0  0  0  0
  2  1  1  0
  3  2  2  0
  4  2  1  0
  5  4  1  0
  6  5  1  0
  7  6  1  0
  7  8  1  0
  8  9  1  1
 10  8  1  0
 11 10  2  0
 12 10  1  0
 13 12  1  0
 13 24  1  0
 13 14  1  1
 15 23  1  0
 15 14  1  0
 16 15  2  0
 17 16  1  0
 17 18  1  0
 18 23  2  0
 19 18  1  0
 19 20  2  0
 20 21  1  0
 21 22  2  0
 23 22  1  0
 24 31  1  0
 25 24  2  0
 26 27  1  0
 28 29  1  6
 28 27  1  0
 30 28  1  0
 30 32  1  0
 30 31  1  1
 32 34  2  0
 32 33  1  0
M  END
$$$$
