RWI.pdb
     RDKit          3D

 34 35  0  0  1  0  0  0  0  0999 V2000
   24.1507  -18.6549  -18.1472 N   0  0  0  0  0  0  0  0  0  0  0  0
   24.0118  -17.3160  -17.6801 C   0  0  0  0  0  0  0  0  0  0  0  0
   23.0712  -16.5500  -18.1164 N   0  0  0  0  0  0  0  0  0  0  0  0
   24.9368  -16.8087  -16.7086 N   0  0  0  0  0  0  0  0  0  0  0  0
   25.9922  -17.6406  -16.1637 C   0  0  0  0  0  0  0  0  0  0  0  0
   25.3772  -18.7548  -15.3943 C   0  0  0  0  0  0  0  0  0  0  0  0
   25.7627  -18.8865  -13.9718 C   0  0  0  0  0  0  0  0  0  0  0  0
   26.7183  -19.9673  -13.6161 C   0  0  2  0  0  0  0  0  0  0  0  0
   26.9785  -20.8382  -14.7229 N   0  0  0  0  0  0  0  0  0  0  0  0
   26.3178  -20.7543  -12.4315 C   0  0  0  0  0  0  0  0  0  0  0  0
   25.3512  -21.5571  -12.4320 O   0  0  0  0  0  0  0  0  0  0  0  0
   22.9739  -15.5705  -17.8323 N   0  0  0  0  0  0  0  0  0  0  0  0
   27.0389  -20.6181  -11.2225 C   0  0  2  0  0  0  0  0  0  0  0  0
   26.7012  -21.2646   -9.9898 C   0  0  0  0  0  0  0  0  0  0  0  0
   27.7901  -21.2981   -8.9612 C   0  0  0  0  0  0  0  0  0  0  0  0
   27.6152  -20.2259   -7.9782 C   0  0  0  0  0  0  0  0  0  0  0  0
   26.9016  -19.0443   -8.0598 N   0  0  0  0  0  0  0  0  0  0  0  0
   27.0343  -18.3748   -6.9041 C   0  0  0  0  0  0  0  0  0  0  0  0
   27.8070  -19.0483   -6.0385 C   0  0  0  0  0  0  0  0  0  0  0  0
   28.2174  -18.7630   -4.7484 C   0  0  0  0  0  0  0  0  0  0  0  0
   29.0318  -19.6762   -4.0918 C   0  0  0  0  0  0  0  0  0  0  0  0
   29.4153  -20.8286   -4.7113 C   0  0  0  0  0  0  0  0  0  0  0  0
   28.9833  -21.0838   -6.0111 C   0  0  0  0  0  0  0  0  0  0  0  0
   28.1742  -20.2008   -6.6948 C   0  0  0  0  0  0  0  0  0  0  0  0
   25.4394  -20.7307   -9.3992 O   0  0  0  0  0  0  0  0  0  0  0  0
   25.2840  -19.4940   -9.2666 C   0  0  0  0  0  0  0  0  0  0  0  0
   20.2139  -20.0211  -10.6941 C   0  0  0  0  0  0  0  0  0  0  0  0
   20.7709  -20.9013   -9.6114 C   0  0  2  0  0  0  0  0  0  0  0  0
   22.1607  -21.3813   -9.9371 C   0  0  0  0  0  0  0  0  0  0  0  0
   22.2018  -22.8009  -10.4002 C   0  0  2  0  0  0  0  0  0  0  0  0
   23.0300  -21.1118   -8.7258 N   0  0  0  0  0  0  0  0  0  0  0  0
   24.3815  -21.5736   -8.9701 C   0  0  0  0  0  0  0  0  0  0  0  0
   22.4677  -21.8561   -7.5861 O   0  0  0  0  0  0  0  0  0  0  0  0
   21.3189  -21.3857   -6.9765 O   0  0  0  0  0  0  0  0  0  0  0  0
  2  1  1  0
  3  2  2  0
  4  2  1  0
  5  4  1  0
  6  5  1  0
  7  6  1  0
  7  8  1  0
  8  9  1  6
 10  8  1  0
 11 10  2  0
 12 10  1  0
 13 12  1  0
 13 24  1  0
 13 14  1  6
 15 23  1  0
 15 14  1  0
 16 15  2  0
 17 16  1  0
 17 18  1  0
 18 23  2  0
 19 18  1  0
 19 20  2  0
 20 21  1  0
 21 22  2  0
 23 22  1  0
 24 31  1  0
 25 24  2  0
 26 27  1  0
 28 29  1  1
 28 27  1  0
 30 28  1  0
 30 32  1  0
 30 31  1  1
 32 34  2  0
 32 33  1  0
M  END
$$$$
