RWI.pdb
     RDKit          3D

 34 35  0  0  1  0  0  0  0  0999 V2000
   22.6564  -17.6357  -16.9484 N   0  0  0  0  0  0  0  0  0  0  0  0
   23.9806  -18.0756  -17.2369 C   0  0  0  0  0  0  0  0  0  0  0  0
   24.7749  -17.3706  -17.9676 N   0  0  0  0  0  0  0  0  0  0  0  0
   24.4387  -19.3272  -16.7075 N   0  0  0  0  0  0  0  0  0  0  0  0
   23.5287  -20.2524  -16.0605 C   0  0  0  0  0  0  0  0  0  0  0  0
   23.3552  -19.8427  -14.6414 C   0  0  0  0  0  0  0  0  0  0  0  0
   23.5149  -20.8929  -13.6112 C   0  0  0  0  0  0  0  0  0  0  0  0
   24.7025  -20.8084  -12.7223 C   0  0  2  0  0  0  0  0  0  0  0  0
   25.8664  -21.3836  -13.3269 N   0  0  0  0  0  0  0  0  0  0  0  0
   24.4875  -21.3861  -11.3796 C   0  0  0  0  0  0  0  0  0  0  0  0
   24.5071  -22.6212  -11.1495 O   0  0  0  0  0  0  0  0  0  0  0  0
   25.7233  -17.6727  -18.2107 N   0  0  0  0  0  0  0  0  0  0  0  0
   24.2444  -20.5317  -10.2791 C   0  0  2  0  0  0  0  0  0  0  0  0
   24.0226  -20.9709   -8.9340 C   0  0  0  0  0  0  0  0  0  0  0  0
   24.7698  -20.2146   -7.8784 C   0  0  0  0  0  0  0  0  0  0  0  0
   26.2159  -20.3958   -8.0287 C   0  0  0  0  0  0  0  0  0  0  0  0
   26.9464  -20.9420   -9.0680 N   0  0  0  0  0  0  0  0  0  0  0  0
   28.2508  -20.8938   -8.7559 C   0  0  0  0  0  0  0  0  0  0  0  0
   28.4413  -20.3387   -7.5493 C   0  0  0  0  0  0  0  0  0  0  0  0
   29.5885  -20.0796   -6.8206 C   0  0  0  0  0  0  0  0  0  0  0  0
   29.4640  -19.4798   -5.5744 C   0  0  0  0  0  0  0  0  0  0  0  0
   28.2336  -19.1551   -5.0850 C   0  0  0  0  0  0  0  0  0  0  0  0
   27.0994  -19.4304   -5.8459 C   0  0  0  0  0  0  0  0  0  0  0  0
   27.1837  -20.0250   -7.0873 C   0  0  0  0  0  0  0  0  0  0  0  0
   22.5712  -21.0454   -8.5962 O   0  0  0  0  0  0  0  0  0  0  0  0
   21.8561  -20.0188   -8.6756 C   0  0  0  0  0  0  0  0  0  0  0  0
   19.5103  -24.3020  -10.8526 C   0  0  0  0  0  0  0  0  0  0  0  0
   20.0280  -23.1746  -10.0051 C   0  0  2  0  0  0  0  0  0  0  0  0
   19.8678  -23.4578   -8.5346 C   0  0  0  0  0  0  0  0  0  0  0  0
   18.4471  -23.6716   -8.1257 C   0  0  2  0  0  0  0  0  0  0  0  0
   20.5561  -22.3395   -7.7789 N   0  0  0  0  0  0  0  0  0  0  0  0
   21.9456  -22.2490   -8.1799 C   0  0  0  0  0  0  0  0  0  0  0  0
   20.4915  -22.6533   -6.3413 O   0  0  0  0  0  0  0  0  0  0  0  0
   19.4210  -22.1890   -5.5989 O   0  0  0  0  0  0  0  0  0  0  0  0
  2  1  1  0
  3  2  2  0
  4  2  1  0
  5  4  1  0
  6  5  1  0
  7  6  1  0
  7  8  1  0
  8  9  1  6
 10  8  1  0
 11 10  2  0
 12 10  1  0
 13 12  1  0
 13 24  1  0
 13 14  1  6
 15 23  1  0
 15 14  1  0
 16 15  2  0
 17 16  1  0
 17 18  1  0
 18 23  2  0
 19 18  1  0
 19 20  2  0
 20 21  1  0
 21 22  2  0
 23 22  1  0
 24 31  1  0
 25 24  2  0
 26 27  1  0
 28 29  1  1
 28 27  1  0
 30 28  1  0
 30 32  1  0
 30 31  1  6
 32 34  2  0
 32 33  1  0
M  END
$$$$
