RWI.pdb
     RDKit          3D

 34 35  0  0  1  0  0  0  0  0999 V2000
   27.8043  -18.1208  -18.4491 N   0  0  0  0  0  0  0  0  0  0  0  0
   27.1107  -17.0831  -17.7620 C   0  0  0  0  0  0  0  0  0  0  0  0
   26.2479  -16.3410  -18.3675 N   0  0  0  0  0  0  0  0  0  0  0  0
   27.3784  -16.8570  -16.3713 N   0  0  0  0  0  0  0  0  0  0  0  0
   28.3049  -17.6943  -15.6343 C   0  0  0  0  0  0  0  0  0  0  0  0
   27.5344  -18.7330  -14.9000 C   0  0  0  0  0  0  0  0  0  0  0  0
   27.9868  -19.0678  -13.5315 C   0  0  0  0  0  0  0  0  0  0  0  0
   28.0746  -20.5062  -13.1696 C   0  0  2  0  0  0  0  0  0  0  0  0
   28.2381  -21.3399  -14.3225 N   0  0  0  0  0  0  0  0  0  0  0  0
   26.9438  -20.9870  -12.3492 C   0  0  0  0  0  0  0  0  0  0  0  0
   26.0444  -21.7446  -12.7917 O   0  0  0  0  0  0  0  0  0  0  0  0
   25.7683  -15.5590  -17.9114 N   0  0  0  0  0  0  0  0  0  0  0  0
   26.8416  -20.5914  -10.9952 C   0  0  2  0  0  0  0  0  0  0  0  0
   25.7202  -20.8601  -10.1455 C   0  0  0  0  0  0  0  0  0  0  0  0
   25.8813  -20.4420   -8.7158 C   0  0  0  0  0  0  0  0  0  0  0  0
   27.2637  -20.6283   -8.2680 C   0  0  0  0  0  0  0  0  0  0  0  0
   28.3178  -21.2913   -8.8694 N   0  0  0  0  0  0  0  0  0  0  0  0
   29.3996  -21.1946   -8.0809 C   0  0  0  0  0  0  0  0  0  0  0  0
   29.1290  -20.4949   -6.9686 C   0  0  0  0  0  0  0  0  0  0  0  0
   29.9128  -20.1393   -5.8853 C   0  0  0  0  0  0  0  0  0  0  0  0
   29.3386  -19.3929   -4.8648 C   0  0  0  0  0  0  0  0  0  0  0  0
   28.0287  -19.0210   -4.9353 C   0  0  0  0  0  0  0  0  0  0  0  0
   27.2688  -19.3964   -6.0410 C   0  0  0  0  0  0  0  0  0  0  0  0
   27.8043  -20.1374   -7.0735 C   0  0  0  0  0  0  0  0  0  0  0  0
   24.4453  -20.3257  -10.7068 O   0  0  0  0  0  0  0  0  0  0  0  0
   24.3216  -19.0968  -10.9209 C   0  0  0  0  0  0  0  0  0  0  0  0
   20.1384  -21.8980  -14.6704 C   0  0  0  0  0  0  0  0  0  0  0  0
   20.5889  -21.0367  -13.5248 C   0  0  2  0  0  0  0  0  0  0  0  0
   21.7286  -21.6630  -12.7653 C   0  0  0  0  0  0  0  0  0  0  0  0
   21.4190  -23.0344  -12.2605 C   0  0  2  0  0  0  0  0  0  0  0  0
   22.1367  -20.6922  -11.6760 N   0  0  0  0  0  0  0  0  0  0  0  0
   23.3399  -21.1594  -11.0177 C   0  0  0  0  0  0  0  0  0  0  0  0
   21.0447  -20.6280  -10.6898 O   0  0  0  0  0  0  0  0  0  0  0  0
   19.9865  -19.7660  -10.9130 O   0  0  0  0  0  0  0  0  0  0  0  0
  2  1  1  0
  3  2  2  0
  4  2  1  0
  5  4  1  0
  6  5  1  0
  7  6  1  0
  7  8  1  0
  8  9  1  6
 10  8  1  0
 11 10  2  0
 12 10  1  0
 13 12  1  0
 13 24  1  0
 13 14  1  6
 15 23  1  0
 15 14  1  0
 16 15  2  0
 17 16  1  0
 17 18  1  0
 18 23  2  0
 19 18  1  0
 19 20  2  0
 20 21  1  0
 21 22  2  0
 23 22  1  0
 24 31  1  0
 25 24  2  0
 26 27  1  0
 28 29  1  6
 28 27  1  0
 30 28  1  0
 30 32  1  0
 30 31  1  1
 32 34  2  0
 32 33  1  0
M  END
$$$$
