RWI.pdb
     RDKit          3D

 34 35  0  0  1  0  0  0  0  0999 V2000
   28.5378  -26.4135  -16.0293 N   0  0  0  0  0  0  0  0  0  0  0  0
   29.8559  -26.0906  -16.4633 C   0  0  0  0  0  0  0  0  0  0  0  0
   30.5807  -26.9489  -17.0956 N   0  0  0  0  0  0  0  0  0  0  0  0
   30.3889  -24.7875  -16.1897 N   0  0  0  0  0  0  0  0  0  0  0  0
   29.6151  -23.7889  -15.4778 C   0  0  0  0  0  0  0  0  0  0  0  0
   29.1819  -22.7407  -16.4398 C   0  0  0  0  0  0  0  0  0  0  0  0
   28.4437  -21.5825  -15.8892 C   0  0  0  0  0  0  0  0  0  0  0  0
   26.9609  -21.6691  -15.8486 C   0  0  2  0  0  0  0  0  0  0  0  0
   26.3684  -21.3027  -17.0999 N   0  0  0  0  0  0  0  0  0  0  0  0
   26.3463  -20.8979  -14.7485 C   0  0  0  0  0  0  0  0  0  0  0  0
   26.3631  -19.6427  -14.6935 O   0  0  0  0  0  0  0  0  0  0  0  0
   31.5251  -26.7395  -17.4330 N   0  0  0  0  0  0  0  0  0  0  0  0
   25.7003  -21.5785  -13.6904 C   0  0  2  0  0  0  0  0  0  0  0  0
   25.0716  -20.9439  -12.5708 C   0  0  0  0  0  0  0  0  0  0  0  0
   23.5742  -20.9110  -12.6068 C   0  0  0  0  0  0  0  0  0  0  0  0
   23.0946  -20.1489  -13.7625 C   0  0  0  0  0  0  0  0  0  0  0  0
   23.2263  -18.8065  -14.0668 N   0  0  0  0  0  0  0  0  0  0  0  0
   22.6201  -18.5642  -15.2394 C   0  0  0  0  0  0  0  0  0  0  0  0
   22.0810  -19.6828  -15.7477 C   0  0  0  0  0  0  0  0  0  0  0  0
   21.3731  -19.9226  -16.9120 C   0  0  0  0  0  0  0  0  0  0  0  0
   20.9371  -21.2152  -17.1715 C   0  0  0  0  0  0  0  0  0  0  0  0
   21.2048  -22.2229  -16.2930 C   0  0  0  0  0  0  0  0  0  0  0  0
   21.9203  -21.9456  -15.1301 C   0  0  0  0  0  0  0  0  0  0  0  0
   22.3694  -20.6747  -14.8386 C   0  0  0  0  0  0  0  0  0  0  0  0
   25.5520  -21.4909  -11.2684 O   0  0  0  0  0  0  0  0  0  0  0  0
   25.6446  -22.7304  -11.1055 C   0  0  0  0  0  0  0  0  0  0  0  0
   28.9399  -18.9654   -7.8101 C   0  0  0  0  0  0  0  0  0  0  0  0
   28.0952  -19.9491   -8.5691 C   0  0  2  0  0  0  0  0  0  0  0  0
   26.7285  -20.1064   -7.9563 C   0  0  0  0  0  0  0  0  0  0  0  0
   26.7690  -20.4574   -6.5049 C   0  0  2  0  0  0  0  0  0  0  0  0
   25.9635  -21.1041   -8.8017 N   0  0  0  0  0  0  0  0  0  0  0  0
   25.9180  -20.6579  -10.1795 C   0  0  0  0  0  0  0  0  0  0  0  0
   24.5892  -21.1862   -8.2787 O   0  0  0  0  0  0  0  0  0  0  0  0
   24.2197  -22.2875   -7.5282 O   0  0  0  0  0  0  0  0  0  0  0  0
  2  1  1  0
  3  2  2  0
  4  2  1  0
  5  4  1  0
  6  5  1  0
  7  6  1  0
  7  8  1  0
  8  9  1  6
 10  8  1  0
 11 10  2  0
 12 10  1  0
 13 12  1  0
 13 24  1  0
 13 14  1  6
 15 23  1  0
 15 14  1  0
 16 15  2  0
 17 16  1  0
 17 18  1  0
 18 23  2  0
 19 18  1  0
 19 20  2  0
 20 21  1  0
 21 22  2  0
 23 22  1  0
 24 31  1  0
 25 24  2  0
 26 27  1  0
 28 29  1  6
 28 27  1  0
 30 28  1  0
 30 32  1  0
 30 31  1  6
 32 34  2  0
 32 33  1  0
M  END
$$$$
