SWI.pdb
     RDKit          3D

 29 30  0  0  1  0  0  0  0  0999 V2000
   12.2857  -18.6584   21.6686 O   0  0  0  0  0  0  0  0  0  0  0  0
   12.5146  -17.7652   20.6352 C   0  0  0  0  0  0  0  0  0  0  0  0
   11.2363  -17.0271   20.2780 C   0  0  2  0  0  0  0  0  0  0  0  0
   11.4465  -16.0816   19.2078 N   0  0  0  0  0  0  0  0  0  0  0  0
   10.6829  -16.3018   21.4400 C   0  0  0  0  0  0  0  0  0  0  0  0
   11.1605  -15.1715   21.7974 O   0  0  0  0  0  0  0  0  0  0  0  0
    9.6113  -16.7977   22.2182 N   0  0  0  0  0  0  0  0  0  0  0  0
    9.1037  -16.0621   23.3407 C   0  0  1  0  0  0  0  0  0  0  0  0
    7.6614  -16.4288   23.5702 C   0  0  0  0  0  0  0  0  0  0  0  0
    6.9452  -15.6086   24.5373 C   0  0  0  0  0  0  0  0  0  0  0  0
    5.9940  -16.0247   25.4840 C   0  0  0  0  0  0  0  0  0  0  0  0
    5.5973  -14.9816   26.2104 N   0  0  0  0  0  0  0  0  0  0  0  0
    6.2485  -13.8897   25.7812 C   0  0  0  0  0  0  0  0  0  0  0  0
    6.1659  -12.5823   26.2172 C   0  0  0  0  0  0  0  0  0  0  0  0
    6.9108  -11.5840   25.6434 C   0  0  0  0  0  0  0  0  0  0  0  0
    7.7498  -11.9108   24.6154 C   0  0  0  0  0  0  0  0  0  0  0  0
    7.8265  -13.2368   24.1815 C   0  0  0  0  0  0  0  0  0  0  0  0
    7.0868  -14.2588   24.7452 C   0  0  0  0  0  0  0  0  0  0  0  0
    9.8583  -16.4708   24.5523 C   0  0  0  0  0  0  0  0  0  0  0  0
   10.5117  -17.5427   24.5439 O   0  0  0  0  0  0  0  0  0  0  0  0
    9.7448  -13.5569   29.6658 C   0  0  0  0  0  0  0  0  0  0  0  0
    9.6797  -14.6497   28.6759 C   0  0  0  0  0  0  0  0  0  0  0  0
   10.8355  -14.9569   27.8278 C   0  0  2  0  0  0  0  0  0  0  0  0
   11.3808  -13.7137   27.1164 C   0  0  0  0  0  0  0  0  0  0  0  0
   10.7128  -16.1117   26.9215 C   0  0  2  0  0  0  0  0  0  0  0  0
    9.8866  -15.7093   25.7398 N   0  0  0  0  0  0  0  0  0  0  0  0
   10.1948  -17.3745   27.3555 C   0  0  0  0  0  0  0  0  0  0  0  0
    9.0567  -17.8185   27.1135 O   0  0  0  0  0  0  0  0  0  0  0  0
   10.9916  -18.2470   28.1316 O   0  0  0  0  0  0  0  0  0  0  0  0
  1  2  1  0
  2  3  1  0
  3  5  1  0
  3  4  1  6
  5  6  2  0
  7  8  1  0
  7  5  1  0
  8  9  1  1
 10 18  1  0
 10  9  1  0
 11 10  2  0
 12 11  1  0
 12 13  1  0
 13 18  2  0
 14 13  1  0
 14 15  2  0
 15 16  1  0
 16 17  2  0
 18 17  1  0
 19  8  1  0
 19 20  2  0
 21 22  1  0
 22 23  1  0
 23 25  1  0
 23 24  1  6
 25 27  1  0
 25 26  1  6
 26 19  1  0
 27 29  1  0
 28 27  2  0
M  END
$$$$
