SWI.pdb
     RDKit          3D

 29 30  0  0  1  0  0  0  0  0999 V2000
   12.8037  -17.8682   20.8182 O   0  0  0  0  0  0  0  0  0  0  0  0
   11.5799  -18.3227   20.3558 C   0  0  0  0  0  0  0  0  0  0  0  0
   10.6350  -17.1574   20.1198 C   0  0  2  0  0  0  0  0  0  0  0  0
   11.1919  -16.1961   19.1983 N   0  0  0  0  0  0  0  0  0  0  0  0
   10.3047  -16.4598   21.3795 C   0  0  0  0  0  0  0  0  0  0  0  0
   10.8534  -15.3444   21.6763 O   0  0  0  0  0  0  0  0  0  0  0  0
    9.3800  -16.9674   22.3212 N   0  0  0  0  0  0  0  0  0  0  0  0
    8.9827  -16.1968   23.4645 C   0  0  1  0  0  0  0  0  0  0  0  0
    7.6401  -16.6751   23.9503 C   0  0  0  0  0  0  0  0  0  0  0  0
    6.8453  -15.6972   24.6803 C   0  0  0  0  0  0  0  0  0  0  0  0
    5.6667  -15.9181   25.4127 C   0  0  0  0  0  0  0  0  0  0  0  0
    5.2618  -14.7770   25.9669 N   0  0  0  0  0  0  0  0  0  0  0  0
    6.1264  -13.8078   25.6293 C   0  0  0  0  0  0  0  0  0  0  0  0
    6.1224  -12.4663   25.9555 C   0  0  0  0  0  0  0  0  0  0  0  0
    7.0966  -11.6131   25.5041 C   0  0  0  0  0  0  0  0  0  0  0  0
    8.0875  -12.1218   24.7125 C   0  0  0  0  0  0  0  0  0  0  0  0
    8.0829  -13.4810   24.3882 C   0  0  0  0  0  0  0  0  0  0  0  0
    7.1128  -14.3591   24.8324 C   0  0  0  0  0  0  0  0  0  0  0  0
    9.9570  -16.4397   24.5582 C   0  0  0  0  0  0  0  0  0  0  0  0
   10.8422  -17.3186   24.4166 O   0  0  0  0  0  0  0  0  0  0  0  0
    9.6491  -13.8844   29.8450 C   0  0  0  0  0  0  0  0  0  0  0  0
    9.7685  -14.9385   28.8187 C   0  0  0  0  0  0  0  0  0  0  0  0
   10.8719  -14.9172   27.8534 C   0  0  2  0  0  0  0  0  0  0  0  0
   11.0445  -13.5422   27.1986 C   0  0  0  0  0  0  0  0  0  0  0  0
   10.9244  -16.0149   26.8725 C   0  0  2  0  0  0  0  0  0  0  0  0
    9.9481  -15.7256   25.7751 N   0  0  0  0  0  0  0  0  0  0  0  0
   10.7124  -17.3825   27.2411 C   0  0  0  0  0  0  0  0  0  0  0  0
    9.6852  -18.0489   27.0132 O   0  0  0  0  0  0  0  0  0  0  0  0
   11.7164  -18.1034   27.9272 O   0  0  0  0  0  0  0  0  0  0  0  0
  1  2  1  0
  2  3  1  0
  3  5  1  0
  3  4  1  6
  5  6  2  0
  7  8  1  0
  7  5  1  0
  8  9  1  1
 10 18  1  0
 10  9  1  0
 11 10  2  0
 12 11  1  0
 12 13  1  0
 13 18  2  0
 14 13  1  0
 14 15  2  0
 15 16  1  0
 16 17  2  0
 18 17  1  0
 19  8  1  0
 19 20  2  0
 21 22  1  0
 22 23  1  0
 23 25  1  0
 23 24  1  6
 25 27  1  0
 25 26  1  6
 26 19  1  0
 27 29  1  0
 28 27  2  0
M  END
$$$$
