SWI.pdb
     RDKit          3D

 29 30  0  0  1  0  0  0  0  0999 V2000
   13.1014  -17.8472   21.1361 O   0  0  0  0  0  0  0  0  0  0  0  0
   11.9088  -18.1371   20.4944 C   0  0  0  0  0  0  0  0  0  0  0  0
   11.1157  -16.8657   20.2472 C   0  0  2  0  0  0  0  0  0  0  0  0
   11.8837  -15.8920   19.5087 N   0  0  0  0  0  0  0  0  0  0  0  0
   10.6698  -16.2469   21.5125 C   0  0  0  0  0  0  0  0  0  0  0  0
   11.2725  -15.2278   21.9937 O   0  0  0  0  0  0  0  0  0  0  0  0
    9.5709  -16.7294   22.2604 N   0  0  0  0  0  0  0  0  0  0  0  0
    9.0885  -16.0250   23.4136 C   0  0  1  0  0  0  0  0  0  0  0  0
    7.7111  -16.5216   23.7651 C   0  0  0  0  0  0  0  0  0  0  0  0
    6.9215  -15.6470   24.6210 C   0  0  0  0  0  0  0  0  0  0  0  0
    5.8508  -15.9991   25.4599 C   0  0  0  0  0  0  0  0  0  0  0  0
    5.4152  -14.9210   26.1088 N   0  0  0  0  0  0  0  0  0  0  0  0
    6.1557  -13.8673   25.7317 C   0  0  0  0  0  0  0  0  0  0  0  0
    6.0763  -12.5456   26.1225 C   0  0  0  0  0  0  0  0  0  0  0  0
    6.9228  -11.5932   25.6152 C   0  0  0  0  0  0  0  0  0  0  0  0
    7.8613  -11.9813   24.7009 C   0  0  0  0  0  0  0  0  0  0  0  0
    7.9338  -13.3215   24.3120 C   0  0  0  0  0  0  0  0  0  0  0  0
    7.0928  -14.2980   24.8105 C   0  0  0  0  0  0  0  0  0  0  0  0
    9.9746  -16.3394   24.5627 C   0  0  0  0  0  0  0  0  0  0  0  0
   10.8072  -17.2740   24.4665 O   0  0  0  0  0  0  0  0  0  0  0  0
    9.7512  -14.6146   30.1258 C   0  0  0  0  0  0  0  0  0  0  0  0
    9.6843  -14.5850   28.6517 C   0  0  0  0  0  0  0  0  0  0  0  0
   10.8876  -14.8152   27.8462 C   0  0  2  0  0  0  0  0  0  0  0  0
   11.3943  -13.5317   27.1790 C   0  0  0  0  0  0  0  0  0  0  0  0
   10.8622  -15.9571   26.9160 C   0  0  2  0  0  0  0  0  0  0  0  0
    9.9369  -15.6344   25.7844 N   0  0  0  0  0  0  0  0  0  0  0  0
   10.5233  -17.2827   27.3393 C   0  0  0  0  0  0  0  0  0  0  0  0
   11.2417  -18.0368   28.0220 O   0  0  0  0  0  0  0  0  0  0  0  0
    9.2773  -17.8505   26.9873 O   0  0  0  0  0  0  0  0  0  0  0  0
  1  2  1  0
  2  3  1  0
  3  5  1  0
  3  4  1  1
  5  6  2  0
  7  8  1  0
  7  5  1  0
  8  9  1  1
 10 18  1  0
 10  9  1  0
 11 10  2  0
 12 11  1  0
 12 13  1  0
 13 18  2  0
 14 13  1  0
 14 15  2  0
 15 16  1  0
 16 17  2  0
 18 17  1  0
 19  8  1  0
 19 20  2  0
 21 22  1  0
 22 23  1  0
 23 25  1  0
 23 24  1  6
 25 27  1  0
 25 26  1  6
 26 19  1  0
 27 29  1  0
 28 27  2  0
M  END
$$$$
