SWI.pdb
     RDKit          3D

 29 30  0  0  1  0  0  0  0  0999 V2000
    6.9606  -20.1659   20.9583 O   0  0  0  0  0  0  0  0  0  0  0  0
    5.6643  -20.4551   21.3504 C   0  0  0  0  0  0  0  0  0  0  0  0
    5.4477  -20.0614   22.8012 C   0  0  2  0  0  0  0  0  0  0  0  0
    4.0952  -20.3259   23.2304 N   0  0  0  0  0  0  0  0  0  0  0  0
    5.7380  -18.6305   23.0268 C   0  0  0  0  0  0  0  0  0  0  0  0
    4.8898  -17.7296   22.7070 O   0  0  0  0  0  0  0  0  0  0  0  0
    6.9468  -18.1709   23.5988 N   0  0  0  0  0  0  0  0  0  0  0  0
    7.2837  -16.7762   23.6066 C   0  0  1  0  0  0  0  0  0  0  0  0
    7.8738  -16.4099   24.9427 C   0  0  0  0  0  0  0  0  0  0  0  0
    7.1369  -15.4150   25.7095 C   0  0  0  0  0  0  0  0  0  0  0  0
    5.9404  -15.5908   26.4249 C   0  0  0  0  0  0  0  0  0  0  0  0
    5.6045  -14.4507   27.0254 N   0  0  0  0  0  0  0  0  0  0  0  0
    6.5321  -13.5255   26.7350 C   0  0  0  0  0  0  0  0  0  0  0  0
    6.6111  -12.2017   27.1187 C   0  0  0  0  0  0  0  0  0  0  0  0
    7.6417  -11.3944   26.7101 C   0  0  0  0  0  0  0  0  0  0  0  0
    8.6048  -11.9315   25.9031 C   0  0  0  0  0  0  0  0  0  0  0  0
    8.5161  -13.2725   25.5204 C   0  0  0  0  0  0  0  0  0  0  0  0
    7.4881  -14.1046   25.9208 C   0  0  0  0  0  0  0  0  0  0  0  0
    8.3333  -16.5391   22.5836 C   0  0  0  0  0  0  0  0  0  0  0  0
    8.9966  -17.5079   22.1394 O   0  0  0  0  0  0  0  0  0  0  0  0
    7.3827  -12.0027   19.6709 C   0  0  0  0  0  0  0  0  0  0  0  0
    7.7519  -13.3703   20.0854 C   0  0  0  0  0  0  0  0  0  0  0  0
    9.1589  -13.7391   20.2691 C   0  0  2  0  0  0  0  0  0  0  0  0
   10.0073  -13.4287   19.0310 C   0  0  0  0  0  0  0  0  0  0  0  0
    9.4339  -15.0797   20.8142 C   0  0  2  0  0  0  0  0  0  0  0  0
    8.6370  -15.2612   22.0684 N   0  0  0  0  0  0  0  0  0  0  0  0
   10.7604  -15.5251   21.1198 C   0  0  0  0  0  0  0  0  0  0  0  0
   11.2919  -15.5163   22.2460 O   0  0  0  0  0  0  0  0  0  0  0  0
   11.5982  -16.0329   20.1005 O   0  0  0  0  0  0  0  0  0  0  0  0
  1  2  1  0
  2  3  1  0
  3  5  1  0
  3  4  1  6
  5  6  2  0
  7  8  1  0
  7  5  1  0
  8  9  1  1
 10 18  1  0
 10  9  1  0
 11 10  2  0
 12 11  1  0
 12 13  1  0
 13 18  2  0
 14 13  1  0
 14 15  2  0
 15 16  1  0
 16 17  2  0
 18 17  1  0
 19  8  1  0
 19 20  2  0
 21 22  1  0
 22 23  1  0
 23 25  1  0
 23 24  1  6
 25 27  1  0
 25 26  1  1
 26 19  1  0
 27 29  1  0
 28 27  2  0
M  END
$$$$
