SWI.pdb
     RDKit          3D

 29 30  0  0  1  0  0  0  0  0999 V2000
   13.1882  -18.1157   21.5462 O   0  0  0  0  0  0  0  0  0  0  0  0
   12.0905  -18.2592   20.7141 C   0  0  0  0  0  0  0  0  0  0  0  0
   11.5095  -16.9009   20.3619 C   0  0  2  0  0  0  0  0  0  0  0  0
   12.5019  -16.0304   19.7781 N   0  0  0  0  0  0  0  0  0  0  0  0
   10.9378  -16.2289   21.5469 C   0  0  0  0  0  0  0  0  0  0  0  0
   11.5503  -15.2602   22.1123 O   0  0  0  0  0  0  0  0  0  0  0  0
    9.7019  -16.6035   22.1231 N   0  0  0  0  0  0  0  0  0  0  0  0
    9.1446  -15.8766   23.2275 C   0  0  1  0  0  0  0  0  0  0  0  0
    7.6616  -16.1279   23.2966 C   0  0  0  0  0  0  0  0  0  0  0  0
    6.9442  -15.4046   24.3373 C   0  0  0  0  0  0  0  0  0  0  0  0
    6.0624  -15.9266   25.2986 C   0  0  0  0  0  0  0  0  0  0  0  0
    5.6399  -14.9493   26.0983 N   0  0  0  0  0  0  0  0  0  0  0  0
    6.2072  -13.7991   25.7036 C   0  0  0  0  0  0  0  0  0  0  0  0
    6.0696  -12.5241   26.2150 C   0  0  0  0  0  0  0  0  0  0  0  0
    6.7293  -11.4539   25.6669 C   0  0  0  0  0  0  0  0  0  0  0  0
    7.5381  -11.6747   24.5878 C   0  0  0  0  0  0  0  0  0  0  0  0
    7.6709  -12.9689   24.0777 C   0  0  0  0  0  0  0  0  0  0  0  0
    7.0174  -14.0618   24.6142 C   0  0  0  0  0  0  0  0  0  0  0  0
    9.7374  -16.4008   24.4839 C   0  0  0  0  0  0  0  0  0  0  0  0
   10.3130  -17.5164   24.4799 O   0  0  0  0  0  0  0  0  0  0  0  0
   10.5481  -12.5474   28.3074 C   0  0  0  0  0  0  0  0  0  0  0  0
   10.7490  -13.7136   27.4253 C   0  0  0  0  0  0  0  0  0  0  0  0
   10.4663  -15.0694   27.9065 C   0  0  2  0  0  0  0  0  0  0  0  0
   11.2820  -15.4248   29.1545 C   0  0  0  0  0  0  0  0  0  0  0  0
   10.4750  -16.1503   26.9057 C   0  0  2  0  0  0  0  0  0  0  0  0
    9.6921  -15.7045   25.7103 N   0  0  0  0  0  0  0  0  0  0  0  0
   10.0207  -17.4752   27.2052 C   0  0  0  0  0  0  0  0  0  0  0  0
   10.7374  -18.4294   27.5611 O   0  0  0  0  0  0  0  0  0  0  0  0
    8.6482  -17.8006   27.1095 O   0  0  0  0  0  0  0  0  0  0  0  0
  1  2  1  0
  2  3  1  0
  3  5  1  0
  3  4  1  1
  5  6  2  0
  7  8  1  0
  7  5  1  0
  8  9  1  1
 10 18  1  0
 10  9  1  0
 11 10  2  0
 12 11  1  0
 12 13  1  0
 13 18  2  0
 14 13  1  0
 14 15  2  0
 15 16  1  0
 16 17  2  0
 18 17  1  0
 19  8  1  0
 19 20  2  0
 21 22  1  0
 22 23  1  0
 23 25  1  0
 23 24  1  1
 25 27  1  0
 25 26  1  6
 26 19  1  0
 27 29  1  0
 28 27  2  0
M  END
$$$$
