SWI.pdb
     RDKit          3D

 29 30  0  0  1  0  0  0  0  0999 V2000
   12.9370  -18.2310   20.9890 O   0  0  0  0  0  0  0  0  0  0  0  0
   12.8715  -17.0736   20.2313 C   0  0  0  0  0  0  0  0  0  0  0  0
   11.4253  -16.6772   19.9904 C   0  0  2  0  0  0  0  0  0  0  0  0
   11.2901  -15.8277   18.8314 N   0  0  0  0  0  0  0  0  0  0  0  0
   10.8522  -15.9725   21.1555 C   0  0  0  0  0  0  0  0  0  0  0  0
   11.1748  -14.7636   21.4162 O   0  0  0  0  0  0  0  0  0  0  0  0
    9.9287  -16.5739   22.0415 N   0  0  0  0  0  0  0  0  0  0  0  0
    9.2965  -15.8177   23.0843 C   0  0  1  0  0  0  0  0  0  0  0  0
    7.8401  -16.1919   23.1633 C   0  0  0  0  0  0  0  0  0  0  0  0
    7.0643  -15.5056   24.1871 C   0  0  0  0  0  0  0  0  0  0  0  0
    6.2878  -16.0780   25.2086 C   0  0  0  0  0  0  0  0  0  0  0  0
    5.7635  -15.1168   25.9665 N   0  0  0  0  0  0  0  0  0  0  0  0
    6.1621  -13.9289   25.4861 C   0  0  0  0  0  0  0  0  0  0  0  0
    5.8724  -12.6537   25.9289 C   0  0  0  0  0  0  0  0  0  0  0  0
    6.3685  -11.5425   25.2966 C   0  0  0  0  0  0  0  0  0  0  0  0
    7.1673  -11.7219   24.2025 C   0  0  0  0  0  0  0  0  0  0  0  0
    7.4549  -13.0166   23.7623 C   0  0  0  0  0  0  0  0  0  0  0  0
    6.9676  -14.1503   24.3841 C   0  0  0  0  0  0  0  0  0  0  0  0
    9.9167  -16.1923   24.3803 C   0  0  0  0  0  0  0  0  0  0  0  0
   10.4739  -17.3107   24.5011 O   0  0  0  0  0  0  0  0  0  0  0  0
   10.8262  -13.7959   30.1275 C   0  0  0  0  0  0  0  0  0  0  0  0
   10.9952  -14.8360   29.0939 C   0  0  0  0  0  0  0  0  0  0  0  0
   10.5422  -14.6014   27.7194 C   0  0  2  0  0  0  0  0  0  0  0  0
    9.2278  -13.8148   27.6672 C   0  0  0  0  0  0  0  0  0  0  0  0
   10.5380  -15.7594   26.8090 C   0  0  2  0  0  0  0  0  0  0  0  0
    9.9179  -15.3473   25.5103 N   0  0  0  0  0  0  0  0  0  0  0  0
    9.9297  -17.0076   27.1601 C   0  0  0  0  0  0  0  0  0  0  0  0
    8.7653  -17.3545   26.8864 O   0  0  0  0  0  0  0  0  0  0  0  0
   10.6574  -17.9813   27.8819 O   0  0  0  0  0  0  0  0  0  0  0  0
  1  2  1  0
  2  3  1  0
  3  5  1  0
  3  4  1  6
  5  6  2  0
  7  8  1  0
  7  5  1  0
  8  9  1  1
 10 18  1  0
 10  9  1  0
 11 10  2  0
 12 11  1  0
 12 13  1  0
 13 18  2  0
 14 13  1  0
 14 15  2  0
 15 16  1  0
 16 17  2  0
 18 17  1  0
 19  8  1  0
 19 20  2  0
 21 22  1  0
 22 23  1  0
 23 25  1  0
 23 24  1  1
 25 27  1  0
 25 26  1  6
 26 19  1  0
 27 29  1  0
 28 27  2  0
M  END
$$$$
