SWI.pdb
     RDKit          3D

 29 30  0  0  1  0  0  0  0  0999 V2000
   13.2142  -19.2533   21.5949 O   0  0  0  0  0  0  0  0  0  0  0  0
   11.9511  -19.3318   21.0324 C   0  0  0  0  0  0  0  0  0  0  0  0
   11.5032  -17.9669   20.5394 C   0  0  2  0  0  0  0  0  0  0  0  0
   12.5128  -17.3358   19.7234 N   0  0  0  0  0  0  0  0  0  0  0  0
   11.1766  -17.0626   21.6610 C   0  0  0  0  0  0  0  0  0  0  0  0
   11.9268  -16.0668   21.9422 O   0  0  0  0  0  0  0  0  0  0  0  0
   10.0374  -17.2334   22.4813 N   0  0  0  0  0  0  0  0  0  0  0  0
    9.6589  -16.2409   23.4458 C   0  0  1  0  0  0  0  0  0  0  0  0
    8.1623  -16.0752   23.4345 C   0  0  0  0  0  0  0  0  0  0  0  0
    7.6766  -14.7024   23.4597 C   0  0  0  0  0  0  0  0  0  0  0  0
    7.6375  -13.7822   22.3985 C   0  0  0  0  0  0  0  0  0  0  0  0
    7.0871  -12.6426   22.8124 N   0  0  0  0  0  0  0  0  0  0  0  0
    6.7605  -12.7715   24.1076 C   0  0  0  0  0  0  0  0  0  0  0  0
    6.1767  -11.8624   24.9670 C   0  0  0  0  0  0  0  0  0  0  0  0
    5.9241  -12.1721   26.2789 C   0  0  0  0  0  0  0  0  0  0  0  0
    6.2661  -13.4165   26.7283 C   0  0  0  0  0  0  0  0  0  0  0  0
    6.8563  -14.3297   25.8506 C   0  0  0  0  0  0  0  0  0  0  0  0
    7.1188  -14.0401   24.5252 C   0  0  0  0  0  0  0  0  0  0  0  0
   10.0361  -16.7283   24.7966 C   0  0  0  0  0  0  0  0  0  0  0  0
   10.5315  -17.8744   24.9265 O   0  0  0  0  0  0  0  0  0  0  0  0
   10.3337  -12.7040   28.6159 C   0  0  0  0  0  0  0  0  0  0  0  0
   10.6138  -13.8667   27.7508 C   0  0  0  0  0  0  0  0  0  0  0  0
   10.3397  -15.2283   28.2204 C   0  0  2  0  0  0  0  0  0  0  0  0
   10.9921  -15.5174   29.5768 C   0  0  0  0  0  0  0  0  0  0  0  0
   10.5445  -16.3229   27.2561 C   0  0  2  0  0  0  0  0  0  0  0  0
    9.8678  -15.9632   25.9702 N   0  0  0  0  0  0  0  0  0  0  0  0
   10.1643  -17.6744   27.5393 C   0  0  0  0  0  0  0  0  0  0  0  0
   10.8976  -18.5500   28.0359 O   0  0  0  0  0  0  0  0  0  0  0  0
    8.8544  -18.1245   27.2558 O   0  0  0  0  0  0  0  0  0  0  0  0
  1  2  1  0
  2  3  1  0
  3  5  1  0
  3  4  1  1
  5  6  2  0
  7  8  1  0
  7  5  1  0
  8  9  1  1
 10 18  1  0
 10  9  1  0
 11 10  2  0
 12 11  1  0
 12 13  1  0
 13 18  2  0
 14 13  1  0
 14 15  2  0
 15 16  1  0
 16 17  2  0
 18 17  1  0
 19  8  1  0
 19 20  2  0
 21 22  1  0
 22 23  1  0
 23 25  1  0
 23 24  1  1
 25 27  1  0
 25 26  1  6
 26 19  1  0
 27 29  1  0
 28 27  2  0
M  END
$$$$
