ESR.pdb
     RDKit          3D

 27 26  0  0  1  0  0  0  0  0999 V2000
   19.1097  -17.4460  -17.5781 N   0  0  0  0  0  0  0  0  0  0  0  0
   20.1386  -18.2395  -18.1594 C   0  0  1  0  0  0  0  0  0  0  0  0
   21.1617  -17.4182  -18.8434 C   0  0  0  0  0  0  0  0  0  0  0  0
   21.8372  -16.3839  -18.0069 C   0  0  0  0  0  0  0  0  0  0  0  0
   23.2623  -16.5763  -17.7236 C   0  0  0  0  0  0  0  0  0  0  0  0
   23.8349  -17.6602  -17.4763 O   0  0  0  0  0  0  0  0  0  0  0  0
   20.7118  -19.1023  -17.0868 C   0  0  0  0  0  0  0  0  0  0  0  0
   20.5645  -18.8215  -15.8634 O   0  0  0  0  0  0  0  0  0  0  0  0
   24.1358  -15.4542  -17.7150 O   0  0  0  0  0  0  0  0  0  0  0  0
   23.1947  -22.3183  -18.0014 O   0  0  0  0  0  0  0  0  0  0  0  0
   22.2464  -22.4838  -16.9827 C   0  0  0  0  0  0  0  0  0  0  0  0
   22.0308  -21.1034  -16.3417 C   0  0  2  0  0  0  0  0  0  0  0  0
   21.4526  -20.2837  -17.3675 N   0  0  0  0  0  0  0  0  0  0  0  0
   23.3487  -20.6543  -15.8685 C   0  0  0  0  0  0  0  0  0  0  0  0
   24.1492  -19.9309  -16.4967 O   0  0  0  0  0  0  0  0  0  0  0  0
   27.0739  -20.8290   -7.6121 N   0  0  0  0  0  0  0  0  0  0  0  0
   25.8332  -20.8453   -8.2809 C   0  0  0  0  0  0  0  0  0  0  0  0
   24.7423  -21.1249   -7.6413 N   0  0  0  0  0  0  0  0  0  0  0  0
   25.7613  -20.5590   -9.6699 N   0  0  0  0  0  0  0  0  0  0  0  0
   26.7255  -21.0980  -10.5838 C   0  0  0  0  0  0  0  0  0  0  0  0
   26.5040  -20.7478  -12.0146 C   0  0  0  0  0  0  0  0  0  0  0  0
   25.1648  -21.1204  -12.5715 C   0  0  0  0  0  0  0  0  0  0  0  0
   25.0271  -20.6982  -14.0203 C   0  0  2  0  0  0  0  0  0  0  0  0
   23.7440  -21.0894  -14.5695 N   0  0  0  0  0  0  0  0  0  0  0  0
   26.0845  -21.4141  -14.7784 C   0  0  0  0  0  0  0  0  0  0  0  0
   25.9568  -22.6185  -15.1214 O   0  0  0  0  0  0  0  0  0  0  0  0
   27.2694  -20.7833  -15.1457 O   0  0  0  0  0  0  0  0  0  0  0  0
  2  3  1  0
  2  1  1  1
  3  4  1  0
  4  5  1  0
  5  6  2  0
  5  9  1  0
  7  2  1  0
  7  8  2  0
 10 11  1  0
 12 11  1  6
 12 13  1  0
 12 14  1  0
 13  7  1  0
 14 24  1  0
 15 14  2  0
 16 17  1  0
 17 18  2  0
 19 20  1  0
 19 17  1  0
 21 22  1  0
 21 20  1  0
 23 22  1  1
 23 25  1  0
 24 23  1  0
 25 26  2  0
 25 27  1  0
M  END
$$$$
