ESR.pdb
     RDKit          3D

 27 26  0  0  1  0  0  0  0  0999 V2000
   25.3772  -20.6183  -16.4938 N   0  0  0  0  0  0  0  0  0  0  0  0
   23.9727  -20.4895  -16.6861 C   0  0  1  0  0  0  0  0  0  0  0  0
   23.4248  -21.5570  -17.5518 C   0  0  0  0  0  0  0  0  0  0  0  0
   23.8833  -21.5484  -18.9714 C   0  0  0  0  0  0  0  0  0  0  0  0
   23.2268  -20.6066  -19.8825 C   0  0  0  0  0  0  0  0  0  0  0  0
   22.3211  -19.7948  -19.5920 O   0  0  0  0  0  0  0  0  0  0  0  0
   23.3290  -20.4475  -15.3417 C   0  0  0  0  0  0  0  0  0  0  0  0
   23.7919  -21.1049  -14.3666 O   0  0  0  0  0  0  0  0  0  0  0  0
   23.6155  -20.5632  -21.2497 O   0  0  0  0  0  0  0  0  0  0  0  0
   20.0291  -18.1186  -14.7878 O   0  0  0  0  0  0  0  0  0  0  0  0
   20.8541  -18.2872  -13.6674 C   0  0  0  0  0  0  0  0  0  0  0  0
   21.5095  -19.6717  -13.7969 C   0  0  2  0  0  0  0  0  0  0  0  0
   22.1662  -19.6738  -15.0726 N   0  0  0  0  0  0  0  0  0  0  0  0
   20.4271  -20.6581  -13.6631 C   0  0  0  0  0  0  0  0  0  0  0  0
   19.8137  -21.2098  -14.6003 O   0  0  0  0  0  0  0  0  0  0  0  0
   18.2091  -25.5274   -6.5383 N   0  0  0  0  0  0  0  0  0  0  0  0
   18.5206  -26.2408   -7.7134 C   0  0  0  0  0  0  0  0  0  0  0  0
   18.8291  -27.4976   -7.6603 N   0  0  0  0  0  0  0  0  0  0  0  0
   18.5054  -25.5897   -8.9752 N   0  0  0  0  0  0  0  0  0  0  0  0
   18.0630  -24.2316   -9.0979 C   0  0  0  0  0  0  0  0  0  0  0  0
   18.1148  -23.6727  -10.4777 C   0  0  0  0  0  0  0  0  0  0  0  0
   19.0948  -22.5603  -10.6884 C   0  0  0  0  0  0  0  0  0  0  0  0
   19.0364  -22.0274  -12.1057 C   0  0  2  0  0  0  0  0  0  0  0  0
   20.0467  -21.0140  -12.3358 N   0  0  0  0  0  0  0  0  0  0  0  0
   17.7054  -21.3895  -12.2698 C   0  0  0  0  0  0  0  0  0  0  0  0
   17.4885  -20.2024  -11.9116 O   0  0  0  0  0  0  0  0  0  0  0  0
   16.6333  -22.0778  -12.8297 O   0  0  0  0  0  0  0  0  0  0  0  0
  2  3  1  0
  2  1  1  1
  3  4  1  0
  4  5  1  0
  5  6  2  0
  5  9  1  0
  7  2  1  0
  7  8  2  0
 10 11  1  0
 12 11  1  6
 12 13  1  0
 12 14  1  0
 13  7  1  0
 14 24  1  0
 15 14  2  0
 16 17  1  0
 17 18  2  0
 19 20  1  0
 19 17  1  0
 21 22  1  0
 21 20  1  0
 23 22  1  1
 23 25  1  0
 24 23  1  0
 25 26  2  0
 25 27  1  0
M  END
$$$$
