ESR.pdb
     RDKit          3D

 27 26  0  0  1  0  0  0  0  0999 V2000
   20.9132  -10.2861  -15.5663 N   0  0  0  0  0  0  0  0  0  0  0  0
   20.8187   -8.8658  -15.5751 C   0  0  1  0  0  0  0  0  0  0  0  0
   19.7688   -8.3791  -16.4971 C   0  0  0  0  0  0  0  0  0  0  0  0
   19.0063   -9.4290  -17.2333 C   0  0  0  0  0  0  0  0  0  0  0  0
   17.5464   -9.3024  -17.2608 C   0  0  0  0  0  0  0  0  0  0  0  0
   16.8559   -8.4801  -16.6198 O   0  0  0  0  0  0  0  0  0  0  0  0
   20.6098   -8.4129  -14.1698 C   0  0  0  0  0  0  0  0  0  0  0  0
   20.2083   -9.2069  -13.2722 O   0  0  0  0  0  0  0  0  0  0  0  0
   16.7796  -10.1749  -18.0812 O   0  0  0  0  0  0  0  0  0  0  0  0
   20.9229   -4.4437  -13.2670 O   0  0  0  0  0  0  0  0  0  0  0  0
   21.4053   -5.3075  -12.2743 C   0  0  0  0  0  0  0  0  0  0  0  0
   20.6251   -6.6252  -12.4083 C   0  0  2  0  0  0  0  0  0  0  0  0
   20.8462   -7.0736  -13.7531 N   0  0  0  0  0  0  0  0  0  0  0  0
   19.2240   -6.3132  -12.0887 C   0  0  0  0  0  0  0  0  0  0  0  0
   18.3735   -5.8534  -12.8787 O   0  0  0  0  0  0  0  0  0  0  0  0
   12.4735  -10.0258   -8.3331 N   0  0  0  0  0  0  0  0  0  0  0  0
   12.1551   -8.6537   -8.2809 C   0  0  0  0  0  0  0  0  0  0  0  0
   10.9394   -8.2662   -8.0589 N   0  0  0  0  0  0  0  0  0  0  0  0
   13.1639   -7.6736   -8.4760 N   0  0  0  0  0  0  0  0  0  0  0  0
   14.5088   -8.0543   -8.7950 C   0  0  0  0  0  0  0  0  0  0  0  0
   15.4344   -6.9227   -9.0809 C   0  0  0  0  0  0  0  0  0  0  0  0
   16.8065   -7.3097   -9.5392 C   0  0  0  0  0  0  0  0  0  0  0  0
   17.4709   -6.1904  -10.3150 C   0  0  2  0  0  0  0  0  0  0  0  0
   18.8032   -6.5611  -10.7491 N   0  0  0  0  0  0  0  0  0  0  0  0
   17.5986   -5.0402   -9.3843 C   0  0  0  0  0  0  0  0  0  0  0  0
   18.6567   -4.8218   -8.7385 O   0  0  0  0  0  0  0  0  0  0  0  0
   16.5499   -4.1477   -9.1834 O   0  0  0  0  0  0  0  0  0  0  0  0
  2  3  1  0
  2  1  1  1
  3  4  1  0
  4  5  1  0
  5  6  2  0
  5  9  1  0
  7  2  1  0
  7  8  2  0
 10 11  1  0
 12 11  1  6
 12 13  1  0
 12 14  1  0
 13  7  1  0
 14 24  1  0
 15 14  2  0
 16 17  1  0
 17 18  2  0
 19 20  1  0
 19 17  1  0
 21 22  1  0
 21 20  1  0
 23 22  1  1
 23 25  1  0
 24 23  1  0
 25 26  2  0
 25 27  1  0
M  END
$$$$
