ESR.pdb
     RDKit          3D

 27 26  0  0  1  0  0  0  0  0999 V2000
   18.6626  -12.5642  -17.7092 N   0  0  0  0  0  0  0  0  0  0  0  0
   17.6910  -12.8764  -16.7167 C   0  0  1  0  0  0  0  0  0  0  0  0
   17.6176  -14.3281  -16.4406 C   0  0  0  0  0  0  0  0  0  0  0  0
   18.5767  -14.8504  -15.4242 C   0  0  0  0  0  0  0  0  0  0  0  0
   18.5441  -16.2896  -15.1486 C   0  0  0  0  0  0  0  0  0  0  0  0
   17.6085  -16.9273  -14.6179 O   0  0  0  0  0  0  0  0  0  0  0  0
   18.0043  -12.0715  -15.5013 C   0  0  0  0  0  0  0  0  0  0  0  0
   17.3277  -12.1864  -14.4400 O   0  0  0  0  0  0  0  0  0  0  0  0
   19.6605  -17.0983  -15.4976 O   0  0  0  0  0  0  0  0  0  0  0  0
   20.3917   -8.8471  -15.8587 O   0  0  0  0  0  0  0  0  0  0  0  0
   20.6159   -9.5245  -14.6524 C   0  0  0  0  0  0  0  0  0  0  0  0
   19.3260  -10.2929  -14.3227 C   0  0  2  0  0  0  0  0  0  0  0  0
   19.0725  -11.1332  -15.4577 N   0  0  0  0  0  0  0  0  0  0  0  0
   18.2918   -9.2790  -14.0675 C   0  0  0  0  0  0  0  0  0  0  0  0
   17.5124   -8.7933  -14.9133 O   0  0  0  0  0  0  0  0  0  0  0  0
   14.7566   -6.1637   -6.3081 N   0  0  0  0  0  0  0  0  0  0  0  0
   13.9772   -5.7221   -7.3964 C   0  0  0  0  0  0  0  0  0  0  0  0
   12.7977   -5.2231   -7.2039 N   0  0  0  0  0  0  0  0  0  0  0  0
   14.4730   -5.8221   -8.7233 N   0  0  0  0  0  0  0  0  0  0  0  0
   15.4033   -6.8506   -9.0863 C   0  0  0  0  0  0  0  0  0  0  0  0
   15.8580   -6.8189  -10.5045 C   0  0  0  0  0  0  0  0  0  0  0  0
   16.8810   -7.8465  -10.8787 C   0  0  0  0  0  0  0  0  0  0  0  0
   17.1494   -7.8480  -12.3700 C   0  0  2  0  0  0  0  0  0  0  0  0
   18.1729   -8.8105  -12.7261 N   0  0  0  0  0  0  0  0  0  0  0  0
   17.6557   -6.4955  -12.7162 C   0  0  0  0  0  0  0  0  0  0  0  0
   18.8832   -6.2180  -12.6889 O   0  0  0  0  0  0  0  0  0  0  0  0
   16.7925   -5.4692  -13.0884 O   0  0  0  0  0  0  0  0  0  0  0  0
  2  3  1  0
  2  1  1  6
  3  4  1  0
  4  5  1  0
  5  6  2  0
  5  9  1  0
  7  2  1  0
  7  8  2  0
 10 11  1  0
 12 11  1  6
 12 13  1  0
 12 14  1  0
 13  7  1  0
 14 24  1  0
 15 14  2  0
 16 17  1  0
 17 18  2  0
 19 20  1  0
 19 17  1  0
 21 22  1  0
 21 20  1  0
 23 22  1  1
 23 25  1  0
 24 23  1  0
 25 26  2  0
 25 27  1  0
M  END
$$$$
