ESR.pdb
     RDKit          3D

 27 26  0  0  1  0  0  0  0  0999 V2000
   19.3691  -24.5848   -7.0866 N   0  0  0  0  0  0  0  0  0  0  0  0
   18.2152  -24.5397   -7.9190 C   0  0  1  0  0  0  0  0  0  0  0  0
   17.0751  -23.8638   -7.2612 C   0  0  0  0  0  0  0  0  0  0  0  0
   15.8292  -23.7427   -8.0729 C   0  0  0  0  0  0  0  0  0  0  0  0
   15.0361  -24.9594   -8.2697 C   0  0  0  0  0  0  0  0  0  0  0  0
   14.6628  -25.4389   -9.3626 O   0  0  0  0  0  0  0  0  0  0  0  0
   18.6049  -23.8960   -9.2062 C   0  0  0  0  0  0  0  0  0  0  0  0
   19.2751  -22.8247   -9.2333 O   0  0  0  0  0  0  0  0  0  0  0  0
   14.6175  -25.7167   -7.1411 O   0  0  0  0  0  0  0  0  0  0  0  0
   19.0262  -24.5001  -13.9562 O   0  0  0  0  0  0  0  0  0  0  0  0
   18.3417  -24.8920  -12.7976 C   0  0  0  0  0  0  0  0  0  0  0  0
   18.6571  -23.8471  -11.7150 C   0  0  2  0  0  0  0  0  0  0  0  0
   18.2521  -24.4393  -10.4725 N   0  0  0  0  0  0  0  0  0  0  0  0
   17.9179  -22.6304  -12.0837 C   0  0  0  0  0  0  0  0  0  0  0  0
   16.7497  -22.3479  -11.7459 O   0  0  0  0  0  0  0  0  0  0  0  0
   21.4955  -15.6470  -15.2036 N   0  0  0  0  0  0  0  0  0  0  0  0
   20.3087  -15.1425  -14.6346 C   0  0  0  0  0  0  0  0  0  0  0  0
   20.2780  -13.9566  -14.1151 N   0  0  0  0  0  0  0  0  0  0  0  0
   19.1275  -15.9307  -14.6183 N   0  0  0  0  0  0  0  0  0  0  0  0
   19.1282  -17.2692  -15.1318 C   0  0  0  0  0  0  0  0  0  0  0  0
   18.2721  -18.2325  -14.3847 C   0  0  0  0  0  0  0  0  0  0  0  0
   18.9114  -19.5463  -14.0568 C   0  0  0  0  0  0  0  0  0  0  0  0
   17.9526  -20.4658  -13.3279 C   0  0  2  0  0  0  0  0  0  0  0  0
   18.6054  -21.6887  -12.9044 N   0  0  0  0  0  0  0  0  0  0  0  0
   16.8873  -20.8299  -14.2964 C   0  0  0  0  0  0  0  0  0  0  0  0
   15.8218  -20.1666  -14.3932 O   0  0  0  0  0  0  0  0  0  0  0  0
   17.0191  -21.9253  -15.1446 O   0  0  0  0  0  0  0  0  0  0  0  0
  2  3  1  0
  2  1  1  1
  3  4  1  0
  4  5  1  0
  5  6  2  0
  5  9  1  0
  7  2  1  0
  7  8  2  0
 10 11  1  0
 12 11  1  6
 12 13  1  0
 12 14  1  0
 13  7  1  0
 14 24  1  0
 15 14  2  0
 16 17  1  0
 17 18  2  0
 19 20  1  0
 19 17  1  0
 21 22  1  0
 21 20  1  0
 23 22  1  6
 23 25  1  0
 24 23  1  0
 25 26  2  0
 25 27  1  0
M  END
$$$$
