QRL.pdb
     RDKit          3D

 29 28  0  0  1  0  0  0  0  0999 V2000
   24.5759   -8.5190  -23.3165 N   0  0  0  0  0  0  0  0  0  0  0  0
   24.9360   -9.8565  -23.0178 C   0  0  0  0  0  0  0  0  0  0  0  0
   25.9376  -10.3420  -23.5962 O   0  0  0  0  0  0  0  0  0  0  0  0
   24.1429  -10.6492  -22.0475 C   0  0  0  0  0  0  0  0  0  0  0  0
   22.9925   -9.9106  -21.4785 C   0  0  0  0  0  0  0  0  0  0  0  0
   22.8683   -9.8617  -19.9936 C   0  0  2  0  0  0  0  0  0  0  0  0
   22.5342  -11.2454  -19.5734 N   0  0  0  0  0  0  0  0  0  0  0  0
   21.7769   -8.9512  -19.5092 C   0  0  0  0  0  0  0  0  0  0  0  0
   20.8070   -8.7938  -20.2850 O   0  0  0  0  0  0  0  0  0  0  0  0
   17.3081   -9.2903  -12.1822 N   0  0  0  0  0  0  0  0  0  0  0  0
   17.2886   -9.8568  -13.4861 C   0  0  0  0  0  0  0  0  0  0  0  0
   16.7352  -11.0019  -13.6626 N   0  0  0  0  0  0  0  0  0  0  0  0
   17.8762   -9.1719  -14.5890 N   0  0  0  0  0  0  0  0  0  0  0  0
   18.6111   -7.9367  -14.4679 C   0  0  0  0  0  0  0  0  0  0  0  0
   19.1291   -7.3916  -15.7319 C   0  0  0  0  0  0  0  0  0  0  0  0
   20.1752   -8.0897  -16.4827 C   0  0  0  0  0  0  0  0  0  0  0  0
   20.7521   -7.4553  -17.6970 C   0  0  2  0  0  0  0  0  0  0  0  0
   21.7903   -8.2932  -18.2714 N   0  0  0  0  0  0  0  0  0  0  0  0
   21.0981   -6.0321  -17.6125 C   0  0  0  0  0  0  0  0  0  0  0  0
   22.1570   -5.6566  -17.1073 O   0  0  0  0  0  0  0  0  0  0  0  0
   16.6161  -11.4600  -14.5801 C   0  0  0  0  0  0  0  0  0  0  0  0
   20.9891   -2.3333  -20.6675 C   0  0  2  0  0  0  0  0  0  0  0  0
   19.7000   -3.0676  -20.2818 C   0  0  0  0  0  0  0  0  0  0  0  0
   18.5681   -2.3330  -20.9963 C   0  0  0  0  0  0  0  0  0  0  0  0
   19.5043   -2.8964  -18.8142 C   0  0  2  0  0  0  0  0  0  0  0  0
   20.5769   -3.6177  -17.9722 N   0  0  0  0  0  0  0  0  0  0  0  0
   20.2193   -5.0373  -18.1254 C   0  0  0  0  0  0  0  0  0  0  0  0
   20.3956   -3.1662  -16.6034 O   0  0  0  0  0  0  0  0  0  0  0  0
   20.9193   -1.9266  -16.2125 O   0  0  0  0  0  0  0  0  0  0  0  0
  1  2  1  0
  2  3  2  0
  4  5  1  0
  4  2  1  0
  6  8  1  0
  6  5  1  0
  6  7  1  6
  8  9  2  0
 10 11  1  0
 11 12  2  0
 13 14  1  0
 13 11  1  0
 15 14  1  0
 16 15  1  0
 17 16  1  1
 17 19  1  0
 18 17  1  0
 18  8  1  0
 19 20  2  0
 19 26  1  0
 22 21  1  6
 22 24  1  0
 23 22  1  0
 25 24  1  6
 25 27  1  0
 26 25  1  0
 27 29  2  0
 27 28  1  0
M  END
$$$$
