QRL.pdb
     RDKit          3D

 29 28  0  0  1  0  0  0  0  0999 V2000
   25.1158  -18.0608  -18.6504 N   0  0  0  0  0  0  0  0  0  0  0  0
   26.1946  -18.6839  -19.3254 C   0  0  0  0  0  0  0  0  0  0  0  0
   26.3025  -18.5015  -20.5617 O   0  0  0  0  0  0  0  0  0  0  0  0
   27.1614  -19.5256  -18.5800 C   0  0  0  0  0  0  0  0  0  0  0  0
   26.8470  -19.6549  -17.1388 C   0  0  0  0  0  0  0  0  0  0  0  0
   27.8102  -20.4082  -16.2859 C   0  0  2  0  0  0  0  0  0  0  0  0
   28.3120  -21.5190  -17.1328 N   0  0  0  0  0  0  0  0  0  0  0  0
   27.1885  -21.0042  -15.0558 C   0  0  0  0  0  0  0  0  0  0  0  0
   26.4268  -21.9801  -15.2422 O   0  0  0  0  0  0  0  0  0  0  0  0
   30.9747  -21.8355   -8.0153 N   0  0  0  0  0  0  0  0  0  0  0  0
   31.4651  -22.4301   -9.2101 C   0  0  0  0  0  0  0  0  0  0  0  0
   32.2810  -23.4181   -9.1282 N   0  0  0  0  0  0  0  0  0  0  0  0
   31.0648  -21.9407  -10.4872 N   0  0  0  0  0  0  0  0  0  0  0  0
   30.2206  -20.7864  -10.6763 C   0  0  0  0  0  0  0  0  0  0  0  0
   29.2245  -20.9105  -11.7512 C   0  0  0  0  0  0  0  0  0  0  0  0
   27.8118  -21.1497  -11.4473 C   0  0  0  0  0  0  0  0  0  0  0  0
   26.7961  -20.9997  -12.5224 C   0  0  2  0  0  0  0  0  0  0  0  0
   27.4141  -20.5378  -13.7532 N   0  0  0  0  0  0  0  0  0  0  0  0
   25.5462  -20.3140  -12.1762 C   0  0  0  0  0  0  0  0  0  0  0  0
   25.4693  -19.0847  -12.1638 O   0  0  0  0  0  0  0  0  0  0  0  0
   32.7607  -23.8503   -9.9338 C   0  0  0  0  0  0  0  0  0  0  0  0
   21.6810  -20.7357  -15.7760 C   0  0  1  0  0  0  0  0  0  0  0  0
   21.7498  -20.1729  -14.3517 C   0  0  0  0  0  0  0  0  0  0  0  0
   21.8127  -18.6548  -14.5024 C   0  0  0  0  0  0  0  0  0  0  0  0
   23.0340  -20.6282  -13.7475 C   0  0  2  0  0  0  0  0  0  0  0  0
   23.0576  -20.5032  -12.2101 N   0  0  0  0  0  0  0  0  0  0  0  0
   24.3748  -21.0545  -11.8529 C   0  0  0  0  0  0  0  0  0  0  0  0
   21.9771  -21.3381  -11.7144 O   0  0  0  0  0  0  0  0  0  0  0  0
   22.1774  -22.7191  -11.5870 O   0  0  0  0  0  0  0  0  0  0  0  0
  1  2  1  0
  2  3  2  0
  4  5  1  0
  4  2  1  0
  6  8  1  0
  6  5  1  0
  6  7  1  6
  8  9  2  0
 10 11  1  0
 11 12  2  0
 13 14  1  0
 13 11  1  0
 15 14  1  0
 16 15  1  0
 17 16  1  1
 17 19  1  0
 18 17  1  0
 18  8  1  0
 19 20  2  0
 19 26  1  0
 22 21  1  1
 22 24  1  0
 23 22  1  0
 25 24  1  6
 25 27  1  0
 26 25  1  0
 27 29  2  0
 27 28  1  0
M  END
$$$$
