QRL.pdb
     RDKit          3D

 29 28  0  0  1  0  0  0  0  0999 V2000
   26.6069  -17.1544  -16.7548 N   0  0  0  0  0  0  0  0  0  0  0  0
   28.0002  -16.9998  -16.5478 C   0  0  0  0  0  0  0  0  0  0  0  0
   28.4992  -15.8608  -16.7120 O   0  0  0  0  0  0  0  0  0  0  0  0
   28.8335  -18.1597  -16.1490 C   0  0  0  0  0  0  0  0  0  0  0  0
   28.0558  -19.4005  -15.9283 C   0  0  0  0  0  0  0  0  0  0  0  0
   28.3511  -20.1922  -14.7001 C   0  0  2  0  0  0  0  0  0  0  0  0
   28.1660  -21.6136  -15.0851 N   0  0  0  0  0  0  0  0  0  0  0  0
   27.4267  -19.8956  -13.5545 C   0  0  0  0  0  0  0  0  0  0  0  0
   27.6036  -18.8005  -12.9742 O   0  0  0  0  0  0  0  0  0  0  0  0
   20.2310  -22.5442   -9.5181 N   0  0  0  0  0  0  0  0  0  0  0  0
   19.9014  -21.2362   -9.9678 C   0  0  0  0  0  0  0  0  0  0  0  0
   18.9438  -20.6006   -9.3955 N   0  0  0  0  0  0  0  0  0  0  0  0
   20.6167  -20.6310  -11.0415 N   0  0  0  0  0  0  0  0  0  0  0  0
   21.6576  -21.2946  -11.7878 C   0  0  0  0  0  0  0  0  0  0  0  0
   23.0294  -20.9064  -11.4268 C   0  0  0  0  0  0  0  0  0  0  0  0
   24.0917  -20.8635  -12.4343 C   0  0  0  0  0  0  0  0  0  0  0  0
   25.4849  -20.5562  -12.0166 C   0  0  2  0  0  0  0  0  0  0  0  0
   26.4086  -20.7558  -13.1197 N   0  0  0  0  0  0  0  0  0  0  0  0
   25.9405  -21.1082  -10.7359 C   0  0  0  0  0  0  0  0  0  0  0  0
   26.4670  -22.2196  -10.6656 O   0  0  0  0  0  0  0  0  0  0  0  0
   18.5952  -19.6751   -9.6920 C   0  0  0  0  0  0  0  0  0  0  0  0
   26.7078  -19.9650   -5.3622 C   0  0  1  0  0  0  0  0  0  0  0  0
   27.7953  -20.3183   -6.3831 C   0  0  0  0  0  0  0  0  0  0  0  0
   28.9735  -19.3963   -6.0782 C   0  0  0  0  0  0  0  0  0  0  0  0
   27.2762  -19.9683   -7.7357 C   0  0  2  0  0  0  0  0  0  0  0  0
   26.2283  -20.9715   -8.2603 N   0  0  0  0  0  0  0  0  0  0  0  0
   25.7964  -20.3658   -9.5305 C   0  0  0  0  0  0  0  0  0  0  0  0
   25.1527  -20.9887   -7.2841 O   0  0  0  0  0  0  0  0  0  0  0  0
   25.1820  -21.9276   -6.2442 O   0  0  0  0  0  0  0  0  0  0  0  0
  1  2  1  0
  2  3  2  0
  4  5  1  0
  4  2  1  0
  6  8  1  0
  6  5  1  0
  6  7  1  6
  8  9  2  0
 10 11  1  0
 11 12  2  0
 13 14  1  0
 13 11  1  0
 15 14  1  0
 16 15  1  0
 17 16  1  6
 17 19  1  0
 18 17  1  0
 18  8  1  0
 19 20  2  0
 19 26  1  0
 22 21  1  1
 22 24  1  0
 23 22  1  0
 25 24  1  6
 25 27  1  0
 26 25  1  0
 27 29  2  0
 27 28  1  0
M  END
$$$$
