QRL.pdb
     RDKit          3D

 29 28  0  0  1  0  0  0  0  0999 V2000
   19.9636  -20.9973  -11.2524 N   0  0  0  0  0  0  0  0  0  0  0  0
   20.3970  -21.2459  -12.5784 C   0  0  0  0  0  0  0  0  0  0  0  0
   19.5490  -21.1762  -13.5000 O   0  0  0  0  0  0  0  0  0  0  0  0
   21.8153  -21.5785  -12.8552 C   0  0  0  0  0  0  0  0  0  0  0  0
   22.6582  -21.6390  -11.6392 C   0  0  0  0  0  0  0  0  0  0  0  0
   23.6406  -20.5385  -11.4235 C   0  0  2  0  0  0  0  0  0  0  0  0
   24.1118  -20.1508  -12.7765 N   0  0  0  0  0  0  0  0  0  0  0  0
   24.8367  -20.9479  -10.6132 C   0  0  0  0  0  0  0  0  0  0  0  0
   24.5954  -21.5372   -9.5353 O   0  0  0  0  0  0  0  0  0  0  0  0
   31.7601  -23.3042  -12.7858 N   0  0  0  0  0  0  0  0  0  0  0  0
   32.2967  -22.9833  -11.5088 C   0  0  0  0  0  0  0  0  0  0  0  0
   33.5486  -23.1684  -11.2917 N   0  0  0  0  0  0  0  0  0  0  0  0
   31.4633  -22.4655  -10.4754 N   0  0  0  0  0  0  0  0  0  0  0  0
   30.0233  -22.4252  -10.5496 C   0  0  0  0  0  0  0  0  0  0  0  0
   29.4725  -21.3925  -11.4402 C   0  0  0  0  0  0  0  0  0  0  0  0
   28.5583  -20.3670  -10.9323 C   0  0  0  0  0  0  0  0  0  0  0  0
   27.3545  -20.7760  -10.1620 C   0  0  2  0  0  0  0  0  0  0  0  0
   26.1652  -20.7118  -10.9936 N   0  0  0  0  0  0  0  0  0  0  0  0
   27.1885  -20.2059   -8.8204 C   0  0  0  0  0  0  0  0  0  0  0  0
   26.4266  -19.2604   -8.6132 O   0  0  0  0  0  0  0  0  0  0  0  0
   34.0218  -22.9796  -10.3937 C   0  0  0  0  0  0  0  0  0  0  0  0
   30.3540  -20.7454   -3.6044 C   0  0  1  0  0  0  0  0  0  0  0  0
   29.0817  -20.1528   -4.2209 C   0  0  0  0  0  0  0  0  0  0  0  0
   27.9243  -20.6584   -3.3629 C   0  0  0  0  0  0  0  0  0  0  0  0
   28.9289  -20.7320   -5.5857 C   0  0  2  0  0  0  0  0  0  0  0  0
   27.8112  -20.0577   -6.4079 N   0  0  0  0  0  0  0  0  0  0  0  0
   27.8997  -20.7396   -7.7094 C   0  0  0  0  0  0  0  0  0  0  0  0
   28.1709  -18.6544   -6.5148 O   0  0  0  0  0  0  0  0  0  0  0  0
   29.3154  -18.2903   -7.2366 O   0  0  0  0  0  0  0  0  0  0  0  0
  1  2  1  0
  2  3  2  0
  4  5  1  0
  4  2  1  0
  6  8  1  0
  6  5  1  0
  6  7  1  6
  8  9  2  0
 10 11  1  0
 11 12  2  0
 13 14  1  0
 13 11  1  0
 15 14  1  0
 16 15  1  0
 17 16  1  6
 17 19  1  0
 18 17  1  0
 18  8  1  0
 19 20  2  0
 19 26  1  0
 22 21  1  1
 22 24  1  0
 23 22  1  0
 25 24  1  1
 25 27  1  0
 26 25  1  0
 27 29  2  0
 27 28  1  0
M  END
$$$$
