QRL.pdb
     RDKit          3D

 29 28  0  0  1  0  0  0  0  0999 V2000
   25.7059  -18.3987  -19.6785 N   0  0  0  0  0  0  0  0  0  0  0  0
   27.0626  -18.7421  -19.9006 C   0  0  0  0  0  0  0  0  0  0  0  0
   27.6688  -18.1765  -20.8418 O   0  0  0  0  0  0  0  0  0  0  0  0
   27.7349  -19.7433  -19.0378 C   0  0  0  0  0  0  0  0  0  0  0  0
   26.8549  -20.3092  -17.9898 C   0  0  0  0  0  0  0  0  0  0  0  0
   27.4755  -21.2136  -16.9802 C   0  0  2  0  0  0  0  0  0  0  0  0
   27.8785  -22.4315  -17.7268 N   0  0  0  0  0  0  0  0  0  0  0  0
   26.5368  -21.6284  -15.8840 C   0  0  0  0  0  0  0  0  0  0  0  0
   25.8349  -22.6392  -16.1139 O   0  0  0  0  0  0  0  0  0  0  0  0
   25.0573  -19.9007   -7.0566 N   0  0  0  0  0  0  0  0  0  0  0  0
   24.4328  -21.0761   -7.5568 C   0  0  0  0  0  0  0  0  0  0  0  0
   23.4080  -21.5491   -6.9448 N   0  0  0  0  0  0  0  0  0  0  0  0
   24.9326  -21.7302   -8.7200 N   0  0  0  0  0  0  0  0  0  0  0  0
   25.7199  -21.0736   -9.7348 C   0  0  0  0  0  0  0  0  0  0  0  0
   25.1518  -21.1158  -11.0907 C   0  0  0  0  0  0  0  0  0  0  0  0
   26.0137  -21.0450  -12.2729 C   0  0  0  0  0  0  0  0  0  0  0  0
   25.4118  -21.1706  -13.6263 C   0  0  2  0  0  0  0  0  0  0  0  0
   26.4144  -20.9621  -14.6566 N   0  0  0  0  0  0  0  0  0  0  0  0
   24.1422  -20.4753  -13.8651 C   0  0  0  0  0  0  0  0  0  0  0  0
   24.1027  -19.2614  -14.0710 O   0  0  0  0  0  0  0  0  0  0  0  0
   22.8870  -22.3907   -7.2382 C   0  0  0  0  0  0  0  0  0  0  0  0
   19.2840  -20.8756  -16.0965 C   0  0  1  0  0  0  0  0  0  0  0  0
   20.3809  -19.8148  -16.2428 C   0  0  0  0  0  0  0  0  0  0  0  0
   20.5661  -19.6060  -17.7440 C   0  0  0  0  0  0  0  0  0  0  0  0
   21.6433  -20.3922  -15.7001 C   0  0  2  0  0  0  0  0  0  0  0  0
   21.6636  -20.4622  -14.1592 N   0  0  0  0  0  0  0  0  0  0  0  0
   22.9117  -21.1898  -13.8769 C   0  0  0  0  0  0  0  0  0  0  0  0
   20.4961  -21.2332  -13.7684 O   0  0  0  0  0  0  0  0  0  0  0  0
   19.3516  -20.5656  -13.3123 O   0  0  0  0  0  0  0  0  0  0  0  0
  1  2  1  0
  2  3  2  0
  4  5  1  0
  4  2  1  0
  6  8  1  0
  6  5  1  0
  6  7  1  6
  8  9  2  0
 10 11  1  0
 11 12  2  0
 13 14  1  0
 13 11  1  0
 15 14  1  0
 16 15  1  0
 17 16  1  1
 17 19  1  0
 18 17  1  0
 18  8  1  0
 19 20  2  0
 19 26  1  0
 22 21  1  1
 22 24  1  0
 23 22  1  0
 25 24  1  1
 25 27  1  0
 26 25  1  0
 27 29  2  0
 27 28  1  0
M  END
$$$$
