QRL.pdb
     RDKit          3D

 29 28  0  0  1  0  0  0  0  0999 V2000
   28.1100  -22.7441  -19.8490 N   0  0  0  0  0  0  0  0  0  0  0  0
   27.6611  -21.5065  -19.3247 C   0  0  0  0  0  0  0  0  0  0  0  0
   28.3299  -20.4775  -19.5838 O   0  0  0  0  0  0  0  0  0  0  0  0
   26.4341  -21.4434  -18.4944 C   0  0  0  0  0  0  0  0  0  0  0  0
   26.6829  -21.0086  -17.1009 C   0  0  0  0  0  0  0  0  0  0  0  0
   27.0589  -22.0544  -16.1071 C   0  0  2  0  0  0  0  0  0  0  0  0
   26.9911  -23.3446  -16.8377 N   0  0  0  0  0  0  0  0  0  0  0  0
   26.1261  -22.1341  -14.9331 C   0  0  0  0  0  0  0  0  0  0  0  0
   25.1205  -22.8656  -15.0783 O   0  0  0  0  0  0  0  0  0  0  0  0
   25.0155  -21.3206   -6.7260 N   0  0  0  0  0  0  0  0  0  0  0  0
   26.3366  -20.8688   -6.9945 C   0  0  0  0  0  0  0  0  0  0  0  0
   27.2295  -20.9652   -6.0768 N   0  0  0  0  0  0  0  0  0  0  0  0
   26.6747  -20.3113   -8.2616 N   0  0  0  0  0  0  0  0  0  0  0  0
   25.7264  -19.6573   -9.1299 C   0  0  0  0  0  0  0  0  0  0  0  0
   25.2175  -20.4843  -10.2344 C   0  0  0  0  0  0  0  0  0  0  0  0
   26.0099  -20.6929  -11.4485 C   0  0  0  0  0  0  0  0  0  0  0  0
   25.3445  -21.1935  -12.6800 C   0  0  2  0  0  0  0  0  0  0  0  0
   26.3214  -21.4537  -13.7231 N   0  0  0  0  0  0  0  0  0  0  0  0
   24.1463  -20.4796  -13.1349 C   0  0  0  0  0  0  0  0  0  0  0  0
   24.1994  -19.3068  -13.5079 O   0  0  0  0  0  0  0  0  0  0  0  0
   28.1981  -20.6186   -6.1629 C   0  0  0  0  0  0  0  0  0  0  0  0
   21.8649  -19.9689  -16.5841 C   0  0  2  0  0  0  0  0  0  0  0  0
   21.8963  -21.3195  -15.8598 C   0  0  0  0  0  0  0  0  0  0  0  0
   21.2345  -22.3190  -16.8056 C   0  0  0  0  0  0  0  0  0  0  0  0
   21.0407  -21.2008  -14.6451 C   0  0  2  0  0  0  0  0  0  0  0  0
   21.6854  -20.3502  -13.5313 N   0  0  0  0  0  0  0  0  0  0  0  0
   22.8807  -21.1292  -13.1692 C   0  0  0  0  0  0  0  0  0  0  0  0
   20.7260  -20.3070  -12.4413 O   0  0  0  0  0  0  0  0  0  0  0  0
   20.9184  -21.1281  -11.3222 O   0  0  0  0  0  0  0  0  0  0  0  0
  1  2  1  0
  2  3  2  0
  4  5  1  0
  4  2  1  0
  6  8  1  0
  6  5  1  0
  6  7  1  6
  8  9  2  0
 10 11  1  0
 11 12  2  0
 13 14  1  0
 13 11  1  0
 15 14  1  0
 16 15  1  0
 17 16  1  1
 17 19  1  0
 18 17  1  0
 18  8  1  0
 19 20  2  0
 19 26  1  0
 22 21  1  6
 22 24  1  0
 23 22  1  0
 25 24  1  6
 25 27  1  0
 26 25  1  0
 27 29  2  0
 27 28  1  0
M  END
$$$$
