CDK.pdb
     RDKit          3D

 24 23  0  0  1  0  0  0  0  0999 V2000
    7.1022  -14.6989   18.4606 N   0  0  0  0  0  0  0  0  0  0  0  0
    8.5241  -14.7877   18.7317 C   0  0  1  0  0  0  0  0  0  0  0  0
    9.0771  -13.3719   18.8418 C   0  0  0  0  0  0  0  0  0  0  0  0
    8.3262  -12.4719   20.2074 S   0  0  0  0  0  0  0  0  0  0  0  0
    8.7148  -15.5136   20.0142 C   0  0  0  0  0  0  0  0  0  0  0  0
    7.7863  -15.5888   20.8675 O   0  0  0  0  0  0  0  0  0  0  0  0
    9.9548  -16.1545   20.3325 N   0  0  0  0  0  0  0  0  0  0  0  0
   10.0989  -16.9510   21.5245 C   0  0  1  0  0  0  0  0  0  0  0  0
   11.3679  -17.7336   21.6111 C   0  0  0  0  0  0  0  0  0  0  0  0
   11.3983  -18.7572   20.5573 C   0  0  0  0  0  0  0  0  0  0  0  0
   12.4549  -18.9906   19.9357 O   0  0  0  0  0  0  0  0  0  0  0  0
   10.0892  -16.0281   22.7159 C   0  0  0  0  0  0  0  0  0  0  0  0
   10.8896  -15.0821   22.7793 O   0  0  0  0  0  0  0  0  0  0  0  0
   10.2655  -19.4859   20.2264 O   0  0  0  0  0  0  0  0  0  0  0  0
    9.1836  -16.1972   23.7940 N   0  0  0  0  0  0  0  0  0  0  0  0
    9.1463  -15.3038   24.9337 C   0  0  1  0  0  0  0  0  0  0  0  0
    7.8259  -14.5539   24.9948 C   0  0  0  0  0  0  0  0  0  0  0  0
    7.7204  -13.6372   26.1421 C   0  0  0  0  0  0  0  0  0  0  0  0
    6.3873  -12.9741   26.2199 C   0  0  0  0  0  0  0  0  0  0  0  0
    6.2046  -11.9708   27.2958 C   0  0  0  0  0  0  0  0  0  0  0  0
    4.9207  -11.3806   27.4274 N   0  0  0  0  0  0  0  0  0  0  0  0
    9.4816  -15.9807   26.1925 C   0  0  0  0  0  0  0  0  0  0  0  0
    9.9290  -15.3588   27.3293 O   0  0  0  0  0  0  0  0  0  0  0  0
    9.3454  -17.2320   26.2248 O   0  0  0  0  0  0  0  0  0  0  0  0
  2  1  1  1
  3  2  1  0
  4  3  1  0
  5  2  1  0
  5  6  2  0
  7  5  1  0
  8  7  1  0
  9 10  1  0
  8  9  1  6
 10 14  1  0
 10 11  2  0
 12  8  1  0
 13 12  2  0
 15 12  1  0
 16 15  1  0
 16 17  1  1
 17 18  1  0
 19 18  1  0
 20 19  1  0
 20 21  1  0
 22 16  1  0
 23 22  1  0
 24 22  2  0
M  END
$$$$
