CDK.pdb
     RDKit          3D

 24 23  0  0  1  0  0  0  0  0999 V2000
    6.6646  -16.5127   19.8938 N   0  0  0  0  0  0  0  0  0  0  0  0
    7.8715  -15.7120   19.8207 C   0  0  1  0  0  0  0  0  0  0  0  0
    7.6458  -14.4362   20.6231 C   0  0  0  0  0  0  0  0  0  0  0  0
    7.1263  -14.7966   22.3080 S   0  0  0  0  0  0  0  0  0  0  0  0
    8.9918  -16.4937   20.4054 C   0  0  0  0  0  0  0  0  0  0  0  0
    8.7856  -17.3684   21.2933 O   0  0  0  0  0  0  0  0  0  0  0  0
   10.3453  -16.2870   19.9867 N   0  0  0  0  0  0  0  0  0  0  0  0
   11.4259  -17.0570   20.5481 C   0  0  1  0  0  0  0  0  0  0  0  0
   12.6197  -17.2076   19.6634 C   0  0  0  0  0  0  0  0  0  0  0  0
   12.3101  -18.1215   18.5553 C   0  0  0  0  0  0  0  0  0  0  0  0
   11.9292  -19.2871   18.7872 O   0  0  0  0  0  0  0  0  0  0  0  0
   11.9083  -16.3596   21.7940 C   0  0  0  0  0  0  0  0  0  0  0  0
   12.1219  -15.1375   21.7824 O   0  0  0  0  0  0  0  0  0  0  0  0
   12.4310  -17.7197   17.2333 O   0  0  0  0  0  0  0  0  0  0  0  0
   12.1344  -17.0556   23.0088 N   0  0  0  0  0  0  0  0  0  0  0  0
   12.5231  -16.3877   24.2341 C   0  0  1  0  0  0  0  0  0  0  0  0
   12.0455  -17.1619   25.4514 C   0  0  0  0  0  0  0  0  0  0  0  0
   12.4768  -16.5747   26.7308 C   0  0  0  0  0  0  0  0  0  0  0  0
   11.9947  -17.3548   27.9063 C   0  0  0  0  0  0  0  0  0  0  0  0
   12.4040  -16.8643   29.2440 C   0  0  0  0  0  0  0  0  0  0  0  0
   11.8510  -17.5170   30.3764 N   0  0  0  0  0  0  0  0  0  0  0  0
   13.9572  -16.0769   24.2768 C   0  0  0  0  0  0  0  0  0  0  0  0
   14.5112  -14.9857   24.8945 O   0  0  0  0  0  0  0  0  0  0  0  0
   14.7356  -16.8800   23.6985 O   0  0  0  0  0  0  0  0  0  0  0  0
  2  1  1  1
  3  2  1  0
  4  3  1  0
  5  2  1  0
  5  6  2  0
  7  5  1  0
  8  7  1  0
  9 10  1  0
  8  9  1  6
 10 14  1  0
 10 11  2  0
 12  8  1  0
 13 12  2  0
 15 12  1  0
 16 15  1  0
 16 17  1  1
 17 18  1  0
 19 18  1  0
 20 19  1  0
 20 21  1  0
 22 16  1  0
 23 22  1  0
 24 22  2  0
M  END
$$$$
