CDK.pdb
     RDKit          3D

 24 23  0  0  1  0  0  0  0  0999 V2000
    8.0927  -13.8694   17.0347 N   0  0  0  0  0  0  0  0  0  0  0  0
    8.7229  -13.4355   18.2666 C   0  0  1  0  0  0  0  0  0  0  0  0
    7.6319  -13.2138   19.3072 C   0  0  0  0  0  0  0  0  0  0  0  0
    8.3259  -12.8628   20.9301 S   0  0  0  0  0  0  0  0  0  0  0  0
    9.6547  -14.5006   18.7199 C   0  0  0  0  0  0  0  0  0  0  0  0
    9.3634  -15.7230   18.5904 O   0  0  0  0  0  0  0  0  0  0  0  0
   10.9157  -14.1843   19.3194 N   0  0  0  0  0  0  0  0  0  0  0  0
   11.7725  -15.2170   19.8442 C   0  0  1  0  0  0  0  0  0  0  0  0
   13.2243  -14.8697   19.8902 C   0  0  0  0  0  0  0  0  0  0  0  0
   13.8314  -15.0774   18.5683 C   0  0  0  0  0  0  0  0  0  0  0  0
   13.7632  -16.1922   18.0115 O   0  0  0  0  0  0  0  0  0  0  0  0
   11.3600  -15.4989   21.2660 C   0  0  0  0  0  0  0  0  0  0  0  0
   11.6129  -14.6802   22.1634 O   0  0  0  0  0  0  0  0  0  0  0  0
   14.4908  -14.0514   17.9079 O   0  0  0  0  0  0  0  0  0  0  0  0
   10.6789  -16.6875   21.6326 N   0  0  0  0  0  0  0  0  0  0  0  0
   10.3880  -17.0313   23.0094 C   0  0  1  0  0  0  0  0  0  0  0  0
    9.3847  -18.1702   23.0861 C   0  0  0  0  0  0  0  0  0  0  0  0
    9.1362  -18.6466   24.4568 C   0  0  0  0  0  0  0  0  0  0  0  0
    8.3068  -19.8851   24.4873 C   0  0  0  0  0  0  0  0  0  0  0  0
    7.9616  -20.4223   25.8251 C   0  0  0  0  0  0  0  0  0  0  0  0
    7.2486  -21.6485   25.8725 N   0  0  0  0  0  0  0  0  0  0  0  0
   11.6014  -17.2803   23.7973 C   0  0  0  0  0  0  0  0  0  0  0  0
   11.8037  -16.8670   25.0886 O   0  0  0  0  0  0  0  0  0  0  0  0
   12.5265  -17.9251   23.2373 O   0  0  0  0  0  0  0  0  0  0  0  0
  2  1  1  6
  3  2  1  0
  4  3  1  0
  5  2  1  0
  5  6  2  0
  7  5  1  0
  8  7  1  0
  9 10  1  0
  8  9  1  1
 10 14  1  0
 10 11  2  0
 12  8  1  0
 13 12  2  0
 15 12  1  0
 16 15  1  0
 16 17  1  6
 17 18  1  0
 19 18  1  0
 20 19  1  0
 20 21  1  0
 22 16  1  0
 23 22  1  0
 24 22  2  0
M  END
$$$$
