CDK.pdb
     RDKit          3D

 24 23  0  0  1  0  0  0  0  0999 V2000
    4.9029  -13.2290   26.1576 N   0  0  0  0  0  0  0  0  0  0  0  0
    6.1676  -12.8031   25.5898 C   0  0  1  0  0  0  0  0  0  0  0  0
    7.0681  -12.3384   26.7279 C   0  0  0  0  0  0  0  0  0  0  0  0
    8.6986  -11.8649   26.1313 S   0  0  0  0  0  0  0  0  0  0  0  0
    6.7830  -13.9600   24.8891 C   0  0  0  0  0  0  0  0  0  0  0  0
    6.8362  -15.1000   25.4308 O   0  0  0  0  0  0  0  0  0  0  0  0
    7.3382  -13.8287   23.5760 N   0  0  0  0  0  0  0  0  0  0  0  0
    7.9684  -14.9444   22.9172 C   0  0  1  0  0  0  0  0  0  0  0  0
    8.2685  -14.7350   21.4692 C   0  0  0  0  0  0  0  0  0  0  0  0
    7.1257  -15.1676   20.6530 C   0  0  0  0  0  0  0  0  0  0  0  0
    6.9294  -14.6659   19.5273 O   0  0  0  0  0  0  0  0  0  0  0  0
    9.2914  -15.2070   23.5894 C   0  0  0  0  0  0  0  0  0  0  0  0
   10.0926  -14.2779   23.7750 O   0  0  0  0  0  0  0  0  0  0  0  0
    6.2414  -16.1357   21.1051 O   0  0  0  0  0  0  0  0  0  0  0  0
    9.6704  -16.5006   24.0300 N   0  0  0  0  0  0  0  0  0  0  0  0
   10.8926  -16.7510   24.7661 C   0  0  1  0  0  0  0  0  0  0  0  0
   10.7033  -17.8766   25.7693 C   0  0  0  0  0  0  0  0  0  0  0  0
   11.9311  -18.2263   26.5028 C   0  0  0  0  0  0  0  0  0  0  0  0
   11.7001  -19.2842   27.5276 C   0  0  0  0  0  0  0  0  0  0  0  0
   12.8407  -19.6105   28.4163 C   0  0  0  0  0  0  0  0  0  0  0  0
   12.6059  -20.5338   29.4682 N   0  0  0  0  0  0  0  0  0  0  0  0
   12.0498  -16.9542   23.8859 C   0  0  0  0  0  0  0  0  0  0  0  0
   11.9832  -17.2634   22.5520 O   0  0  0  0  0  0  0  0  0  0  0  0
   13.1916  -16.8339   24.4025 O   0  0  0  0  0  0  0  0  0  0  0  0
  2  1  1  1
  3  2  1  0
  4  3  1  0
  5  2  1  0
  5  6  2  0
  7  5  1  0
  8  7  1  0
  9 10  1  0
  8  9  1  6
 10 14  1  0
 10 11  2  0
 12  8  1  0
 13 12  2  0
 15 12  1  0
 16 15  1  0
 16 17  1  6
 17 18  1  0
 19 18  1  0
 20 19  1  0
 20 21  1  0
 22 16  1  0
 23 22  1  0
 24 22  2  0
M  END
$$$$
