CDK.pdb
     RDKit          3D

 24 23  0  0  1  0  0  0  0  0999 V2000
    7.3507  -15.0507   17.9406 N   0  0  0  0  0  0  0  0  0  0  0  0
    8.5250  -14.6607   18.6969 C   0  0  1  0  0  0  0  0  0  0  0  0
    8.1203  -13.5612   19.6714 C   0  0  0  0  0  0  0  0  0  0  0  0
    7.3932  -12.1539   18.8173 S   0  0  0  0  0  0  0  0  0  0  0  0
    9.0221  -15.8473   19.4406 C   0  0  0  0  0  0  0  0  0  0  0  0
    8.5642  -17.0021   19.2110 O   0  0  0  0  0  0  0  0  0  0  0  0
   10.0366  -15.7290   20.4438 N   0  0  0  0  0  0  0  0  0  0  0  0
   11.2336  -16.5292   20.3927 C   0  0  1  0  0  0  0  0  0  0  0  0
   11.9695  -16.4819   19.0939 C   0  0  0  0  0  0  0  0  0  0  0  0
   13.0850  -17.4381   19.1148 C   0  0  0  0  0  0  0  0  0  0  0  0
   14.2635  -17.0332   19.0480 O   0  0  0  0  0  0  0  0  0  0  0  0
   12.1904  -16.0193   21.4395 C   0  0  0  0  0  0  0  0  0  0  0  0
   13.3840  -15.8328   21.1565 O   0  0  0  0  0  0  0  0  0  0  0  0
   12.8629  -18.8039   19.2085 O   0  0  0  0  0  0  0  0  0  0  0  0
   11.7768  -15.7364   22.7661 N   0  0  0  0  0  0  0  0  0  0  0  0
   12.5070  -16.1963   23.9297 C   0  0  1  0  0  0  0  0  0  0  0  0
   11.6419  -17.0982   24.7942 C   0  0  0  0  0  0  0  0  0  0  0  0
   12.3647  -17.7001   25.9270 C   0  0  0  0  0  0  0  0  0  0  0  0
   11.5132  -18.6403   26.7104 C   0  0  0  0  0  0  0  0  0  0  0  0
   12.1295  -19.2536   27.9111 C   0  0  0  0  0  0  0  0  0  0  0  0
   11.3940  -20.2686   28.5766 N   0  0  0  0  0  0  0  0  0  0  0  0
   13.7992  -16.8002   23.5824 C   0  0  0  0  0  0  0  0  0  0  0  0
   13.9662  -17.9150   22.8022 O   0  0  0  0  0  0  0  0  0  0  0  0
   14.8329  -16.2461   24.0403 O   0  0  0  0  0  0  0  0  0  0  0  0
  2  1  1  1
  3  2  1  0
  4  3  1  0
  5  2  1  0
  5  6  2  0
  7  5  1  0
  8  7  1  0
  9 10  1  0
  8  9  1  6
 10 14  1  0
 10 11  2  0
 12  8  1  0
 13 12  2  0
 15 12  1  0
 16 15  1  0
 16 17  1  6
 17 18  1  0
 19 18  1  0
 20 19  1  0
 20 21  1  0
 22 16  1  0
 23 22  1  0
 24 22  2  0
M  END
$$$$
