CDK.pdb
     RDKit          3D

 24 23  0  0  1  0  0  0  0  0999 V2000
    6.7574  -15.7289   19.5866 N   0  0  0  0  0  0  0  0  0  0  0  0
    8.1893  -15.5456   19.7247 C   0  0  1  0  0  0  0  0  0  0  0  0
    8.4833  -14.0507   19.6918 C   0  0  0  0  0  0  0  0  0  0  0  0
    7.6428  -13.1808   21.0243 S   0  0  0  0  0  0  0  0  0  0  0  0
    8.6151  -16.1231   21.0260 C   0  0  0  0  0  0  0  0  0  0  0  0
    7.7764  -16.3683   21.9384 O   0  0  0  0  0  0  0  0  0  0  0  0
    9.9885  -16.4236   21.2963 N   0  0  0  0  0  0  0  0  0  0  0  0
   10.3949  -16.9861   22.5589 C   0  0  1  0  0  0  0  0  0  0  0  0
   11.8121  -17.4540   22.6145 C   0  0  0  0  0  0  0  0  0  0  0  0
   12.0373  -18.4920   21.5991 C   0  0  0  0  0  0  0  0  0  0  0  0
   11.2588  -19.4630   21.5069 O   0  0  0  0  0  0  0  0  0  0  0  0
   10.2590  -15.9226   23.6180 C   0  0  0  0  0  0  0  0  0  0  0  0
   10.9670  -14.9046   23.5749 O   0  0  0  0  0  0  0  0  0  0  0  0
   13.1103  -18.4235   20.7229 O   0  0  0  0  0  0  0  0  0  0  0  0
    9.3352  -16.0367   24.6878 N   0  0  0  0  0  0  0  0  0  0  0  0
    9.2704  -15.0793   25.7730 C   0  0  1  0  0  0  0  0  0  0  0  0
    8.0272  -14.2125   25.6611 C   0  0  0  0  0  0  0  0  0  0  0  0
    7.8980  -13.2232   26.7438 C   0  0  0  0  0  0  0  0  0  0  0  0
    6.6386  -12.4315   26.6440 C   0  0  0  0  0  0  0  0  0  0  0  0
    6.4165  -11.4001   27.6853 C   0  0  0  0  0  0  0  0  0  0  0  0
    5.2597  -10.5870   27.5629 N   0  0  0  0  0  0  0  0  0  0  0  0
    9.4148  -15.7096   27.0909 C   0  0  0  0  0  0  0  0  0  0  0  0
    9.3096  -17.0536   27.3398 O   0  0  0  0  0  0  0  0  0  0  0  0
    9.6541  -14.9507   28.0666 O   0  0  0  0  0  0  0  0  0  0  0  0
  2  1  1  1
  3  2  1  0
  4  3  1  0
  5  2  1  0
  5  6  2  0
  7  5  1  0
  8  7  1  0
  9 10  1  0
  8  9  1  6
 10 14  1  0
 10 11  2  0
 12  8  1  0
 13 12  2  0
 15 12  1  0
 16 15  1  0
 16 17  1  1
 17 18  1  0
 19 18  1  0
 20 19  1  0
 20 21  1  0
 22 16  1  0
 23 22  1  0
 24 22  2  0
M  END
$$$$
