CDK.pdb
     RDKit          3D

 24 23  0  0  1  0  0  0  0  0999 V2000
    7.5979  -13.8414   17.4301 N   0  0  0  0  0  0  0  0  0  0  0  0
    8.7670  -13.8540   18.2882 C   0  0  1  0  0  0  0  0  0  0  0  0
    8.7302  -12.6055   19.1614 C   0  0  0  0  0  0  0  0  0  0  0  0
    7.5151  -12.7553   20.4804 S   0  0  0  0  0  0  0  0  0  0  0  0
    8.7165  -15.0736   19.1356 C   0  0  0  0  0  0  0  0  0  0  0  0
    7.9420  -16.0320   18.8569 O   0  0  0  0  0  0  0  0  0  0  0  0
    9.5414  -15.2104   20.2978 N   0  0  0  0  0  0  0  0  0  0  0  0
    9.7909  -16.5008   20.8881 C   0  0  1  0  0  0  0  0  0  0  0  0
   10.4803  -17.4803   19.9961 C   0  0  0  0  0  0  0  0  0  0  0  0
   10.5850  -18.7828   20.6683 C   0  0  0  0  0  0  0  0  0  0  0  0
   11.6989  -19.3225   20.8269 O   0  0  0  0  0  0  0  0  0  0  0  0
   10.6905  -16.3104   22.0822 C   0  0  0  0  0  0  0  0  0  0  0  0
   11.8855  -16.0169   21.9230 O   0  0  0  0  0  0  0  0  0  0  0  0
    9.4606  -19.4432   21.1410 O   0  0  0  0  0  0  0  0  0  0  0  0
   10.2201  -16.4554   23.4121 N   0  0  0  0  0  0  0  0  0  0  0  0
   10.9887  -16.0345   24.5656 C   0  0  1  0  0  0  0  0  0  0  0  0
   10.0835  -15.7775   25.7589 C   0  0  0  0  0  0  0  0  0  0  0  0
   10.8020  -15.3038   26.9535 C   0  0  0  0  0  0  0  0  0  0  0  0
    9.8998  -15.1260   28.1271 C   0  0  0  0  0  0  0  0  0  0  0  0
   10.5047  -14.5463   29.3500 C   0  0  0  0  0  0  0  0  0  0  0  0
    9.6682  -14.4029   30.4875 N   0  0  0  0  0  0  0  0  0  0  0  0
   12.0957  -16.9493   24.8704 C   0  0  0  0  0  0  0  0  0  0  0  0
   12.0934  -18.2993   24.6324 O   0  0  0  0  0  0  0  0  0  0  0  0
   13.1266  -16.4486   25.3918 O   0  0  0  0  0  0  0  0  0  0  0  0
  2  1  1  6
  3  2  1  0
  4  3  1  0
  5  2  1  0
  5  6  2  0
  7  5  1  0
  8  7  1  0
  9 10  1  0
  8  9  1  6
 10 14  1  0
 10 11  2  0
 12  8  1  0
 13 12  2  0
 15 12  1  0
 16 15  1  0
 16 17  1  1
 17 18  1  0
 19 18  1  0
 20 19  1  0
 20 21  1  0
 22 16  1  0
 23 22  1  0
 24 22  2  0
M  END
$$$$
