CDK.pdb
     RDKit          3D

 24 23  0  0  1  0  0  0  0  0999 V2000
    7.0650  -15.4091   18.4247 N   0  0  0  0  0  0  0  0  0  0  0  0
    8.3647  -14.9284   18.8522 C   0  0  1  0  0  0  0  0  0  0  0  0
    8.1922  -13.5201   19.4084 C   0  0  0  0  0  0  0  0  0  0  0  0
    7.9175  -12.3190   18.0968 S   0  0  0  0  0  0  0  0  0  0  0  0
    8.8791  -15.8374   19.9091 C   0  0  0  0  0  0  0  0  0  0  0  0
    8.1832  -16.1190   20.9251 O   0  0  0  0  0  0  0  0  0  0  0  0
   10.1800  -16.4284   19.8179 N   0  0  0  0  0  0  0  0  0  0  0  0
   10.6908  -17.2738   20.8668 C   0  0  1  0  0  0  0  0  0  0  0  0
   11.9713  -17.9727   20.5469 C   0  0  0  0  0  0  0  0  0  0  0  0
   11.7567  -18.9397   19.4615 C   0  0  0  0  0  0  0  0  0  0  0  0
   11.0763  -19.9672   19.6581 O   0  0  0  0  0  0  0  0  0  0  0  0
   10.9676  -16.4164   22.0749 C   0  0  0  0  0  0  0  0  0  0  0  0
   11.7584  -15.4635   21.9963 O   0  0  0  0  0  0  0  0  0  0  0  0
   12.2984  -18.7407   18.2003 O   0  0  0  0  0  0  0  0  0  0  0  0
   10.3491  -16.6564   23.3283 N   0  0  0  0  0  0  0  0  0  0  0  0
   10.5973  -15.8344   24.4950 C   0  0  1  0  0  0  0  0  0  0  0  0
    9.5401  -14.7514   24.6330 C   0  0  0  0  0  0  0  0  0  0  0  0
    9.1436  -14.4879   26.0262 C   0  0  0  0  0  0  0  0  0  0  0  0
    8.0904  -13.4377   26.1292 C   0  0  0  0  0  0  0  0  0  0  0  0
    7.6349  -13.0833   27.4946 C   0  0  0  0  0  0  0  0  0  0  0  0
    6.5362  -12.1918   27.6059 N   0  0  0  0  0  0  0  0  0  0  0  0
   10.7702  -16.6279   25.7179 C   0  0  0  0  0  0  0  0  0  0  0  0
   11.3683  -16.1852   26.8691 O   0  0  0  0  0  0  0  0  0  0  0  0
   10.3323  -17.8083   25.7023 O   0  0  0  0  0  0  0  0  0  0  0  0
  2  1  1  1
  3  2  1  0
  4  3  1  0
  5  2  1  0
  5  6  2  0
  7  5  1  0
  8  7  1  0
  9 10  1  0
  8  9  1  6
 10 14  1  0
 10 11  2  0
 12  8  1  0
 13 12  2  0
 15 12  1  0
 16 15  1  0
 16 17  1  1
 17 18  1  0
 19 18  1  0
 20 19  1  0
 20 21  1  0
 22 16  1  0
 23 22  1  0
 24 22  2  0
M  END
$$$$
