CDK.pdb
     RDKit          3D

 24 23  0  0  1  0  0  0  0  0999 V2000
    9.9837  -17.9092   18.7125 N   0  0  0  0  0  0  0  0  0  0  0  0
    9.7835  -17.2455   19.9863 C   0  0  1  0  0  0  0  0  0  0  0  0
    8.4712  -17.7422   20.5809 C   0  0  0  0  0  0  0  0  0  0  0  0
    7.0776  -17.3877   19.4988 S   0  0  0  0  0  0  0  0  0  0  0  0
   10.9165  -17.5938   20.8824 C   0  0  0  0  0  0  0  0  0  0  0  0
   11.4367  -18.7448   20.8619 O   0  0  0  0  0  0  0  0  0  0  0  0
   11.4619  -16.6413   21.8017 N   0  0  0  0  0  0  0  0  0  0  0  0
   12.6517  -16.9328   22.5602 C   0  0  1  0  0  0  0  0  0  0  0  0
   13.4282  -15.7357   23.0011 C   0  0  0  0  0  0  0  0  0  0  0  0
   14.7805  -16.1387   23.4111 C   0  0  0  0  0  0  0  0  0  0  0  0
   15.1132  -17.3413   23.3903 O   0  0  0  0  0  0  0  0  0  0  0  0
   12.2473  -17.6606   23.8163 C   0  0  0  0  0  0  0  0  0  0  0  0
   11.4845  -17.1207   24.6325 O   0  0  0  0  0  0  0  0  0  0  0  0
   15.7164  -15.2042   23.8286 O   0  0  0  0  0  0  0  0  0  0  0  0
   12.7114  -18.9672   24.1141 N   0  0  0  0  0  0  0  0  0  0  0  0
   12.3215  -19.6835   25.3113 C   0  0  1  0  0  0  0  0  0  0  0  0
   12.3808  -21.1859   25.0906 C   0  0  0  0  0  0  0  0  0  0  0  0
   11.9054  -21.9708   26.2420 C   0  0  0  0  0  0  0  0  0  0  0  0
   12.1619  -23.4305   26.0806 C   0  0  0  0  0  0  0  0  0  0  0  0
   11.7975  -24.3009   27.2239 C   0  0  0  0  0  0  0  0  0  0  0  0
   12.1731  -25.6675   27.1502 N   0  0  0  0  0  0  0  0  0  0  0  0
   13.0675  -19.2471   26.4980 C   0  0  0  0  0  0  0  0  0  0  0  0
   12.5472  -19.1346   27.7612 O   0  0  0  0  0  0  0  0  0  0  0  0
   14.2814  -18.9541   26.3367 O   0  0  0  0  0  0  0  0  0  0  0  0
  2  1  1  6
  3  2  1  0
  4  3  1  0
  5  2  1  0
  5  6  2  0
  7  5  1  0
  8  7  1  0
  9 10  1  0
  8  9  1  1
 10 14  1  0
 10 11  2  0
 12  8  1  0
 13 12  2  0
 15 12  1  0
 16 15  1  0
 16 17  1  6
 17 18  1  0
 19 18  1  0
 20 19  1  0
 20 21  1  0
 22 16  1  0
 23 22  1  0
 24 22  2  0
M  END
$$$$
