GLP.pdb
     RDKit          3D

 20 20  0  0  1  0  0  0  0  0999 V2000
   10.2511  -16.4602   20.5864 N   0  0  0  0  0  0  0  0  0  0  0  0
    9.0785  -16.3850   21.4329 C   0  0  0  0  0  0  0  0  0  0  0  0
    9.3634  -15.5544   22.6571 C   0  0  0  0  0  0  0  0  0  0  0  0
   10.5318  -15.2107   22.9680 O   0  0  0  0  0  0  0  0  0  0  0  0
    7.7453  -11.5793   26.2776 C   0  0  0  0  0  0  0  0  0  0  0  0
    7.2509  -13.0013   26.4224 C   0  0  1  0  0  0  0  0  0  0  0  0
    5.7818  -12.8336   26.9118 C   0  0  0  0  0  0  0  0  0  0  0  0
    7.2041  -13.7318   25.1158 C   0  0  0  0  0  0  0  0  0  0  0  0
    8.4276  -14.5038   24.7473 C   0  0  2  0  0  0  0  0  0  0  0  0
    8.2807  -15.1583   23.4677 N   0  0  0  0  0  0  0  0  0  0  0  0
    8.8208  -15.4158   25.8025 C   0  0  0  0  0  0  0  0  0  0  0  0
    8.5778  -16.6717   25.6122 O   0  0  0  0  0  0  0  0  0  0  0  0
    9.4381  -15.1096   27.0200 N   0  0  0  0  0  0  0  0  0  0  0  0
    9.3255  -14.0755   28.0143 C   0  0  0  0  0  0  0  0  0  0  0  0
   10.7784  -13.5532   27.9626 C   0  0  0  0  0  0  0  0  0  0  0  0
   11.4963  -14.8919   28.1964 C   0  0  0  0  0  0  0  0  0  0  0  0
   10.5480  -15.9321   27.6349 C   0  0  1  0  0  0  0  0  0  0  0  0
    9.9413  -16.7914   28.6677 C   0  0  0  0  0  0  0  0  0  0  0  0
    8.6257  -16.6988   29.0426 O   0  0  0  0  0  0  0  0  0  0  0  0
   10.6554  -17.6502   29.2347 O   0  0  0  0  0  0  0  0  0  0  0  0
  2  1  1  0
  3 10  1  0
  3  2  1  0
  4  3  2  0
  6  5  1  6
  6  8  1  0
  7  6  1  0
  9  8  1  1
  9 11  1  0
  9 10  1  0
 11 13  1  0
 12 11  2  0
 13 14  1  0
 13 17  1  0
 14 15  1  0
 15 16  1  0
 17 16  1  0
 17 18  1  1
 18 20  2  0
 18 19  1  0
M  END
$$$$
