GLP.pdb
     RDKit          3D

 20 20  0  0  1  0  0  0  0  0999 V2000
    5.2960  -20.2787   24.2619 N   0  0  0  0  0  0  0  0  0  0  0  0
    6.0033  -19.3936   25.1639 C   0  0  0  0  0  0  0  0  0  0  0  0
    5.9334  -17.9717   24.6712 C   0  0  0  0  0  0  0  0  0  0  0  0
    5.4898  -17.6863   23.5303 O   0  0  0  0  0  0  0  0  0  0  0  0
    6.0588  -12.2640   26.4174 C   0  0  0  0  0  0  0  0  0  0  0  0
    7.0649  -13.2172   25.8120 C   0  0  1  0  0  0  0  0  0  0  0  0
    8.4129  -12.7992   26.4709 C   0  0  0  0  0  0  0  0  0  0  0  0
    6.8083  -14.6436   26.1898 C   0  0  0  0  0  0  0  0  0  0  0  0
    6.7639  -15.6259   25.0665 C   0  0  2  0  0  0  0  0  0  0  0  0
    6.3813  -16.9421   25.5231 N   0  0  0  0  0  0  0  0  0  0  0  0
    8.0015  -15.6308   24.3129 C   0  0  0  0  0  0  0  0  0  0  0  0
    8.9218  -16.4513   24.7031 O   0  0  0  0  0  0  0  0  0  0  0  0
    8.3360  -14.8504   23.2009 N   0  0  0  0  0  0  0  0  0  0  0  0
    8.0714  -13.5093   22.7514 C   0  0  0  0  0  0  0  0  0  0  0  0
    7.3846  -13.8519   21.4107 C   0  0  0  0  0  0  0  0  0  0  0  0
    8.4879  -14.7488   20.8273 C   0  0  0  0  0  0  0  0  0  0  0  0
    9.1706  -15.3460   22.0414 C   0  0  1  0  0  0  0  0  0  0  0  0
   10.5450  -14.8530   22.2434 C   0  0  0  0  0  0  0  0  0  0  0  0
   11.6088  -15.2636   21.4820 O   0  0  0  0  0  0  0  0  0  0  0  0
   10.7598  -14.0185   23.1525 O   0  0  0  0  0  0  0  0  0  0  0  0
  2  1  1  0
  3 10  1  0
  3  2  1  0
  4  3  2  0
  6  5  1  1
  6  8  1  0
  7  6  1  0
  9  8  1  1
  9 11  1  0
  9 10  1  0
 11 13  1  0
 12 11  2  0
 13 14  1  0
 13 17  1  0
 14 15  1  0
 15 16  1  0
 17 16  1  0
 17 18  1  1
 18 20  2  0
 18 19  1  0
M  END
$$$$
