GLP.pdb
     RDKit          3D

 20 20  0  0  1  0  0  0  0  0999 V2000
    9.0474  -16.7613   20.4445 N   0  0  0  0  0  0  0  0  0  0  0  0
    8.0694  -16.6774   21.5092 C   0  0  0  0  0  0  0  0  0  0  0  0
    8.5616  -15.7722   22.6083 C   0  0  0  0  0  0  0  0  0  0  0  0
    9.7653  -15.4188   22.6871 O   0  0  0  0  0  0  0  0  0  0  0  0
    7.8462  -11.5837   26.1557 C   0  0  0  0  0  0  0  0  0  0  0  0
    7.1696  -12.9004   26.4653 C   0  0  1  0  0  0  0  0  0  0  0  0
    5.7935  -12.4779   27.0598 C   0  0  0  0  0  0  0  0  0  0  0  0
    6.8936  -13.7104   25.2360 C   0  0  0  0  0  0  0  0  0  0  0  0
    8.0037  -14.5886   24.7615 C   0  0  2  0  0  0  0  0  0  0  0  0
    7.6363  -15.3159   23.5685 N   0  0  0  0  0  0  0  0  0  0  0  0
    8.4894  -15.4526   25.8186 C   0  0  0  0  0  0  0  0  0  0  0  0
    7.9058  -16.5988   25.9530 O   0  0  0  0  0  0  0  0  0  0  0  0
    9.5233  -15.2038   26.7276 N   0  0  0  0  0  0  0  0  0  0  0  0
   10.1016  -14.0461   27.3568 C   0  0  0  0  0  0  0  0  0  0  0  0
   11.5505  -14.2123   26.8475 C   0  0  0  0  0  0  0  0  0  0  0  0
   11.7828  -15.6538   27.3273 C   0  0  0  0  0  0  0  0  0  0  0  0
   10.4031  -16.2807   27.3217 C   0  0  1  0  0  0  0  0  0  0  0  0
    9.8882  -16.5781   28.6705 C   0  0  0  0  0  0  0  0  0  0  0  0
   10.2352  -17.7020   29.3750 O   0  0  0  0  0  0  0  0  0  0  0  0
    9.0949  -15.7699   29.2058 O   0  0  0  0  0  0  0  0  0  0  0  0
  2  1  1  0
  3 10  1  0
  3  2  1  0
  4  3  2  0
  6  5  1  6
  6  8  1  0
  7  6  1  0
  9  8  1  1
  9 11  1  0
  9 10  1  0
 11 13  1  0
 12 11  2  0
 13 14  1  0
 13 17  1  0
 14 15  1  0
 15 16  1  0
 17 16  1  0
 17 18  1  1
 18 20  2  0
 18 19  1  0
M  END
$$$$
