GLP.pdb
     RDKit          3D

 20 20  0  0  1  0  0  0  0  0999 V2000
    4.9634  -19.8341   24.3262 N   0  0  0  0  0  0  0  0  0  0  0  0
    5.5829  -19.0194   25.3507 C   0  0  0  0  0  0  0  0  0  0  0  0
    5.9254  -17.6569   24.8067 C   0  0  0  0  0  0  0  0  0  0  0  0
    5.5876  -17.3009   23.6495 O   0  0  0  0  0  0  0  0  0  0  0  0
    7.1151  -12.6069   27.7071 C   0  0  0  0  0  0  0  0  0  0  0  0
    6.6112  -13.5340   26.6237 C   0  0  1  0  0  0  0  0  0  0  0  0
    6.5129  -12.6168   25.3687 C   0  0  0  0  0  0  0  0  0  0  0  0
    7.5833  -14.6269   26.3012 C   0  0  0  0  0  0  0  0  0  0  0  0
    7.2158  -15.5227   25.1648 C   0  0  2  0  0  0  0  0  0  0  0  0
    6.6449  -16.7662   25.6285 N   0  0  0  0  0  0  0  0  0  0  0  0
    8.3296  -15.7195   24.2590 C   0  0  0  0  0  0  0  0  0  0  0  0
    9.0927  -16.7396   24.4817 O   0  0  0  0  0  0  0  0  0  0  0  0
    8.6931  -14.9367   23.1579 N   0  0  0  0  0  0  0  0  0  0  0  0
    8.4514  -13.5903   22.7113 C   0  0  0  0  0  0  0  0  0  0  0  0
    7.7858  -13.9179   21.3563 C   0  0  0  0  0  0  0  0  0  0  0  0
    8.8899  -14.8237   20.7881 C   0  0  0  0  0  0  0  0  0  0  0  0
    9.5435  -15.4350   22.0111 C   0  0  1  0  0  0  0  0  0  0  0  0
   10.9192  -14.9582   22.2413 C   0  0  0  0  0  0  0  0  0  0  0  0
   11.2844  -14.2225   23.3392 O   0  0  0  0  0  0  0  0  0  0  0  0
   11.8032  -15.2345   21.3979 O   0  0  0  0  0  0  0  0  0  0  0  0
  2  1  1  0
  3 10  1  0
  3  2  1  0
  4  3  2  0
  6  5  1  1
  6  8  1  0
  7  6  1  0
  9  8  1  1
  9 11  1  0
  9 10  1  0
 11 13  1  0
 12 11  2  0
 13 14  1  0
 13 17  1  0
 14 15  1  0
 15 16  1  0
 17 16  1  0
 17 18  1  1
 18 20  2  0
 18 19  1  0
M  END
$$$$
