GLP.pdb
     RDKit          3D

 20 20  0  0  1  0  0  0  0  0999 V2000
    5.2444  -20.2774   24.3110 N   0  0  0  0  0  0  0  0  0  0  0  0
    5.9441  -19.4078   25.2336 C   0  0  0  0  0  0  0  0  0  0  0  0
    5.9604  -17.9929   24.7164 C   0  0  0  0  0  0  0  0  0  0  0  0
    5.5894  -17.7092   23.5494 O   0  0  0  0  0  0  0  0  0  0  0  0
    6.0643  -12.3118   26.2276 C   0  0  0  0  0  0  0  0  0  0  0  0
    7.1820  -13.2614   25.8586 C   0  0  1  0  0  0  0  0  0  0  0  0
    8.3759  -12.7868   26.7389 C   0  0  0  0  0  0  0  0  0  0  0  0
    6.8842  -14.6790   26.2394 C   0  0  0  0  0  0  0  0  0  0  0  0
    6.8419  -15.6675   25.1215 C   0  0  2  0  0  0  0  0  0  0  0  0
    6.4063  -16.9682   25.5751 N   0  0  0  0  0  0  0  0  0  0  0  0
    8.1000  -15.7155   24.4040 C   0  0  0  0  0  0  0  0  0  0  0  0
    8.9690  -16.5864   24.8027 O   0  0  0  0  0  0  0  0  0  0  0  0
    8.5036  -14.9293   23.3195 N   0  0  0  0  0  0  0  0  0  0  0  0
    8.2195  -13.6069   22.8282 C   0  0  0  0  0  0  0  0  0  0  0  0
    7.6849  -13.9949   21.4317 C   0  0  0  0  0  0  0  0  0  0  0  0
    8.8823  -14.8410   20.9708 C   0  0  0  0  0  0  0  0  0  0  0  0
    9.4709  -15.3928   22.2536 C   0  0  1  0  0  0  0  0  0  0  0  0
   10.7933  -14.8305   22.5821 C   0  0  0  0  0  0  0  0  0  0  0  0
   11.9330  -15.1363   21.8838 O   0  0  0  0  0  0  0  0  0  0  0  0
   10.8889  -14.0339   23.5440 O   0  0  0  0  0  0  0  0  0  0  0  0
  2  1  1  0
  3 10  1  0
  3  2  1  0
  4  3  2  0
  6  5  1  1
  6  8  1  0
  7  6  1  0
  9  8  1  1
  9 11  1  0
  9 10  1  0
 11 13  1  0
 12 11  2  0
 13 14  1  0
 13 17  1  0
 14 15  1  0
 15 16  1  0
 17 16  1  0
 17 18  1  1
 18 20  2  0
 18 19  1  0
M  END
$$$$
