GLP.pdb
     RDKit          3D

 20 20  0  0  1  0  0  0  0  0999 V2000
    5.0779  -20.0965   23.8049 N   0  0  0  0  0  0  0  0  0  0  0  0
    5.6905  -19.3300   24.8700 C   0  0  0  0  0  0  0  0  0  0  0  0
    6.0026  -17.9322   24.4026 C   0  0  0  0  0  0  0  0  0  0  0  0
    6.0897  -17.6451   23.1821 O   0  0  0  0  0  0  0  0  0  0  0  0
    6.5554  -12.3437   25.2181 C   0  0  0  0  0  0  0  0  0  0  0  0
    7.3114  -13.3579   26.0469 C   0  0  1  0  0  0  0  0  0  0  0  0
    7.3505  -12.7194   27.4669 C   0  0  0  0  0  0  0  0  0  0  0  0
    6.5855  -14.6626   26.1655 C   0  0  0  0  0  0  0  0  0  0  0  0
    6.8794  -15.6793   25.1124 C   0  0  2  0  0  0  0  0  0  0  0  0
    6.2001  -16.9278   25.3714 N   0  0  0  0  0  0  0  0  0  0  0  0
    8.3052  -15.8461   24.9153 C   0  0  0  0  0  0  0  0  0  0  0  0
    8.9253  -16.6181   25.7471 O   0  0  0  0  0  0  0  0  0  0  0  0
    9.1112  -15.2710   23.9269 N   0  0  0  0  0  0  0  0  0  0  0  0
    9.1534  -14.0224   23.2129 C   0  0  0  0  0  0  0  0  0  0  0  0
    9.0232  -14.5786   21.7775 C   0  0  0  0  0  0  0  0  0  0  0  0
   10.1907  -15.5768   21.8273 C   0  0  0  0  0  0  0  0  0  0  0  0
   10.2912  -15.9680   23.2879 C   0  0  1  0  0  0  0  0  0  0  0  0
   11.5108  -15.4668   23.9471 C   0  0  0  0  0  0  0  0  0  0  0  0
   12.7516  -16.0141   23.7452 O   0  0  0  0  0  0  0  0  0  0  0  0
   11.4174  -14.4941   24.7308 O   0  0  0  0  0  0  0  0  0  0  0  0
  2  1  1  0
  3 10  1  0
  3  2  1  0
  4  3  2  0
  6  5  1  6
  6  8  1  0
  7  6  1  0
  9  8  1  1
  9 11  1  0
  9 10  1  0
 11 13  1  0
 12 11  2  0
 13 14  1  0
 13 17  1  0
 14 15  1  0
 15 16  1  0
 17 16  1  0
 17 18  1  1
 18 20  2  0
 18 19  1  0
M  END
$$$$
