GLP.pdb
     RDKit          3D

 20 20  0  0  1  0  0  0  0  0999 V2000
    5.2752  -20.2622   24.3288 N   0  0  0  0  0  0  0  0  0  0  0  0
    6.0184  -19.3805   25.2048 C   0  0  0  0  0  0  0  0  0  0  0  0
    5.9404  -17.9587   24.7128 C   0  0  0  0  0  0  0  0  0  0  0  0
    5.5272  -17.6778   23.5594 O   0  0  0  0  0  0  0  0  0  0  0  0
    6.0203  -12.3260   26.2706 C   0  0  0  0  0  0  0  0  0  0  0  0
    7.1691  -13.2343   25.8928 C   0  0  1  0  0  0  0  0  0  0  0  0
    8.3481  -12.7246   26.7736 C   0  0  0  0  0  0  0  0  0  0  0  0
    6.9210  -14.6637   26.2649 C   0  0  0  0  0  0  0  0  0  0  0  0
    6.8053  -15.6297   25.1326 C   0  0  2  0  0  0  0  0  0  0  0  0
    6.3450  -16.9240   25.5800 N   0  0  0  0  0  0  0  0  0  0  0  0
    8.0337  -15.7043   24.3675 C   0  0  0  0  0  0  0  0  0  0  0  0
    8.8850  -16.6144   24.7134 O   0  0  0  0  0  0  0  0  0  0  0  0
    8.4251  -14.9069   23.2867 N   0  0  0  0  0  0  0  0  0  0  0  0
    8.1941  -13.5547   22.8519 C   0  0  0  0  0  0  0  0  0  0  0  0
    7.5643  -13.8645   21.4758 C   0  0  0  0  0  0  0  0  0  0  0  0
    8.6833  -14.7622   20.9246 C   0  0  0  0  0  0  0  0  0  0  0  0
    9.3054  -15.3895   22.1559 C   0  0  1  0  0  0  0  0  0  0  0  0
   10.6743  -14.9153   22.4281 C   0  0  0  0  0  0  0  0  0  0  0  0
   11.7600  -15.2866   21.6775 O   0  0  0  0  0  0  0  0  0  0  0  0
   10.8632  -14.1351   23.3897 O   0  0  0  0  0  0  0  0  0  0  0  0
  2  1  1  0
  3 10  1  0
  3  2  1  0
  4  3  2  0
  6  5  1  1
  6  8  1  0
  7  6  1  0
  9  8  1  1
  9 11  1  0
  9 10  1  0
 11 13  1  0
 12 11  2  0
 13 14  1  0
 13 17  1  0
 14 15  1  0
 15 16  1  0
 17 16  1  0
 17 18  1  1
 18 20  2  0
 18 19  1  0
M  END
$$$$
