GLP.pdb
     RDKit          3D

 20 20  0  0  1  0  0  0  0  0999 V2000
    5.7042  -20.0199   25.6504 N   0  0  0  0  0  0  0  0  0  0  0  0
    6.7266  -19.0513   25.9877 C   0  0  0  0  0  0  0  0  0  0  0  0
    6.4449  -17.7313   25.3184 C   0  0  0  0  0  0  0  0  0  0  0  0
    5.6889  -17.6431   24.3181 O   0  0  0  0  0  0  0  0  0  0  0  0
    7.6052  -12.4420   27.5368 C   0  0  0  0  0  0  0  0  0  0  0  0
    6.9854  -13.6352   26.8443 C   0  0  1  0  0  0  0  0  0  0  0  0
    5.8350  -13.0144   25.9974 C   0  0  0  0  0  0  0  0  0  0  0  0
    7.9284  -14.3036   25.8918 C   0  0  0  0  0  0  0  0  0  0  0  0
    7.3540  -15.3965   25.0525 C   0  0  2  0  0  0  0  0  0  0  0  0
    7.0522  -16.5707   25.8384 N   0  0  0  0  0  0  0  0  0  0  0  0
    8.1936  -15.6875   23.9080 C   0  0  0  0  0  0  0  0  0  0  0  0
    8.8155  -16.8214   23.9107 O   0  0  0  0  0  0  0  0  0  0  0  0
    8.4234  -14.8884   22.7829 N   0  0  0  0  0  0  0  0  0  0  0  0
    8.2322  -13.5067   22.4295 C   0  0  0  0  0  0  0  0  0  0  0  0
    7.3045  -13.7114   21.2113 C   0  0  0  0  0  0  0  0  0  0  0  0
    8.1975  -14.6818   20.4220 C   0  0  0  0  0  0  0  0  0  0  0  0
    9.0016  -15.4041   21.4842 C   0  0  1  0  0  0  0  0  0  0  0  0
   10.4348  -15.0597   21.4707 C   0  0  0  0  0  0  0  0  0  0  0  0
   11.3036  -15.5022   20.5067 O   0  0  0  0  0  0  0  0  0  0  0  0
   10.8886  -14.3278   22.3804 O   0  0  0  0  0  0  0  0  0  0  0  0
  2  1  1  0
  3 10  1  0
  3  2  1  0
  4  3  2  0
  6  5  1  6
  6  8  1  0
  7  6  1  0
  9  8  1  1
  9 11  1  0
  9 10  1  0
 11 13  1  0
 12 11  2  0
 13 14  1  0
 13 17  1  0
 14 15  1  0
 15 16  1  0
 17 16  1  0
 17 18  1  1
 18 20  2  0
 18 19  1  0
M  END
$$$$
