GLP.pdb
     RDKit          3D

 20 20  0  0  1  0  0  0  0  0999 V2000
    5.1594  -20.2184   24.0875 N   0  0  0  0  0  0  0  0  0  0  0  0
    5.6551  -19.3596   25.1429 C   0  0  0  0  0  0  0  0  0  0  0  0
    5.9422  -17.9800   24.6100 C   0  0  0  0  0  0  0  0  0  0  0  0
    5.9324  -17.7296   23.3783 O   0  0  0  0  0  0  0  0  0  0  0  0
    6.1608  -12.2182   25.9306 C   0  0  0  0  0  0  0  0  0  0  0  0
    7.2164  -13.3010   25.9069 C   0  0  1  0  0  0  0  0  0  0  0  0
    8.1663  -12.9168   27.0798 C   0  0  0  0  0  0  0  0  0  0  0  0
    6.6588  -14.6573   26.2119 C   0  0  0  0  0  0  0  0  0  0  0  0
    6.8745  -15.7081   25.1736 C   0  0  2  0  0  0  0  0  0  0  0  0
    6.2281  -16.9503   25.5289 N   0  0  0  0  0  0  0  0  0  0  0  0
    8.2810  -15.8745   24.8673 C   0  0  0  0  0  0  0  0  0  0  0  0
    8.9579  -16.6658   25.6341 O   0  0  0  0  0  0  0  0  0  0  0  0
    9.0137  -15.2805   23.8340 N   0  0  0  0  0  0  0  0  0  0  0  0
    9.0178  -14.0116   23.1555 C   0  0  0  0  0  0  0  0  0  0  0  0
    8.7637  -14.5224   21.7199 C   0  0  0  0  0  0  0  0  0  0  0  0
    9.9157  -15.5371   21.6459 C   0  0  0  0  0  0  0  0  0  0  0  0
   10.1274  -15.9735   23.0816 C   0  0  1  0  0  0  0  0  0  0  0  0
   11.4037  -15.5087   23.6541 C   0  0  0  0  0  0  0  0  0  0  0  0
   12.6173  -16.0541   23.3229 O   0  0  0  0  0  0  0  0  0  0  0  0
   11.3873  -14.5705   24.4839 O   0  0  0  0  0  0  0  0  0  0  0  0
  2  1  1  0
  3 10  1  0
  3  2  1  0
  4  3  2  0
  6  5  1  1
  6  8  1  0
  7  6  1  0
  9  8  1  1
  9 11  1  0
  9 10  1  0
 11 13  1  0
 12 11  2  0
 13 14  1  0
 13 17  1  0
 14 15  1  0
 15 16  1  0
 17 16  1  0
 17 18  1  1
 18 20  2  0
 18 19  1  0
M  END
$$$$
