GLP.pdb
     RDKit          3D

 20 20  0  0  1  0  0  0  0  0999 V2000
   10.0328  -16.4033   20.3692 N   0  0  0  0  0  0  0  0  0  0  0  0
    9.0525  -16.5888   21.4188 C   0  0  0  0  0  0  0  0  0  0  0  0
    9.3299  -15.6586   22.5709 C   0  0  0  0  0  0  0  0  0  0  0  0
   10.4878  -15.2368   22.8187 O   0  0  0  0  0  0  0  0  0  0  0  0
    7.6813  -11.6491   26.0545 C   0  0  0  0  0  0  0  0  0  0  0  0
    7.2168  -13.0654   26.3112 C   0  0  1  0  0  0  0  0  0  0  0  0
    5.7596  -12.8877   26.8316 C   0  0  0  0  0  0  0  0  0  0  0  0
    7.1457  -13.8851   25.0597 C   0  0  0  0  0  0  0  0  0  0  0  0
    8.4064  -14.5701   24.6472 C   0  0  2  0  0  0  0  0  0  0  0  0
    8.2522  -15.2578   23.3860 N   0  0  0  0  0  0  0  0  0  0  0  0
    8.9145  -15.4299   25.6971 C   0  0  0  0  0  0  0  0  0  0  0  0
    8.8632  -16.7048   25.4864 O   0  0  0  0  0  0  0  0  0  0  0  0
    9.4612  -15.0544   26.9289 N   0  0  0  0  0  0  0  0  0  0  0  0
    9.2488  -14.0006   27.8854 C   0  0  0  0  0  0  0  0  0  0  0  0
   10.6711  -13.3979   27.8771 C   0  0  0  0  0  0  0  0  0  0  0  0
   11.4521  -14.6862   28.1812 C   0  0  0  0  0  0  0  0  0  0  0  0
   10.5882  -15.7944   27.6137 C   0  0  1  0  0  0  0  0  0  0  0  0
    9.9870  -16.6572   28.6467 C   0  0  0  0  0  0  0  0  0  0  0  0
    8.6461  -16.6620   28.9328 O   0  0  0  0  0  0  0  0  0  0  0  0
   10.7303  -17.4261   29.2989 O   0  0  0  0  0  0  0  0  0  0  0  0
  2  1  1  0
  3 10  1  0
  3  2  1  0
  4  3  2  0
  6  5  1  6
  6  8  1  0
  7  6  1  0
  9  8  1  1
  9 11  1  0
  9 10  1  0
 11 13  1  0
 12 11  2  0
 13 14  1  0
 13 17  1  0
 14 15  1  0
 15 16  1  0
 17 16  1  0
 17 18  1  1
 18 20  2  0
 18 19  1  0
M  END
$$$$
