SNF.pdb
     RDKit          3D

 26 26  0  0  1  0  0  0  0  0999 V2000
   23.1943  -14.6098  -15.8984 O   0  0  0  0  0  0  0  0  0  0  0  0
   21.8070  -14.6223  -15.9033 C   0  0  0  0  0  0  0  0  0  0  0  0
   21.2997  -14.4100  -17.3222 C   0  0  2  0  0  0  0  0  0  0  0  0
   22.2816  -14.9277  -18.2389 N   0  0  0  0  0  0  0  0  0  0  0  0
   21.1472  -12.9313  -17.4863 C   0  0  0  0  0  0  0  0  0  0  0  0
   21.6310  -12.3313  -18.4930 O   0  0  0  0  0  0  0  0  0  0  0  0
   16.5508  -11.7975  -17.1666 N   0  0  0  0  0  0  0  0  0  0  0  0
   17.6792  -10.9781  -17.5409 C   0  0  0  0  0  0  0  0  0  0  0  0
   17.7150  -10.6364  -18.7284 O   0  0  0  0  0  0  0  0  0  0  0  0
   18.6318  -10.6506  -16.5024 C   0  0  0  0  0  0  0  0  0  0  0  0
   20.1107  -10.7055  -16.8664 C   0  0  2  0  0  0  0  0  0  0  0  0
   20.4659  -12.1281  -16.5462 N   0  0  0  0  0  0  0  0  0  0  0  0
   20.9215   -9.9187  -15.9348 C   0  0  0  0  0  0  0  0  0  0  0  0
   20.9067  -10.2542  -14.6959 O   0  0  0  0  0  0  0  0  0  0  0  0
   21.7162   -8.8224  -16.3273 N   0  0  0  0  0  0  0  0  0  0  0  0
   22.5127   -8.1483  -15.2932 C   0  0  1  0  0  0  0  0  0  0  0  0
   23.8768   -7.9355  -15.9042 C   0  0  0  0  0  0  0  0  0  0  0  0
   24.5784   -9.1910  -16.2409 C   0  0  0  0  0  0  0  0  0  0  0  0
   24.5244   -9.7288  -17.5012 C   0  0  0  0  0  0  0  0  0  0  0  0
   25.2063  -10.9042  -17.7376 C   0  0  0  0  0  0  0  0  0  0  0  0
   25.9284  -11.5374  -16.7497 C   0  0  0  0  0  0  0  0  0  0  0  0
   25.9837  -10.9945  -15.4756 C   0  0  0  0  0  0  0  0  0  0  0  0
   25.2997   -9.8288  -15.2657 C   0  0  0  0  0  0  0  0  0  0  0  0
   21.8685   -6.8875  -14.8962 C   0  0  0  0  0  0  0  0  0  0  0  0
   20.7320   -6.3656  -15.4875 O   0  0  0  0  0  0  0  0  0  0  0  0
   22.3737   -6.2123  -13.9463 O   0  0  0  0  0  0  0  0  0  0  0  0
  2  1  1  0
  3  2  1  0
  3  4  1  6
  5  6  2  0
  5  3  1  0
  7  8  1  0
  8  9  2  0
  8 10  1  0
 11 10  1  1
 11 12  1  0
 12  5  1  0
 13 15  1  0
 13 11  1  0
 14 13  2  0
 16 15  1  0
 16 17  1  6
 18 17  1  0
 18 23  2  0
 19 18  1  0
 20 19  2  0
 20 21  1  0
 21 22  2  0
 22 23  1  0
 24 16  1  0
 25 24  1  0
 26 24  2  0
M  END
$$$$
