SNF.pdb
     RDKit          3D

 26 26  0  0  1  0  0  0  0  0999 V2000
   28.9935  -22.0992  -15.1618 O   0  0  0  0  0  0  0  0  0  0  0  0
   28.4266  -21.2763  -14.1995 C   0  0  0  0  0  0  0  0  0  0  0  0
   27.0022  -20.9247  -14.6033 C   0  0  2  0  0  0  0  0  0  0  0  0
   27.0563  -19.9444  -15.6562 N   0  0  0  0  0  0  0  0  0  0  0  0
   26.3577  -20.3553  -13.3798 C   0  0  0  0  0  0  0  0  0  0  0  0
   26.4349  -19.1177  -13.1153 O   0  0  0  0  0  0  0  0  0  0  0  0
   22.6862  -19.4727  -12.6433 N   0  0  0  0  0  0  0  0  0  0  0  0
   22.4868  -20.7443  -11.9889 C   0  0  0  0  0  0  0  0  0  0  0  0
   21.3587  -21.2338  -12.1150 O   0  0  0  0  0  0  0  0  0  0  0  0
   23.6109  -21.2998  -11.2673 C   0  0  0  0  0  0  0  0  0  0  0  0
   24.9197  -20.5197  -11.3018 C   0  0  2  0  0  0  0  0  0  0  0  0
   25.6357  -21.1481  -12.4615 N   0  0  0  0  0  0  0  0  0  0  0  0
   25.7640  -20.8380  -10.1485 C   0  0  0  0  0  0  0  0  0  0  0  0
   26.2630  -22.0186  -10.0782 O   0  0  0  0  0  0  0  0  0  0  0  0
   26.0590  -19.9187   -9.1212 N   0  0  0  0  0  0  0  0  0  0  0  0
   26.8999  -20.3808   -8.0088 C   0  0  1  0  0  0  0  0  0  0  0  0
   27.5780  -19.1441   -7.4699 C   0  0  0  0  0  0  0  0  0  0  0  0
   28.3155  -19.3729   -6.2107 C   0  0  0  0  0  0  0  0  0  0  0  0
   27.9161  -18.8015   -5.0299 C   0  0  0  0  0  0  0  0  0  0  0  0
   28.6570  -19.0630   -3.8963 C   0  0  0  0  0  0  0  0  0  0  0  0
   29.7710  -19.8734   -3.9264 C   0  0  0  0  0  0  0  0  0  0  0  0
   30.1753  -20.4515   -5.1194 C   0  0  0  0  0  0  0  0  0  0  0  0
   29.4248  -20.1774   -6.2296 C   0  0  0  0  0  0  0  0  0  0  0  0
   26.0770  -21.0601   -6.9971 C   0  0  0  0  0  0  0  0  0  0  0  0
   26.5737  -21.8904   -6.0084 O   0  0  0  0  0  0  0  0  0  0  0  0
   24.8185  -20.8880   -7.0126 O   0  0  0  0  0  0  0  0  0  0  0  0
  2  1  1  0
  3  2  1  0
  3  4  1  6
  5  6  2  0
  5  3  1  0
  7  8  1  0
  8  9  2  0
  8 10  1  0
 11 10  1  1
 11 12  1  0
 12  5  1  0
 13 15  1  0
 13 11  1  0
 14 13  2  0
 16 15  1  0
 16 17  1  1
 18 17  1  0
 18 23  2  0
 19 18  1  0
 20 19  2  0
 20 21  1  0
 21 22  2  0
 22 23  1  0
 24 16  1  0
 25 24  1  0
 26 24  2  0
M  END
$$$$
