SNF.pdb
     RDKit          3D

 26 26  0  0  1  0  0  0  0  0999 V2000
   26.7579  -24.6304  -16.2078 O   0  0  0  0  0  0  0  0  0  0  0  0
   26.6708  -23.7240  -15.1611 C   0  0  0  0  0  0  0  0  0  0  0  0
   26.6243  -22.3074  -15.7152 C   0  0  2  0  0  0  0  0  0  0  0  0
   27.8828  -22.0277  -16.3559 N   0  0  0  0  0  0  0  0  0  0  0  0
   26.4184  -21.4121  -14.5351 C   0  0  0  0  0  0  0  0  0  0  0  0
   26.8638  -20.2250  -14.5287 O   0  0  0  0  0  0  0  0  0  0  0  0
   23.1868  -19.3665  -10.9873 N   0  0  0  0  0  0  0  0  0  0  0  0
   22.6512  -20.4113  -11.8277 C   0  0  0  0  0  0  0  0  0  0  0  0
   21.4213  -20.5330  -11.8029 O   0  0  0  0  0  0  0  0  0  0  0  0
   23.5967  -21.1914  -12.5962 C   0  0  0  0  0  0  0  0  0  0  0  0
   25.0708  -20.8244  -12.4732 C   0  0  2  0  0  0  0  0  0  0  0  0
   25.7262  -21.8274  -13.3769 N   0  0  0  0  0  0  0  0  0  0  0  0
   25.5946  -21.1478  -11.1446 C   0  0  0  0  0  0  0  0  0  0  0  0
   25.5899  -22.3790  -10.7814 O   0  0  0  0  0  0  0  0  0  0  0  0
   26.1050  -20.1832  -10.2521 N   0  0  0  0  0  0  0  0  0  0  0  0
   26.5689  -20.6443   -8.9366 C   0  0  1  0  0  0  0  0  0  0  0  0
   27.4242  -19.5259   -8.3915 C   0  0  0  0  0  0  0  0  0  0  0  0
   27.8849  -19.7525   -7.0065 C   0  0  0  0  0  0  0  0  0  0  0  0
   28.8855  -20.6450   -6.7188 C   0  0  0  0  0  0  0  0  0  0  0  0
   29.2601  -20.8008   -5.4005 C   0  0  0  0  0  0  0  0  0  0  0  0
   28.6594  -20.0895   -4.3847 C   0  0  0  0  0  0  0  0  0  0  0  0
   27.6482  -19.1871   -4.6747 C   0  0  0  0  0  0  0  0  0  0  0  0
   27.2943  -19.0500   -5.9887 C   0  0  0  0  0  0  0  0  0  0  0  0
   25.4204  -20.9506   -8.0709 C   0  0  0  0  0  0  0  0  0  0  0  0
   25.3996  -21.9540   -7.1189 O   0  0  0  0  0  0  0  0  0  0  0  0
   24.3615  -20.2589   -8.1879 O   0  0  0  0  0  0  0  0  0  0  0  0
  2  1  1  0
  3  2  1  0
  3  4  1  1
  5  6  2  0
  5  3  1  0
  7  8  1  0
  8  9  2  0
  8 10  1  0
 11 10  1  1
 11 12  1  0
 12  5  1  0
 13 15  1  0
 13 11  1  0
 14 13  2  0
 16 15  1  0
 16 17  1  1
 18 17  1  0
 18 23  2  0
 19 18  1  0
 20 19  2  0
 20 21  1  0
 21 22  2  0
 22 23  1  0
 24 16  1  0
 25 24  1  0
 26 24  2  0
M  END
$$$$
