SNF.pdb
     RDKit          3D

 26 26  0  0  1  0  0  0  0  0999 V2000
   26.2573  -26.5613  -18.5339 O   0  0  0  0  0  0  0  0  0  0  0  0
   27.5571  -26.0948  -18.4006 C   0  0  0  0  0  0  0  0  0  0  0  0
   28.0311  -26.3062  -16.9701 C   0  0  2  0  0  0  0  0  0  0  0  0
   28.0134  -27.7179  -16.6886 N   0  0  0  0  0  0  0  0  0  0  0  0
   27.0537  -25.5792  -16.1025 C   0  0  0  0  0  0  0  0  0  0  0  0
   26.3946  -26.1880  -15.2067 O   0  0  0  0  0  0  0  0  0  0  0  0
   24.6736  -21.4721  -13.7307 N   0  0  0  0  0  0  0  0  0  0  0  0
   25.7766  -21.0338  -14.5529 C   0  0  0  0  0  0  0  0  0  0  0  0
   26.0350  -19.8263  -14.4927 O   0  0  0  0  0  0  0  0  0  0  0  0
   26.4499  -22.0387  -15.3463 C   0  0  0  0  0  0  0  0  0  0  0  0
   25.9501  -23.4737  -15.2295 C   0  0  2  0  0  0  0  0  0  0  0  0
   26.8108  -24.1939  -16.2259 N   0  0  0  0  0  0  0  0  0  0  0  0
   24.5942  -23.6142  -15.7644 C   0  0  0  0  0  0  0  0  0  0  0  0
   24.4155  -23.3823  -17.0143 O   0  0  0  0  0  0  0  0  0  0  0  0
   23.4836  -23.9935  -14.9832 N   0  0  0  0  0  0  0  0  0  0  0  0
   22.1779  -24.0900  -15.6496 C   0  0  1  0  0  0  0  0  0  0  0  0
   21.7348  -25.5223  -15.4714 C   0  0  0  0  0  0  0  0  0  0  0  0
   21.4391  -25.8817  -14.0695 C   0  0  0  0  0  0  0  0  0  0  0  0
   20.2282  -25.5941  -13.4938 C   0  0  0  0  0  0  0  0  0  0  0  0
   20.0280  -25.9618  -12.1796 C   0  0  0  0  0  0  0  0  0  0  0  0
   21.0036  -26.6016  -11.4467 C   0  0  0  0  0  0  0  0  0  0  0  0
   22.2278  -26.8929  -12.0277 C   0  0  0  0  0  0  0  0  0  0  0  0
   22.4025  -26.5185  -13.3316 C   0  0  0  0  0  0  0  0  0  0  0  0
   21.2338  -23.1290  -15.0603 C   0  0  0  0  0  0  0  0  0  0  0  0
   21.5158  -22.3121  -13.9802 O   0  0  0  0  0  0  0  0  0  0  0  0
   20.0712  -23.0245  -15.5611 O   0  0  0  0  0  0  0  0  0  0  0  0
  2  1  1  0
  3  2  1  0
  3  4  1  1
  5  6  2  0
  5  3  1  0
  7  8  1  0
  8  9  2  0
  8 10  1  0
 11 10  1  6
 11 12  1  0
 12  5  1  0
 13 15  1  0
 13 11  1  0
 14 13  2  0
 16 15  1  0
 16 17  1  1
 18 17  1  0
 18 23  2  0
 19 18  1  0
 20 19  2  0
 20 21  1  0
 21 22  2  0
 22 23  1  0
 24 16  1  0
 25 24  1  0
 26 24  2  0
M  END
$$$$
