SNF.pdb
     RDKit          3D

 26 26  0  0  1  0  0  0  0  0999 V2000
   17.6360  -10.5408  -15.7996 O   0  0  0  0  0  0  0  0  0  0  0  0
   16.9904   -9.9267  -16.8629 C   0  0  0  0  0  0  0  0  0  0  0  0
   17.6924  -10.2879  -18.1638 C   0  0  2  0  0  0  0  0  0  0  0  0
   17.6955  -11.7213  -18.2967 N   0  0  0  0  0  0  0  0  0  0  0  0
   19.0871   -9.7632  -18.0366 C   0  0  0  0  0  0  0  0  0  0  0  0
   20.0196  -10.4882  -17.5758 O   0  0  0  0  0  0  0  0  0  0  0  0
   22.2547   -5.3995  -20.7967 N   0  0  0  0  0  0  0  0  0  0  0  0
   22.2649   -6.5809  -19.9667 C   0  0  0  0  0  0  0  0  0  0  0  0
   23.3810   -6.9495  -19.5835 O   0  0  0  0  0  0  0  0  0  0  0  0
   20.9882   -7.1967  -19.6775 C   0  0  0  0  0  0  0  0  0  0  0  0
   20.8772   -8.0075  -18.3917 C   0  0  2  0  0  0  0  0  0  0  0  0
   19.4436   -8.4510  -18.4165 N   0  0  0  0  0  0  0  0  0  0  0  0
   20.9632   -7.1497  -17.2081 C   0  0  0  0  0  0  0  0  0  0  0  0
   19.9361   -6.4421  -16.9043 O   0  0  0  0  0  0  0  0  0  0  0  0
   22.1066   -7.0657  -16.3877 N   0  0  0  0  0  0  0  0  0  0  0  0
   22.0946   -6.0854  -15.2937 C   0  0  1  0  0  0  0  0  0  0  0  0
   22.8628   -6.7273  -14.1634 C   0  0  0  0  0  0  0  0  0  0  0  0
   23.8813   -7.6975  -14.6142 C   0  0  0  0  0  0  0  0  0  0  0  0
   24.8971   -7.3325  -15.4601 C   0  0  0  0  0  0  0  0  0  0  0  0
   25.8097   -8.2959  -15.8359 C   0  0  0  0  0  0  0  0  0  0  0  0
   25.7226   -9.5953  -15.3858 C   0  0  0  0  0  0  0  0  0  0  0  0
   24.6964   -9.9651  -14.5307 C   0  0  0  0  0  0  0  0  0  0  0  0
   23.8041   -8.9925  -14.1723 C   0  0  0  0  0  0  0  0  0  0  0  0
   22.6963   -4.8195  -15.7383 C   0  0  0  0  0  0  0  0  0  0  0  0
   23.2888   -4.6220  -16.9726 O   0  0  0  0  0  0  0  0  0  0  0  0
   22.6835   -3.8233  -14.9503 O   0  0  0  0  0  0  0  0  0  0  0  0
  2  1  1  0
  3  2  1  0
  3  4  1  1
  5  6  2  0
  5  3  1  0
  7  8  1  0
  8  9  2  0
  8 10  1  0
 11 10  1  6
 11 12  1  0
 12  5  1  0
 13 15  1  0
 13 11  1  0
 14 13  2  0
 16 15  1  0
 16 17  1  1
 18 17  1  0
 18 23  2  0
 19 18  1  0
 20 19  2  0
 20 21  1  0
 21 22  2  0
 22 23  1  0
 24 16  1  0
 25 24  1  0
 26 24  2  0
M  END
$$$$
