SNF.pdb
     RDKit          3D

 26 26  0  0  1  0  0  0  0  0999 V2000
   25.4283  -14.5236  -19.3863 O   0  0  0  0  0  0  0  0  0  0  0  0
   25.0455  -14.3386  -20.7069 C   0  0  0  0  0  0  0  0  0  0  0  0
   25.7820  -13.1408  -21.2888 C   0  0  2  0  0  0  0  0  0  0  0  0
   27.1970  -13.3603  -21.1402 N   0  0  0  0  0  0  0  0  0  0  0  0
   25.3407  -11.9585  -20.4863 C   0  0  0  0  0  0  0  0  0  0  0  0
   26.1189  -11.4073  -19.6508 O   0  0  0  0  0  0  0  0  0  0  0  0
   22.3665   -7.7628  -19.1352 N   0  0  0  0  0  0  0  0  0  0  0  0
   21.9053   -8.3629  -20.3648 C   0  0  0  0  0  0  0  0  0  0  0  0
   21.0059   -7.7486  -20.9494 O   0  0  0  0  0  0  0  0  0  0  0  0
   22.5353   -9.5993  -20.7739 C   0  0  0  0  0  0  0  0  0  0  0  0
   23.7213  -10.0869  -19.9501 C   0  0  2  0  0  0  0  0  0  0  0  0
   24.0527  -11.3937  -20.6095 N   0  0  0  0  0  0  0  0  0  0  0  0
   23.3135  -10.4658  -18.5957 C   0  0  0  0  0  0  0  0  0  0  0  0
   22.8129  -11.6355  -18.4253 O   0  0  0  0  0  0  0  0  0  0  0  0
   23.4464   -9.6194  -17.4762 N   0  0  0  0  0  0  0  0  0  0  0  0
   23.0548  -10.1517  -16.1642 C   0  0  1  0  0  0  0  0  0  0  0  0
   23.9734   -9.4897  -15.1654 C   0  0  0  0  0  0  0  0  0  0  0  0
   23.5441   -8.1316  -14.7741 C   0  0  0  0  0  0  0  0  0  0  0  0
   23.8477   -7.0338  -15.5378 C   0  0  0  0  0  0  0  0  0  0  0  0
   23.4112   -5.7988  -15.1057 C   0  0  0  0  0  0  0  0  0  0  0  0
   22.6885   -5.6490  -13.9422 C   0  0  0  0  0  0  0  0  0  0  0  0
   22.3811   -6.7580  -13.1698 C   0  0  0  0  0  0  0  0  0  0  0  0
   22.8246   -7.9715  -13.6188 C   0  0  0  0  0  0  0  0  0  0  0  0
   21.6362   -9.8667  -15.9024 C   0  0  0  0  0  0  0  0  0  0  0  0
   20.8818   -8.9343  -16.5918 O   0  0  0  0  0  0  0  0  0  0  0  0
   21.0403  -10.5090  -14.9827 O   0  0  0  0  0  0  0  0  0  0  0  0
  2  1  1  0
  3  2  1  0
  3  4  1  1
  5  6  2  0
  5  3  1  0
  7  8  1  0
  8  9  2  0
  8 10  1  0
 11 10  1  6
 11 12  1  0
 12  5  1  0
 13 15  1  0
 13 11  1  0
 14 13  2  0
 16 15  1  0
 16 17  1  1
 18 17  1  0
 18 23  2  0
 19 18  1  0
 20 19  2  0
 20 21  1  0
 21 22  2  0
 22 23  1  0
 24 16  1  0
 25 24  1  0
 26 24  2  0
M  END
$$$$
