RMP.pdb
     RDKit          3D

 27 27  0  0  1  0  0  0  0  0999 V2000
    8.4155  -13.9640   15.5361 N   0  0  0  0  0  0  0  0  0  0  0  0
    8.4291  -13.6342   16.9150 C   0  0  0  0  0  0  0  0  0  0  0  0
    8.2696  -12.4035   17.2694 N   0  0  0  0  0  0  0  0  0  0  0  0
    8.6134  -14.6046   17.9347 N   0  0  0  0  0  0  0  0  0  0  0  0
    9.6190  -15.6386   17.8275 C   0  0  0  0  0  0  0  0  0  0  0  0
    9.6684  -16.5444   19.0322 C   0  0  0  0  0  0  0  0  0  0  0  0
    9.7920  -15.7336   20.3167 C   0  0  0  0  0  0  0  0  0  0  0  0
    8.9686  -16.4510   21.3798 C   0  0  2  0  0  0  0  0  0  0  0  0
    7.6526  -16.6204   20.7838 N   0  0  0  0  0  0  0  0  0  0  0  0
    8.8864  -15.6119   22.6170 C   0  0  0  0  0  0  0  0  0  0  0  0
    9.2474  -14.4105   22.5734 O   0  0  0  0  0  0  0  0  0  0  0  0
    8.2768  -12.1300   18.2958 C   0  0  0  0  0  0  0  0  0  0  0  0
    7.1169  -11.0780   26.1785 S   0  0  0  0  0  0  0  0  0  0  0  0
    5.9874  -12.4928   26.2179 C   0  0  0  0  0  0  0  0  0  0  0  0
    6.8874  -14.0341   26.6002 C   0  0  0  0  0  0  0  0  0  0  0  0
    6.9632  -14.8601   25.3672 C   0  0  2  0  0  0  0  0  0  0  0  0
    8.3744  -15.3602   25.0686 N   0  0  0  0  0  0  0  0  0  0  0  0
    8.3999  -16.1413   23.8697 C   0  0  0  0  0  0  0  0  0  0  0  0
    8.9994  -15.9821   26.2301 O   0  0  0  0  0  0  0  0  0  0  0  0
    8.4728  -17.1135   26.5418 N   0  0  0  0  0  0  0  0  0  0  0  0
   10.0495  -15.5410   27.0194 C   0  0  0  0  0  0  0  0  0  0  0  0
   10.8867  -14.3258   26.8839 C   0  0  0  0  0  0  0  0  0  0  0  0
   10.8433  -13.8077   28.3289 C   0  0  0  0  0  0  0  0  0  0  0  0
   10.4017  -15.0054   29.1853 C   0  0  2  0  0  0  0  0  0  0  0  0
   10.6629  -16.1404   28.1750 C   0  0  0  0  0  0  0  0  0  0  0  0
   10.3358  -17.4500   28.6343 O   0  0  0  0  0  0  0  0  0  0  0  0
   11.3670  -18.0798   29.4221 O   0  0  0  0  0  0  0  0  0  0  0  0
  1  2  1  0
  2  3  2  0
  4  2  1  0
  5  4  1  0
  6  5  1  0
  7  6  1  0
  8  7  1  0
  8  9  1  6
 10  8  1  0
 10 11  2  0
 13 12  1  0
 14 13  1  0
 14 15  1  0
 16 17  1  0
 16 15  1  6
 17 10  1  0
 18 16  1  0
 19 18  2  0
 20 18  1  0
 20 21  1  0
 22 21  1  0
 23 22  1  0
 24 23  1  0
 24 20  1  0
 24 25  1  1
 25 26  1  0
 27 25  2  0
M  END
$$$$
