RMP.pdb
     RDKit          3D

 27 27  0  0  1  0  0  0  0  0999 V2000
    8.1506  -13.6819   15.1010 N   0  0  0  0  0  0  0  0  0  0  0  0
    8.0873  -13.7726   16.5145 C   0  0  0  0  0  0  0  0  0  0  0  0
    8.3240  -12.7207   17.2238 N   0  0  0  0  0  0  0  0  0  0  0  0
    7.7738  -14.9795   17.1932 N   0  0  0  0  0  0  0  0  0  0  0  0
    8.8057  -15.8729   17.6715 C   0  0  0  0  0  0  0  0  0  0  0  0
    8.5195  -16.4280   19.0442 C   0  0  0  0  0  0  0  0  0  0  0  0
    8.8057  -15.3882   20.1210 C   0  0  0  0  0  0  0  0  0  0  0  0
    9.4482  -16.1218   21.2922 C   0  0  2  0  0  0  0  0  0  0  0  0
    8.6823  -17.3507   21.4305 N   0  0  0  0  0  0  0  0  0  0  0  0
    9.3477  -15.2917   22.5341 C   0  0  0  0  0  0  0  0  0  0  0  0
    9.9925  -14.2176   22.6128 O   0  0  0  0  0  0  0  0  0  0  0  0
    8.3600  -12.7789   18.2839 C   0  0  0  0  0  0  0  0  0  0  0  0
    6.3812  -10.9920   25.7033 S   0  0  0  0  0  0  0  0  0  0  0  0
    5.8202  -12.4895   26.5528 C   0  0  0  0  0  0  0  0  0  0  0  0
    7.1329  -13.7577   26.5722 C   0  0  0  0  0  0  0  0  0  0  0  0
    7.1771  -14.4182   25.2417 C   0  0  1  0  0  0  0  0  0  0  0  0
    8.5523  -14.9881   24.9029 N   0  0  0  0  0  0  0  0  0  0  0  0
    8.5256  -15.6866   23.6541 C   0  0  0  0  0  0  0  0  0  0  0  0
    9.1361  -15.7264   26.0166 O   0  0  0  0  0  0  0  0  0  0  0  0
    8.6221  -16.8952   26.1726 N   0  0  0  0  0  0  0  0  0  0  0  0
   10.1370  -15.3588   26.9017 C   0  0  0  0  0  0  0  0  0  0  0  0
   11.0655  -14.2050   26.8506 C   0  0  0  0  0  0  0  0  0  0  0  0
   10.9251  -13.6838   28.2882 C   0  0  0  0  0  0  0  0  0  0  0  0
   10.3242  -14.8469   29.0938 C   0  0  2  0  0  0  0  0  0  0  0  0
   10.5980  -15.9983   28.1057 C   0  0  0  0  0  0  0  0  0  0  0  0
   10.1395  -17.2814   28.5258 O   0  0  0  0  0  0  0  0  0  0  0  0
   10.9385  -17.8898   29.5613 O   0  0  0  0  0  0  0  0  0  0  0  0
  1  2  1  0
  2  3  2  0
  4  2  1  0
  5  4  1  0
  6  5  1  0
  7  6  1  0
  8  7  1  0
  8  9  1  1
 10  8  1  0
 10 11  2  0
 13 12  1  0
 14 13  1  0
 14 15  1  0
 16 17  1  0
 16 15  1  6
 17 10  1  0
 18 16  1  0
 19 18  2  0
 20 18  1  0
 20 21  1  0
 22 21  1  0
 23 22  1  0
 24 23  1  0
 24 20  1  0
 24 25  1  1
 25 26  1  0
 27 25  2  0
M  END
$$$$
