RMP.pdb
     RDKit          3D

 27 27  0  0  1  0  0  0  0  0999 V2000
   10.4184  -21.4853   20.5203 N   0  0  0  0  0  0  0  0  0  0  0  0
   11.0100  -20.3984   21.2123 C   0  0  0  0  0  0  0  0  0  0  0  0
   12.2912  -20.2485   21.1710 N   0  0  0  0  0  0  0  0  0  0  0  0
   10.2510  -19.4581   21.9575 N   0  0  0  0  0  0  0  0  0  0  0  0
    9.0884  -19.8541   22.7214 C   0  0  0  0  0  0  0  0  0  0  0  0
    8.0242  -20.5146   21.8814 C   0  0  0  0  0  0  0  0  0  0  0  0
    6.8514  -19.5696   21.6491 C   0  0  0  0  0  0  0  0  0  0  0  0
    6.2357  -19.2768   23.0122 C   0  0  2  0  0  0  0  0  0  0  0  0
    4.9940  -20.0342   23.0334 N   0  0  0  0  0  0  0  0  0  0  0  0
    5.9649  -17.8107   23.1480 C   0  0  0  0  0  0  0  0  0  0  0  0
    5.2024  -17.2449   22.3269 O   0  0  0  0  0  0  0  0  0  0  0  0
   12.7605  -19.4513   21.6931 C   0  0  0  0  0  0  0  0  0  0  0  0
    6.9195  -10.9767   27.0149 S   0  0  0  0  0  0  0  0  0  0  0  0
    7.0906  -12.7793   27.0249 C   0  0  0  0  0  0  0  0  0  0  0  0
    6.9329  -13.4578   25.3377 C   0  0  0  0  0  0  0  0  0  0  0  0
    6.9546  -14.9416   25.4167 C   0  0  2  0  0  0  0  0  0  0  0  0
    6.7958  -15.6149   24.0558 N   0  0  0  0  0  0  0  0  0  0  0  0
    6.5544  -17.0179   24.2017 C   0  0  0  0  0  0  0  0  0  0  0  0
    7.8682  -15.2604   23.1335 O   0  0  0  0  0  0  0  0  0  0  0  0
    9.0321  -15.6125   23.5530 N   0  0  0  0  0  0  0  0  0  0  0  0
    7.8119  -14.6199   21.9060 C   0  0  0  0  0  0  0  0  0  0  0  0
    6.6323  -14.2196   21.1033 C   0  0  0  0  0  0  0  0  0  0  0  0
    7.0183  -12.7728   20.7624 C   0  0  0  0  0  0  0  0  0  0  0  0
    8.5346  -12.6822   20.9975 C   0  0  2  0  0  0  0  0  0  0  0  0
    8.8692  -14.1869   21.0310 C   0  0  0  0  0  0  0  0  0  0  0  0
   10.2414  -14.4993   21.2600 O   0  0  0  0  0  0  0  0  0  0  0  0
   11.0246  -14.6583   20.0592 O   0  0  0  0  0  0  0  0  0  0  0  0
  1  2  1  0
  2  3  2  0
  4  2  1  0
  5  4  1  0
  6  5  1  0
  7  6  1  0
  8  7  1  0
  8  9  1  6
 10  8  1  0
 10 11  2  0
 13 12  1  0
 14 13  1  0
 14 15  1  0
 16 17  1  0
 16 15  1  1
 17 10  1  0
 18 16  1  0
 19 18  2  0
 20 18  1  0
 20 21  1  0
 22 21  1  0
 23 22  1  0
 24 23  1  0
 24 20  1  0
 24 25  1  1
 25 26  1  0
 27 25  2  0
M  END
$$$$
