RMP.pdb
     RDKit          3D

 27 27  0  0  1  0  0  0  0  0999 V2000
    8.2687  -12.7942   17.6048 N   0  0  0  0  0  0  0  0  0  0  0  0
    8.1287  -13.8301   16.6469 C   0  0  0  0  0  0  0  0  0  0  0  0
    8.6375  -13.6732   15.4713 N   0  0  0  0  0  0  0  0  0  0  0  0
    7.4465  -15.0441   16.9231 N   0  0  0  0  0  0  0  0  0  0  0  0
    7.2524  -15.5162   18.2764 C   0  0  0  0  0  0  0  0  0  0  0  0
    8.4869  -15.3851   19.1326 C   0  0  0  0  0  0  0  0  0  0  0  0
    8.1221  -14.9611   20.5503 C   0  0  0  0  0  0  0  0  0  0  0  0
    8.8416  -15.9109   21.5006 C   0  0  2  0  0  0  0  0  0  0  0  0
    8.0018  -17.0975   21.5519 N   0  0  0  0  0  0  0  0  0  0  0  0
    8.9607  -15.2866   22.8562 C   0  0  0  0  0  0  0  0  0  0  0  0
    9.7354  -14.3128   23.0216 O   0  0  0  0  0  0  0  0  0  0  0  0
    8.5428  -14.4323   14.7343 C   0  0  0  0  0  0  0  0  0  0  0  0
    5.7959  -10.7478   25.9531 S   0  0  0  0  0  0  0  0  0  0  0  0
    6.4649  -12.3073   26.5849 C   0  0  0  0  0  0  0  0  0  0  0  0
    6.3584  -13.6207   25.3218 C   0  0  0  0  0  0  0  0  0  0  0  0
    6.9535  -14.8645   25.8762 C   0  0  2  0  0  0  0  0  0  0  0  0
    8.3267  -15.1829   25.2899 N   0  0  0  0  0  0  0  0  0  0  0  0
    8.2070  -15.7691   23.9898 C   0  0  0  0  0  0  0  0  0  0  0  0
    9.1734  -15.9128   26.2263 O   0  0  0  0  0  0  0  0  0  0  0  0
    8.9203  -17.1735   26.2591 N   0  0  0  0  0  0  0  0  0  0  0  0
   10.1825  -15.4544   27.0580 C   0  0  0  0  0  0  0  0  0  0  0  0
   10.9269  -14.1735   27.0219 C   0  0  0  0  0  0  0  0  0  0  0  0
   10.8358  -13.7685   28.5003 C   0  0  0  0  0  0  0  0  0  0  0  0
   10.4800  -15.0558   29.2614 C   0  0  2  0  0  0  0  0  0  0  0  0
   10.8320  -16.0903   28.1738 C   0  0  0  0  0  0  0  0  0  0  0  0
   10.6012  -17.4510   28.5320 O   0  0  0  0  0  0  0  0  0  0  0  0
   11.5655  -17.9954   29.4564 O   0  0  0  0  0  0  0  0  0  0  0  0
  1  2  1  0
  2  3  2  0
  4  2  1  0
  5  4  1  0
  6  5  1  0
  7  6  1  0
  8  7  1  0
  8  9  1  1
 10  8  1  0
 10 11  2  0
 13 12  1  0
 14 13  1  0
 14 15  1  0
 16 17  1  0
 16 15  1  6
 17 10  1  0
 18 16  1  0
 19 18  2  0
 20 18  1  0
 20 21  1  0
 22 21  1  0
 23 22  1  0
 24 23  1  0
 24 20  1  0
 24 25  1  1
 25 26  1  0
 27 25  2  0
M  END
$$$$
