RMP.pdb
     RDKit          3D

 27 27  0  0  1  0  0  0  0  0999 V2000
    8.6400  -13.7082   15.8730 N   0  0  0  0  0  0  0  0  0  0  0  0
    9.0339  -13.4451   17.2094 C   0  0  0  0  0  0  0  0  0  0  0  0
    8.8509  -12.2651   17.6987 N   0  0  0  0  0  0  0  0  0  0  0  0
    9.6276  -14.4293   18.0427 N   0  0  0  0  0  0  0  0  0  0  0  0
    8.8334  -15.4251   18.7279 C   0  0  0  0  0  0  0  0  0  0  0  0
    7.9962  -14.8507   19.8430 C   0  0  0  0  0  0  0  0  0  0  0  0
    7.2742  -15.9558   20.6046 C   0  0  0  0  0  0  0  0  0  0  0  0
    8.2788  -16.5570   21.5804 C   0  0  2  0  0  0  0  0  0  0  0  0
    7.6428  -17.7683   22.0746 N   0  0  0  0  0  0  0  0  0  0  0  0
    8.5400  -15.5999   22.7016 C   0  0  0  0  0  0  0  0  0  0  0  0
    9.3223  -14.6351   22.5203 O   0  0  0  0  0  0  0  0  0  0  0  0
    9.1291  -12.0446   18.6999 C   0  0  0  0  0  0  0  0  0  0  0  0
    6.1374  -11.7380   27.4903 S   0  0  0  0  0  0  0  0  0  0  0  0
    5.3683  -12.3047   25.9520 C   0  0  0  0  0  0  0  0  0  0  0  0
    6.5507  -13.2679   24.9491 C   0  0  0  0  0  0  0  0  0  0  0  0
    7.1797  -14.2996   25.8141 C   0  0  2  0  0  0  0  0  0  0  0  0
    8.3518  -15.0099   25.1414 N   0  0  0  0  0  0  0  0  0  0  0  0
    7.9159  -15.7485   23.9957 C   0  0  0  0  0  0  0  0  0  0  0  0
    9.1656  -15.7585   26.0919 O   0  0  0  0  0  0  0  0  0  0  0  0
    8.8283  -16.9965   26.1806 N   0  0  0  0  0  0  0  0  0  0  0  0
   10.2201  -15.3379   26.8866 C   0  0  0  0  0  0  0  0  0  0  0  0
   11.0269  -14.0975   26.8058 C   0  0  0  0  0  0  0  0  0  0  0  0
   10.9987  -13.6628   28.2784 C   0  0  0  0  0  0  0  0  0  0  0  0
   10.6004  -14.9169   29.0730 C   0  0  2  0  0  0  0  0  0  0  0  0
   10.8683  -15.9867   27.9956 C   0  0  0  0  0  0  0  0  0  0  0  0
   10.5795  -17.3274   28.3855 O   0  0  0  0  0  0  0  0  0  0  0  0
   11.5260  -17.8946   29.3146 O   0  0  0  0  0  0  0  0  0  0  0  0
  1  2  1  0
  2  3  2  0
  4  2  1  0
  5  4  1  0
  6  5  1  0
  7  6  1  0
  8  7  1  0
  8  9  1  1
 10  8  1  0
 10 11  2  0
 13 12  1  0
 14 13  1  0
 14 15  1  0
 16 17  1  0
 16 15  1  6
 17 10  1  0
 18 16  1  0
 19 18  2  0
 20 18  1  0
 20 21  1  0
 22 21  1  0
 23 22  1  0
 24 23  1  0
 24 20  1  0
 24 25  1  1
 25 26  1  0
 27 25  2  0
M  END
$$$$
