RMP.pdb
     RDKit          3D

 27 27  0  0  1  0  0  0  0  0999 V2000
    8.2749  -12.9765   17.7810 N   0  0  0  0  0  0  0  0  0  0  0  0
    8.1482  -14.2487   17.1681 C   0  0  0  0  0  0  0  0  0  0  0  0
    8.4981  -14.3905   15.9341 N   0  0  0  0  0  0  0  0  0  0  0  0
    7.6479  -15.3856   17.8556 N   0  0  0  0  0  0  0  0  0  0  0  0
    8.5176  -16.2631   18.6076 C   0  0  0  0  0  0  0  0  0  0  0  0
    9.5674  -15.5224   19.3975 C   0  0  0  0  0  0  0  0  0  0  0  0
    9.3742  -15.7384   20.8937 C   0  0  0  0  0  0  0  0  0  0  0  0
    8.7393  -14.4698   21.4507 C   0  0  2  0  0  0  0  0  0  0  0  0
    9.4100  -13.3800   20.7591 N   0  0  0  0  0  0  0  0  0  0  0  0
    8.9740  -14.3850   22.9270 C   0  0  0  0  0  0  0  0  0  0  0  0
   10.0426  -13.8842   23.3546 O   0  0  0  0  0  0  0  0  0  0  0  0
    8.3854  -15.3256   15.4429 C   0  0  0  0  0  0  0  0  0  0  0  0
    6.1021  -10.4917   26.9272 S   0  0  0  0  0  0  0  0  0  0  0  0
    6.8364  -12.1367   27.1115 C   0  0  0  0  0  0  0  0  0  0  0  0
    6.2035  -13.2788   25.8361 C   0  0  0  0  0  0  0  0  0  0  0  0
    6.8516  -14.6036   26.0187 C   0  0  2  0  0  0  0  0  0  0  0  0
    8.1916  -14.7180   25.2961 N   0  0  0  0  0  0  0  0  0  0  0  0
    8.0037  -14.8619   23.8847 C   0  0  0  0  0  0  0  0  0  0  0  0
    9.0702  -15.7061   25.9110 O   0  0  0  0  0  0  0  0  0  0  0  0
    8.7485  -16.9175   25.6220 N   0  0  0  0  0  0  0  0  0  0  0  0
   10.1702  -15.5295   26.7351 C   0  0  0  0  0  0  0  0  0  0  0  0
   11.0649  -14.3567   26.8770 C   0  0  0  0  0  0  0  0  0  0  0  0
   11.1015  -14.2308   28.4071 C   0  0  0  0  0  0  0  0  0  0  0  0
   10.6287  -15.5904   28.9461 C   0  0  2  0  0  0  0  0  0  0  0  0
   10.7926  -16.4336   27.6658 C   0  0  0  0  0  0  0  0  0  0  0  0
   10.4136  -17.8028   27.7872 O   0  0  0  0  0  0  0  0  0  0  0  0
    8.9940  -18.0389   27.6881 O   0  0  0  0  0  0  0  0  0  0  0  0
  1  2  1  0
  2  3  2  0
  4  2  1  0
  5  4  1  0
  6  5  1  0
  7  6  1  0
  8  7  1  0
  8  9  1  6
 10  8  1  0
 10 11  2  0
 13 12  1  0
 14 13  1  0
 14 15  1  0
 16 17  1  0
 16 15  1  6
 17 10  1  0
 18 16  1  0
 19 18  2  0
 20 18  1  0
 20 21  1  0
 22 21  1  0
 23 22  1  0
 24 23  1  0
 24 20  1  0
 24 25  1  1
 25 26  1  0
 27 25  2  0
M  END
$$$$
