RMP.pdb
     RDKit          3D

 27 27  0  0  1  0  0  0  0  0999 V2000
    8.9814  -13.7510   15.3229 N   0  0  0  0  0  0  0  0  0  0  0  0
    8.3133  -13.9994   16.5485 C   0  0  0  0  0  0  0  0  0  0  0  0
    7.7230  -15.1333   16.7250 N   0  0  0  0  0  0  0  0  0  0  0  0
    8.2618  -13.0484   17.6014 N   0  0  0  0  0  0  0  0  0  0  0  0
    7.5691  -13.3232   18.8409 C   0  0  0  0  0  0  0  0  0  0  0  0
    8.4578  -13.9385   19.8926 C   0  0  0  0  0  0  0  0  0  0  0  0
    8.0833  -15.3956   20.1354 C   0  0  0  0  0  0  0  0  0  0  0  0
    9.0761  -15.9498   21.1503 C   0  0  2  0  0  0  0  0  0  0  0  0
    8.6930  -17.3418   21.3281 N   0  0  0  0  0  0  0  0  0  0  0  0
    8.9623  -15.1995   22.4409 C   0  0  0  0  0  0  0  0  0  0  0  0
    9.5608  -14.1041   22.5732 O   0  0  0  0  0  0  0  0  0  0  0  0
    7.3575  -15.4107   17.6831 C   0  0  0  0  0  0  0  0  0  0  0  0
    6.5816  -10.8890   26.5552 S   0  0  0  0  0  0  0  0  0  0  0  0
    5.6558  -12.4119   26.2349 C   0  0  0  0  0  0  0  0  0  0  0  0
    6.7070  -13.8806   26.4986 C   0  0  0  0  0  0  0  0  0  0  0  0
    6.7536  -14.6659   25.2378 C   0  0  2  0  0  0  0  0  0  0  0  0
    8.1721  -15.0519   24.8262 N   0  0  0  0  0  0  0  0  0  0  0  0
    8.1790  -15.6960   23.5482 C   0  0  0  0  0  0  0  0  0  0  0  0
    8.8828  -15.7605   25.8842 O   0  0  0  0  0  0  0  0  0  0  0  0
    8.4769  -16.9707   26.0426 N   0  0  0  0  0  0  0  0  0  0  0  0
    9.9037  -15.3281   26.7155 C   0  0  0  0  0  0  0  0  0  0  0  0
   10.7064  -14.0838   26.6563 C   0  0  0  0  0  0  0  0  0  0  0  0
   10.6195  -13.6384   28.1234 C   0  0  0  0  0  0  0  0  0  0  0  0
   10.1976  -14.8889   28.9116 C   0  0  2  0  0  0  0  0  0  0  0  0
   10.5123  -15.9651   27.8534 C   0  0  0  0  0  0  0  0  0  0  0  0
   10.2159  -17.3045   28.2421 O   0  0  0  0  0  0  0  0  0  0  0  0
   10.9748  -17.7782   29.3737 O   0  0  0  0  0  0  0  0  0  0  0  0
  1  2  1  0
  2  3  2  0
  4  2  1  0
  5  4  1  0
  6  5  1  0
  7  6  1  0
  8  7  1  0
  8  9  1  1
 10  8  1  0
 10 11  2  0
 13 12  1  0
 14 13  1  0
 14 15  1  0
 16 17  1  0
 16 15  1  6
 17 10  1  0
 18 16  1  0
 19 18  2  0
 20 18  1  0
 20 21  1  0
 22 21  1  0
 23 22  1  0
 24 23  1  0
 24 20  1  0
 24 25  1  1
 25 26  1  0
 27 25  2  0
M  END
$$$$
