EIW.pdb
     RDKit          3D

 32 33  0  0  1  0  0  0  0  0999 V2000
   24.5989  -23.2832  -16.8922 N   0  0  0  0  0  0  0  0  0  0  0  0
   24.0727  -22.8967  -15.5929 C   0  0  1  0  0  0  0  0  0  0  0  0
   23.1802  -24.0305  -15.1545 C   0  0  0  0  0  0  0  0  0  0  0  0
   21.8932  -24.1204  -15.9018 C   0  0  0  0  0  0  0  0  0  0  0  0
   22.1496  -24.6591  -17.2618 C   0  0  0  0  0  0  0  0  0  0  0  0
   22.5278  -25.8452  -17.3775 O   0  0  0  0  0  0  0  0  0  0  0  0
   25.1389  -22.5574  -14.6415 C   0  0  0  0  0  0  0  0  0  0  0  0
   25.6502  -23.4573  -13.9317 O   0  0  0  0  0  0  0  0  0  0  0  0
   21.9667  -23.8392  -18.3936 O   0  0  0  0  0  0  0  0  0  0  0  0
   28.6973  -18.3756  -15.3367 C   0  0  0  0  0  0  0  0  0  0  0  0
   28.0707  -19.7164  -15.0298 C   0  0  0  0  0  0  0  0  0  0  0  0
   27.3151  -19.6121  -13.7259 C   0  0  2  0  0  0  0  0  0  0  0  0
   28.1857  -19.1964  -12.5728 C   0  0  0  0  0  0  0  0  0  0  0  0
   26.5273  -20.8611  -13.4284 C   0  0  2  0  0  0  0  0  0  0  0  0
   25.6227  -21.2005  -14.4964 N   0  0  0  0  0  0  0  0  0  0  0  0
   25.8378  -20.7877  -12.1135 C   0  0  0  0  0  0  0  0  0  0  0  0
   24.7383  -20.1920  -12.0456 O   0  0  0  0  0  0  0  0  0  0  0  0
   26.3662  -21.3602  -10.9348 N   0  0  0  0  0  0  0  0  0  0  0  0
   25.7448  -21.2963   -9.6208 C   0  0  1  0  0  0  0  0  0  0  0  0
   26.6923  -21.6123   -8.5390 C   0  0  0  0  0  0  0  0  0  0  0  0
   26.9992  -20.4690   -7.6679 C   0  0  0  0  0  0  0  0  0  0  0  0
   26.4700  -19.1758   -7.7251 C   0  0  0  0  0  0  0  0  0  0  0  0
   27.0231  -18.3977   -6.7804 N   0  0  0  0  0  0  0  0  0  0  0  0
   27.9107  -19.1299   -6.0856 C   0  0  0  0  0  0  0  0  0  0  0  0
   28.7203  -18.7857   -5.0044 C   0  0  0  0  0  0  0  0  0  0  0  0
   29.5615  -19.7300   -4.4198 C   0  0  0  0  0  0  0  0  0  0  0  0
   29.5461  -20.9910   -4.9594 C   0  0  0  0  0  0  0  0  0  0  0  0
   28.7458  -21.3341   -6.0305 C   0  0  0  0  0  0  0  0  0  0  0  0
   27.9136  -20.3999   -6.6096 C   0  0  0  0  0  0  0  0  0  0  0  0
   24.9018  -20.1482   -9.3829 C   0  0  0  0  0  0  0  0  0  0  0  0
   25.2915  -18.9629   -9.6541 O   0  0  0  0  0  0  0  0  0  0  0  0
   23.6126  -20.2163   -8.8561 O   0  0  0  0  0  0  0  0  0  0  0  0
  2  1  1  6
  3  2  1  0
  4  5  1  0
  4  3  1  0
  5  6  2  0
  7  8  2  0
  7  2  1  0
  9  5  1  0
 10 11  1  0
 12 11  1  0
 12 14  1  0
 12 13  1  1
 14 15  1  6
 15  7  1  0
 16 14  1  0
 16 18  1  0
 17 16  2  0
 19 18  1  0
 19 30  1  0
 20 21  1  0
 19 20  1  1
 21 29  1  0
 22 21  2  0
 22 23  1  0
 23 24  1  0
 24 25  1  0
 25 26  2  0
 27 26  1  0
 28 27  2  0
 29 24  2  0
 29 28  1  0
 30 32  1  0
 31 30  2  0
M  END
$$$$
