EIW.pdb
     RDKit          3D

 32 33  0  0  1  0  0  0  0  0999 V2000
   25.6204  -15.6666  -16.6114 N   0  0  0  0  0  0  0  0  0  0  0  0
   25.9731  -15.8521  -15.2129 C   0  0  1  0  0  0  0  0  0  0  0  0
   25.0223  -14.9836  -14.4282 C   0  0  0  0  0  0  0  0  0  0  0  0
   23.6105  -15.0361  -14.9045 C   0  0  0  0  0  0  0  0  0  0  0  0
   23.4265  -14.0606  -16.0090 C   0  0  0  0  0  0  0  0  0  0  0  0
   23.5582  -12.8418  -15.7632 O   0  0  0  0  0  0  0  0  0  0  0  0
   25.9683  -17.2681  -14.8230 C   0  0  0  0  0  0  0  0  0  0  0  0
   24.9482  -17.9685  -15.0323 O   0  0  0  0  0  0  0  0  0  0  0  0
   23.1095  -14.5118  -17.3061 O   0  0  0  0  0  0  0  0  0  0  0  0
   29.4078  -20.6495  -16.5671 C   0  0  0  0  0  0  0  0  0  0  0  0
   28.2142  -19.9123  -16.0044 C   0  0  0  0  0  0  0  0  0  0  0  0
   28.2265  -20.0454  -14.4998 C   0  0  2  0  0  0  0  0  0  0  0  0
   28.2930  -21.4740  -14.0359 C   0  0  0  0  0  0  0  0  0  0  0  0
   27.0960  -19.2857  -13.8564 C   0  0  2  0  0  0  0  0  0  0  0  0
   27.1181  -17.8865  -14.1971 N   0  0  0  0  0  0  0  0  0  0  0  0
   27.0409  -19.5028  -12.3869 C   0  0  0  0  0  0  0  0  0  0  0  0
   27.8531  -18.8871  -11.6592 O   0  0  0  0  0  0  0  0  0  0  0  0
   26.1129  -20.3729  -11.7720 N   0  0  0  0  0  0  0  0  0  0  0  0
   26.0904  -20.7095  -10.3568 C   0  0  1  0  0  0  0  0  0  0  0  0
   26.2865  -19.5292   -9.4987 C   0  0  0  0  0  0  0  0  0  0  0  0
   26.2190  -19.8248   -8.0606 C   0  0  0  0  0  0  0  0  0  0  0  0
   25.1589  -20.3919   -7.3464 C   0  0  0  0  0  0  0  0  0  0  0  0
   25.4602  -20.4729   -6.0401 N   0  0  0  0  0  0  0  0  0  0  0  0
   26.6953  -19.9771   -5.8521 C   0  0  0  0  0  0  0  0  0  0  0  0
   27.4569  -19.8585   -4.6907 C   0  0  0  0  0  0  0  0  0  0  0  0
   28.7428  -19.3246   -4.7377 C   0  0  0  0  0  0  0  0  0  0  0  0
   29.2050  -18.9311   -5.9678 C   0  0  0  0  0  0  0  0  0  0  0  0
   28.4526  -19.0468   -7.1191 C   0  0  0  0  0  0  0  0  0  0  0  0
   27.1798  -19.5747   -7.0731 C   0  0  0  0  0  0  0  0  0  0  0  0
   25.0322  -21.6006   -9.9427 C   0  0  0  0  0  0  0  0  0  0  0  0
   25.2593  -22.6060   -9.1890 O   0  0  0  0  0  0  0  0  0  0  0  0
   23.6943  -21.4536  -10.3067 O   0  0  0  0  0  0  0  0  0  0  0  0
  2  1  1  6
  3  2  1  0
  4  5  1  0
  4  3  1  0
  5  6  2  0
  7  8  2  0
  7  2  1  0
  9  5  1  0
 10 11  1  0
 12 11  1  0
 12 14  1  0
 12 13  1  6
 14 15  1  1
 15  7  1  0
 16 14  1  0
 16 18  1  0
 17 16  2  0
 19 18  1  0
 19 30  1  0
 20 21  1  0
 19 20  1  1
 21 29  1  0
 22 21  2  0
 22 23  1  0
 23 24  1  0
 24 25  1  0
 25 26  2  0
 27 26  1  0
 28 27  2  0
 29 24  2  0
 29 28  1  0
 30 32  1  0
 31 30  2  0
M  END
$$$$
