EIW.pdb
     RDKit          3D

 32 33  0  0  1  0  0  0  0  0999 V2000
   25.3297  -25.0944  -15.9631 N   0  0  0  0  0  0  0  0  0  0  0  0
   24.8068  -23.8497  -15.4230 C   0  0  1  0  0  0  0  0  0  0  0  0
   23.4527  -24.1844  -14.8499 C   0  0  0  0  0  0  0  0  0  0  0  0
   22.3793  -24.3485  -15.8714 C   0  0  0  0  0  0  0  0  0  0  0  0
   22.0083  -23.0171  -16.4148 C   0  0  0  0  0  0  0  0  0  0  0  0
   21.2684  -22.2743  -15.7335 O   0  0  0  0  0  0  0  0  0  0  0  0
   25.7344  -23.2254  -14.4706 C   0  0  0  0  0  0  0  0  0  0  0  0
   26.2945  -23.9282  -13.5946 O   0  0  0  0  0  0  0  0  0  0  0  0
   22.4874  -22.6091  -17.6760 O   0  0  0  0  0  0  0  0  0  0  0  0
   28.5431  -18.4776  -15.4281 C   0  0  0  0  0  0  0  0  0  0  0  0
   28.1491  -19.8846  -15.0412 C   0  0  0  0  0  0  0  0  0  0  0  0
   27.2705  -19.8226  -13.8140 C   0  0  2  0  0  0  0  0  0  0  0  0
   27.9234  -19.1170  -12.6579 C   0  0  0  0  0  0  0  0  0  0  0  0
   26.7383  -21.1788  -13.4313 C   0  0  2  0  0  0  0  0  0  0  0  0
   26.0246  -21.8076  -14.5127 N   0  0  0  0  0  0  0  0  0  0  0  0
   25.9335  -21.1321  -12.1824 C   0  0  0  0  0  0  0  0  0  0  0  0
   24.7319  -20.7872  -12.2563 O   0  0  0  0  0  0  0  0  0  0  0  0
   26.4623  -21.4596  -10.9138 N   0  0  0  0  0  0  0  0  0  0  0  0
   25.7058  -21.4826   -9.6712 C   0  0  1  0  0  0  0  0  0  0  0  0
   26.5673  -21.6970   -8.4966 C   0  0  0  0  0  0  0  0  0  0  0  0
   26.8340  -20.4738   -7.7267 C   0  0  0  0  0  0  0  0  0  0  0  0
   26.1769  -19.2423   -7.8110 C   0  0  0  0  0  0  0  0  0  0  0  0
   26.7301  -18.3540   -6.9692 N   0  0  0  0  0  0  0  0  0  0  0  0
   27.7423  -18.9518   -6.3174 C   0  0  0  0  0  0  0  0  0  0  0  0
   28.6043  -18.4615   -5.3379 C   0  0  0  0  0  0  0  0  0  0  0  0
   29.5818  -19.2817   -4.7788 C   0  0  0  0  0  0  0  0  0  0  0  0
   29.6443  -20.5723   -5.2393 C   0  0  0  0  0  0  0  0  0  0  0  0
   28.7924  -21.0600   -6.2096 C   0  0  0  0  0  0  0  0  0  0  0  0
   27.8252  -20.2486   -6.7635 C   0  0  0  0  0  0  0  0  0  0  0  0
   24.7138  -20.4436   -9.5237 C   0  0  0  0  0  0  0  0  0  0  0  0
   23.6211  -20.6448   -8.8944 O   0  0  0  0  0  0  0  0  0  0  0  0
   24.8480  -19.1519  -10.0314 O   0  0  0  0  0  0  0  0  0  0  0  0
  2  1  1  1
  3  2  1  0
  4  5  1  0
  4  3  1  0
  5  6  2  0
  7  8  2  0
  7  2  1  0
  9  5  1  0
 10 11  1  0
 12 11  1  0
 12 14  1  0
 12 13  1  1
 14 15  1  6
 15  7  1  0
 16 14  1  0
 16 18  1  0
 17 16  2  0
 19 18  1  0
 19 30  1  0
 20 21  1  0
 19 20  1  1
 21 29  1  0
 22 21  2  0
 22 23  1  0
 23 24  1  0
 24 25  1  0
 25 26  2  0
 27 26  1  0
 28 27  2  0
 29 24  2  0
 29 28  1  0
 30 32  1  0
 31 30  2  0
M  END
$$$$
