EIW.pdb
     RDKit          3D

 32 33  0  0  1  0  0  0  0  0999 V2000
   23.3880  -22.6716  -16.0343 N   0  0  0  0  0  0  0  0  0  0  0  0
   24.3877  -23.6875  -15.7463 C   0  0  1  0  0  0  0  0  0  0  0  0
   24.9509  -24.1034  -17.0820 C   0  0  0  0  0  0  0  0  0  0  0  0
   24.0648  -25.0126  -17.8636 C   0  0  0  0  0  0  0  0  0  0  0  0
   23.6248  -26.1362  -16.9977 C   0  0  0  0  0  0  0  0  0  0  0  0
   24.4935  -26.8469  -16.4469 O   0  0  0  0  0  0  0  0  0  0  0  0
   25.3908  -23.2203  -14.7806 C   0  0  0  0  0  0  0  0  0  0  0  0
   26.3495  -23.9672  -14.4676 O   0  0  0  0  0  0  0  0  0  0  0  0
   22.2509  -26.3871  -16.8079 O   0  0  0  0  0  0  0  0  0  0  0  0
   29.0493  -18.8198  -13.5130 C   0  0  0  0  0  0  0  0  0  0  0  0
   28.3108  -19.9953  -12.9152 C   0  0  0  0  0  0  0  0  0  0  0  0
   27.1234  -20.3189  -13.7910 C   0  0  2  0  0  0  0  0  0  0  0  0
   26.2723  -19.1176  -14.0959 C   0  0  0  0  0  0  0  0  0  0  0  0
   26.3174  -21.4694  -13.2470 C   0  0  2  0  0  0  0  0  0  0  0  0
   25.3051  -21.9094  -14.1721 N   0  0  0  0  0  0  0  0  0  0  0  0
   25.7559  -21.1730  -11.9028 C   0  0  0  0  0  0  0  0  0  0  0  0
   24.6306  -20.6285  -11.8301 O   0  0  0  0  0  0  0  0  0  0  0  0
   26.4342  -21.4781  -10.7015 N   0  0  0  0  0  0  0  0  0  0  0  0
   25.8948  -21.2893   -9.3635 C   0  0  1  0  0  0  0  0  0  0  0  0
   26.8930  -21.5599   -8.3156 C   0  0  0  0  0  0  0  0  0  0  0  0
   27.2265  -20.3850   -7.4980 C   0  0  0  0  0  0  0  0  0  0  0  0
   26.9094  -19.0455   -7.7447 C   0  0  0  0  0  0  0  0  0  0  0  0
   27.4181  -18.2559   -6.7848 N   0  0  0  0  0  0  0  0  0  0  0  0
   28.0694  -19.0251   -5.8956 C   0  0  0  0  0  0  0  0  0  0  0  0
   28.7435  -18.6835   -4.7243 C   0  0  0  0  0  0  0  0  0  0  0  0
   29.3351  -19.6668   -3.9344 C   0  0  0  0  0  0  0  0  0  0  0  0
   29.2176  -20.9628   -4.3681 C   0  0  0  0  0  0  0  0  0  0  0  0
   28.5512  -21.3036   -5.5279 C   0  0  0  0  0  0  0  0  0  0  0  0
   27.9660  -20.3308   -6.3101 C   0  0  0  0  0  0  0  0  0  0  0  0
   25.1090  -20.0935   -9.1691 C   0  0  0  0  0  0  0  0  0  0  0  0
   25.4796  -18.9646   -9.6369 O   0  0  0  0  0  0  0  0  0  0  0  0
   23.8984  -20.0529   -8.4783 O   0  0  0  0  0  0  0  0  0  0  0  0
  2  1  1  6
  3  2  1  0
  4  5  1  0
  4  3  1  0
  5  6  2  0
  7  8  2  0
  7  2  1  0
  9  5  1  0
 10 11  1  0
 12 11  1  0
 12 14  1  0
 12 13  1  1
 14 15  1  6
 15  7  1  0
 16 14  1  0
 16 18  1  0
 17 16  2  0
 19 18  1  0
 19 30  1  0
 20 21  1  0
 19 20  1  1
 21 29  1  0
 22 21  2  0
 22 23  1  0
 23 24  1  0
 24 25  1  0
 25 26  2  0
 27 26  1  0
 28 27  2  0
 29 24  2  0
 29 28  1  0
 30 32  1  0
 31 30  2  0
M  END
$$$$
