EIW.pdb
     RDKit          3D

 32 33  0  0  1  0  0  0  0  0999 V2000
   29.4501  -21.4932  -19.0646 N   0  0  0  0  0  0  0  0  0  0  0  0
   29.0272  -22.2242  -17.8808 C   0  0  1  0  0  0  0  0  0  0  0  0
   29.9532  -23.4096  -17.7744 C   0  0  0  0  0  0  0  0  0  0  0  0
   29.6259  -24.5275  -18.7050 C   0  0  0  0  0  0  0  0  0  0  0  0
   29.8368  -24.0806  -20.1055 C   0  0  0  0  0  0  0  0  0  0  0  0
   28.8384  -23.9022  -20.8367 O   0  0  0  0  0  0  0  0  0  0  0  0
   28.9898  -21.3708  -16.6861 C   0  0  0  0  0  0  0  0  0  0  0  0
   29.8437  -20.4625  -16.5422 O   0  0  0  0  0  0  0  0  0  0  0  0
   31.1426  -23.8648  -20.5903 O   0  0  0  0  0  0  0  0  0  0  0  0
   28.1661  -17.3031  -16.7390 C   0  0  0  0  0  0  0  0  0  0  0  0
   28.5915  -18.5875  -16.0652 C   0  0  0  0  0  0  0  0  0  0  0  0
   27.3927  -19.1932  -15.3739 C   0  0  2  0  0  0  0  0  0  0  0  0
   26.7030  -18.2343  -14.4438 C   0  0  0  0  0  0  0  0  0  0  0  0
   27.7276  -20.5005  -14.7046 C   0  0  2  0  0  0  0  0  0  0  0  0
   27.9860  -21.5486  -15.6579 N   0  0  0  0  0  0  0  0  0  0  0  0
   26.7022  -20.8952  -13.7034 C   0  0  0  0  0  0  0  0  0  0  0  0
   25.5754  -21.2590  -14.1110 O   0  0  0  0  0  0  0  0  0  0  0  0
   26.9406  -20.8793  -12.3109 N   0  0  0  0  0  0  0  0  0  0  0  0
   26.0291  -21.3907  -11.2988 C   0  0  1  0  0  0  0  0  0  0  0  0
   26.7353  -21.8456  -10.0896 C   0  0  0  0  0  0  0  0  0  0  0  0
   26.7802  -20.8416   -9.0172 C   0  0  0  0  0  0  0  0  0  0  0  0
   25.7825  -19.9363   -8.6421 C   0  0  0  0  0  0  0  0  0  0  0  0
   26.2093  -19.1534   -7.6379 N   0  0  0  0  0  0  0  0  0  0  0  0
   27.4678  -19.5054   -7.3232 C   0  0  0  0  0  0  0  0  0  0  0  0
   28.3302  -19.0091   -6.3471 C   0  0  0  0  0  0  0  0  0  0  0  0
   29.6034  -19.5509   -6.1843 C   0  0  0  0  0  0  0  0  0  0  0  0
   29.9504  -20.5791   -7.0232 C   0  0  0  0  0  0  0  0  0  0  0  0
   29.0985  -21.0718   -7.9911 C   0  0  0  0  0  0  0  0  0  0  0  0
   27.8387  -20.5358   -8.1528 C   0  0  0  0  0  0  0  0  0  0  0  0
   24.8505  -20.5919  -11.0577 C   0  0  0  0  0  0  0  0  0  0  0  0
   24.8228  -19.3424  -11.3193 O   0  0  0  0  0  0  0  0  0  0  0  0
   23.6567  -21.0905  -10.5378 O   0  0  0  0  0  0  0  0  0  0  0  0
  2  1  1  6
  3  2  1  0
  4  5  1  0
  4  3  1  0
  5  6  2  0
  7  8  2  0
  7  2  1  0
  9  5  1  0
 10 11  1  0
 12 11  1  0
 12 14  1  0
 12 13  1  1
 14 15  1  6
 15  7  1  0
 16 14  1  0
 16 18  1  0
 17 16  2  0
 19 18  1  0
 19 30  1  0
 20 21  1  0
 19 20  1  1
 21 29  1  0
 22 21  2  0
 22 23  1  0
 23 24  1  0
 24 25  1  0
 25 26  2  0
 27 26  1  0
 28 27  2  0
 29 24  2  0
 29 28  1  0
 30 32  1  0
 31 30  2  0
M  END
$$$$
