EIW.pdb
     RDKit          3D

 32 33  0  0  1  0  0  0  0  0999 V2000
   26.0187  -19.1549  -17.6302 N   0  0  0  0  0  0  0  0  0  0  0  0
   25.4957  -20.2840  -16.8778 C   0  0  1  0  0  0  0  0  0  0  0  0
   26.5313  -21.3739  -16.9946 C   0  0  0  0  0  0  0  0  0  0  0  0
   27.5994  -21.3171  -15.9559 C   0  0  0  0  0  0  0  0  0  0  0  0
   28.5665  -22.4212  -16.1826 C   0  0  0  0  0  0  0  0  0  0  0  0
   28.3786  -23.1973  -17.1447 O   0  0  0  0  0  0  0  0  0  0  0  0
   25.1488  -19.9181  -15.4983 C   0  0  0  0  0  0  0  0  0  0  0  0
   25.5588  -18.8329  -15.0197 O   0  0  0  0  0  0  0  0  0  0  0  0
   29.6718  -22.5813  -15.3228 O   0  0  0  0  0  0  0  0  0  0  0  0
   20.1208  -20.0641  -14.0180 C   0  0  0  0  0  0  0  0  0  0  0  0
   21.5849  -19.7383  -14.2051 C   0  0  0  0  0  0  0  0  0  0  0  0
   22.3911  -20.5358  -13.2073 C   0  0  2  0  0  0  0  0  0  0  0  0
   21.9460  -20.3234  -11.7870 C   0  0  0  0  0  0  0  0  0  0  0  0
   23.8725  -20.3257  -13.3813 C   0  0  2  0  0  0  0  0  0  0  0  0
   24.3391  -20.7821  -14.6651 N   0  0  0  0  0  0  0  0  0  0  0  0
   24.6559  -20.9100  -12.2613 C   0  0  0  0  0  0  0  0  0  0  0  0
   24.7685  -22.1555  -12.1944 O   0  0  0  0  0  0  0  0  0  0  0  0
   25.2807  -20.1241  -11.2672 N   0  0  0  0  0  0  0  0  0  0  0  0
   26.0960  -20.6420  -10.1792 C   0  0  1  0  0  0  0  0  0  0  0  0
   27.0686  -19.6510   -9.6894 C   0  0  0  0  0  0  0  0  0  0  0  0
   28.0066  -20.1849   -8.6919 C   0  0  0  0  0  0  0  0  0  0  0  0
   29.0565  -21.0866   -8.8924 C   0  0  0  0  0  0  0  0  0  0  0  0
   29.6688  -21.3637   -7.7296 N   0  0  0  0  0  0  0  0  0  0  0  0
   29.0621  -20.6731   -6.7489 C   0  0  0  0  0  0  0  0  0  0  0  0
   29.3355  -20.6084   -5.3836 C   0  0  0  0  0  0  0  0  0  0  0  0
   28.5757  -19.7944   -4.5464 C   0  0  0  0  0  0  0  0  0  0  0  0
   27.5646  -19.0761   -5.1324 C   0  0  0  0  0  0  0  0  0  0  0  0
   27.2914  -19.1391   -6.4839 C   0  0  0  0  0  0  0  0  0  0  0  0
   28.0428  -19.9447   -7.3128 C   0  0  0  0  0  0  0  0  0  0  0  0
   25.3823  -21.3621   -9.1509 C   0  0  0  0  0  0  0  0  0  0  0  0
   24.2502  -20.9626   -8.7158 O   0  0  0  0  0  0  0  0  0  0  0  0
   25.8394  -22.5356   -8.5526 O   0  0  0  0  0  0  0  0  0  0  0  0
  2  1  1  6
  3  2  1  0
  4  5  1  0
  4  3  1  0
  5  6  2  0
  7  8  2  0
  7  2  1  0
  9  5  1  0
 10 11  1  0
 12 11  1  0
 12 14  1  0
 12 13  1  1
 14 15  1  6
 15  7  1  0
 16 14  1  0
 16 18  1  0
 17 16  2  0
 19 18  1  0
 19 30  1  0
 20 21  1  0
 19 20  1  1
 21 29  1  0
 22 21  2  0
 22 23  1  0
 23 24  1  0
 24 25  1  0
 25 26  2  0
 27 26  1  0
 28 27  2  0
 29 24  2  0
 29 28  1  0
 30 32  1  0
 31 30  2  0
M  END
$$$$
