EIW.pdb
     RDKit          3D

 32 33  0  0  1  0  0  0  0  0999 V2000
   23.5279  -19.6027  -17.7424 N   0  0  0  0  0  0  0  0  0  0  0  0
   23.5650  -19.2475  -16.3328 C   0  0  1  0  0  0  0  0  0  0  0  0
   22.2194  -19.6355  -15.7733 C   0  0  0  0  0  0  0  0  0  0  0  0
   21.0944  -18.7698  -16.2288 C   0  0  0  0  0  0  0  0  0  0  0  0
   21.0625  -17.5315  -15.4096 C   0  0  0  0  0  0  0  0  0  0  0  0
   21.1079  -16.4250  -15.9900 O   0  0  0  0  0  0  0  0  0  0  0  0
   24.7105  -19.8504  -15.6390 C   0  0  0  0  0  0  0  0  0  0  0  0
   25.0149  -21.0472  -15.8626 O   0  0  0  0  0  0  0  0  0  0  0  0
   20.9823  -17.6143  -14.0048 O   0  0  0  0  0  0  0  0  0  0  0  0
   29.4407  -18.0879  -15.9827 C   0  0  0  0  0  0  0  0  0  0  0  0
   28.1513  -18.8504  -15.7820 C   0  0  0  0  0  0  0  0  0  0  0  0
   27.9202  -19.0319  -14.3003 C   0  0  2  0  0  0  0  0  0  0  0  0
   29.0782  -19.6869  -13.6000 C   0  0  0  0  0  0  0  0  0  0  0  0
   26.6121  -19.7214  -14.0130 C   0  0  2  0  0  0  0  0  0  0  0  0
   25.5074  -19.0967  -14.6939 N   0  0  0  0  0  0  0  0  0  0  0  0
   26.3625  -19.8625  -12.5544 C   0  0  0  0  0  0  0  0  0  0  0  0
   26.1501  -18.8289  -11.8799 O   0  0  0  0  0  0  0  0  0  0  0  0
   26.3535  -21.1108  -11.8927 N   0  0  0  0  0  0  0  0  0  0  0  0
   26.0890  -21.3060  -10.4754 C   0  0  1  0  0  0  0  0  0  0  0  0
   27.2104  -20.8609   -9.6314 C   0  0  0  0  0  0  0  0  0  0  0  0
   26.8319  -20.5936   -8.2366 C   0  0  0  0  0  0  0  0  0  0  0  0
   25.5508  -20.5949   -7.6761 C   0  0  0  0  0  0  0  0  0  0  0  0
   25.6052  -20.2695   -6.3743 N   0  0  0  0  0  0  0  0  0  0  0  0
   26.8883  -20.0495   -6.0393 C   0  0  0  0  0  0  0  0  0  0  0  0
   27.4589  -19.7062   -4.8148 C   0  0  0  0  0  0  0  0  0  0  0  0
   28.8379  -19.5485   -4.6947 C   0  0  0  0  0  0  0  0  0  0  0  0
   29.5846  -19.7468   -5.8281 C   0  0  0  0  0  0  0  0  0  0  0  0
   29.0218  -20.0861   -7.0420 C   0  0  0  0  0  0  0  0  0  0  0  0
   27.6572  -20.2418   -7.1614 C   0  0  0  0  0  0  0  0  0  0  0  0
   24.7798  -20.8993  -10.0218 C   0  0  0  0  0  0  0  0  0  0  0  0
   23.9624  -20.2921  -10.7922 O   0  0  0  0  0  0  0  0  0  0  0  0
   24.2874  -21.1284   -8.7376 O   0  0  0  0  0  0  0  0  0  0  0  0
  2  1  1  6
  3  2  1  0
  4  5  1  0
  4  3  1  0
  5  6  2  0
  7  8  2  0
  7  2  1  0
  9  5  1  0
 10 11  1  0
 12 11  1  0
 12 14  1  0
 12 13  1  6
 14 15  1  1
 15  7  1  0
 16 14  1  0
 16 18  1  0
 17 16  2  0
 19 18  1  0
 19 30  1  0
 20 21  1  0
 19 20  1  1
 21 29  1  0
 22 21  2  0
 22 23  1  0
 23 24  1  0
 24 25  1  0
 25 26  2  0
 27 26  1  0
 28 27  2  0
 29 24  2  0
 29 28  1  0
 30 32  1  0
 31 30  2  0
M  END
$$$$
