EIW.pdb
     RDKit          3D

 32 33  0  0  1  0  0  0  0  0999 V2000
   28.5576  -18.7989  -15.5560 N   0  0  0  0  0  0  0  0  0  0  0  0
   27.6763  -17.9495  -14.7710 C   0  0  1  0  0  0  0  0  0  0  0  0
   27.0227  -17.0113  -15.7542 C   0  0  0  0  0  0  0  0  0  0  0  0
   27.0941  -17.4646  -17.1728 C   0  0  0  0  0  0  0  0  0  0  0  0
   27.7612  -16.4199  -17.9909 C   0  0  0  0  0  0  0  0  0  0  0  0
   27.0759  -15.4704  -18.4290 O   0  0  0  0  0  0  0  0  0  0  0  0
   26.7363  -18.7293  -13.9553 C   0  0  0  0  0  0  0  0  0  0  0  0
   25.6764  -18.1967  -13.5456 O   0  0  0  0  0  0  0  0  0  0  0  0
   29.1416  -16.5078  -18.2619 O   0  0  0  0  0  0  0  0  0  0  0  0
   24.6618  -23.1361  -15.4948 C   0  0  0  0  0  0  0  0  0  0  0  0
   24.9827  -21.8205  -14.8234 C   0  0  0  0  0  0  0  0  0  0  0  0
   25.5878  -22.1019  -13.4683 C   0  0  2  0  0  0  0  0  0  0  0  0
   24.6922  -22.9232  -12.5829 C   0  0  0  0  0  0  0  0  0  0  0  0
   26.0661  -20.8441  -12.7912 C   0  0  2  0  0  0  0  0  0  0  0  0
   26.9994  -20.1095  -13.6058 N   0  0  0  0  0  0  0  0  0  0  0  0
   26.6005  -21.1101  -11.4298 C   0  0  0  0  0  0  0  0  0  0  0  0
   27.8126  -21.4004  -11.3079 O   0  0  0  0  0  0  0  0  0  0  0  0
   25.8030  -21.0501  -10.2651 N   0  0  0  0  0  0  0  0  0  0  0  0
   26.3111  -20.9333   -8.9068 C   0  0  1  0  0  0  0  0  0  0  0  0
   27.3927  -19.9402   -8.7984 C   0  0  0  0  0  0  0  0  0  0  0  0
   27.6597  -19.5035   -7.4207 C   0  0  0  0  0  0  0  0  0  0  0  0
   27.0488  -18.4636   -6.7128 C   0  0  0  0  0  0  0  0  0  0  0  0
   27.5870  -18.3471   -5.4879 N   0  0  0  0  0  0  0  0  0  0  0  0
   28.5441  -19.2804   -5.3482 C   0  0  0  0  0  0  0  0  0  0  0  0
   29.3704  -19.5757   -4.2651 C   0  0  0  0  0  0  0  0  0  0  0  0
   30.2903  -20.6194   -4.3391 C   0  0  0  0  0  0  0  0  0  0  0  0
   30.3338  -21.3238   -5.5154 C   0  0  0  0  0  0  0  0  0  0  0  0
   29.5171  -21.0330   -6.5895 C   0  0  0  0  0  0  0  0  0  0  0  0
   28.6070  -20.0000   -6.5168 C   0  0  0  0  0  0  0  0  0  0  0  0
   25.3100  -20.8667   -7.8682 C   0  0  0  0  0  0  0  0  0  0  0  0
   24.2595  -20.1518   -7.9949 O   0  0  0  0  0  0  0  0  0  0  0  0
   25.3828  -21.5615   -6.6615 O   0  0  0  0  0  0  0  0  0  0  0  0
  2  1  1  6
  3  2  1  0
  4  5  1  0
  4  3  1  0
  5  6  2  0
  7  8  2  0
  7  2  1  0
  9  5  1  0
 10 11  1  0
 12 11  1  0
 12 14  1  0
 12 13  1  1
 14 15  1  6
 15  7  1  0
 16 14  1  0
 16 18  1  0
 17 16  2  0
 19 18  1  0
 19 30  1  0
 20 21  1  0
 19 20  1  6
 21 29  1  0
 22 21  2  0
 22 23  1  0
 23 24  1  0
 24 25  1  0
 25 26  2  0
 27 26  1  0
 28 27  2  0
 29 24  2  0
 29 28  1  0
 30 32  1  0
 31 30  2  0
M  END
$$$$
