EIW.pdb
     RDKit          3D

 32 33  0  0  1  0  0  0  0  0999 V2000
   18.4475  -22.7053  -15.2707 N   0  0  0  0  0  0  0  0  0  0  0  0
   19.2954  -21.6109  -14.8258 C   0  0  1  0  0  0  0  0  0  0  0  0
   18.6924  -21.1197  -13.5338 C   0  0  0  0  0  0  0  0  0  0  0  0
   17.3611  -20.4667  -13.6890 C   0  0  0  0  0  0  0  0  0  0  0  0
   17.5430  -19.1049  -14.2529 C   0  0  0  0  0  0  0  0  0  0  0  0
   17.9648  -18.1958  -13.5053 O   0  0  0  0  0  0  0  0  0  0  0  0
   20.7063  -22.0070  -14.7282 C   0  0  0  0  0  0  0  0  0  0  0  0
   21.0050  -23.1469  -14.2965 O   0  0  0  0  0  0  0  0  0  0  0  0
   17.2425  -18.8537  -15.6069 O   0  0  0  0  0  0  0  0  0  0  0  0
   23.3977  -21.3333  -18.8111 C   0  0  0  0  0  0  0  0  0  0  0  0
   23.1231  -22.0713  -17.5210 C   0  0  0  0  0  0  0  0  0  0  0  0
   23.8446  -21.3673  -16.3959 C   0  0  2  0  0  0  0  0  0  0  0  0
   25.3051  -21.7167  -16.3238 C   0  0  0  0  0  0  0  0  0  0  0  0
   23.1453  -21.5508  -15.0744 C   0  0  2  0  0  0  0  0  0  0  0  0
   21.7745  -21.1113  -15.1192 N   0  0  0  0  0  0  0  0  0  0  0  0
   23.8961  -20.9278  -13.9529 C   0  0  0  0  0  0  0  0  0  0  0  0
   23.2500  -20.4279  -13.0036 O   0  0  0  0  0  0  0  0  0  0  0  0
   25.3072  -20.8738  -13.9079 N   0  0  0  0  0  0  0  0  0  0  0  0
   26.0983  -20.6155  -12.7145 C   0  0  1  0  0  0  0  0  0  0  0  0
   25.7673  -21.5366  -11.6147 C   0  0  0  0  0  0  0  0  0  0  0  0
   26.3558  -21.1532  -10.3237 C   0  0  0  0  0  0  0  0  0  0  0  0
   25.7018  -20.6533   -9.1932 C   0  0  0  0  0  0  0  0  0  0  0  0
   26.5848  -20.3865   -8.2170 N   0  0  0  0  0  0  0  0  0  0  0  0
   27.8174  -20.6934   -8.6565 C   0  0  0  0  0  0  0  0  0  0  0  0
   29.0534  -20.6132   -8.0169 C   0  0  0  0  0  0  0  0  0  0  0  0
   30.2169  -21.0136   -8.6702 C   0  0  0  0  0  0  0  0  0  0  0  0
   30.0773  -21.4812   -9.9522 C   0  0  0  0  0  0  0  0  0  0  0  0
   28.8547  -21.5609  -10.5879 C   0  0  0  0  0  0  0  0  0  0  0  0
   27.7031  -21.1644   -9.9419 C   0  0  0  0  0  0  0  0  0  0  0  0
   27.5097  -20.4030  -12.9338 C   0  0  0  0  0  0  0  0  0  0  0  0
   28.2395  -21.2830  -13.5025 O   0  0  0  0  0  0  0  0  0  0  0  0
   28.1965  -19.2468  -12.5650 O   0  0  0  0  0  0  0  0  0  0  0  0
  2  1  1  1
  3  2  1  0
  4  5  1  0
  4  3  1  0
  5  6  2  0
  7  8  2  0
  7  2  1  0
  9  5  1  0
 10 11  1  0
 12 11  1  0
 12 14  1  0
 12 13  1  1
 14 15  1  6
 15  7  1  0
 16 14  1  0
 16 18  1  0
 17 16  2  0
 19 18  1  0
 19 30  1  0
 20 21  1  0
 19 20  1  1
 21 29  1  0
 22 21  2  0
 22 23  1  0
 23 24  1  0
 24 25  1  0
 25 26  2  0
 27 26  1  0
 28 27  2  0
 29 24  2  0
 29 28  1  0
 30 32  1  0
 31 30  2  0
M  END
$$$$
