EIW.pdb
     RDKit          3D

 32 33  0  0  1  0  0  0  0  0999 V2000
   17.3024  -12.2950  -15.8743 N   0  0  0  0  0  0  0  0  0  0  0  0
   18.1468  -11.3206  -15.2019 C   0  0  1  0  0  0  0  0  0  0  0  0
   19.1114  -10.8187  -16.2468 C   0  0  0  0  0  0  0  0  0  0  0  0
   20.1621  -11.8034  -16.6332 C   0  0  0  0  0  0  0  0  0  0  0  0
   19.6154  -12.7318  -17.6553 C   0  0  0  0  0  0  0  0  0  0  0  0
   19.1030  -12.2528  -18.6903 O   0  0  0  0  0  0  0  0  0  0  0  0
   17.3624  -10.2692  -14.5413 C   0  0  0  0  0  0  0  0  0  0  0  0
   16.3672   -9.7749  -15.1246 O   0  0  0  0  0  0  0  0  0  0  0  0
   19.6788  -14.1251  -17.4517 O   0  0  0  0  0  0  0  0  0  0  0  0
   13.9988  -10.7624  -10.9762 C   0  0  0  0  0  0  0  0  0  0  0  0
   15.4398  -10.4413  -11.3002 C   0  0  0  0  0  0  0  0  0  0  0  0
   15.4712   -9.3416  -12.3354 C   0  0  2  0  0  0  0  0  0  0  0  0
   14.7885   -9.7226  -13.6196 C   0  0  0  0  0  0  0  0  0  0  0  0
   16.8654   -8.8178  -12.5607 C   0  0  2  0  0  0  0  0  0  0  0  0
   17.7074   -9.7806  -13.2228 N   0  0  0  0  0  0  0  0  0  0  0  0
   17.4799   -8.3053  -11.3078 C   0  0  0  0  0  0  0  0  0  0  0  0
   18.3780   -8.9843  -10.7594 O   0  0  0  0  0  0  0  0  0  0  0  0
   17.0971   -7.0855  -10.7063 N   0  0  0  0  0  0  0  0  0  0  0  0
   17.7544   -6.4730   -9.5619 C   0  0  1  0  0  0  0  0  0  0  0  0
   19.2218   -6.5023   -9.6790 C   0  0  0  0  0  0  0  0  0  0  0  0
   19.7559   -5.5557  -10.6683 C   0  0  0  0  0  0  0  0  0  0  0  0
   19.5369   -4.1768  -10.7471 C   0  0  0  0  0  0  0  0  0  0  0  0
   20.1685   -3.6591  -11.8133 N   0  0  0  0  0  0  0  0  0  0  0  0
   20.8093   -4.6502  -12.4566 C   0  0  0  0  0  0  0  0  0  0  0  0
   21.6110   -4.6208  -13.5965 C   0  0  0  0  0  0  0  0  0  0  0  0
   22.2000   -5.7874  -14.0792 C   0  0  0  0  0  0  0  0  0  0  0  0
   21.9496   -6.9416  -13.3816 C   0  0  0  0  0  0  0  0  0  0  0  0
   21.1555   -6.9735  -12.2531 C   0  0  0  0  0  0  0  0  0  0  0  0
   20.5722   -5.8194  -11.7752 C   0  0  0  0  0  0  0  0  0  0  0  0
   17.1986   -5.2154   -9.1208 C   0  0  0  0  0  0  0  0  0  0  0  0
   16.4555   -4.5078   -9.8808 O   0  0  0  0  0  0  0  0  0  0  0  0
   17.4042   -4.6665   -7.8556 O   0  0  0  0  0  0  0  0  0  0  0  0
  2  1  1  6
  3  2  1  0
  4  5  1  0
  4  3  1  0
  5  6  2  0
  7  8  2  0
  7  2  1  0
  9  5  1  0
 10 11  1  0
 12 11  1  0
 12 14  1  0
 12 13  1  6
 14 15  1  1
 15  7  1  0
 16 14  1  0
 16 18  1  0
 17 16  2  0
 19 18  1  0
 19 30  1  0
 20 21  1  0
 19 20  1  6
 21 29  1  0
 22 21  2  0
 22 23  1  0
 23 24  1  0
 24 25  1  0
 25 26  2  0
 27 26  1  0
 28 27  2  0
 29 24  2  0
 29 28  1  0
 30 32  1  0
 31 30  2  0
M  END
$$$$
