EIW.pdb
     RDKit          3D

 32 33  0  0  1  0  0  0  0  0999 V2000
   27.2454  -22.0979  -16.3815 N   0  0  0  0  0  0  0  0  0  0  0  0
   27.1707  -20.9978  -15.4335 C   0  0  1  0  0  0  0  0  0  0  0  0
   26.4082  -19.9006  -16.1327 C   0  0  0  0  0  0  0  0  0  0  0  0
   26.8347  -19.6605  -17.5410 C   0  0  0  0  0  0  0  0  0  0  0  0
   28.0581  -18.8185  -17.5486 C   0  0  0  0  0  0  0  0  0  0  0  0
   28.0741  -17.7746  -16.8606 O   0  0  0  0  0  0  0  0  0  0  0  0
   26.5983  -21.4130  -14.1462 C   0  0  0  0  0  0  0  0  0  0  0  0
   25.7826  -22.3659  -14.1054 O   0  0  0  0  0  0  0  0  0  0  0  0
   29.1742  -19.1990  -18.3207 O   0  0  0  0  0  0  0  0  0  0  0  0
   29.4423  -21.1157   -9.5586 C   0  0  0  0  0  0  0  0  0  0  0  0
   28.5400  -21.5276  -10.6991 C   0  0  0  0  0  0  0  0  0  0  0  0
   27.1736  -20.9220  -10.4802 C   0  0  2  0  0  0  0  0  0  0  0  0
   26.5190  -21.3901   -9.2102 C   0  0  0  0  0  0  0  0  0  0  0  0
   26.2812  -21.0927  -11.6818 C   0  0  2  0  0  0  0  0  0  0  0  0
   26.9507  -20.7479  -12.9094 N   0  0  0  0  0  0  0  0  0  0  0  0
   24.9904  -20.3718  -11.5269 C   0  0  0  0  0  0  0  0  0  0  0  0
   25.0147  -19.1606  -11.2094 O   0  0  0  0  0  0  0  0  0  0  0  0
   23.7354  -20.9908  -11.7220 N   0  0  0  0  0  0  0  0  0  0  0  0
   22.5641  -20.3473  -12.2972 C   0  0  1  0  0  0  0  0  0  0  0  0
   22.8819  -19.6079  -13.5301 C   0  0  0  0  0  0  0  0  0  0  0  0
   21.7262  -18.9196  -14.1223 C   0  0  0  0  0  0  0  0  0  0  0  0
   20.5398  -18.5303  -13.4927 C   0  0  0  0  0  0  0  0  0  0  0  0
   19.7043  -17.9569  -14.3741 N   0  0  0  0  0  0  0  0  0  0  0  0
   20.2941  -17.9470  -15.5819 C   0  0  0  0  0  0  0  0  0  0  0  0
   19.8464  -17.4496  -16.8047 C   0  0  0  0  0  0  0  0  0  0  0  0
   20.6501  -17.5303  -17.9398 C   0  0  0  0  0  0  0  0  0  0  0  0
   21.8812  -18.1154  -17.7862 C   0  0  0  0  0  0  0  0  0  0  0  0
   22.3265  -18.6093  -16.5766 C   0  0  0  0  0  0  0  0  0  0  0  0
   21.5314  -18.5301  -15.4532 C   0  0  0  0  0  0  0  0  0  0  0  0
   21.3714  -21.1590  -12.3580 C   0  0  0  0  0  0  0  0  0  0  0  0
   21.3997  -22.3605  -12.7895 O   0  0  0  0  0  0  0  0  0  0  0  0
   20.1073  -20.7288  -11.9565 O   0  0  0  0  0  0  0  0  0  0  0  0
  2  1  1  6
  3  2  1  0
  4  5  1  0
  4  3  1  0
  5  6  2  0
  7  8  2  0
  7  2  1  0
  9  5  1  0
 10 11  1  0
 12 11  1  0
 12 14  1  0
 12 13  1  1
 14 15  1  6
 15  7  1  0
 16 14  1  0
 16 18  1  0
 17 16  2  0
 19 18  1  0
 19 30  1  0
 20 21  1  0
 19 20  1  6
 21 29  1  0
 22 21  2  0
 22 23  1  0
 23 24  1  0
 24 25  1  0
 25 26  2  0
 27 26  1  0
 28 27  2  0
 29 24  2  0
 29 28  1  0
 30 32  1  0
 31 30  2  0
M  END
$$$$
