EIW.pdb
     RDKit          3D

 32 33  0  0  1  0  0  0  0  0999 V2000
   27.5175  -22.3288  -16.4998 N   0  0  0  0  0  0  0  0  0  0  0  0
   26.5888  -21.2575  -16.1766 C   0  0  1  0  0  0  0  0  0  0  0  0
   25.8310  -20.9697  -17.4483 C   0  0  0  0  0  0  0  0  0  0  0  0
   26.6701  -20.4145  -18.5484 C   0  0  0  0  0  0  0  0  0  0  0  0
   27.2891  -19.1407  -18.1013 C   0  0  0  0  0  0  0  0  0  0  0  0
   26.6092  -18.0924  -18.1487 O   0  0  0  0  0  0  0  0  0  0  0  0
   25.7412  -21.5875  -15.0234 C   0  0  0  0  0  0  0  0  0  0  0  0
   25.1821  -22.7094  -14.9618 O   0  0  0  0  0  0  0  0  0  0  0  0
   28.6188  -19.1259  -17.6342 O   0  0  0  0  0  0  0  0  0  0  0  0
   27.3056  -20.7806  -10.1050 C   0  0  0  0  0  0  0  0  0  0  0  0
   26.6685  -21.2879  -11.3783 C   0  0  0  0  0  0  0  0  0  0  0  0
   25.2933  -20.6770  -11.5099 C   0  0  2  0  0  0  0  0  0  0  0  0
   24.3872  -21.0133  -10.3582 C   0  0  0  0  0  0  0  0  0  0  0  0
   24.6638  -20.9848  -12.8434 C   0  0  2  0  0  0  0  0  0  0  0  0
   25.5290  -20.6463  -13.9439 N   0  0  0  0  0  0  0  0  0  0  0  0
   23.3170  -20.3711  -12.9814 C   0  0  0  0  0  0  0  0  0  0  0  0
   23.2289  -19.1226  -13.0251 O   0  0  0  0  0  0  0  0  0  0  0  0
   22.1297  -21.1323  -13.0658 N   0  0  0  0  0  0  0  0  0  0  0  0
   20.7911  -20.5828  -13.2172 C   0  0  1  0  0  0  0  0  0  0  0  0
   20.7094  -19.6052  -14.3150 C   0  0  0  0  0  0  0  0  0  0  0  0
   20.8659  -20.1996  -15.6501 C   0  0  0  0  0  0  0  0  0  0  0  0
   20.4382  -21.4565  -16.0891 C   0  0  0  0  0  0  0  0  0  0  0  0
   20.7959  -21.6562  -17.3681 N   0  0  0  0  0  0  0  0  0  0  0  0
   21.4527  -20.5682  -17.8058 C   0  0  0  0  0  0  0  0  0  0  0  0
   22.0029  -20.2834  -19.0544 C   0  0  0  0  0  0  0  0  0  0  0  0
   22.6287  -19.0614  -19.2913 C   0  0  0  0  0  0  0  0  0  0  0  0
   22.6704  -18.1745  -18.2458 C   0  0  0  0  0  0  0  0  0  0  0  0
   22.1269  -18.4544  -17.0082 C   0  0  0  0  0  0  0  0  0  0  0  0
   21.5079  -19.6637  -16.7732 C   0  0  0  0  0  0  0  0  0  0  0  0
   19.7123  -21.5415  -13.1670 C   0  0  0  0  0  0  0  0  0  0  0  0
   18.4896  -21.1741  -13.1481 O   0  0  0  0  0  0  0  0  0  0  0  0
   19.8909  -22.9242  -13.1430 O   0  0  0  0  0  0  0  0  0  0  0  0
  2  1  1  6
  3  2  1  0
  4  5  1  0
  4  3  1  0
  5  6  2  0
  7  8  2  0
  7  2  1  0
  9  5  1  0
 10 11  1  0
 12 11  1  0
 12 14  1  0
 12 13  1  1
 14 15  1  6
 15  7  1  0
 16 14  1  0
 16 18  1  0
 17 16  2  0
 19 18  1  0
 19 30  1  0
 20 21  1  0
 19 20  1  6
 21 29  1  0
 22 21  2  0
 22 23  1  0
 23 24  1  0
 24 25  1  0
 25 26  2  0
 27 26  1  0
 28 27  2  0
 29 24  2  0
 29 28  1  0
 30 32  1  0
 31 30  2  0
M  END
$$$$
