WES.pdb
     RDKit          3D

 30 31  0  0  1  0  0  0  0  0999 V2000
   24.2958  -20.1304  -10.4059 N   0  0  0  0  0  0  0  0  0  0  0  0
   25.7179  -20.2382  -10.6778 C   0  0  1  0  0  0  0  0  0  0  0  0
   26.2845  -21.3427   -9.8442 C   0  0  0  0  0  0  0  0  0  0  0  0
   26.4727  -20.9496   -8.4268 C   0  0  0  0  0  0  0  0  0  0  0  0
   25.4733  -20.7596   -7.4962 C   0  0  0  0  0  0  0  0  0  0  0  0
   26.0487  -20.4093   -6.3250 N   0  0  0  0  0  0  0  0  0  0  0  0
   27.3753  -20.3598   -6.4402 C   0  0  0  0  0  0  0  0  0  0  0  0
   28.4174  -20.0665   -5.5866 C   0  0  0  0  0  0  0  0  0  0  0  0
   29.7310  -20.1020   -6.0151 C   0  0  0  0  0  0  0  0  0  0  0  0
   30.0085  -20.4382   -7.3263 C   0  0  0  0  0  0  0  0  0  0  0  0
   28.9515  -20.7295   -8.1693 C   0  0  0  0  0  0  0  0  0  0  0  0
   27.6466  -20.6991   -7.7615 C   0  0  0  0  0  0  0  0  0  0  0  0
   25.9040  -20.6391  -12.1210 C   0  0  0  0  0  0  0  0  0  0  0  0
   25.0094  -21.2861  -12.7089 O   0  0  0  0  0  0  0  0  0  0  0  0
   27.0676  -20.3063  -12.8444 N   0  0  0  0  0  0  0  0  0  0  0  0
   27.3364  -20.3921  -14.2191 C   0  0  1  0  0  0  0  0  0  0  0  0
   28.4076  -19.5096  -14.7997 C   0  0  0  0  0  0  0  0  0  0  0  0
   28.6858  -19.7778  -16.2470 C   0  0  0  0  0  0  0  0  0  0  0  0
   27.7568  -18.9986  -17.1333 C   0  0  0  0  0  0  0  0  0  0  0  0
   28.0583  -18.7551  -18.3158 O   0  0  0  0  0  0  0  0  0  0  0  0
   27.4094  -21.7289  -14.8207 C   0  0  0  0  0  0  0  0  0  0  0  0
   28.4887  -22.3684  -14.7266 O   0  0  0  0  0  0  0  0  0  0  0  0
   26.5538  -18.5443  -16.6378 O   0  0  0  0  0  0  0  0  0  0  0  0
   23.9783  -23.5589  -16.0871 O   0  0  0  0  0  0  0  0  0  0  0  0
   25.0170  -24.4006  -15.6936 C   0  0  0  0  0  0  0  0  0  0  0  0
   26.3258  -23.6978  -15.9686 C   0  0  2  0  0  0  0  0  0  0  0  0
   26.3446  -22.3467  -15.5005 N   0  0  0  0  0  0  0  0  0  0  0  0
   26.6554  -23.7739  -17.4172 C   0  0  0  0  0  0  0  0  0  0  0  0
   26.7332  -22.7011  -18.0639 O   0  0  0  0  0  0  0  0  0  0  0  0
   26.8694  -24.9930  -18.0311 O   0  0  0  0  0  0  0  0  0  0  0  0
  2  1  1  1
  2 13  1  0
  3  4  1  0
  3  2  1  0
  4  5  2  0
  5  6  1  0
  7  6  1  0
  8  7  2  0
  9  8  1  0
 10 11  1  0
 10  9  2  0
 11 12  2  0
 12  4  1  0
 12  7  1  0
 13 14  2  0
 13 15  1  0
 15 16  1  0
 16 17  1  1
 16 21  1  0
 18 17  1  0
 19 18  1  0
 20 19  2  0
 21 22  2  0
 23 19  1  0
 26 25  1  6
 25 24  1  0
 26 28  1  0
 27 21  1  0
 27 26  1  0
 28 30  1  0
 29 28  2  0
M  END
$$$$
