WES.pdb
     RDKit          3D

 30 31  0  0  1  0  0  0  0  0999 V2000
   26.7020  -21.6791  -18.0782 N   0  0  0  0  0  0  0  0  0  0  0  0
   26.8486  -22.6714  -17.0286 C   0  0  1  0  0  0  0  0  0  0  0  0
   25.4910  -23.0383  -16.5206 C   0  0  0  0  0  0  0  0  0  0  0  0
   24.7813  -21.8900  -15.9070 C   0  0  0  0  0  0  0  0  0  0  0  0
   25.0568  -20.5560  -16.1200 C   0  0  0  0  0  0  0  0  0  0  0  0
   24.1930  -19.8240  -15.3828 N   0  0  0  0  0  0  0  0  0  0  0  0
   23.3646  -20.6106  -14.6966 C   0  0  0  0  0  0  0  0  0  0  0  0
   22.3240  -20.3987  -13.8175 C   0  0  0  0  0  0  0  0  0  0  0  0
   21.6336  -21.4538  -13.2511 C   0  0  0  0  0  0  0  0  0  0  0  0
   21.9921  -22.7494  -13.5711 C   0  0  0  0  0  0  0  0  0  0  0  0
   23.0382  -22.9442  -14.4545 C   0  0  0  0  0  0  0  0  0  0  0  0
   23.7313  -21.9118  -15.0235 C   0  0  0  0  0  0  0  0  0  0  0  0
   27.4451  -23.9221  -17.6273 C   0  0  0  0  0  0  0  0  0  0  0  0
   26.8642  -24.4992  -18.5728 O   0  0  0  0  0  0  0  0  0  0  0  0
   28.6528  -24.4742  -17.1533 N   0  0  0  0  0  0  0  0  0  0  0  0
   29.3280  -25.6429  -17.5375 C   0  0  1  0  0  0  0  0  0  0  0  0
   30.8324  -25.6339  -17.5506 C   0  0  0  0  0  0  0  0  0  0  0  0
   31.4353  -26.9207  -18.0244 C   0  0  0  0  0  0  0  0  0  0  0  0
   32.9353  -26.8447  -18.0429 C   0  0  0  0  0  0  0  0  0  0  0  0
   33.5237  -25.7875  -17.7520 O   0  0  0  0  0  0  0  0  0  0  0  0
   28.8402  -26.9216  -17.0075 C   0  0  0  0  0  0  0  0  0  0  0  0
   28.9606  -27.1425  -15.7749 O   0  0  0  0  0  0  0  0  0  0  0  0
   33.6757  -27.9554  -18.3853 O   0  0  0  0  0  0  0  0  0  0  0  0
   25.7345  -29.2397  -18.5573 O   0  0  0  0  0  0  0  0  0  0  0  0
   26.9311  -29.9220  -18.3454 C   0  0  0  0  0  0  0  0  0  0  0  0
   27.7290  -29.1674  -17.3078 C   0  0  2  0  0  0  0  0  0  0  0  0
   28.2427  -27.9240  -17.7924 N   0  0  0  0  0  0  0  0  0  0  0  0
   28.8152  -30.0289  -16.7684 C   0  0  0  0  0  0  0  0  0  0  0  0
   29.9340  -29.9964  -17.3363 O   0  0  0  0  0  0  0  0  0  0  0  0
   28.5957  -30.8414  -15.6727 O   0  0  0  0  0  0  0  0  0  0  0  0
  2  1  1  6
  2 13  1  0
  3  4  1  0
  3  2  1  0
  4  5  2  0
  5  6  1  0
  7  6  1  0
  8  7  2  0
  9  8  1  0
 10 11  1  0
 10  9  2  0
 11 12  2  0
 12  4  1  0
 12  7  1  0
 13 14  2  0
 13 15  1  0
 15 16  1  0
 16 17  1  1
 16 21  1  0
 18 17  1  0
 19 18  1  0
 20 19  2  0
 21 22  2  0
 23 19  1  0
 26 25  1  6
 25 24  1  0
 26 28  1  0
 27 21  1  0
 27 26  1  0
 28 30  1  0
 29 28  2  0
M  END
$$$$
