WES.pdb
     RDKit          3D

 30 31  0  0  1  0  0  0  0  0999 V2000
   24.7251  -21.0768  -17.4879 N   0  0  0  0  0  0  0  0  0  0  0  0
   23.8113  -19.9831  -17.2112 C   0  0  1  0  0  0  0  0  0  0  0  0
   23.0943  -19.6243  -18.4733 C   0  0  0  0  0  0  0  0  0  0  0  0
   23.9322  -18.8234  -19.3982 C   0  0  0  0  0  0  0  0  0  0  0  0
   24.9280  -19.3081  -20.2194 C   0  0  0  0  0  0  0  0  0  0  0  0
   25.4535  -18.2684  -20.9037 N   0  0  0  0  0  0  0  0  0  0  0  0
   24.8528  -17.1259  -20.5728 C   0  0  0  0  0  0  0  0  0  0  0  0
   24.9889  -15.8077  -20.9528 C   0  0  0  0  0  0  0  0  0  0  0  0
   24.1918  -14.8163  -20.4120 C   0  0  0  0  0  0  0  0  0  0  0  0
   23.2375  -15.1510  -19.4703 C   0  0  0  0  0  0  0  0  0  0  0  0
   23.1142  -16.4778  -19.1004 C   0  0  0  0  0  0  0  0  0  0  0  0
   23.8945  -17.4705  -19.6255 C   0  0  0  0  0  0  0  0  0  0  0  0
   22.7655  -20.4637  -16.2347 C   0  0  0  0  0  0  0  0  0  0  0  0
   22.5103  -21.6849  -16.1452 O   0  0  0  0  0  0  0  0  0  0  0  0
   22.0529  -19.5735  -15.4053 N   0  0  0  0  0  0  0  0  0  0  0  0
   21.0835  -19.8282  -14.4232 C   0  0  1  0  0  0  0  0  0  0  0  0
   21.0175  -18.9214  -13.2245 C   0  0  0  0  0  0  0  0  0  0  0  0
   20.0530  -19.3838  -12.1756 C   0  0  0  0  0  0  0  0  0  0  0  0
   20.6799  -20.4081  -11.2735 C   0  0  0  0  0  0  0  0  0  0  0  0
   21.8758  -20.7263  -11.4043 O   0  0  0  0  0  0  0  0  0  0  0  0
   19.7269  -20.1650  -14.8707 C   0  0  0  0  0  0  0  0  0  0  0  0
   19.1053  -19.3285  -15.5755 O   0  0  0  0  0  0  0  0  0  0  0  0
   19.9277  -21.0070  -10.2863 O   0  0  0  0  0  0  0  0  0  0  0  0
   17.8723  -23.7154  -13.7319 O   0  0  0  0  0  0  0  0  0  0  0  0
   17.6267  -23.2949  -15.0376 C   0  0  0  0  0  0  0  0  0  0  0  0
   17.8153  -21.7970  -15.0960 C   0  0  2  0  0  0  0  0  0  0  0  0
   19.0708  -21.3698  -14.5614 N   0  0  0  0  0  0  0  0  0  0  0  0
   16.6790  -21.1096  -14.4256 C   0  0  0  0  0  0  0  0  0  0  0  0
   16.9336  -20.3477  -13.4613 O   0  0  0  0  0  0  0  0  0  0  0  0
   15.3805  -21.3064  -14.8546 O   0  0  0  0  0  0  0  0  0  0  0  0
  2  1  1  6
  2 13  1  0
  3  4  1  0
  3  2  1  0
  4  5  2  0
  5  6  1  0
  7  6  1  0
  8  7  2  0
  9  8  1  0
 10 11  1  0
 10  9  2  0
 11 12  2  0
 12  4  1  0
 12  7  1  0
 13 14  2  0
 13 15  1  0
 15 16  1  0
 16 17  1  1
 16 21  1  0
 18 17  1  0
 19 18  1  0
 20 19  2  0
 21 22  2  0
 23 19  1  0
 26 25  1  1
 25 24  1  0
 26 28  1  0
 27 21  1  0
 27 26  1  0
 28 30  1  0
 29 28  2  0
M  END
$$$$
