WES.pdb
     RDKit          3D

 30 31  0  0  1  0  0  0  0  0999 V2000
   23.8201  -20.7555  -10.5242 N   0  0  0  0  0  0  0  0  0  0  0  0
   25.1572  -20.5112  -11.0343 C   0  0  1  0  0  0  0  0  0  0  0  0
   26.1254  -21.3564  -10.2702 C   0  0  0  0  0  0  0  0  0  0  0  0
   26.5868  -20.7073   -9.0193 C   0  0  0  0  0  0  0  0  0  0  0  0
   25.7833  -20.1360   -8.0555 C   0  0  0  0  0  0  0  0  0  0  0  0
   26.5783  -19.6540   -7.0752 N   0  0  0  0  0  0  0  0  0  0  0  0
   27.8631  -19.8800   -7.3472 C   0  0  0  0  0  0  0  0  0  0  0  0
   29.0561  -19.6090   -6.7119 C   0  0  0  0  0  0  0  0  0  0  0  0
   30.2671  -19.9821   -7.2640 C   0  0  0  0  0  0  0  0  0  0  0  0
   30.2851  -20.6409   -8.4785 C   0  0  0  0  0  0  0  0  0  0  0  0
   29.0795  -20.9050   -9.1024 C   0  0  0  0  0  0  0  0  0  0  0  0
   27.8731  -20.5428   -8.5700 C   0  0  0  0  0  0  0  0  0  0  0  0
   25.2160  -20.9683  -12.4717 C   0  0  0  0  0  0  0  0  0  0  0  0
   25.0547  -22.1773  -12.7486 O   0  0  0  0  0  0  0  0  0  0  0  0
   25.4498  -20.0692  -13.5323 N   0  0  0  0  0  0  0  0  0  0  0  0
   25.4334  -20.2794  -14.9197 C   0  0  1  0  0  0  0  0  0  0  0  0
   24.3918  -19.5717  -15.7429 C   0  0  0  0  0  0  0  0  0  0  0  0
   24.2950  -20.0766  -17.1499 C   0  0  0  0  0  0  0  0  0  0  0  0
   23.2937  -19.2872  -17.9437 C   0  0  0  0  0  0  0  0  0  0  0  0
   23.4222  -19.1480  -19.1736 O   0  0  0  0  0  0  0  0  0  0  0  0
   26.7186  -20.2752  -15.6284 C   0  0  0  0  0  0  0  0  0  0  0  0
   27.4801  -19.2850  -15.4790 O   0  0  0  0  0  0  0  0  0  0  0  0
   22.2169  -18.7070  -17.3091 O   0  0  0  0  0  0  0  0  0  0  0  0
   29.1951  -23.2583  -15.8949 O   0  0  0  0  0  0  0  0  0  0  0  0
   28.9751  -22.7952  -17.1908 C   0  0  0  0  0  0  0  0  0  0  0  0
   28.4375  -21.3859  -17.1050 C   0  0  2  0  0  0  0  0  0  0  0  0
   27.1584  -21.3126  -16.4699 N   0  0  0  0  0  0  0  0  0  0  0  0
   28.4078  -20.7642  -18.4561 C   0  0  0  0  0  0  0  0  0  0  0  0
   27.5747  -21.1971  -19.2890 O   0  0  0  0  0  0  0  0  0  0  0  0
   29.2745  -19.7389  -18.7824 O   0  0  0  0  0  0  0  0  0  0  0  0
  2  1  1  1
  2 13  1  0
  3  4  1  0
  3  2  1  0
  4  5  2  0
  5  6  1  0
  7  6  1  0
  8  7  2  0
  9  8  1  0
 10 11  1  0
 10  9  2  0
 11 12  2  0
 12  4  1  0
 12  7  1  0
 13 14  2  0
 13 15  1  0
 15 16  1  0
 16 17  1  6
 16 21  1  0
 18 17  1  0
 19 18  1  0
 20 19  2  0
 21 22  2  0
 23 19  1  0
 26 25  1  6
 25 24  1  0
 26 28  1  0
 27 21  1  0
 27 26  1  0
 28 30  1  0
 29 28  2  0
M  END
$$$$
