WES.pdb
     RDKit          3D

 30 31  0  0  1  0  0  0  0  0999 V2000
   28.1912  -20.5305  -11.0572 N   0  0  0  0  0  0  0  0  0  0  0  0
   26.9912  -21.1379  -10.5103 C   0  0  1  0  0  0  0  0  0  0  0  0
   26.7777  -20.6182   -9.1246 C   0  0  0  0  0  0  0  0  0  0  0  0
   28.0030  -20.6903   -8.2926 C   0  0  0  0  0  0  0  0  0  0  0  0
   29.2381  -21.1464   -8.7018 C   0  0  0  0  0  0  0  0  0  0  0  0
   30.0895  -21.0530   -7.6570 N   0  0  0  0  0  0  0  0  0  0  0  0
   29.4754  -20.5587   -6.5826 C   0  0  0  0  0  0  0  0  0  0  0  0
   29.8571  -20.2642   -5.2911 C   0  0  0  0  0  0  0  0  0  0  0  0
   28.9612  -19.7437   -4.3762 C   0  0  0  0  0  0  0  0  0  0  0  0
   27.6545  -19.5127   -4.7618 C   0  0  0  0  0  0  0  0  0  0  0  0
   27.2882  -19.8137   -6.0609 C   0  0  0  0  0  0  0  0  0  0  0  0
   28.1619  -20.3290   -6.9782 C   0  0  0  0  0  0  0  0  0  0  0  0
   25.8069  -20.6917  -11.3329 C   0  0  0  0  0  0  0  0  0  0  0  0
   25.2144  -19.6279  -11.0470 O   0  0  0  0  0  0  0  0  0  0  0  0
   25.3349  -21.4409  -12.4301 N   0  0  0  0  0  0  0  0  0  0  0  0
   24.2893  -21.1747  -13.3274 C   0  0  1  0  0  0  0  0  0  0  0  0
   24.4136  -21.6661  -14.7439 C   0  0  0  0  0  0  0  0  0  0  0  0
   23.3570  -21.1286  -15.6597 C   0  0  0  0  0  0  0  0  0  0  0  0
   23.4921  -21.7008  -17.0418 C   0  0  0  0  0  0  0  0  0  0  0  0
   22.7072  -21.3692  -17.9487 O   0  0  0  0  0  0  0  0  0  0  0  0
   22.9137  -21.3629  -12.8517 C   0  0  0  0  0  0  0  0  0  0  0  0
   22.7224  -22.1077  -11.8561 O   0  0  0  0  0  0  0  0  0  0  0  0
   24.4953  -22.6048  -17.3164 O   0  0  0  0  0  0  0  0  0  0  0  0
   19.4769  -19.0098  -11.2380 O   0  0  0  0  0  0  0  0  0  0  0  0
   20.7125  -19.2453  -11.8380 C   0  0  0  0  0  0  0  0  0  0  0  0
   20.5705  -20.4299  -12.7648 C   0  0  2  0  0  0  0  0  0  0  0  0
   21.7868  -20.7613  -13.4398 N   0  0  0  0  0  0  0  0  0  0  0  0
   19.4617  -20.1980  -13.7291 C   0  0  0  0  0  0  0  0  0  0  0  0
   19.7557  -19.8257  -14.8911 O   0  0  0  0  0  0  0  0  0  0  0  0
   18.1458  -20.3878  -13.3533 O   0  0  0  0  0  0  0  0  0  0  0  0
  2  1  1  6
  2 13  1  0
  3  4  1  0
  3  2  1  0
  4  5  2  0
  5  6  1  0
  7  6  1  0
  8  7  2  0
  9  8  1  0
 10 11  1  0
 10  9  2  0
 11 12  2  0
 12  4  1  0
 12  7  1  0
 13 14  2  0
 13 15  1  0
 15 16  1  0
 16 17  1  6
 16 21  1  0
 18 17  1  0
 19 18  1  0
 20 19  2  0
 21 22  2  0
 23 19  1  0
 26 25  1  6
 25 24  1  0
 26 28  1  0
 27 21  1  0
 27 26  1  0
 28 30  1  0
 29 28  2  0
M  END
$$$$
