KHF.pdb
     RDKit          3D

 31 32  0  0  1  0  0  0  0  0999 V2000
    9.9978  -15.6694   19.3709 N   0  0  0  0  0  0  0  0  0  0  0  0
    9.2406  -14.6447   20.0212 C   0  0  1  0  0  0  0  0  0  0  0  0
    8.1296  -14.1463   19.1252 C   0  0  0  0  0  0  0  0  0  0  0  0
    8.5526  -14.1304   17.6719 C   0  0  0  0  0  0  0  0  0  0  0  0
    7.4852  -13.5664   16.7888 C   0  0  0  0  0  0  0  0  0  0  0  0
    7.8490  -13.5484   15.3376 C   0  0  0  0  0  0  0  0  0  0  0  0
    6.7397  -13.1196   14.5288 N   0  0  0  0  0  0  0  0  0  0  0  0
    8.7366  -15.1325   21.3169 C   0  0  0  0  0  0  0  0  0  0  0  0
    7.9901  -14.3882   21.9974 O   0  0  0  0  0  0  0  0  0  0  0  0
    9.0487  -16.4119   21.8504 N   0  0  0  0  0  0  0  0  0  0  0  0
    8.4776  -16.8808   23.0925 C   0  0  1  0  0  0  0  0  0  0  0  0
    8.3916  -18.3944   22.9818 C   0  0  0  0  0  0  0  0  0  0  0  0
    9.7614  -18.9360   22.8155 C   0  0  0  0  0  0  0  0  0  0  0  0
   10.9550  -18.2679   22.6755 C   0  0  0  0  0  0  0  0  0  0  0  0
   11.9342  -19.1698   22.5545 N   0  0  0  0  0  0  0  0  0  0  0  0
   11.3653  -20.3854   22.6174 C   0  0  0  0  0  0  0  0  0  0  0  0
   10.0481  -20.2448   22.7757 N   0  0  0  0  0  0  0  0  0  0  0  0
    9.2102  -16.4327   24.2880 C   0  0  0  0  0  0  0  0  0  0  0  0
   10.4383  -16.1368   24.2784 O   0  0  0  0  0  0  0  0  0  0  0  0
    8.4909  -16.3300   25.5097 N   0  0  0  0  0  0  0  0  0  0  0  0
    9.0961  -15.8623   26.7313 C   0  0  1  0  0  0  0  0  0  0  0  0
    8.1521  -14.9812   27.5244 C   0  0  0  0  0  0  0  0  0  0  0  0
    7.7826  -13.7432   26.7888 C   0  0  0  0  0  0  0  0  0  0  0  0
    6.4534  -13.5028   26.4719 C   0  0  0  0  0  0  0  0  0  0  0  0
    6.1047  -12.3649   25.7911 C   0  0  0  0  0  0  0  0  0  0  0  0
    7.0232  -11.4147   25.3894 C   0  0  0  0  0  0  0  0  0  0  0  0
    8.3429  -11.6628   25.7093 C   0  0  0  0  0  0  0  0  0  0  0  0
    8.7085  -12.8029   26.3936 C   0  0  0  0  0  0  0  0  0  0  0  0
    9.5145  -16.9854   27.5972 C   0  0  0  0  0  0  0  0  0  0  0  0
   10.1442  -16.7605   28.6606 O   0  0  0  0  0  0  0  0  0  0  0  0
    9.2339  -18.3023   27.2764 O   0  0  0  0  0  0  0  0  0  0  0  0
  2  1  1  6
  3  2  1  0
  3  4  1  0
  5  4  1  0
  6  5  1  0
  7  6  1  0
  8  9  2  0
  8  2  1  0
 10  8  1  0
 11 10  1  0
 11 12  1  6
 13 17  1  0
 13 12  1  0
 14 13  2  0
 15 14  1  0
 15 16  1  0
 16 17  2  0
 18 11  1  0
 19 18  2  0
 20 18  1  0
 21 29  1  0
 21 20  1  0
 21 22  1  1
 22 23  1  0
 23 28  1  0
 24 23  2  0
 24 25  1  0
 25 26  2  0
 26 27  1  0
 28 27  2  0
 29 31  1  0
 30 29  2  0
M  END
$$$$
