KHF.pdb
     RDKit          3D

 31 32  0  0  1  0  0  0  0  0999 V2000
    6.2569  -16.7786   21.3528 N   0  0  0  0  0  0  0  0  0  0  0  0
    7.4199  -16.0016   21.6525 C   0  0  1  0  0  0  0  0  0  0  0  0
    7.0500  -14.5600   21.9178 C   0  0  0  0  0  0  0  0  0  0  0  0
    6.8528  -13.7906   20.6292 C   0  0  0  0  0  0  0  0  0  0  0  0
    8.0595  -12.9806   20.2758 C   0  0  0  0  0  0  0  0  0  0  0  0
    7.9070  -12.1879   19.0160 C   0  0  0  0  0  0  0  0  0  0  0  0
    8.9897  -11.2550   18.8545 N   0  0  0  0  0  0  0  0  0  0  0  0
    8.1562  -16.6053   22.7768 C   0  0  0  0  0  0  0  0  0  0  0  0
    7.5088  -17.0909   23.7358 O   0  0  0  0  0  0  0  0  0  0  0  0
    9.5739  -16.6719   22.8428 N   0  0  0  0  0  0  0  0  0  0  0  0
   10.2588  -17.2546   23.9743 C   0  0  1  0  0  0  0  0  0  0  0  0
   11.5100  -17.9195   23.4238 C   0  0  0  0  0  0  0  0  0  0  0  0
   11.1147  -19.1600   22.7151 C   0  0  0  0  0  0  0  0  0  0  0  0
   10.8418  -20.4083   23.2230 C   0  0  0  0  0  0  0  0  0  0  0  0
   10.5269  -21.2195   22.2083 N   0  0  0  0  0  0  0  0  0  0  0  0
   10.6007  -20.4929   21.0805 C   0  0  0  0  0  0  0  0  0  0  0  0
   10.9570  -19.2442   21.3866 N   0  0  0  0  0  0  0  0  0  0  0  0
   10.5454  -16.2942   25.0522 C   0  0  0  0  0  0  0  0  0  0  0  0
   11.2684  -15.2703   24.8947 O   0  0  0  0  0  0  0  0  0  0  0  0
    9.9747  -16.5389   26.3308 N   0  0  0  0  0  0  0  0  0  0  0  0
   10.2497  -15.7092   27.4769 C   0  0  1  0  0  0  0  0  0  0  0  0
    8.9773  -15.1663   28.0956 C   0  0  0  0  0  0  0  0  0  0  0  0
    8.3642  -14.0896   27.2741 C   0  0  0  0  0  0  0  0  0  0  0  0
    8.9471  -12.8309   27.2449 C   0  0  0  0  0  0  0  0  0  0  0  0
    8.3862  -11.8317   26.4921 C   0  0  0  0  0  0  0  0  0  0  0  0
    7.2420  -12.0065   25.7383 C   0  0  0  0  0  0  0  0  0  0  0  0
    6.6696  -13.2621   25.7739 C   0  0  0  0  0  0  0  0  0  0  0  0
    7.2224  -14.2768   26.5265 C   0  0  0  0  0  0  0  0  0  0  0  0
   10.9900  -16.4496   28.5208 C   0  0  0  0  0  0  0  0  0  0  0  0
   11.1770  -17.6862   28.4037 O   0  0  0  0  0  0  0  0  0  0  0  0
   11.4961  -15.8213   29.6456 O   0  0  0  0  0  0  0  0  0  0  0  0
  2  1  1  1
  3  2  1  0
  3  4  1  0
  5  4  1  0
  6  5  1  0
  7  6  1  0
  8  9  2  0
  8  2  1  0
 10  8  1  0
 11 10  1  0
 11 12  1  6
 13 17  1  0
 13 12  1  0
 14 13  2  0
 15 14  1  0
 15 16  1  0
 16 17  2  0
 18 11  1  0
 19 18  2  0
 20 18  1  0
 21 29  1  0
 21 20  1  0
 21 22  1  1
 22 23  1  0
 23 28  1  0
 24 23  2  0
 24 25  1  0
 25 26  2  0
 26 27  1  0
 28 27  2  0
 29 31  1  0
 30 29  2  0
M  END
$$$$
