KHF.pdb
     RDKit          3D

 31 32  0  0  1  0  0  0  0  0999 V2000
   10.2978  -14.3998   19.4660 N   0  0  0  0  0  0  0  0  0  0  0  0
    9.1749  -13.9755   20.2440 C   0  0  1  0  0  0  0  0  0  0  0  0
    7.9386  -13.8544   19.3824 C   0  0  0  0  0  0  0  0  0  0  0  0
    8.2602  -14.0576   17.9173 C   0  0  0  0  0  0  0  0  0  0  0  0
    7.1960  -13.4919   17.0314 C   0  0  0  0  0  0  0  0  0  0  0  0
    7.4414  -13.7178   15.5728 C   0  0  0  0  0  0  0  0  0  0  0  0
    6.4501  -13.0536   14.7699 N   0  0  0  0  0  0  0  0  0  0  0  0
    8.9745  -14.8880   21.3833 C   0  0  0  0  0  0  0  0  0  0  0  0
    7.9814  -14.7169   22.1310 O   0  0  0  0  0  0  0  0  0  0  0  0
    9.8490  -15.9645   21.6915 N   0  0  0  0  0  0  0  0  0  0  0  0
    9.5744  -16.8859   22.7706 C   0  0  1  0  0  0  0  0  0  0  0  0
   10.3647  -18.1489   22.4691 C   0  0  0  0  0  0  0  0  0  0  0  0
    9.7316  -18.8416   21.3216 C   0  0  0  0  0  0  0  0  0  0  0  0
    8.4095  -19.1548   21.1103 C   0  0  0  0  0  0  0  0  0  0  0  0
    8.3047  -19.7809   19.9340 N   0  0  0  0  0  0  0  0  0  0  0  0
    9.5411  -19.8601   19.4141 C   0  0  0  0  0  0  0  0  0  0  0  0
   10.4069  -19.2909   20.2545 N   0  0  0  0  0  0  0  0  0  0  0  0
    9.8580  -16.3358   24.1061 C   0  0  0  0  0  0  0  0  0  0  0  0
   10.8859  -15.6503   24.3698 O   0  0  0  0  0  0  0  0  0  0  0  0
    8.9220  -16.5932   25.1444 N   0  0  0  0  0  0  0  0  0  0  0  0
    9.1349  -16.1701   26.5057 C   0  0  1  0  0  0  0  0  0  0  0  0
    7.8620  -15.6404   27.1348 C   0  0  0  0  0  0  0  0  0  0  0  0
    7.5842  -14.2320   26.7481 C   0  0  0  0  0  0  0  0  0  0  0  0
    6.4216  -13.9259   26.0557 C   0  0  0  0  0  0  0  0  0  0  0  0
    6.1595  -12.6300   25.6928 C   0  0  0  0  0  0  0  0  0  0  0  0
    7.0074  -11.5789   25.9832 C   0  0  0  0  0  0  0  0  0  0  0  0
    8.1613  -11.8936   26.6722 C   0  0  0  0  0  0  0  0  0  0  0  0
    8.4384  -13.1924   27.0437 C   0  0  0  0  0  0  0  0  0  0  0  0
    9.6392  -17.2759   27.3477 C   0  0  0  0  0  0  0  0  0  0  0  0
    9.9393  -17.0666   28.5493 O   0  0  0  0  0  0  0  0  0  0  0  0
    9.7967  -18.5596   26.8545 O   0  0  0  0  0  0  0  0  0  0  0  0
  2  1  1  6
  3  2  1  0
  3  4  1  0
  5  4  1  0
  6  5  1  0
  7  6  1  0
  8  9  2  0
  8  2  1  0
 10  8  1  0
 11 10  1  0
 11 12  1  6
 13 17  1  0
 13 12  1  0
 14 13  2  0
 15 14  1  0
 15 16  1  0
 16 17  2  0
 18 11  1  0
 19 18  2  0
 20 18  1  0
 21 29  1  0
 21 20  1  0
 21 22  1  1
 22 23  1  0
 23 28  1  0
 24 23  2  0
 24 25  1  0
 25 26  2  0
 26 27  1  0
 28 27  2  0
 29 31  1  0
 30 29  2  0
M  END
$$$$
