KHF.pdb
     RDKit          3D

 31 32  0  0  1  0  0  0  0  0999 V2000
    5.6275  -15.8580   20.1460 N   0  0  0  0  0  0  0  0  0  0  0  0
    6.7635  -15.4110   20.8915 C   0  0  1  0  0  0  0  0  0  0  0  0
    6.8063  -13.9012   20.9531 C   0  0  0  0  0  0  0  0  0  0  0  0
    7.2133  -13.3020   19.6239 C   0  0  0  0  0  0  0  0  0  0  0  0
    8.6852  -13.4239   19.3872 C   0  0  0  0  0  0  0  0  0  0  0  0
    9.1579  -12.7253   18.1513 C   0  0  0  0  0  0  0  0  0  0  0  0
   10.5913  -12.7728   18.0434 N   0  0  0  0  0  0  0  0  0  0  0  0
    6.7636  -16.0249   22.2309 C   0  0  0  0  0  0  0  0  0  0  0  0
    5.7103  -15.9959   22.9122 O   0  0  0  0  0  0  0  0  0  0  0  0
    7.8990  -16.6560   22.8063 N   0  0  0  0  0  0  0  0  0  0  0  0
    7.8686  -17.2135   24.1394 C   0  0  1  0  0  0  0  0  0  0  0  0
    8.0755  -18.7113   23.9839 C   0  0  0  0  0  0  0  0  0  0  0  0
    7.9419  -19.3490   25.3154 C   0  0  0  0  0  0  0  0  0  0  0  0
    7.5645  -18.7956   26.5163 C   0  0  0  0  0  0  0  0  0  0  0  0
    7.5866  -19.7522   27.4497 N   0  0  0  0  0  0  0  0  0  0  0  0
    7.9717  -20.8888   26.8453 C   0  0  0  0  0  0  0  0  0  0  0  0
    8.1873  -20.6455   25.5515 N   0  0  0  0  0  0  0  0  0  0  0  0
    8.8320  -16.5931   25.0632 C   0  0  0  0  0  0  0  0  0  0  0  0
   10.0330  -16.3521   24.7539 O   0  0  0  0  0  0  0  0  0  0  0  0
    8.3789  -16.2506   26.3662 N   0  0  0  0  0  0  0  0  0  0  0  0
    9.2425  -15.6660   27.3611 C   0  0  1  0  0  0  0  0  0  0  0  0
    8.4967  -14.6901   28.2488 C   0  0  0  0  0  0  0  0  0  0  0  0
    7.8593  -13.5938   27.4727 C   0  0  0  0  0  0  0  0  0  0  0  0
    8.5843  -12.4478   27.1795 C   0  0  0  0  0  0  0  0  0  0  0  0
    8.0029  -11.4310   26.4668 C   0  0  0  0  0  0  0  0  0  0  0  0
    6.7005  -11.4792   26.0091 C   0  0  0  0  0  0  0  0  0  0  0  0
    5.9876  -12.6233   26.3059 C   0  0  0  0  0  0  0  0  0  0  0  0
    6.5591  -13.6541   27.0219 C   0  0  0  0  0  0  0  0  0  0  0  0
    9.8560  -16.6976   28.2245 C   0  0  0  0  0  0  0  0  0  0  0  0
   10.6872  -16.3680   29.1068 O   0  0  0  0  0  0  0  0  0  0  0  0
    9.5443  -18.0402   28.0971 O   0  0  0  0  0  0  0  0  0  0  0  0
  2  1  1  1
  3  2  1  0
  3  4  1  0
  5  4  1  0
  6  5  1  0
  7  6  1  0
  8  9  2  0
  8  2  1  0
 10  8  1  0
 11 10  1  0
 11 12  1  6
 13 17  1  0
 13 12  1  0
 14 13  2  0
 15 14  1  0
 15 16  1  0
 16 17  2  0
 18 11  1  0
 19 18  2  0
 20 18  1  0
 21 29  1  0
 21 20  1  0
 21 22  1  1
 22 23  1  0
 23 28  1  0
 24 23  2  0
 24 25  1  0
 25 26  2  0
 26 27  1  0
 28 27  2  0
 29 31  1  0
 30 29  2  0
M  END
$$$$
