KHF.pdb
     RDKit          3D

 31 32  0  0  1  0  0  0  0  0999 V2000
    6.5413  -17.0421   21.0734 N   0  0  0  0  0  0  0  0  0  0  0  0
    7.7430  -16.3660   21.4543 C   0  0  1  0  0  0  0  0  0  0  0  0
    7.5331  -14.8692   21.4792 C   0  0  0  0  0  0  0  0  0  0  0  0
    7.3670  -14.3079   20.0832 C   0  0  0  0  0  0  0  0  0  0  0  0
    7.9405  -12.9315   19.9661 C   0  0  0  0  0  0  0  0  0  0  0  0
    7.6968  -12.2867   18.6380 C   0  0  0  0  0  0  0  0  0  0  0  0
    8.1862  -10.9344   18.6191 N   0  0  0  0  0  0  0  0  0  0  0  0
    8.2275  -16.8836   22.7458 C   0  0  0  0  0  0  0  0  0  0  0  0
    7.3903  -17.2205   23.6177 O   0  0  0  0  0  0  0  0  0  0  0  0
    9.6037  -17.0265   23.0690 N   0  0  0  0  0  0  0  0  0  0  0  0
   10.0396  -17.4523   24.3796 C   0  0  1  0  0  0  0  0  0  0  0  0
   11.2047  -18.4030   24.1573 C   0  0  0  0  0  0  0  0  0  0  0  0
   10.6659  -19.7425   23.8216 C   0  0  0  0  0  0  0  0  0  0  0  0
    9.8274  -20.1166   22.7980 C   0  0  0  0  0  0  0  0  0  0  0  0
    9.6089  -21.4323   22.8881 N   0  0  0  0  0  0  0  0  0  0  0  0
   10.2990  -21.8782   23.9512 C   0  0  0  0  0  0  0  0  0  0  0  0
   10.9402  -20.8547   24.5178 N   0  0  0  0  0  0  0  0  0  0  0  0
   10.3707  -16.3395   25.2844 C   0  0  0  0  0  0  0  0  0  0  0  0
   11.2443  -15.4663   25.0191 O   0  0  0  0  0  0  0  0  0  0  0  0
    9.6660  -16.2507   26.5156 N   0  0  0  0  0  0  0  0  0  0  0  0
   10.0664  -15.3633   27.5785 C   0  0  1  0  0  0  0  0  0  0  0  0
    8.8778  -14.6554   28.1970 C   0  0  0  0  0  0  0  0  0  0  0  0
    8.1537  -13.8045   27.2163 C   0  0  0  0  0  0  0  0  0  0  0  0
    8.8517  -12.8574   26.4809 C   0  0  0  0  0  0  0  0  0  0  0  0
    8.1908  -12.0666   25.5765 C   0  0  0  0  0  0  0  0  0  0  0  0
    6.8320  -12.1579   25.3458 C   0  0  0  0  0  0  0  0  0  0  0  0
    6.1465  -13.1030   26.0822 C   0  0  0  0  0  0  0  0  0  0  0  0
    6.7977  -13.9053   26.9954 C   0  0  0  0  0  0  0  0  0  0  0  0
   10.7816  -16.0862   28.6518 C   0  0  0  0  0  0  0  0  0  0  0  0
   11.2372  -15.4578   29.6394 O   0  0  0  0  0  0  0  0  0  0  0  0
   10.9729  -17.4564   28.6112 O   0  0  0  0  0  0  0  0  0  0  0  0
  2  1  1  1
  3  2  1  0
  3  4  1  0
  5  4  1  0
  6  5  1  0
  7  6  1  0
  8  9  2  0
  8  2  1  0
 10  8  1  0
 11 10  1  0
 11 12  1  6
 13 17  1  0
 13 12  1  0
 14 13  2  0
 15 14  1  0
 15 16  1  0
 16 17  2  0
 18 11  1  0
 19 18  2  0
 20 18  1  0
 21 29  1  0
 21 20  1  0
 21 22  1  1
 22 23  1  0
 23 28  1  0
 24 23  2  0
 24 25  1  0
 25 26  2  0
 26 27  1  0
 28 27  2  0
 29 31  1  0
 30 29  2  0
M  END
$$$$
