FHF.pdb
     RDKit          3D

 33 35  0  0  1  0  0  0  0  0999 V2000
   24.1984  -11.3406  -15.2045 N   0  0  0  0  0  0  0  0  0  0  0  0
   23.4786  -10.5734  -16.1719 C   0  0  1  0  0  0  0  0  0  0  0  0
   22.0441  -11.0248  -16.2114 C   0  0  0  0  0  0  0  0  0  0  0  0
   21.9334  -12.3873  -16.7498 C   0  0  0  0  0  0  0  0  0  0  0  0
   22.1671  -12.6000  -18.0845 C   0  0  0  0  0  0  0  0  0  0  0  0
   22.0743  -13.8605  -18.6299 C   0  0  0  0  0  0  0  0  0  0  0  0
   21.7351  -14.9256  -17.7919 C   0  0  0  0  0  0  0  0  0  0  0  0
   21.4949  -14.7270  -16.4360 C   0  0  0  0  0  0  0  0  0  0  0  0
   21.5984  -13.4452  -15.9265 C   0  0  0  0  0  0  0  0  0  0  0  0
   23.5929   -9.1097  -15.9454 C   0  0  0  0  0  0  0  0  0  0  0  0
   23.5980   -8.6899  -14.7729 O   0  0  0  0  0  0  0  0  0  0  0  0
   23.6960   -8.1710  -16.9894 N   0  0  0  0  0  0  0  0  0  0  0  0
   23.8305   -6.7496  -16.8249 C   0  0  1  0  0  0  0  0  0  0  0  0
   24.9174   -6.1472  -17.6602 C   0  0  0  0  0  0  0  0  0  0  0  0
   25.1642   -4.7293  -17.4318 C   0  0  0  0  0  0  0  0  0  0  0  0
   24.5409   -3.8485  -16.6062 C   0  0  0  0  0  0  0  0  0  0  0  0
   25.1335   -2.6525  -16.7506 N   0  0  0  0  0  0  0  0  0  0  0  0
   26.1256   -2.7731  -17.6610 C   0  0  0  0  0  0  0  0  0  0  0  0
   26.1481   -4.0453  -18.0816 N   0  0  0  0  0  0  0  0  0  0  0  0
   22.5307   -6.0437  -16.9003 C   0  0  0  0  0  0  0  0  0  0  0  0
   21.8532   -6.0514  -17.9701 O   0  0  0  0  0  0  0  0  0  0  0  0
   21.9778   -5.3320  -15.8012 N   0  0  0  0  0  0  0  0  0  0  0  0
   20.7367   -4.5963  -15.9583 C   0  0  1  0  0  0  0  0  0  0  0  0
   19.6395   -5.4531  -15.3695 C   0  0  0  0  0  0  0  0  0  0  0  0
   19.0991   -6.4630  -16.2958 C   0  0  0  0  0  0  0  0  0  0  0  0
   19.3278   -7.8223  -16.1124 C   0  0  0  0  0  0  0  0  0  0  0  0
   18.7849   -8.7087  -17.0064 C   0  0  0  0  0  0  0  0  0  0  0  0
   18.0173   -8.3446  -18.0903 C   0  0  0  0  0  0  0  0  0  0  0  0
   17.7881   -6.9959  -18.2754 C   0  0  0  0  0  0  0  0  0  0  0  0
   18.3214   -6.0851  -17.3924 C   0  0  0  0  0  0  0  0  0  0  0  0
   20.8190   -3.3329  -15.1994 C   0  0  0  0  0  0  0  0  0  0  0  0
   19.7633   -2.4285  -15.1275 O   0  0  0  0  0  0  0  0  0  0  0  0
   21.8756   -3.0425  -14.5876 O   0  0  0  0  0  0  0  0  0  0  0  0
  2  1  1  1
  2  3  1  0
  3  4  1  0
  4  5  2  0
  5  6  1  0
  7  6  2  0
  8  7  1  0
  9  4  1  0
  9  8  2  0
 10  2  1  0
 11 10  2  0
 12 10  1  0
 13 20  1  0
 13 12  1  0
 13 14  1  6
 15 14  1  0
 16 15  2  0
 17 18  1  0
 17 16  1  0
 18 19  2  0
 19 15  1  0
 20 22  1  0
 21 20  2  0
 22 23  1  0
 23 31  1  0
 23 24  1  1
 25 24  1  0
 26 25  2  0
 27 26  1  0
 28 27  2  0
 28 29  1  0
 29 30  2  0
 30 25  1  0
 31 33  2  0
 31 32  1  0
M  END
$$$$
