FHF.pdb
     RDKit          3D

 33 35  0  0  1  0  0  0  0  0999 V2000
   38.7731  -23.0567    6.5536 N   0  0  0  0  0  0  0  0  0  0  0  0
   37.3746  -23.3049    6.3952 C   0  0  1  0  0  0  0  0  0  0  0  0
   36.9130  -22.7742    5.0654 C   0  0  0  0  0  0  0  0  0  0  0  0
   35.4699  -22.9831    4.8851 C   0  0  0  0  0  0  0  0  0  0  0  0
   34.5881  -22.1968    5.5818 C   0  0  0  0  0  0  0  0  0  0  0  0
   33.2282  -22.3590    5.4423 C   0  0  0  0  0  0  0  0  0  0  0  0
   32.7610  -23.3466    4.5716 C   0  0  0  0  0  0  0  0  0  0  0  0
   33.6420  -24.1526    3.8575 C   0  0  0  0  0  0  0  0  0  0  0  0
   35.0011  -23.9581    4.0255 C   0  0  0  0  0  0  0  0  0  0  0  0
   37.0210  -24.7368    6.5733 C   0  0  0  0  0  0  0  0  0  0  0  0
   37.5951  -25.5821    5.8613 O   0  0  0  0  0  0  0  0  0  0  0  0
   36.0690  -25.1884    7.5068 N   0  0  0  0  0  0  0  0  0  0  0  0
   35.6874  -26.5583    7.7151 C   0  0  1  0  0  0  0  0  0  0  0  0
   35.4261  -26.8987    9.1495 C   0  0  0  0  0  0  0  0  0  0  0  0
   35.0822  -28.2914    9.4057 C   0  0  0  0  0  0  0  0  0  0  0  0
   34.9324  -29.3340    8.5475 C   0  0  0  0  0  0  0  0  0  0  0  0
   34.6117  -30.4215    9.2664 N   0  0  0  0  0  0  0  0  0  0  0  0
   34.5581  -30.0720   10.5713 C   0  0  0  0  0  0  0  0  0  0  0  0
   34.8461  -28.7663   10.6615 N   0  0  0  0  0  0  0  0  0  0  0  0
   34.6352  -27.0042    6.7730 C   0  0  0  0  0  0  0  0  0  0  0  0
   33.6337  -26.2687    6.5289 O   0  0  0  0  0  0  0  0  0  0  0  0
   34.6855  -28.2556    6.1010 N   0  0  0  0  0  0  0  0  0  0  0  0
   33.6455  -28.6188    5.1562 C   0  0  1  0  0  0  0  0  0  0  0  0
   33.6937  -27.6042    4.0369 C   0  0  0  0  0  0  0  0  0  0  0  0
   34.9419  -27.6266    3.2549 C   0  0  0  0  0  0  0  0  0  0  0  0
   35.2433  -28.6695    2.3858 C   0  0  0  0  0  0  0  0  0  0  0  0
   36.4176  -28.6208    1.6798 C   0  0  0  0  0  0  0  0  0  0  0  0
   37.3349  -27.5976    1.7704 C   0  0  0  0  0  0  0  0  0  0  0  0
   37.0388  -26.5605    2.6321 C   0  0  0  0  0  0  0  0  0  0  0  0
   35.8667  -26.5848    3.3525 C   0  0  0  0  0  0  0  0  0  0  0  0
   33.9335  -29.9571    4.6041 C   0  0  0  0  0  0  0  0  0  0  0  0
   33.0362  -30.6449    3.7920 O   0  0  0  0  0  0  0  0  0  0  0  0
   35.0261  -30.5162    4.8663 O   0  0  0  0  0  0  0  0  0  0  0  0
  2  1  1  6
  2  3  1  0
  3  4  1  0
  4  5  2  0
  5  6  1  0
  7  6  2  0
  8  7  1  0
  9  4  1  0
  9  8  2  0
 10  2  1  0
 11 10  2  0
 12 10  1  0
 13 20  1  0
 13 12  1  0
 13 14  1  1
 15 14  1  0
 16 15  2  0
 17 18  1  0
 17 16  1  0
 18 19  2  0
 19 15  1  0
 20 22  1  0
 21 20  2  0
 22 23  1  0
 23 31  1  0
 23 24  1  6
 25 24  1  0
 26 25  2  0
 27 26  1  0
 28 27  2  0
 28 29  1  0
 29 30  2  0
 30 25  1  0
 31 33  2  0
 31 32  1  0
M  END
$$$$
