FHF.pdb
     RDKit          3D

 33 35  0  0  1  0  0  0  0  0999 V2000
   18.9690  -22.3583  -23.6584 N   0  0  0  0  0  0  0  0  0  0  0  0
   18.0041  -21.5250  -23.0125 C   0  0  1  0  0  0  0  0  0  0  0  0
   16.6237  -21.8826  -23.4918 C   0  0  0  0  0  0  0  0  0  0  0  0
   16.4394  -21.5071  -24.9002 C   0  0  0  0  0  0  0  0  0  0  0  0
   16.3951  -22.4913  -25.8544 C   0  0  0  0  0  0  0  0  0  0  0  0
   16.2239  -22.1835  -27.1852 C   0  0  0  0  0  0  0  0  0  0  0  0
   16.0954  -20.8402  -27.5470 C   0  0  0  0  0  0  0  0  0  0  0  0
   16.1382  -19.8298  -26.5916 C   0  0  0  0  0  0  0  0  0  0  0  0
   16.3117  -20.1805  -25.2649 C   0  0  0  0  0  0  0  0  0  0  0  0
   18.1053  -21.5699  -21.5311 C   0  0  0  0  0  0  0  0  0  0  0  0
   18.3855  -22.6554  -20.9888 O   0  0  0  0  0  0  0  0  0  0  0  0
   17.9005  -20.4470  -20.7071 N   0  0  0  0  0  0  0  0  0  0  0  0
   17.9537  -20.4435  -19.2710 C   0  0  1  0  0  0  0  0  0  0  0  0
   19.2059  -19.8379  -18.7166 C   0  0  0  0  0  0  0  0  0  0  0  0
   20.4300  -20.5793  -18.9911 C   0  0  0  0  0  0  0  0  0  0  0  0
   21.0025  -21.6135  -18.3214 C   0  0  0  0  0  0  0  0  0  0  0  0
   22.1276  -21.9562  -18.9687 N   0  0  0  0  0  0  0  0  0  0  0  0
   22.2683  -21.1456  -20.0415 C   0  0  0  0  0  0  0  0  0  0  0  0
   21.2293  -20.2994  -20.0592 N   0  0  0  0  0  0  0  0  0  0  0  0
   16.7019  -19.9434  -18.6575 C   0  0  0  0  0  0  0  0  0  0  0  0
   16.1407  -18.8970  -19.0977 O   0  0  0  0  0  0  0  0  0  0  0  0
   16.0691  -20.5935  -17.5634 N   0  0  0  0  0  0  0  0  0  0  0  0
   14.7975  -20.1064  -17.0615 C   0  0  1  0  0  0  0  0  0  0  0  0
   13.8011  -20.2322  -18.1911 C   0  0  0  0  0  0  0  0  0  0  0  0
   13.2124  -21.5753  -18.3303 C   0  0  0  0  0  0  0  0  0  0  0  0
   13.6948  -22.4944  -19.2557 C   0  0  0  0  0  0  0  0  0  0  0  0
   13.1075  -23.7313  -19.3239 C   0  0  0  0  0  0  0  0  0  0  0  0
   12.0576  -24.1361  -18.5299 C   0  0  0  0  0  0  0  0  0  0  0  0
   11.5763  -23.2263  -17.6100 C   0  0  0  0  0  0  0  0  0  0  0  0
   12.1480  -21.9778  -17.5208 C   0  0  0  0  0  0  0  0  0  0  0  0
   14.3588  -20.9562  -15.9372 C   0  0  0  0  0  0  0  0  0  0  0  0
   15.1306  -22.0022  -15.4391 O   0  0  0  0  0  0  0  0  0  0  0  0
   13.2471  -20.7449  -15.3945 O   0  0  0  0  0  0  0  0  0  0  0  0
  2  1  1  6
  2  3  1  0
  3  4  1  0
  4  5  2  0
  5  6  1  0
  7  6  2  0
  8  7  1  0
  9  4  1  0
  9  8  2  0
 10  2  1  0
 11 10  2  0
 12 10  1  0
 13 20  1  0
 13 12  1  0
 13 14  1  6
 15 14  1  0
 16 15  2  0
 17 18  1  0
 17 16  1  0
 18 19  2  0
 19 15  1  0
 20 22  1  0
 21 20  2  0
 22 23  1  0
 23 31  1  0
 23 24  1  6
 25 24  1  0
 26 25  2  0
 27 26  1  0
 28 27  2  0
 28 29  1  0
 29 30  2  0
 30 25  1  0
 31 33  2  0
 31 32  1  0
M  END
$$$$
