FHF.pdb
     RDKit          3D

 33 35  0  0  1  0  0  0  0  0999 V2000
   23.9676  -10.7959  -17.7016 N   0  0  0  0  0  0  0  0  0  0  0  0
   23.5306  -10.0560  -16.5597 C   0  0  1  0  0  0  0  0  0  0  0  0
   24.5792   -9.0472  -16.1776 C   0  0  0  0  0  0  0  0  0  0  0  0
   25.9121   -9.6632  -16.1283 C   0  0  0  0  0  0  0  0  0  0  0  0
   26.1561  -10.6570  -15.2151 C   0  0  0  0  0  0  0  0  0  0  0  0
   27.3906  -11.2610  -15.1352 C   0  0  0  0  0  0  0  0  0  0  0  0
   28.3963  -10.8391  -16.0082 C   0  0  0  0  0  0  0  0  0  0  0  0
   28.1653   -9.8323  -16.9403 C   0  0  0  0  0  0  0  0  0  0  0  0
   26.9113   -9.2506  -16.9888 C   0  0  0  0  0  0  0  0  0  0  0  0
   22.2006   -9.4247  -16.7582 C   0  0  0  0  0  0  0  0  0  0  0  0
   21.8809   -9.0646  -17.9067 O   0  0  0  0  0  0  0  0  0  0  0  0
   21.2813   -9.2121  -15.7135 N   0  0  0  0  0  0  0  0  0  0  0  0
   19.9469   -8.7005  -15.8657 C   0  0  1  0  0  0  0  0  0  0  0  0
   18.9098   -9.4984  -15.1379 C   0  0  0  0  0  0  0  0  0  0  0  0
   18.7613  -10.8782  -15.5823 C   0  0  0  0  0  0  0  0  0  0  0  0
   19.3996  -11.5593  -16.5695 C   0  0  0  0  0  0  0  0  0  0  0  0
   18.9139  -12.8107  -16.5924 N   0  0  0  0  0  0  0  0  0  0  0  0
   17.9743  -12.9233  -15.6269 C   0  0  0  0  0  0  0  0  0  0  0  0
   17.8773  -11.7403  -15.0047 N   0  0  0  0  0  0  0  0  0  0  0  0
   19.8703   -7.2384  -15.6422 C   0  0  0  0  0  0  0  0  0  0  0  0
   18.7919   -6.6090  -15.8526 O   0  0  0  0  0  0  0  0  0  0  0  0
   20.9773   -6.4714  -15.1877 N   0  0  0  0  0  0  0  0  0  0  0  0
   20.9197   -5.0215  -15.2120 C   0  0  1  0  0  0  0  0  0  0  0  0
   21.9367   -4.5237  -14.2108 C   0  0  0  0  0  0  0  0  0  0  0  0
   22.1298   -3.0634  -14.2214 C   0  0  0  0  0  0  0  0  0  0  0  0
   21.2243   -2.2002  -13.6141 C   0  0  0  0  0  0  0  0  0  0  0  0
   21.4718   -0.8522  -13.6515 C   0  0  0  0  0  0  0  0  0  0  0  0
   22.5697   -0.2820  -14.2566 C   0  0  0  0  0  0  0  0  0  0  0  0
   23.4708   -1.1359  -14.8603 C   0  0  0  0  0  0  0  0  0  0  0  0
   23.2462   -2.4933  -14.8370 C   0  0  0  0  0  0  0  0  0  0  0  0
   21.2941   -4.5409  -16.5565 C   0  0  0  0  0  0  0  0  0  0  0  0
   20.6009   -3.5280  -17.2133 O   0  0  0  0  0  0  0  0  0  0  0  0
   22.2739   -5.0538  -17.1499 O   0  0  0  0  0  0  0  0  0  0  0  0
  2  1  1  6
  2  3  1  0
  3  4  1  0
  4  5  2  0
  5  6  1  0
  7  6  2  0
  8  7  1  0
  9  4  1  0
  9  8  2  0
 10  2  1  0
 11 10  2  0
 12 10  1  0
 13 20  1  0
 13 12  1  0
 13 14  1  1
 15 14  1  0
 16 15  2  0
 17 18  1  0
 17 16  1  0
 18 19  2  0
 19 15  1  0
 20 22  1  0
 21 20  2  0
 22 23  1  0
 23 31  1  0
 23 24  1  1
 25 24  1  0
 26 25  2  0
 27 26  1  0
 28 27  2  0
 28 29  1  0
 29 30  2  0
 30 25  1  0
 31 33  2  0
 31 32  1  0
M  END
$$$$
