FHF.pdb
     RDKit          3D

 33 35  0  0  1  0  0  0  0  0999 V2000
   21.5901  -18.0895  -17.4012 N   0  0  0  0  0  0  0  0  0  0  0  0
   22.9217  -17.7056  -17.0520 C   0  0  1  0  0  0  0  0  0  0  0  0
   22.8801  -16.5581  -16.0800 C   0  0  0  0  0  0  0  0  0  0  0  0
   22.2817  -15.3657  -16.6954 C   0  0  0  0  0  0  0  0  0  0  0  0
   22.9547  -14.7243  -17.7038 C   0  0  0  0  0  0  0  0  0  0  0  0
   22.4300  -13.6040  -18.3076 C   0  0  0  0  0  0  0  0  0  0  0  0
   21.1907  -13.1302  -17.8704 C   0  0  0  0  0  0  0  0  0  0  0  0
   20.4950  -13.7691  -16.8488 C   0  0  0  0  0  0  0  0  0  0  0  0
   21.0562  -14.8918  -16.2677 C   0  0  0  0  0  0  0  0  0  0  0  0
   23.7305  -18.8398  -16.5360 C   0  0  0  0  0  0  0  0  0  0  0  0
   23.2536  -19.5413  -15.6241 O   0  0  0  0  0  0  0  0  0  0  0  0
   25.0102  -19.1633  -17.0252 N   0  0  0  0  0  0  0  0  0  0  0  0
   25.8578  -20.2089  -16.5214 C   0  0  1  0  0  0  0  0  0  0  0  0
   26.9247  -20.6342  -17.4820 C   0  0  0  0  0  0  0  0  0  0  0  0
   27.7853  -21.7145  -17.0177 C   0  0  0  0  0  0  0  0  0  0  0  0
   27.8200  -22.3618  -15.8236 C   0  0  0  0  0  0  0  0  0  0  0  0
   28.7925  -23.2857  -15.8796 N   0  0  0  0  0  0  0  0  0  0  0  0
   29.3709  -23.2254  -17.1001 C   0  0  0  0  0  0  0  0  0  0  0  0
   28.7563  -22.2630  -17.8015 N   0  0  0  0  0  0  0  0  0  0  0  0
   26.3370  -19.9385  -15.1465 C   0  0  0  0  0  0  0  0  0  0  0  0
   26.9835  -18.8816  -14.8845 O   0  0  0  0  0  0  0  0  0  0  0  0
   26.1047  -20.8283  -14.0627 N   0  0  0  0  0  0  0  0  0  0  0  0
   26.7441  -20.5988  -12.7802 C   0  0  1  0  0  0  0  0  0  0  0  0
   26.0543  -19.4102  -12.1508 C   0  0  0  0  0  0  0  0  0  0  0  0
   24.6432  -19.6468  -11.8005 C   0  0  0  0  0  0  0  0  0  0  0  0
   24.2423  -19.8750  -10.4886 C   0  0  0  0  0  0  0  0  0  0  0  0
   22.9107  -20.0762  -10.2317 C   0  0  0  0  0  0  0  0  0  0  0  0
   21.9256  -20.0687  -11.1941 C   0  0  0  0  0  0  0  0  0  0  0  0
   22.3200  -19.8424  -12.4975 C   0  0  0  0  0  0  0  0  0  0  0  0
   23.6504  -19.6373  -12.7826 C   0  0  0  0  0  0  0  0  0  0  0  0
   26.5468  -21.7806  -11.9182 C   0  0  0  0  0  0  0  0  0  0  0  0
   25.8341  -22.9027  -12.3316 O   0  0  0  0  0  0  0  0  0  0  0  0
   27.0321  -21.7944  -10.7609 O   0  0  0  0  0  0  0  0  0  0  0  0
  2  1  1  1
  2  3  1  0
  3  4  1  0
  4  5  2  0
  5  6  1  0
  7  6  2  0
  8  7  1  0
  9  4  1  0
  9  8  2  0
 10  2  1  0
 11 10  2  0
 12 10  1  0
 13 20  1  0
 13 12  1  0
 13 14  1  6
 15 14  1  0
 16 15  2  0
 17 18  1  0
 17 16  1  0
 18 19  2  0
 19 15  1  0
 20 22  1  0
 21 20  2  0
 22 23  1  0
 23 31  1  0
 23 24  1  1
 25 24  1  0
 26 25  2  0
 27 26  1  0
 28 27  2  0
 28 29  1  0
 29 30  2  0
 30 25  1  0
 31 33  2  0
 31 32  1  0
M  END
$$$$
