FHF.pdb
     RDKit          3D

 33 35  0  0  1  0  0  0  0  0999 V2000
   16.4209   -8.9785  -19.8029 N   0  0  0  0  0  0  0  0  0  0  0  0
   17.7955   -9.2744  -19.5471 C   0  0  1  0  0  0  0  0  0  0  0  0
   18.6708   -8.3531  -20.3522 C   0  0  0  0  0  0  0  0  0  0  0  0
   18.5787   -8.6564  -21.7868 C   0  0  0  0  0  0  0  0  0  0  0  0
   18.0598   -7.7141  -22.6377 C   0  0  0  0  0  0  0  0  0  0  0  0
   17.9556   -7.9571  -23.9887 C   0  0  0  0  0  0  0  0  0  0  0  0
   18.3916   -9.1905  -24.4791 C   0  0  0  0  0  0  0  0  0  0  0  0
   18.9204  -10.1572  -23.6296 C   0  0  0  0  0  0  0  0  0  0  0  0
   19.0081   -9.8742  -22.2785 C   0  0  0  0  0  0  0  0  0  0  0  0
   18.1325   -9.2354  -18.1008 C   0  0  0  0  0  0  0  0  0  0  0  0
   17.6103   -8.3528  -17.3941 O   0  0  0  0  0  0  0  0  0  0  0  0
   19.0130  -10.1460  -17.4866 N   0  0  0  0  0  0  0  0  0  0  0  0
   19.3606  -10.1612  -16.0922 C   0  0  1  0  0  0  0  0  0  0  0  0
   19.5215  -11.5383  -15.5270 C   0  0  0  0  0  0  0  0  0  0  0  0
   18.2813  -12.2757  -15.3223 C   0  0  0  0  0  0  0  0  0  0  0  0
   16.9887  -11.8812  -15.4616 C   0  0  0  0  0  0  0  0  0  0  0  0
   16.2005  -12.9248  -15.1582 N   0  0  0  0  0  0  0  0  0  0  0  0
   16.9868  -13.9740  -14.8289 C   0  0  0  0  0  0  0  0  0  0  0  0
   18.2640  -13.5805  -14.9281 N   0  0  0  0  0  0  0  0  0  0  0  0
   20.4665   -9.2295  -15.7724 C   0  0  0  0  0  0  0  0  0  0  0  0
   21.4335   -9.0758  -16.5755 O   0  0  0  0  0  0  0  0  0  0  0  0
   20.5077   -8.4684  -14.5727 N   0  0  0  0  0  0  0  0  0  0  0  0
   21.4720   -7.3942  -14.4227 C   0  0  1  0  0  0  0  0  0  0  0  0
   21.2167   -6.4138  -15.5444 C   0  0  0  0  0  0  0  0  0  0  0  0
   22.0429   -5.1959  -15.4817 C   0  0  0  0  0  0  0  0  0  0  0  0
   21.5055   -3.9635  -15.1264 C   0  0  0  0  0  0  0  0  0  0  0  0
   22.3344   -2.8726  -15.0767 C   0  0  0  0  0  0  0  0  0  0  0  0
   23.6822   -2.9093  -15.3576 C   0  0  0  0  0  0  0  0  0  0  0  0
   24.2190   -4.1312  -15.7106 C   0  0  0  0  0  0  0  0  0  0  0  0
   23.4090   -5.2421  -15.7680 C   0  0  0  0  0  0  0  0  0  0  0  0
   21.2490   -6.7152  -13.1313 C   0  0  0  0  0  0  0  0  0  0  0  0
   20.1839   -7.0277  -12.2911 O   0  0  0  0  0  0  0  0  0  0  0  0
   22.0397   -5.8153  -12.7569 O   0  0  0  0  0  0  0  0  0  0  0  0
  2  1  1  1
  2  3  1  0
  3  4  1  0
  4  5  2  0
  5  6  1  0
  7  6  2  0
  8  7  1  0
  9  4  1  0
  9  8  2  0
 10  2  1  0
 11 10  2  0
 12 10  1  0
 13 20  1  0
 13 12  1  0
 13 14  1  6
 15 14  1  0
 16 15  2  0
 17 18  1  0
 17 16  1  0
 18 19  2  0
 19 15  1  0
 20 22  1  0
 21 20  2  0
 22 23  1  0
 23 31  1  0
 23 24  1  6
 25 24  1  0
 26 25  2  0
 27 26  1  0
 28 27  2  0
 28 29  1  0
 29 30  2  0
 30 25  1  0
 31 33  2  0
 31 32  1  0
M  END
$$$$
