FHF.pdb
     RDKit          3D

 33 35  0  0  1  0  0  0  0  0999 V2000
   21.3934  -11.4540  -16.7157 N   0  0  0  0  0  0  0  0  0  0  0  0
   20.5249  -10.5267  -17.3700 C   0  0  1  0  0  0  0  0  0  0  0  0
   19.1356  -10.6485  -16.8058 C   0  0  0  0  0  0  0  0  0  0  0  0
   18.4901  -11.8898  -17.2542 C   0  0  0  0  0  0  0  0  0  0  0  0
   18.2589  -12.8898  -16.3444 C   0  0  0  0  0  0  0  0  0  0  0  0
   17.6567  -14.0687  -16.7220 C   0  0  0  0  0  0  0  0  0  0  0  0
   17.2832  -14.2274  -18.0588 C   0  0  0  0  0  0  0  0  0  0  0  0
   17.5105  -13.2230  -18.9943 C   0  0  0  0  0  0  0  0  0  0  0  0
   18.1182  -12.0534  -18.5748 C   0  0  0  0  0  0  0  0  0  0  0  0
   21.0262   -9.1295  -17.3112 C   0  0  0  0  0  0  0  0  0  0  0  0
   21.6864   -8.7780  -16.3155 O   0  0  0  0  0  0  0  0  0  0  0  0
   20.7933   -8.1805  -18.3247 N   0  0  0  0  0  0  0  0  0  0  0  0
   21.2878   -6.8312  -18.3356 C   0  0  1  0  0  0  0  0  0  0  0  0
   21.4609   -6.2647  -19.7107 C   0  0  0  0  0  0  0  0  0  0  0  0
   22.5192   -6.8740  -20.5059 C   0  0  0  0  0  0  0  0  0  0  0  0
   23.4806   -7.7679  -20.1557 C   0  0  0  0  0  0  0  0  0  0  0  0
   24.2226   -8.0280  -21.2439 N   0  0  0  0  0  0  0  0  0  0  0  0
   23.7359   -7.3047  -22.2772 C   0  0  0  0  0  0  0  0  0  0  0  0
   22.6910   -6.5953  -21.8291 N   0  0  0  0  0  0  0  0  0  0  0  0
   20.5590   -5.9517  -17.3928 C   0  0  0  0  0  0  0  0  0  0  0  0
   19.2986   -6.0191  -17.2902 O   0  0  0  0  0  0  0  0  0  0  0  0
   21.2155   -5.0013  -16.5646 N   0  0  0  0  0  0  0  0  0  0  0  0
   20.4508   -4.1953  -15.6309 C   0  0  1  0  0  0  0  0  0  0  0  0
   21.0277   -4.4473  -14.2567 C   0  0  0  0  0  0  0  0  0  0  0  0
   20.6703   -5.7558  -13.6824 C   0  0  0  0  0  0  0  0  0  0  0  0
   19.4541   -5.9675  -13.0423 C   0  0  0  0  0  0  0  0  0  0  0  0
   19.1812   -7.2140  -12.5408 C   0  0  0  0  0  0  0  0  0  0  0  0
   20.0380   -8.2888  -12.6264 C   0  0  0  0  0  0  0  0  0  0  0  0
   21.2463   -8.0822  -13.2613 C   0  0  0  0  0  0  0  0  0  0  0  0
   21.5450   -6.8406  -13.7737 C   0  0  0  0  0  0  0  0  0  0  0  0
   20.6180   -2.7679  -15.9677 C   0  0  0  0  0  0  0  0  0  0  0  0
   19.9543   -1.7515  -15.2863 O   0  0  0  0  0  0  0  0  0  0  0  0
   21.3844   -2.4354  -16.9042 O   0  0  0  0  0  0  0  0  0  0  0  0
  2  1  1  1
  2  3  1  0
  3  4  1  0
  4  5  2  0
  5  6  1  0
  7  6  2  0
  8  7  1  0
  9  4  1  0
  9  8  2  0
 10  2  1  0
 11 10  2  0
 12 10  1  0
 13 20  1  0
 13 12  1  0
 13 14  1  6
 15 14  1  0
 16 15  2  0
 17 18  1  0
 17 16  1  0
 18 19  2  0
 19 15  1  0
 20 22  1  0
 21 20  2  0
 22 23  1  0
 23 31  1  0
 23 24  1  1
 25 24  1  0
 26 25  2  0
 27 26  1  0
 28 27  2  0
 28 29  1  0
 29 30  2  0
 30 25  1  0
 31 33  2  0
 31 32  1  0
M  END
$$$$
