FHF.pdb
     RDKit          3D

 33 35  0  0  1  0  0  0  0  0999 V2000
   19.9621  -13.9367  -16.7994 N   0  0  0  0  0  0  0  0  0  0  0  0
   19.1310  -12.8027  -17.0564 C   0  0  1  0  0  0  0  0  0  0  0  0
   17.9107  -12.8593  -16.1785 C   0  0  0  0  0  0  0  0  0  0  0  0
   17.0217  -13.9582  -16.5794 C   0  0  0  0  0  0  0  0  0  0  0  0
   16.9106  -15.0585  -15.7682 C   0  0  0  0  0  0  0  0  0  0  0  0
   16.0891  -16.1102  -16.1059 C   0  0  0  0  0  0  0  0  0  0  0  0
   15.3662  -16.0343  -17.2990 C   0  0  0  0  0  0  0  0  0  0  0  0
   15.4675  -14.9254  -18.1332 C   0  0  0  0  0  0  0  0  0  0  0  0
   16.3038  -13.8895  -17.7581 C   0  0  0  0  0  0  0  0  0  0  0  0
   19.8566  -11.5142  -16.9143 C   0  0  0  0  0  0  0  0  0  0  0  0
   20.6859  -11.3994  -15.9923 O   0  0  0  0  0  0  0  0  0  0  0  0
   19.6550  -10.4143  -17.7695 N   0  0  0  0  0  0  0  0  0  0  0  0
   20.3156   -9.1423  -17.6648 C   0  0  1  0  0  0  0  0  0  0  0  0
   20.1512   -8.2773  -18.8759 C   0  0  0  0  0  0  0  0  0  0  0  0
   20.8820   -7.0169  -18.8441 C   0  0  0  0  0  0  0  0  0  0  0  0
   22.1836   -6.7461  -19.1239 C   0  0  0  0  0  0  0  0  0  0  0  0
   22.3810   -5.4296  -18.9499 N   0  0  0  0  0  0  0  0  0  0  0  0
   21.2134   -4.8688  -18.5626 C   0  0  0  0  0  0  0  0  0  0  0  0
   20.2911   -5.8388  -18.4963 N   0  0  0  0  0  0  0  0  0  0  0  0
   20.0385   -8.4627  -16.3785 C   0  0  0  0  0  0  0  0  0  0  0  0
   18.9063   -8.5712  -15.8219 O   0  0  0  0  0  0  0  0  0  0  0  0
   21.0052   -7.6665  -15.7061 N   0  0  0  0  0  0  0  0  0  0  0  0
   20.6500   -6.9607  -14.4887 C   0  0  1  0  0  0  0  0  0  0  0  0
   21.2919   -7.7090  -13.3430 C   0  0  0  0  0  0  0  0  0  0  0  0
   21.1143   -7.0683  -12.0284 C   0  0  0  0  0  0  0  0  0  0  0  0
   20.0198   -7.3499  -11.2180 C   0  0  0  0  0  0  0  0  0  0  0  0
   19.9231   -6.7263  -10.0009 C   0  0  0  0  0  0  0  0  0  0  0  0
   20.8459   -5.8269   -9.5149 C   0  0  0  0  0  0  0  0  0  0  0  0
   21.9337   -5.5452  -10.3167 C   0  0  0  0  0  0  0  0  0  0  0  0
   22.0550   -6.1575  -11.5430 C   0  0  0  0  0  0  0  0  0  0  0  0
   21.2028   -5.5930  -14.5388 C   0  0  0  0  0  0  0  0  0  0  0  0
   20.5743   -4.5052  -13.9393 O   0  0  0  0  0  0  0  0  0  0  0  0
   22.2823   -5.3801  -15.1426 O   0  0  0  0  0  0  0  0  0  0  0  0
  2  1  1  1
  2  3  1  0
  3  4  1  0
  4  5  2  0
  5  6  1  0
  7  6  2  0
  8  7  1  0
  9  4  1  0
  9  8  2  0
 10  2  1  0
 11 10  2  0
 12 10  1  0
 13 20  1  0
 13 12  1  0
 13 14  1  6
 15 14  1  0
 16 15  2  0
 17 18  1  0
 17 16  1  0
 18 19  2  0
 19 15  1  0
 20 22  1  0
 21 20  2  0
 22 23  1  0
 23 31  1  0
 23 24  1  1
 25 24  1  0
 26 25  2  0
 27 26  1  0
 28 27  2  0
 28 29  1  0
 29 30  2  0
 30 25  1  0
 31 33  2  0
 31 32  1  0
M  END
$$$$
