DKP.pdb
     RDKit          3D

 25 25  0  0  1  0  0  0  0  0999 V2000
   38.1974   -5.1228  -12.1072 N   0  0  0  0  0  0  0  0  0  0  0  0
   38.6669   -6.4458  -12.4134 C   0  0  1  0  0  0  0  0  0  0  0  0
   39.2821   -6.3915  -13.8166 C   0  0  0  0  0  0  0  0  0  0  0  0
   38.1829   -6.1945  -14.8190 C   0  0  0  0  0  0  0  0  0  0  0  0
   37.3823   -7.1445  -15.0058 O   0  0  0  0  0  0  0  0  0  0  0  0
   39.6917   -6.8380  -11.4141 C   0  0  0  0  0  0  0  0  0  0  0  0
   40.5824   -6.0254  -11.0585 O   0  0  0  0  0  0  0  0  0  0  0  0
   38.0446   -5.0149  -15.5189 O   0  0  0  0  0  0  0  0  0  0  0  0
   39.6943   -8.1647  -10.8220 N   0  0  0  0  0  0  0  0  0  0  0  0
   40.7195   -8.5202   -9.8816 C   0  0  1  0  0  0  0  0  0  0  0  0
   40.3309   -9.7100   -9.0610 C   0  0  0  0  0  0  0  0  0  0  0  0
   39.2019   -9.5274   -8.1440 C   0  0  0  0  0  0  0  0  0  0  0  0
   38.7498  -10.7142   -7.3623 C   0  0  0  0  0  0  0  0  0  0  0  0
   37.5044  -10.4102   -6.5635 C   0  0  0  0  0  0  0  0  0  0  0  0
   37.0968  -11.6129   -5.8577 N   0  0  0  0  0  0  0  0  0  0  0  0
   41.9492   -8.8595  -10.6965 C   0  0  0  0  0  0  0  0  0  0  0  0
   41.7110   -9.2743  -11.8812 O   0  0  0  0  0  0  0  0  0  0  0  0
   43.2586   -8.7343  -10.2086 N   0  0  0  0  0  0  0  0  0  0  0  0
   43.6226   -8.4479   -8.8387 C   0  0  0  0  0  0  0  0  0  0  0  0
   45.0389   -7.8681   -8.9087 C   0  0  0  0  0  0  0  0  0  0  0  0
   45.2333   -7.6652  -10.4201 C   0  0  0  0  0  0  0  0  0  0  0  0
   44.4879   -8.8969  -10.9195 C   0  0  1  0  0  0  0  0  0  0  0  0
   45.1590  -10.1384  -10.4344 C   0  0  0  0  0  0  0  0  0  0  0  0
   44.7611  -10.6555   -9.3795 O   0  0  0  0  0  0  0  0  0  0  0  0
   46.2034  -10.7349  -11.1106 O   0  0  0  0  0  0  0  0  0  0  0  0
  2  3  1  0
  2  1  1  1
  3  4  1  0
  4  8  1  0
  4  5  2  0
  6  2  1  0
  7  6  2  0
  9  6  1  0
 10  9  1  0
 10 11  1  6
 11 12  1  0
 12 13  1  0
 13 14  1  0
 14 15  1  0
 16 17  2  0
 16 10  1  0
 18 16  1  0
 19 18  1  0
 20 21  1  0
 20 19  1  0
 21 22  1  0
 22 23  1  1
 22 18  1  0
 23 25  1  0
 24 23  2  0
M  END
$$$$
