DKP.pdb
     RDKit          3D

 25 25  0  0  1  0  0  0  0  0999 V2000
   16.7850  -13.1731  -17.9542 N   0  0  0  0  0  0  0  0  0  0  0  0
   16.9452  -13.1400  -16.5267 C   0  0  1  0  0  0  0  0  0  0  0  0
   16.7278  -14.5692  -16.0162 C   0  0  0  0  0  0  0  0  0  0  0  0
   15.2548  -14.8546  -15.9909 C   0  0  0  0  0  0  0  0  0  0  0  0
   14.6126  -14.7189  -17.0621 O   0  0  0  0  0  0  0  0  0  0  0  0
   18.3189  -12.6793  -16.2055 C   0  0  0  0  0  0  0  0  0  0  0  0
   18.7522  -12.7322  -15.0266 O   0  0  0  0  0  0  0  0  0  0  0  0
   14.6147  -15.2534  -14.8369 O   0  0  0  0  0  0  0  0  0  0  0  0
   19.1967  -12.1570  -17.2386 N   0  0  0  0  0  0  0  0  0  0  0  0
   20.5539  -11.8193  -16.9129 C   0  0  1  0  0  0  0  0  0  0  0  0
   21.4211  -11.7712  -18.1317 C   0  0  0  0  0  0  0  0  0  0  0  0
   21.7105  -13.0559  -18.7755 C   0  0  0  0  0  0  0  0  0  0  0  0
   22.6199  -13.0454  -19.9574 C   0  0  0  0  0  0  0  0  0  0  0  0
   22.7588  -14.4224  -20.5624 C   0  0  0  0  0  0  0  0  0  0  0  0
   23.7009  -14.3550  -21.6663 N   0  0  0  0  0  0  0  0  0  0  0  0
   20.5129  -10.4456  -16.2783 C   0  0  0  0  0  0  0  0  0  0  0  0
   19.5474   -9.7036  -16.6653 O   0  0  0  0  0  0  0  0  0  0  0  0
   21.4518  -10.0015  -15.3351 N   0  0  0  0  0  0  0  0  0  0  0  0
   22.6690  -10.6915  -14.9700 C   0  0  0  0  0  0  0  0  0  0  0  0
   23.0384  -10.1548  -13.5835 C   0  0  0  0  0  0  0  0  0  0  0  0
   21.7868   -9.3474  -13.2027 C   0  0  0  0  0  0  0  0  0  0  0  0
   21.4410   -8.7894  -14.5779 C   0  0  1  0  0  0  0  0  0  0  0  0
   22.5416   -7.9097  -15.0698 C   0  0  0  0  0  0  0  0  0  0  0  0
   22.6812   -6.7893  -14.5562 O   0  0  0  0  0  0  0  0  0  0  0  0
   23.4101   -8.2908  -16.0719 O   0  0  0  0  0  0  0  0  0  0  0  0
  2  3  1  0
  2  1  1  6
  3  4  1  0
  4  8  1  0
  4  5  2  0
  6  2  1  0
  7  6  2  0
  9  6  1  0
 10  9  1  0
 10 11  1  6
 11 12  1  0
 12 13  1  0
 13 14  1  0
 14 15  1  0
 16 17  2  0
 16 10  1  0
 18 16  1  0
 19 18  1  0
 20 21  1  0
 20 19  1  0
 21 22  1  0
 22 23  1  6
 22 18  1  0
 23 25  1  0
 24 23  2  0
M  END
$$$$
