DKP.pdb
     RDKit          3D

 25 25  0  0  1  0  0  0  0  0999 V2000
   25.7272  -18.7686  -18.7245 N   0  0  0  0  0  0  0  0  0  0  0  0
   26.6114  -18.5123  -17.6213 C   0  0  1  0  0  0  0  0  0  0  0  0
   27.0973  -17.0650  -17.7608 C   0  0  0  0  0  0  0  0  0  0  0  0
   28.1337  -17.0054  -18.8445 C   0  0  0  0  0  0  0  0  0  0  0  0
   28.2563  -18.0058  -19.5944 O   0  0  0  0  0  0  0  0  0  0  0  0
   25.8627  -18.6865  -16.3518 C   0  0  0  0  0  0  0  0  0  0  0  0
   26.4317  -18.5130  -15.2444 O   0  0  0  0  0  0  0  0  0  0  0  0
   28.9317  -15.8954  -19.0224 O   0  0  0  0  0  0  0  0  0  0  0  0
   24.4587  -19.0603  -16.3531 N   0  0  0  0  0  0  0  0  0  0  0  0
   23.8251  -19.4434  -15.1228 C   0  0  1  0  0  0  0  0  0  0  0  0
   22.3774  -19.7666  -15.3218 C   0  0  0  0  0  0  0  0  0  0  0  0
   21.5182  -19.6603  -14.1389 C   0  0  0  0  0  0  0  0  0  0  0  0
   20.3704  -18.7104  -14.2037 C   0  0  0  0  0  0  0  0  0  0  0  0
   19.5736  -18.7153  -12.9204 C   0  0  0  0  0  0  0  0  0  0  0  0
   18.4167  -17.8521  -13.0854 N   0  0  0  0  0  0  0  0  0  0  0  0
   24.5477  -20.6814  -14.6363 C   0  0  0  0  0  0  0  0  0  0  0  0
   25.1187  -21.3650  -15.5523 O   0  0  0  0  0  0  0  0  0  0  0  0
   24.5999  -21.0663  -13.2881 N   0  0  0  0  0  0  0  0  0  0  0  0
   23.8572  -20.4544  -12.2088 C   0  0  0  0  0  0  0  0  0  0  0  0
   24.6324  -20.8041  -10.9345 C   0  0  0  0  0  0  0  0  0  0  0  0
   25.9272  -21.4124  -11.4977 C   0  0  0  0  0  0  0  0  0  0  0  0
   25.3401  -22.1391  -12.7015 C   0  0  1  0  0  0  0  0  0  0  0  0
   24.3812  -23.1909  -12.2526 C   0  0  0  0  0  0  0  0  0  0  0  0
   24.8313  -24.2848  -11.8794 O   0  0  0  0  0  0  0  0  0  0  0  0
   23.0152  -22.9969  -12.2353 O   0  0  0  0  0  0  0  0  0  0  0  0
  2  3  1  0
  2  1  1  6
  3  4  1  0
  4  8  1  0
  4  5  2  0
  6  2  1  0
  7  6  2  0
  9  6  1  0
 10  9  1  0
 10 11  1  6
 11 12  1  0
 12 13  1  0
 13 14  1  0
 14 15  1  0
 16 17  2  0
 16 10  1  0
 18 16  1  0
 19 18  1  0
 20 21  1  0
 20 19  1  0
 21 22  1  0
 22 23  1  1
 22 18  1  0
 23 25  1  0
 24 23  2  0
M  END
$$$$
