DKP.pdb
     RDKit          3D

 25 25  0  0  1  0  0  0  0  0999 V2000
   18.0169  -15.8810  -15.6060 N   0  0  0  0  0  0  0  0  0  0  0  0
   19.3375  -16.0286  -15.0595 C   0  0  1  0  0  0  0  0  0  0  0  0
   19.9216  -17.3229  -15.6373 C   0  0  0  0  0  0  0  0  0  0  0  0
   19.1690  -18.4895  -15.0674 C   0  0  0  0  0  0  0  0  0  0  0  0
   18.2243  -18.2476  -14.2754 O   0  0  0  0  0  0  0  0  0  0  0  0
   20.1613  -14.8629  -15.4657 C   0  0  0  0  0  0  0  0  0  0  0  0
   21.3565  -14.7619  -15.0895 O   0  0  0  0  0  0  0  0  0  0  0  0
   19.4931  -19.7890  -15.3939 O   0  0  0  0  0  0  0  0  0  0  0  0
   19.6126  -13.8114  -16.3048 N   0  0  0  0  0  0  0  0  0  0  0  0
   20.4277  -12.6806  -16.6497 C   0  0  1  0  0  0  0  0  0  0  0  0
   19.8150  -11.8699  -17.7485 C   0  0  0  0  0  0  0  0  0  0  0  0
   19.7003  -12.5255  -19.0545 C   0  0  0  0  0  0  0  0  0  0  0  0
   19.1137  -11.7339  -20.1741 C   0  0  0  0  0  0  0  0  0  0  0  0
   18.9626  -12.5688  -21.4238 C   0  0  0  0  0  0  0  0  0  0  0  0
   18.2696  -11.7828  -22.4300 N   0  0  0  0  0  0  0  0  0  0  0  0
   20.5292  -11.8293  -15.4021 C   0  0  0  0  0  0  0  0  0  0  0  0
   19.5237  -11.9043  -14.6174 O   0  0  0  0  0  0  0  0  0  0  0  0
   21.6334  -11.0147  -15.1099 N   0  0  0  0  0  0  0  0  0  0  0  0
   22.7804  -10.8124  -15.9670 C   0  0  0  0  0  0  0  0  0  0  0  0
   23.9042  -10.3460  -15.0362 C   0  0  0  0  0  0  0  0  0  0  0  0
   23.2915  -10.5760  -13.6451 C   0  0  0  0  0  0  0  0  0  0  0  0
   21.8496  -10.1956  -13.9587 C   0  0  1  0  0  0  0  0  0  0  0  0
   21.7714   -8.7634  -14.3707 C   0  0  0  0  0  0  0  0  0  0  0  0
   21.7848   -8.4917  -15.5809 O   0  0  0  0  0  0  0  0  0  0  0  0
   21.6849   -7.7291  -13.4615 O   0  0  0  0  0  0  0  0  0  0  0  0
  2  3  1  0
  2  1  1  6
  3  4  1  0
  4  8  1  0
  4  5  2  0
  6  2  1  0
  7  6  2  0
  9  6  1  0
 10  9  1  0
 10 11  1  6
 11 12  1  0
 12 13  1  0
 13 14  1  0
 14 15  1  0
 16 17  2  0
 16 10  1  0
 18 16  1  0
 19 18  1  0
 20 21  1  0
 20 19  1  0
 21 22  1  0
 22 23  1  6
 22 18  1  0
 23 25  1  0
 24 23  2  0
M  END
$$$$
