DKP.pdb
     RDKit          3D

 25 25  0  0  1  0  0  0  0  0999 V2000
   26.1416  -20.9178  -15.4208 N   0  0  0  0  0  0  0  0  0  0  0  0
   27.3102  -20.5971  -14.6486 C   0  0  1  0  0  0  0  0  0  0  0  0
   28.1529  -19.6300  -15.4882 C   0  0  0  0  0  0  0  0  0  0  0  0
   28.5325  -20.3087  -16.7716 C   0  0  0  0  0  0  0  0  0  0  0  0
   27.9756  -21.4013  -17.0443 O   0  0  0  0  0  0  0  0  0  0  0  0
   26.8889  -19.9498  -13.3813 C   0  0  0  0  0  0  0  0  0  0  0  0
   27.1191  -18.7308  -13.1782 O   0  0  0  0  0  0  0  0  0  0  0  0
   29.4605  -19.7623  -17.6323 O   0  0  0  0  0  0  0  0  0  0  0  0
   26.2024  -20.7025  -12.3455 N   0  0  0  0  0  0  0  0  0  0  0  0
   25.7536  -20.0301  -11.1587 C   0  0  1  0  0  0  0  0  0  0  0  0
   24.2761  -19.7926  -11.1810 C   0  0  0  0  0  0  0  0  0  0  0  0
   23.5643  -20.2335  -12.3842 C   0  0  0  0  0  0  0  0  0  0  0  0
   22.0926  -19.9984  -12.4395 C   0  0  0  0  0  0  0  0  0  0  0  0
   21.5000  -20.4964  -13.7366 C   0  0  0  0  0  0  0  0  0  0  0  0
   20.0585  -20.3224  -13.6889 N   0  0  0  0  0  0  0  0  0  0  0  0
   26.0928  -20.9395   -9.9971 C   0  0  0  0  0  0  0  0  0  0  0  0
   26.1727  -22.1802  -10.2916 O   0  0  0  0  0  0  0  0  0  0  0  0
   26.3080  -20.4767   -8.6903 N   0  0  0  0  0  0  0  0  0  0  0  0
   26.1923  -19.1027   -8.2543 C   0  0  0  0  0  0  0  0  0  0  0  0
   27.0325  -19.0113   -6.9765 C   0  0  0  0  0  0  0  0  0  0  0  0
   27.7576  -20.3669   -6.9658 C   0  0  0  0  0  0  0  0  0  0  0  0
   26.6376  -21.2358   -7.5250 C   0  0  1  0  0  0  0  0  0  0  0  0
   25.4656  -21.2250   -6.6012 C   0  0  0  0  0  0  0  0  0  0  0  0
   24.4941  -20.5067   -6.8823 O   0  0  0  0  0  0  0  0  0  0  0  0
   25.4177  -21.9806   -5.4477 O   0  0  0  0  0  0  0  0  0  0  0  0
  2  3  1  0
  2  1  1  6
  3  4  1  0
  4  8  1  0
  4  5  2  0
  6  2  1  0
  7  6  2  0
  9  6  1  0
 10  9  1  0
 10 11  1  6
 11 12  1  0
 12 13  1  0
 13 14  1  0
 14 15  1  0
 16 17  2  0
 16 10  1  0
 18 16  1  0
 19 18  1  0
 20 21  1  0
 20 19  1  0
 21 22  1  0
 22 23  1  1
 22 18  1  0
 23 25  1  0
 24 23  2  0
M  END
$$$$
