DKP.pdb
     RDKit          3D

 25 25  0  0  1  0  0  0  0  0999 V2000
   17.3357  -11.8548  -17.2000 N   0  0  0  0  0  0  0  0  0  0  0  0
   18.3694  -11.5969  -16.2360 C   0  0  1  0  0  0  0  0  0  0  0  0
   19.7101  -11.7262  -16.9682 C   0  0  0  0  0  0  0  0  0  0  0  0
   19.9848  -13.1797  -17.2206 C   0  0  0  0  0  0  0  0  0  0  0  0
   19.1124  -14.0116  -16.8666 O   0  0  0  0  0  0  0  0  0  0  0  0
   18.2012  -10.2217  -15.7039 C   0  0  0  0  0  0  0  0  0  0  0  0
   17.9326   -9.2658  -16.4747 O   0  0  0  0  0  0  0  0  0  0  0  0
   21.1520  -13.6022  -17.8203 O   0  0  0  0  0  0  0  0  0  0  0  0
   18.3415   -9.9431  -14.2849 N   0  0  0  0  0  0  0  0  0  0  0  0
   18.2323   -8.5914  -13.8127 C   0  0  1  0  0  0  0  0  0  0  0  0
   17.5511   -8.5223  -12.4819 C   0  0  0  0  0  0  0  0  0  0  0  0
   17.5045   -7.2041  -11.8425 C   0  0  0  0  0  0  0  0  0  0  0  0
   16.8945   -7.1178  -10.4844 C   0  0  0  0  0  0  0  0  0  0  0  0
   16.8667   -5.6949   -9.9784 C   0  0  0  0  0  0  0  0  0  0  0  0
   16.4166   -5.6988   -8.5971 N   0  0  0  0  0  0  0  0  0  0  0  0
   19.6468   -8.0706  -13.6740 C   0  0  0  0  0  0  0  0  0  0  0  0
   20.4725   -8.8917  -13.1482 O   0  0  0  0  0  0  0  0  0  0  0  0
   20.0426   -6.7890  -14.0854 N   0  0  0  0  0  0  0  0  0  0  0  0
   19.1551   -5.7331  -14.5197 C   0  0  0  0  0  0  0  0  0  0  0  0
   20.0241   -4.7954  -15.3638 C   0  0  0  0  0  0  0  0  0  0  0  0
   21.3251   -5.6011  -15.5106 C   0  0  0  0  0  0  0  0  0  0  0  0
   21.3617   -6.2406  -14.1279 C   0  0  1  0  0  0  0  0  0  0  0  0
   21.4752   -5.1886  -13.0754 C   0  0  0  0  0  0  0  0  0  0  0  0
   22.5790   -4.6559  -12.8844 O   0  0  0  0  0  0  0  0  0  0  0  0
   20.4034   -4.7840  -12.3063 O   0  0  0  0  0  0  0  0  0  0  0  0
  2  3  1  0
  2  1  1  6
  3  4  1  0
  4  8  1  0
  4  5  2  0
  6  2  1  0
  7  6  2  0
  9  6  1  0
 10  9  1  0
 10 11  1  1
 11 12  1  0
 12 13  1  0
 13 14  1  0
 14 15  1  0
 16 17  2  0
 16 10  1  0
 18 16  1  0
 19 18  1  0
 20 21  1  0
 20 19  1  0
 21 22  1  0
 22 23  1  1
 22 18  1  0
 23 25  1  0
 24 23  2  0
M  END
$$$$
