DKP.pdb
     RDKit          3D

 25 25  0  0  1  0  0  0  0  0999 V2000
   18.3113  -15.1581  -16.4082 N   0  0  0  0  0  0  0  0  0  0  0  0
   17.6615  -13.9881  -15.8853 C   0  0  1  0  0  0  0  0  0  0  0  0
   17.5402  -14.1803  -14.3692 C   0  0  0  0  0  0  0  0  0  0  0  0
   16.5227  -15.2492  -14.0973 C   0  0  0  0  0  0  0  0  0  0  0  0
   16.8809  -16.2392  -13.4118 O   0  0  0  0  0  0  0  0  0  0  0  0
   18.4925  -12.7971  -16.1909 C   0  0  0  0  0  0  0  0  0  0  0  0
   19.7444  -12.8473  -16.0897 O   0  0  0  0  0  0  0  0  0  0  0  0
   15.2337  -15.1604  -14.5780 O   0  0  0  0  0  0  0  0  0  0  0  0
   17.8858  -11.5464  -16.6134 N   0  0  0  0  0  0  0  0  0  0  0  0
   18.7214  -10.4176  -16.9129 C   0  0  1  0  0  0  0  0  0  0  0  0
   18.0263   -9.4330  -17.8001 C   0  0  0  0  0  0  0  0  0  0  0  0
   17.6119   -9.9238  -19.1178 C   0  0  0  0  0  0  0  0  0  0  0  0
   16.8490   -8.9881  -19.9933 C   0  0  0  0  0  0  0  0  0  0  0  0
   16.3720   -9.6719  -21.2528 C   0  0  0  0  0  0  0  0  0  0  0  0
   15.6033   -8.7216  -22.0381 N   0  0  0  0  0  0  0  0  0  0  0  0
   19.0378   -9.7557  -15.5888 C   0  0  0  0  0  0  0  0  0  0  0  0
   18.1473   -9.9085  -14.6855 O   0  0  0  0  0  0  0  0  0  0  0  0
   20.2127   -9.0270  -15.3501 N   0  0  0  0  0  0  0  0  0  0  0  0
   21.1974   -8.6679  -16.3463 C   0  0  0  0  0  0  0  0  0  0  0  0
   22.4889   -8.4088  -15.5641 C   0  0  0  0  0  0  0  0  0  0  0  0
   22.1228   -8.9074  -14.1567 C   0  0  0  0  0  0  0  0  0  0  0  0
   20.6672   -8.4579  -14.1204 C   0  0  1  0  0  0  0  0  0  0  0  0
   20.5833   -6.9714  -14.2228 C   0  0  0  0  0  0  0  0  0  0  0  0
   20.8929   -6.2894  -13.2341 O   0  0  0  0  0  0  0  0  0  0  0  0
   20.1756   -6.3244  -15.3713 O   0  0  0  0  0  0  0  0  0  0  0  0
  2  3  1  0
  2  1  1  6
  3  4  1  0
  4  8  1  0
  4  5  2  0
  6  2  1  0
  7  6  2  0
  9  6  1  0
 10  9  1  0
 10 11  1  6
 11 12  1  0
 12 13  1  0
 13 14  1  0
 14 15  1  0
 16 17  2  0
 16 10  1  0
 18 16  1  0
 19 18  1  0
 20 21  1  0
 20 19  1  0
 21 22  1  0
 22 23  1  6
 22 18  1  0
 23 25  1  0
 24 23  2  0
M  END
$$$$
