ASI.pdb
     RDKit          3D

 20 19  0  0  1  0  0  0  0  0999 V2000
    8.2812  -12.2801   19.1299 C   0  0  0  0  0  0  0  0  0  0  0  0
    8.3323  -13.7626   18.8594 C   0  0  2  0  0  0  0  0  0  0  0  0
    7.4887  -14.1409   17.7626 N   0  0  0  0  0  0  0  0  0  0  0  0
    8.0007  -14.5491   20.0956 C   0  0  0  0  0  0  0  0  0  0  0  0
    6.8063  -14.6436   20.4496 O   0  0  0  0  0  0  0  0  0  0  0  0
    9.3361  -17.9913   23.1889 O   0  0  0  0  0  0  0  0  0  0  0  0
    9.4920  -17.2623   22.0270 C   0  0  0  0  0  0  0  0  0  0  0  0
    8.7598  -15.9408   22.0493 C   0  0  2  0  0  0  0  0  0  0  0  0
    9.0277  -15.1800   20.8571 N   0  0  0  0  0  0  0  0  0  0  0  0
    9.0548  -15.1656   23.2818 C   0  0  0  0  0  0  0  0  0  0  0  0
   10.1024  -14.4895   23.3203 O   0  0  0  0  0  0  0  0  0  0  0  0
    6.6002  -11.3034   26.9207 C   0  0  0  0  0  0  0  0  0  0  0  0
    7.5777  -12.4481   26.9159 C   0  0  0  0  0  0  0  0  0  0  0  0
    7.3965  -13.3955   25.7820 C   0  0  2  0  0  0  0  0  0  0  0  0
    6.0324  -14.0418   25.9408 C   0  0  0  0  0  0  0  0  0  0  0  0
    8.4618  -14.4402   25.6250 C   0  0  2  0  0  0  0  0  0  0  0  0
    8.1967  -15.1721   24.3935 N   0  0  0  0  0  0  0  0  0  0  0  0
    8.6665  -15.3230   26.7769 C   0  0  0  0  0  0  0  0  0  0  0  0
    8.4167  -16.6841   26.7416 O   0  0  0  0  0  0  0  0  0  0  0  0
    9.0876  -14.8325   27.8549 O   0  0  0  0  0  0  0  0  0  0  0  0
  2  1  1  1
  2  3  1  0
  2  4  1  0
  4  5  2  0
  7  6  1  0
  8  7  1  6
  9  4  1  0
  9  8  1  0
 10 11  2  0
 10  8  1  0
 12 13  1  0
 14 16  1  0
 14 13  1  0
 14 15  1  1
 16 17  1  6
 17 10  1  0
 18 19  1  0
 18 16  1  0
 20 18  2  0
M  END
$$$$
