ASI.pdb
     RDKit          3D

 20 19  0  0  1  0  0  0  0  0999 V2000
    8.4312  -12.4108   18.9956 C   0  0  0  0  0  0  0  0  0  0  0  0
    8.3784  -13.9046   18.7980 C   0  0  2  0  0  0  0  0  0  0  0  0
    7.5119  -14.2762   17.7169 N   0  0  0  0  0  0  0  0  0  0  0  0
    7.9907  -14.6044   20.0694 C   0  0  0  0  0  0  0  0  0  0  0  0
    6.7869  -14.6296   20.4027 O   0  0  0  0  0  0  0  0  0  0  0  0
   10.7052  -17.1864   22.1904 O   0  0  0  0  0  0  0  0  0  0  0  0
    9.3270  -17.2651   22.1767 C   0  0  0  0  0  0  0  0  0  0  0  0
    8.6531  -15.9144   22.1128 C   0  0  2  0  0  0  0  0  0  0  0  0
    8.9756  -15.2318   20.8872 N   0  0  0  0  0  0  0  0  0  0  0  0
    8.9590  -15.0863   23.3078 C   0  0  0  0  0  0  0  0  0  0  0  0
    9.9012  -14.2718   23.2390 O   0  0  0  0  0  0  0  0  0  0  0  0
    6.5486  -11.3286   26.9780 C   0  0  0  0  0  0  0  0  0  0  0  0
    7.5608  -12.4428   26.9831 C   0  0  0  0  0  0  0  0  0  0  0  0
    7.3898  -13.4225   25.8754 C   0  0  2  0  0  0  0  0  0  0  0  0
    6.0713  -14.1401   26.1004 C   0  0  0  0  0  0  0  0  0  0  0  0
    8.5053  -14.4096   25.6962 C   0  0  2  0  0  0  0  0  0  0  0  0
    8.2253  -15.1934   24.5004 N   0  0  0  0  0  0  0  0  0  0  0  0
    8.8152  -15.2430   26.8613 C   0  0  0  0  0  0  0  0  0  0  0  0
    8.6544  -16.6179   26.8731 O   0  0  0  0  0  0  0  0  0  0  0  0
    9.2471  -14.6949   27.9067 O   0  0  0  0  0  0  0  0  0  0  0  0
  2  1  1  1
  2  3  1  0
  2  4  1  0
  4  5  2  0
  7  6  1  0
  8  7  1  1
  9  4  1  0
  9  8  1  0
 10 11  2  0
 10  8  1  0
 12 13  1  0
 14 16  1  0
 14 13  1  0
 14 15  1  1
 16 17  1  6
 17 10  1  0
 18 19  1  0
 18 16  1  0
 20 18  2  0
M  END
$$$$
