ASI.pdb
     RDKit          3D

 20 19  0  0  1  0  0  0  0  0999 V2000
    8.3264  -12.3836   18.8509 C   0  0  0  0  0  0  0  0  0  0  0  0
    8.5425  -13.8626   18.6524 C   0  0  2  0  0  0  0  0  0  0  0  0
    8.0908  -14.3065   17.3652 N   0  0  0  0  0  0  0  0  0  0  0  0
    7.9012  -14.6552   19.7556 C   0  0  0  0  0  0  0  0  0  0  0  0
    6.9960  -15.4673   19.4692 O   0  0  0  0  0  0  0  0  0  0  0  0
    8.0761  -17.7552   22.7516 O   0  0  0  0  0  0  0  0  0  0  0  0
    8.2685  -16.8385   21.7375 C   0  0  0  0  0  0  0  0  0  0  0  0
    7.9658  -15.4177   22.1525 C   0  0  2  0  0  0  0  0  0  0  0  0
    8.3140  -14.4881   21.1100 N   0  0  0  0  0  0  0  0  0  0  0  0
    8.6095  -15.0699   23.4455 C   0  0  0  0  0  0  0  0  0  0  0  0
    9.8521  -14.9664   23.4801 O   0  0  0  0  0  0  0  0  0  0  0  0
    5.6439  -11.7655   26.3276 C   0  0  0  0  0  0  0  0  0  0  0  0
    6.8181  -12.4591   25.6906 C   0  0  0  0  0  0  0  0  0  0  0  0
    7.4416  -13.5055   26.5464 C   0  0  2  0  0  0  0  0  0  0  0  0
    8.0625  -12.8067   27.7423 C   0  0  0  0  0  0  0  0  0  0  0  0
    8.4468  -14.3909   25.8706 C   0  0  2  0  0  0  0  0  0  0  0  0
    7.8665  -14.8564   24.6179 N   0  0  0  0  0  0  0  0  0  0  0  0
    8.9881  -15.4821   26.6855 C   0  0  0  0  0  0  0  0  0  0  0  0
    8.5239  -16.7842   26.6120 O   0  0  0  0  0  0  0  0  0  0  0  0
    9.9179  -15.2367   27.4949 O   0  0  0  0  0  0  0  0  0  0  0  0
  2  1  1  1
  2  3  1  0
  2  4  1  0
  4  5  2  0
  7  6  1  0
  8  7  1  6
  9  4  1  0
  9  8  1  0
 10 11  2  0
 10  8  1  0
 12 13  1  0
 14 16  1  0
 14 13  1  0
 14 15  1  1
 16 17  1  6
 17 10  1  0
 18 19  1  0
 18 16  1  0
 20 18  2  0
M  END
$$$$
