ASI.pdb
     RDKit          3D

 20 19  0  0  1  0  0  0  0  0999 V2000
    7.5528  -12.7641   18.5847 C   0  0  0  0  0  0  0  0  0  0  0  0
    8.6043  -13.5246   19.3525 C   0  0  2  0  0  0  0  0  0  0  0  0
    9.1754  -14.5882   18.5777 N   0  0  0  0  0  0  0  0  0  0  0  0
    8.0584  -14.0351   20.6556 C   0  0  0  0  0  0  0  0  0  0  0  0
    7.5634  -13.2211   21.4639 O   0  0  0  0  0  0  0  0  0  0  0  0
    8.9224  -17.9977   22.2356 O   0  0  0  0  0  0  0  0  0  0  0  0
    7.6485  -17.4662   22.2151 C   0  0  0  0  0  0  0  0  0  0  0  0
    7.6322  -15.9555   22.2242 C   0  0  2  0  0  0  0  0  0  0  0  0
    8.1012  -15.4247   20.9711 N   0  0  0  0  0  0  0  0  0  0  0  0
    8.3842  -15.4011   23.3794 C   0  0  0  0  0  0  0  0  0  0  0  0
    9.5755  -15.0734   23.2089 O   0  0  0  0  0  0  0  0  0  0  0  0
    5.9162  -11.8246   26.3076 C   0  0  0  0  0  0  0  0  0  0  0  0
    6.9743  -12.6481   25.6236 C   0  0  0  0  0  0  0  0  0  0  0  0
    7.5561  -13.7190   26.4784 C   0  0  2  0  0  0  0  0  0  0  0  0
    8.2428  -13.0438   27.6517 C   0  0  0  0  0  0  0  0  0  0  0  0
    8.4935  -14.6682   25.7917 C   0  0  2  0  0  0  0  0  0  0  0  0
    7.7979  -15.2371   24.6449 N   0  0  0  0  0  0  0  0  0  0  0  0
    9.1095  -15.6881   26.6451 C   0  0  0  0  0  0  0  0  0  0  0  0
   10.2716  -15.4715   27.3654 O   0  0  0  0  0  0  0  0  0  0  0  0
    8.5670  -16.8184   26.7346 O   0  0  0  0  0  0  0  0  0  0  0  0
  2  1  1  6
  2  3  1  0
  2  4  1  0
  4  5  2  0
  7  6  1  0
  8  7  1  6
  9  4  1  0
  9  8  1  0
 10 11  2  0
 10  8  1  0
 12 13  1  0
 14 16  1  0
 14 13  1  0
 14 15  1  1
 16 17  1  6
 17 10  1  0
 18 19  1  0
 18 16  1  0
 20 18  2  0
M  END
$$$$
