ASI.pdb
     RDKit          3D

 20 19  0  0  1  0  0  0  0  0999 V2000
   11.5463  -16.3201   14.8710 C   0  0  0  0  0  0  0  0  0  0  0  0
   10.1885  -16.9328   14.6377 C   0  0  2  0  0  0  0  0  0  0  0  0
    9.4632  -16.2594   13.5992 N   0  0  0  0  0  0  0  0  0  0  0  0
    9.3925  -16.9834   15.9106 C   0  0  0  0  0  0  0  0  0  0  0  0
    8.6130  -16.0432   16.1739 O   0  0  0  0  0  0  0  0  0  0  0  0
    8.2348  -19.6353   19.8708 O   0  0  0  0  0  0  0  0  0  0  0  0
    8.9314  -19.5163   18.6848 C   0  0  0  0  0  0  0  0  0  0  0  0
    8.8509  -18.1333   18.0819 C   0  0  2  0  0  0  0  0  0  0  0  0
    9.5198  -18.0836   16.8083 N   0  0  0  0  0  0  0  0  0  0  0  0
    9.3540  -17.0927   19.0153 C   0  0  0  0  0  0  0  0  0  0  0  0
   10.5677  -16.8066   18.9855 O   0  0  0  0  0  0  0  0  0  0  0  0
    6.9626  -12.3600   19.6246 C   0  0  0  0  0  0  0  0  0  0  0  0
    8.0602  -13.3889   19.6744 C   0  0  0  0  0  0  0  0  0  0  0  0
    7.9944  -14.2889   20.8584 C   0  0  2  0  0  0  0  0  0  0  0  0
    8.1592  -13.4267   22.0967 C   0  0  0  0  0  0  0  0  0  0  0  0
    8.9730  -15.4261   20.8716 C   0  0  2  0  0  0  0  0  0  0  0  0
    8.5107  -16.4289   19.9211 N   0  0  0  0  0  0  0  0  0  0  0  0
    9.2791  -15.9912   22.1888 C   0  0  0  0  0  0  0  0  0  0  0  0
    8.6778  -17.1375   22.6792 O   0  0  0  0  0  0  0  0  0  0  0  0
   10.1255  -15.4158   22.9184 O   0  0  0  0  0  0  0  0  0  0  0  0
  2  1  1  1
  2  3  1  0
  2  4  1  0
  4  5  2  0
  7  6  1  0
  8  7  1  1
  9  4  1  0
  9  8  1  0
 10 11  2  0
 10  8  1  0
 12 13  1  0
 14 16  1  0
 14 13  1  0
 14 15  1  1
 16 17  1  6
 17 10  1  0
 18 19  1  0
 18 16  1  0
 20 18  2  0
M  END
$$$$
