ASI.pdb
     RDKit          3D

 20 19  0  0  1  0  0  0  0  0999 V2000
    8.3884  -12.2378   19.0426 C   0  0  0  0  0  0  0  0  0  0  0  0
    8.5921  -13.7060   18.7660 C   0  0  2  0  0  0  0  0  0  0  0  0
    8.1610  -14.0723   17.4478 N   0  0  0  0  0  0  0  0  0  0  0  0
    7.9207  -14.5509   19.8110 C   0  0  0  0  0  0  0  0  0  0  0  0
    7.0347  -15.3579   19.4582 O   0  0  0  0  0  0  0  0  0  0  0  0
    8.2538  -17.8600   22.5016 O   0  0  0  0  0  0  0  0  0  0  0  0
    8.4199  -16.8332   21.5938 C   0  0  0  0  0  0  0  0  0  0  0  0
    8.0347  -15.4807   22.1461 C   0  0  2  0  0  0  0  0  0  0  0  0
    8.2840  -14.4385   21.1850 N   0  0  0  0  0  0  0  0  0  0  0  0
    8.6952  -15.2062   23.4482 C   0  0  0  0  0  0  0  0  0  0  0  0
    9.9348  -15.0692   23.4667 O   0  0  0  0  0  0  0  0  0  0  0  0
    5.8780  -11.8447   26.2365 C   0  0  0  0  0  0  0  0  0  0  0  0
    7.0515  -12.5914   25.6609 C   0  0  0  0  0  0  0  0  0  0  0  0
    7.5617  -13.6844   26.5333 C   0  0  2  0  0  0  0  0  0  0  0  0
    8.1591  -13.0396   27.7707 C   0  0  0  0  0  0  0  0  0  0  0  0
    8.5450  -14.6234   25.8990 C   0  0  2  0  0  0  0  0  0  0  0  0
    7.9711  -15.0977   24.6466 N   0  0  0  0  0  0  0  0  0  0  0  0
    9.0289  -15.7137   26.7505 C   0  0  0  0  0  0  0  0  0  0  0  0
    8.6351  -17.0312   26.5905 O   0  0  0  0  0  0  0  0  0  0  0  0
    9.8397  -15.4529   27.6748 O   0  0  0  0  0  0  0  0  0  0  0  0
  2  1  1  1
  2  3  1  0
  2  4  1  0
  4  5  2  0
  7  6  1  0
  8  7  1  6
  9  4  1  0
  9  8  1  0
 10 11  2  0
 10  8  1  0
 12 13  1  0
 14 16  1  0
 14 13  1  0
 14 15  1  1
 16 17  1  6
 17 10  1  0
 18 19  1  0
 18 16  1  0
 20 18  2  0
M  END
$$$$
