ASI.pdb
     RDKit          3D

 20 19  0  0  1  0  0  0  0  0999 V2000
    8.6886  -12.4560   19.2046 C   0  0  0  0  0  0  0  0  0  0  0  0
    8.3866  -13.9230   19.0306 C   0  0  2  0  0  0  0  0  0  0  0  0
    7.4989  -14.1650   17.9301 N   0  0  0  0  0  0  0  0  0  0  0  0
    7.8506  -14.5186   20.3013 C   0  0  0  0  0  0  0  0  0  0  0  0
    6.6540  -14.3233   20.6028 O   0  0  0  0  0  0  0  0  0  0  0  0
    9.8813  -17.6616   22.3478 O   0  0  0  0  0  0  0  0  0  0  0  0
    8.5275  -17.3930   22.3764 C   0  0  0  0  0  0  0  0  0  0  0  0
    8.2121  -15.9155   22.3625 C   0  0  2  0  0  0  0  0  0  0  0  0
    8.6886  -15.2953   21.1540 N   0  0  0  0  0  0  0  0  0  0  0  0
    8.7216  -15.2295   23.5778 C   0  0  0  0  0  0  0  0  0  0  0  0
    9.8971  -14.8124   23.5741 O   0  0  0  0  0  0  0  0  0  0  0  0
    5.5251  -11.8222   26.0441 C   0  0  0  0  0  0  0  0  0  0  0  0
    6.7171  -12.5716   25.5119 C   0  0  0  0  0  0  0  0  0  0  0  0
    7.3051  -13.5401   26.4775 C   0  0  2  0  0  0  0  0  0  0  0  0
    7.7857  -12.7499   27.6810 C   0  0  0  0  0  0  0  0  0  0  0  0
    8.4036  -14.4116   25.9439 C   0  0  2  0  0  0  0  0  0  0  0  0
    7.9256  -15.0393   24.7191 N   0  0  0  0  0  0  0  0  0  0  0  0
    8.9726  -15.3749   26.8906 C   0  0  0  0  0  0  0  0  0  0  0  0
   10.0658  -15.0937   27.6919 O   0  0  0  0  0  0  0  0  0  0  0  0
    8.4528  -16.5152   26.9881 O   0  0  0  0  0  0  0  0  0  0  0  0
  2  1  1  1
  2  3  1  0
  2  4  1  0
  4  5  2  0
  7  6  1  0
  8  7  1  1
  9  4  1  0
  9  8  1  0
 10 11  2  0
 10  8  1  0
 12 13  1  0
 14 16  1  0
 14 13  1  0
 14 15  1  1
 16 17  1  6
 17 10  1  0
 18 19  1  0
 18 16  1  0
 20 18  2  0
M  END
$$$$
