ASI.pdb
     RDKit          3D

 20 19  0  0  1  0  0  0  0  0999 V2000
    7.4316  -13.0178   18.4451 C   0  0  0  0  0  0  0  0  0  0  0  0
    8.6597  -13.4607   19.1996 C   0  0  2  0  0  0  0  0  0  0  0  0
    9.4858  -14.3369   18.4201 N   0  0  0  0  0  0  0  0  0  0  0  0
    8.2896  -14.0892   20.5128 C   0  0  0  0  0  0  0  0  0  0  0  0
    7.5726  -13.4473   21.3095 O   0  0  0  0  0  0  0  0  0  0  0  0
   10.1288  -17.7300   22.0042 O   0  0  0  0  0  0  0  0  0  0  0  0
    8.7655  -17.5167   22.0451 C   0  0  0  0  0  0  0  0  0  0  0  0
    8.3915  -16.0534   22.0819 C   0  0  2  0  0  0  0  0  0  0  0  0
    8.7459  -15.3969   20.8508 N   0  0  0  0  0  0  0  0  0  0  0  0
    8.9677  -15.3646   23.2654 C   0  0  0  0  0  0  0  0  0  0  0  0
   10.1458  -14.9599   23.2003 O   0  0  0  0  0  0  0  0  0  0  0  0
    5.8999  -12.4451   27.0046 C   0  0  0  0  0  0  0  0  0  0  0  0
    6.5838  -13.6338   26.3842 C   0  0  0  0  0  0  0  0  0  0  0  0
    8.0187  -13.4065   26.0591 C   0  0  2  0  0  0  0  0  0  0  0  0
    8.0775  -12.3614   24.9598 C   0  0  0  0  0  0  0  0  0  0  0  0
    8.8036  -14.6253   25.6727 C   0  0  2  0  0  0  0  0  0  0  0  0
    8.2315  -15.1583   24.4434 N   0  0  0  0  0  0  0  0  0  0  0  0
    8.9576  -15.6438   26.7152 C   0  0  0  0  0  0  0  0  0  0  0  0
    8.4981  -16.9425   26.5788 O   0  0  0  0  0  0  0  0  0  0  0  0
    9.5316  -15.3355   27.7901 O   0  0  0  0  0  0  0  0  0  0  0  0
  2  1  1  6
  2  3  1  0
  2  4  1  0
  4  5  2  0
  7  6  1  0
  8  7  1  6
  9  4  1  0
  9  8  1  0
 10 11  2  0
 10  8  1  0
 12 13  1  0
 14 16  1  0
 14 13  1  0
 14 15  1  6
 16 17  1  6
 17 10  1  0
 18 19  1  0
 18 16  1  0
 20 18  2  0
M  END
$$$$
