ASI.pdb
     RDKit          3D

 20 19  0  0  1  0  0  0  0  0999 V2000
   10.0054  -13.1766   19.0799 C   0  0  0  0  0  0  0  0  0  0  0  0
    8.6854  -13.8597   18.8263 C   0  0  2  0  0  0  0  0  0  0  0  0
    7.8206  -13.0726   17.9955 N   0  0  0  0  0  0  0  0  0  0  0  0
    8.0108  -14.2278   20.1170 C   0  0  0  0  0  0  0  0  0  0  0  0
    7.3071  -13.3733   20.6964 O   0  0  0  0  0  0  0  0  0  0  0  0
    8.6699  -18.0395   22.2363 O   0  0  0  0  0  0  0  0  0  0  0  0
    7.4502  -17.4324   22.0135 C   0  0  0  0  0  0  0  0  0  0  0  0
    7.5425  -15.9278   21.9117 C   0  0  2  0  0  0  0  0  0  0  0  0
    8.1668  -15.5294   20.6774 N   0  0  0  0  0  0  0  0  0  0  0  0
    8.2184  -15.3338   23.0939 C   0  0  0  0  0  0  0  0  0  0  0  0
    9.4352  -15.0722   23.0116 O   0  0  0  0  0  0  0  0  0  0  0  0
    7.1133  -11.1438   27.1931 C   0  0  0  0  0  0  0  0  0  0  0  0
    7.8614  -12.4296   26.9628 C   0  0  0  0  0  0  0  0  0  0  0  0
    7.3377  -13.2412   25.8300 C   0  0  2  0  0  0  0  0  0  0  0  0
    5.9163  -13.6452   26.1768 C   0  0  0  0  0  0  0  0  0  0  0  0
    8.1527  -14.4436   25.4543 C   0  0  2  0  0  0  0  0  0  0  0  0
    7.5333  -15.0611   24.2891 N   0  0  0  0  0  0  0  0  0  0  0  0
    8.4140  -15.4013   26.5325 C   0  0  0  0  0  0  0  0  0  0  0  0
    7.8941  -16.6842   26.5483 O   0  0  0  0  0  0  0  0  0  0  0  0
    9.1428  -15.0528   27.4955 O   0  0  0  0  0  0  0  0  0  0  0  0
  2  1  1  1
  2  3  1  0
  2  4  1  0
  4  5  2  0
  7  6  1  0
  8  7  1  1
  9  4  1  0
  9  8  1  0
 10 11  2  0
 10  8  1  0
 12 13  1  0
 14 16  1  0
 14 13  1  0
 14 15  1  1
 16 17  1  6
 17 10  1  0
 18 19  1  0
 18 16  1  0
 20 18  2  0
M  END
$$$$
