ASI.pdb
     RDKit          3D

 20 19  0  0  1  0  0  0  0  0999 V2000
    8.5236  -12.4186   18.9874 C   0  0  0  0  0  0  0  0  0  0  0  0
    8.4878  -13.8999   18.7082 C   0  0  2  0  0  0  0  0  0  0  0  0
    7.8243  -14.2008   17.4724 N   0  0  0  0  0  0  0  0  0  0  0  0
    7.8695  -14.6507   19.8530 C   0  0  0  0  0  0  0  0  0  0  0  0
    6.8070  -15.2792   19.6602 O   0  0  0  0  0  0  0  0  0  0  0  0
    9.5781  -17.3551   21.9478 O   0  0  0  0  0  0  0  0  0  0  0  0
    8.2571  -16.9627   21.8646 C   0  0  0  0  0  0  0  0  0  0  0  0
    8.0440  -15.5079   22.2120 C   0  0  2  0  0  0  0  0  0  0  0  0
    8.4800  -14.6503   21.1413 N   0  0  0  0  0  0  0  0  0  0  0  0
    8.6798  -15.1492   23.5060 C   0  0  0  0  0  0  0  0  0  0  0  0
    9.9163  -14.9877   23.5342 O   0  0  0  0  0  0  0  0  0  0  0  0
    5.6024  -11.8341   26.1686 C   0  0  0  0  0  0  0  0  0  0  0  0
    6.8249  -12.5123   25.6105 C   0  0  0  0  0  0  0  0  0  0  0  0
    7.4168  -13.5357   26.5152 C   0  0  2  0  0  0  0  0  0  0  0  0
    7.9553  -12.8100   27.7348 C   0  0  0  0  0  0  0  0  0  0  0  0
    8.4749  -14.4108   25.9104 C   0  0  2  0  0  0  0  0  0  0  0  0
    7.9359  -14.9883   24.6862 N   0  0  0  0  0  0  0  0  0  0  0  0
    9.0603  -15.4157   26.8022 C   0  0  0  0  0  0  0  0  0  0  0  0
    8.6770  -16.7459   26.7993 O   0  0  0  0  0  0  0  0  0  0  0  0
    9.9534  -15.0654   27.6143 O   0  0  0  0  0  0  0  0  0  0  0  0
  2  1  1  1
  2  3  1  0
  2  4  1  0
  4  5  2  0
  7  6  1  0
  8  7  1  6
  9  4  1  0
  9  8  1  0
 10 11  2  0
 10  8  1  0
 12 13  1  0
 14 16  1  0
 14 13  1  0
 14 15  1  1
 16 17  1  6
 17 10  1  0
 18 19  1  0
 18 16  1  0
 20 18  2  0
M  END
$$$$
