ASI.pdb
     RDKit          3D

 20 19  0  0  1  0  0  0  0  0999 V2000
    8.3091  -16.7560   13.3943 C   0  0  0  0  0  0  0  0  0  0  0  0
    9.2561  -16.8894   14.5601 C   0  0  2  0  0  0  0  0  0  0  0  0
   10.0549  -18.0778   14.4739 N   0  0  0  0  0  0  0  0  0  0  0  0
    8.5172  -16.8257   15.8664 C   0  0  0  0  0  0  0  0  0  0  0  0
    7.9052  -15.7780   16.1643 O   0  0  0  0  0  0  0  0  0  0  0  0
    8.8542  -19.9333   18.8953 O   0  0  0  0  0  0  0  0  0  0  0  0
    7.6634  -19.3102   18.5797 C   0  0  0  0  0  0  0  0  0  0  0  0
    7.8474  -17.9134   18.0341 C   0  0  2  0  0  0  0  0  0  0  0  0
    8.5103  -17.9393   16.7566 N   0  0  0  0  0  0  0  0  0  0  0  0
    8.5424  -17.0278   19.0035 C   0  0  0  0  0  0  0  0  0  0  0  0
    9.7758  -16.8789   18.8915 O   0  0  0  0  0  0  0  0  0  0  0  0
    7.2674  -12.0730   19.7724 C   0  0  0  0  0  0  0  0  0  0  0  0
    8.0864  -13.3352   19.8160 C   0  0  0  0  0  0  0  0  0  0  0  0
    7.8357  -14.1796   21.0161 C   0  0  2  0  0  0  0  0  0  0  0  0
    8.2357  -13.3695   22.2358 C   0  0  0  0  0  0  0  0  0  0  0  0
    8.5105  -15.5196   21.0266 C   0  0  2  0  0  0  0  0  0  0  0  0
    7.8575  -16.3603   20.0318 N   0  0  0  0  0  0  0  0  0  0  0  0
    8.6207  -16.1700   22.3353 C   0  0  0  0  0  0  0  0  0  0  0  0
    9.7368  -16.0557   23.1461 O   0  0  0  0  0  0  0  0  0  0  0  0
    7.6629  -16.8690   22.7523 O   0  0  0  0  0  0  0  0  0  0  0  0
  2  1  1  6
  2  3  1  0
  2  4  1  0
  4  5  2  0
  7  6  1  0
  8  7  1  1
  9  4  1  0
  9  8  1  0
 10 11  2  0
 10  8  1  0
 12 13  1  0
 14 16  1  0
 14 13  1  0
 14 15  1  1
 16 17  1  6
 17 10  1  0
 18 19  1  0
 18 16  1  0
 20 18  2  0
M  END
$$$$
