ASI.pdb
     RDKit          3D

 20 19  0  0  1  0  0  0  0  0999 V2000
    8.5469  -12.3230   18.9473 C   0  0  0  0  0  0  0  0  0  0  0  0
    8.5609  -13.8150   18.7294 C   0  0  2  0  0  0  0  0  0  0  0  0
    7.9387  -14.1859   17.4912 N   0  0  0  0  0  0  0  0  0  0  0  0
    7.9348  -14.5362   19.8889 C   0  0  0  0  0  0  0  0  0  0  0  0
    6.6971  -14.7064   19.8979 O   0  0  0  0  0  0  0  0  0  0  0  0
    9.7321  -17.5290   22.0630 O   0  0  0  0  0  0  0  0  0  0  0  0
    8.3979  -17.1746   22.0470 C   0  0  0  0  0  0  0  0  0  0  0  0
    8.1765  -15.6816   22.1160 C   0  0  2  0  0  0  0  0  0  0  0  0
    8.7344  -15.0214   20.9649 N   0  0  0  0  0  0  0  0  0  0  0  0
    8.6837  -15.1053   23.3879 C   0  0  0  0  0  0  0  0  0  0  0  0
    9.8603  -14.6928   23.4241 O   0  0  0  0  0  0  0  0  0  0  0  0
    5.8323  -11.6716   26.1924 C   0  0  0  0  0  0  0  0  0  0  0  0
    6.9659  -12.4769   25.6160 C   0  0  0  0  0  0  0  0  0  0  0  0
    7.3498  -13.6578   26.4372 C   0  0  2  0  0  0  0  0  0  0  0  0
    7.8146  -13.1431   27.7873 C   0  0  0  0  0  0  0  0  0  0  0  0
    8.3796  -14.5674   25.8347 C   0  0  2  0  0  0  0  0  0  0  0  0
    7.8843  -15.0125   24.5388 N   0  0  0  0  0  0  0  0  0  0  0  0
    8.8279  -15.6759   26.6821 C   0  0  0  0  0  0  0  0  0  0  0  0
    9.9118  -15.5842   27.5382 O   0  0  0  0  0  0  0  0  0  0  0  0
    8.2075  -16.7682   26.6377 O   0  0  0  0  0  0  0  0  0  0  0  0
  2  1  1  1
  2  3  1  0
  2  4  1  0
  4  5  2  0
  7  6  1  0
  8  7  1  6
  9  4  1  0
  9  8  1  0
 10 11  2  0
 10  8  1  0
 12 13  1  0
 14 16  1  0
 14 13  1  0
 14 15  1  1
 16 17  1  6
 17 10  1  0
 18 19  1  0
 18 16  1  0
 20 18  2  0
M  END
$$$$
