EKF.pdb
     RDKit          3D

 30 30  0  0  1  0  0  0  0  0999 V2000
   31.7194  -28.2104  -18.0985 N   0  0  0  0  0  0  0  0  0  0  0  0
   31.0450  -27.2344  -17.2258 C   0  0  1  0  0  0  0  0  0  0  0  0
   31.7080  -25.9074  -17.3250 C   0  0  0  0  0  0  0  0  0  0  0  0
   32.3650  -25.6416  -18.6519 C   0  0  0  0  0  0  0  0  0  0  0  0
   32.3026  -24.2319  -19.0614 C   0  0  0  0  0  0  0  0  0  0  0  0
   32.7789  -23.7210  -20.0838 O   0  0  0  0  0  0  0  0  0  0  0  0
   29.5871  -27.2249  -17.4994 C   0  0  0  0  0  0  0  0  0  0  0  0
   29.1404  -27.1982  -18.6976 O   0  0  0  0  0  0  0  0  0  0  0  0
   31.6219  -23.3559  -18.1914 O   0  0  0  0  0  0  0  0  0  0  0  0
   28.5820  -27.2427  -16.4916 N   0  0  0  0  0  0  0  0  0  0  0  0
   27.1628  -27.2766  -16.8303 C   0  0  1  0  0  0  0  0  0  0  0  0
   26.4924  -28.4950  -16.2220 C   0  0  0  0  0  0  0  0  0  0  0  0
   26.8857  -29.7616  -16.9445 C   0  0  0  0  0  0  0  0  0  0  0  0
   26.0610  -30.8931  -16.3675 C   0  0  0  0  0  0  0  0  0  0  0  0
   26.3331  -32.1894  -17.1358 C   0  0  0  0  0  0  0  0  0  0  0  0
   25.7000  -33.3128  -16.4735 N   0  0  0  0  0  0  0  0  0  0  0  0
   26.5305  -26.0245  -16.3726 C   0  0  0  0  0  0  0  0  0  0  0  0
   26.7959  -25.5903  -15.2318 O   0  0  0  0  0  0  0  0  0  0  0  0
   25.6279  -25.2882  -17.1791 N   0  0  0  0  0  0  0  0  0  0  0  0
   24.9167  -24.1188  -16.6559 C   0  0  1  0  0  0  0  0  0  0  0  0
   25.1834  -22.9582  -17.5579 C   0  0  0  0  0  0  0  0  0  0  0  0
   26.5646  -22.3930  -17.3844 C   0  0  0  0  0  0  0  0  0  0  0  0
   26.7863  -21.3676  -16.5028 C   0  0  0  0  0  0  0  0  0  0  0  0
   28.0528  -20.8643  -16.3450 C   0  0  0  0  0  0  0  0  0  0  0  0
   29.1403  -21.3439  -17.0408 C   0  0  0  0  0  0  0  0  0  0  0  0
   28.8929  -22.3818  -17.9281 C   0  0  0  0  0  0  0  0  0  0  0  0
   27.6302  -22.8954  -18.0959 C   0  0  0  0  0  0  0  0  0  0  0  0
   23.4809  -24.4500  -16.6227 C   0  0  0  0  0  0  0  0  0  0  0  0
   22.5416  -23.5923  -16.0188 O   0  0  0  0  0  0  0  0  0  0  0  0
   23.0274  -25.5004  -17.1246 O   0  0  0  0  0  0  0  0  0  0  0  0
  2  1  1  6
  2  3  1  0
  2  7  1  0
  3  4  1  0
  4  5  1  0
  5  9  1  0
  5  6  2  0
  7  8  2  0
 10  7  1  0
 10 11  1  0
 11 12  1  1
 12 13  1  0
 13 14  1  0
 15 14  1  0
 16 15  1  0
 17 19  1  0
 17 11  1  0
 18 17  2  0
 20 21  1  6
 20 19  1  0
 21 22  1  0
 22 27  2  0
 22 23  1  0
 23 24  2  0
 24 25  1  0
 26 25  2  0
 27 26  1  0
 28 20  1  0
 28 29  1  0
 30 28  2  0
M  END
$$$$
