EKF.pdb
     RDKit          3D

 30 30  0  0  1  0  0  0  0  0999 V2000
   28.5527  -20.2822  -15.1744 N   0  0  0  0  0  0  0  0  0  0  0  0
   28.5763  -19.0943  -14.3041 C   0  0  1  0  0  0  0  0  0  0  0  0
   28.6060  -17.8539  -15.1231 C   0  0  0  0  0  0  0  0  0  0  0  0
   27.5343  -17.7820  -16.1764 C   0  0  0  0  0  0  0  0  0  0  0  0
   27.8707  -18.5197  -17.4017 C   0  0  0  0  0  0  0  0  0  0  0  0
   27.3177  -19.5336  -17.8483 O   0  0  0  0  0  0  0  0  0  0  0  0
   27.4726  -19.1623  -13.3153 C   0  0  0  0  0  0  0  0  0  0  0  0
   27.2760  -18.2145  -12.4792 O   0  0  0  0  0  0  0  0  0  0  0  0
   28.9479  -18.0175  -18.1600 O   0  0  0  0  0  0  0  0  0  0  0  0
   26.5605  -20.2495  -13.2052 N   0  0  0  0  0  0  0  0  0  0  0  0
   25.5296  -20.2786  -12.1725 C   0  0  1  0  0  0  0  0  0  0  0  0
   24.2948  -21.0117  -12.6641 C   0  0  0  0  0  0  0  0  0  0  0  0
   23.1918  -20.9912  -11.6327 C   0  0  0  0  0  0  0  0  0  0  0  0
   22.0368  -21.8029  -12.1808 C   0  0  0  0  0  0  0  0  0  0  0  0
   20.7613  -20.9561  -12.2052 C   0  0  0  0  0  0  0  0  0  0  0  0
   19.6806  -21.6866  -12.8375 N   0  0  0  0  0  0  0  0  0  0  0  0
   26.0852  -20.9059  -10.9579 C   0  0  0  0  0  0  0  0  0  0  0  0
   27.1584  -21.5401  -11.0369 O   0  0  0  0  0  0  0  0  0  0  0  0
   25.4472  -20.8183   -9.6960 N   0  0  0  0  0  0  0  0  0  0  0  0
   26.1958  -20.9949   -8.4488 C   0  0  1  0  0  0  0  0  0  0  0  0
   27.2672  -19.9556   -8.3869 C   0  0  0  0  0  0  0  0  0  0  0  0
   27.9722  -19.9262   -7.0605 C   0  0  0  0  0  0  0  0  0  0  0  0
   27.6046  -19.0184   -6.1021 C   0  0  0  0  0  0  0  0  0  0  0  0
   28.2484  -19.0054   -4.8907 C   0  0  0  0  0  0  0  0  0  0  0  0
   29.2690  -19.8753   -4.5769 C   0  0  0  0  0  0  0  0  0  0  0  0
   29.6252  -20.7856   -5.5618 C   0  0  0  0  0  0  0  0  0  0  0  0
   28.9890  -20.8098   -6.7788 C   0  0  0  0  0  0  0  0  0  0  0  0
   25.2432  -20.8463   -7.3339 C   0  0  0  0  0  0  0  0  0  0  0  0
   24.0451  -20.1218   -7.4814 O   0  0  0  0  0  0  0  0  0  0  0  0
   25.4486  -21.3517   -6.2100 O   0  0  0  0  0  0  0  0  0  0  0  0
  2  1  1  6
  2  3  1  0
  2  7  1  0
  3  4  1  0
  4  5  1  0
  5  9  1  0
  5  6  2  0
  7  8  2  0
 10  7  1  0
 10 11  1  0
 11 12  1  6
 12 13  1  0
 13 14  1  0
 15 14  1  0
 16 15  1  0
 17 19  1  0
 17 11  1  0
 18 17  2  0
 20 21  1  1
 20 19  1  0
 21 22  1  0
 22 27  2  0
 22 23  1  0
 23 24  2  0
 24 25  1  0
 26 25  2  0
 27 26  1  0
 28 20  1  0
 28 29  1  0
 30 28  2  0
M  END
$$$$
