EKF.pdb
     RDKit          3D

 30 30  0  0  1  0  0  0  0  0999 V2000
   27.2513  -19.7043  -20.6306 N   0  0  0  0  0  0  0  0  0  0  0  0
   26.8594  -19.2318  -19.2919 C   0  0  1  0  0  0  0  0  0  0  0  0
   26.0967  -17.9599  -19.3954 C   0  0  0  0  0  0  0  0  0  0  0  0
   26.8939  -16.8022  -19.9314 C   0  0  0  0  0  0  0  0  0  0  0  0
   26.5571  -16.4549  -21.3188 C   0  0  0  0  0  0  0  0  0  0  0  0
   27.3371  -16.2876  -22.2657 O   0  0  0  0  0  0  0  0  0  0  0  0
   26.1686  -20.3142  -18.5491 C   0  0  0  0  0  0  0  0  0  0  0  0
   25.0227  -20.7433  -18.9215 O   0  0  0  0  0  0  0  0  0  0  0  0
   25.1871  -16.2926  -21.6095 O   0  0  0  0  0  0  0  0  0  0  0  0
   26.6949  -20.9549  -17.3922 N   0  0  0  0  0  0  0  0  0  0  0  0
   25.9592  -22.0108  -16.7038 C   0  0  1  0  0  0  0  0  0  0  0  0
   26.8929  -22.8510  -15.8517 C   0  0  0  0  0  0  0  0  0  0  0  0
   27.7048  -23.8045  -16.6958 C   0  0  0  0  0  0  0  0  0  0  0  0
   29.0594  -23.9600  -16.0368 C   0  0  0  0  0  0  0  0  0  0  0  0
   29.9988  -24.7596  -16.9440 C   0  0  0  0  0  0  0  0  0  0  0  0
   31.3318  -24.8068  -16.3764 N   0  0  0  0  0  0  0  0  0  0  0  0
   24.8884  -21.3991  -15.8934 C   0  0  0  0  0  0  0  0  0  0  0  0
   25.1459  -20.3860  -15.2096 O   0  0  0  0  0  0  0  0  0  0  0  0
   23.5701  -21.9169  -15.8582 N   0  0  0  0  0  0  0  0  0  0  0  0
   22.5146  -21.2640  -15.0794 C   0  0  1  0  0  0  0  0  0  0  0  0
   21.4892  -20.7286  -16.0247 C   0  0  0  0  0  0  0  0  0  0  0  0
   21.9757  -19.5326  -16.7930 C   0  0  0  0  0  0  0  0  0  0  0  0
   22.2891  -19.6455  -18.1222 C   0  0  0  0  0  0  0  0  0  0  0  0
   22.7240  -18.5456  -18.8173 C   0  0  0  0  0  0  0  0  0  0  0  0
   22.8669  -17.3038  -18.2390 C   0  0  0  0  0  0  0  0  0  0  0  0
   22.5444  -17.2124  -16.8924 C   0  0  0  0  0  0  0  0  0  0  0  0
   22.1077  -18.3053  -16.1845 C   0  0  0  0  0  0  0  0  0  0  0  0
   21.9340  -22.2776  -14.1804 C   0  0  0  0  0  0  0  0  0  0  0  0
   20.9564  -21.9402  -13.2250 O   0  0  0  0  0  0  0  0  0  0  0  0
   22.2770  -23.4782  -14.2198 O   0  0  0  0  0  0  0  0  0  0  0  0
  2  1  1  6
  2  3  1  0
  2  7  1  0
  3  4  1  0
  4  5  1  0
  5  9  1  0
  5  6  2  0
  7  8  2  0
 10  7  1  0
 10 11  1  0
 11 12  1  1
 12 13  1  0
 13 14  1  0
 15 14  1  0
 16 15  1  0
 17 19  1  0
 17 11  1  0
 18 17  2  0
 20 21  1  6
 20 19  1  0
 21 22  1  0
 22 27  2  0
 22 23  1  0
 23 24  2  0
 24 25  1  0
 26 25  2  0
 27 26  1  0
 28 20  1  0
 28 29  1  0
 30 28  2  0
M  END
$$$$
