EKF.pdb
     RDKit          3D

 30 30  0  0  1  0  0  0  0  0999 V2000
   14.9747  -20.6020    1.4879 N   0  0  0  0  0  0  0  0  0  0  0  0
   15.3191  -21.0160    2.8587 C   0  0  1  0  0  0  0  0  0  0  0  0
   16.3731  -22.0642    2.8327 C   0  0  0  0  0  0  0  0  0  0  0  0
   15.8900  -23.4167    2.3850 C   0  0  0  0  0  0  0  0  0  0  0  0
   15.9880  -24.4458    3.4291 C   0  0  0  0  0  0  0  0  0  0  0  0
   16.9234  -24.6337    4.2184 O   0  0  0  0  0  0  0  0  0  0  0  0
   15.6416  -19.8280    3.6864 C   0  0  0  0  0  0  0  0  0  0  0  0
   16.4523  -18.9319    3.2674 O   0  0  0  0  0  0  0  0  0  0  0  0
   14.8912  -25.3235    3.5492 O   0  0  0  0  0  0  0  0  0  0  0  0
   15.1006  -19.5809    4.9795 N   0  0  0  0  0  0  0  0  0  0  0  0
   15.3560  -18.3303    5.6870 C   0  0  1  0  0  0  0  0  0  0  0  0
   14.3204  -18.1042    6.7734 C   0  0  0  0  0  0  0  0  0  0  0  0
   14.4946  -16.7564    7.4321 C   0  0  0  0  0  0  0  0  0  0  0  0
   13.4056  -16.6118    8.4745 C   0  0  0  0  0  0  0  0  0  0  0  0
   13.4842  -15.2309    9.1317 C   0  0  0  0  0  0  0  0  0  0  0  0
   12.5799  -15.1561   10.2621 N   0  0  0  0  0  0  0  0  0  0  0  0
   16.7238  -18.3628    6.2398 C   0  0  0  0  0  0  0  0  0  0  0  0
   17.2272  -19.4619    6.5541 O   0  0  0  0  0  0  0  0  0  0  0  0
   17.4959  -17.1904    6.4306 N   0  0  0  0  0  0  0  0  0  0  0  0
   18.8261  -17.2441    7.0429 C   0  0  1  0  0  0  0  0  0  0  0  0
   19.5463  -15.9742    6.7261 C   0  0  0  0  0  0  0  0  0  0  0  0
   20.8841  -15.8806    7.4033 C   0  0  0  0  0  0  0  0  0  0  0  0
   21.7767  -16.9168    7.3171 C   0  0  0  0  0  0  0  0  0  0  0  0
   22.9993  -16.8181    7.9315 C   0  0  0  0  0  0  0  0  0  0  0  0
   23.3888  -15.7083    8.6481 C   0  0  0  0  0  0  0  0  0  0  0  0
   22.4696  -14.6714    8.7227 C   0  0  0  0  0  0  0  0  0  0  0  0
   21.2422  -14.7567    8.1123 C   0  0  0  0  0  0  0  0  0  0  0  0
   18.6400  -17.4038    8.4963 C   0  0  0  0  0  0  0  0  0  0  0  0
   17.7607  -16.5767    9.2209 O   0  0  0  0  0  0  0  0  0  0  0  0
   19.2482  -18.2744    9.1544 O   0  0  0  0  0  0  0  0  0  0  0  0
  2  1  1  6
  2  3  1  0
  2  7  1  0
  3  4  1  0
  4  5  1  0
  5  9  1  0
  5  6  2  0
  7  8  2  0
 10  7  1  0
 10 11  1  0
 11 12  1  1
 12 13  1  0
 13 14  1  0
 15 14  1  0
 16 15  1  0
 17 19  1  0
 17 11  1  0
 18 17  2  0
 20 21  1  1
 20 19  1  0
 21 22  1  0
 22 27  2  0
 22 23  1  0
 23 24  2  0
 24 25  1  0
 26 25  2  0
 27 26  1  0
 28 20  1  0
 28 29  1  0
 30 28  2  0
M  END
$$$$
