EKF.pdb
     RDKit          3D

 30 30  0  0  1  0  0  0  0  0999 V2000
   21.0134  -14.3267  -19.5214 N   0  0  0  0  0  0  0  0  0  0  0  0
   20.7381  -13.9476  -18.1251 C   0  0  1  0  0  0  0  0  0  0  0  0
   21.7978  -14.4775  -17.2271 C   0  0  0  0  0  0  0  0  0  0  0  0
   21.8616  -15.9792  -17.1639 C   0  0  0  0  0  0  0  0  0  0  0  0
   22.9306  -16.4811  -16.2898 C   0  0  0  0  0  0  0  0  0  0  0  0
   23.8199  -15.8247  -15.7315 O   0  0  0  0  0  0  0  0  0  0  0  0
   20.5117  -12.4849  -18.0270 C   0  0  0  0  0  0  0  0  0  0  0  0
   21.3174  -11.6542  -18.5718 O   0  0  0  0  0  0  0  0  0  0  0  0
   22.9493  -17.8715  -16.0572 O   0  0  0  0  0  0  0  0  0  0  0  0
   19.4170  -11.8872  -17.3413 N   0  0  0  0  0  0  0  0  0  0  0  0
   19.2297  -10.4400  -17.3186 C   0  0  1  0  0  0  0  0  0  0  0  0
   17.7614  -10.0841  -17.4646 C   0  0  0  0  0  0  0  0  0  0  0  0
   17.5597   -8.5897  -17.5474 C   0  0  0  0  0  0  0  0  0  0  0  0
   16.0734   -8.3349  -17.6860 C   0  0  0  0  0  0  0  0  0  0  0  0
   15.8057   -6.8333  -17.8213 C   0  0  0  0  0  0  0  0  0  0  0  0
   14.3853   -6.5833  -17.9667 N   0  0  0  0  0  0  0  0  0  0  0  0
   19.7961   -9.9027  -16.0665 C   0  0  0  0  0  0  0  0  0  0  0  0
   19.5048  -10.4506  -14.9824 O   0  0  0  0  0  0  0  0  0  0  0  0
   20.6633   -8.7826  -16.0421 N   0  0  0  0  0  0  0  0  0  0  0  0
   21.1581   -8.2281  -14.7793 C   0  0  1  0  0  0  0  0  0  0  0  0
   22.6510   -8.2829  -14.7893 C   0  0  0  0  0  0  0  0  0  0  0  0
   23.1807   -9.6888  -14.7975 C   0  0  0  0  0  0  0  0  0  0  0  0
   23.1082  -10.4616  -13.6682 C   0  0  0  0  0  0  0  0  0  0  0  0
   23.5866  -11.7472  -13.6883 C   0  0  0  0  0  0  0  0  0  0  0  0
   24.1497  -12.3182  -14.8080 C   0  0  0  0  0  0  0  0  0  0  0  0
   24.2133  -11.5179  -15.9399 C   0  0  0  0  0  0  0  0  0  0  0  0
   23.7380  -10.2293  -15.9339 C   0  0  0  0  0  0  0  0  0  0  0  0
   20.6756   -6.8386  -14.6847 C   0  0  0  0  0  0  0  0  0  0  0  0
   19.9373   -6.2436  -15.7255 O   0  0  0  0  0  0  0  0  0  0  0  0
   20.8954   -6.1234  -13.6843 O   0  0  0  0  0  0  0  0  0  0  0  0
  2  1  1  6
  2  3  1  0
  2  7  1  0
  3  4  1  0
  4  5  1  0
  5  9  1  0
  5  6  2  0
  7  8  2  0
 10  7  1  0
 10 11  1  0
 11 12  1  1
 12 13  1  0
 13 14  1  0
 15 14  1  0
 16 15  1  0
 17 19  1  0
 17 11  1  0
 18 17  2  0
 20 21  1  6
 20 19  1  0
 21 22  1  0
 22 27  2  0
 22 23  1  0
 23 24  2  0
 24 25  1  0
 26 25  2  0
 27 26  1  0
 28 20  1  0
 28 29  1  0
 30 28  2  0
M  END
$$$$
