EKF.pdb
     RDKit          3D

 30 30  0  0  1  0  0  0  0  0999 V2000
   20.6662  -18.4499  -16.5566 N   0  0  0  0  0  0  0  0  0  0  0  0
   21.8859  -17.8195  -16.0237 C   0  0  1  0  0  0  0  0  0  0  0  0
   21.5357  -16.7979  -15.0019 C   0  0  0  0  0  0  0  0  0  0  0  0
   20.6338  -15.7038  -15.5045 C   0  0  0  0  0  0  0  0  0  0  0  0
   21.2330  -14.9024  -16.5803 C   0  0  0  0  0  0  0  0  0  0  0  0
   20.7496  -14.6489  -17.6917 O   0  0  0  0  0  0  0  0  0  0  0  0
   22.8404  -18.8582  -15.5651 C   0  0  0  0  0  0  0  0  0  0  0  0
   22.4390  -19.8805  -14.9095 O   0  0  0  0  0  0  0  0  0  0  0  0
   22.5069  -14.3569  -16.3207 O   0  0  0  0  0  0  0  0  0  0  0  0
   24.2436  -18.8180  -15.8009 N   0  0  0  0  0  0  0  0  0  0  0  0
   25.1221  -19.8974  -15.3617 C   0  0  1  0  0  0  0  0  0  0  0  0
   26.3904  -19.9330  -16.1948 C   0  0  0  0  0  0  0  0  0  0  0  0
   27.0584  -21.2859  -16.1284 C   0  0  0  0  0  0  0  0  0  0  0  0
   28.2183  -21.2724  -17.1019 C   0  0  0  0  0  0  0  0  0  0  0  0
   28.9299  -22.6283  -17.0938 C   0  0  0  0  0  0  0  0  0  0  0  0
   30.0869  -22.5980  -17.9665 N   0  0  0  0  0  0  0  0  0  0  0  0
   25.4201  -19.7198  -13.9275 C   0  0  0  0  0  0  0  0  0  0  0  0
   25.4793  -18.5642  -13.4568 O   0  0  0  0  0  0  0  0  0  0  0  0
   25.6436  -20.8134  -13.0551 N   0  0  0  0  0  0  0  0  0  0  0  0
   26.1472  -20.6129  -11.6938 C   0  0  1  0  0  0  0  0  0  0  0  0
   25.1518  -19.7976  -10.9346 C   0  0  0  0  0  0  0  0  0  0  0  0
   25.5002  -19.6628   -9.4794 C   0  0  0  0  0  0  0  0  0  0  0  0
   25.0347  -20.5758   -8.5696 C   0  0  0  0  0  0  0  0  0  0  0  0
   25.3656  -20.4491   -7.2443 C   0  0  0  0  0  0  0  0  0  0  0  0
   26.1590  -19.4301   -6.7656 C   0  0  0  0  0  0  0  0  0  0  0  0
   26.6189  -18.5170   -7.7040 C   0  0  0  0  0  0  0  0  0  0  0  0
   26.2955  -18.6319   -9.0338 C   0  0  0  0  0  0  0  0  0  0  0  0
   26.3230  -21.9435  -11.0845 C   0  0  0  0  0  0  0  0  0  0  0  0
   25.6025  -23.0633  -11.5421 O   0  0  0  0  0  0  0  0  0  0  0  0
   27.1139  -22.1441  -10.1385 O   0  0  0  0  0  0  0  0  0  0  0  0
  2  1  1  1
  2  3  1  0
  2  7  1  0
  3  4  1  0
  4  5  1  0
  5  9  1  0
  5  6  2  0
  7  8  2  0
 10  7  1  0
 10 11  1  0
 11 12  1  6
 12 13  1  0
 13 14  1  0
 15 14  1  0
 16 15  1  0
 17 19  1  0
 17 11  1  0
 18 17  2  0
 20 21  1  1
 20 19  1  0
 21 22  1  0
 22 27  2  0
 22 23  1  0
 23 24  2  0
 24 25  1  0
 26 25  2  0
 27 26  1  0
 28 20  1  0
 28 29  1  0
 30 28  2  0
M  END
$$$$
