MPL.pdb
     RDKit          3D

 24 24  0  0  1  0  0  0  0  0999 V2000
    7.5052  -11.6873   27.3089 C   0  0  0  0  0  0  0  0  0  0  0  0
    6.2323  -12.0207   26.0720 S   0  0  0  0  0  0  0  0  0  0  0  0
    5.3977  -13.6068   26.5070 C   0  0  0  0  0  0  0  0  0  0  0  0
    6.3303  -14.7529   26.3395 C   0  0  0  0  0  0  0  0  0  0  0  0
    6.0047  -15.6058   25.1599 C   0  0  2  0  0  0  0  0  0  0  0  0
    5.0583  -16.6592   25.5091 N   0  0  0  0  0  0  0  0  0  0  0  0
    7.1257  -16.1757   24.4204 C   0  0  0  0  0  0  0  0  0  0  0  0
    7.2354  -17.4478   24.4512 O   0  0  0  0  0  0  0  0  0  0  0  0
    8.1006  -15.4717   23.6758 N   0  0  0  0  0  0  0  0  0  0  0  0
    8.2548  -14.1067   23.2857 C   0  0  0  0  0  0  0  0  0  0  0  0
    8.7142  -14.2477   21.8262 C   0  0  0  0  0  0  0  0  0  0  0  0
    9.3590  -15.5877   21.7016 C   0  0  0  0  0  0  0  0  0  0  0  0
    9.2979  -16.1135   23.0978 C   0  0  1  0  0  0  0  0  0  0  0  0
   10.5091  -15.7762   23.9068 C   0  0  0  0  0  0  0  0  0  0  0  0
   11.2812  -14.8548   23.6124 O   0  0  0  0  0  0  0  0  0  0  0  0
   10.6171  -13.4464   26.8785 C   0  0  0  0  0  0  0  0  0  0  0  0
   10.0432  -14.7477   27.3480 C   0  0  2  0  0  0  0  0  0  0  0  0
    9.2215  -14.6424   28.6014 C   0  0  0  0  0  0  0  0  0  0  0  0
   10.9487  -15.9096   27.3000 C   0  0  0  0  0  0  0  0  0  0  0  0
   11.7210  -16.1971   26.0782 C   0  0  2  0  0  0  0  0  0  0  0  0
   10.7433  -16.5731   25.0517 N   0  0  0  0  0  0  0  0  0  0  0  0
   12.7403  -17.2363   26.1186 C   0  0  0  0  0  0  0  0  0  0  0  0
   13.8867  -16.9696   26.6054 O   0  0  0  0  0  0  0  0  0  0  0  0
   12.6076  -18.5442   25.6732 O   0  0  0  0  0  0  0  0  0  0  0  0
  1  2  1  0
  3  2  1  0
  4  3  1  0
  5  6  1  1
  5  4  1  0
  7  5  1  0
  8  7  2  0
  9 10  1  0
  9  7  1  0
 11 10  1  0
 12 13  1  0
 12 11  1  0
 13  9  1  0
 13 14  1  1
 14 15  2  0
 17 16  1  1
 18 17  1  0
 19 17  1  0
 20 19  1  1
 20 21  1  0
 21 14  1  0
 22 24  1  0
 22 20  1  0
 23 22  2  0
M  END
$$$$
