MPL.pdb
     RDKit          3D

 24 24  0  0  1  0  0  0  0  0999 V2000
    5.6528  -17.5539   26.5330 C   0  0  0  0  0  0  0  0  0  0  0  0
    6.1738  -19.2609   26.2570 S   0  0  0  0  0  0  0  0  0  0  0  0
    6.7288  -19.4252   24.5058 C   0  0  0  0  0  0  0  0  0  0  0  0
    5.8343  -18.6585   23.5984 C   0  0  0  0  0  0  0  0  0  0  0  0
    6.3900  -18.5014   22.2230 C   0  0  2  0  0  0  0  0  0  0  0  0
    6.7577  -19.7897   21.6466 N   0  0  0  0  0  0  0  0  0  0  0  0
    7.4860  -17.5539   22.0518 C   0  0  0  0  0  0  0  0  0  0  0  0
    8.6310  -18.0551   21.7889 O   0  0  0  0  0  0  0  0  0  0  0  0
    7.4158  -16.1445   22.1458 N   0  0  0  0  0  0  0  0  0  0  0  0
    6.3994  -15.2277   22.5533 C   0  0  0  0  0  0  0  0  0  0  0  0
    6.5177  -14.1321   21.4825 C   0  0  0  0  0  0  0  0  0  0  0  0
    7.9144  -14.1851   20.9596 C   0  0  0  0  0  0  0  0  0  0  0  0
    8.5390  -15.2522   21.7968 C   0  0  1  0  0  0  0  0  0  0  0  0
    9.1865  -14.7238   23.0364 C   0  0  0  0  0  0  0  0  0  0  0  0
   10.1713  -13.9744   23.0156 O   0  0  0  0  0  0  0  0  0  0  0  0
    7.2477  -12.1423   25.5702 C   0  0  0  0  0  0  0  0  0  0  0  0
    6.8382  -13.5308   25.9542 C   0  0  2  0  0  0  0  0  0  0  0  0
    5.5851  -13.5975   26.7803 C   0  0  0  0  0  0  0  0  0  0  0  0
    7.9210  -14.4245   26.4029 C   0  0  0  0  0  0  0  0  0  0  0  0
    9.1087  -14.6328   25.5556 C   0  0  2  0  0  0  0  0  0  0  0  0
    8.6136  -15.1250   24.2658 N   0  0  0  0  0  0  0  0  0  0  0  0
   10.1446  -15.5499   26.0099 C   0  0  0  0  0  0  0  0  0  0  0  0
   10.8052  -15.2752   27.0636 O   0  0  0  0  0  0  0  0  0  0  0  0
   10.5150  -16.7445   25.4078 O   0  0  0  0  0  0  0  0  0  0  0  0
  1  2  1  0
  3  2  1  0
  4  3  1  0
  5  6  1  1
  5  4  1  0
  7  5  1  0
  8  7  2  0
  9 10  1  0
  9  7  1  0
 11 10  1  0
 12 13  1  0
 12 11  1  0
 13  9  1  0
 13 14  1  1
 14 15  2  0
 17 16  1  1
 18 17  1  0
 19 17  1  0
 20 19  1  1
 20 21  1  0
 21 14  1  0
 22 24  1  0
 22 20  1  0
 23 22  2  0
M  END
$$$$
