MPL.pdb
     RDKit          3D

 24 24  0  0  1  0  0  0  0  0999 V2000
    4.5074  -11.9038   25.7135 C   0  0  0  0  0  0  0  0  0  0  0  0
    5.9473  -12.7212   26.4346 S   0  0  0  0  0  0  0  0  0  0  0  0
    6.5139  -14.0363   25.2723 C   0  0  0  0  0  0  0  0  0  0  0  0
    5.7209  -15.2800   25.4610 C   0  0  0  0  0  0  0  0  0  0  0  0
    6.0219  -16.3272   24.4424 C   0  0  2  0  0  0  0  0  0  0  0  0
    5.3233  -17.5733   24.7368 N   0  0  0  0  0  0  0  0  0  0  0  0
    7.4276  -16.6036   24.1666 C   0  0  0  0  0  0  0  0  0  0  0  0
    7.8361  -17.7828   24.4384 O   0  0  0  0  0  0  0  0  0  0  0  0
    8.3827  -15.7077   23.6323 N   0  0  0  0  0  0  0  0  0  0  0  0
    8.4074  -14.2956   23.4206 C   0  0  0  0  0  0  0  0  0  0  0  0
    9.0375  -14.1992   22.0225 C   0  0  0  0  0  0  0  0  0  0  0  0
    9.8540  -15.4331   21.8282 C   0  0  0  0  0  0  0  0  0  0  0  0
    9.7066  -16.1350   23.1379 C   0  0  1  0  0  0  0  0  0  0  0  0
   10.7706  -15.7710   24.1232 C   0  0  0  0  0  0  0  0  0  0  0  0
   11.3590  -14.6823   24.1085 O   0  0  0  0  0  0  0  0  0  0  0  0
   11.6429  -14.1613   28.5240 C   0  0  0  0  0  0  0  0  0  0  0  0
   10.6036  -14.1270   27.4461 C   0  0  2  0  0  0  0  0  0  0  0  0
    9.4394  -13.2244   27.7411 C   0  0  0  0  0  0  0  0  0  0  0  0
   10.2414  -15.4273   26.8542 C   0  0  0  0  0  0  0  0  0  0  0  0
   11.2911  -16.4023   26.5089 C   0  0  2  0  0  0  0  0  0  0  0  0
   11.0859  -16.7462   25.0979 N   0  0  0  0  0  0  0  0  0  0  0  0
   11.3691  -17.6475   27.2599 C   0  0  0  0  0  0  0  0  0  0  0  0
   10.6454  -18.6354   26.9099 O   0  0  0  0  0  0  0  0  0  0  0  0
   12.1760  -17.9017   28.3602 O   0  0  0  0  0  0  0  0  0  0  0  0
  1  2  1  0
  3  2  1  0
  4  3  1  0
  5  6  1  1
  5  4  1  0
  7  5  1  0
  8  7  2  0
  9 10  1  0
  9  7  1  0
 11 10  1  0
 12 13  1  0
 12 11  1  0
 13  9  1  0
 13 14  1  1
 14 15  2  0
 17 16  1  1
 18 17  1  0
 19 17  1  0
 20 19  1  1
 20 21  1  0
 21 14  1  0
 22 24  1  0
 22 20  1  0
 23 22  2  0
M  END
$$$$
