MPL.pdb
     RDKit          3D

 24 24  0  0  1  0  0  0  0  0999 V2000
    5.9614  -12.4155   24.9377 C   0  0  0  0  0  0  0  0  0  0  0  0
    6.2622  -13.4249   26.4047 S   0  0  0  0  0  0  0  0  0  0  0  0
    6.6005  -15.1550   25.8626 C   0  0  0  0  0  0  0  0  0  0  0  0
    5.9013  -15.4498   24.5838 C   0  0  0  0  0  0  0  0  0  0  0  0
    6.2903  -16.7627   23.9923 C   0  0  2  0  0  0  0  0  0  0  0  0
    5.6625  -17.8728   24.6999 N   0  0  0  0  0  0  0  0  0  0  0  0
    7.7165  -17.0243   23.8314 C   0  0  0  0  0  0  0  0  0  0  0  0
    8.0871  -18.2393   23.9638 O   0  0  0  0  0  0  0  0  0  0  0  0
    8.7288  -16.0788   23.5456 N   0  0  0  0  0  0  0  0  0  0  0  0
    8.7448  -14.6587   23.3959 C   0  0  0  0  0  0  0  0  0  0  0  0
    9.6520  -14.4830   22.1682 C   0  0  0  0  0  0  0  0  0  0  0  0
   10.5366  -15.6833   22.1067 C   0  0  0  0  0  0  0  0  0  0  0  0
   10.1422  -16.4457   23.3286 C   0  0  1  0  0  0  0  0  0  0  0  0
   10.9598  -16.0948   24.5301 C   0  0  0  0  0  0  0  0  0  0  0  0
   11.6520  -15.0712   24.5989 O   0  0  0  0  0  0  0  0  0  0  0  0
   10.8904  -13.9064   28.8277 C   0  0  0  0  0  0  0  0  0  0  0  0
   10.2100  -14.2079   27.5280 C   0  0  2  0  0  0  0  0  0  0  0  0
    9.0832  -13.2731   27.1909 C   0  0  0  0  0  0  0  0  0  0  0  0
    9.9338  -15.6300   27.2563 C   0  0  0  0  0  0  0  0  0  0  0  0
   11.0445  -16.5658   27.0064 C   0  0  2  0  0  0  0  0  0  0  0  0
   10.9090  -17.0033   25.6131 N   0  0  0  0  0  0  0  0  0  0  0  0
   11.1593  -17.7583   27.8343 C   0  0  0  0  0  0  0  0  0  0  0  0
   11.4700  -17.6388   29.0636 O   0  0  0  0  0  0  0  0  0  0  0  0
   10.9589  -19.0705   27.4285 O   0  0  0  0  0  0  0  0  0  0  0  0
  1  2  1  0
  3  2  1  0
  4  3  1  0
  5  6  1  1
  5  4  1  0
  7  5  1  0
  8  7  2  0
  9 10  1  0
  9  7  1  0
 11 10  1  0
 12 13  1  0
 12 11  1  0
 13  9  1  0
 13 14  1  1
 14 15  2  0
 17 16  1  1
 18 17  1  0
 19 17  1  0
 20 19  1  1
 20 21  1  0
 21 14  1  0
 22 24  1  0
 22 20  1  0
 23 22  2  0
M  END
$$$$
