MPL.pdb
     RDKit          3D

 24 24  0  0  1  0  0  0  0  0999 V2000
   10.6738  -21.1973   22.9482 C   0  0  0  0  0  0  0  0  0  0  0  0
   12.2790  -20.9315   22.1646 S   0  0  0  0  0  0  0  0  0  0  0  0
   12.3945  -19.1619   21.6578 C   0  0  0  0  0  0  0  0  0  0  0  0
   11.3864  -18.8498   20.6102 C   0  0  0  0  0  0  0  0  0  0  0  0
   11.3077  -17.3957   20.2872 C   0  0  2  0  0  0  0  0  0  0  0  0
   12.5656  -16.9034   19.7369 N   0  0  0  0  0  0  0  0  0  0  0  0
   10.8495  -16.5022   21.3455 C   0  0  0  0  0  0  0  0  0  0  0  0
   11.7173  -15.6925   21.8173 O   0  0  0  0  0  0  0  0  0  0  0  0
    9.5512  -16.4376   21.9027 N   0  0  0  0  0  0  0  0  0  0  0  0
    8.3406  -17.1622   21.6817 C   0  0  0  0  0  0  0  0  0  0  0  0
    7.2951  -16.0363   21.6908 C   0  0  0  0  0  0  0  0  0  0  0  0
    7.8676  -14.9187   22.4971 C   0  0  0  0  0  0  0  0  0  0  0  0
    9.1705  -15.4815   22.9613 C   0  0  1  0  0  0  0  0  0  0  0  0
    9.0733  -16.1790   24.2801 C   0  0  0  0  0  0  0  0  0  0  0  0
    8.9762  -17.4082   24.3870 O   0  0  0  0  0  0  0  0  0  0  0  0
   11.3836  -14.7526   28.5872 C   0  0  0  0  0  0  0  0  0  0  0  0
   10.2290  -13.9804   28.0269 C   0  0  2  0  0  0  0  0  0  0  0  0
    9.9660  -12.6745   28.7215 C   0  0  0  0  0  0  0  0  0  0  0  0
    9.0216  -14.7625   27.7062 C   0  0  0  0  0  0  0  0  0  0  0  0
    9.1058  -15.9120   26.7878 C   0  0  2  0  0  0  0  0  0  0  0  0
    9.0975  -15.3564   25.4304 N   0  0  0  0  0  0  0  0  0  0  0  0
    8.0755  -16.9393   26.8504 C   0  0  0  0  0  0  0  0  0  0  0  0
    6.9651  -16.7486   26.2564 O   0  0  0  0  0  0  0  0  0  0  0  0
    8.1614  -18.1592   27.5068 O   0  0  0  0  0  0  0  0  0  0  0  0
  1  2  1  0
  3  2  1  0
  4  3  1  0
  5  6  1  1
  5  4  1  0
  7  5  1  0
  8  7  2  0
  9 10  1  0
  9  7  1  0
 11 10  1  0
 12 13  1  0
 12 11  1  0
 13  9  1  0
 13 14  1  1
 14 15  2  0
 17 16  1  1
 18 17  1  0
 19 17  1  0
 20 19  1  1
 20 21  1  0
 21 14  1  0
 22 24  1  0
 22 20  1  0
 23 22  2  0
M  END
$$$$
