MPL.pdb
     RDKit          3D

 24 24  0  0  1  0  0  0  0  0999 V2000
    5.9133  -12.9339   25.5777 C   0  0  0  0  0  0  0  0  0  0  0  0
    5.5675  -14.3124   26.6921 S   0  0  0  0  0  0  0  0  0  0  0  0
    6.1824  -15.8644   25.9080 C   0  0  0  0  0  0  0  0  0  0  0  0
    5.4359  -16.1495   24.6539 C   0  0  0  0  0  0  0  0  0  0  0  0
    6.0105  -17.2844   23.8750 C   0  0  2  0  0  0  0  0  0  0  0  0
    5.7226  -18.5658   24.5092 N   0  0  0  0  0  0  0  0  0  0  0  0
    7.4275  -17.2095   23.5359 C   0  0  0  0  0  0  0  0  0  0  0  0
    8.0669  -18.3151   23.5306 O   0  0  0  0  0  0  0  0  0  0  0  0
    8.1657  -16.0470   23.2138 N   0  0  0  0  0  0  0  0  0  0  0  0
    7.8972  -14.6470   23.2992 C   0  0  0  0  0  0  0  0  0  0  0  0
    8.4565  -14.1382   21.9615 C   0  0  0  0  0  0  0  0  0  0  0  0
    9.5012  -15.1122   21.5292 C   0  0  0  0  0  0  0  0  0  0  0  0
    9.5350  -16.0835   22.6629 C   0  0  1  0  0  0  0  0  0  0  0  0
   10.5291  -15.7204   23.7190 C   0  0  0  0  0  0  0  0  0  0  0  0
   11.4100  -14.8675   23.5508 O   0  0  0  0  0  0  0  0  0  0  0  0
    9.0300  -13.0564   27.2084 C   0  0  0  0  0  0  0  0  0  0  0  0
    9.8161  -14.3112   27.4329 C   0  0  2  0  0  0  0  0  0  0  0  0
   10.2520  -14.5192   28.8556 C   0  0  0  0  0  0  0  0  0  0  0  0
   10.8426  -14.6220   26.4218 C   0  0  0  0  0  0  0  0  0  0  0  0
   11.1969  -16.0228   26.1321 C   0  0  2  0  0  0  0  0  0  0  0  0
   10.4195  -16.4086   24.9498 N   0  0  0  0  0  0  0  0  0  0  0  0
   10.9710  -17.0320   27.1575 C   0  0  0  0  0  0  0  0  0  0  0  0
   11.7138  -17.0500   28.1919 O   0  0  0  0  0  0  0  0  0  0  0  0
    9.9971  -18.0209   27.1456 O   0  0  0  0  0  0  0  0  0  0  0  0
  1  2  1  0
  3  2  1  0
  4  3  1  0
  5  6  1  1
  5  4  1  0
  7  5  1  0
  8  7  2  0
  9 10  1  0
  9  7  1  0
 11 10  1  0
 12 13  1  0
 12 11  1  0
 13  9  1  0
 13 14  1  1
 14 15  2  0
 17 16  1  1
 18 17  1  0
 19 17  1  0
 20 19  1  1
 20 21  1  0
 21 14  1  0
 22 24  1  0
 22 20  1  0
 23 22  2  0
M  END
$$$$
