MPL.pdb
     RDKit          3D

 24 24  0  0  1  0  0  0  0  0999 V2000
    8.0202  -12.1698   18.3900 C   0  0  0  0  0  0  0  0  0  0  0  0
    7.8922  -12.2022   20.1911 S   0  0  0  0  0  0  0  0  0  0  0  0
    8.1190  -13.9417   20.7605 C   0  0  0  0  0  0  0  0  0  0  0  0
    6.9010  -14.7477   20.4812 C   0  0  0  0  0  0  0  0  0  0  0  0
    7.0537  -16.1860   20.8458 C   0  0  2  0  0  0  0  0  0  0  0  0
    5.8316  -16.9360   20.5789 N   0  0  0  0  0  0  0  0  0  0  0  0
    7.5314  -16.4849   22.1915 C   0  0  0  0  0  0  0  0  0  0  0  0
    6.6351  -16.7159   23.0715 O   0  0  0  0  0  0  0  0  0  0  0  0
    8.8767  -16.5456   22.6236 N   0  0  0  0  0  0  0  0  0  0  0  0
   10.1269  -16.2050   22.0234 C   0  0  0  0  0  0  0  0  0  0  0  0
   11.0074  -17.3946   22.4361 C   0  0  0  0  0  0  0  0  0  0  0  0
   10.4161  -17.9600   23.6841 C   0  0  0  0  0  0  0  0  0  0  0  0
    9.2777  -17.0333   23.9582 C   0  0  1  0  0  0  0  0  0  0  0  0
    9.6530  -15.8851   24.8391 C   0  0  0  0  0  0  0  0  0  0  0  0
   10.2641  -14.8909   24.4269 O   0  0  0  0  0  0  0  0  0  0  0  0
    8.2213  -12.2004   26.2604 C   0  0  0  0  0  0  0  0  0  0  0  0
    7.4174  -13.4095   26.6277 C   0  0  2  0  0  0  0  0  0  0  0  0
    5.9970  -13.1106   27.0153 C   0  0  0  0  0  0  0  0  0  0  0  0
    8.0940  -14.4019   27.4820 C   0  0  0  0  0  0  0  0  0  0  0  0
    9.4477  -14.8735   27.1403 C   0  0  2  0  0  0  0  0  0  0  0  0
    9.2718  -15.9833   26.1976 N   0  0  0  0  0  0  0  0  0  0  0  0
   10.3219  -15.3365   28.2089 C   0  0  0  0  0  0  0  0  0  0  0  0
   10.9452  -14.4839   28.9209 O   0  0  0  0  0  0  0  0  0  0  0  0
   10.5678  -16.6554   28.5648 O   0  0  0  0  0  0  0  0  0  0  0  0
  1  2  1  0
  3  2  1  0
  4  3  1  0
  5  6  1  1
  5  4  1  0
  7  5  1  0
  8  7  2  0
  9 10  1  0
  9  7  1  0
 11 10  1  0
 12 13  1  0
 12 11  1  0
 13  9  1  0
 13 14  1  1
 14 15  2  0
 17 16  1  1
 18 17  1  0
 19 17  1  0
 20 19  1  1
 20 21  1  0
 21 14  1  0
 22 24  1  0
 22 20  1  0
 23 22  2  0
M  END
$$$$
