FDL.pdb
     RDKit          3D

 28 28  0  0  1  0  0  0  0  0999 V2000
    7.6781  -16.6092   25.4058 N   0  0  0  0  0  0  0  0  0  0  0  0
    7.1684  -17.2196   24.2028 C   0  0  1  0  0  0  0  0  0  0  0  0
    6.2399  -16.2123   23.5274 C   0  0  0  0  0  0  0  0  0  0  0  0
    6.5033  -14.8328   24.0172 C   0  0  0  0  0  0  0  0  0  0  0  0
    5.9949  -14.4834   25.2546 C   0  0  0  0  0  0  0  0  0  0  0  0
    6.2216  -13.2143   25.7356 C   0  0  0  0  0  0  0  0  0  0  0  0
    6.9521  -12.3418   24.9535 C   0  0  0  0  0  0  0  0  0  0  0  0
    7.4585  -12.6924   23.7193 C   0  0  0  0  0  0  0  0  0  0  0  0
    7.2304  -13.9630   23.2399 C   0  0  0  0  0  0  0  0  0  0  0  0
    8.2948  -17.4404   23.2420 C   0  0  0  0  0  0  0  0  0  0  0  0
    8.3143  -18.4577   22.5284 O   0  0  0  0  0  0  0  0  0  0  0  0
    9.3516  -16.4955   23.1328 N   0  0  0  0  0  0  0  0  0  0  0  0
   10.7075  -16.9567   23.2300 C   0  0  1  0  0  0  0  0  0  0  0  0
   11.5993  -16.0942   22.3894 C   0  0  0  0  0  0  0  0  0  0  0  0
   11.5535  -16.3840   20.9510 C   0  0  0  0  0  0  0  0  0  0  0  0
   12.0094  -15.6489   20.0394 O   0  0  0  0  0  0  0  0  0  0  0  0
   11.1906  -16.9035   24.6444 C   0  0  0  0  0  0  0  0  0  0  0  0
   12.3517  -17.2818   24.9416 O   0  0  0  0  0  0  0  0  0  0  0  0
   10.9470  -17.5862   20.5719 O   0  0  0  0  0  0  0  0  0  0  0  0
    9.3747  -14.1351   29.9478 C   0  0  0  0  0  0  0  0  0  0  0  0
   10.3611  -14.8951   29.1572 C   0  0  2  0  0  0  0  0  0  0  0  0
   11.7235  -14.1563   29.3035 C   0  0  0  0  0  0  0  0  0  0  0  0
   10.1534  -15.1864   27.7480 C   0  0  0  0  0  0  0  0  0  0  0  0
   10.9219  -16.2344   27.0568 C   0  0  2  0  0  0  0  0  0  0  0  0
   10.3803  -16.4335   25.6990 N   0  0  0  0  0  0  0  0  0  0  0  0
   10.8447  -17.5454   27.6940 C   0  0  0  0  0  0  0  0  0  0  0  0
   11.6678  -18.0446   28.4870 O   0  0  0  0  0  0  0  0  0  0  0  0
    9.7380  -18.3746   27.4151 O   0  0  0  0  0  0  0  0  0  0  0  0
  2  1  1  1
  3  2  1  0
  4  3  1  0
  4  9  2  0
  5  4  1  0
  6  5  2  0
  6  7  1  0
  7  8  2  0
  8  9  1  0
 10 11  2  0
 10  2  1  0
 12 10  1  0
 13 17  1  0
 13 12  1  0
 13 14  1  6
 15 14  1  0
 15 16  2  0
 17 18  2  0
 19 15  1  0
 21 20  1  6
 22 21  1  0
 23 21  1  0
 24 23  1  1
 25 24  1  0
 25 17  1  0
 26 28  1  0
 26 24  1  0
 27 26  2  0
M  END
$$$$
