FDL.pdb
     RDKit          3D

 28 28  0  0  1  0  0  0  0  0999 V2000
    6.0730  -17.2262   24.6921 N   0  0  0  0  0  0  0  0  0  0  0  0
    6.8554  -17.3020   23.4831 C   0  0  1  0  0  0  0  0  0  0  0  0
    6.7793  -15.9412   22.7936 C   0  0  0  0  0  0  0  0  0  0  0  0
    6.9660  -14.8367   23.7720 C   0  0  0  0  0  0  0  0  0  0  0  0
    7.6317  -13.7040   23.3414 C   0  0  0  0  0  0  0  0  0  0  0  0
    7.8203  -12.6645   24.2230 C   0  0  0  0  0  0  0  0  0  0  0  0
    7.3319  -12.8023   25.5071 C   0  0  0  0  0  0  0  0  0  0  0  0
    6.6680  -13.9333   25.9348 C   0  0  0  0  0  0  0  0  0  0  0  0
    6.4803  -14.9723   25.0508 C   0  0  0  0  0  0  0  0  0  0  0  0
    8.2969  -17.4978   23.8357 C   0  0  0  0  0  0  0  0  0  0  0  0
    8.6375  -18.4498   24.5584 O   0  0  0  0  0  0  0  0  0  0  0  0
    9.2906  -16.6034   23.3519 N   0  0  0  0  0  0  0  0  0  0  0  0
   10.6719  -16.9815   23.4512 C   0  0  1  0  0  0  0  0  0  0  0  0
   11.5149  -16.0446   22.6402 C   0  0  0  0  0  0  0  0  0  0  0  0
   12.8600  -16.5439   22.3295 C   0  0  0  0  0  0  0  0  0  0  0  0
   13.1479  -17.7226   22.0028 O   0  0  0  0  0  0  0  0  0  0  0  0
   11.1391  -16.9328   24.8711 C   0  0  0  0  0  0  0  0  0  0  0  0
   12.3653  -16.8855   25.1430 O   0  0  0  0  0  0  0  0  0  0  0  0
   13.9063  -15.6186   22.4066 O   0  0  0  0  0  0  0  0  0  0  0  0
   10.1949  -13.6743   28.3141 C   0  0  0  0  0  0  0  0  0  0  0  0
    9.2756  -14.7818   27.9917 C   0  0  2  0  0  0  0  0  0  0  0  0
    7.9681  -14.5337   28.7991 C   0  0  0  0  0  0  0  0  0  0  0  0
    9.6596  -16.1729   28.1686 C   0  0  0  0  0  0  0  0  0  0  0  0
   10.7145  -16.7910   27.3488 C   0  0  2  0  0  0  0  0  0  0  0  0
   10.2414  -16.9376   25.9591 N   0  0  0  0  0  0  0  0  0  0  0  0
   11.0812  -18.1393   27.7710 C   0  0  0  0  0  0  0  0  0  0  0  0
   11.6604  -18.4642   28.8267 O   0  0  0  0  0  0  0  0  0  0  0  0
   10.7674  -19.2263   26.9282 O   0  0  0  0  0  0  0  0  0  0  0  0
  2  1  1  1
  3  2  1  0
  4  3  1  0
  4  9  2  0
  5  4  1  0
  6  5  2  0
  6  7  1  0
  7  8  2  0
  8  9  1  0
 10 11  2  0
 10  2  1  0
 12 10  1  0
 13 17  1  0
 13 12  1  0
 13 14  1  6
 15 14  1  0
 15 16  2  0
 17 18  2  0
 19 15  1  0
 21 20  1  1
 22 21  1  0
 23 21  1  0
 24 23  1  1
 25 24  1  0
 25 17  1  0
 26 28  1  0
 26 24  1  0
 27 26  2  0
M  END
$$$$
