FDL.pdb
     RDKit          3D

 28 28  0  0  1  0  0  0  0  0999 V2000
    6.4267  -18.1117   20.8909 N   0  0  0  0  0  0  0  0  0  0  0  0
    7.2048  -16.9097   21.0612 C   0  0  1  0  0  0  0  0  0  0  0  0
    6.2663  -15.8156   21.5661 C   0  0  0  0  0  0  0  0  0  0  0  0
    6.8928  -14.4731   21.4344 C   0  0  0  0  0  0  0  0  0  0  0  0
    7.2461  -14.0517   20.1658 C   0  0  0  0  0  0  0  0  0  0  0  0
    7.8277  -12.8144   20.0110 C   0  0  0  0  0  0  0  0  0  0  0  0
    8.0331  -12.0450   21.1390 C   0  0  0  0  0  0  0  0  0  0  0  0
    7.6799  -12.4673   22.4038 C   0  0  0  0  0  0  0  0  0  0  0  0
    7.0979  -13.7059   22.5564 C   0  0  0  0  0  0  0  0  0  0  0  0
    8.2086  -17.1180   22.1519 C   0  0  0  0  0  0  0  0  0  0  0  0
    7.8609  -17.6330   23.2283 O   0  0  0  0  0  0  0  0  0  0  0  0
    9.5654  -16.7322   21.9733 N   0  0  0  0  0  0  0  0  0  0  0  0
   10.5117  -17.0218   23.0131 C   0  0  1  0  0  0  0  0  0  0  0  0
   11.9067  -16.8954   22.4805 C   0  0  0  0  0  0  0  0  0  0  0  0
   12.1883  -17.7191   21.2983 C   0  0  0  0  0  0  0  0  0  0  0  0
   11.9191  -18.9402   21.1738 O   0  0  0  0  0  0  0  0  0  0  0  0
   10.3532  -16.0748   24.1598 C   0  0  0  0  0  0  0  0  0  0  0  0
   10.9928  -14.9934   24.1933 O   0  0  0  0  0  0  0  0  0  0  0  0
   12.8109  -17.0793   20.2213 O   0  0  0  0  0  0  0  0  0  0  0  0
    8.7982  -12.3258   26.6639 C   0  0  0  0  0  0  0  0  0  0  0  0
    7.9975  -13.4319   26.1062 C   0  0  2  0  0  0  0  0  0  0  0  0
    6.5011  -13.0491   26.2998 C   0  0  0  0  0  0  0  0  0  0  0  0
    8.1742  -14.8054   26.5492 C   0  0  0  0  0  0  0  0  0  0  0  0
    9.4747  -15.4869   26.4450 C   0  0  2  0  0  0  0  0  0  0  0  0
    9.4916  -16.3434   25.2438 N   0  0  0  0  0  0  0  0  0  0  0  0
    9.7651  -16.3855   27.5581 C   0  0  0  0  0  0  0  0  0  0  0  0
   10.2179  -16.0727   28.6773 O   0  0  0  0  0  0  0  0  0  0  0  0
    9.5235  -17.7664   27.4000 O   0  0  0  0  0  0  0  0  0  0  0  0
  2  1  1  1
  3  2  1  0
  4  3  1  0
  4  9  2  0
  5  4  1  0
  6  5  2  0
  6  7  1  0
  7  8  2  0
  8  9  1  0
 10 11  2  0
 10  2  1  0
 12 10  1  0
 13 17  1  0
 13 12  1  0
 13 14  1  6
 15 14  1  0
 15 16  2  0
 17 18  2  0
 19 15  1  0
 21 20  1  1
 22 21  1  0
 23 21  1  0
 24 23  1  1
 25 24  1  0
 25 17  1  0
 26 28  1  0
 26 24  1  0
 27 26  2  0
M  END
$$$$
