FDL.pdb
     RDKit          3D

 28 28  0  0  1  0  0  0  0  0999 V2000
    6.0714  -17.5814   24.7253 N   0  0  0  0  0  0  0  0  0  0  0  0
    6.9349  -17.1515   23.6533 C   0  0  1  0  0  0  0  0  0  0  0  0
    6.5894  -15.6989   23.3318 C   0  0  0  0  0  0  0  0  0  0  0  0
    6.6417  -14.8550   24.5555 C   0  0  0  0  0  0  0  0  0  0  0  0
    5.7696  -15.1613   25.5837 C   0  0  0  0  0  0  0  0  0  0  0  0
    5.7937  -14.3992   26.7291 C   0  0  0  0  0  0  0  0  0  0  0  0
    6.6951  -13.3556   26.7987 C   0  0  0  0  0  0  0  0  0  0  0  0
    7.5643  -13.0516   25.7716 C   0  0  0  0  0  0  0  0  0  0  0  0
    7.5385  -13.8156   24.6263 C   0  0  0  0  0  0  0  0  0  0  0  0
    8.3524  -17.1343   24.1338 C   0  0  0  0  0  0  0  0  0  0  0  0
    8.6837  -17.8126   25.1212 O   0  0  0  0  0  0  0  0  0  0  0  0
    9.3339  -16.3470   23.4717 N   0  0  0  0  0  0  0  0  0  0  0  0
   10.6961  -16.7998   23.4626 C   0  0  1  0  0  0  0  0  0  0  0  0
   11.4907  -16.0011   22.4743 C   0  0  0  0  0  0  0  0  0  0  0  0
   12.8141  -16.5545   22.1620 C   0  0  0  0  0  0  0  0  0  0  0  0
   13.0663  -17.7616   21.9202 O   0  0  0  0  0  0  0  0  0  0  0  0
   11.3210  -16.6430   24.8123 C   0  0  0  0  0  0  0  0  0  0  0  0
   12.5378  -16.9022   24.9912 O   0  0  0  0  0  0  0  0  0  0  0  0
   13.8816  -15.6508   22.1334 O   0  0  0  0  0  0  0  0  0  0  0  0
   12.4718  -13.3182   27.6470 C   0  0  0  0  0  0  0  0  0  0  0  0
   11.0848  -13.8201   27.6540 C   0  0  2  0  0  0  0  0  0  0  0  0
   10.2440  -12.8130   28.4919 C   0  0  0  0  0  0  0  0  0  0  0  0
   10.7583  -15.1644   28.1014 C   0  0  0  0  0  0  0  0  0  0  0  0
   11.1153  -16.3493   27.3045 C   0  0  2  0  0  0  0  0  0  0  0  0
   10.5879  -16.2035   25.9343 N   0  0  0  0  0  0  0  0  0  0  0  0
   10.5416  -17.5954   27.8033 C   0  0  0  0  0  0  0  0  0  0  0  0
    9.7089  -18.3228   27.2262 O   0  0  0  0  0  0  0  0  0  0  0  0
   10.9410  -18.0705   29.0702 O   0  0  0  0  0  0  0  0  0  0  0  0
  2  1  1  1
  3  2  1  0
  4  3  1  0
  4  9  2  0
  5  4  1  0
  6  5  2  0
  6  7  1  0
  7  8  2  0
  8  9  1  0
 10 11  2  0
 10  2  1  0
 12 10  1  0
 13 17  1  0
 13 12  1  0
 13 14  1  6
 15 14  1  0
 15 16  2  0
 17 18  2  0
 19 15  1  0
 21 20  1  1
 22 21  1  0
 23 21  1  0
 24 23  1  1
 25 24  1  0
 25 17  1  0
 26 28  1  0
 26 24  1  0
 27 26  2  0
M  END
$$$$
