FDL.pdb
     RDKit          3D

 28 28  0  0  1  0  0  0  0  0999 V2000
    7.2635  -16.0188   23.7703 N   0  0  0  0  0  0  0  0  0  0  0  0
    7.4095  -17.0095   22.7328 C   0  0  1  0  0  0  0  0  0  0  0  0
    6.9137  -16.3920   21.4268 C   0  0  0  0  0  0  0  0  0  0  0  0
    7.1814  -14.9294   21.3932 C   0  0  0  0  0  0  0  0  0  0  0  0
    7.7937  -14.3638   22.4964 C   0  0  0  0  0  0  0  0  0  0  0  0
    8.0549  -13.0129   22.4958 C   0  0  0  0  0  0  0  0  0  0  0  0
    7.6903  -12.2791   21.3844 C   0  0  0  0  0  0  0  0  0  0  0  0
    7.0795  -12.8453   20.2848 C   0  0  0  0  0  0  0  0  0  0  0  0
    6.8191  -14.1975   20.2875 C   0  0  0  0  0  0  0  0  0  0  0  0
    8.8633  -17.2955   22.5199 C   0  0  0  0  0  0  0  0  0  0  0  0
    9.2138  -18.3203   21.9102 O   0  0  0  0  0  0  0  0  0  0  0  0
    9.8576  -16.4046   23.0090 N   0  0  0  0  0  0  0  0  0  0  0  0
   11.0894  -16.9465   23.5088 C   0  0  1  0  0  0  0  0  0  0  0  0
   12.2494  -16.2305   22.8862 C   0  0  0  0  0  0  0  0  0  0  0  0
   12.4292  -16.4865   21.4518 C   0  0  0  0  0  0  0  0  0  0  0  0
   12.6678  -15.6179   20.5757 O   0  0  0  0  0  0  0  0  0  0  0  0
   11.1778  -16.7930   24.9939 C   0  0  0  0  0  0  0  0  0  0  0  0
   12.2883  -16.8436   25.5802 O   0  0  0  0  0  0  0  0  0  0  0  0
   12.3236  -17.8173   21.0337 O   0  0  0  0  0  0  0  0  0  0  0  0
   10.4541  -13.0061   27.7786 C   0  0  0  0  0  0  0  0  0  0  0  0
    9.4800  -13.9310   27.1693 C   0  0  2  0  0  0  0  0  0  0  0  0
    8.1029  -13.2051   27.1749 C   0  0  0  0  0  0  0  0  0  0  0  0
    9.2827  -15.2795   27.6759 C   0  0  0  0  0  0  0  0  0  0  0  0
   10.1480  -16.3940   27.2566 C   0  0  2  0  0  0  0  0  0  0  0  0
   10.0375  -16.5869   25.7981 N   0  0  0  0  0  0  0  0  0  0  0  0
    9.7831  -17.6812   27.8402 C   0  0  0  0  0  0  0  0  0  0  0  0
    9.1804  -18.6170   27.2776 O   0  0  0  0  0  0  0  0  0  0  0  0
   10.1282  -17.9431   29.1828 O   0  0  0  0  0  0  0  0  0  0  0  0
  2  1  1  1
  3  2  1  0
  4  3  1  0
  4  9  2  0
  5  4  1  0
  6  5  2  0
  6  7  1  0
  7  8  2  0
  8  9  1  0
 10 11  2  0
 10  2  1  0
 12 10  1  0
 13 17  1  0
 13 12  1  0
 13 14  1  6
 15 14  1  0
 15 16  2  0
 17 18  2  0
 19 15  1  0
 21 20  1  1
 22 21  1  0
 23 21  1  0
 24 23  1  1
 25 24  1  0
 25 17  1  0
 26 28  1  0
 26 24  1  0
 27 26  2  0
M  END
$$$$
