FDL.pdb
     RDKit          3D

 28 28  0  0  1  0  0  0  0  0999 V2000
    7.1550  -18.0913   20.0356 N   0  0  0  0  0  0  0  0  0  0  0  0
    7.6760  -16.8445   20.5391 C   0  0  1  0  0  0  0  0  0  0  0  0
    6.4881  -15.9688   20.9325 C   0  0  0  0  0  0  0  0  0  0  0  0
    6.9316  -14.5909   21.2743 C   0  0  0  0  0  0  0  0  0  0  0  0
    6.7350  -14.1572   22.5723 C   0  0  0  0  0  0  0  0  0  0  0  0
    7.1347  -12.8872   22.9198 C   0  0  0  0  0  0  0  0  0  0  0  0
    7.7183  -12.0988   21.9480 C   0  0  0  0  0  0  0  0  0  0  0  0
    7.9135  -12.5335   20.6535 C   0  0  0  0  0  0  0  0  0  0  0  0
    7.5128  -13.8048   20.3080 C   0  0  0  0  0  0  0  0  0  0  0  0
    8.4309  -17.0973   21.8067 C   0  0  0  0  0  0  0  0  0  0  0  0
    7.8774  -17.6779   22.7560 O   0  0  0  0  0  0  0  0  0  0  0  0
    9.7833  -16.6796   21.9420 N   0  0  0  0  0  0  0  0  0  0  0  0
   10.4979  -17.0195   23.1396 C   0  0  1  0  0  0  0  0  0  0  0  0
   11.9594  -17.1571   22.8378 C   0  0  0  0  0  0  0  0  0  0  0  0
   12.7329  -17.8662   23.8645 C   0  0  0  0  0  0  0  0  0  0  0  0
   13.9734  -17.7736   24.0430 O   0  0  0  0  0  0  0  0  0  0  0  0
   10.3258  -15.9624   24.1836 C   0  0  0  0  0  0  0  0  0  0  0  0
   10.9459  -14.8723   24.1027 O   0  0  0  0  0  0  0  0  0  0  0  0
   12.0174  -18.7171   24.7135 O   0  0  0  0  0  0  0  0  0  0  0  0
    7.0232  -12.1849   26.6569 C   0  0  0  0  0  0  0  0  0  0  0  0
    8.2336  -13.0132   26.8140 C   0  0  2  0  0  0  0  0  0  0  0  0
    9.3692  -12.3103   26.0143 C   0  0  0  0  0  0  0  0  0  0  0  0
    8.2456  -14.4259   26.4704 C   0  0  0  0  0  0  0  0  0  0  0  0
    9.4975  -15.1994   26.4355 C   0  0  2  0  0  0  0  0  0  0  0  0
    9.4725  -16.1333   25.2937 N   0  0  0  0  0  0  0  0  0  0  0  0
    9.7096  -16.0392   27.6104 C   0  0  0  0  0  0  0  0  0  0  0  0
    9.3335  -17.2177   27.7689 O   0  0  0  0  0  0  0  0  0  0  0  0
   10.4112  -15.5055   28.7119 O   0  0  0  0  0  0  0  0  0  0  0  0
  2  1  1  1
  3  2  1  0
  4  3  1  0
  4  9  2  0
  5  4  1  0
  6  5  2  0
  6  7  1  0
  7  8  2  0
  8  9  1  0
 10 11  2  0
 10  2  1  0
 12 10  1  0
 13 17  1  0
 13 12  1  0
 13 14  1  6
 15 14  1  0
 15 16  2  0
 17 18  2  0
 19 15  1  0
 21 20  1  6
 22 21  1  0
 23 21  1  0
 24 23  1  1
 25 24  1  0
 25 17  1  0
 26 28  1  0
 26 24  1  0
 27 26  2  0
M  END
$$$$
