FDL.pdb
     RDKit          3D

 28 28  0  0  1  0  0  0  0  0999 V2000
    6.0731  -18.5045   23.2678 N   0  0  0  0  0  0  0  0  0  0  0  0
    6.7029  -17.2157   23.4154 C   0  0  1  0  0  0  0  0  0  0  0  0
    6.1627  -16.5775   24.6935 C   0  0  0  0  0  0  0  0  0  0  0  0
    6.5290  -15.1379   24.7666 C   0  0  0  0  0  0  0  0  0  0  0  0
    6.3363  -14.4873   25.9712 C   0  0  0  0  0  0  0  0  0  0  0  0
    6.6655  -13.1550   26.0708 C   0  0  0  0  0  0  0  0  0  0  0  0
    7.1772  -12.5249   24.9538 C   0  0  0  0  0  0  0  0  0  0  0  0
    7.3687  -13.1758   23.7528 C   0  0  0  0  0  0  0  0  0  0  0  0
    7.0385  -14.5091   23.6554 C   0  0  0  0  0  0  0  0  0  0  0  0
    8.1702  -17.4031   23.6445 C   0  0  0  0  0  0  0  0  0  0  0  0
    8.5687  -18.2131   24.4987 O   0  0  0  0  0  0  0  0  0  0  0  0
    9.1228  -16.6619   22.8930 N   0  0  0  0  0  0  0  0  0  0  0  0
   10.5201  -16.9187   23.0984 C   0  0  1  0  0  0  0  0  0  0  0  0
   11.3113  -16.3759   21.9472 C   0  0  0  0  0  0  0  0  0  0  0  0
   11.9970  -17.3935   21.1411 C   0  0  0  0  0  0  0  0  0  0  0  0
   12.0347  -18.6245   21.3907 O   0  0  0  0  0  0  0  0  0  0  0  0
   11.0042  -16.2693   24.3558 C   0  0  0  0  0  0  0  0  0  0  0  0
   11.5438  -15.1346   24.3265 O   0  0  0  0  0  0  0  0  0  0  0  0
   12.6641  -16.9432   19.9970 O   0  0  0  0  0  0  0  0  0  0  0  0
   10.5755  -14.6420   29.5663 C   0  0  0  0  0  0  0  0  0  0  0  0
   10.9099  -14.1382   28.2209 C   0  0  2  0  0  0  0  0  0  0  0  0
   10.1451  -12.7948   28.0382 C   0  0  0  0  0  0  0  0  0  0  0  0
   10.7026  -14.9428   27.0277 C   0  0  0  0  0  0  0  0  0  0  0  0
   11.3774  -16.2383   26.8455 C   0  0  2  0  0  0  0  0  0  0  0  0
   10.8814  -16.8881   25.6174 N   0  0  0  0  0  0  0  0  0  0  0  0
   11.1198  -17.1976   27.9152 C   0  0  0  0  0  0  0  0  0  0  0  0
   11.8384  -17.4255   28.9087 O   0  0  0  0  0  0  0  0  0  0  0  0
    9.9432  -17.9745   27.8650 O   0  0  0  0  0  0  0  0  0  0  0  0
  2  1  1  1
  3  2  1  0
  4  3  1  0
  4  9  2  0
  5  4  1  0
  6  5  2  0
  6  7  1  0
  7  8  2  0
  8  9  1  0
 10 11  2  0
 10  2  1  0
 12 10  1  0
 13 17  1  0
 13 12  1  0
 13 14  1  6
 15 14  1  0
 15 16  2  0
 17 18  2  0
 19 15  1  0
 21 20  1  1
 22 21  1  0
 23 21  1  0
 24 23  1  1
 25 24  1  0
 25 17  1  0
 26 28  1  0
 26 24  1  0
 27 26  2  0
M  END
$$$$
