RRL.pdb
     RDKit          3D

 31 30  0  0  1  0  0  0  0  0999 V2000
    7.1418  -14.5550   14.2860 N   0  0  0  0  0  0  0  0  0  0  0  0
    7.9396  -13.9133   15.2663 C   0  0  0  0  0  0  0  0  0  0  0  0
    8.0318  -12.6102   15.3021 N   0  0  0  0  0  0  0  0  0  0  0  0
    8.6715  -14.6475   16.2498 N   0  0  0  0  0  0  0  0  0  0  0  0
    7.9842  -15.5298   17.1689 C   0  0  0  0  0  0  0  0  0  0  0  0
    7.2906  -14.6918   18.2482 C   0  0  0  0  0  0  0  0  0  0  0  0
    6.9343  -15.6457   19.3518 C   0  0  0  0  0  0  0  0  0  0  0  0
    7.0578  -15.0154   20.7261 C   0  0  2  0  0  0  0  0  0  0  0  0
    7.7736  -13.7775   20.6932 N   0  0  0  0  0  0  0  0  0  0  0  0
    7.8378  -15.9869   21.5346 C   0  0  0  0  0  0  0  0  0  0  0  0
    7.3391  -17.1290   21.6543 O   0  0  0  0  0  0  0  0  0  0  0  0
    8.6483  -12.1524   16.0073 N   0  0  0  0  0  0  0  0  0  0  0  0
   14.5208  -20.9187   23.1755 C   0  0  0  0  0  0  0  0  0  0  0  0
   14.6194  -19.5065   23.0297 N   0  0  0  0  0  0  0  0  0  0  0  0
   15.2952  -18.8270   23.8668 N   0  0  0  0  0  0  0  0  0  0  0  0
   13.9560  -18.8873   21.9442 C   0  0  0  0  0  0  0  0  0  0  0  0
   13.3891  -17.5752   22.1513 C   0  0  0  0  0  0  0  0  0  0  0  0
   12.0493  -17.6640   22.8944 C   0  0  0  0  0  0  0  0  0  0  0  0
   11.1865  -16.5655   22.3556 C   0  0  2  0  0  0  0  0  0  0  0  0
    9.8189  -16.4969   22.9476 N   0  0  0  0  0  0  0  0  0  0  0  0
    9.0520  -15.5882   22.1013 C   0  0  0  0  0  0  0  0  0  0  0  0
    9.7665  -16.1096   24.3605 O   0  0  0  0  0  0  0  0  0  0  0  0
   10.6953  -16.5282   25.1041 C   0  0  0  0  0  0  0  0  0  0  0  0
   15.2976  -17.7873   23.8578 C   0  0  2  0  0  0  0  0  0  0  0  0
    6.5492  -12.0226   26.3567 C   0  0  0  0  0  0  0  0  0  0  0  0
    7.7750  -12.8593   25.8387 C   0  0  0  0  0  0  0  0  0  0  0  0
    8.9311  -11.8846   26.0236 C   0  0  1  0  0  0  0  0  0  0  0  0
    7.8009  -14.0401   26.7256 N   0  0  0  0  0  0  0  0  0  0  0  0
    8.7658  -15.1206   26.4102 C   0  0  0  0  0  0  0  0  0  0  0  0
    8.7655  -15.3055   24.9380 O   0  0  0  0  0  0  0  0  0  0  0  0
    8.6150  -16.4185   27.0459 O   0  0  0  0  0  0  0  0  0  0  0  0
  2  1  1  0
  3  2  2  0
  4  2  1  0
  5  4  1  0
  6  5  1  0
  7  6  1  0
  8  9  1  6
  8  7  1  0
 10  8  1  0
 10 11  2  0
 13 14  2  0
 13 12  1  0
 15 13  1  0
 15 16  1  0
 17 18  1  0
 17 16  1  0
 19 18  1  6
 19 20  1  0
 19 21  1  0
 20 10  1  0
 21 28  1  0
 21 22  2  0
 24 23  1  6
 24 25  1  0
 26 24  1  0
 27 26  1  1
 28 27  1  0
 29 30  1  0
 29 27  1  0
 31 29  2  0
M  END
$$$$
