RRL.pdb
     RDKit          3D

 31 30  0  0  1  0  0  0  0  0999 V2000
    7.9597  -11.4348   19.2690 N   0  0  0  0  0  0  0  0  0  0  0  0
    8.3033  -12.3662   18.2573 C   0  0  0  0  0  0  0  0  0  0  0  0
    8.4281  -11.9838   17.0139 N   0  0  0  0  0  0  0  0  0  0  0  0
    8.5274  -13.7486   18.5414 N   0  0  0  0  0  0  0  0  0  0  0  0
    8.4778  -14.2350   19.9039 C   0  0  0  0  0  0  0  0  0  0  0  0
    8.7023  -15.7509   19.9061 C   0  0  0  0  0  0  0  0  0  0  0  0
    8.6355  -16.1802   21.3435 C   0  0  0  0  0  0  0  0  0  0  0  0
    8.8976  -17.6641   21.5188 C   0  0  2  0  0  0  0  0  0  0  0  0
    7.9563  -18.4696   20.8041 N   0  0  0  0  0  0  0  0  0  0  0  0
    8.7291  -17.9232   22.9715 C   0  0  0  0  0  0  0  0  0  0  0  0
    7.5841  -18.2708   23.3394 O   0  0  0  0  0  0  0  0  0  0  0  0
    8.6095  -12.6903   16.2690 N   0  0  0  0  0  0  0  0  0  0  0  0
   12.4178  -20.9456   22.1292 C   0  0  0  0  0  0  0  0  0  0  0  0
   13.6945  -20.5616   22.6271 N   0  0  0  0  0  0  0  0  0  0  0  0
   14.6292  -20.2638   21.8166 N   0  0  0  0  0  0  0  0  0  0  0  0
   13.8935  -20.5196   24.0272 C   0  0  0  0  0  0  0  0  0  0  0  0
   12.7299  -20.4341   24.8784 C   0  0  0  0  0  0  0  0  0  0  0  0
   11.8464  -19.2418   24.4871 C   0  0  0  0  0  0  0  0  0  0  0  0
   10.7295  -19.1908   25.4826 C   0  0  1  0  0  0  0  0  0  0  0  0
    9.7253  -18.1143   25.2414 N   0  0  0  0  0  0  0  0  0  0  0  0
    9.8249  -17.7714   23.8263 C   0  0  0  0  0  0  0  0  0  0  0  0
    9.8512  -16.9355   26.1038 O   0  0  0  0  0  0  0  0  0  0  0  0
    9.6774  -17.1094   27.3409 C   0  0  0  0  0  0  0  0  0  0  0  0
   15.5404  -19.8839   22.1428 C   0  0  2  0  0  0  0  0  0  0  0  0
    8.1671  -11.7877   25.9802 C   0  0  0  0  0  0  0  0  0  0  0  0
    7.4061  -13.1297   26.2820 C   0  0  0  0  0  0  0  0  0  0  0  0
    6.0720  -12.9078   25.5809 C   0  0  1  0  0  0  0  0  0  0  0  0
    8.2660  -14.1698   25.6815 N   0  0  0  0  0  0  0  0  0  0  0  0
    9.5488  -14.4807   26.3565 C   0  0  0  0  0  0  0  0  0  0  0  0
   10.1562  -15.6371   25.6526 O   0  0  0  0  0  0  0  0  0  0  0  0
    9.5565  -14.7445   27.7853 O   0  0  0  0  0  0  0  0  0  0  0  0
  2  1  1  0
  3  2  2  0
  4  2  1  0
  5  4  1  0
  6  5  1  0
  7  6  1  0
  8  9  1  6
  8  7  1  0
 10  8  1  0
 10 11  2  0
 13 14  2  0
 13 12  1  0
 15 13  1  0
 15 16  1  0
 17 18  1  0
 17 16  1  0
 19 18  1  6
 19 20  1  0
 19 21  1  0
 20 10  1  0
 21 28  1  0
 21 22  2  0
 24 23  1  6
 24 25  1  0
 26 24  1  0
 27 26  1  1
 28 27  1  0
 29 30  1  0
 29 27  1  0
 31 29  2  0
M  END
$$$$
