RRL.pdb
     RDKit          3D

 31 30  0  0  1  0  0  0  0  0999 V2000
    7.7414  -12.1256   17.4886 N   0  0  0  0  0  0  0  0  0  0  0  0
    8.4893  -13.2238   16.9948 C   0  0  0  0  0  0  0  0  0  0  0  0
    8.3125  -13.6557   15.7741 N   0  0  0  0  0  0  0  0  0  0  0  0
    9.4594  -13.9033   17.7943 N   0  0  0  0  0  0  0  0  0  0  0  0
    9.0507  -14.9305   18.7288 C   0  0  0  0  0  0  0  0  0  0  0  0
    7.7203  -14.5255   19.3725 C   0  0  0  0  0  0  0  0  0  0  0  0
    7.7760  -15.0176   20.7900 C   0  0  0  0  0  0  0  0  0  0  0  0
    8.0668  -16.5039   20.8774 C   0  0  2  0  0  0  0  0  0  0  0  0
    7.0614  -17.2923   20.2344 N   0  0  0  0  0  0  0  0  0  0  0  0
    8.0550  -16.8212   22.3283 C   0  0  0  0  0  0  0  0  0  0  0  0
    6.9383  -17.0980   22.8221 O   0  0  0  0  0  0  0  0  0  0  0  0
    8.9304  -14.4041   15.3934 N   0  0  0  0  0  0  0  0  0  0  0  0
   14.2153  -20.3634   27.4653 C   0  0  0  0  0  0  0  0  0  0  0  0
   13.5883  -20.6367   26.2174 N   0  0  0  0  0  0  0  0  0  0  0  0
   14.2482  -21.1951   25.2837 N   0  0  0  0  0  0  0  0  0  0  0  0
   12.2308  -20.2767   26.0455 C   0  0  0  0  0  0  0  0  0  0  0  0
   11.8364  -18.9279   26.3785 C   0  0  0  0  0  0  0  0  0  0  0  0
   10.3499  -18.6968   26.0749 C   0  0  0  0  0  0  0  0  0  0  0  0
   10.2755  -18.1629   24.6783 C   0  0  2  0  0  0  0  0  0  0  0  0
    9.2785  -17.0714   24.4781 N   0  0  0  0  0  0  0  0  0  0  0  0
    9.2551  -16.7965   23.0450 C   0  0  0  0  0  0  0  0  0  0  0  0
    9.5108  -15.8583   25.2678 O   0  0  0  0  0  0  0  0  0  0  0  0
   10.6634  -15.3493   25.2106 C   0  0  0  0  0  0  0  0  0  0  0  0
   13.8052  -21.4673   24.3832 C   0  0  1  0  0  0  0  0  0  0  0  0
    5.7242  -12.1358   26.6522 C   0  0  0  0  0  0  0  0  0  0  0  0
    6.8870  -12.9953   26.0356 C   0  0  0  0  0  0  0  0  0  0  0  0
    7.4351  -12.0690   24.9575 C   0  0  1  0  0  0  0  0  0  0  0  0
    7.7940  -13.2381   27.1758 N   0  0  0  0  0  0  0  0  0  0  0  0
    8.9740  -14.1063   26.9480 C   0  0  0  0  0  0  0  0  0  0  0  0
    8.5446  -15.2244   26.0722 O   0  0  0  0  0  0  0  0  0  0  0  0
    9.6880  -14.6522   28.0897 O   0  0  0  0  0  0  0  0  0  0  0  0
  2  1  1  0
  3  2  2  0
  4  2  1  0
  5  4  1  0
  6  5  1  0
  7  6  1  0
  8  9  1  6
  8  7  1  0
 10  8  1  0
 10 11  2  0
 13 14  2  0
 13 12  1  0
 15 13  1  0
 15 16  1  0
 17 18  1  0
 17 16  1  0
 19 18  1  6
 19 20  1  0
 19 21  1  0
 20 10  1  0
 21 28  1  0
 21 22  2  0
 24 23  1  1
 24 25  1  0
 26 24  1  0
 27 26  1  1
 28 27  1  0
 29 30  1  0
 29 27  1  0
 31 29  2  0
M  END
$$$$
