RRL.pdb
     RDKit          3D

 31 30  0  0  1  0  0  0  0  0999 V2000
   10.1151  -13.3794   18.8144 N   0  0  0  0  0  0  0  0  0  0  0  0
    8.8791  -13.0649   18.1959 C   0  0  0  0  0  0  0  0  0  0  0  0
    8.5129  -11.8210   18.0328 N   0  0  0  0  0  0  0  0  0  0  0  0
    7.9853  -14.0761   17.7265 N   0  0  0  0  0  0  0  0  0  0  0  0
    8.1423  -15.4502   18.1540 C   0  0  0  0  0  0  0  0  0  0  0  0
    8.0512  -15.5159   19.6823 C   0  0  0  0  0  0  0  0  0  0  0  0
    8.4059  -16.9250   20.0610 C   0  0  0  0  0  0  0  0  0  0  0  0
    7.1822  -17.7752   20.3453 C   0  0  2  0  0  0  0  0  0  0  0  0
    6.0481  -17.3689   19.5742 N   0  0  0  0  0  0  0  0  0  0  0  0
    6.8763  -17.5544   21.7818 C   0  0  0  0  0  0  0  0  0  0  0  0
    5.7028  -17.2090   22.0478 O   0  0  0  0  0  0  0  0  0  0  0  0
    7.5981  -11.6037   17.5826 N   0  0  0  0  0  0  0  0  0  0  0  0
    5.8970  -21.8386   27.4886 C   0  0  0  0  0  0  0  0  0  0  0  0
    6.9798  -21.5436   28.3636 N   0  0  0  0  0  0  0  0  0  0  0  0
    6.8434  -21.7015   29.6189 N   0  0  0  0  0  0  0  0  0  0  0  0
    8.1948  -21.0774   27.8084 C   0  0  0  0  0  0  0  0  0  0  0  0
    8.2318  -20.7920   26.3931 C   0  0  0  0  0  0  0  0  0  0  0  0
    7.7876  -19.3508   26.1090 C   0  0  0  0  0  0  0  0  0  0  0  0
    7.9359  -19.1393   24.6343 C   0  0  1  0  0  0  0  0  0  0  0  0
    7.5720  -17.7730   24.1587 N   0  0  0  0  0  0  0  0  0  0  0  0
    7.8837  -17.7395   22.7333 C   0  0  0  0  0  0  0  0  0  0  0  0
    8.2027  -16.6677   24.8863 O   0  0  0  0  0  0  0  0  0  0  0  0
    9.4288  -16.4651   24.6704 C   0  0  0  0  0  0  0  0  0  0  0  0
    7.6191  -21.5126   30.2850 C   0  0  2  0  0  0  0  0  0  0  0  0
    7.4017  -12.9736   24.6659 C   0  0  0  0  0  0  0  0  0  0  0  0
    7.2638  -12.4874   26.1544 C   0  0  0  0  0  0  0  0  0  0  0  0
    5.8865  -11.8364   26.1540 C   0  0  2  0  0  0  0  0  0  0  0  0
    7.3713  -13.7295   26.9465 N   0  0  0  0  0  0  0  0  0  0  0  0
    8.3250  -14.7652   26.4822 C   0  0  0  0  0  0  0  0  0  0  0  0
    7.5403  -15.8207   25.7952 O   0  0  0  0  0  0  0  0  0  0  0  0
    9.2173  -15.3936   27.4415 O   0  0  0  0  0  0  0  0  0  0  0  0
  2  1  1  0
  3  2  2  0
  4  2  1  0
  5  4  1  0
  6  5  1  0
  7  6  1  0
  8  9  1  6
  8  7  1  0
 10  8  1  0
 10 11  2  0
 13 14  2  0
 13 12  1  0
 15 13  1  0
 15 16  1  0
 17 18  1  0
 17 16  1  0
 19 18  1  6
 19 20  1  0
 19 21  1  0
 20 10  1  0
 21 28  1  0
 21 22  2  0
 24 23  1  6
 24 25  1  0
 26 24  1  0
 27 26  1  1
 28 27  1  0
 29 30  1  0
 29 27  1  0
 31 29  2  0
M  END
$$$$
