RRL.pdb
     RDKit          3D

 31 30  0  0  1  0  0  0  0  0999 V2000
    5.4639  -21.3175   26.8593 N   0  0  0  0  0  0  0  0  0  0  0  0
    6.4048  -21.7764   27.8150 C   0  0  0  0  0  0  0  0  0  0  0  0
    6.1237  -22.7864   28.5953 N   0  0  0  0  0  0  0  0  0  0  0  0
    7.6882  -21.1677   27.9708 N   0  0  0  0  0  0  0  0  0  0  0  0
    8.0655  -20.0323   27.1559 C   0  0  0  0  0  0  0  0  0  0  0  0
    7.7612  -20.3432   25.6866 C   0  0  0  0  0  0  0  0  0  0  0  0
    8.2914  -19.1819   24.8961 C   0  0  0  0  0  0  0  0  0  0  0  0
    8.0699  -19.3457   23.4044 C   0  0  2  0  0  0  0  0  0  0  0  0
    8.9156  -20.3502   22.8372 N   0  0  0  0  0  0  0  0  0  0  0  0
    8.4331  -18.0350   22.8077 C   0  0  0  0  0  0  0  0  0  0  0  0
    9.6498  -17.7406   22.8251 O   0  0  0  0  0  0  0  0  0  0  0  0
    6.8228  -23.1104   29.2976 N   0  0  0  0  0  0  0  0  0  0  0  0
    9.4843  -12.3992   17.7603 C   0  0  0  0  0  0  0  0  0  0  0  0
    8.5193  -13.4447   17.7925 N   0  0  0  0  0  0  0  0  0  0  0  0
    7.7574  -13.6371   16.7917 N   0  0  0  0  0  0  0  0  0  0  0  0
    8.4317  -14.2533   18.9502 C   0  0  0  0  0  0  0  0  0  0  0  0
    8.1137  -13.6137   20.2054 C   0  0  0  0  0  0  0  0  0  0  0  0
    6.6791  -13.9392   20.6428 C   0  0  0  0  0  0  0  0  0  0  0  0
    6.6576  -15.3945   20.9933 C   0  0  1  0  0  0  0  0  0  0  0  0
    7.6675  -15.8080   22.0105 N   0  0  0  0  0  0  0  0  0  0  0  0
    7.4282  -17.2237   22.2726 C   0  0  0  0  0  0  0  0  0  0  0  0
    7.6770  -15.0138   23.2427 O   0  0  0  0  0  0  0  0  0  0  0  0
    7.0684  -13.9093   23.2172 C   0  0  0  0  0  0  0  0  0  0  0  0
    7.1589  -14.4834   16.7101 C   0  0  2  0  0  0  0  0  0  0  0  0
    7.9923  -11.4947   26.4396 C   0  0  0  0  0  0  0  0  0  0  0  0
    7.0817  -12.7247   26.7987 C   0  0  0  0  0  0  0  0  0  0  0  0
    5.7107  -12.0774   26.9477 C   0  0  1  0  0  0  0  0  0  0  0  0
    7.2276  -13.6271   25.6385 N   0  0  0  0  0  0  0  0  0  0  0  0
    8.5004  -14.3744   25.4997 C   0  0  0  0  0  0  0  0  0  0  0  0
    8.3060  -15.3973   24.4425 O   0  0  0  0  0  0  0  0  0  0  0  0
    9.0832  -15.0123   26.6679 O   0  0  0  0  0  0  0  0  0  0  0  0
  2  1  1  0
  3  2  2  0
  4  2  1  0
  5  4  1  0
  6  5  1  0
  7  6  1  0
  8  9  1  6
  8  7  1  0
 10  8  1  0
 10 11  2  0
 13 14  2  0
 13 12  1  0
 15 13  1  0
 15 16  1  0
 17 18  1  0
 17 16  1  0
 19 18  1  6
 19 20  1  0
 19 21  1  0
 20 10  1  0
 21 28  1  0
 21 22  2  0
 24 23  1  6
 24 25  1  0
 26 24  1  0
 27 26  1  1
 28 27  1  0
 29 30  1  0
 29 27  1  0
 31 29  2  0
M  END
$$$$
