RRL.pdb
     RDKit          3D

 31 30  0  0  1  0  0  0  0  0999 V2000
    9.0572  -14.8958   16.2719 N   0  0  0  0  0  0  0  0  0  0  0  0
    8.5003  -13.6631   15.8481 C   0  0  0  0  0  0  0  0  0  0  0  0
    8.4243  -13.3678   14.5773 N   0  0  0  0  0  0  0  0  0  0  0  0
    8.0014  -12.6963   16.7746 N   0  0  0  0  0  0  0  0  0  0  0  0
    8.0231  -12.9637   18.1971 C   0  0  0  0  0  0  0  0  0  0  0  0
    7.2792  -14.2743   18.4747 C   0  0  0  0  0  0  0  0  0  0  0  0
    7.4221  -14.5311   19.9473 C   0  0  0  0  0  0  0  0  0  0  0  0
    8.2433  -15.7718   20.2431 C   0  0  2  0  0  0  0  0  0  0  0  0
    7.8919  -16.8698   19.3965 N   0  0  0  0  0  0  0  0  0  0  0  0
    7.9131  -16.1357   21.6447 C   0  0  0  0  0  0  0  0  0  0  0  0
    6.8886  -16.8372   21.8044 O   0  0  0  0  0  0  0  0  0  0  0  0
    7.9739  -12.4768   14.2772 N   0  0  0  0  0  0  0  0  0  0  0  0
   12.8205  -21.6000   21.4035 C   0  0  0  0  0  0  0  0  0  0  0  0
   12.3650  -21.9433   22.7073 N   0  0  0  0  0  0  0  0  0  0  0  0
   12.6284  -23.0906   23.1905 N   0  0  0  0  0  0  0  0  0  0  0  0
   11.6229  -20.9883   23.4414 C   0  0  0  0  0  0  0  0  0  0  0  0
   11.2181  -19.7763   22.7684 C   0  0  0  0  0  0  0  0  0  0  0  0
   10.4639  -18.8407   23.7229 C   0  0  0  0  0  0  0  0  0  0  0  0
    9.9855  -17.6845   22.9009 C   0  0  2  0  0  0  0  0  0  0  0  0
    9.2712  -16.6238   23.6692 N   0  0  0  0  0  0  0  0  0  0  0  0
    8.7393  -15.6908   22.6810 C   0  0  0  0  0  0  0  0  0  0  0  0
   10.0717  -15.9449   24.6926 O   0  0  0  0  0  0  0  0  0  0  0  0
   10.8814  -15.0632   24.2951 C   0  0  0  0  0  0  0  0  0  0  0  0
   12.3577  -23.3554   24.1589 C   0  0  2  0  0  0  0  0  0  0  0  0
    8.1554  -12.0832   26.3825 C   0  0  0  0  0  0  0  0  0  0  0  0
    7.7129  -13.3878   27.1396 C   0  0  0  0  0  0  0  0  0  0  0  0
    6.1955  -13.3326   27.0157 C   0  0  1  0  0  0  0  0  0  0  0  0
    8.3656  -14.4767   26.3847 N   0  0  0  0  0  0  0  0  0  0  0  0
    9.5718  -15.1025   26.9776 C   0  0  0  0  0  0  0  0  0  0  0  0
    9.9957  -16.2011   26.0749 O   0  0  0  0  0  0  0  0  0  0  0  0
    9.5161  -15.6087   28.3385 O   0  0  0  0  0  0  0  0  0  0  0  0
  2  1  1  0
  3  2  2  0
  4  2  1  0
  5  4  1  0
  6  5  1  0
  7  6  1  0
  8  9  1  6
  8  7  1  0
 10  8  1  0
 10 11  2  0
 13 14  2  0
 13 12  1  0
 15 13  1  0
 15 16  1  0
 17 18  1  0
 17 16  1  0
 19 18  1  6
 19 20  1  0
 19 21  1  0
 20 10  1  0
 21 28  1  0
 21 22  2  0
 24 23  1  6
 24 25  1  0
 26 24  1  0
 27 26  1  1
 28 27  1  0
 29 30  1  0
 29 27  1  0
 31 29  2  0
M  END
$$$$
