RRL.pdb
     RDKit          3D

 31 30  0  0  1  0  0  0  0  0999 V2000
    7.9653  -13.2224   17.9329 N   0  0  0  0  0  0  0  0  0  0  0  0
    8.2223  -12.4490   19.0926 C   0  0  0  0  0  0  0  0  0  0  0  0
    9.1533  -11.5318   19.0893 N   0  0  0  0  0  0  0  0  0  0  0  0
    7.4877  -12.6301   20.3049 N   0  0  0  0  0  0  0  0  0  0  0  0
    6.4444  -13.6302   20.3882 C   0  0  0  0  0  0  0  0  0  0  0  0
    7.0433  -15.0089   20.0905 C   0  0  0  0  0  0  0  0  0  0  0  0
    7.6600  -15.4820   21.3754 C   0  0  0  0  0  0  0  0  0  0  0  0
    8.3235  -16.8390   21.2356 C   0  0  2  0  0  0  0  0  0  0  0  0
    7.3889  -17.8679   20.8987 N   0  0  0  0  0  0  0  0  0  0  0  0
    8.8886  -17.1391   22.5759 C   0  0  0  0  0  0  0  0  0  0  0  0
    8.1385  -17.7594   23.3632 O   0  0  0  0  0  0  0  0  0  0  0  0
    9.2944  -10.9321   19.9304 N   0  0  0  0  0  0  0  0  0  0  0  0
   14.5309  -14.0117   20.5769 C   0  0  0  0  0  0  0  0  0  0  0  0
   14.2141  -15.2866   20.0298 N   0  0  0  0  0  0  0  0  0  0  0  0
   14.9483  -15.7874   19.1190 N   0  0  0  0  0  0  0  0  0  0  0  0
   13.0778  -15.9730   20.5192 C   0  0  0  0  0  0  0  0  0  0  0  0
   13.2837  -17.0401   21.4703 C   0  0  0  0  0  0  0  0  0  0  0  0
   13.0210  -16.5599   22.9040 C   0  0  0  0  0  0  0  0  0  0  0  0
   12.2474  -17.6457   23.5849 C   0  0  1  0  0  0  0  0  0  0  0  0
   10.8874  -17.2471   24.0507 N   0  0  0  0  0  0  0  0  0  0  0  0
   10.1898  -16.7271   22.8789 C   0  0  0  0  0  0  0  0  0  0  0  0
   10.8609  -16.3026   25.1715 O   0  0  0  0  0  0  0  0  0  0  0  0
   10.9721  -15.0778   24.8914 C   0  0  0  0  0  0  0  0  0  0  0  0
   14.7944  -16.7489   18.7545 C   0  0  1  0  0  0  0  0  0  0  0  0
    6.8029  -14.1336   26.1241 C   0  0  0  0  0  0  0  0  0  0  0  0
    8.3712  -14.2163   26.1936 C   0  0  0  0  0  0  0  0  0  0  0  0
    8.7199  -13.0030   27.0463 C   0  0  1  0  0  0  0  0  0  0  0  0
    8.6313  -15.5250   26.8271 N   0  0  0  0  0  0  0  0  0  0  0  0
    9.9690  -15.7498   27.4254 C   0  0  0  0  0  0  0  0  0  0  0  0
   10.7145  -16.6633   26.5246 O   0  0  0  0  0  0  0  0  0  0  0  0
   10.0661  -16.2505   28.7860 O   0  0  0  0  0  0  0  0  0  0  0  0
  2  1  1  0
  3  2  2  0
  4  2  1  0
  5  4  1  0
  6  5  1  0
  7  6  1  0
  8  9  1  1
  8  7  1  0
 10  8  1  0
 10 11  2  0
 13 14  2  0
 13 12  1  0
 15 13  1  0
 15 16  1  0
 17 18  1  0
 17 16  1  0
 19 18  1  6
 19 20  1  0
 19 21  1  0
 20 10  1  0
 21 28  1  0
 21 22  2  0
 24 23  1  1
 24 25  1  0
 26 24  1  0
 27 26  1  1
 28 27  1  0
 29 30  1  0
 29 27  1  0
 31 29  2  0
M  END
$$$$
