RRL.pdb
     RDKit          3D

 31 30  0  0  1  0  0  0  0  0999 V2000
    8.2791  -14.9287   14.9505 N   0  0  0  0  0  0  0  0  0  0  0  0
    8.2846  -13.5171   14.8218 C   0  0  0  0  0  0  0  0  0  0  0  0
    8.2091  -12.9549   13.6445 N   0  0  0  0  0  0  0  0  0  0  0  0
    8.3712  -12.6512   15.9552 N   0  0  0  0  0  0  0  0  0  0  0  0
    8.5890  -13.1948   17.2791 C   0  0  0  0  0  0  0  0  0  0  0  0
    7.2589  -13.7135   17.8358 C   0  0  0  0  0  0  0  0  0  0  0  0
    7.5711  -14.3014   19.1818 C   0  0  0  0  0  0  0  0  0  0  0  0
    8.0763  -15.7287   19.0887 C   0  0  2  0  0  0  0  0  0  0  0  0
    7.2632  -16.5376   18.2342 N   0  0  0  0  0  0  0  0  0  0  0  0
    7.9861  -16.2675   20.4698 C   0  0  0  0  0  0  0  0  0  0  0  0
    6.8334  -16.5200   20.8879 O   0  0  0  0  0  0  0  0  0  0  0  0
    8.2128  -11.9154   13.5643 N   0  0  0  0  0  0  0  0  0  0  0  0
   12.6149  -18.3268   26.0610 C   0  0  0  0  0  0  0  0  0  0  0  0
   12.2307  -19.6836   26.2522 N   0  0  0  0  0  0  0  0  0  0  0  0
   12.4594  -20.2579   27.3644 N   0  0  0  0  0  0  0  0  0  0  0  0
   11.5960  -20.3667   25.1881 C   0  0  0  0  0  0  0  0  0  0  0  0
   11.4208  -19.6663   23.9372 C   0  0  0  0  0  0  0  0  0  0  0  0
   10.3041  -18.6189   24.0430 C   0  0  0  0  0  0  0  0  0  0  0  0
   10.1696  -17.9972   22.6877 C   0  0  1  0  0  0  0  0  0  0  0  0
    9.1065  -16.9563   22.5797 N   0  0  0  0  0  0  0  0  0  0  0  0
    9.1576  -16.4602   21.2081 C   0  0  0  0  0  0  0  0  0  0  0  0
    9.1906  -15.8708   23.5614 O   0  0  0  0  0  0  0  0  0  0  0  0
   10.1841  -15.0983   23.4777 C   0  0  0  0  0  0  0  0  0  0  0  0
   12.2288  -21.2590   27.5246 C   0  0  1  0  0  0  0  0  0  0  0  0
    7.8065  -11.4897   25.9629 C   0  0  0  0  0  0  0  0  0  0  0  0
    7.1221  -12.7071   26.6845 C   0  0  0  0  0  0  0  0  0  0  0  0
    5.7264  -12.1682   26.9710 C   0  0  1  0  0  0  0  0  0  0  0  0
    7.1832  -13.7936   25.6857 N   0  0  0  0  0  0  0  0  0  0  0  0
    8.4769  -14.4949   25.5052 C   0  0  0  0  0  0  0  0  0  0  0  0
    8.2456  -15.6289   24.5767 O   0  0  0  0  0  0  0  0  0  0  0  0
    9.1920  -14.9825   26.6723 O   0  0  0  0  0  0  0  0  0  0  0  0
  2  1  1  0
  3  2  2  0
  4  2  1  0
  5  4  1  0
  6  5  1  0
  7  6  1  0
  8  9  1  6
  8  7  1  0
 10  8  1  0
 10 11  2  0
 13 14  2  0
 13 12  1  0
 15 13  1  0
 15 16  1  0
 17 18  1  0
 17 16  1  0
 19 18  1  6
 19 20  1  0
 19 21  1  0
 20 10  1  0
 21 28  1  0
 21 22  2  0
 24 23  1  6
 24 25  1  0
 26 24  1  0
 27 26  1  1
 28 27  1  0
 29 30  1  0
 29 27  1  0
 31 29  2  0
M  END
$$$$
