FIN.pdb
     RDKit          3D

 28 28  0  0  1  0  0  0  0  0999 V2000
   27.8725  -21.3996  -16.0820 N   0  0  0  0  0  0  0  0  0  0  0  0
   27.5118  -20.3461  -15.1596 C   0  0  1  0  0  0  0  0  0  0  0  0
   26.8279  -19.1813  -15.8378 C   0  0  0  0  0  0  0  0  0  0  0  0
   27.7066  -18.4777  -16.7947 C   0  0  0  0  0  0  0  0  0  0  0  0
   28.8254  -17.8291  -16.2760 C   0  0  0  0  0  0  0  0  0  0  0  0
   29.7207  -17.1398  -17.0666 C   0  0  0  0  0  0  0  0  0  0  0  0
   29.4558  -17.1178  -18.4342 C   0  0  0  0  0  0  0  0  0  0  0  0
   28.3588  -17.7517  -18.9555 C   0  0  0  0  0  0  0  0  0  0  0  0
   27.4672  -18.4414  -18.1411 C   0  0  0  0  0  0  0  0  0  0  0  0
   26.5793  -20.9102  -14.1467 C   0  0  0  0  0  0  0  0  0  0  0  0
   25.9744  -21.9931  -14.3786 O   0  0  0  0  0  0  0  0  0  0  0  0
   25.4848  -21.2564   -8.1652 C   0  0  0  0  0  0  0  0  0  0  0  0
   24.9837  -21.4651   -9.5732 C   0  0  0  0  0  0  0  0  0  0  0  0
   25.8875  -20.7191  -10.5322 C   0  0  2  0  0  0  0  0  0  0  0  0
   25.8730  -19.2304  -10.2101 C   0  0  0  0  0  0  0  0  0  0  0  0
   25.4112  -20.8711  -11.9645 C   0  0  2  0  0  0  0  0  0  0  0  0
   26.3194  -20.2887  -12.9013 N   0  0  0  0  0  0  0  0  0  0  0  0
   24.0484  -20.2296  -12.0600 C   0  0  0  0  0  0  0  0  0  0  0  0
   23.9009  -18.9821  -12.0917 O   0  0  0  0  0  0  0  0  0  0  0  0
   20.0735  -18.7018  -15.0153 N   0  0  0  0  0  0  0  0  0  0  0  0
   20.3046  -20.0455  -14.6400 C   0  0  0  0  0  0  0  0  0  0  0  0
   19.3559  -20.8592  -14.6753 O   0  0  0  0  0  0  0  0  0  0  0  0
   21.6364  -20.5236  -14.2082 C   0  0  0  0  0  0  0  0  0  0  0  0
   21.6154  -20.5804  -12.6962 C   0  0  2  0  0  0  0  0  0  0  0  0
   22.8602  -21.0065  -12.1197 N   0  0  0  0  0  0  0  0  0  0  0  0
   20.4872  -21.4722  -12.3194 C   0  0  0  0  0  0  0  0  0  0  0  0
   19.2478  -20.9853  -11.9287 O   0  0  0  0  0  0  0  0  0  0  0  0
   20.6864  -22.7244  -12.3626 O   0  0  0  0  0  0  0  0  0  0  0  0
  2  1  1  6
  2  3  1  0
  4  3  1  0
  4  9  2  0
  5  4  1  0
  6  5  2  0
  6  7  1  0
  7  8  2  0
  8  9  1  0
 10  2  1  0
 11 10  2  0
 13 12  1  0
 14 13  1  0
 14 16  1  0
 14 15  1  1
 16 17  1  6
 17 10  1  0
 18 25  1  0
 18 16  1  0
 19 18  2  0
 21 22  2  0
 21 20  1  0
 23 21  1  0
 24 26  1  0
 24 23  1  6
 24 25  1  0
 26 27  1  0
 28 26  2  0
M  END
$$$$
