FIN.pdb
     RDKit          3D

 28 28  0  0  1  0  0  0  0  0999 V2000
   17.4303  -22.2336    4.9212 N   0  0  0  0  0  0  0  0  0  0  0  0
   18.3898  -22.8780    5.7902 C   0  0  1  0  0  0  0  0  0  0  0  0
   19.7566  -23.0108    5.1588 C   0  0  0  0  0  0  0  0  0  0  0  0
   19.7809  -23.9755    4.0401 C   0  0  0  0  0  0  0  0  0  0  0  0
   21.0281  -24.4278    3.6144 C   0  0  0  0  0  0  0  0  0  0  0  0
   21.1815  -25.3290    2.5817 C   0  0  0  0  0  0  0  0  0  0  0  0
   20.0141  -25.7785    1.9684 C   0  0  0  0  0  0  0  0  0  0  0  0
   18.7824  -25.3406    2.3784 C   0  0  0  0  0  0  0  0  0  0  0  0
   18.6488  -24.4309    3.4218 C   0  0  0  0  0  0  0  0  0  0  0  0
   18.5235  -22.0611    7.0265 C   0  0  0  0  0  0  0  0  0  0  0  0
   18.2533  -20.8287    7.0019 O   0  0  0  0  0  0  0  0  0  0  0  0
   17.1874  -24.1914   11.8372 C   0  0  0  0  0  0  0  0  0  0  0  0
   17.3540  -23.3165   10.6191 C   0  0  0  0  0  0  0  0  0  0  0  0
   18.6919  -22.6117   10.6994 C   0  0  2  0  0  0  0  0  0  0  0  0
   18.7020  -21.6462   11.8775 C   0  0  0  0  0  0  0  0  0  0  0  0
   18.9564  -21.7940    9.4492 C   0  0  2  0  0  0  0  0  0  0  0  0
   18.9488  -22.5960    8.2667 N   0  0  0  0  0  0  0  0  0  0  0  0
   20.2878  -21.1067    9.6297 C   0  0  0  0  0  0  0  0  0  0  0  0
   21.3753  -21.7314    9.5499 O   0  0  0  0  0  0  0  0  0  0  0  0
   23.1322  -15.5861    9.6835 N   0  0  0  0  0  0  0  0  0  0  0  0
   22.8765  -16.9741    9.7727 C   0  0  0  0  0  0  0  0  0  0  0  0
   23.8368  -17.7621    9.9148 O   0  0  0  0  0  0  0  0  0  0  0  0
   21.5060  -17.5272    9.7063 C   0  0  0  0  0  0  0  0  0  0  0  0
   21.5990  -18.9845   10.1030 C   0  0  2  0  0  0  0  0  0  0  0  0
   20.3788  -19.7146    9.8993 N   0  0  0  0  0  0  0  0  0  0  0  0
   22.0399  -19.0119   11.5225 C   0  0  0  0  0  0  0  0  0  0  0  0
   23.3211  -19.3885   11.9002 O   0  0  0  0  0  0  0  0  0  0  0  0
   21.1961  -18.6749   12.4080 O   0  0  0  0  0  0  0  0  0  0  0  0
  2  1  1  6
  2  3  1  0
  4  3  1  0
  4  9  2  0
  5  4  1  0
  6  5  2  0
  6  7  1  0
  7  8  2  0
  8  9  1  0
 10  2  1  0
 11 10  2  0
 13 12  1  0
 14 13  1  0
 14 16  1  0
 14 15  1  1
 16 17  1  6
 17 10  1  0
 18 25  1  0
 18 16  1  0
 19 18  2  0
 21 22  2  0
 21 20  1  0
 23 21  1  0
 24 26  1  0
 24 23  1  1
 24 25  1  0
 26 27  1  0
 28 26  2  0
M  END
$$$$
