FIN.pdb
     RDKit          3D

 28 28  0  0  1  0  0  0  0  0999 V2000
   27.4000  -18.4111   -8.3873 N   0  0  0  0  0  0  0  0  0  0  0  0
   27.2566  -19.8483   -8.4542 C   0  0  1  0  0  0  0  0  0  0  0  0
   26.7963  -20.4534   -7.1479 C   0  0  0  0  0  0  0  0  0  0  0  0
   27.7040  -20.1485   -6.0227 C   0  0  0  0  0  0  0  0  0  0  0  0
   28.6960  -21.0827   -5.7317 C   0  0  0  0  0  0  0  0  0  0  0  0
   29.6037  -20.9117   -4.7076 C   0  0  0  0  0  0  0  0  0  0  0  0
   29.4862  -19.7420   -3.9599 C   0  0  0  0  0  0  0  0  0  0  0  0
   28.5148  -18.8165   -4.2367 C   0  0  0  0  0  0  0  0  0  0  0  0
   27.6083  -19.0077   -5.2738 C   0  0  0  0  0  0  0  0  0  0  0  0
   26.2473  -20.1695   -9.4992 C   0  0  0  0  0  0  0  0  0  0  0  0
   25.1277  -19.5873   -9.4966 O   0  0  0  0  0  0  0  0  0  0  0  0
   28.1895  -19.4455  -13.3579 C   0  0  0  0  0  0  0  0  0  0  0  0
   28.2895  -20.8693  -12.8683 C   0  0  0  0  0  0  0  0  0  0  0  0
   26.9126  -21.4989  -12.9029 C   0  0  2  0  0  0  0  0  0  0  0  0
   26.2639  -21.2580  -14.2598 C   0  0  0  0  0  0  0  0  0  0  0  0
   26.0023  -20.8836  -11.8568 C   0  0  2  0  0  0  0  0  0  0  0  0
   26.4708  -21.1172  -10.5273 N   0  0  0  0  0  0  0  0  0  0  0  0
   24.6240  -21.4652  -12.0561 C   0  0  0  0  0  0  0  0  0  0  0  0
   24.4327  -22.7028  -12.1600 O   0  0  0  0  0  0  0  0  0  0  0  0
   19.0210  -21.3978  -11.3565 N   0  0  0  0  0  0  0  0  0  0  0  0
   19.7597  -20.6857  -12.3297 C   0  0  0  0  0  0  0  0  0  0  0  0
   19.2920  -20.5679  -13.4832 O   0  0  0  0  0  0  0  0  0  0  0  0
   21.0708  -20.0705  -12.0272 C   0  0  0  0  0  0  0  0  0  0  0  0
   22.1276  -21.1051  -12.3477 C   0  0  2  0  0  0  0  0  0  0  0  0
   23.4700  -20.6400  -12.1358 N   0  0  0  0  0  0  0  0  0  0  0  0
   21.8952  -21.5295  -13.7534 C   0  0  0  0  0  0  0  0  0  0  0  0
   21.2423  -22.7097  -14.0797 O   0  0  0  0  0  0  0  0  0  0  0  0
   22.3193  -20.7689  -14.6761 O   0  0  0  0  0  0  0  0  0  0  0  0
  2  1  1  1
  2  3  1  0
  4  3  1  0
  4  9  2  0
  5  4  1  0
  6  5  2  0
  6  7  1  0
  7  8  2  0
  8  9  1  0
 10  2  1  0
 11 10  2  0
 13 12  1  0
 14 13  1  0
 14 16  1  0
 14 15  1  6
 16 17  1  1
 17 10  1  0
 18 25  1  0
 18 16  1  0
 19 18  2  0
 21 22  2  0
 21 20  1  0
 23 21  1  0
 24 26  1  0
 24 23  1  6
 24 25  1  0
 26 27  1  0
 28 26  2  0
M  END
$$$$
