FIN.pdb
     RDKit          3D

 28 28  0  0  1  0  0  0  0  0999 V2000
   27.7589  -19.9848  -17.6049 N   0  0  0  0  0  0  0  0  0  0  0  0
   27.2070  -19.1996  -16.5235 C   0  0  1  0  0  0  0  0  0  0  0  0
   26.1430  -18.2307  -16.9856 C   0  0  0  0  0  0  0  0  0  0  0  0
   26.6768  -17.1660  -17.8598 C   0  0  0  0  0  0  0  0  0  0  0  0
   27.2162  -16.0411  -17.2392 C   0  0  0  0  0  0  0  0  0  0  0  0
   27.7460  -14.9819  -17.9458 C   0  0  0  0  0  0  0  0  0  0  0  0
   27.7196  -15.0843  -19.3350 C   0  0  0  0  0  0  0  0  0  0  0  0
   27.1916  -16.1853  -19.9563 C   0  0  0  0  0  0  0  0  0  0  0  0
   26.6616  -17.2432  -19.2256 C   0  0  0  0  0  0  0  0  0  0  0  0
   26.5955  -20.1288  -15.5354 C   0  0  0  0  0  0  0  0  0  0  0  0
   26.0693  -21.2078  -15.9243 O   0  0  0  0  0  0  0  0  0  0  0  0
   28.6941  -20.9626  -10.5643 C   0  0  0  0  0  0  0  0  0  0  0  0
   28.0760  -21.1438  -11.9289 C   0  0  0  0  0  0  0  0  0  0  0  0
   26.6147  -20.7523  -11.8625 C   0  0  2  0  0  0  0  0  0  0  0  0
   25.8534  -21.7297  -10.9763 C   0  0  0  0  0  0  0  0  0  0  0  0
   25.9717  -20.8002  -13.2357 C   0  0  2  0  0  0  0  0  0  0  0  0
   26.5651  -19.8700  -14.1436 N   0  0  0  0  0  0  0  0  0  0  0  0
   24.4995  -20.5198  -13.0575 C   0  0  0  0  0  0  0  0  0  0  0  0
   24.0741  -19.3869  -12.7186 O   0  0  0  0  0  0  0  0  0  0  0  0
   19.2156  -21.2820  -14.7726 N   0  0  0  0  0  0  0  0  0  0  0  0
   19.8888  -22.0900  -13.8272 C   0  0  0  0  0  0  0  0  0  0  0  0
   19.2531  -22.5420  -12.8501 O   0  0  0  0  0  0  0  0  0  0  0  0
   21.3246  -22.4224  -13.9573 C   0  0  0  0  0  0  0  0  0  0  0  0
   22.0973  -21.3115  -13.2800 C   0  0  2  0  0  0  0  0  0  0  0  0
   23.5176  -21.5256  -13.2651 N   0  0  0  0  0  0  0  0  0  0  0  0
   21.5351  -21.1758  -11.9104 C   0  0  0  0  0  0  0  0  0  0  0  0
   22.2027  -21.6264  -10.7803 O   0  0  0  0  0  0  0  0  0  0  0  0
   20.3987  -20.6243  -11.7921 O   0  0  0  0  0  0  0  0  0  0  0  0
  2  1  1  6
  2  3  1  0
  4  3  1  0
  4  9  2  0
  5  4  1  0
  6  5  2  0
  6  7  1  0
  7  8  2  0
  8  9  1  0
 10  2  1  0
 11 10  2  0
 13 12  1  0
 14 13  1  0
 14 16  1  0
 14 15  1  1
 16 17  1  6
 17 10  1  0
 18 25  1  0
 18 16  1  0
 19 18  2  0
 21 22  2  0
 21 20  1  0
 23 21  1  0
 24 26  1  0
 24 23  1  1
 24 25  1  0
 26 27  1  0
 28 26  2  0
M  END
$$$$
