FIN.pdb
     RDKit          3D

 28 28  0  0  1  0  0  0  0  0999 V2000
   15.1924  -12.9559  -16.2793 N   0  0  0  0  0  0  0  0  0  0  0  0
   16.1151  -12.0672  -15.6088 C   0  0  1  0  0  0  0  0  0  0  0  0
   17.4649  -12.0035  -16.2858 C   0  0  0  0  0  0  0  0  0  0  0  0
   18.1888  -13.2908  -16.2453 C   0  0  0  0  0  0  0  0  0  0  0  0
   19.1333  -13.4604  -15.2350 C   0  0  0  0  0  0  0  0  0  0  0  0
   19.8719  -14.6161  -15.0915 C   0  0  0  0  0  0  0  0  0  0  0  0
   19.6303  -15.6289  -16.0172 C   0  0  0  0  0  0  0  0  0  0  0  0
   18.7043  -15.4734  -17.0148 C   0  0  0  0  0  0  0  0  0  0  0  0
   17.9697  -14.2996  -17.1429 C   0  0  0  0  0  0  0  0  0  0  0  0
   15.5288  -10.6997  -15.6059 C   0  0  0  0  0  0  0  0  0  0  0  0
   14.9752  -10.2473  -16.6457 O   0  0  0  0  0  0  0  0  0  0  0  0
   11.6277   -9.1004  -12.7779 C   0  0  0  0  0  0  0  0  0  0  0  0
   12.6941   -9.2867  -13.8291 C   0  0  0  0  0  0  0  0  0  0  0  0
   13.8577   -8.3692  -13.5168 C   0  0  2  0  0  0  0  0  0  0  0  0
   13.4085   -6.9155  -13.5890 C   0  0  0  0  0  0  0  0  0  0  0  0
   14.9774   -8.5416  -14.5257 C   0  0  2  0  0  0  0  0  0  0  0  0
   15.5547   -9.8477  -14.4752 N   0  0  0  0  0  0  0  0  0  0  0  0
   16.0120   -7.4803  -14.2411 C   0  0  0  0  0  0  0  0  0  0  0  0
   17.1231   -7.7560  -13.7228 O   0  0  0  0  0  0  0  0  0  0  0  0
   19.5232   -3.4556  -16.1229 N   0  0  0  0  0  0  0  0  0  0  0  0
   18.9400   -4.2426  -15.1029 C   0  0  0  0  0  0  0  0  0  0  0  0
   19.2640   -4.0349  -13.9133 O   0  0  0  0  0  0  0  0  0  0  0  0
   17.9536   -5.3054  -15.3966 C   0  0  0  0  0  0  0  0  0  0  0  0
   16.7668   -5.0686  -14.4882 C   0  0  2  0  0  0  0  0  0  0  0  0
   15.7812   -6.1119  -14.5464 N   0  0  0  0  0  0  0  0  0  0  0  0
   16.2046   -3.7432  -14.8592 C   0  0  0  0  0  0  0  0  0  0  0  0
   15.3021   -3.5790  -15.9005 O   0  0  0  0  0  0  0  0  0  0  0  0
   16.5784   -2.7353  -14.1853 O   0  0  0  0  0  0  0  0  0  0  0  0
  2  1  1  6
  2  3  1  0
  4  3  1  0
  4  9  2  0
  5  4  1  0
  6  5  2  0
  6  7  1  0
  7  8  2  0
  8  9  1  0
 10  2  1  0
 11 10  2  0
 13 12  1  0
 14 13  1  0
 14 16  1  0
 14 15  1  6
 16 17  1  1
 17 10  1  0
 18 25  1  0
 18 16  1  0
 19 18  2  0
 21 22  2  0
 21 20  1  0
 23 21  1  0
 24 26  1  0
 24 23  1  6
 24 25  1  0
 26 27  1  0
 28 26  2  0
M  END
$$$$
