FIN.pdb
     RDKit          3D

 28 28  0  0  1  0  0  0  0  0999 V2000
   26.9045  -18.3542   -8.0852 N   0  0  0  0  0  0  0  0  0  0  0  0
   26.9676  -19.7703   -8.3707 C   0  0  1  0  0  0  0  0  0  0  0  0
   26.6602  -20.6264   -7.1636 C   0  0  0  0  0  0  0  0  0  0  0  0
   27.6430  -20.4560   -6.0737 C   0  0  0  0  0  0  0  0  0  0  0  0
   27.1494  -20.1102   -4.8174 C   0  0  0  0  0  0  0  0  0  0  0  0
   27.9654  -19.9242   -3.7213 C   0  0  0  0  0  0  0  0  0  0  0  0
   29.3324  -20.0999   -3.9252 C   0  0  0  0  0  0  0  0  0  0  0  0
   29.8291  -20.4397   -5.1559 C   0  0  0  0  0  0  0  0  0  0  0  0
   28.9895  -20.6224   -6.2493 C   0  0  0  0  0  0  0  0  0  0  0  0
   25.9686  -20.0791   -9.4292 C   0  0  0  0  0  0  0  0  0  0  0  0
   24.8228  -19.5516   -9.3899 O   0  0  0  0  0  0  0  0  0  0  0  0
   29.0665  -19.7606  -13.5272 C   0  0  0  0  0  0  0  0  0  0  0  0
   27.9582  -19.6644  -12.5078 C   0  0  0  0  0  0  0  0  0  0  0  0
   26.8856  -20.6769  -12.8507 C   0  0  2  0  0  0  0  0  0  0  0  0
   26.2661  -20.3421  -14.2015 C   0  0  0  0  0  0  0  0  0  0  0  0
   25.7654  -20.6562  -11.8279 C   0  0  2  0  0  0  0  0  0  0  0  0
   26.2304  -20.9551  -10.5103 N   0  0  0  0  0  0  0  0  0  0  0  0
   24.7244  -21.6534  -12.2747 C   0  0  0  0  0  0  0  0  0  0  0  0
   24.6378  -22.7986  -11.7646 O   0  0  0  0  0  0  0  0  0  0  0  0
   19.9188  -22.6591  -12.2746 N   0  0  0  0  0  0  0  0  0  0  0  0
   20.3200  -21.3383  -11.9678 C   0  0  0  0  0  0  0  0  0  0  0  0
   19.4498  -20.4912  -11.6705 O   0  0  0  0  0  0  0  0  0  0  0  0
   21.7402  -20.9240  -11.9839 C   0  0  0  0  0  0  0  0  0  0  0  0
   22.3672  -21.5470  -13.2122 C   0  0  2  0  0  0  0  0  0  0  0  0
   23.7869  -21.3463  -13.2973 N   0  0  0  0  0  0  0  0  0  0  0  0
   21.6490  -20.9869  -14.3872 C   0  0  0  0  0  0  0  0  0  0  0  0
   22.1999  -20.9683  -15.6608 O   0  0  0  0  0  0  0  0  0  0  0  0
   20.4883  -20.5113  -14.1964 O   0  0  0  0  0  0  0  0  0  0  0  0
  2  1  1  1
  2  3  1  0
  4  3  1  0
  4  9  2  0
  5  4  1  0
  6  5  2  0
  6  7  1  0
  7  8  2  0
  8  9  1  0
 10  2  1  0
 11 10  2  0
 13 12  1  0
 14 13  1  0
 14 16  1  0
 14 15  1  6
 16 17  1  1
 17 10  1  0
 18 25  1  0
 18 16  1  0
 19 18  2  0
 21 22  2  0
 21 20  1  0
 23 21  1  0
 24 26  1  0
 24 23  1  1
 24 25  1  0
 26 27  1  0
 28 26  2  0
M  END
$$$$
