FIN.pdb
     RDKit          3D

 28 28  0  0  1  0  0  0  0  0999 V2000
   20.2581  -15.2795  -17.2518 N   0  0  0  0  0  0  0  0  0  0  0  0
   19.3244  -14.3835  -17.8969 C   0  0  1  0  0  0  0  0  0  0  0  0
   17.9694  -14.3669  -17.2275 C   0  0  0  0  0  0  0  0  0  0  0  0
   17.2637  -15.6611  -17.3278 C   0  0  0  0  0  0  0  0  0  0  0  0
   17.1580  -16.4222  -16.1655 C   0  0  0  0  0  0  0  0  0  0  0  0
   16.5224  -17.6456  -16.1308 C   0  0  0  0  0  0  0  0  0  0  0  0
   15.9785  -18.0993  -17.3306 C   0  0  0  0  0  0  0  0  0  0  0  0
   16.0765  -17.3597  -18.4797 C   0  0  0  0  0  0  0  0  0  0  0  0
   16.7221  -16.1281  -18.4940 C   0  0  0  0  0  0  0  0  0  0  0  0
   19.8869  -13.0069  -17.8474 C   0  0  0  0  0  0  0  0  0  0  0  0
   20.7779  -12.7184  -17.0017 O   0  0  0  0  0  0  0  0  0  0  0  0
   21.8380   -8.4965  -21.2470 C   0  0  0  0  0  0  0  0  0  0  0  0
   21.2778   -8.8691  -19.8964 C   0  0  0  0  0  0  0  0  0  0  0  0
   20.5987  -10.2186  -20.0012 C   0  0  2  0  0  0  0  0  0  0  0  0
   19.4040  -10.1287  -20.9418 C   0  0  0  0  0  0  0  0  0  0  0  0
   20.0727  -10.6735  -18.6529 C   0  0  2  0  0  0  0  0  0  0  0  0
   19.4717  -11.9683  -18.7156 N   0  0  0  0  0  0  0  0  0  0  0  0
   19.0819   -9.6382  -18.1796 C   0  0  0  0  0  0  0  0  0  0  0  0
   19.4251   -8.4568  -17.9233 O   0  0  0  0  0  0  0  0  0  0  0  0
   14.9053   -7.2049  -16.7823 N   0  0  0  0  0  0  0  0  0  0  0  0
   14.4084   -8.4605  -17.2025 C   0  0  0  0  0  0  0  0  0  0  0  0
   13.1721   -8.6332  -17.2734 O   0  0  0  0  0  0  0  0  0  0  0  0
   15.3052   -9.5798  -17.5651 C   0  0  0  0  0  0  0  0  0  0  0  0
   16.7235   -9.0699  -17.4298 C   0  0  2  0  0  0  0  0  0  0  0  0
   17.7069   -9.9481  -18.0000 N   0  0  0  0  0  0  0  0  0  0  0  0
   16.9543   -8.8335  -15.9803 C   0  0  0  0  0  0  0  0  0  0  0  0
   17.0306   -7.5603  -15.4333 O   0  0  0  0  0  0  0  0  0  0  0  0
   17.0849   -9.8492  -15.2313 O   0  0  0  0  0  0  0  0  0  0  0  0
  2  1  1  1
  2  3  1  0
  4  3  1  0
  4  9  2  0
  5  4  1  0
  6  5  2  0
  6  7  1  0
  7  8  2  0
  8  9  1  0
 10  2  1  0
 11 10  2  0
 13 12  1  0
 14 13  1  0
 14 16  1  0
 14 15  1  6
 16 17  1  6
 17 10  1  0
 18 25  1  0
 18 16  1  0
 19 18  2  0
 21 22  2  0
 21 20  1  0
 23 21  1  0
 24 26  1  0
 24 23  1  1
 24 25  1  0
 26 27  1  0
 28 26  2  0
M  END
$$$$
