FIN.pdb
     RDKit          3D

 28 28  0  0  1  0  0  0  0  0999 V2000
   27.9976  -17.2405  -15.5269 N   0  0  0  0  0  0  0  0  0  0  0  0
   27.5131  -18.2998  -14.6703 C   0  0  1  0  0  0  0  0  0  0  0  0
   26.4770  -17.8243  -13.6779 C   0  0  0  0  0  0  0  0  0  0  0  0
   26.0551  -18.8824  -12.7371 C   0  0  0  0  0  0  0  0  0  0  0  0
   27.0018  -19.3370  -11.8214 C   0  0  0  0  0  0  0  0  0  0  0  0
   26.7289  -20.3191  -10.8925 C   0  0  0  0  0  0  0  0  0  0  0  0
   25.4408  -20.8497  -10.9070 C   0  0  0  0  0  0  0  0  0  0  0  0
   24.5017  -20.4107  -11.8028 C   0  0  0  0  0  0  0  0  0  0  0  0
   24.7968  -19.4193  -12.7322 C   0  0  0  0  0  0  0  0  0  0  0  0
   26.8939  -19.3474  -15.5264 C   0  0  0  0  0  0  0  0  0  0  0  0
   26.2250  -19.0176  -16.5443 O   0  0  0  0  0  0  0  0  0  0  0  0
   29.8085  -23.4632  -17.0438 C   0  0  0  0  0  0  0  0  0  0  0  0
   28.8209  -22.3241  -16.9811 C   0  0  0  0  0  0  0  0  0  0  0  0
   27.5164  -22.8355  -16.4067 C   0  0  2  0  0  0  0  0  0  0  0  0
   26.8707  -23.8180  -17.3752 C   0  0  0  0  0  0  0  0  0  0  0  0
   26.5296  -21.7030  -16.1949 C   0  0  2  0  0  0  0  0  0  0  0  0
   27.0109  -20.7335  -15.2620 N   0  0  0  0  0  0  0  0  0  0  0  0
   25.2330  -22.3134  -15.7218 C   0  0  0  0  0  0  0  0  0  0  0  0
   25.2050  -23.2516  -14.8862 O   0  0  0  0  0  0  0  0  0  0  0  0
   21.0233  -23.2769  -13.2203 N   0  0  0  0  0  0  0  0  0  0  0  0
   21.3387  -21.9468  -13.5828 C   0  0  0  0  0  0  0  0  0  0  0  0
   20.4745  -21.0550  -13.4374 O   0  0  0  0  0  0  0  0  0  0  0  0
   22.6624  -21.5730  -14.1274 C   0  0  0  0  0  0  0  0  0  0  0  0
   22.7106  -22.0766  -15.5536 C   0  0  2  0  0  0  0  0  0  0  0  0
   23.9750  -21.8562  -16.1986 N   0  0  0  0  0  0  0  0  0  0  0  0
   21.5894  -21.4190  -16.2752 C   0  0  0  0  0  0  0  0  0  0  0  0
   20.3512  -22.0230  -16.4420 O   0  0  0  0  0  0  0  0  0  0  0  0
   21.7937  -20.2605  -16.7504 O   0  0  0  0  0  0  0  0  0  0  0  0
  2  1  1  6
  2  3  1  0
  4  3  1  0
  4  9  2  0
  5  4  1  0
  6  5  2  0
  6  7  1  0
  7  8  2  0
  8  9  1  0
 10  2  1  0
 11 10  2  0
 13 12  1  0
 14 13  1  0
 14 16  1  0
 14 15  1  6
 16 17  1  1
 17 10  1  0
 18 25  1  0
 18 16  1  0
 19 18  2  0
 21 22  2  0
 21 20  1  0
 23 21  1  0
 24 26  1  0
 24 23  1  1
 24 25  1  0
 26 27  1  0
 28 26  2  0
M  END
$$$$
