FIN.pdb
     RDKit          3D

 28 28  0  0  1  0  0  0  0  0999 V2000
   22.1095  -13.2642  -19.3611 N   0  0  0  0  0  0  0  0  0  0  0  0
   22.7789  -12.0022  -19.5852 C   0  0  1  0  0  0  0  0  0  0  0  0
   21.9274  -11.0140  -20.3487 C   0  0  0  0  0  0  0  0  0  0  0  0
   21.6591  -11.4404  -21.7376 C   0  0  0  0  0  0  0  0  0  0  0  0
   22.6442  -11.1780  -22.6874 C   0  0  0  0  0  0  0  0  0  0  0  0
   22.5120  -11.5280  -24.0148 C   0  0  0  0  0  0  0  0  0  0  0  0
   21.3282  -12.1682  -24.3753 C   0  0  0  0  0  0  0  0  0  0  0  0
   20.3526  -12.4311  -23.4502 C   0  0  0  0  0  0  0  0  0  0  0  0
   20.5049  -12.0697  -22.1160 C   0  0  0  0  0  0  0  0  0  0  0  0
   23.1118  -11.4080  -18.2624 C   0  0  0  0  0  0  0  0  0  0  0  0
   22.2694  -11.4438  -17.3235 O   0  0  0  0  0  0  0  0  0  0  0  0
   27.8475  -12.0260  -15.8183 C   0  0  0  0  0  0  0  0  0  0  0  0
   26.3919  -11.8814  -16.1886 C   0  0  0  0  0  0  0  0  0  0  0  0
   26.0464  -10.4087  -16.2586 C   0  0  2  0  0  0  0  0  0  0  0  0
   26.1840   -9.7754  -14.8801 C   0  0  0  0  0  0  0  0  0  0  0  0
   24.6106  -10.2032  -16.7034 C   0  0  2  0  0  0  0  0  0  0  0  0
   24.3522  -10.7849  -17.9827 N   0  0  0  0  0  0  0  0  0  0  0  0
   24.3492   -8.7169  -16.7209 C   0  0  0  0  0  0  0  0  0  0  0  0
   24.8153   -7.9698  -17.6174 O   0  0  0  0  0  0  0  0  0  0  0  0
   22.4091   -4.1395  -15.9386 N   0  0  0  0  0  0  0  0  0  0  0  0
   21.9000   -4.9957  -16.9424 C   0  0  0  0  0  0  0  0  0  0  0  0
   21.1575   -4.5203  -17.8289 O   0  0  0  0  0  0  0  0  0  0  0  0
   22.2199   -6.4396  -16.9809 C   0  0  0  0  0  0  0  0  0  0  0  0
   23.0808   -6.7328  -15.7715 C   0  0  2  0  0  0  0  0  0  0  0  0
   23.5602   -8.0860  -15.7217 N   0  0  0  0  0  0  0  0  0  0  0  0
   22.2702   -6.3796  -14.5763 C   0  0  0  0  0  0  0  0  0  0  0  0
   22.3453   -5.1372  -13.9627 O   0  0  0  0  0  0  0  0  0  0  0  0
   21.4858   -7.2634  -14.1144 O   0  0  0  0  0  0  0  0  0  0  0  0
  2  1  1  1
  2  3  1  0
  4  3  1  0
  4  9  2  0
  5  4  1  0
  6  5  2  0
  6  7  1  0
  7  8  2  0
  8  9  1  0
 10  2  1  0
 11 10  2  0
 13 12  1  0
 14 13  1  0
 14 16  1  0
 14 15  1  1
 16 17  1  6
 17 10  1  0
 18 25  1  0
 18 16  1  0
 19 18  2  0
 21 22  2  0
 21 20  1  0
 23 21  1  0
 24 26  1  0
 24 23  1  6
 24 25  1  0
 26 27  1  0
 28 26  2  0
M  END
$$$$
