FIN.pdb
     RDKit          3D

 28 28  0  0  1  0  0  0  0  0999 V2000
   28.4659  -21.3565   -9.1317 N   0  0  0  0  0  0  0  0  0  0  0  0
   27.1481  -20.7971   -8.9282 C   0  0  1  0  0  0  0  0  0  0  0  0
   27.1675  -19.5404   -8.0887 C   0  0  0  0  0  0  0  0  0  0  0  0
   27.7930  -19.7434   -6.7657 C   0  0  0  0  0  0  0  0  0  0  0  0
   27.0301  -20.3821   -5.7903 C   0  0  0  0  0  0  0  0  0  0  0  0
   27.5024  -20.6302   -4.5186 C   0  0  0  0  0  0  0  0  0  0  0  0
   28.8009  -20.2073   -4.2427 C   0  0  0  0  0  0  0  0  0  0  0  0
   29.5602  -19.5782   -5.1938 C   0  0  0  0  0  0  0  0  0  0  0  0
   29.0654  -19.3368   -6.4708 C   0  0  0  0  0  0  0  0  0  0  0  0
   26.5719  -20.4618  -10.2583 C   0  0  0  0  0  0  0  0  0  0  0  0
   27.2698  -19.8501  -11.1134 O   0  0  0  0  0  0  0  0  0  0  0  0
   25.4553  -22.3758  -15.2712 C   0  0  0  0  0  0  0  0  0  0  0  0
   24.9384  -21.2879  -14.3623 C   0  0  0  0  0  0  0  0  0  0  0  0
   25.2632  -21.6499  -12.9282 C   0  0  2  0  0  0  0  0  0  0  0  0
   24.5518  -22.9405  -12.5430 C   0  0  0  0  0  0  0  0  0  0  0  0
   24.7872  -20.5742  -11.9703 C   0  0  2  0  0  0  0  0  0  0  0  0
   25.2486  -20.7952  -10.6361 N   0  0  0  0  0  0  0  0  0  0  0  0
   23.2792  -20.5521  -12.0257 C   0  0  0  0  0  0  0  0  0  0  0  0
   22.5749  -21.2639  -11.2665 O   0  0  0  0  0  0  0  0  0  0  0  0
   18.9774  -18.4531  -11.8609 N   0  0  0  0  0  0  0  0  0  0  0  0
   19.5574  -17.7556  -12.9457 C   0  0  0  0  0  0  0  0  0  0  0  0
   19.0815  -16.6495  -13.2825 O   0  0  0  0  0  0  0  0  0  0  0  0
   20.7143  -18.2909  -13.6966 C   0  0  0  0  0  0  0  0  0  0  0  0
   21.1521  -19.5549  -12.9892 C   0  0  2  0  0  0  0  0  0  0  0  0
   22.5780  -19.7224  -12.9417 N   0  0  0  0  0  0  0  0  0  0  0  0
   20.4764  -20.6849  -13.6797 C   0  0  0  0  0  0  0  0  0  0  0  0
   19.2555  -21.1944  -13.2606 O   0  0  0  0  0  0  0  0  0  0  0  0
   21.0558  -21.1895  -14.6893 O   0  0  0  0  0  0  0  0  0  0  0  0
  2  1  1  6
  2  3  1  0
  4  3  1  0
  4  9  2  0
  5  4  1  0
  6  5  2  0
  6  7  1  0
  7  8  2  0
  8  9  1  0
 10  2  1  0
 11 10  2  0
 13 12  1  0
 14 13  1  0
 14 16  1  0
 14 15  1  1
 16 17  1  1
 17 10  1  0
 18 25  1  0
 18 16  1  0
 19 18  2  0
 21 22  2  0
 21 20  1  0
 23 21  1  0
 24 26  1  0
 24 23  1  6
 24 25  1  0
 26 27  1  0
 28 26  2  0
M  END
$$$$
