FIN.pdb
     RDKit          3D

 28 28  0  0  1  0  0  0  0  0999 V2000
   26.0489  -25.5263  -15.5575 N   0  0  0  0  0  0  0  0  0  0  0  0
   26.2005  -24.0949  -15.6947 C   0  0  1  0  0  0  0  0  0  0  0  0
   25.9287  -23.6081  -17.0996 C   0  0  0  0  0  0  0  0  0  0  0  0
   26.9153  -24.1054  -18.0804 C   0  0  0  0  0  0  0  0  0  0  0  0
   28.0510  -23.3269  -18.2941 C   0  0  0  0  0  0  0  0  0  0  0  0
   29.0435  -23.6845  -19.1824 C   0  0  0  0  0  0  0  0  0  0  0  0
   28.8608  -24.8812  -19.8720 C   0  0  0  0  0  0  0  0  0  0  0  0
   27.7482  -25.6547  -19.6702 C   0  0  0  0  0  0  0  0  0  0  0  0
   26.7581  -25.2763  -18.7701 C   0  0  0  0  0  0  0  0  0  0  0  0
   25.2361  -23.4322  -14.7757 C   0  0  0  0  0  0  0  0  0  0  0  0
   24.2658  -24.0843  -14.3006 O   0  0  0  0  0  0  0  0  0  0  0  0
   26.5726  -21.6051  -10.2725 C   0  0  0  0  0  0  0  0  0  0  0  0
   25.7809  -22.1615  -11.4303 C   0  0  0  0  0  0  0  0  0  0  0  0
   25.1531  -21.0139  -12.1932 C   0  0  2  0  0  0  0  0  0  0  0  0
   24.1124  -20.3189  -11.3248 C   0  0  0  0  0  0  0  0  0  0  0  0
   24.4391  -21.5084  -13.4370 C   0  0  2  0  0  0  0  0  0  0  0  0
   25.3413  -22.0739  -14.3899 N   0  0  0  0  0  0  0  0  0  0  0  0
   23.6915  -20.3375  -14.0268 C   0  0  0  0  0  0  0  0  0  0  0  0
   24.2810  -19.2948  -14.4069 O   0  0  0  0  0  0  0  0  0  0  0  0
   20.8874  -21.7273  -15.5921 N   0  0  0  0  0  0  0  0  0  0  0  0
   20.8932  -20.6775  -16.5396 C   0  0  0  0  0  0  0  0  0  0  0  0
   20.5486  -20.9183  -17.7171 O   0  0  0  0  0  0  0  0  0  0  0  0
   21.2919  -19.2982  -16.1827 C   0  0  0  0  0  0  0  0  0  0  0  0
   21.4832  -19.2691  -14.6819 C   0  0  2  0  0  0  0  0  0  0  0  0
   22.2793  -20.3556  -14.1828 N   0  0  0  0  0  0  0  0  0  0  0  0
   20.1241  -19.2455  -14.0799 C   0  0  0  0  0  0  0  0  0  0  0  0
   19.2381  -18.1954  -14.2752 O   0  0  0  0  0  0  0  0  0  0  0  0
   19.7806  -20.2336  -13.3621 O   0  0  0  0  0  0  0  0  0  0  0  0
  2  1  1  6
  2  3  1  0
  4  3  1  0
  4  9  2  0
  5  4  1  0
  6  5  2  0
  6  7  1  0
  7  8  2  0
  8  9  1  0
 10  2  1  0
 11 10  2  0
 13 12  1  0
 14 13  1  0
 14 16  1  0
 14 15  1  1
 16 17  1  6
 17 10  1  0
 18 25  1  0
 18 16  1  0
 19 18  2  0
 21 22  2  0
 21 20  1  0
 23 21  1  0
 24 26  1  0
 24 23  1  6
 24 25  1  0
 26 27  1  0
 28 26  2  0
M  END
$$$$
