FIN.pdb
     RDKit          3D

 28 28  0  0  1  0  0  0  0  0999 V2000
   29.8113  -26.8990  -16.2577 N   0  0  0  0  0  0  0  0  0  0  0  0
   28.6256  -27.7011  -16.4615 C   0  0  1  0  0  0  0  0  0  0  0  0
   27.8269  -27.2710  -17.6704 C   0  0  0  0  0  0  0  0  0  0  0  0
   27.2443  -25.9213  -17.5229 C   0  0  0  0  0  0  0  0  0  0  0  0
   26.1032  -25.8017  -16.7322 C   0  0  0  0  0  0  0  0  0  0  0  0
   25.4684  -24.5964  -16.5172 C   0  0  0  0  0  0  0  0  0  0  0  0
   26.0260  -23.4794  -17.1356 C   0  0  0  0  0  0  0  0  0  0  0  0
   27.1475  -23.5850  -17.9153 C   0  0  0  0  0  0  0  0  0  0  0  0
   27.7730  -24.8100  -18.1203 C   0  0  0  0  0  0  0  0  0  0  0  0
   29.0455  -29.1150  -16.6578 C   0  0  0  0  0  0  0  0  0  0  0  0
   30.2491  -29.3857  -16.9231 O   0  0  0  0  0  0  0  0  0  0  0  0
   28.8100  -34.4841  -14.2477 C   0  0  0  0  0  0  0  0  0  0  0  0
   28.9217  -33.7711  -15.5729 C   0  0  0  0  0  0  0  0  0  0  0  0
   28.4521  -32.3415  -15.4031 C   0  0  2  0  0  0  0  0  0  0  0  0
   26.9699  -32.3184  -15.0526 C   0  0  0  0  0  0  0  0  0  0  0  0
   28.6197  -31.5534  -16.6885 C   0  0  2  0  0  0  0  0  0  0  0  0
   28.1517  -30.2091  -16.5637 N   0  0  0  0  0  0  0  0  0  0  0  0
   27.8714  -32.2895  -17.7729 C   0  0  0  0  0  0  0  0  0  0  0  0
   26.7605  -31.8901  -18.2036 O   0  0  0  0  0  0  0  0  0  0  0  0
   25.8556  -33.4902  -22.5175 N   0  0  0  0  0  0  0  0  0  0  0  0
   26.6551  -34.1536  -21.5579 C   0  0  0  0  0  0  0  0  0  0  0  0
   26.5379  -35.3905  -21.4182 O   0  0  0  0  0  0  0  0  0  0  0  0
   27.6311  -33.4312  -20.7128 C   0  0  0  0  0  0  0  0  0  0  0  0
   27.7640  -34.2146  -19.4250 C   0  0  2  0  0  0  0  0  0  0  0  0
   28.3874  -33.4743  -18.3636 N   0  0  0  0  0  0  0  0  0  0  0  0
   28.5103  -35.4567  -19.7575 C   0  0  0  0  0  0  0  0  0  0  0  0
   29.8941  -35.4937  -19.8552 O   0  0  0  0  0  0  0  0  0  0  0  0
   27.8367  -36.5131  -19.9570 O   0  0  0  0  0  0  0  0  0  0  0  0
  2  1  1  6
  2  3  1  0
  4  3  1  0
  4  9  2  0
  5  4  1  0
  6  5  2  0
  6  7  1  0
  7  8  2  0
  8  9  1  0
 10  2  1  0
 11 10  2  0
 13 12  1  0
 14 13  1  0
 14 16  1  0
 14 15  1  6
 16 17  1  1
 17 10  1  0
 18 25  1  0
 18 16  1  0
 19 18  2  0
 21 22  2  0
 21 20  1  0
 23 21  1  0
 24 26  1  0
 24 23  1  6
 24 25  1  0
 26 27  1  0
 28 26  2  0
M  END
$$$$
