HYL.pdb
     RDKit          3D

 31 32  0  0  1  0  0  0  0  0999 V2000
    7.6614  -21.5264   23.8046 N   0  0  0  0  0  0  0  0  0  0  0  0
    7.1297  -20.2449   24.1939 C   0  0  1  0  0  0  0  0  0  0  0  0
    7.3329  -20.1396   25.7111 C   0  0  0  0  0  0  0  0  0  0  0  0
    6.2241  -20.9010   26.3420 C   0  0  0  0  0  0  0  0  0  0  0  0
    5.2321  -21.6195   25.6619 C   0  0  0  0  0  0  0  0  0  0  0  0
    4.4079  -22.1721   26.5638 N   0  0  0  0  0  0  0  0  0  0  0  0
    4.8346  -21.8349   27.7872 C   0  0  0  0  0  0  0  0  0  0  0  0
    5.9369  -21.0636   27.6458 N   0  0  0  0  0  0  0  0  0  0  0  0
    7.8254  -19.1149   23.5171 C   0  0  0  0  0  0  0  0  0  0  0  0
    9.0692  -19.2173   23.3726 O   0  0  0  0  0  0  0  0  0  0  0  0
    9.0634  -11.5374   19.0934 O   0  0  0  0  0  0  0  0  0  0  0  0
    8.5033  -12.6406   19.7428 C   0  0  0  0  0  0  0  0  0  0  0  0
    7.6766  -12.5035   20.8407 C   0  0  0  0  0  0  0  0  0  0  0  0
    7.1075  -13.5631   21.5054 C   0  0  0  0  0  0  0  0  0  0  0  0
    7.3639  -14.8454   21.0668 C   0  0  0  0  0  0  0  0  0  0  0  0
    6.7509  -15.9713   21.7840 C   0  0  0  0  0  0  0  0  0  0  0  0
    7.6971  -16.8207   22.5850 C   0  0  2  0  0  0  0  0  0  0  0  0
    7.0727  -18.0114   23.0817 N   0  0  0  0  0  0  0  0  0  0  0  0
    8.4044  -16.0613   23.6130 C   0  0  0  0  0  0  0  0  0  0  0  0
    9.4264  -15.4002   23.3277 O   0  0  0  0  0  0  0  0  0  0  0  0
    8.1859  -15.0074   19.9731 C   0  0  0  0  0  0  0  0  0  0  0  0
    8.7412  -13.9343   19.3277 C   0  0  0  0  0  0  0  0  0  0  0  0
    7.5114  -12.1303   25.3899 C   0  0  0  0  0  0  0  0  0  0  0  0
    6.8463  -13.3535   25.9415 C   0  0  2  0  0  0  0  0  0  0  0  0
    5.7612  -12.8561   26.9131 C   0  0  0  0  0  0  0  0  0  0  0  0
    7.7132  -14.2681   26.7251 C   0  0  0  0  0  0  0  0  0  0  0  0
    8.6022  -15.1848   25.9628 C   0  0  2  0  0  0  0  0  0  0  0  0
    7.9838  -16.0220   24.9947 N   0  0  0  0  0  0  0  0  0  0  0  0
    9.5593  -15.9217   26.8460 C   0  0  0  0  0  0  0  0  0  0  0  0
    9.6416  -17.1672   26.7705 O   0  0  0  0  0  0  0  0  0  0  0  0
   10.3715  -15.2721   27.7591 O   0  0  0  0  0  0  0  0  0  0  0  0
  2  1  1  6
  2  3  1  0
  3  4  1  0
  4  5  2  0
  5  6  1  0
  7  6  1  0
  8  4  1  0
  8  7  2  0
  9 18  1  0
  9  2  1  0
 10  9  2  0
 11 12  1  0
 12 13  2  0
 13 14  1  0
 15 16  1  0
 15 14  2  0
 17 16  1  1
 17 18  1  0
 19 17  1  0
 20 19  2  0
 21 15  1  0
 22 21  2  0
 22 12  1  0
 24 23  1  1
 24 26  1  0
 25 24  1  0
 27 26  1  1
 27 29  1  0
 27 28  1  0
 28 19  1  0
 29 31  1  0
 30 29  2  0
M  END
$$$$
