HYL.pdb
     RDKit          3D

 31 32  0  0  1  0  0  0  0  0999 V2000
    9.9437  -16.6358   20.2032 N   0  0  0  0  0  0  0  0  0  0  0  0
    9.8897  -15.6526   21.2552 C   0  0  1  0  0  0  0  0  0  0  0  0
    8.4928  -15.0223   21.1816 C   0  0  0  0  0  0  0  0  0  0  0  0
    8.4122  -14.3193   19.8753 C   0  0  0  0  0  0  0  0  0  0  0  0
    9.0624  -13.1225   19.5470 C   0  0  0  0  0  0  0  0  0  0  0  0
    8.7511  -12.7974   18.2839 N   0  0  0  0  0  0  0  0  0  0  0  0
    7.9310  -13.7369   17.7966 C   0  0  0  0  0  0  0  0  0  0  0  0
    7.7293  -14.6574   18.7671 N   0  0  0  0  0  0  0  0  0  0  0  0
   10.0962  -16.2540   22.6024 C   0  0  0  0  0  0  0  0  0  0  0  0
    9.7069  -17.4378   22.7625 O   0  0  0  0  0  0  0  0  0  0  0  0
   11.5051  -16.3491   31.3715 O   0  0  0  0  0  0  0  0  0  0  0  0
   11.4786  -15.9863   30.0224 C   0  0  0  0  0  0  0  0  0  0  0  0
   12.0518  -16.7707   29.0406 C   0  0  0  0  0  0  0  0  0  0  0  0
   12.0462  -16.4480   27.7049 C   0  0  0  0  0  0  0  0  0  0  0  0
   11.4383  -15.2778   27.3004 C   0  0  0  0  0  0  0  0  0  0  0  0
   11.4376  -14.9417   25.8705 C   0  0  0  0  0  0  0  0  0  0  0  0
   10.6441  -15.8647   24.9892 C   0  0  2  0  0  0  0  0  0  0  0  0
   10.7037  -15.4844   23.6085 N   0  0  0  0  0  0  0  0  0  0  0  0
    9.2836  -16.0787   25.4763 C   0  0  0  0  0  0  0  0  0  0  0  0
    9.0714  -16.7859   26.4852 O   0  0  0  0  0  0  0  0  0  0  0  0
   10.8595  -14.4787   28.2619 C   0  0  0  0  0  0  0  0  0  0  0  0
   10.8786  -14.8229   29.5877 C   0  0  0  0  0  0  0  0  0  0  0  0
    7.0998  -12.5358   26.4732 C   0  0  0  0  0  0  0  0  0  0  0  0
    6.5817  -13.0796   25.1775 C   0  0  2  0  0  0  0  0  0  0  0  0
    5.4980  -12.0977   24.6977 C   0  0  0  0  0  0  0  0  0  0  0  0
    5.9306  -14.4113   25.2447 C   0  0  0  0  0  0  0  0  0  0  0  0
    6.8157  -15.5958   25.4033 C   0  0  2  0  0  0  0  0  0  0  0  0
    8.1192  -15.5036   24.8434 N   0  0  0  0  0  0  0  0  0  0  0  0
    6.1239  -16.8784   25.0638 C   0  0  0  0  0  0  0  0  0  0  0  0
    5.0271  -17.1533   25.5981 O   0  0  0  0  0  0  0  0  0  0  0  0
    6.6555  -17.7896   24.1679 O   0  0  0  0  0  0  0  0  0  0  0  0
  2  1  1  6
  2  3  1  0
  3  4  1  0
  4  5  2  0
  5  6  1  0
  7  6  1  0
  8  4  1  0
  8  7  2  0
  9 18  1  0
  9  2  1  0
 10  9  2  0
 11 12  1  0
 12 13  2  0
 13 14  1  0
 15 16  1  0
 15 14  2  0
 17 16  1  1
 17 18  1  0
 19 17  1  0
 20 19  2  0
 21 15  1  0
 22 21  2  0
 22 12  1  0
 24 23  1  1
 24 26  1  0
 25 24  1  0
 27 26  1  6
 27 29  1  0
 27 28  1  0
 28 19  1  0
 29 31  1  0
 30 29  2  0
M  END
$$$$
