HYL.pdb
     RDKit          3D

 31 32  0  0  1  0  0  0  0  0999 V2000
    8.2124  -19.2710   20.1378 N   0  0  0  0  0  0  0  0  0  0  0  0
    7.6642  -18.3912   21.1387 C   0  0  1  0  0  0  0  0  0  0  0  0
    7.2333  -19.2872   22.3073 C   0  0  0  0  0  0  0  0  0  0  0  0
    6.0525  -20.0577   21.8389 C   0  0  0  0  0  0  0  0  0  0  0  0
    5.4933  -20.0013   20.5557 C   0  0  0  0  0  0  0  0  0  0  0  0
    4.4428  -20.8332   20.5083 N   0  0  0  0  0  0  0  0  0  0  0  0
    4.3115  -21.4154   21.7069 C   0  0  0  0  0  0  0  0  0  0  0  0
    5.2913  -20.9406   22.5097 N   0  0  0  0  0  0  0  0  0  0  0  0
    8.6580  -17.3899   21.6169 C   0  0  0  0  0  0  0  0  0  0  0  0
    9.8501  -17.7741   21.7156 O   0  0  0  0  0  0  0  0  0  0  0  0
    8.1757  -13.5194   16.1838 O   0  0  0  0  0  0  0  0  0  0  0  0
    8.3088  -13.5609   17.5741 C   0  0  0  0  0  0  0  0  0  0  0  0
    9.4429  -14.0558   18.1877 C   0  0  0  0  0  0  0  0  0  0  0  0
    9.6108  -14.1130   19.5505 C   0  0  0  0  0  0  0  0  0  0  0  0
    8.6006  -13.6549   20.3702 C   0  0  0  0  0  0  0  0  0  0  0  0
    8.7896  -13.7203   21.8254 C   0  0  0  0  0  0  0  0  0  0  0  0
    9.1338  -15.0768   22.3730 C   0  0  2  0  0  0  0  0  0  0  0  0
    8.2235  -16.0907   21.9283 N   0  0  0  0  0  0  0  0  0  0  0  0
    9.3333  -15.0670   23.8201 C   0  0  0  0  0  0  0  0  0  0  0  0
   10.4054  -14.6543   24.3132 O   0  0  0  0  0  0  0  0  0  0  0  0
    7.4594  -13.1565   19.7809 C   0  0  0  0  0  0  0  0  0  0  0  0
    7.3164  -13.1103   18.4193 C   0  0  0  0  0  0  0  0  0  0  0  0
    8.3481  -12.0494   26.6373 C   0  0  0  0  0  0  0  0  0  0  0  0
    7.3610  -13.0991   26.2292 C   0  0  2  0  0  0  0  0  0  0  0  0
    5.9811  -12.6006   26.6938 C   0  0  0  0  0  0  0  0  0  0  0  0
    7.5437  -14.4378   26.8430 C   0  0  0  0  0  0  0  0  0  0  0  0
    8.4758  -15.3774   26.1648 C   0  0  2  0  0  0  0  0  0  0  0  0
    8.3324  -15.5212   24.7578 N   0  0  0  0  0  0  0  0  0  0  0  0
    8.5879  -16.6884   26.8772 C   0  0  0  0  0  0  0  0  0  0  0  0
    8.6889  -16.7117   28.1235 O   0  0  0  0  0  0  0  0  0  0  0  0
    8.5844  -17.8975   26.2039 O   0  0  0  0  0  0  0  0  0  0  0  0
  2  1  1  6
  2  3  1  0
  3  4  1  0
  4  5  2  0
  5  6  1  0
  7  6  1  0
  8  4  1  0
  8  7  2  0
  9 18  1  0
  9  2  1  0
 10  9  2  0
 11 12  1  0
 12 13  2  0
 13 14  1  0
 15 16  1  0
 15 14  2  0
 17 16  1  1
 17 18  1  0
 19 17  1  0
 20 19  2  0
 21 15  1  0
 22 21  2  0
 22 12  1  0
 24 23  1  1
 24 26  1  0
 25 24  1  0
 27 26  1  1
 27 29  1  0
 27 28  1  0
 28 19  1  0
 29 31  1  0
 30 29  2  0
M  END
$$$$
