HYL.pdb
     RDKit          3D

 31 32  0  0  1  0  0  0  0  0999 V2000
    9.5447  -16.5376   18.6819 N   0  0  0  0  0  0  0  0  0  0  0  0
    9.3218  -15.6870   19.8235 C   0  0  1  0  0  0  0  0  0  0  0  0
    7.8469  -15.2685   19.7646 C   0  0  0  0  0  0  0  0  0  0  0  0
    7.7073  -14.3680   18.5913 C   0  0  0  0  0  0  0  0  0  0  0  0
    7.0579  -14.6815   17.3901 C   0  0  0  0  0  0  0  0  0  0  0  0
    7.1367  -13.6230   16.5707 N   0  0  0  0  0  0  0  0  0  0  0  0
    7.8084  -12.6512   17.2007 C   0  0  0  0  0  0  0  0  0  0  0  0
    8.1518  -13.1095   18.4262 N   0  0  0  0  0  0  0  0  0  0  0  0
    9.5919  -16.3861   21.1109 C   0  0  0  0  0  0  0  0  0  0  0  0
    9.0923  -17.5302   21.2525 O   0  0  0  0  0  0  0  0  0  0  0  0
   15.3765  -14.6077   19.1087 O   0  0  0  0  0  0  0  0  0  0  0  0
   14.5896  -15.1816   20.1106 C   0  0  0  0  0  0  0  0  0  0  0  0
   14.5365  -14.6620   21.3892 C   0  0  0  0  0  0  0  0  0  0  0  0
   13.7754  -15.1977   22.4003 C   0  0  0  0  0  0  0  0  0  0  0  0
   13.0137  -16.3186   22.1443 C   0  0  0  0  0  0  0  0  0  0  0  0
   12.2036  -16.8837   23.2316 C   0  0  0  0  0  0  0  0  0  0  0  0
   10.7777  -16.4126   23.2884 C   0  0  2  0  0  0  0  0  0  0  0  0
   10.3761  -15.7458   22.0849 N   0  0  0  0  0  0  0  0  0  0  0  0
   10.4821  -15.6540   24.5013 C   0  0  0  0  0  0  0  0  0  0  0  0
   11.1089  -14.6053   24.7661 O   0  0  0  0  0  0  0  0  0  0  0  0
   13.0505  -16.8551   20.8758 C   0  0  0  0  0  0  0  0  0  0  0  0
   13.8177  -16.3021   19.8849 C   0  0  0  0  0  0  0  0  0  0  0  0
    8.7418  -12.2926   25.9174 C   0  0  0  0  0  0  0  0  0  0  0  0
    7.9222  -13.5456   25.8834 C   0  0  2  0  0  0  0  0  0  0  0  0
    6.4585  -13.1116   26.0786 C   0  0  0  0  0  0  0  0  0  0  0  0
    8.2041  -14.5366   26.9513 C   0  0  0  0  0  0  0  0  0  0  0  0
    9.3521  -15.4582   26.7404 C   0  0  2  0  0  0  0  0  0  0  0  0
    9.4717  -16.0519   25.4543 N   0  0  0  0  0  0  0  0  0  0  0  0
    9.5088  -16.4438   27.8553 C   0  0  0  0  0  0  0  0  0  0  0  0
    9.5208  -17.6689   27.6046 O   0  0  0  0  0  0  0  0  0  0  0  0
    9.6433  -16.0504   29.1754 O   0  0  0  0  0  0  0  0  0  0  0  0
  2  1  1  6
  2  3  1  0
  3  4  1  0
  4  5  2  0
  5  6  1  0
  7  6  1  0
  8  4  1  0
  8  7  2  0
  9 18  1  0
  9  2  1  0
 10  9  2  0
 11 12  1  0
 12 13  2  0
 13 14  1  0
 15 16  1  0
 15 14  2  0
 17 16  1  6
 17 18  1  0
 19 17  1  0
 20 19  2  0
 21 15  1  0
 22 21  2  0
 22 12  1  0
 24 23  1  1
 24 26  1  0
 25 24  1  0
 27 26  1  6
 27 29  1  0
 27 28  1  0
 28 19  1  0
 29 31  1  0
 30 29  2  0
M  END
$$$$
