HYL.pdb
     RDKit          3D

 31 32  0  0  1  0  0  0  0  0999 V2000
   11.4935  -16.7738   20.1721 N   0  0  0  0  0  0  0  0  0  0  0  0
   10.1254  -16.7043   20.6193 C   0  0  1  0  0  0  0  0  0  0  0  0
    9.6673  -18.1543   20.8239 C   0  0  0  0  0  0  0  0  0  0  0  0
    9.3748  -18.7019   19.4742 C   0  0  0  0  0  0  0  0  0  0  0  0
    8.4066  -18.2173   18.5851 C   0  0  0  0  0  0  0  0  0  0  0  0
    8.4349  -18.9634   17.4713 N   0  0  0  0  0  0  0  0  0  0  0  0
    9.3799  -19.9008   17.6157 C   0  0  0  0  0  0  0  0  0  0  0  0
    9.9465  -19.7367   18.8330 N   0  0  0  0  0  0  0  0  0  0  0  0
    9.9858  -15.9512   21.8970 C   0  0  0  0  0  0  0  0  0  0  0  0
   10.9878  -15.9252   22.6544 O   0  0  0  0  0  0  0  0  0  0  0  0
    6.0638  -11.1630   28.2807 O   0  0  0  0  0  0  0  0  0  0  0  0
    6.3597  -11.8145   27.0805 C   0  0  0  0  0  0  0  0  0  0  0  0
    7.3989  -11.4119   26.2645 C   0  0  0  0  0  0  0  0  0  0  0  0
    7.7205  -12.0265   25.0782 C   0  0  0  0  0  0  0  0  0  0  0  0
    6.9752  -13.1092   24.6604 C   0  0  0  0  0  0  0  0  0  0  0  0
    7.3270  -13.7593   23.3910 C   0  0  0  0  0  0  0  0  0  0  0  0
    8.5449  -14.6388   23.4299 C   0  0  2  0  0  0  0  0  0  0  0  0
    8.7652  -15.3192   22.1877 N   0  0  0  0  0  0  0  0  0  0  0  0
    8.5638  -15.5250   24.5910 C   0  0  0  0  0  0  0  0  0  0  0  0
    8.5275  -15.0582   25.7502 O   0  0  0  0  0  0  0  0  0  0  0  0
    5.9333  -13.5292   25.4579 C   0  0  0  0  0  0  0  0  0  0  0  0
    5.6329  -12.8993   26.6366 C   0  0  0  0  0  0  0  0  0  0  0  0
    5.6094  -18.9411   24.2831 C   0  0  0  0  0  0  0  0  0  0  0  0
    7.0644  -19.2918   24.2295 C   0  0  2  0  0  0  0  0  0  0  0  0
    7.1361  -20.7987   23.9247 C   0  0  0  0  0  0  0  0  0  0  0  0
    7.8293  -19.0884   25.4848 C   0  0  0  0  0  0  0  0  0  0  0  0
    8.5963  -17.8213   25.6181 C   0  0  2  0  0  0  0  0  0  0  0  0
    8.6241  -16.9646   24.4841 N   0  0  0  0  0  0  0  0  0  0  0  0
    9.9478  -18.0301   26.2254 C   0  0  0  0  0  0  0  0  0  0  0  0
   10.0624  -18.7132   27.2666 O   0  0  0  0  0  0  0  0  0  0  0  0
   11.0966  -17.4898   25.6742 O   0  0  0  0  0  0  0  0  0  0  0  0
  2  1  1  1
  2  3  1  0
  3  4  1  0
  4  5  2  0
  5  6  1  0
  7  6  1  0
  8  4  1  0
  8  7  2  0
  9 18  1  0
  9  2  1  0
 10  9  2  0
 11 12  1  0
 12 13  2  0
 13 14  1  0
 15 16  1  0
 15 14  2  0
 17 16  1  6
 17 18  1  0
 19 17  1  0
 20 19  2  0
 21 15  1  0
 22 21  2  0
 22 12  1  0
 24 23  1  1
 24 26  1  0
 25 24  1  0
 27 26  1  6
 27 29  1  0
 27 28  1  0
 28 19  1  0
 29 31  1  0
 30 29  2  0
M  END
$$$$
