HYL.pdb
     RDKit          3D

 31 32  0  0  1  0  0  0  0  0999 V2000
    9.0845  -16.4324   19.0872 N   0  0  0  0  0  0  0  0  0  0  0  0
    8.3662  -15.3309   19.6764 C   0  0  1  0  0  0  0  0  0  0  0  0
    7.2289  -14.9917   18.7041 C   0  0  0  0  0  0  0  0  0  0  0  0
    7.8665  -14.6557   17.4050 C   0  0  0  0  0  0  0  0  0  0  0  0
    7.9132  -15.4842   16.2761 C   0  0  0  0  0  0  0  0  0  0  0  0
    8.5695  -14.8418   15.2991 N   0  0  0  0  0  0  0  0  0  0  0  0
    8.9414  -13.6409   15.7599 C   0  0  0  0  0  0  0  0  0  0  0  0
    8.5119  -13.5342   17.0381 N   0  0  0  0  0  0  0  0  0  0  0  0
    7.7977  -15.6752   21.0096 C   0  0  0  0  0  0  0  0  0  0  0  0
    7.0711  -14.8098   21.5588 O   0  0  0  0  0  0  0  0  0  0  0  0
    7.9608  -19.9804   28.8085 O   0  0  0  0  0  0  0  0  0  0  0  0
    7.9482  -19.6556   27.4496 C   0  0  0  0  0  0  0  0  0  0  0  0
    9.1109  -19.5344   26.7138 C   0  0  0  0  0  0  0  0  0  0  0  0
    9.1392  -19.2169   25.3771 C   0  0  0  0  0  0  0  0  0  0  0  0
    7.9492  -19.0030   24.7134 C   0  0  0  0  0  0  0  0  0  0  0  0
    7.9901  -18.6641   23.2848 C   0  0  0  0  0  0  0  0  0  0  0  0
    7.8497  -17.2031   22.9619 C   0  0  2  0  0  0  0  0  0  0  0  0
    8.0954  -16.9253   21.5773 N   0  0  0  0  0  0  0  0  0  0  0  0
    8.6095  -16.3489   23.8712 C   0  0  0  0  0  0  0  0  0  0  0  0
    9.8509  -16.2473   23.7630 O   0  0  0  0  0  0  0  0  0  0  0  0
    6.7761  -19.1183   25.4266 C   0  0  0  0  0  0  0  0  0  0  0  0
    6.7747  -19.4361   26.7591 C   0  0  0  0  0  0  0  0  0  0  0  0
    5.7399  -12.4218   25.7176 C   0  0  0  0  0  0  0  0  0  0  0  0
    6.9622  -12.8979   26.4403 C   0  0  2  0  0  0  0  0  0  0  0  0
    7.3869  -11.7515   27.3753 C   0  0  0  0  0  0  0  0  0  0  0  0
    8.1431  -13.1981   25.5935 C   0  0  0  0  0  0  0  0  0  0  0  0
    8.6940  -14.5781   25.6562 C   0  0  2  0  0  0  0  0  0  0  0  0
    7.9962  -15.5821   24.9311 N   0  0  0  0  0  0  0  0  0  0  0  0
    9.0355  -14.9965   27.0516 C   0  0  0  0  0  0  0  0  0  0  0  0
    9.8472  -14.3213   27.7218 O   0  0  0  0  0  0  0  0  0  0  0  0
    8.4816  -16.1188   27.6425 O   0  0  0  0  0  0  0  0  0  0  0  0
  2  1  1  6
  2  3  1  0
  3  4  1  0
  4  5  2  0
  5  6  1  0
  7  6  1  0
  8  4  1  0
  8  7  2  0
  9 18  1  0
  9  2  1  0
 10  9  2  0
 11 12  1  0
 12 13  2  0
 13 14  1  0
 15 16  1  0
 15 14  2  0
 17 16  1  6
 17 18  1  0
 19 17  1  0
 20 19  2  0
 21 15  1  0
 22 21  2  0
 22 12  1  0
 24 23  1  6
 24 26  1  0
 25 24  1  0
 27 26  1  1
 27 29  1  0
 27 28  1  0
 28 19  1  0
 29 31  1  0
 30 29  2  0
M  END
$$$$
