HYL.pdb
     RDKit          3D

 31 32  0  0  1  0  0  0  0  0999 V2000
    7.0462  -18.2085   20.9253 N   0  0  0  0  0  0  0  0  0  0  0  0
    8.4203  -18.2033   20.4916 C   0  0  1  0  0  0  0  0  0  0  0  0
    8.3913  -18.4188   18.9728 C   0  0  0  0  0  0  0  0  0  0  0  0
    7.7093  -19.7182   18.7411 C   0  0  0  0  0  0  0  0  0  0  0  0
    8.2977  -20.9845   18.8544 C   0  0  0  0  0  0  0  0  0  0  0  0
    7.3740  -21.9141   18.5704 N   0  0  0  0  0  0  0  0  0  0  0  0
    6.2243  -21.2916   18.2818 C   0  0  0  0  0  0  0  0  0  0  0  0
    6.4344  -19.9594   18.3872 N   0  0  0  0  0  0  0  0  0  0  0  0
    9.1059  -16.9174   20.8008 C   0  0  0  0  0  0  0  0  0  0  0  0
    9.5011  -16.2342   19.8233 O   0  0  0  0  0  0  0  0  0  0  0  0
    8.7231  -12.6189   16.5944 O   0  0  0  0  0  0  0  0  0  0  0  0
    8.5932  -13.0581   17.9145 C   0  0  0  0  0  0  0  0  0  0  0  0
    7.3597  -13.2400   18.5088 C   0  0  0  0  0  0  0  0  0  0  0  0
    7.1916  -13.6701   19.8031 C   0  0  0  0  0  0  0  0  0  0  0  0
    8.3057  -13.9412   20.5696 C   0  0  0  0  0  0  0  0  0  0  0  0
    8.1154  -14.4004   21.9519 C   0  0  0  0  0  0  0  0  0  0  0  0
    9.2669  -15.1624   22.5450 C   0  0  2  0  0  0  0  0  0  0  0  0
    9.2743  -16.5382   22.1430 N   0  0  0  0  0  0  0  0  0  0  0  0
    9.3818  -14.9768   23.9894 C   0  0  0  0  0  0  0  0  0  0  0  0
   10.0629  -14.0399   24.4598 O   0  0  0  0  0  0  0  0  0  0  0  0
    9.5472  -13.7671   19.9983 C   0  0  0  0  0  0  0  0  0  0  0  0
    9.6881  -13.3371   18.7054 C   0  0  0  0  0  0  0  0  0  0  0  0
    8.1831  -12.3726   26.7162 C   0  0  0  0  0  0  0  0  0  0  0  0
    7.3168  -13.5273   26.3172 C   0  0  2  0  0  0  0  0  0  0  0  0
    5.8915  -13.1814   26.7833 C   0  0  0  0  0  0  0  0  0  0  0  0
    7.6478  -14.8339   26.9380 C   0  0  0  0  0  0  0  0  0  0  0  0
    8.7783  -15.6010   26.3506 C   0  0  2  0  0  0  0  0  0  0  0  0
    8.7338  -15.8399   24.9500 N   0  0  0  0  0  0  0  0  0  0  0  0
    9.1122  -16.8265   27.1416 C   0  0  0  0  0  0  0  0  0  0  0  0
    9.1938  -17.9341   26.5667 O   0  0  0  0  0  0  0  0  0  0  0  0
    9.3387  -16.7857   28.5063 O   0  0  0  0  0  0  0  0  0  0  0  0
  2  1  1  6
  2  3  1  0
  3  4  1  0
  4  5  2  0
  5  6  1  0
  7  6  1  0
  8  4  1  0
  8  7  2  0
  9 18  1  0
  9  2  1  0
 10  9  2  0
 11 12  1  0
 12 13  2  0
 13 14  1  0
 15 16  1  0
 15 14  2  0
 17 16  1  1
 17 18  1  0
 19 17  1  0
 20 19  2  0
 21 15  1  0
 22 21  2  0
 22 12  1  0
 24 23  1  1
 24 26  1  0
 25 24  1  0
 27 26  1  1
 27 29  1  0
 27 28  1  0
 28 19  1  0
 29 31  1  0
 30 29  2  0
M  END
$$$$
