HYL.pdb
     RDKit          3D

 31 32  0  0  1  0  0  0  0  0999 V2000
    6.0406  -16.4171   19.5298 N   0  0  0  0  0  0  0  0  0  0  0  0
    7.1860  -16.1366   20.3579 C   0  0  1  0  0  0  0  0  0  0  0  0
    7.4847  -14.6417   20.1843 C   0  0  0  0  0  0  0  0  0  0  0  0
    8.1168  -14.4870   18.8487 C   0  0  0  0  0  0  0  0  0  0  0  0
    7.7487  -13.5539   17.8707 C   0  0  0  0  0  0  0  0  0  0  0  0
    8.5431  -13.7155   16.8026 N   0  0  0  0  0  0  0  0  0  0  0  0
    9.3997  -14.7116   17.0611 C   0  0  0  0  0  0  0  0  0  0  0  0
    9.1358  -15.1754   18.3041 N   0  0  0  0  0  0  0  0  0  0  0  0
    6.9302  -16.4313   21.7955 C   0  0  0  0  0  0  0  0  0  0  0  0
    5.7740  -16.1962   22.2273 O   0  0  0  0  0  0  0  0  0  0  0  0
    8.0024  -20.0139   29.8234 O   0  0  0  0  0  0  0  0  0  0  0  0
    8.0049  -19.6816   28.4662 C   0  0  0  0  0  0  0  0  0  0  0  0
    9.1739  -19.5864   27.7367 C   0  0  0  0  0  0  0  0  0  0  0  0
    9.2169  -19.2625   26.4018 C   0  0  0  0  0  0  0  0  0  0  0  0
    8.0360  -19.0144   25.7337 C   0  0  0  0  0  0  0  0  0  0  0  0
    8.0926  -18.6690   24.3071 C   0  0  0  0  0  0  0  0  0  0  0  0
    7.7951  -17.2335   23.9765 C   0  0  2  0  0  0  0  0  0  0  0  0
    7.9726  -16.9475   22.5833 N   0  0  0  0  0  0  0  0  0  0  0  0
    8.4887  -16.2965   24.8567 C   0  0  0  0  0  0  0  0  0  0  0  0
    9.7274  -16.1465   24.7793 O   0  0  0  0  0  0  0  0  0  0  0  0
    6.8569  -19.1033   26.4406 C   0  0  0  0  0  0  0  0  0  0  0  0
    6.8408  -19.4281   27.7713 C   0  0  0  0  0  0  0  0  0  0  0  0
    7.4451  -11.9879   25.1462 C   0  0  0  0  0  0  0  0  0  0  0  0
    6.7973  -12.7605   26.2537 C   0  0  2  0  0  0  0  0  0  0  0  0
    5.9901  -11.7421   27.0782 C   0  0  0  0  0  0  0  0  0  0  0  0
    7.7184  -13.4260   27.2080 C   0  0  0  0  0  0  0  0  0  0  0  0
    8.4937  -14.5920   26.7070 C   0  0  2  0  0  0  0  0  0  0  0  0
    7.8100  -15.4986   25.8518 N   0  0  0  0  0  0  0  0  0  0  0  0
    9.2618  -15.2790   27.7918 C   0  0  0  0  0  0  0  0  0  0  0  0
    8.6929  -16.1249   28.5161 O   0  0  0  0  0  0  0  0  0  0  0  0
   10.5987  -15.0134   28.0320 O   0  0  0  0  0  0  0  0  0  0  0  0
  2  1  1  6
  2  3  1  0
  3  4  1  0
  4  5  2  0
  5  6  1  0
  7  6  1  0
  8  4  1  0
  8  7  2  0
  9 18  1  0
  9  2  1  0
 10  9  2  0
 11 12  1  0
 12 13  2  0
 13 14  1  0
 15 16  1  0
 15 14  2  0
 17 16  1  6
 17 18  1  0
 19 17  1  0
 20 19  2  0
 21 15  1  0
 22 21  2  0
 22 12  1  0
 24 23  1  6
 24 26  1  0
 25 24  1  0
 27 26  1  1
 27 29  1  0
 27 28  1  0
 28 19  1  0
 29 31  1  0
 30 29  2  0
M  END
$$$$
