QIH.pdb
     RDKit          3D

 28 28  0  0  1  0  0  0  0  0999 V2000
   19.2690  -17.3366  -15.2624 N   0  0  0  0  0  0  0  0  0  0  0  0
   18.5950  -17.5441  -16.4901 C   0  0  0  0  0  0  0  0  0  0  0  0
   18.4484  -18.7009  -16.9192 O   0  0  0  0  0  0  0  0  0  0  0  0
   18.0784  -16.3904  -17.2361 C   0  0  0  0  0  0  0  0  0  0  0  0
   18.3722  -15.1184  -16.5225 C   0  0  0  0  0  0  0  0  0  0  0  0
   18.8101  -13.9764  -17.3701 C   0  0  2  0  0  0  0  0  0  0  0  0
   19.6938  -14.3807  -18.4502 N   0  0  0  0  0  0  0  0  0  0  0  0
   19.4728  -12.9877  -16.4821 C   0  0  0  0  0  0  0  0  0  0  0  0
   18.9115  -12.7216  -15.3919 O   0  0  0  0  0  0  0  0  0  0  0  0
   24.8103  -11.0643  -14.4797 C   0  0  0  0  0  0  0  0  0  0  0  0
   23.3380  -10.7130  -14.6054 C   0  0  0  0  0  0  0  0  0  0  0  0
   22.7408  -11.6398  -15.6174 C   0  0  2  0  0  0  0  0  0  0  0  0
   23.4563  -11.4374  -16.9334 C   0  0  0  0  0  0  0  0  0  0  0  0
   21.2747  -11.4018  -15.8595 C   0  0  2  0  0  0  0  0  0  0  0  0
   20.6911  -12.3259  -16.7793 N   0  0  0  0  0  0  0  0  0  0  0  0
   21.0225   -9.9761  -16.2796 C   0  0  0  0  0  0  0  0  0  0  0  0
   21.4483   -9.5512  -17.3841 O   0  0  0  0  0  0  0  0  0  0  0  0
   20.3043   -9.0864  -15.4453 N   0  0  0  0  0  0  0  0  0  0  0  0
   20.0755   -7.7020  -15.8086 C   0  0  1  0  0  0  0  0  0  0  0  0
   18.6289   -7.3466  -15.8235 C   0  0  0  0  0  0  0  0  0  0  0  0
   18.4340   -5.9196  -16.1409 C   0  0  0  0  0  0  0  0  0  0  0  0
   18.8362   -5.1669  -17.1977 C   0  0  0  0  0  0  0  0  0  0  0  0
   18.4453   -3.8863  -17.0602 N   0  0  0  0  0  0  0  0  0  0  0  0
   17.7846   -3.8243  -15.8973 C   0  0  0  0  0  0  0  0  0  0  0  0
   17.7681   -5.0554  -15.3229 N   0  0  0  0  0  0  0  0  0  0  0  0
   20.8299   -6.8752  -14.8417 C   0  0  0  0  0  0  0  0  0  0  0  0
   21.3601   -5.6166  -15.1963 O   0  0  0  0  0  0  0  0  0  0  0  0
   21.0601   -7.2112  -13.6491 O   0  0  0  0  0  0  0  0  0  0  0  0
  1  2  1  0
  2  3  2  0
  4  5  1  0
  4  2  1  0
  6  5  1  0
  6  7  1  6
  8  6  1  0
  9  8  2  0
 10 11  1  0
 11 12  1  0
 12 13  1  6
 12 14  1  0
 14 15  1  6
 15  8  1  0
 16 14  1  0
 16 18  1  0
 17 16  2  0
 18 19  1  0
 19 26  1  0
 19 20  1  1
 20 21  1  0
 21 25  1  0
 21 22  2  0
 22 23  1  0
 24 23  1  0
 25 24  2  0
 26 28  2  0
 26 27  1  0
M  END
$$$$
