QIH.pdb
     RDKit          3D

 28 28  0  0  1  0  0  0  0  0999 V2000
   25.7824  -17.1453  -17.2250 N   0  0  0  0  0  0  0  0  0  0  0  0
   25.2759  -17.7861  -18.3814 C   0  0  0  0  0  0  0  0  0  0  0  0
   25.5187  -17.3071  -19.5019 O   0  0  0  0  0  0  0  0  0  0  0  0
   24.4734  -19.0069  -18.2394 C   0  0  0  0  0  0  0  0  0  0  0  0
   24.7349  -19.6685  -16.9327 C   0  0  0  0  0  0  0  0  0  0  0  0
   25.9424  -20.5356  -16.8661 C   0  0  2  0  0  0  0  0  0  0  0  0
   25.8680  -21.6777  -17.7611 N   0  0  0  0  0  0  0  0  0  0  0  0
   26.1019  -20.9738  -15.4562 C   0  0  0  0  0  0  0  0  0  0  0  0
   25.4285  -21.9626  -15.0778 O   0  0  0  0  0  0  0  0  0  0  0  0
   30.5631  -20.5449  -12.0809 C   0  0  0  0  0  0  0  0  0  0  0  0
   29.3826  -21.0210  -12.9096 C   0  0  0  0  0  0  0  0  0  0  0  0
   28.1573  -20.3525  -12.3697 C   0  0  2  0  0  0  0  0  0  0  0  0
   27.9607  -20.7965  -10.9383 C   0  0  0  0  0  0  0  0  0  0  0  0
   26.9022  -20.6966  -13.1254 C   0  0  2  0  0  0  0  0  0  0  0  0
   26.9591  -20.3549  -14.5113 N   0  0  0  0  0  0  0  0  0  0  0  0
   25.6908  -20.0937  -12.4609 C   0  0  0  0  0  0  0  0  0  0  0  0
   25.0193  -19.2042  -13.0435 O   0  0  0  0  0  0  0  0  0  0  0  0
   25.2824  -20.5123  -11.1718 N   0  0  0  0  0  0  0  0  0  0  0  0
   23.8894  -20.5334  -10.7722 C   0  0  1  0  0  0  0  0  0  0  0  0
   23.0444  -21.3503  -11.6875 C   0  0  0  0  0  0  0  0  0  0  0  0
   21.8927  -20.5745  -12.1841 C   0  0  0  0  0  0  0  0  0  0  0  0
   21.4646  -19.3158  -11.9052 C   0  0  0  0  0  0  0  0  0  0  0  0
   20.3402  -19.0223  -12.5844 N   0  0  0  0  0  0  0  0  0  0  0  0
   20.0491  -20.1120  -13.3060 C   0  0  0  0  0  0  0  0  0  0  0  0
   20.9854  -21.0686  -13.0740 N   0  0  0  0  0  0  0  0  0  0  0  0
   23.8490  -21.0501   -9.3869 C   0  0  0  0  0  0  0  0  0  0  0  0
   24.8579  -21.8968   -8.8808 O   0  0  0  0  0  0  0  0  0  0  0  0
   22.9362  -20.7880   -8.5585 O   0  0  0  0  0  0  0  0  0  0  0  0
  1  2  1  0
  2  3  2  0
  4  5  1  0
  4  2  1  0
  6  5  1  0
  6  7  1  6
  8  6  1  0
  9  8  2  0
 10 11  1  0
 11 12  1  0
 12 13  1  1
 12 14  1  0
 14 15  1  6
 15  8  1  0
 16 14  1  0
 16 18  1  0
 17 16  2  0
 18 19  1  0
 19 26  1  0
 19 20  1  6
 20 21  1  0
 21 25  1  0
 21 22  2  0
 22 23  1  0
 24 23  1  0
 25 24  2  0
 26 28  2  0
 26 27  1  0
M  END
$$$$
