QIH.pdb
     RDKit          3D

 28 28  0  0  1  0  0  0  0  0999 V2000
   18.7530  -23.4225  -10.4336 N   0  0  0  0  0  0  0  0  0  0  0  0
   18.9342  -23.2666  -11.8291 C   0  0  0  0  0  0  0  0  0  0  0  0
   19.4027  -24.2063  -12.4935 O   0  0  0  0  0  0  0  0  0  0  0  0
   18.5645  -21.9989  -12.4698 C   0  0  0  0  0  0  0  0  0  0  0  0
   19.7737  -21.2406  -12.8896 C   0  0  0  0  0  0  0  0  0  0  0  0
   20.6839  -20.7999  -11.7980 C   0  0  2  0  0  0  0  0  0  0  0  0
   20.0890  -19.7901  -10.9394 N   0  0  0  0  0  0  0  0  0  0  0  0
   21.9293  -20.2949  -12.4297 C   0  0  0  0  0  0  0  0  0  0  0  0
   21.9684  -19.0802  -12.7419 O   0  0  0  0  0  0  0  0  0  0  0  0
   27.8978  -20.6185  -12.1099 C   0  0  0  0  0  0  0  0  0  0  0  0
   26.7408  -20.1935  -12.9973 C   0  0  0  0  0  0  0  0  0  0  0  0
   25.5007  -20.8295  -12.4522 C   0  0  2  0  0  0  0  0  0  0  0  0
   25.6797  -22.3301  -12.4808 C   0  0  0  0  0  0  0  0  0  0  0  0
   24.2620  -20.5076  -13.2441 C   0  0  2  0  0  0  0  0  0  0  0  0
   23.0732  -21.0868  -12.7038 N   0  0  0  0  0  0  0  0  0  0  0  0
   24.4401  -20.8738  -14.6955 C   0  0  0  0  0  0  0  0  0  0  0  0
   23.7286  -21.7684  -15.2203 O   0  0  0  0  0  0  0  0  0  0  0  0
   25.4073  -20.2229  -15.4982 N   0  0  0  0  0  0  0  0  0  0  0  0
   25.0950  -19.7032  -16.8147 C   0  0  1  0  0  0  0  0  0  0  0  0
   23.9684  -18.7288  -16.7921 C   0  0  0  0  0  0  0  0  0  0  0  0
   22.7354  -19.3270  -17.3368 C   0  0  0  0  0  0  0  0  0  0  0  0
   22.4868  -20.5488  -17.8760 C   0  0  0  0  0  0  0  0  0  0  0  0
   21.2028  -20.6572  -18.2649 N   0  0  0  0  0  0  0  0  0  0  0  0
   20.6265  -19.4855  -17.9684 C   0  0  0  0  0  0  0  0  0  0  0  0
   21.5467  -18.6621  -17.4017 N   0  0  0  0  0  0  0  0  0  0  0  0
   26.3351  -19.0905  -17.3386 C   0  0  0  0  0  0  0  0  0  0  0  0
   26.8138  -19.3758  -18.6348 O   0  0  0  0  0  0  0  0  0  0  0  0
   27.0543  -18.2820  -16.6926 O   0  0  0  0  0  0  0  0  0  0  0  0
  1  2  1  0
  2  3  2  0
  4  5  1  0
  4  2  1  0
  6  5  1  0
  6  7  1  6
  8  6  1  0
  9  8  2  0
 10 11  1  0
 11 12  1  0
 12 13  1  6
 12 14  1  0
 14 15  1  1
 15  8  1  0
 16 14  1  0
 16 18  1  0
 17 16  2  0
 18 19  1  0
 19 26  1  0
 19 20  1  1
 20 21  1  0
 21 25  1  0
 21 22  2  0
 22 23  1  0
 24 23  1  0
 25 24  2  0
 26 28  2  0
 26 27  1  0
M  END
$$$$
