QIH.pdb
     RDKit          3D

 28 28  0  0  1  0  0  0  0  0999 V2000
   21.9915   -4.2062  -18.0880 N   0  0  0  0  0  0  0  0  0  0  0  0
   22.0593   -4.2984  -19.4991 C   0  0  0  0  0  0  0  0  0  0  0  0
   21.0828   -3.9473  -20.1824 O   0  0  0  0  0  0  0  0  0  0  0  0
   23.2820   -4.8056  -20.1333 C   0  0  0  0  0  0  0  0  0  0  0  0
   24.3034   -5.1641  -19.1126 C   0  0  0  0  0  0  0  0  0  0  0  0
   24.9601   -6.4891  -19.2785 C   0  0  2  0  0  0  0  0  0  0  0  0
   24.9898   -6.9359  -20.6607 N   0  0  0  0  0  0  0  0  0  0  0  0
   24.2337   -7.4596  -18.4208 C   0  0  0  0  0  0  0  0  0  0  0  0
   23.3873   -8.2015  -18.9753 O   0  0  0  0  0  0  0  0  0  0  0  0
   26.7648  -10.5693  -14.9466 C   0  0  0  0  0  0  0  0  0  0  0  0
   25.8339  -10.0500  -16.0285 C   0  0  0  0  0  0  0  0  0  0  0  0
   24.6840   -9.3781  -15.3459 C   0  0  2  0  0  0  0  0  0  0  0  0
   23.8565  -10.4344  -14.6500 C   0  0  0  0  0  0  0  0  0  0  0  0
   23.7728   -8.6399  -16.2892 C   0  0  2  0  0  0  0  0  0  0  0  0
   24.4293   -7.6058  -17.0241 N   0  0  0  0  0  0  0  0  0  0  0  0
   22.5600   -8.1133  -15.5650 C   0  0  0  0  0  0  0  0  0  0  0  0
   22.5408   -6.9355  -15.1244 O   0  0  0  0  0  0  0  0  0  0  0  0
   21.4198   -8.9278  -15.3647 N   0  0  0  0  0  0  0  0  0  0  0  0
   20.0741   -8.3894  -15.3796 C   0  0  1  0  0  0  0  0  0  0  0  0
   19.8065   -7.5529  -16.5829 C   0  0  0  0  0  0  0  0  0  0  0  0
   19.3143   -6.2155  -16.2034 C   0  0  0  0  0  0  0  0  0  0  0  0
   19.0407   -5.6645  -14.9922 C   0  0  0  0  0  0  0  0  0  0  0  0
   18.5879   -4.4037  -15.1220 N   0  0  0  0  0  0  0  0  0  0  0  0
   18.5732   -4.1496  -16.4365 C   0  0  0  0  0  0  0  0  0  0  0  0
   19.0130   -5.2437  -17.1112 N   0  0  0  0  0  0  0  0  0  0  0  0
   19.1507   -9.5422  -15.3010 C   0  0  0  0  0  0  0  0  0  0  0  0
   18.0573   -9.5579  -14.4094 O   0  0  0  0  0  0  0  0  0  0  0  0
   19.2550  -10.5835  -16.0031 O   0  0  0  0  0  0  0  0  0  0  0  0
  1  2  1  0
  2  3  2  0
  4  5  1  0
  4  2  1  0
  6  5  1  0
  6  7  1  6
  8  6  1  0
  9  8  2  0
 10 11  1  0
 11 12  1  0
 12 13  1  6
 12 14  1  0
 14 15  1  1
 15  8  1  0
 16 14  1  0
 16 18  1  0
 17 16  2  0
 18 19  1  0
 19 26  1  0
 19 20  1  6
 20 21  1  0
 21 25  1  0
 21 22  2  0
 22 23  1  0
 24 23  1  0
 25 24  2  0
 26 28  2  0
 26 27  1  0
M  END
$$$$
