TLP.pdb
     RDKit          3D

 23 23  0  0  1  0  0  0  0  0999 V2000
   20.1974  -22.9007  -13.9228 C   0  0  0  0  0  0  0  0  0  0  0  0
   21.4535  -22.0899  -13.9674 C   0  0  1  0  0  0  0  0  0  0  0  0
   21.4916  -21.3190  -15.1336 O   0  0  0  0  0  0  0  0  0  0  0  0
   21.6062  -21.1658  -12.7829 C   0  0  2  0  0  0  0  0  0  0  0  0
   20.7543  -20.0253  -13.0168 N   0  0  0  0  0  0  0  0  0  0  0  0
   23.0149  -20.6767  -12.6959 C   0  0  0  0  0  0  0  0  0  0  0  0
   23.2712  -19.5207  -13.1808 O   0  0  0  0  0  0  0  0  0  0  0  0
   26.2229  -21.2565   -8.2472 C   0  0  0  0  0  0  0  0  0  0  0  0
   25.4387  -20.7802   -9.4746 C   0  0  1  0  0  0  0  0  0  0  0  0
   25.6954  -19.2305   -9.4502 C   0  0  0  0  0  0  0  0  0  0  0  0
   26.0529  -21.2549  -10.7411 C   0  0  0  0  0  0  0  0  0  0  0  0
   25.4714  -20.9182  -12.0246 C   0  0  2  0  0  0  0  0  0  0  0  0
   24.0613  -21.4036  -12.1203 N   0  0  0  0  0  0  0  0  0  0  0  0
   26.0574  -20.8844  -13.3188 C   0  0  0  0  0  0  0  0  0  0  0  0
   26.1760  -22.1324  -13.8161 O   0  0  0  0  0  0  0  0  0  0  0  0
   26.5468  -19.9350  -14.2221 N   0  0  0  0  0  0  0  0  0  0  0  0
   26.4968  -18.4974  -14.0798 C   0  0  0  0  0  0  0  0  0  0  0  0
   27.2755  -17.8769  -15.2025 C   0  0  0  0  0  0  0  0  0  0  0  0
   28.0806  -19.0022  -15.7200 C   0  0  0  0  0  0  0  0  0  0  0  0
   27.1694  -20.2181  -15.4930 C   0  0  1  0  0  0  0  0  0  0  0  0
   28.0977  -21.3685  -15.5117 C   0  0  0  0  0  0  0  0  0  0  0  0
   28.4628  -21.9252  -14.2712 O   0  0  0  0  0  0  0  0  0  0  0  0
   28.6058  -21.9177  -16.5110 O   0  0  0  0  0  0  0  0  0  0  0  0
  2  4  1  0
  2  1  1  1
  3  2  1  0
  4  6  1  0
  4  5  1  6
  6  7  2  0
  9  8  1  1
  9 10  1  0
 12 11  1  1
 11  9  1  0
 12 14  1  0
 13  6  1  0
 13 12  1  0
 14 15  2  0
 16 14  1  0
 16 17  1  0
 18 17  1  0
 19 18  1  0
 20 19  1  0
 20 16  1  0
 21 22  1  0
 20 21  1  1
 23 21  2  0
M  END
$$$$
