TLP.pdb
     RDKit          3D

 23 23  0  0  1  0  0  0  0  0999 V2000
   18.6549  -12.0663  -19.0624 C   0  0  0  0  0  0  0  0  0  0  0  0
   19.2942  -13.3385  -18.6042 C   0  0  1  0  0  0  0  0  0  0  0  0
   18.7321  -14.4313  -19.2718 O   0  0  0  0  0  0  0  0  0  0  0  0
   20.7879  -13.3655  -18.8243 C   0  0  2  0  0  0  0  0  0  0  0  0
   21.2348  -14.7124  -18.5651 N   0  0  0  0  0  0  0  0  0  0  0  0
   21.4638  -12.4610  -17.8463 C   0  0  0  0  0  0  0  0  0  0  0  0
   20.8125  -12.1337  -16.7947 O   0  0  0  0  0  0  0  0  0  0  0  0
   26.0454  -11.0159  -14.8552 C   0  0  0  0  0  0  0  0  0  0  0  0
   25.8390  -10.4914  -16.2802 C   0  0  1  0  0  0  0  0  0  0  0  0
   27.2477  -10.7379  -16.9306 C   0  0  0  0  0  0  0  0  0  0  0  0
   24.9007  -11.3453  -17.0528 C   0  0  0  0  0  0  0  0  0  0  0  0
   23.4706  -11.1192  -17.0005 C   0  0  2  0  0  0  0  0  0  0  0  0
   22.7565  -11.9551  -18.0126 N   0  0  0  0  0  0  0  0  0  0  0  0
   22.7368   -9.9267  -16.7573 C   0  0  0  0  0  0  0  0  0  0  0  0
   22.5675   -9.2348  -17.9025 O   0  0  0  0  0  0  0  0  0  0  0  0
   22.1432   -9.2644  -15.6776 N   0  0  0  0  0  0  0  0  0  0  0  0
   21.9191   -9.7961  -14.3523 C   0  0  0  0  0  0  0  0  0  0  0  0
   21.4027   -8.6941  -13.4744 C   0  0  0  0  0  0  0  0  0  0  0  0
   21.7332   -7.4712  -14.2345 C   0  0  0  0  0  0  0  0  0  0  0  0
   21.6087   -7.9239  -15.6973 C   0  0  1  0  0  0  0  0  0  0  0  0
   22.4012   -6.9271  -16.4483 C   0  0  0  0  0  0  0  0  0  0  0  0
   23.7842   -7.1598  -16.5709 O   0  0  0  0  0  0  0  0  0  0  0  0
   21.9865   -5.8859  -16.9982 O   0  0  0  0  0  0  0  0  0  0  0  0
  2  4  1  0
  2  1  1  6
  3  2  1  0
  4  6  1  0
  4  5  1  1
  6  7  2  0
  9  8  1  1
  9 10  1  0
 12 11  1  6
 11  9  1  0
 12 14  1  0
 13  6  1  0
 13 12  1  0
 14 15  2  0
 16 14  1  0
 16 17  1  0
 18 17  1  0
 19 18  1  0
 20 19  1  0
 20 16  1  0
 21 22  1  0
 20 21  1  6
 23 21  2  0
M  END
$$$$
