TLP.pdb
     RDKit          3D

 23 23  0  0  1  0  0  0  0  0999 V2000
   20.8566  -18.9081  -13.9984 C   0  0  0  0  0  0  0  0  0  0  0  0
   20.8831  -19.5846  -15.3321 C   0  0  1  0  0  0  0  0  0  0  0  0
   19.7037  -19.3177  -16.0345 O   0  0  0  0  0  0  0  0  0  0  0  0
   22.0518  -19.1612  -16.1896 C   0  0  2  0  0  0  0  0  0  0  0  0
   21.9997  -19.9430  -17.4009 N   0  0  0  0  0  0  0  0  0  0  0  0
   23.3355  -19.4769  -15.4939 C   0  0  0  0  0  0  0  0  0  0  0  0
   23.6864  -20.7055  -15.4278 O   0  0  0  0  0  0  0  0  0  0  0  0
   28.1239  -16.9533  -16.3043 C   0  0  0  0  0  0  0  0  0  0  0  0
   27.0084  -17.9765  -16.0650 C   0  0  1  0  0  0  0  0  0  0  0  0
   27.7787  -19.3402  -16.1877 C   0  0  0  0  0  0  0  0  0  0  0  0
   26.5125  -17.9360  -14.6654 C   0  0  0  0  0  0  0  0  0  0  0  0
   25.4563  -18.8231  -14.2220 C   0  0  2  0  0  0  0  0  0  0  0  0
   24.1687  -18.5149  -14.9151 N   0  0  0  0  0  0  0  0  0  0  0  0
   25.1922  -19.3672  -12.9361 C   0  0  0  0  0  0  0  0  0  0  0  0
   24.5449  -18.4681  -12.1669 O   0  0  0  0  0  0  0  0  0  0  0  0
   25.4102  -20.5603  -12.2390 N   0  0  0  0  0  0  0  0  0  0  0  0
   25.8478  -21.8208  -12.7949 C   0  0  0  0  0  0  0  0  0  0  0  0
   26.0997  -22.7800  -11.6688 C   0  0  0  0  0  0  0  0  0  0  0  0
   26.1810  -21.9001  -10.4849 C   0  0  0  0  0  0  0  0  0  0  0  0
   25.2042  -20.7642  -10.8252 C   0  0  1  0  0  0  0  0  0  0  0  0
   25.6286  -19.6532   -9.9471 C   0  0  0  0  0  0  0  0  0  0  0  0
   25.1260  -19.6397   -8.6322 O   0  0  0  0  0  0  0  0  0  0  0  0
   26.3931  -18.7088  -10.2337 O   0  0  0  0  0  0  0  0  0  0  0  0
  2  4  1  0
  2  1  1  1
  3  2  1  0
  4  6  1  0
  4  5  1  6
  6  7  2  0
  9  8  1  1
  9 10  1  0
 12 11  1  1
 11  9  1  0
 12 14  1  0
 13  6  1  0
 13 12  1  0
 14 15  2  0
 16 14  1  0
 16 17  1  0
 18 17  1  0
 19 18  1  0
 20 19  1  0
 20 16  1  0
 21 22  1  0
 20 21  1  1
 23 21  2  0
M  END
$$$$
