TLP.pdb
     RDKit          3D

 23 23  0  0  1  0  0  0  0  0999 V2000
   27.1828  -16.1170  -16.9938 C   0  0  0  0  0  0  0  0  0  0  0  0
   26.6617  -17.3367  -16.3024 C   0  0  1  0  0  0  0  0  0  0  0  0
   26.0105  -18.1710  -17.2165 O   0  0  0  0  0  0  0  0  0  0  0  0
   27.7422  -18.1374  -15.6158 C   0  0  2  0  0  0  0  0  0  0  0  0
   28.5624  -18.7233  -16.6479 N   0  0  0  0  0  0  0  0  0  0  0  0
   27.1304  -19.2498  -14.8285 C   0  0  0  0  0  0  0  0  0  0  0  0
   27.0681  -20.4019  -15.3816 O   0  0  0  0  0  0  0  0  0  0  0  0
   26.5483  -20.9422   -8.9879 C   0  0  0  0  0  0  0  0  0  0  0  0
   25.8637  -21.0994  -10.3498 C   0  0  1  0  0  0  0  0  0  0  0  0
   24.3950  -20.6377  -10.0369 C   0  0  0  0  0  0  0  0  0  0  0  0
   26.3751  -20.1190  -11.3417 C   0  0  0  0  0  0  0  0  0  0  0  0
   26.0099  -20.2131  -12.7406 C   0  0  2  0  0  0  0  0  0  0  0  0
   26.6254  -19.1055  -13.5328 N   0  0  0  0  0  0  0  0  0  0  0  0
   24.7902  -20.6181  -13.3470 C   0  0  0  0  0  0  0  0  0  0  0  0
   23.8969  -19.6077  -13.3313 O   0  0  0  0  0  0  0  0  0  0  0  0
   24.2492  -21.7578  -13.9513 N   0  0  0  0  0  0  0  0  0  0  0  0
   24.9549  -22.9688  -14.3045 C   0  0  0  0  0  0  0  0  0  0  0  0
   23.9576  -23.9832  -14.7820 C   0  0  0  0  0  0  0  0  0  0  0  0
   22.6686  -23.4446  -14.3016 C   0  0  0  0  0  0  0  0  0  0  0  0
   22.8777  -21.9241  -14.3689 C   0  0  1  0  0  0  0  0  0  0  0  0
   21.8555  -21.3820  -13.4486 C   0  0  0  0  0  0  0  0  0  0  0  0
   20.5325  -21.3059  -13.9238 O   0  0  0  0  0  0  0  0  0  0  0  0
   22.0247  -20.9772  -12.2799 O   0  0  0  0  0  0  0  0  0  0  0  0
  2  4  1  0
  2  1  1  6
  3  2  1  0
  4  6  1  0
  4  5  1  6
  6  7  2  0
  9  8  1  1
  9 10  1  0
 12 11  1  1
 11  9  1  0
 12 14  1  0
 13  6  1  0
 13 12  1  0
 14 15  2  0
 16 14  1  0
 16 17  1  0
 18 17  1  0
 19 18  1  0
 20 19  1  0
 20 16  1  0
 21 22  1  0
 20 21  1  1
 23 21  2  0
M  END
$$$$
