TLP.pdb
     RDKit          3D

 23 23  0  0  1  0  0  0  0  0999 V2000
   18.6035  -11.5235  -18.8112 C   0  0  0  0  0  0  0  0  0  0  0  0
   18.4443  -12.8723  -18.1845 C   0  0  1  0  0  0  0  0  0  0  0  0
   17.6265  -13.6823  -18.9788 O   0  0  0  0  0  0  0  0  0  0  0  0
   19.7573  -13.5872  -17.9724 C   0  0  2  0  0  0  0  0  0  0  0  0
   19.4620  -14.8423  -17.3254 N   0  0  0  0  0  0  0  0  0  0  0  0
   20.6288  -12.7920  -17.0561 C   0  0  0  0  0  0  0  0  0  0  0  0
   20.2857  -12.7223  -15.8254 O   0  0  0  0  0  0  0  0  0  0  0  0
   25.2193  -10.7668  -14.6553 C   0  0  0  0  0  0  0  0  0  0  0  0
   25.0664  -10.6530  -16.1758 C   0  0  1  0  0  0  0  0  0  0  0  0
   26.4291  -11.2417  -16.6902 C   0  0  0  0  0  0  0  0  0  0  0  0
   24.0246  -11.5748  -16.6968 C   0  0  0  0  0  0  0  0  0  0  0  0
   22.6167  -11.2570  -16.5715 C   0  0  2  0  0  0  0  0  0  0  0  0
   21.7880  -12.1245  -17.4625 N   0  0  0  0  0  0  0  0  0  0  0  0
   21.9701  -10.0058  -16.3816 C   0  0  0  0  0  0  0  0  0  0  0  0
   21.8717   -9.3428  -17.5520 O   0  0  0  0  0  0  0  0  0  0  0  0
   21.4102   -9.2647  -15.3357 N   0  0  0  0  0  0  0  0  0  0  0  0
   21.0782   -9.7460  -14.0137 C   0  0  0  0  0  0  0  0  0  0  0  0
   20.6505   -8.5797  -13.1720 C   0  0  0  0  0  0  0  0  0  0  0  0
   21.1409   -7.4130  -13.9339 C   0  0  0  0  0  0  0  0  0  0  0  0
   21.0252   -7.8750  -15.3945 C   0  0  1  0  0  0  0  0  0  0  0  0
   21.9497   -6.9825  -16.1257 C   0  0  0  0  0  0  0  0  0  0  0  0
   21.5293   -5.6574  -16.3476 O   0  0  0  0  0  0  0  0  0  0  0  0
   23.0786   -7.2649  -16.5775 O   0  0  0  0  0  0  0  0  0  0  0  0
  2  4  1  0
  2  1  1  6
  3  2  1  0
  4  6  1  0
  4  5  1  1
  6  7  2  0
  9  8  1  1
  9 10  1  0
 12 11  1  6
 11  9  1  0
 12 14  1  0
 13  6  1  0
 13 12  1  0
 14 15  2  0
 16 14  1  0
 16 17  1  0
 18 17  1  0
 19 18  1  0
 20 19  1  0
 20 16  1  0
 21 22  1  0
 20 21  1  6
 23 21  2  0
M  END
$$$$
