TLP.pdb
     RDKit          3D

 23 23  0  0  1  0  0  0  0  0999 V2000
   18.0992   -7.8769  -18.8991 C   0  0  0  0  0  0  0  0  0  0  0  0
   17.1498   -8.9297  -18.4221 C   0  0  1  0  0  0  0  0  0  0  0  0
   16.5718   -9.5902  -19.5108 O   0  0  0  0  0  0  0  0  0  0  0  0
   17.8042   -9.9613  -17.5345 C   0  0  2  0  0  0  0  0  0  0  0  0
   16.7717  -10.8717  -17.1028 N   0  0  0  0  0  0  0  0  0  0  0  0
   18.3728   -9.3025  -16.3204 C   0  0  0  0  0  0  0  0  0  0  0  0
   17.5511   -8.8966  -15.4276 O   0  0  0  0  0  0  0  0  0  0  0  0
   21.0413   -8.7627  -11.7125 C   0  0  0  0  0  0  0  0  0  0  0  0
   21.9194   -8.8603  -12.9646 C   0  0  1  0  0  0  0  0  0  0  0  0
   22.8841  -10.0456  -12.6004 C   0  0  0  0  0  0  0  0  0  0  0  0
   21.1501   -9.3348  -14.1433 C   0  0  0  0  0  0  0  0  0  0  0  0
   20.3145   -8.4277  -14.9036 C   0  0  2  0  0  0  0  0  0  0  0  0
   19.7400   -9.1050  -16.1054 N   0  0  0  0  0  0  0  0  0  0  0  0
   20.4625   -7.0377  -15.1595 C   0  0  0  0  0  0  0  0  0  0  0  0
   21.5675   -6.8087  -15.8980 O   0  0  0  0  0  0  0  0  0  0  0  0
   19.7974   -5.8425  -14.8664 N   0  0  0  0  0  0  0  0  0  0  0  0
   18.4255   -5.6979  -14.4347 C   0  0  0  0  0  0  0  0  0  0  0  0
   18.1816   -4.2590  -14.0857 C   0  0  0  0  0  0  0  0  0  0  0  0
   19.5450   -3.7068  -13.9492 C   0  0  0  0  0  0  0  0  0  0  0  0
   20.3545   -4.5155  -14.9744 C   0  0  1  0  0  0  0  0  0  0  0  0
   21.7539   -4.3673  -14.5214 C   0  0  0  0  0  0  0  0  0  0  0  0
   22.4052   -3.1552  -14.8191 O   0  0  0  0  0  0  0  0  0  0  0  0
   22.4411   -5.2001  -13.8947 O   0  0  0  0  0  0  0  0  0  0  0  0
  2  4  1  0
  2  1  1  6
  3  2  1  0
  4  6  1  0
  4  5  1  1
  6  7  2  0
  9  8  1  1
  9 10  1  0
 12 11  1  6
 11  9  1  0
 12 14  1  0
 13  6  1  0
 13 12  1  0
 14 15  2  0
 16 14  1  0
 16 17  1  0
 18 17  1  0
 19 18  1  0
 20 19  1  0
 20 16  1  0
 21 22  1  0
 20 21  1  1
 23 21  2  0
M  END
$$$$
