TLP.pdb
     RDKit          3D

 23 23  0  0  1  0  0  0  0  0999 V2000
   15.7034  -25.3042   -8.0830 C   0  0  0  0  0  0  0  0  0  0  0  0
   17.1373  -25.0651   -8.4349 C   0  0  1  0  0  0  0  0  0  0  0  0
   17.2366  -24.0744   -9.4170 O   0  0  0  0  0  0  0  0  0  0  0  0
   17.9772  -24.6460   -7.2520 C   0  0  2  0  0  0  0  0  0  0  0  0
   19.3422  -24.5492   -7.7087 N   0  0  0  0  0  0  0  0  0  0  0  0
   17.9214  -25.6948   -6.1898 C   0  0  0  0  0  0  0  0  0  0  0  0
   18.6702  -26.7224   -6.3327 O   0  0  0  0  0  0  0  0  0  0  0  0
   18.6044  -27.2259   -0.9146 C   0  0  0  0  0  0  0  0  0  0  0  0
   17.2312  -26.7512   -1.4018 C   0  0  1  0  0  0  0  0  0  0  0  0
   16.8404  -25.6925   -0.3088 C   0  0  0  0  0  0  0  0  0  0  0  0
   17.3300  -25.9819   -2.6686 C   0  0  0  0  0  0  0  0  0  0  0  0
   17.1062  -26.6214   -3.9493 C   0  0  2  0  0  0  0  0  0  0  0  0
   17.1043  -25.6192   -5.0579 N   0  0  0  0  0  0  0  0  0  0  0  0
   16.2764  -27.7222   -4.2946 C   0  0  0  0  0  0  0  0  0  0  0  0
   15.0212  -27.3035   -4.5558 O   0  0  0  0  0  0  0  0  0  0  0  0
   16.3837  -29.1094   -4.4394 N   0  0  0  0  0  0  0  0  0  0  0  0
   17.6038  -29.8818   -4.5039 C   0  0  0  0  0  0  0  0  0  0  0  0
   17.2491  -31.3398   -4.5024 C   0  0  0  0  0  0  0  0  0  0  0  0
   15.8494  -31.3484   -4.0301 C   0  0  0  0  0  0  0  0  0  0  0  0
   15.2842  -30.0326   -4.5864 C   0  0  1  0  0  0  0  0  0  0  0  0
   14.1027  -29.7648   -3.7390 C   0  0  0  0  0  0  0  0  0  0  0  0
   12.9773  -30.5913   -3.9185 O   0  0  0  0  0  0  0  0  0  0  0  0
   13.9789  -28.8802   -2.8669 O   0  0  0  0  0  0  0  0  0  0  0  0
  2  4  1  0
  2  1  1  1
  3  2  1  0
  4  6  1  0
  4  5  1  6
  6  7  2  0
  9  8  1  1
  9 10  1  0
 12 11  1  1
 11  9  1  0
 12 14  1  0
 13  6  1  0
 13 12  1  0
 14 15  2  0
 16 14  1  0
 16 17  1  0
 18 17  1  0
 19 18  1  0
 20 19  1  0
 20 16  1  0
 21 22  1  0
 20 21  1  1
 23 21  2  0
M  END
$$$$
