TLP.pdb
     RDKit          3D

 23 23  0  0  1  0  0  0  0  0999 V2000
   22.7586  -21.5295  -12.6410 C   0  0  0  0  0  0  0  0  0  0  0  0
   22.8373  -20.8603  -11.3057 C   0  0  1  0  0  0  0  0  0  0  0  0
   21.7583  -21.2480  -10.5049 O   0  0  0  0  0  0  0  0  0  0  0  0
   24.1147  -21.1680  -10.5615 C   0  0  2  0  0  0  0  0  0  0  0  0
   24.0561  -20.4673   -9.3019 N   0  0  0  0  0  0  0  0  0  0  0  0
   25.2878  -20.6448  -11.3241 C   0  0  0  0  0  0  0  0  0  0  0  0
   25.5259  -19.3895  -11.2559 O   0  0  0  0  0  0  0  0  0  0  0  0
   30.4028  -22.2001  -10.8162 C   0  0  0  0  0  0  0  0  0  0  0  0
   29.2375  -21.2552  -11.1291 C   0  0  1  0  0  0  0  0  0  0  0  0
   29.9816  -19.9142  -11.4698 C   0  0  0  0  0  0  0  0  0  0  0  0
   28.5364  -21.6385  -12.3812 C   0  0  0  0  0  0  0  0  0  0  0  0
   27.3459  -20.9359  -12.8149 C   0  0  2  0  0  0  0  0  0  0  0  0
   26.1335  -21.4411  -12.1021 N   0  0  0  0  0  0  0  0  0  0  0  0
   26.9813  -20.4515  -14.1002 C   0  0  0  0  0  0  0  0  0  0  0  0
   26.5365  -21.4607  -14.8764 O   0  0  0  0  0  0  0  0  0  0  0  0
   26.9523  -19.2357  -14.7914 N   0  0  0  0  0  0  0  0  0  0  0  0
   27.1941  -17.9208  -14.2418 C   0  0  0  0  0  0  0  0  0  0  0  0
   27.2161  -16.9275  -15.3664 C   0  0  0  0  0  0  0  0  0  0  0  0
   27.3853  -17.7748  -16.5647 C   0  0  0  0  0  0  0  0  0  0  0  0
   26.6392  -19.0644  -16.1898 C   0  0  1  0  0  0  0  0  0  0  0  0
   27.2021  -20.0812  -17.1035 C   0  0  0  0  0  0  0  0  0  0  0  0
   26.7251  -20.0955  -18.4280 O   0  0  0  0  0  0  0  0  0  0  0  0
   28.0654  -20.9436  -16.8400 O   0  0  0  0  0  0  0  0  0  0  0  0
  2  4  1  0
  2  1  1  6
  3  2  1  0
  4  6  1  0
  4  5  1  1
  6  7  2  0
  9  8  1  6
  9 10  1  0
 12 11  1  6
 11  9  1  0
 12 14  1  0
 13  6  1  0
 13 12  1  0
 14 15  2  0
 16 14  1  0
 16 17  1  0
 18 17  1  0
 19 18  1  0
 20 19  1  0
 20 16  1  0
 21 22  1  0
 20 21  1  6
 23 21  2  0
M  END
$$$$
