KGF.pdb
     RDKit          3D

 25 25  0  0  1  0  0  0  0  0999 V2000
   24.8205  -19.6708  -16.1254 N   0  0  0  0  0  0  0  0  0  0  0  0
   24.0937  -18.5633  -15.6477 C   0  0  1  0  0  0  0  0  0  0  0  0
   23.2551  -17.7684  -16.5464 C   0  0  0  0  0  0  0  0  0  0  0  0
   23.2120  -17.9132  -17.9871 C   0  0  0  0  0  0  0  0  0  0  0  0
   22.6500  -19.0024  -18.7581 C   0  0  0  0  0  0  0  0  0  0  0  0
   22.7264  -19.0558  -20.2351 C   0  0  0  0  0  0  0  0  0  0  0  0
   21.9982  -20.2769  -20.7216 N   0  0  0  0  0  0  0  0  0  0  0  0
   23.1820  -19.0773  -14.5475 C   0  0  0  0  0  0  0  0  0  0  0  0
   22.4420  -18.2786  -13.9371 O   0  0  0  0  0  0  0  0  0  0  0  0
   23.1502  -20.4513  -14.1941 N   0  0  0  0  0  0  0  0  0  0  0  0
   22.2467  -20.8606  -13.1782 C   0  0  0  0  0  0  0  0  0  0  0  0
   20.9046  -21.2464  -13.6124 C   0  0  0  0  0  0  0  0  0  0  0  0
   20.4217  -20.7655  -14.6990 O   0  0  0  0  0  0  0  0  0  0  0  0
   20.0325  -22.1346  -12.9376 N   0  0  0  0  0  0  0  0  0  0  0  0
   18.7490  -22.5420  -13.4793 C   0  0  1  0  0  0  0  0  0  0  0  0
   18.6933  -24.0262  -13.6904 C   0  0  0  0  0  0  0  0  0  0  0  0
   19.7251  -24.5418  -14.5801 C   0  0  0  0  0  0  0  0  0  0  0  0
   19.5362  -24.6348  -15.9387 C   0  0  0  0  0  0  0  0  0  0  0  0
   20.5462  -25.1156  -16.7357 C   0  0  0  0  0  0  0  0  0  0  0  0
   21.7600  -25.5140  -16.2144 C   0  0  0  0  0  0  0  0  0  0  0  0
   21.9326  -25.4141  -14.8504 C   0  0  0  0  0  0  0  0  0  0  0  0
   20.9312  -24.9348  -14.0385 C   0  0  0  0  0  0  0  0  0  0  0  0
   17.6246  -21.9918  -12.7004 C   0  0  0  0  0  0  0  0  0  0  0  0
   16.4554  -22.1487  -13.1179 O   0  0  0  0  0  0  0  0  0  0  0  0
   17.8369  -21.3170  -11.5334 O   0  0  0  0  0  0  0  0  0  0  0  0
  2  1  1  6
  2  8  1  0
  3  2  1  0
  3  4  1  0
  4  5  1  0
  5  6  1  0
  6  7  1  0
  8  9  2  0
 10 11  1  0
 10  8  1  0
 11 12  1  0
 12 13  2  0
 12 14  1  0
 14 15  1  0
 15 23  1  0
 15 16  1  1
 17 16  1  0
 17 18  2  0
 19 18  1  0
 20 19  2  0
 21 22  2  0
 21 20  1  0
 22 17  1  0
 23 25  1  0
 24 23  2  0
M  END
$$$$
