KGF.pdb
     RDKit          3D

 25 25  0  0  1  0  0  0  0  0999 V2000
   25.0242  -20.9792  -15.6229 N   0  0  0  0  0  0  0  0  0  0  0  0
   26.1954  -20.2684  -15.9488 C   0  0  1  0  0  0  0  0  0  0  0  0
   26.1249  -18.9325  -16.5431 C   0  0  0  0  0  0  0  0  0  0  0  0
   25.0572  -18.4603  -17.4008 C   0  0  0  0  0  0  0  0  0  0  0  0
   23.8088  -19.1217  -17.7182 C   0  0  0  0  0  0  0  0  0  0  0  0
   22.8166  -18.5452  -18.6527 C   0  0  0  0  0  0  0  0  0  0  0  0
   22.6789  -19.4504  -19.8441 N   0  0  0  0  0  0  0  0  0  0  0  0
   26.9964  -20.1293  -14.6662 C   0  0  0  0  0  0  0  0  0  0  0  0
   28.1115  -19.5691  -14.6940 O   0  0  0  0  0  0  0  0  0  0  0  0
   26.5056  -20.6233  -13.4297 N   0  0  0  0  0  0  0  0  0  0  0  0
   27.2588  -20.3570  -12.2561 C   0  0  0  0  0  0  0  0  0  0  0  0
   26.6936  -20.8317  -10.9937 C   0  0  0  0  0  0  0  0  0  0  0  0
   25.5011  -21.3034  -10.9649 O   0  0  0  0  0  0  0  0  0  0  0  0
   27.3434  -20.8308   -9.7358 N   0  0  0  0  0  0  0  0  0  0  0  0
   26.7391  -21.3808   -8.5362 C   0  0  1  0  0  0  0  0  0  0  0  0
   27.7742  -21.6775   -7.4917 C   0  0  0  0  0  0  0  0  0  0  0  0
   27.9985  -20.5908   -6.5479 C   0  0  0  0  0  0  0  0  0  0  0  0
   27.3955  -20.5621   -5.3126 C   0  0  0  0  0  0  0  0  0  0  0  0
   27.6509  -19.5211   -4.4538 C   0  0  0  0  0  0  0  0  0  0  0  0
   28.5026  -18.4892   -4.7911 C   0  0  0  0  0  0  0  0  0  0  0  0
   29.0987  -18.5337   -6.0333 C   0  0  0  0  0  0  0  0  0  0  0  0
   28.8534  -19.5690   -6.9049 C   0  0  0  0  0  0  0  0  0  0  0  0
   25.6104  -20.5585   -8.0633 C   0  0  0  0  0  0  0  0  0  0  0  0
   25.5970  -19.3330   -8.3163 O   0  0  0  0  0  0  0  0  0  0  0  0
   24.5815  -21.1104   -7.3569 O   0  0  0  0  0  0  0  0  0  0  0  0
  2  1  1  1
  2  8  1  0
  3  2  1  0
  3  4  1  0
  4  5  1  0
  5  6  1  0
  6  7  1  0
  8  9  2  0
 10 11  1  0
 10  8  1  0
 11 12  1  0
 12 13  2  0
 12 14  1  0
 14 15  1  0
 15 23  1  0
 15 16  1  1
 17 16  1  0
 17 18  2  0
 19 18  1  0
 20 19  2  0
 21 22  2  0
 21 20  1  0
 22 17  1  0
 23 25  1  0
 24 23  2  0
M  END
$$$$
