KGF.pdb
     RDKit          3D

 25 25  0  0  1  0  0  0  0  0999 V2000
   26.9966  -21.6515  -14.5366 N   0  0  0  0  0  0  0  0  0  0  0  0
   27.7070  -20.6308  -15.1973 C   0  0  1  0  0  0  0  0  0  0  0  0
   27.0686  -19.8188  -16.2346 C   0  0  0  0  0  0  0  0  0  0  0  0
   26.4125  -20.3445  -17.4143 C   0  0  0  0  0  0  0  0  0  0  0  0
   25.6227  -21.5523  -17.5328 C   0  0  0  0  0  0  0  0  0  0  0  0
   25.0218  -21.9892  -18.8128 C   0  0  0  0  0  0  0  0  0  0  0  0
   24.3812  -23.3349  -18.6215 N   0  0  0  0  0  0  0  0  0  0  0  0
   28.1871  -19.6660  -14.1275 C   0  0  0  0  0  0  0  0  0  0  0  0
   28.8838  -18.6826  -14.4525 O   0  0  0  0  0  0  0  0  0  0  0  0
   27.8614  -19.8559  -12.7594 N   0  0  0  0  0  0  0  0  0  0  0  0
   26.7734  -19.1191  -12.2217 C   0  0  0  0  0  0  0  0  0  0  0  0
   26.4234  -19.3914  -10.8282 C   0  0  0  0  0  0  0  0  0  0  0  0
   25.4227  -18.7941  -10.2924 O   0  0  0  0  0  0  0  0  0  0  0  0
   27.0955  -20.2834   -9.9580 N   0  0  0  0  0  0  0  0  0  0  0  0
   26.3995  -21.1325   -9.0086 C   0  0  1  0  0  0  0  0  0  0  0  0
   27.3382  -21.6713   -7.9698 C   0  0  0  0  0  0  0  0  0  0  0  0
   27.6440  -20.7338   -6.8977 C   0  0  0  0  0  0  0  0  0  0  0  0
   26.8692  -20.6433   -5.7655 C   0  0  0  0  0  0  0  0  0  0  0  0
   27.2085  -19.7518   -4.7772 C   0  0  0  0  0  0  0  0  0  0  0  0
   28.3141  -18.9329   -4.8816 C   0  0  0  0  0  0  0  0  0  0  0  0
   29.0798  -19.0367   -6.0232 C   0  0  0  0  0  0  0  0  0  0  0  0
   28.7536  -19.9242   -7.0220 C   0  0  0  0  0  0  0  0  0  0  0  0
   25.1959  -20.4770   -8.4651 C   0  0  0  0  0  0  0  0  0  0  0  0
   24.3578  -21.1604   -7.8354 O   0  0  0  0  0  0  0  0  0  0  0  0
   24.9816  -19.1402   -8.6358 O   0  0  0  0  0  0  0  0  0  0  0  0
  2  1  1  1
  2  8  1  0
  3  2  1  0
  3  4  1  0
  4  5  1  0
  5  6  1  0
  6  7  1  0
  8  9  2  0
 10 11  1  0
 10  8  1  0
 11 12  1  0
 12 13  2  0
 12 14  1  0
 14 15  1  0
 15 23  1  0
 15 16  1  1
 17 16  1  0
 17 18  2  0
 19 18  1  0
 20 19  2  0
 21 22  2  0
 21 20  1  0
 22 17  1  0
 23 25  1  0
 24 23  2  0
M  END
$$$$
