KGF.pdb
     RDKit          3D

 25 25  0  0  1  0  0  0  0  0999 V2000
   23.6314  -18.0392  -16.3306 N   0  0  0  0  0  0  0  0  0  0  0  0
   23.7571  -19.3499  -16.8298 C   0  0  1  0  0  0  0  0  0  0  0  0
   23.6059  -19.6293  -18.2588 C   0  0  0  0  0  0  0  0  0  0  0  0
   23.9339  -18.7051  -19.3250 C   0  0  0  0  0  0  0  0  0  0  0  0
   23.0252  -17.9706  -20.1803 C   0  0  0  0  0  0  0  0  0  0  0  0
   23.4960  -17.0592  -21.2470 C   0  0  0  0  0  0  0  0  0  0  0  0
   22.3157  -16.3390  -21.8352 N   0  0  0  0  0  0  0  0  0  0  0  0
   25.1402  -19.8390  -16.4377 C   0  0  0  0  0  0  0  0  0  0  0  0
   25.4198  -21.0504  -16.5487 O   0  0  0  0  0  0  0  0  0  0  0  0
   26.1285  -18.9475  -15.9453 N   0  0  0  0  0  0  0  0  0  0  0  0
   27.3729  -19.4906  -15.5305 C   0  0  0  0  0  0  0  0  0  0  0  0
   27.5626  -19.6683  -14.0914 C   0  0  0  0  0  0  0  0  0  0  0  0
   28.0580  -18.7155  -13.3898 O   0  0  0  0  0  0  0  0  0  0  0  0
   27.2466  -20.8292  -13.3451 N   0  0  0  0  0  0  0  0  0  0  0  0
   27.1800  -20.8402  -11.8952 C   0  0  1  0  0  0  0  0  0  0  0  0
   26.3999  -19.6682  -11.3770 C   0  0  0  0  0  0  0  0  0  0  0  0
   24.9584  -19.7872  -11.5498 C   0  0  0  0  0  0  0  0  0  0  0  0
   24.3308  -19.4158  -12.7153 C   0  0  0  0  0  0  0  0  0  0  0  0
   22.9700  -19.5607  -12.8325 C   0  0  0  0  0  0  0  0  0  0  0  0
   22.2000  -20.0726  -11.8083 C   0  0  0  0  0  0  0  0  0  0  0  0
   22.8452  -20.4399  -10.6468 C   0  0  0  0  0  0  0  0  0  0  0  0
   24.2071  -20.3012  -10.5136 C   0  0  0  0  0  0  0  0  0  0  0  0
   26.7385  -22.1474  -11.3756 C   0  0  0  0  0  0  0  0  0  0  0  0
   26.7917  -22.3670  -10.1448 O   0  0  0  0  0  0  0  0  0  0  0  0
   26.2724  -23.1194  -12.2124 O   0  0  0  0  0  0  0  0  0  0  0  0
  2  1  1  6
  2  8  1  0
  3  2  1  0
  3  4  1  0
  4  5  1  0
  5  6  1  0
  6  7  1  0
  8  9  2  0
 10 11  1  0
 10  8  1  0
 11 12  1  0
 12 13  2  0
 12 14  1  0
 14 15  1  0
 15 23  1  0
 15 16  1  6
 17 16  1  0
 17 18  2  0
 19 18  1  0
 20 19  2  0
 21 22  2  0
 21 20  1  0
 22 17  1  0
 23 25  1  0
 24 23  2  0
M  END
$$$$
