KGF.pdb
     RDKit          3D

 25 25  0  0  1  0  0  0  0  0999 V2000
   27.5247  -23.2982  -14.8967 N   0  0  0  0  0  0  0  0  0  0  0  0
   27.2291  -22.0304  -15.4336 C   0  0  1  0  0  0  0  0  0  0  0  0
   26.3549  -21.8914  -16.5994 C   0  0  0  0  0  0  0  0  0  0  0  0
   25.5622  -22.9586  -17.1751 C   0  0  0  0  0  0  0  0  0  0  0  0
   25.8587  -24.3756  -17.2022 C   0  0  0  0  0  0  0  0  0  0  0  0
   24.9547  -25.3672  -17.8264 C   0  0  0  0  0  0  0  0  0  0  0  0
   25.5134  -26.7456  -17.6125 N   0  0  0  0  0  0  0  0  0  0  0  0
   26.5949  -21.2177  -14.3185 C   0  0  0  0  0  0  0  0  0  0  0  0
   26.5082  -19.9778  -14.4325 O   0  0  0  0  0  0  0  0  0  0  0  0
   26.0956  -21.8368  -13.1433 N   0  0  0  0  0  0  0  0  0  0  0  0
   25.4352  -21.0221  -12.1863 C   0  0  0  0  0  0  0  0  0  0  0  0
   25.8144  -21.2169  -10.7874 C   0  0  0  0  0  0  0  0  0  0  0  0
   25.1779  -22.0644  -10.0650 O   0  0  0  0  0  0  0  0  0  0  0  0
   26.8558  -20.5442  -10.1038 N   0  0  0  0  0  0  0  0  0  0  0  0
   27.0741  -20.6757   -8.6749 C   0  0  1  0  0  0  0  0  0  0  0  0
   28.2593  -19.8716   -8.2286 C   0  0  0  0  0  0  0  0  0  0  0  0
   28.4532  -19.8445   -6.7851 C   0  0  0  0  0  0  0  0  0  0  0  0
   27.9386  -18.8405   -5.9993 C   0  0  0  0  0  0  0  0  0  0  0  0
   28.1383  -18.8686   -4.6407 C   0  0  0  0  0  0  0  0  0  0  0  0
   28.8465  -19.8821   -4.0282 C   0  0  0  0  0  0  0  0  0  0  0  0
   29.3554  -20.8806   -4.8309 C   0  0  0  0  0  0  0  0  0  0  0  0
   29.1643  -20.8672   -6.1929 C   0  0  0  0  0  0  0  0  0  0  0  0
   25.8410  -20.4270   -7.9058 C   0  0  0  0  0  0  0  0  0  0  0  0
   25.1026  -19.4686   -8.2253 O   0  0  0  0  0  0  0  0  0  0  0  0
   25.4915  -21.2236   -6.8544 O   0  0  0  0  0  0  0  0  0  0  0  0
  2  1  1  1
  2  8  1  0
  3  2  1  0
  3  4  1  0
  4  5  1  0
  5  6  1  0
  6  7  1  0
  8  9  2  0
 10 11  1  0
 10  8  1  0
 11 12  1  0
 12 13  2  0
 12 14  1  0
 14 15  1  0
 15 23  1  0
 15 16  1  1
 17 16  1  0
 17 18  2  0
 19 18  1  0
 20 19  2  0
 21 22  2  0
 21 20  1  0
 22 17  1  0
 23 25  1  0
 24 23  2  0
M  END
$$$$
