KGF.pdb
     RDKit          3D

 25 25  0  0  1  0  0  0  0  0999 V2000
   23.2225  -12.9977  -20.6717 N   0  0  0  0  0  0  0  0  0  0  0  0
   21.9109  -12.6607  -21.0579 C   0  0  1  0  0  0  0  0  0  0  0  0
   20.7738  -13.4987  -20.6736 C   0  0  0  0  0  0  0  0  0  0  0  0
   20.8592  -14.8978  -20.3081 C   0  0  0  0  0  0  0  0  0  0  0  0
   20.8111  -15.4785  -18.9825 C   0  0  0  0  0  0  0  0  0  0  0  0
   20.6718  -16.9341  -18.7546 C   0  0  0  0  0  0  0  0  0  0  0  0
   20.5903  -17.1952  -17.2771 N   0  0  0  0  0  0  0  0  0  0  0  0
   21.6324  -11.2741  -20.5051 C   0  0  0  0  0  0  0  0  0  0  0  0
   20.5296  -10.7328  -20.7262 O   0  0  0  0  0  0  0  0  0  0  0  0
   22.6005  -10.5745  -19.7389 N   0  0  0  0  0  0  0  0  0  0  0  0
   22.2344   -9.3215  -19.1806 C   0  0  0  0  0  0  0  0  0  0  0  0
   22.1646   -9.2501  -17.7216 C   0  0  0  0  0  0  0  0  0  0  0  0
   21.8883  -10.3029  -17.0430 O   0  0  0  0  0  0  0  0  0  0  0  0
   22.3776   -8.0947  -16.9316 N   0  0  0  0  0  0  0  0  0  0  0  0
   22.3252   -8.1112  -15.4811 C   0  0  1  0  0  0  0  0  0  0  0  0
   23.6776   -7.8554  -14.8844 C   0  0  0  0  0  0  0  0  0  0  0  0
   24.7414   -8.6804  -15.4409 C   0  0  0  0  0  0  0  0  0  0  0  0
   25.5124   -8.2597  -16.4987 C   0  0  0  0  0  0  0  0  0  0  0  0
   26.5124   -9.0703  -16.9778 C   0  0  0  0  0  0  0  0  0  0  0  0
   26.7744  -10.3084  -16.4277 C   0  0  0  0  0  0  0  0  0  0  0  0
   25.9920  -10.7145  -15.3679 C   0  0  0  0  0  0  0  0  0  0  0  0
   24.9867   -9.9147  -14.8764 C   0  0  0  0  0  0  0  0  0  0  0  0
   21.2524   -7.2441  -14.9604 C   0  0  0  0  0  0  0  0  0  0  0  0
   20.7003   -6.4245  -15.7282 O   0  0  0  0  0  0  0  0  0  0  0  0
   20.8513   -7.3211  -13.6583 O   0  0  0  0  0  0  0  0  0  0  0  0
  2  1  1  1
  2  8  1  0
  3  2  1  0
  3  4  1  0
  4  5  1  0
  5  6  1  0
  6  7  1  0
  8  9  2  0
 10 11  1  0
 10  8  1  0
 11 12  1  0
 12 13  2  0
 12 14  1  0
 14 15  1  0
 15 23  1  0
 15 16  1  1
 17 16  1  0
 17 18  2  0
 19 18  1  0
 20 19  2  0
 21 22  2  0
 21 20  1  0
 22 17  1  0
 23 25  1  0
 24 23  2  0
M  END
$$$$
