KGF.pdb
     RDKit          3D

 25 25  0  0  1  0  0  0  0  0999 V2000
   25.4225  -20.1768  -15.8495 N   0  0  0  0  0  0  0  0  0  0  0  0
   26.6046  -19.4700  -15.5558 C   0  0  1  0  0  0  0  0  0  0  0  0
   26.8625  -18.1555  -16.1460 C   0  0  0  0  0  0  0  0  0  0  0  0
   27.8069  -17.8950  -17.2131 C   0  0  0  0  0  0  0  0  0  0  0  0
   28.9053  -18.7282  -17.6558 C   0  0  0  0  0  0  0  0  0  0  0  0
   29.8052  -18.3379  -18.7641 C   0  0  0  0  0  0  0  0  0  0  0  0
   29.4463  -19.1283  -19.9907 N   0  0  0  0  0  0  0  0  0  0  0  0
   26.6418  -19.2824  -14.0494 C   0  0  0  0  0  0  0  0  0  0  0  0
   25.6060  -18.9343  -13.4461 O   0  0  0  0  0  0  0  0  0  0  0  0
   27.8321  -19.4942  -13.3063 N   0  0  0  0  0  0  0  0  0  0  0  0
   27.8227  -19.1772  -11.9224 C   0  0  0  0  0  0  0  0  0  0  0  0
   27.2897  -20.1977  -11.0206 C   0  0  0  0  0  0  0  0  0  0  0  0
   27.5464  -21.4361  -11.2343 O   0  0  0  0  0  0  0  0  0  0  0  0
   26.4822  -19.9648   -9.8812 N   0  0  0  0  0  0  0  0  0  0  0  0
   26.0713  -21.0232   -8.9769 C   0  0  1  0  0  0  0  0  0  0  0  0
   27.2306  -21.5334   -8.1731 C   0  0  0  0  0  0  0  0  0  0  0  0
   27.5941  -20.6861   -7.0453 C   0  0  0  0  0  0  0  0  0  0  0  0
   28.5233  -19.6792   -7.1598 C   0  0  0  0  0  0  0  0  0  0  0  0
   28.8209  -18.8994   -6.0690 C   0  0  0  0  0  0  0  0  0  0  0  0
   28.2123  -19.0932   -4.8458 C   0  0  0  0  0  0  0  0  0  0  0  0
   27.2832  -20.1070   -4.7486 C   0  0  0  0  0  0  0  0  0  0  0  0
   26.9740  -20.8967   -5.8315 C   0  0  0  0  0  0  0  0  0  0  0  0
   24.8949  -20.6360   -8.1769 C   0  0  0  0  0  0  0  0  0  0  0  0
   24.3398  -21.4906   -7.4507 O   0  0  0  0  0  0  0  0  0  0  0  0
   24.4030  -19.3636   -8.2140 O   0  0  0  0  0  0  0  0  0  0  0  0
  2  1  1  1
  2  8  1  0
  3  2  1  0
  3  4  1  0
  4  5  1  0
  5  6  1  0
  6  7  1  0
  8  9  2  0
 10 11  1  0
 10  8  1  0
 11 12  1  0
 12 13  2  0
 12 14  1  0
 14 15  1  0
 15 23  1  0
 15 16  1  1
 17 16  1  0
 17 18  2  0
 19 18  1  0
 20 19  2  0
 21 22  2  0
 21 20  1  0
 22 17  1  0
 23 25  1  0
 24 23  2  0
M  END
$$$$
