KGF.pdb
     RDKit          3D

 25 25  0  0  1  0  0  0  0  0999 V2000
   26.0769  -18.8045  -13.9657 N   0  0  0  0  0  0  0  0  0  0  0  0
   25.6703  -20.1449  -14.1098 C   0  0  1  0  0  0  0  0  0  0  0  0
   25.6366  -20.7844  -15.4262 C   0  0  0  0  0  0  0  0  0  0  0  0
   24.8618  -20.3165  -16.5572 C   0  0  0  0  0  0  0  0  0  0  0  0
   24.0582  -19.1158  -16.6531 C   0  0  0  0  0  0  0  0  0  0  0  0
   23.2715  -18.7775  -17.8601 C   0  0  0  0  0  0  0  0  0  0  0  0
   22.5352  -17.4894  -17.6224 N   0  0  0  0  0  0  0  0  0  0  0  0
   26.5985  -20.9811  -13.2467 C   0  0  0  0  0  0  0  0  0  0  0  0
   26.3468  -22.1898  -13.0630 O   0  0  0  0  0  0  0  0  0  0  0  0
   27.7519  -20.4191  -12.6403 N   0  0  0  0  0  0  0  0  0  0  0  0
   28.4985  -21.2281  -11.7438 C   0  0  0  0  0  0  0  0  0  0  0  0
   27.9473  -21.3965  -10.3998 C   0  0  0  0  0  0  0  0  0  0  0  0
   28.1980  -22.4648   -9.7357 O   0  0  0  0  0  0  0  0  0  0  0  0
   27.1272  -20.4696   -9.7121 N   0  0  0  0  0  0  0  0  0  0  0  0
   26.5467  -20.7451   -8.4106 C   0  0  1  0  0  0  0  0  0  0  0  0
   26.6849  -19.5670   -7.4923 C   0  0  0  0  0  0  0  0  0  0  0  0
   27.8042  -19.6610   -6.5648 C   0  0  0  0  0  0  0  0  0  0  0  0
   28.2990  -20.8713   -6.1398 C   0  0  0  0  0  0  0  0  0  0  0  0
   29.3653  -20.9057   -5.2748 C   0  0  0  0  0  0  0  0  0  0  0  0
   29.9657  -19.7532   -4.8109 C   0  0  0  0  0  0  0  0  0  0  0  0
   29.4572  -18.5485   -5.2470 C   0  0  0  0  0  0  0  0  0  0  0  0
   28.3899  -18.4969   -6.1131 C   0  0  0  0  0  0  0  0  0  0  0  0
   25.1761  -21.2770   -8.5221 C   0  0  0  0  0  0  0  0  0  0  0  0
   24.5755  -21.1980   -9.6171 O   0  0  0  0  0  0  0  0  0  0  0  0
   24.5533  -21.8540   -7.4537 O   0  0  0  0  0  0  0  0  0  0  0  0
  2  1  1  6
  2  8  1  0
  3  2  1  0
  3  4  1  0
  4  5  1  0
  5  6  1  0
  6  7  1  0
  8  9  2  0
 10 11  1  0
 10  8  1  0
 11 12  1  0
 12 13  2  0
 12 14  1  0
 14 15  1  0
 15 23  1  0
 15 16  1  1
 17 16  1  0
 17 18  2  0
 19 18  1  0
 20 19  2  0
 21 22  2  0
 21 20  1  0
 22 17  1  0
 23 25  1  0
 24 23  2  0
M  END
$$$$
