KGF.pdb
     RDKit          3D

 25 25  0  0  1  0  0  0  0  0999 V2000
   25.5705  -22.5967  -14.5497 N   0  0  0  0  0  0  0  0  0  0  0  0
   26.0642  -21.4386  -15.1807 C   0  0  1  0  0  0  0  0  0  0  0  0
   25.1775  -20.5638  -15.9496 C   0  0  0  0  0  0  0  0  0  0  0  0
   23.9494  -20.9841  -16.5928 C   0  0  0  0  0  0  0  0  0  0  0  0
   23.0569  -22.0543  -16.1994 C   0  0  0  0  0  0  0  0  0  0  0  0
   21.8456  -22.4067  -16.9731 C   0  0  0  0  0  0  0  0  0  0  0  0
   21.1931  -23.6063  -16.3461 N   0  0  0  0  0  0  0  0  0  0  0  0
   26.6861  -20.5778  -14.0953 C   0  0  0  0  0  0  0  0  0  0  0  0
   26.6515  -19.3344  -14.1997 O   0  0  0  0  0  0  0  0  0  0  0  0
   27.3091  -21.1553  -12.9586 N   0  0  0  0  0  0  0  0  0  0  0  0
   27.5511  -20.3243  -11.8332 C   0  0  0  0  0  0  0  0  0  0  0  0
   27.0332  -20.7943  -10.5489 C   0  0  0  0  0  0  0  0  0  0  0  0
   26.7527  -22.0356  -10.3889 O   0  0  0  0  0  0  0  0  0  0  0  0
   26.7936  -19.9970   -9.4037 N   0  0  0  0  0  0  0  0  0  0  0  0
   26.1136  -20.4977   -8.2232 C   0  0  1  0  0  0  0  0  0  0  0  0
   26.3061  -19.5791   -7.0530 C   0  0  0  0  0  0  0  0  0  0  0  0
   27.6608  -19.5702   -6.5175 C   0  0  0  0  0  0  0  0  0  0  0  0
   28.5538  -20.5828   -6.7770 C   0  0  0  0  0  0  0  0  0  0  0  0
   29.8244  -20.5202   -6.2591 C   0  0  0  0  0  0  0  0  0  0  0  0
   30.2421  -19.4629   -5.4771 C   0  0  0  0  0  0  0  0  0  0  0  0
   29.3342  -18.4562   -5.2268 C   0  0  0  0  0  0  0  0  0  0  0  0
   28.0582  -18.5040   -5.7380 C   0  0  0  0  0  0  0  0  0  0  0  0
   24.7084  -20.8445   -8.5045 C   0  0  0  0  0  0  0  0  0  0  0  0
   24.0484  -21.4712   -7.6456 O   0  0  0  0  0  0  0  0  0  0  0  0
   24.1163  -20.4930   -9.6827 O   0  0  0  0  0  0  0  0  0  0  0  0
  2  1  1  1
  2  8  1  0
  3  2  1  0
  3  4  1  0
  4  5  1  0
  5  6  1  0
  6  7  1  0
  8  9  2  0
 10 11  1  0
 10  8  1  0
 11 12  1  0
 12 13  2  0
 12 14  1  0
 14 15  1  0
 15 23  1  0
 15 16  1  1
 17 16  1  0
 17 18  2  0
 19 18  1  0
 20 19  2  0
 21 22  2  0
 21 20  1  0
 22 17  1  0
 23 25  1  0
 24 23  2  0
M  END
$$$$
