KGF.pdb
     RDKit          3D

 25 25  0  0  1  0  0  0  0  0999 V2000
   25.7978  -21.3569  -19.0492 N   0  0  0  0  0  0  0  0  0  0  0  0
   25.3985  -20.0515  -19.3948 C   0  0  1  0  0  0  0  0  0  0  0  0
   25.0276  -19.7168  -20.7707 C   0  0  0  0  0  0  0  0  0  0  0  0
   25.9398  -19.2152  -21.7782 C   0  0  0  0  0  0  0  0  0  0  0  0
   27.1922  -18.5163  -21.5795 C   0  0  0  0  0  0  0  0  0  0  0  0
   28.0426  -18.0691  -22.7052 C   0  0  0  0  0  0  0  0  0  0  0  0
   29.3321  -17.5226  -22.1607 N   0  0  0  0  0  0  0  0  0  0  0  0
   24.1968  -19.7157  -18.5293 C   0  0  0  0  0  0  0  0  0  0  0  0
   24.1690  -18.6342  -17.9066 O   0  0  0  0  0  0  0  0  0  0  0  0
   23.0984  -20.6061  -18.4103 N   0  0  0  0  0  0  0  0  0  0  0  0
   22.0156  -20.2256  -17.5745 C   0  0  0  0  0  0  0  0  0  0  0  0
   21.8393  -20.9921  -16.3417 C   0  0  0  0  0  0  0  0  0  0  0  0
   21.8215  -22.2740  -16.3834 O   0  0  0  0  0  0  0  0  0  0  0  0
   21.6779  -20.4556  -15.0414 N   0  0  0  0  0  0  0  0  0  0  0  0
   21.5509  -21.2849  -13.8570 C   0  0  1  0  0  0  0  0  0  0  0  0
   22.7539  -21.1558  -12.9702 C   0  0  0  0  0  0  0  0  0  0  0  0
   24.0122  -21.5036  -13.6165 C   0  0  0  0  0  0  0  0  0  0  0  0
   24.4271  -22.8076  -13.7497 C   0  0  0  0  0  0  0  0  0  0  0  0
   25.6161  -23.0833  -14.3795 C   0  0  0  0  0  0  0  0  0  0  0  0
   26.4198  -22.0848  -14.8903 C   0  0  0  0  0  0  0  0  0  0  0  0
   25.9887  -20.7831  -14.7482 C   0  0  0  0  0  0  0  0  0  0  0  0
   24.8007  -20.4903  -14.1200 C   0  0  0  0  0  0  0  0  0  0  0  0
   20.2614  -21.0733  -13.1741 C   0  0  0  0  0  0  0  0  0  0  0  0
   19.8629  -21.9187  -12.3420 O   0  0  0  0  0  0  0  0  0  0  0  0
   19.4975  -19.9725  -13.4326 O   0  0  0  0  0  0  0  0  0  0  0  0
  2  1  1  6
  2  8  1  0
  3  2  1  0
  3  4  1  0
  4  5  1  0
  5  6  1  0
  6  7  1  0
  8  9  2  0
 10 11  1  0
 10  8  1  0
 11 12  1  0
 12 13  2  0
 12 14  1  0
 14 15  1  0
 15 23  1  0
 15 16  1  1
 17 16  1  0
 17 18  2  0
 19 18  1  0
 20 19  2  0
 21 22  2  0
 21 20  1  0
 22 17  1  0
 23 25  1  0
 24 23  2  0
M  END
$$$$
