PPD.pdb
     RDKit          3D

 23 24  0  0  1  0  0  0  0  0999 V2000
    8.2120  -13.4032   20.7198 N   0  0  0  0  0  0  0  0  0  0  0  0
    7.6029  -14.1825   19.6914 C   0  0  0  0  0  0  0  0  0  0  0  0
    6.5965  -15.0802   20.3445 C   0  0  0  0  0  0  0  0  0  0  0  0
    6.4421  -14.5845   21.7455 C   0  0  0  0  0  0  0  0  0  0  0  0
    7.4762  -13.5156   21.9316 C   0  0  1  0  0  0  0  0  0  0  0  0
    8.3049  -13.8424   23.1225 C   0  0  0  0  0  0  0  0  0  0  0  0
    9.5101  -14.2132   23.0036 O   0  0  0  0  0  0  0  0  0  0  0  0
    7.7827  -13.7556   24.4610 N   0  0  0  0  0  0  0  0  0  0  0  0
    6.4103  -13.5434   24.7665 C   0  0  0  0  0  0  0  0  0  0  0  0
    6.3444  -13.3633   26.2630 C   0  0  0  0  0  0  0  0  0  0  0  0
    7.7971  -13.0216   26.6546 C   0  0  0  0  0  0  0  0  0  0  0  0
    8.5315  -13.8698   25.6776 C   0  0  1  0  0  0  0  0  0  0  0  0
    8.7215  -15.2736   26.1108 C   0  0  0  0  0  0  0  0  0  0  0  0
    7.7850  -16.1312   26.1358 O   0  0  0  0  0  0  0  0  0  0  0  0
    9.9860  -15.7133   26.5216 N   0  0  0  0  0  0  0  0  0  0  0  0
   10.3173  -17.1212   26.7740 C   0  0  1  0  0  0  0  0  0  0  0  0
   11.6887  -17.4570   26.3287 C   0  0  0  0  0  0  0  0  0  0  0  0
   11.9022  -17.0800   24.9274 C   0  0  0  0  0  0  0  0  0  0  0  0
   11.2798  -17.6461   24.0089 O   0  0  0  0  0  0  0  0  0  0  0  0
   10.2217  -17.3107   28.2575 C   0  0  0  0  0  0  0  0  0  0  0  0
   10.2572  -18.5014   28.9262 O   0  0  0  0  0  0  0  0  0  0  0  0
   12.7973  -16.0836   24.5373 O   0  0  0  0  0  0  0  0  0  0  0  0
   10.0926  -16.2707   28.9992 O   0  0  0  0  0  0  0  0  0  0  0  0
  2  1  1  0
  3  2  1  0
  4  3  1  0
  4  5  1  0
  5  6  1  1
  5  1  1  0
  6  7  2  0
  8 12  1  0
  8  6  1  0
  9 10  1  0
  9  8  1  0
 10 11  1  0
 11 12  1  0
 13 15  1  0
 12 13  1  1
 14 13  2  0
 16 15  1  0
 16 17  1  1
 17 18  1  0
 18 19  2  0
 18 22  1  0
 20 16  1  0
 21 20  1  0
 23 20  2  0
M  END
$$$$
