PPD.pdb
     RDKit          3D

 23 24  0  0  1  0  0  0  0  0999 V2000
    8.1091  -14.0680   20.6694 N   0  0  0  0  0  0  0  0  0  0  0  0
    7.3774  -14.9346   19.8038 C   0  0  0  0  0  0  0  0  0  0  0  0
    6.3749  -15.6664   20.6433 C   0  0  0  0  0  0  0  0  0  0  0  0
    6.3596  -14.9785   21.9696 C   0  0  0  0  0  0  0  0  0  0  0  0
    7.4652  -13.9671   21.9334 C   0  0  1  0  0  0  0  0  0  0  0  0
    8.3642  -14.1872   23.0974 C   0  0  0  0  0  0  0  0  0  0  0  0
    9.5684  -14.5469   22.9398 O   0  0  0  0  0  0  0  0  0  0  0  0
    7.9145  -14.0050   24.4525 N   0  0  0  0  0  0  0  0  0  0  0  0
    6.5796  -13.6687   24.8085 C   0  0  0  0  0  0  0  0  0  0  0  0
    6.5991  -13.4249   26.2973 C   0  0  0  0  0  0  0  0  0  0  0  0
    8.0915  -13.1888   26.6096 C   0  0  0  0  0  0  0  0  0  0  0  0
    8.7084  -14.1324   25.6390 C   0  0  1  0  0  0  0  0  0  0  0  0
    8.8050  -15.5289   26.1236 C   0  0  0  0  0  0  0  0  0  0  0  0
    7.8406  -16.3542   26.0773 O   0  0  0  0  0  0  0  0  0  0  0  0
   10.0068  -15.9984   26.6680 N   0  0  0  0  0  0  0  0  0  0  0  0
   10.2916  -17.4178   26.9124 C   0  0  1  0  0  0  0  0  0  0  0  0
   11.6926  -17.7670   26.5848 C   0  0  0  0  0  0  0  0  0  0  0  0
   11.9736  -17.5653   25.1594 C   0  0  0  0  0  0  0  0  0  0  0  0
   12.9228  -16.8494   24.7879 O   0  0  0  0  0  0  0  0  0  0  0  0
   10.0581  -17.6421   28.3756 C   0  0  0  0  0  0  0  0  0  0  0  0
   10.0163  -18.8493   29.0136 O   0  0  0  0  0  0  0  0  0  0  0  0
   11.2132  -18.1489   24.1458 O   0  0  0  0  0  0  0  0  0  0  0  0
    9.8755  -16.6187   29.1291 O   0  0  0  0  0  0  0  0  0  0  0  0
  2  1  1  0
  3  2  1  0
  4  3  1  0
  4  5  1  0
  5  6  1  1
  5  1  1  0
  6  7  2  0
  8 12  1  0
  8  6  1  0
  9 10  1  0
  9  8  1  0
 10 11  1  0
 11 12  1  0
 13 15  1  0
 12 13  1  1
 14 13  2  0
 16 15  1  0
 16 17  1  1
 17 18  1  0
 18 19  2  0
 18 22  1  0
 20 16  1  0
 21 20  1  0
 23 20  2  0
M  END
$$$$
