PPD.pdb
     RDKit          3D

 23 24  0  0  1  0  0  0  0  0999 V2000
    8.5310  -14.0857   20.9226 N   0  0  0  0  0  0  0  0  0  0  0  0
    7.8384  -14.8673   19.9505 C   0  0  0  0  0  0  0  0  0  0  0  0
    6.6372  -15.4591   20.6228 C   0  0  0  0  0  0  0  0  0  0  0  0
    6.5050  -14.7567   21.9350 C   0  0  0  0  0  0  0  0  0  0  0  0
    7.7195  -13.8894   22.0738 C   0  0  1  0  0  0  0  0  0  0  0  0
    8.3965  -14.2027   23.3604 C   0  0  0  0  0  0  0  0  0  0  0  0
    9.5455  -14.7350   23.3865 O   0  0  0  0  0  0  0  0  0  0  0  0
    7.7844  -13.9198   24.6320 N   0  0  0  0  0  0  0  0  0  0  0  0
    6.4471  -13.4617   24.7860 C   0  0  0  0  0  0  0  0  0  0  0  0
    6.2853  -13.1483   26.2529 C   0  0  0  0  0  0  0  0  0  0  0  0
    7.7362  -13.0165   26.7609 C   0  0  0  0  0  0  0  0  0  0  0  0
    8.3963  -14.0520   25.9213 C   0  0  1  0  0  0  0  0  0  0  0  0
    8.3069  -15.4266   26.4662 C   0  0  0  0  0  0  0  0  0  0  0  0
    7.2530  -16.1336   26.4127 O   0  0  0  0  0  0  0  0  0  0  0  0
    9.4227  -16.0092   27.0799 N   0  0  0  0  0  0  0  0  0  0  0  0
    9.6906  -17.4527   27.0827 C   0  0  1  0  0  0  0  0  0  0  0  0
   10.8991  -17.7944   26.2987 C   0  0  0  0  0  0  0  0  0  0  0  0
   11.2432  -19.2132   26.4394 C   0  0  0  0  0  0  0  0  0  0  0  0
   10.3902  -20.1016   26.2529 O   0  0  0  0  0  0  0  0  0  0  0  0
    9.9108  -17.8313   28.5159 C   0  0  0  0  0  0  0  0  0  0  0  0
    9.9761  -16.9761   29.5790 O   0  0  0  0  0  0  0  0  0  0  0  0
   12.5211  -19.6538   26.7842 O   0  0  0  0  0  0  0  0  0  0  0  0
   10.0565  -19.0740   28.8040 O   0  0  0  0  0  0  0  0  0  0  0  0
  2  1  1  0
  3  2  1  0
  4  3  1  0
  4  5  1  0
  5  6  1  1
  5  1  1  0
  6  7  2  0
  8 12  1  0
  8  6  1  0
  9 10  1  0
  9  8  1  0
 10 11  1  0
 11 12  1  0
 13 15  1  0
 12 13  1  1
 14 13  2  0
 16 15  1  0
 16 17  1  6
 17 18  1  0
 18 19  2  0
 18 22  1  0
 20 16  1  0
 21 20  1  0
 23 20  2  0
M  END
$$$$
