PPD.pdb
     RDKit          3D

 23 24  0  0  1  0  0  0  0  0999 V2000
    8.8838  -16.0586   15.3167 N   0  0  0  0  0  0  0  0  0  0  0  0
    8.2688  -17.2456   14.8182 C   0  0  0  0  0  0  0  0  0  0  0  0
    7.2779  -17.7032   15.8448 C   0  0  0  0  0  0  0  0  0  0  0  0
    7.1364  -16.5790   16.8187 C   0  0  0  0  0  0  0  0  0  0  0  0
    8.1638  -15.5570   16.4358 C   0  0  1  0  0  0  0  0  0  0  0  0
    9.0096  -15.2502   17.6200 C   0  0  0  0  0  0  0  0  0  0  0  0
   10.2084  -15.6520   17.6940 O   0  0  0  0  0  0  0  0  0  0  0  0
    8.5120  -14.4873   18.7345 N   0  0  0  0  0  0  0  0  0  0  0  0
    7.1569  -14.0811   18.8779 C   0  0  0  0  0  0  0  0  0  0  0  0
    7.1219  -13.1830   20.0897 C   0  0  0  0  0  0  0  0  0  0  0  0
    8.5958  -12.7685   20.2803 C   0  0  0  0  0  0  0  0  0  0  0  0
    9.2714  -14.0250   19.8586 C   0  0  1  0  0  0  0  0  0  0  0  0
    9.3951  -15.0400   20.9305 C   0  0  0  0  0  0  0  0  0  0  0  0
    8.4856  -15.8834   21.2041 O   0  0  0  0  0  0  0  0  0  0  0  0
   10.5613  -15.1021   21.7032 N   0  0  0  0  0  0  0  0  0  0  0  0
   11.0327  -16.3215   22.3713 C   0  0  1  0  0  0  0  0  0  0  0  0
   12.5089  -16.4322   22.3470 C   0  0  0  0  0  0  0  0  0  0  0  0
   12.9666  -17.6249   23.0676 C   0  0  0  0  0  0  0  0  0  0  0  0
   12.1531  -18.4537   23.5180 O   0  0  0  0  0  0  0  0  0  0  0  0
   10.5704  -16.2211   23.7933 C   0  0  0  0  0  0  0  0  0  0  0  0
   10.4576  -17.2513   24.6832 O   0  0  0  0  0  0  0  0  0  0  0  0
   14.3146  -17.9053   23.2923 O   0  0  0  0  0  0  0  0  0  0  0  0
   10.2405  -15.0667   24.2484 O   0  0  0  0  0  0  0  0  0  0  0  0
  2  1  1  0
  3  2  1  0
  4  3  1  0
  4  5  1  0
  5  6  1  1
  5  1  1  0
  6  7  2  0
  8 12  1  0
  8  6  1  0
  9 10  1  0
  9  8  1  0
 10 11  1  0
 11 12  1  0
 13 15  1  0
 12 13  1  1
 14 13  2  0
 16 15  1  0
 16 17  1  1
 17 18  1  0
 18 19  2  0
 18 22  1  0
 20 16  1  0
 21 20  1  0
 23 20  2  0
M  END
$$$$
