PPD.pdb
     RDKit          3D

 23 24  0  0  1  0  0  0  0  0999 V2000
    8.0026  -14.1534   21.0899 N   0  0  0  0  0  0  0  0  0  0  0  0
    7.2450  -15.0484   20.2772 C   0  0  0  0  0  0  0  0  0  0  0  0
    6.2837  -15.7661   21.1749 C   0  0  0  0  0  0  0  0  0  0  0  0
    6.3149  -15.0437   22.4825 C   0  0  0  0  0  0  0  0  0  0  0  0
    7.4087  -14.0245   22.3757 C   0  0  1  0  0  0  0  0  0  0  0  0
    8.3555  -14.2065   23.5080 C   0  0  0  0  0  0  0  0  0  0  0  0
    9.5020  -14.7150   23.3317 O   0  0  0  0  0  0  0  0  0  0  0  0
    8.0190  -13.8177   24.8524 N   0  0  0  0  0  0  0  0  0  0  0  0
    6.7248  -13.3879   25.2552 C   0  0  0  0  0  0  0  0  0  0  0  0
    6.8680  -12.9355   26.6873 C   0  0  0  0  0  0  0  0  0  0  0  0
    8.3856  -12.7095   26.8494 C   0  0  0  0  0  0  0  0  0  0  0  0
    8.9011  -13.8025   25.9819 C   0  0  1  0  0  0  0  0  0  0  0  0
    9.0028  -15.1183   26.6547 C   0  0  0  0  0  0  0  0  0  0  0  0
    8.0060  -15.8782   26.8603 O   0  0  0  0  0  0  0  0  0  0  0  0
   10.2469  -15.5808   27.1013 N   0  0  0  0  0  0  0  0  0  0  0  0
   10.4833  -16.9470   27.5842 C   0  0  1  0  0  0  0  0  0  0  0  0
   11.8781  -17.3847   27.3498 C   0  0  0  0  0  0  0  0  0  0  0  0
   12.2639  -17.2086   25.9457 C   0  0  0  0  0  0  0  0  0  0  0  0
   11.5832  -17.7022   25.0268 O   0  0  0  0  0  0  0  0  0  0  0  0
   10.2183  -16.9178   29.0589 C   0  0  0  0  0  0  0  0  0  0  0  0
   10.1552  -17.9983   29.8922 O   0  0  0  0  0  0  0  0  0  0  0  0
   13.3948  -16.4922   25.5534 O   0  0  0  0  0  0  0  0  0  0  0  0
   10.0274  -15.7803   29.6229 O   0  0  0  0  0  0  0  0  0  0  0  0
  2  1  1  0
  3  2  1  0
  4  3  1  0
  4  5  1  0
  5  6  1  1
  5  1  1  0
  6  7  2  0
  8 12  1  0
  8  6  1  0
  9 10  1  0
  9  8  1  0
 10 11  1  0
 11 12  1  0
 13 15  1  0
 12 13  1  1
 14 13  2  0
 16 15  1  0
 16 17  1  1
 17 18  1  0
 18 19  2  0
 18 22  1  0
 20 16  1  0
 21 20  1  0
 23 20  2  0
M  END
$$$$
