PPD.pdb
     RDKit          3D

 23 24  0  0  1  0  0  0  0  0999 V2000
    8.9639  -13.9531   16.1445 N   0  0  0  0  0  0  0  0  0  0  0  0
    8.6397  -14.8405   15.0755 C   0  0  0  0  0  0  0  0  0  0  0  0
    7.8584  -15.9788   15.6578 C   0  0  0  0  0  0  0  0  0  0  0  0
    7.4957  -15.5681   17.0478 C   0  0  0  0  0  0  0  0  0  0  0  0
    8.2079  -14.2746   17.3053 C   0  0  1  0  0  0  0  0  0  0  0  0
    9.0172  -14.4036   18.5464 C   0  0  0  0  0  0  0  0  0  0  0  0
   10.2814  -14.4692   18.5035 O   0  0  0  0  0  0  0  0  0  0  0  0
    8.4093  -14.4609   19.8497 N   0  0  0  0  0  0  0  0  0  0  0  0
    7.0049  -14.4796   20.0716 C   0  0  0  0  0  0  0  0  0  0  0  0
    6.8224  -14.3810   21.5660 C   0  0  0  0  0  0  0  0  0  0  0  0
    8.1767  -13.8353   22.0645 C   0  0  0  0  0  0  0  0  0  0  0  0
    9.0931  -14.5127   21.1082 C   0  0  1  0  0  0  0  0  0  0  0  0
    9.4771  -15.8881   21.5021 C   0  0  0  0  0  0  0  0  0  0  0  0
    8.7715  -16.9125   21.2454 O   0  0  0  0  0  0  0  0  0  0  0  0
   10.6738  -16.1083   22.1955 N   0  0  0  0  0  0  0  0  0  0  0  0
   11.1687  -17.4403   22.5648 C   0  0  1  0  0  0  0  0  0  0  0  0
   12.6480  -17.5017   22.5666 C   0  0  0  0  0  0  0  0  0  0  0  0
   13.1954  -17.2212   21.2351 C   0  0  0  0  0  0  0  0  0  0  0  0
   12.7871  -17.8353   20.2313 O   0  0  0  0  0  0  0  0  0  0  0  0
   10.6640  -17.7009   23.9516 C   0  0  0  0  0  0  0  0  0  0  0  0
   10.7404  -18.8825   24.6328 O   0  0  0  0  0  0  0  0  0  0  0  0
   14.1889  -16.2684   21.0081 O   0  0  0  0  0  0  0  0  0  0  0  0
   10.0990  -16.7389   24.5870 O   0  0  0  0  0  0  0  0  0  0  0  0
  2  1  1  0
  3  2  1  0
  4  3  1  0
  4  5  1  0
  5  6  1  1
  5  1  1  0
  6  7  2  0
  8 12  1  0
  8  6  1  0
  9 10  1  0
  9  8  1  0
 10 11  1  0
 11 12  1  0
 13 15  1  0
 12 13  1  1
 14 13  2  0
 16 15  1  0
 16 17  1  1
 17 18  1  0
 18 19  2  0
 18 22  1  0
 20 16  1  0
 21 20  1  0
 23 20  2  0
M  END
$$$$
