PPD.pdb
     RDKit          3D

 23 24  0  0  1  0  0  0  0  0999 V2000
    8.6567  -13.5951   20.6960 N   0  0  0  0  0  0  0  0  0  0  0  0
    8.0164  -14.2781   19.6193 C   0  0  0  0  0  0  0  0  0  0  0  0
    6.7765  -14.9170   20.1667 C   0  0  0  0  0  0  0  0  0  0  0  0
    6.5738  -14.3359   21.5283 C   0  0  0  0  0  0  0  0  0  0  0  0
    7.7825  -13.4967   21.8134 C   0  0  1  0  0  0  0  0  0  0  0  0
    8.3845  -13.9325   23.1015 C   0  0  0  0  0  0  0  0  0  0  0  0
    9.4985  -14.5343   23.1368 O   0  0  0  0  0  0  0  0  0  0  0  0
    7.7361  -13.6952   24.3644 N   0  0  0  0  0  0  0  0  0  0  0  0
    6.4253  -13.1601   24.4967 C   0  0  0  0  0  0  0  0  0  0  0  0
    6.2191  -12.9355   25.9743 C   0  0  0  0  0  0  0  0  0  0  0  0
    7.6515  -12.9353   26.5475 C   0  0  0  0  0  0  0  0  0  0  0  0
    8.2805  -13.9541   25.6647 C   0  0  1  0  0  0  0  0  0  0  0  0
    8.0794  -15.3530   26.1084 C   0  0  0  0  0  0  0  0  0  0  0  0
    7.0312  -16.0240   25.8544 O   0  0  0  0  0  0  0  0  0  0  0  0
    9.0753  -16.0015   26.8491 N   0  0  0  0  0  0  0  0  0  0  0  0
    9.5711  -17.3493   26.5437 C   0  0  1  0  0  0  0  0  0  0  0  0
   10.6627  -17.3257   25.5439 C   0  0  0  0  0  0  0  0  0  0  0  0
   11.2363  -18.6614   25.3483 C   0  0  0  0  0  0  0  0  0  0  0  0
   10.6934  -19.4880   24.5910 O   0  0  0  0  0  0  0  0  0  0  0  0
   10.0978  -17.9002   27.8340 C   0  0  0  0  0  0  0  0  0  0  0  0
   10.2513  -17.2141   29.0053 O   0  0  0  0  0  0  0  0  0  0  0  0
   12.4033  -19.0868   25.9834 O   0  0  0  0  0  0  0  0  0  0  0  0
   10.4481  -19.1348   27.8736 O   0  0  0  0  0  0  0  0  0  0  0  0
  2  1  1  0
  3  2  1  0
  4  3  1  0
  4  5  1  0
  5  6  1  1
  5  1  1  0
  6  7  2  0
  8 12  1  0
  8  6  1  0
  9 10  1  0
  9  8  1  0
 10 11  1  0
 11 12  1  0
 13 15  1  0
 12 13  1  1
 14 13  2  0
 16 15  1  0
 16 17  1  6
 17 18  1  0
 18 19  2  0
 18 22  1  0
 20 16  1  0
 21 20  1  0
 23 20  2  0
M  END
$$$$
