PPD.pdb
     RDKit          3D

 23 24  0  0  1  0  0  0  0  0999 V2000
    8.4292  -13.2414   19.7532 N   0  0  0  0  0  0  0  0  0  0  0  0
    7.7793  -13.8888   18.6604 C   0  0  0  0  0  0  0  0  0  0  0  0
    6.7422  -14.8056   19.2338 C   0  0  0  0  0  0  0  0  0  0  0  0
    6.6207  -14.4465   20.6790 C   0  0  0  0  0  0  0  0  0  0  0  0
    7.7000  -13.4443   20.9571 C   0  0  1  0  0  0  0  0  0  0  0  0
    8.5246  -13.9216   22.0990 C   0  0  0  0  0  0  0  0  0  0  0  0
    9.7267  -14.2854   21.9355 O   0  0  0  0  0  0  0  0  0  0  0  0
    8.0020  -13.9948   23.4381 N   0  0  0  0  0  0  0  0  0  0  0  0
    6.6323  -13.8029   23.7683 C   0  0  0  0  0  0  0  0  0  0  0  0
    6.5670  -13.8097   25.2756 C   0  0  0  0  0  0  0  0  0  0  0  0
    8.0238  -13.5400   25.7060 C   0  0  0  0  0  0  0  0  0  0  0  0
    8.7475  -14.2702   24.6307 C   0  0  1  0  0  0  0  0  0  0  0  0
    8.9171  -15.7196   24.8856 C   0  0  0  0  0  0  0  0  0  0  0  0
    7.9991  -16.5762   24.6934 O   0  0  0  0  0  0  0  0  0  0  0  0
   10.1396  -16.2068   25.3644 N   0  0  0  0  0  0  0  0  0  0  0  0
   10.4483  -17.6351   25.5070 C   0  0  1  0  0  0  0  0  0  0  0  0
   11.8983  -17.9048   25.3780 C   0  0  0  0  0  0  0  0  0  0  0  0
   12.4570  -17.2604   24.1848 C   0  0  0  0  0  0  0  0  0  0  0  0
   12.0607  -17.5680   23.0447 O   0  0  0  0  0  0  0  0  0  0  0  0
    9.9966  -18.0222   26.8825 C   0  0  0  0  0  0  0  0  0  0  0  0
    9.8799  -19.2932   27.3692 O   0  0  0  0  0  0  0  0  0  0  0  0
   13.4485  -16.2809   24.2450 O   0  0  0  0  0  0  0  0  0  0  0  0
    9.6807  -17.0898   27.7068 O   0  0  0  0  0  0  0  0  0  0  0  0
  2  1  1  0
  3  2  1  0
  4  3  1  0
  4  5  1  0
  5  6  1  1
  5  1  1  0
  6  7  2  0
  8 12  1  0
  8  6  1  0
  9 10  1  0
  9  8  1  0
 10 11  1  0
 11 12  1  0
 13 15  1  0
 12 13  1  1
 14 13  2  0
 16 15  1  0
 16 17  1  1
 17 18  1  0
 18 19  2  0
 18 22  1  0
 20 16  1  0
 21 20  1  0
 23 20  2  0
M  END
$$$$
