QGQ.pdb
     RDKit          3D

 23 22  0  0  1  0  0  0  0  0999 V2000
   13.9427  -26.7344   23.1322 N   0  0  0  0  0  0  0  0  0  0  0  0
   13.7289  -26.0042   24.3510 C   0  0  0  0  0  0  0  0  0  0  0  0
   13.3566  -24.8068   24.2774 O   0  0  0  0  0  0  0  0  0  0  0  0
   13.9372  -26.6309   25.6759 C   0  0  0  0  0  0  0  0  0  0  0  0
   13.7800  -25.5974   26.7371 C   0  0  0  0  0  0  0  0  0  0  0  0
   12.3702  -25.5977   27.3332 C   0  0  2  0  0  0  0  0  0  0  0  0
   11.3930  -25.1555   26.3859 N   0  0  0  0  0  0  0  0  0  0  0  0
   12.4439  -24.6968   28.5280 C   0  0  0  0  0  0  0  0  0  0  0  0
   12.5304  -23.4562   28.3489 O   0  0  0  0  0  0  0  0  0  0  0  0
   12.4188  -25.2038   29.8541 N   0  0  0  0  0  0  0  0  0  0  0  0
   12.4882  -24.4225   31.0368 C   0  0  0  0  0  0  0  0  0  0  0  0
   13.8377  -24.1896   31.5810 C   0  0  0  0  0  0  0  0  0  0  0  0
   14.8020  -24.9649   31.2421 O   0  0  0  0  0  0  0  0  0  0  0  0
   13.6305  -20.2507   31.9010 N   0  0  0  0  0  0  0  0  0  0  0  0
   14.9205  -20.1115   31.3304 C   0  0  0  0  0  0  0  0  0  0  0  0
   15.0712  -19.4661   30.2854 O   0  0  0  0  0  0  0  0  0  0  0  0
   16.1232  -20.7462   31.9872 C   0  0  0  0  0  0  0  0  0  0  0  0
   15.6795  -21.4640   33.2317 C   0  0  0  0  0  0  0  0  0  0  0  0
   15.5317  -22.9325   32.9551 C   0  0  2  0  0  0  0  0  0  0  0  0
   14.1552  -23.1545   32.4699 N   0  0  0  0  0  0  0  0  0  0  0  0
   15.7514  -23.6956   34.1964 C   0  0  0  0  0  0  0  0  0  0  0  0
   16.8050  -23.7105   34.8745 O   0  0  0  0  0  0  0  0  0  0  0  0
   14.6601  -24.4790   34.6506 O   0  0  0  0  0  0  0  0  0  0  0  0
  2  1  1  0
  2  4  1  0
  3  2  2  0
  5  4  1  0
  5  6  1  0
  6  7  1  6
  8  9  2  0
  8  6  1  0
 10  8  1  0
 11 10  1  0
 11 12  1  0
 12 20  1  0
 13 12  2  0
 15 16  2  0
 15 14  1  0
 17 15  1  0
 18 17  1  0
 19 21  1  0
 19 18  1  1
 20 19  1  0
 21 23  1  0
 22 21  2  0
M  END
$$$$
