QGQ.pdb
     RDKit          3D

 23 22  0  0  1  0  0  0  0  0999 V2000
    7.3580  -13.7906   15.5109 N   0  0  0  0  0  0  0  0  0  0  0  0
    8.4226  -14.5141   14.8725 C   0  0  0  0  0  0  0  0  0  0  0  0
    8.8819  -14.0763   13.7884 O   0  0  0  0  0  0  0  0  0  0  0  0
    8.9808  -15.7515   15.4629 C   0  0  0  0  0  0  0  0  0  0  0  0
    8.3383  -15.9970   16.7843 C   0  0  0  0  0  0  0  0  0  0  0  0
    9.1726  -15.4391   17.9400 C   0  0  2  0  0  0  0  0  0  0  0  0
   10.3826  -16.1797   18.1273 N   0  0  0  0  0  0  0  0  0  0  0  0
    8.2806  -15.5050   19.1418 C   0  0  0  0  0  0  0  0  0  0  0  0
    7.0356  -15.5265   18.9739 O   0  0  0  0  0  0  0  0  0  0  0  0
    8.8008  -15.5438   20.4625 N   0  0  0  0  0  0  0  0  0  0  0  0
    8.0297  -15.6454   21.6496 C   0  0  0  0  0  0  0  0  0  0  0  0
    8.7676  -15.4942   22.9162 C   0  0  0  0  0  0  0  0  0  0  0  0
   10.0483  -15.5691   22.9182 O   0  0  0  0  0  0  0  0  0  0  0  0
    5.4845  -11.4303   26.1023 N   0  0  0  0  0  0  0  0  0  0  0  0
    6.6365  -12.1217   26.5543 C   0  0  0  0  0  0  0  0  0  0  0  0
    6.9490  -12.0921   27.7512 O   0  0  0  0  0  0  0  0  0  0  0  0
    7.4942  -12.9002   25.5853 C   0  0  0  0  0  0  0  0  0  0  0  0
    8.0026  -14.1396   26.2681 C   0  0  0  0  0  0  0  0  0  0  0  0
    8.9295  -14.8885   25.3544 C   0  0  2  0  0  0  0  0  0  0  0  0
    8.1559  -15.2703   24.1564 N   0  0  0  0  0  0  0  0  0  0  0  0
    9.4252  -16.0984   26.0338 C   0  0  0  0  0  0  0  0  0  0  0  0
    9.0051  -17.2658   25.8576 O   0  0  0  0  0  0  0  0  0  0  0  0
   10.4735  -15.9057   26.9691 O   0  0  0  0  0  0  0  0  0  0  0  0
  2  1  1  0
  2  4  1  0
  3  2  2  0
  5  4  1  0
  5  6  1  0
  6  7  1  1
  8  9  2  0
  8  6  1  0
 10  8  1  0
 11 10  1  0
 11 12  1  0
 12 20  1  0
 13 12  2  0
 15 16  2  0
 15 14  1  0
 17 15  1  0
 18 17  1  0
 19 21  1  0
 19 18  1  1
 20 19  1  0
 21 23  1  0
 22 21  2  0
M  END
$$$$
