QGQ.pdb
     RDKit          3D

 23 22  0  0  1  0  0  0  0  0999 V2000
    8.9559  -14.7102   13.6027 N   0  0  0  0  0  0  0  0  0  0  0  0
    9.4814  -15.7675   14.4215 C   0  0  0  0  0  0  0  0  0  0  0  0
    9.9853  -16.7708   13.8581 O   0  0  0  0  0  0  0  0  0  0  0  0
    9.4396  -15.6960   15.8995 C   0  0  0  0  0  0  0  0  0  0  0  0
    8.6221  -14.5205   16.3103 C   0  0  0  0  0  0  0  0  0  0  0  0
    9.2299  -13.7908   17.5107 C   0  0  2  0  0  0  0  0  0  0  0  0
   10.4800  -14.3653   17.9041 N   0  0  0  0  0  0  0  0  0  0  0  0
    8.2009  -13.8850   18.5955 C   0  0  0  0  0  0  0  0  0  0  0  0
    6.9908  -13.7192   18.3011 O   0  0  0  0  0  0  0  0  0  0  0  0
    8.5534  -14.1559   19.9441 N   0  0  0  0  0  0  0  0  0  0  0  0
    7.6471  -14.2337   21.0334 C   0  0  0  0  0  0  0  0  0  0  0  0
    8.2432  -14.5020   22.3541 C   0  0  0  0  0  0  0  0  0  0  0  0
    9.4961  -14.7625   22.4446 O   0  0  0  0  0  0  0  0  0  0  0  0
    5.6100  -12.7050   27.6486 N   0  0  0  0  0  0  0  0  0  0  0  0
    6.4975  -11.8763   26.9174 C   0  0  0  0  0  0  0  0  0  0  0  0
    6.5099  -10.6545   27.1132 O   0  0  0  0  0  0  0  0  0  0  0  0
    7.4358  -12.4706   25.8942 C   0  0  0  0  0  0  0  0  0  0  0  0
    7.2633  -13.9642   25.8810 C   0  0  0  0  0  0  0  0  0  0  0  0
    8.1862  -14.5811   24.8698 C   0  0  2  0  0  0  0  0  0  0  0  0
    7.5211  -14.4958   23.5545 N   0  0  0  0  0  0  0  0  0  0  0  0
    8.4279  -15.9931   25.2151 C   0  0  0  0  0  0  0  0  0  0  0  0
    7.7290  -16.9689   24.8550 O   0  0  0  0  0  0  0  0  0  0  0  0
    9.5589  -16.2530   26.0300 O   0  0  0  0  0  0  0  0  0  0  0  0
  2  1  1  0
  2  4  1  0
  3  2  2  0
  5  4  1  0
  5  6  1  0
  6  7  1  1
  8  9  2  0
  8  6  1  0
 10  8  1  0
 11 10  1  0
 11 12  1  0
 12 20  1  0
 13 12  2  0
 15 16  2  0
 15 14  1  0
 17 15  1  0
 18 17  1  0
 19 21  1  0
 19 18  1  1
 20 19  1  0
 21 23  1  0
 22 21  2  0
M  END
$$$$
