QGQ.pdb
     RDKit          3D

 23 22  0  0  1  0  0  0  0  0999 V2000
    7.9320  -12.3626   17.4552 N   0  0  0  0  0  0  0  0  0  0  0  0
    7.8780  -13.7540   17.8096 C   0  0  0  0  0  0  0  0  0  0  0  0
    8.3308  -14.5993   16.9984 O   0  0  0  0  0  0  0  0  0  0  0  0
    7.3048  -14.2030   19.0985 C   0  0  0  0  0  0  0  0  0  0  0  0
    8.4108  -14.4725   20.0593 C   0  0  0  0  0  0  0  0  0  0  0  0
    8.7572  -15.9616   20.1319 C   0  0  2  0  0  0  0  0  0  0  0  0
    7.6609  -16.7384   20.6244 N   0  0  0  0  0  0  0  0  0  0  0  0
    9.9552  -16.0476   21.0274 C   0  0  0  0  0  0  0  0  0  0  0  0
   11.0024  -15.4348   20.7016 O   0  0  0  0  0  0  0  0  0  0  0  0
    9.9408  -16.8002   22.2314 N   0  0  0  0  0  0  0  0  0  0  0  0
   10.9764  -16.8234   23.2015 C   0  0  0  0  0  0  0  0  0  0  0  0
   10.6857  -16.1428   24.4758 C   0  0  0  0  0  0  0  0  0  0  0  0
   11.6159  -16.0028   25.3480 O   0  0  0  0  0  0  0  0  0  0  0  0
    5.9176  -11.3528   27.5609 N   0  0  0  0  0  0  0  0  0  0  0  0
    6.3298  -12.4018   26.7013 C   0  0  0  0  0  0  0  0  0  0  0  0
    5.6216  -12.7335   25.7423 O   0  0  0  0  0  0  0  0  0  0  0  0
    7.6330  -13.1255   26.9433 C   0  0  0  0  0  0  0  0  0  0  0  0
    7.9456  -13.9835   25.7487 C   0  0  0  0  0  0  0  0  0  0  0  0
    9.2454  -14.7056   25.9584 C   0  0  2  0  0  0  0  0  0  0  0  0
    9.4302  -15.6235   24.8170 N   0  0  0  0  0  0  0  0  0  0  0  0
    9.1878  -15.4763   27.2130 C   0  0  0  0  0  0  0  0  0  0  0  0
    9.3292  -15.0128   28.3687 O   0  0  0  0  0  0  0  0  0  0  0  0
    8.9499  -16.8681   27.0819 O   0  0  0  0  0  0  0  0  0  0  0  0
  2  1  1  0
  2  4  1  0
  3  2  2  0
  5  4  1  0
  5  6  1  0
  6  7  1  1
  8  9  2  0
  8  6  1  0
 10  8  1  0
 11 10  1  0
 11 12  1  0
 12 20  1  0
 13 12  2  0
 15 16  2  0
 15 14  1  0
 17 15  1  0
 18 17  1  0
 19 21  1  0
 19 18  1  6
 20 19  1  0
 21 23  1  0
 22 21  2  0
M  END
$$$$
