QGQ.pdb
     RDKit          3D

 23 22  0  0  1  0  0  0  0  0999 V2000
    0.0671  -19.1618   22.0466 N   0  0  0  0  0  0  0  0  0  0  0  0
    0.8248  -20.0075   21.1660 C   0  0  0  0  0  0  0  0  0  0  0  0
    0.2050  -20.7721   20.3856 O   0  0  0  0  0  0  0  0  0  0  0  0
    2.3050  -19.9934   21.1626 C   0  0  0  0  0  0  0  0  0  0  0  0
    2.7880  -19.0024   22.1645 C   0  0  0  0  0  0  0  0  0  0  0  0
    4.0988  -18.3414   21.7313 C   0  0  2  0  0  0  0  0  0  0  0  0
    4.8010  -19.1346   20.7693 N   0  0  0  0  0  0  0  0  0  0  0  0
    4.8867  -18.1577   22.9923 C   0  0  0  0  0  0  0  0  0  0  0  0
    4.3847  -17.4894   23.9303 O   0  0  0  0  0  0  0  0  0  0  0  0
    6.1818  -18.7162   23.1572 N   0  0  0  0  0  0  0  0  0  0  0  0
    7.0218  -18.5309   24.2860 C   0  0  0  0  0  0  0  0  0  0  0  0
    8.0686  -17.5023   24.1526 C   0  0  0  0  0  0  0  0  0  0  0  0
    8.2957  -16.9719   23.0068 O   0  0  0  0  0  0  0  0  0  0  0  0
    9.8384  -14.7731   29.0491 N   0  0  0  0  0  0  0  0  0  0  0  0
    9.2219  -13.9018   28.1163 C   0  0  0  0  0  0  0  0  0  0  0  0
    8.5647  -12.9313   28.5133 O   0  0  0  0  0  0  0  0  0  0  0  0
    9.3581  -14.1451   26.6321 C   0  0  0  0  0  0  0  0  0  0  0  0
   10.1414  -15.4098   26.4132 C   0  0  0  0  0  0  0  0  0  0  0  0
    9.8507  -15.9668   25.0493 C   0  0  2  0  0  0  0  0  0  0  0  0
    8.8599  -17.0485   25.2157 N   0  0  0  0  0  0  0  0  0  0  0  0
   11.0879  -16.5106   24.4617 C   0  0  0  0  0  0  0  0  0  0  0  0
   11.3523  -17.7242   24.2958 O   0  0  0  0  0  0  0  0  0  0  0  0
   12.0565  -15.5594   24.0520 O   0  0  0  0  0  0  0  0  0  0  0  0
  2  1  1  0
  2  4  1  0
  3  2  2  0
  5  4  1  0
  5  6  1  0
  6  7  1  6
  8  9  2  0
  8  6  1  0
 10  8  1  0
 11 10  1  0
 11 12  1  0
 12 20  1  0
 13 12  2  0
 15 16  2  0
 15 14  1  0
 17 15  1  0
 18 17  1  0
 19 21  1  0
 19 18  1  1
 20 19  1  0
 21 23  1  0
 22 21  2  0
M  END
$$$$
