QGQ.pdb
     RDKit          3D

 23 22  0  0  1  0  0  0  0  0999 V2000
    4.4843  -24.0312   16.5726 N   0  0  0  0  0  0  0  0  0  0  0  0
    4.7672  -22.9936   17.5254 C   0  0  0  0  0  0  0  0  0  0  0  0
    5.4636  -23.2750   18.5322 O   0  0  0  0  0  0  0  0  0  0  0  0
    4.2583  -21.6154   17.3433 C   0  0  0  0  0  0  0  0  0  0  0  0
    4.6278  -20.7957   18.5309 C   0  0  0  0  0  0  0  0  0  0  0  0
    5.9563  -20.0624   18.3306 C   0  0  2  0  0  0  0  0  0  0  0  0
    6.9677  -20.9292   17.8076 N   0  0  0  0  0  0  0  0  0  0  0  0
    6.3200  -19.5233   19.6803 C   0  0  0  0  0  0  0  0  0  0  0  0
    5.5703  -18.6687   20.2152 O   0  0  0  0  0  0  0  0  0  0  0  0
    7.4851  -19.9498   20.3708 N   0  0  0  0  0  0  0  0  0  0  0  0
    7.8775  -19.5245   21.6667 C   0  0  0  0  0  0  0  0  0  0  0  0
    9.0870  -20.1603   22.2185 C   0  0  0  0  0  0  0  0  0  0  0  0
    9.5377  -21.2371   21.6865 O   0  0  0  0  0  0  0  0  0  0  0  0
   11.5593  -15.7598   23.4251 N   0  0  0  0  0  0  0  0  0  0  0  0
   12.0855  -16.8231   24.2007 C   0  0  0  0  0  0  0  0  0  0  0  0
   12.3605  -16.6446   25.3939 O   0  0  0  0  0  0  0  0  0  0  0  0
   12.3165  -18.1821   23.5841 C   0  0  0  0  0  0  0  0  0  0  0  0
   11.8265  -19.2402   24.5335 C   0  0  0  0  0  0  0  0  0  0  0  0
   11.0542  -20.2876   23.7843 C   0  0  2  0  0  0  0  0  0  0  0  0
    9.8016  -19.6625   23.3157 N   0  0  0  0  0  0  0  0  0  0  0  0
   10.7434  -21.4127   24.6837 C   0  0  0  0  0  0  0  0  0  0  0  0
   11.5411  -22.3099   25.0430 O   0  0  0  0  0  0  0  0  0  0  0  0
    9.4156  -21.4697   25.1784 O   0  0  0  0  0  0  0  0  0  0  0  0
  2  1  1  0
  2  4  1  0
  3  2  2  0
  5  4  1  0
  5  6  1  0
  6  7  1  1
  8  9  2  0
  8  6  1  0
 10  8  1  0
 11 10  1  0
 11 12  1  0
 12 20  1  0
 13 12  2  0
 15 16  2  0
 15 14  1  0
 17 15  1  0
 18 17  1  0
 19 21  1  0
 19 18  1  1
 20 19  1  0
 21 23  1  0
 22 21  2  0
M  END
$$$$
