QGQ.pdb
     RDKit          3D

 23 22  0  0  1  0  0  0  0  0999 V2000
    7.0759  -14.5402   14.6902 N   0  0  0  0  0  0  0  0  0  0  0  0
    8.3742  -14.1078   15.1281 C   0  0  0  0  0  0  0  0  0  0  0  0
    9.3382  -14.1922   14.3272 O   0  0  0  0  0  0  0  0  0  0  0  0
    8.5929  -13.5711   16.4902 C   0  0  0  0  0  0  0  0  0  0  0  0
    8.3439  -14.6492   17.4876 C   0  0  0  0  0  0  0  0  0  0  0  0
    7.7212  -14.1057   18.7759 C   0  0  2  0  0  0  0  0  0  0  0  0
    8.3207  -12.8691   19.1750 N   0  0  0  0  0  0  0  0  0  0  0  0
    7.9193  -15.1830   19.7981 C   0  0  0  0  0  0  0  0  0  0  0  0
    7.6391  -16.3691   19.4927 O   0  0  0  0  0  0  0  0  0  0  0  0
    8.4138  -14.9024   21.0993 N   0  0  0  0  0  0  0  0  0  0  0  0
    8.5667  -15.8496   22.1450 C   0  0  0  0  0  0  0  0  0  0  0  0
    8.9860  -15.3107   23.4509 C   0  0  0  0  0  0  0  0  0  0  0  0
   10.1456  -14.7762   23.5749 O   0  0  0  0  0  0  0  0  0  0  0  0
    5.6885  -12.2537   27.4627 N   0  0  0  0  0  0  0  0  0  0  0  0
    6.2170  -11.9374   26.1861 C   0  0  0  0  0  0  0  0  0  0  0  0
    5.8239  -10.9308   25.5831 O   0  0  0  0  0  0  0  0  0  0  0  0
    7.2622  -12.8206   25.5473 C   0  0  0  0  0  0  0  0  0  0  0  0
    7.5622  -13.9696   26.4696 C   0  0  0  0  0  0  0  0  0  0  0  0
    8.6632  -14.8158   25.8980 C   0  0  2  0  0  0  0  0  0  0  0  0
    8.1893  -15.3418   24.6026 N   0  0  0  0  0  0  0  0  0  0  0  0
    8.9554  -15.9335   26.8127 C   0  0  0  0  0  0  0  0  0  0  0  0
    8.6498  -17.1347   26.6282 O   0  0  0  0  0  0  0  0  0  0  0  0
    9.6462  -15.6014   28.0057 O   0  0  0  0  0  0  0  0  0  0  0  0
  2  1  1  0
  2  4  1  0
  3  2  2  0
  5  4  1  0
  5  6  1  0
  6  7  1  1
  8  9  2  0
  8  6  1  0
 10  8  1  0
 11 10  1  0
 11 12  1  0
 12 20  1  0
 13 12  2  0
 15 16  2  0
 15 14  1  0
 17 15  1  0
 18 17  1  0
 19 21  1  0
 19 18  1  1
 20 19  1  0
 21 23  1  0
 22 21  2  0
M  END
$$$$
