IWP.pdb
     RDKit          3D

 30 32  0  0  1  0  0  0  0  0999 V2000
   24.7103  -14.2447  -18.2734 C   0  0  0  0  0  0  0  0  0  0  0  0
   24.5462  -15.4428  -19.1484 C   0  0  0  0  0  0  0  0  0  0  0  0
   24.6072  -16.7433  -18.3572 C   0  0  2  0  0  0  0  0  0  0  0  0
   23.5498  -16.6624  -17.2857 C   0  0  0  0  0  0  0  0  0  0  0  0
   25.9986  -16.8907  -17.7622 C   0  0  2  0  0  0  0  0  0  0  0  0
   26.9567  -17.0981  -18.8656 N   0  0  0  0  0  0  0  0  0  0  0  0
   26.1427  -18.0586  -16.8735 C   0  0  0  0  0  0  0  0  0  0  0  0
   25.9595  -19.2258  -17.3456 O   0  0  0  0  0  0  0  0  0  0  0  0
   26.4746  -17.9682  -15.5254 N   0  0  0  0  0  0  0  0  0  0  0  0
   26.4180  -19.1753  -14.6527 C   0  0  1  0  0  0  0  0  0  0  0  0
   27.3617  -18.8880  -13.5269 C   0  0  0  0  0  0  0  0  0  0  0  0
   27.5144  -19.8974  -12.4851 C   0  0  0  0  0  0  0  0  0  0  0  0
   28.3090  -21.0396  -12.5116 C   0  0  0  0  0  0  0  0  0  0  0  0
   28.1486  -21.7209  -11.3643 N   0  0  0  0  0  0  0  0  0  0  0  0
   27.2688  -21.0666  -10.5710 C   0  0  0  0  0  0  0  0  0  0  0  0
   26.7434  -21.2987   -9.3161 C   0  0  0  0  0  0  0  0  0  0  0  0
   25.8394  -20.4395   -8.7328 C   0  0  0  0  0  0  0  0  0  0  0  0
   25.4468  -19.3127   -9.4236 C   0  0  0  0  0  0  0  0  0  0  0  0
   25.9586  -19.0625  -10.6772 C   0  0  0  0  0  0  0  0  0  0  0  0
   26.8745  -19.9467  -11.2511 C   0  0  0  0  0  0  0  0  0  0  0  0
   25.0320  -19.4477  -14.2881 C   0  0  0  0  0  0  0  0  0  0  0  0
   24.2630  -18.4199  -14.1793 O   0  0  0  0  0  0  0  0  0  0  0  0
   24.4086  -20.6818  -14.0446 N   0  0  0  0  0  0  0  0  0  0  0  0
   24.9914  -22.0003  -14.0323 C   0  0  0  0  0  0  0  0  0  0  0  0
   23.9148  -22.9311  -14.5690 C   0  0  0  0  0  0  0  0  0  0  0  0
   22.7229  -22.0458  -14.7408 C   0  0  0  0  0  0  0  0  0  0  0  0
   22.9663  -20.9053  -13.7864 C   0  0  1  0  0  0  0  0  0  0  0  0
   22.7304  -21.3766  -12.4083 C   0  0  0  0  0  0  0  0  0  0  0  0
   21.5380  -21.3300  -11.9990 O   0  0  0  0  0  0  0  0  0  0  0  0
   23.6874  -21.8550  -11.5448 O   0  0  0  0  0  0  0  0  0  0  0  0
  2  1  1  0
  3  2  1  0
  3  4  1  1
  5  6  1  6
  5  3  1  0
  7  5  1  0
  8  7  2  0
  9  7  1  0
 10 21  1  0
 10  9  1  0
 10 11  1  1
 12 11  1  0
 13 12  2  0
 14 13  1  0
 15 14  1  0
 15 20  2  0
 16 15  1  0
 17 16  2  0
 17 18  1  0
 18 19  2  0
 19 20  1  0
 20 12  1  0
 21 22  2  0
 23 27  1  0
 23 21  1  0
 24 25  1  0
 24 23  1  0
 25 26  1  0
 27 26  1  0
 28 30  1  0
 27 28  1  1
 29 28  2  0
M  END
$$$$
