IWP.pdb
     RDKit          3D

 30 32  0  0  1  0  0  0  0  0999 V2000
   25.6467  -22.7995  -22.6747 C   0  0  0  0  0  0  0  0  0  0  0  0
   24.6615  -23.0390  -21.5792 C   0  0  0  0  0  0  0  0  0  0  0  0
   24.8982  -22.1230  -20.3850 C   0  0  2  0  0  0  0  0  0  0  0  0
   26.2157  -22.5231  -19.7714 C   0  0  0  0  0  0  0  0  0  0  0  0
   23.7487  -22.2895  -19.4038 C   0  0  2  0  0  0  0  0  0  0  0  0
   22.5170  -21.7828  -20.0398 N   0  0  0  0  0  0  0  0  0  0  0  0
   23.9134  -21.5135  -18.1607 C   0  0  0  0  0  0  0  0  0  0  0  0
   23.8324  -20.2445  -18.2043 O   0  0  0  0  0  0  0  0  0  0  0  0
   24.1543  -22.0879  -16.9167 N   0  0  0  0  0  0  0  0  0  0  0  0
   24.3798  -21.2279  -15.7202 C   0  0  1  0  0  0  0  0  0  0  0  0
   23.4635  -21.7724  -14.6694 C   0  0  0  0  0  0  0  0  0  0  0  0
   23.3235  -21.0231  -13.4258 C   0  0  0  0  0  0  0  0  0  0  0  0
   22.3081  -20.1406  -13.0694 C   0  0  0  0  0  0  0  0  0  0  0  0
   22.5620  -19.6386  -11.8489 N   0  0  0  0  0  0  0  0  0  0  0  0
   23.7188  -20.1603  -11.3788 C   0  0  0  0  0  0  0  0  0  0  0  0
   24.4433  -20.0074  -10.2141 C   0  0  0  0  0  0  0  0  0  0  0  0
   25.6225  -20.6833   -9.9938 C   0  0  0  0  0  0  0  0  0  0  0  0
   26.0941  -21.5389  -10.9667 C   0  0  0  0  0  0  0  0  0  0  0  0
   25.3868  -21.7057  -12.1364 C   0  0  0  0  0  0  0  0  0  0  0  0
   24.1929  -21.0107  -12.3402 C   0  0  0  0  0  0  0  0  0  0  0  0
   25.8022  -21.2063  -15.3974 C   0  0  0  0  0  0  0  0  0  0  0  0
   26.4569  -22.2861  -15.6526 O   0  0  0  0  0  0  0  0  0  0  0  0
   26.5685  -20.1647  -14.8508 N   0  0  0  0  0  0  0  0  0  0  0  0
   26.1482  -18.8397  -14.4686 C   0  0  0  0  0  0  0  0  0  0  0  0
   27.3304  -17.9307  -14.7680 C   0  0  0  0  0  0  0  0  0  0  0  0
   28.4079  -18.8695  -15.2057 C   0  0  0  0  0  0  0  0  0  0  0  0
   28.0265  -20.1886  -14.5849 C   0  0  1  0  0  0  0  0  0  0  0  0
   28.3132  -20.1367  -13.1385 C   0  0  0  0  0  0  0  0  0  0  0  0
   27.3627  -19.7708  -12.3940 O   0  0  0  0  0  0  0  0  0  0  0  0
   29.5122  -20.4489  -12.5424 O   0  0  0  0  0  0  0  0  0  0  0  0
  2  1  1  0
  3  2  1  0
  3  4  1  1
  5  6  1  6
  5  3  1  0
  7  5  1  0
  8  7  2  0
  9  7  1  0
 10 21  1  0
 10  9  1  0
 10 11  1  1
 12 11  1  0
 13 12  2  0
 14 13  1  0
 15 14  1  0
 15 20  2  0
 16 15  1  0
 17 16  2  0
 17 18  1  0
 18 19  2  0
 19 20  1  0
 20 12  1  0
 21 22  2  0
 23 27  1  0
 23 21  1  0
 24 25  1  0
 24 23  1  0
 25 26  1  0
 27 26  1  0
 28 30  1  0
 27 28  1  1
 29 28  2  0
M  END
$$$$
