IWP.pdb
     RDKit          3D

 30 32  0  0  1  0  0  0  0  0999 V2000
   19.7227  -21.9908  -13.7761 C   0  0  0  0  0  0  0  0  0  0  0  0
   20.4007  -21.8136  -12.4581 C   0  0  0  0  0  0  0  0  0  0  0  0
   21.8456  -21.3564  -12.6137 C   0  0  2  0  0  0  0  0  0  0  0  0
   22.5689  -22.4245  -13.3937 C   0  0  0  0  0  0  0  0  0  0  0  0
   22.4506  -21.1639  -11.2321 C   0  0  2  0  0  0  0  0  0  0  0  0
   21.6269  -20.1851  -10.4959 N   0  0  0  0  0  0  0  0  0  0  0  0
   23.8171  -20.6099  -11.2553 C   0  0  0  0  0  0  0  0  0  0  0  0
   23.9940  -19.4064  -11.6279 O   0  0  0  0  0  0  0  0  0  0  0  0
   24.9495  -21.3295  -10.8871 N   0  0  0  0  0  0  0  0  0  0  0  0
   26.3101  -20.7883  -11.1663 C   0  0  1  0  0  0  0  0  0  0  0  0
   27.1405  -21.1925   -9.9884 C   0  0  0  0  0  0  0  0  0  0  0  0
   26.9818  -20.4426   -8.7473 C   0  0  0  0  0  0  0  0  0  0  0  0
   25.9681  -19.5502   -8.4116 C   0  0  0  0  0  0  0  0  0  0  0  0
   26.2012  -19.0516   -7.1856 N   0  0  0  0  0  0  0  0  0  0  0  0
   27.3426  -19.5853   -6.6916 C   0  0  0  0  0  0  0  0  0  0  0  0
   28.0438  -19.4407   -5.5118 C   0  0  0  0  0  0  0  0  0  0  0  0
   29.2112  -20.1285   -5.2673 C   0  0  0  0  0  0  0  0  0  0  0  0
   29.6945  -20.9882   -6.2308 C   0  0  0  0  0  0  0  0  0  0  0  0
   29.0105  -21.1470   -7.4153 C   0  0  0  0  0  0  0  0  0  0  0  0
   27.8282  -20.4398   -7.6436 C   0  0  0  0  0  0  0  0  0  0  0  0
   26.7609  -21.2551  -12.4727 C   0  0  0  0  0  0  0  0  0  0  0  0
   26.3215  -22.4076  -12.8445 O   0  0  0  0  0  0  0  0  0  0  0  0
   27.6066  -20.6186  -13.3950 N   0  0  0  0  0  0  0  0  0  0  0  0
   28.6016  -19.6032  -13.1554 C   0  0  0  0  0  0  0  0  0  0  0  0
   28.5842  -18.7113  -14.3874 C   0  0  0  0  0  0  0  0  0  0  0  0
   27.6231  -19.3876  -15.3109 C   0  0  0  0  0  0  0  0  0  0  0  0
   27.6262  -20.8262  -14.8624 C   0  0  1  0  0  0  0  0  0  0  0  0
   28.8834  -21.4612  -15.3019 C   0  0  0  0  0  0  0  0  0  0  0  0
   28.9828  -21.7073  -16.5352 O   0  0  0  0  0  0  0  0  0  0  0  0
   29.9404  -21.8027  -14.4917 O   0  0  0  0  0  0  0  0  0  0  0  0
  2  1  1  0
  3  2  1  0
  3  4  1  1
  5  6  1  1
  5  3  1  0
  7  5  1  0
  8  7  2  0
  9  7  1  0
 10 21  1  0
 10  9  1  0
 10 11  1  1
 12 11  1  0
 13 12  2  0
 14 13  1  0
 15 14  1  0
 15 20  2  0
 16 15  1  0
 17 16  2  0
 17 18  1  0
 18 19  2  0
 19 20  1  0
 20 12  1  0
 21 22  2  0
 23 27  1  0
 23 21  1  0
 24 25  1  0
 24 23  1  0
 25 26  1  0
 27 26  1  0
 28 30  1  0
 27 28  1  1
 29 28  2  0
M  END
$$$$
