IWP.pdb
     RDKit          3D

 30 32  0  0  1  0  0  0  0  0999 V2000
   24.2128  -15.1827  -22.6384 C   0  0  0  0  0  0  0  0  0  0  0  0
   23.6917  -15.7956  -21.3810 C   0  0  0  0  0  0  0  0  0  0  0  0
   24.7879  -16.4946  -20.5869 C   0  0  2  0  0  0  0  0  0  0  0  0
   24.4686  -17.9679  -20.5892 C   0  0  0  0  0  0  0  0  0  0  0  0
   24.8094  -15.9276  -19.1763 C   0  0  2  0  0  0  0  0  0  0  0  0
   25.3224  -14.5451  -19.2384 N   0  0  0  0  0  0  0  0  0  0  0  0
   25.7071  -16.6538  -18.2590 C   0  0  0  0  0  0  0  0  0  0  0  0
   26.9528  -16.6986  -18.5139 O   0  0  0  0  0  0  0  0  0  0  0  0
   25.2746  -17.3051  -17.1082 N   0  0  0  0  0  0  0  0  0  0  0  0
   26.2316  -18.1004  -16.2875 C   0  0  1  0  0  0  0  0  0  0  0  0
   26.0356  -17.6197  -14.8836 C   0  0  0  0  0  0  0  0  0  0  0  0
   26.5905  -18.4227  -13.7996 C   0  0  0  0  0  0  0  0  0  0  0  0
   27.9309  -18.6175  -13.4800 C   0  0  0  0  0  0  0  0  0  0  0  0
   28.0218  -19.4468  -12.4264 N   0  0  0  0  0  0  0  0  0  0  0  0
   26.7798  -19.8124  -12.0322 C   0  0  0  0  0  0  0  0  0  0  0  0
   26.2847  -20.6243  -11.0320 C   0  0  0  0  0  0  0  0  0  0  0  0
   24.9339  -20.8224  -10.8541 C   0  0  0  0  0  0  0  0  0  0  0  0
   24.0485  -20.1904  -11.7014 C   0  0  0  0  0  0  0  0  0  0  0  0
   24.5215  -19.3763  -12.7062 C   0  0  0  0  0  0  0  0  0  0  0  0
   25.8955  -19.1886  -12.8697 C   0  0  0  0  0  0  0  0  0  0  0  0
   26.0124  -19.5227  -16.5261 C   0  0  0  0  0  0  0  0  0  0  0  0
   24.8238  -19.8584  -16.8924 O   0  0  0  0  0  0  0  0  0  0  0  0
   26.9219  -20.5869  -16.4206 N   0  0  0  0  0  0  0  0  0  0  0  0
   28.2886  -20.5638  -15.9624 C   0  0  0  0  0  0  0  0  0  0  0  0
   29.0182  -21.6097  -16.7914 C   0  0  0  0  0  0  0  0  0  0  0  0
   27.9377  -22.2461  -17.6046 C   0  0  0  0  0  0  0  0  0  0  0  0
   26.6801  -21.9956  -16.8130 C   0  0  1  0  0  0  0  0  0  0  0  0
   26.6682  -22.8894  -15.6392 C   0  0  0  0  0  0  0  0  0  0  0  0
   26.9168  -22.3513  -14.5256 O   0  0  0  0  0  0  0  0  0  0  0  0
   26.4131  -24.2403  -15.6569 O   0  0  0  0  0  0  0  0  0  0  0  0
  2  1  1  0
  3  2  1  0
  3  4  1  1
  5  6  1  6
  5  3  1  0
  7  5  1  0
  8  7  2  0
  9  7  1  0
 10 21  1  0
 10  9  1  0
 10 11  1  1
 12 11  1  0
 13 12  2  0
 14 13  1  0
 15 14  1  0
 15 20  2  0
 16 15  1  0
 17 16  2  0
 17 18  1  0
 18 19  2  0
 19 20  1  0
 20 12  1  0
 21 22  2  0
 23 27  1  0
 23 21  1  0
 24 25  1  0
 24 23  1  0
 25 26  1  0
 27 26  1  0
 28 30  1  0
 27 28  1  1
 29 28  2  0
M  END
$$$$
