IWP.pdb
     RDKit          3D

 30 32  0  0  1  0  0  0  0  0999 V2000
   26.2600  -16.8443  -20.0735 C   0  0  0  0  0  0  0  0  0  0  0  0
   27.1667  -16.9037  -18.8893 C   0  0  0  0  0  0  0  0  0  0  0  0
   26.8934  -18.1235  -18.0185 C   0  0  2  0  0  0  0  0  0  0  0  0
   25.4294  -18.0954  -17.6601 C   0  0  0  0  0  0  0  0  0  0  0  0
   27.7751  -18.0510  -16.7820 C   0  0  2  0  0  0  0  0  0  0  0  0
   29.1679  -18.3238  -17.1871 N   0  0  0  0  0  0  0  0  0  0  0  0
   27.4444  -19.0594  -15.7580 C   0  0  0  0  0  0  0  0  0  0  0  0
   27.6639  -20.2886  -16.0020 O   0  0  0  0  0  0  0  0  0  0  0  0
   26.8989  -18.7502  -14.5161 N   0  0  0  0  0  0  0  0  0  0  0  0
   26.4813  -19.8366  -13.5848 C   0  0  1  0  0  0  0  0  0  0  0  0
   26.7957  -19.3198  -12.2157 C   0  0  0  0  0  0  0  0  0  0  0  0
   27.5936  -20.1616  -11.3311 C   0  0  0  0  0  0  0  0  0  0  0  0
   28.6670  -20.9803  -11.6691 C   0  0  0  0  0  0  0  0  0  0  0  0
   29.1122  -21.6089  -10.5679 N   0  0  0  0  0  0  0  0  0  0  0  0
   28.3665  -21.2339   -9.5025 C   0  0  0  0  0  0  0  0  0  0  0  0
   28.3737  -21.5521   -8.1597 C   0  0  0  0  0  0  0  0  0  0  0  0
   27.4726  -21.0039   -7.2746 C   0  0  0  0  0  0  0  0  0  0  0  0
   26.5342  -20.1096   -7.7445 C   0  0  0  0  0  0  0  0  0  0  0  0
   26.5094  -19.7787   -9.0809 C   0  0  0  0  0  0  0  0  0  0  0  0
   27.4323  -20.3460   -9.9620 C   0  0  0  0  0  0  0  0  0  0  0  0
   25.0904  -20.1919  -13.8440 C   0  0  0  0  0  0  0  0  0  0  0  0
   24.3429  -19.2509  -14.3082 O   0  0  0  0  0  0  0  0  0  0  0  0
   24.4457  -21.4262  -13.6659 N   0  0  0  0  0  0  0  0  0  0  0  0
   24.9713  -22.6462  -13.1057 C   0  0  0  0  0  0  0  0  0  0  0  0
   24.2992  -23.7744  -13.8731 C   0  0  0  0  0  0  0  0  0  0  0  0
   23.3228  -23.0758  -14.7633 C   0  0  0  0  0  0  0  0  0  0  0  0
   23.0603  -21.7638  -14.0701 C   0  0  1  0  0  0  0  0  0  0  0  0
   22.1989  -22.0069  -12.8972 C   0  0  0  0  0  0  0  0  0  0  0  0
   22.7816  -22.0676  -11.7799 O   0  0  0  0  0  0  0  0  0  0  0  0
   20.8340  -22.1710  -12.9192 O   0  0  0  0  0  0  0  0  0  0  0  0
  2  1  1  0
  3  2  1  0
  3  4  1  1
  5  6  1  6
  5  3  1  0
  7  5  1  0
  8  7  2  0
  9  7  1  0
 10 21  1  0
 10  9  1  0
 10 11  1  1
 12 11  1  0
 13 12  2  0
 14 13  1  0
 15 14  1  0
 15 20  2  0
 16 15  1  0
 17 16  2  0
 17 18  1  0
 18 19  2  0
 19 20  1  0
 20 12  1  0
 21 22  2  0
 23 27  1  0
 23 21  1  0
 24 25  1  0
 24 23  1  0
 25 26  1  0
 27 26  1  0
 28 30  1  0
 27 28  1  1
 29 28  2  0
M  END
$$$$
