LKP.pdb
     RDKit          3D

 25 25  0  0  1  0  0  0  0  0999 V2000
   23.9156  -26.2140  -17.6291 C   0  0  0  0  0  0  0  0  0  0  0  0
   25.1550  -26.7015  -16.9091 C   0  0  2  0  0  0  0  0  0  0  0  0
   24.8470  -27.9448  -16.1209 C   0  0  0  0  0  0  0  0  0  0  0  0
   25.8099  -25.6299  -16.0997 C   0  0  0  0  0  0  0  0  0  0  0  0
   26.1240  -24.3908  -16.8598 C   0  0  2  0  0  0  0  0  0  0  0  0
   27.3668  -24.5221  -17.5866 N   0  0  0  0  0  0  0  0  0  0  0  0
   26.2689  -23.2767  -15.8618 C   0  0  0  0  0  0  0  0  0  0  0  0
   27.3146  -23.2401  -15.1819 O   0  0  0  0  0  0  0  0  0  0  0  0
   25.2580  -22.3109  -15.7029 N   0  0  0  0  0  0  0  0  0  0  0  0
   25.3879  -21.2153  -14.7536 C   0  0  1  0  0  0  0  0  0  0  0  0
   24.8659  -19.9276  -15.3921 C   0  0  0  0  0  0  0  0  0  0  0  0
   25.8516  -19.5925  -16.4869 C   0  0  0  0  0  0  0  0  0  0  0  0
   25.3209  -18.7085  -17.5600 C   0  0  0  0  0  0  0  0  0  0  0  0
   26.3873  -18.4849  -18.6062 C   0  0  0  0  0  0  0  0  0  0  0  0
   25.8210  -17.5647  -19.5985 N   0  0  0  0  0  0  0  0  0  0  0  0
   24.5657  -21.5487  -13.5677 C   0  0  0  0  0  0  0  0  0  0  0  0
   23.6154  -22.4053  -13.7023 O   0  0  0  0  0  0  0  0  0  0  0  0
   24.7773  -20.9720  -12.2929 N   0  0  0  0  0  0  0  0  0  0  0  0
   25.8385  -20.0392  -11.9676 C   0  0  0  0  0  0  0  0  0  0  0  0
   26.1717  -20.3603  -10.5115 C   0  0  0  0  0  0  0  0  0  0  0  0
   24.9438  -21.0122   -9.9523 C   0  0  0  0  0  0  0  0  0  0  0  0
   23.9882  -21.2114  -11.0867 C   0  0  1  0  0  0  0  0  0  0  0  0
   22.8587  -20.2518  -11.0822 C   0  0  0  0  0  0  0  0  0  0  0  0
   21.7867  -20.4612  -10.2483 O   0  0  0  0  0  0  0  0  0  0  0  0
   22.8518  -19.2287  -11.8355 O   0  0  0  0  0  0  0  0  0  0  0  0
  2  1  1  1
  2  3  1  0
  4  2  1  0
  5  6  1  1
  5  4  1  0
  7  5  1  0
  8  7  2  0
  9  7  1  0
 10 11  1  6
 10  9  1  0
 11 12  1  0
 12 13  1  0
 13 14  1  0
 15 14  1  0
 16 17  2  0
 16 10  1  0
 18 16  1  0
 19 18  1  0
 20 21  1  0
 20 19  1  0
 21 22  1  0
 22 18  1  0
 22 23  1  1
 24 23  1  0
 25 23  2  0
M  END
$$$$
