LKP.pdb
     RDKit          3D

 25 25  0  0  1  0  0  0  0  0999 V2000
   14.5354   -8.5270  -18.7305 C   0  0  0  0  0  0  0  0  0  0  0  0
   14.2601   -8.0781  -17.3111 C   0  0  2  0  0  0  0  0  0  0  0  0
   13.7974   -6.6471  -17.2954 C   0  0  0  0  0  0  0  0  0  0  0  0
   15.4065   -8.3436  -16.3904 C   0  0  0  0  0  0  0  0  0  0  0  0
   15.9302   -9.7344  -16.4463 C   0  0  2  0  0  0  0  0  0  0  0  0
   15.0388  -10.6578  -15.7809 N   0  0  0  0  0  0  0  0  0  0  0  0
   17.2516   -9.7454  -15.7306 C   0  0  0  0  0  0  0  0  0  0  0  0
   17.2351   -9.8071  -14.4844 O   0  0  0  0  0  0  0  0  0  0  0  0
   18.4624   -9.6881  -16.4450 N   0  0  0  0  0  0  0  0  0  0  0  0
   19.7514   -9.6915  -15.7690 C   0  0  1  0  0  0  0  0  0  0  0  0
   20.8212  -10.2275  -16.7211 C   0  0  0  0  0  0  0  0  0  0  0  0
   22.0858  -10.3130  -15.8990 C   0  0  0  0  0  0  0  0  0  0  0  0
   23.2971  -10.7357  -16.6531 C   0  0  0  0  0  0  0  0  0  0  0  0
   24.4754  -10.8228  -15.7121 C   0  0  0  0  0  0  0  0  0  0  0  0
   25.6135  -11.3059  -16.5017 N   0  0  0  0  0  0  0  0  0  0  0  0
   20.0703   -8.2921  -15.4031 C   0  0  0  0  0  0  0  0  0  0  0  0
   19.8024   -7.3613  -16.2497 O   0  0  0  0  0  0  0  0  0  0  0  0
   20.6533   -7.9299  -14.1657 N   0  0  0  0  0  0  0  0  0  0  0  0
   21.0388   -8.8611  -13.1233 C   0  0  0  0  0  0  0  0  0  0  0  0
   20.7994   -8.0811  -11.8316 C   0  0  0  0  0  0  0  0  0  0  0  0
   20.8551   -6.6346  -12.2190 C   0  0  0  0  0  0  0  0  0  0  0  0
   20.9605   -6.5757  -13.7107 C   0  0  1  0  0  0  0  0  0  0  0  0
   22.3184   -6.2292  -14.1931 C   0  0  0  0  0  0  0  0  0  0  0  0
   22.7645   -4.9322  -14.1070 O   0  0  0  0  0  0  0  0  0  0  0  0
   23.0919   -7.1061  -14.6901 O   0  0  0  0  0  0  0  0  0  0  0  0
  2  1  1  6
  2  3  1  0
  4  2  1  0
  5  6  1  1
  5  4  1  0
  7  5  1  0
  8  7  2  0
  9  7  1  0
 10 11  1  6
 10  9  1  0
 11 12  1  0
 12 13  1  0
 13 14  1  0
 15 14  1  0
 16 17  2  0
 16 10  1  0
 18 16  1  0
 19 18  1  0
 20 21  1  0
 20 19  1  0
 21 22  1  0
 22 18  1  0
 22 23  1  1
 24 23  1  0
 25 23  2  0
M  END
$$$$
