LKP.pdb
     RDKit          3D

 25 25  0  0  1  0  0  0  0  0999 V2000
   28.1268  -18.0798  -13.8465 C   0  0  0  0  0  0  0  0  0  0  0  0
   27.7715  -19.1101  -14.8974 C   0  0  2  0  0  0  0  0  0  0  0  0
   27.6017  -18.4517  -16.2390 C   0  0  0  0  0  0  0  0  0  0  0  0
   26.6094  -19.9611  -14.5001 C   0  0  0  0  0  0  0  0  0  0  0  0
   26.7541  -20.6183  -13.1738 C   0  0  2  0  0  0  0  0  0  0  0  0
   27.5803  -21.8013  -13.2619 N   0  0  0  0  0  0  0  0  0  0  0  0
   25.3799  -21.0270  -12.7234 C   0  0  0  0  0  0  0  0  0  0  0  0
   24.9567  -22.1414  -13.0922 O   0  0  0  0  0  0  0  0  0  0  0  0
   24.6014  -20.1792  -11.9140 N   0  0  0  0  0  0  0  0  0  0  0  0
   23.2276  -20.5064  -11.5614 C   0  0  1  0  0  0  0  0  0  0  0  0
   22.8194  -19.7092  -10.3219 C   0  0  0  0  0  0  0  0  0  0  0  0
   22.8255  -20.7029   -9.1839 C   0  0  0  0  0  0  0  0  0  0  0  0
   21.5053  -21.3202   -8.8828 C   0  0  0  0  0  0  0  0  0  0  0  0
   21.6306  -22.2226   -7.6780 C   0  0  0  0  0  0  0  0  0  0  0  0
   20.3249  -22.8653   -7.4924 N   0  0  0  0  0  0  0  0  0  0  0  0
   22.3669  -20.1213  -12.7035 C   0  0  0  0  0  0  0  0  0  0  0  0
   22.4320  -18.9128  -13.1396 O   0  0  0  0  0  0  0  0  0  0  0  0
   21.4781  -21.0200  -13.3397 N   0  0  0  0  0  0  0  0  0  0  0  0
   21.3463  -22.4276  -13.0176 C   0  0  0  0  0  0  0  0  0  0  0  0
   21.0023  -23.0768  -14.3572 C   0  0  0  0  0  0  0  0  0  0  0  0
   20.4088  -21.9840  -15.1932 C   0  0  0  0  0  0  0  0  0  0  0  0
   20.5522  -20.7071  -14.4259 C   0  0  1  0  0  0  0  0  0  0  0  0
   19.2833  -20.2356  -13.8225 C   0  0  0  0  0  0  0  0  0  0  0  0
   19.0690  -20.3883  -12.4737 O   0  0  0  0  0  0  0  0  0  0  0  0
   18.3763  -19.6876  -14.5236 O   0  0  0  0  0  0  0  0  0  0  0  0
  2  1  1  1
  2  3  1  0
  4  2  1  0
  5  6  1  6
  5  4  1  0
  7  5  1  0
  8  7  2  0
  9  7  1  0
 10 11  1  1
 10  9  1  0
 11 12  1  0
 12 13  1  0
 13 14  1  0
 15 14  1  0
 16 17  2  0
 16 10  1  0
 18 16  1  0
 19 18  1  0
 20 21  1  0
 20 19  1  0
 21 22  1  0
 22 18  1  0
 22 23  1  1
 24 23  1  0
 25 23  2  0
M  END
$$$$
