LKP.pdb
     RDKit          3D

 25 25  0  0  1  0  0  0  0  0999 V2000
   21.7308  -25.1172  -13.6455 C   0  0  0  0  0  0  0  0  0  0  0  0
   21.6466  -23.9935  -14.6567 C   0  0  2  0  0  0  0  0  0  0  0  0
   20.2583  -23.9074  -15.2286 C   0  0  0  0  0  0  0  0  0  0  0  0
   22.7157  -24.0738  -15.6974 C   0  0  0  0  0  0  0  0  0  0  0  0
   24.0790  -24.3271  -15.1597 C   0  0  2  0  0  0  0  0  0  0  0  0
   24.6875  -23.1077  -14.6772 N   0  0  0  0  0  0  0  0  0  0  0  0
   24.9137  -24.8643  -16.2879 C   0  0  0  0  0  0  0  0  0  0  0  0
   24.9429  -24.2098  -17.3498 O   0  0  0  0  0  0  0  0  0  0  0  0
   25.6353  -26.0640  -16.1471 N   0  0  0  0  0  0  0  0  0  0  0  0
   26.4858  -26.5757  -17.2117 C   0  0  1  0  0  0  0  0  0  0  0  0
   27.8088  -27.0576  -16.6155 C   0  0  0  0  0  0  0  0  0  0  0  0
   28.8268  -26.0066  -16.9917 C   0  0  0  0  0  0  0  0  0  0  0  0
   30.2115  -26.2761  -16.5177 C   0  0  0  0  0  0  0  0  0  0  0  0
   31.1105  -25.1232  -16.8972 C   0  0  0  0  0  0  0  0  0  0  0  0
   32.4284  -25.4049  -16.3174 N   0  0  0  0  0  0  0  0  0  0  0  0
   25.7810  -27.7166  -17.8403 C   0  0  0  0  0  0  0  0  0  0  0  0
   25.0585  -28.4764  -17.0948 O   0  0  0  0  0  0  0  0  0  0  0  0
   25.8624  -28.0095  -19.2223 N   0  0  0  0  0  0  0  0  0  0  0  0
   26.6376  -27.2557  -20.1883 C   0  0  0  0  0  0  0  0  0  0  0  0
   25.8192  -27.3615  -21.4741 C   0  0  0  0  0  0  0  0  0  0  0  0
   24.9823  -28.5947  -21.3178 C   0  0  0  0  0  0  0  0  0  0  0  0
   25.1858  -29.0985  -19.9233 C   0  0  1  0  0  0  0  0  0  0  0  0
   26.0537  -30.2976  -19.8498 C   0  0  0  0  0  0  0  0  0  0  0  0
   25.5805  -31.5122  -20.2849 O   0  0  0  0  0  0  0  0  0  0  0  0
   27.2370  -30.2354  -19.3910 O   0  0  0  0  0  0  0  0  0  0  0  0
  2  1  1  1
  2  3  1  0
  4  2  1  0
  5  6  1  6
  5  4  1  0
  7  5  1  0
  8  7  2  0
  9  7  1  0
 10 11  1  1
 10  9  1  0
 11 12  1  0
 12 13  1  0
 13 14  1  0
 15 14  1  0
 16 17  2  0
 16 10  1  0
 18 16  1  0
 19 18  1  0
 20 21  1  0
 20 19  1  0
 21 22  1  0
 22 18  1  0
 22 23  1  6
 24 23  1  0
 25 23  2  0
M  END
$$$$
