LKP.pdb
     RDKit          3D

 25 25  0  0  1  0  0  0  0  0999 V2000
   29.1353  -20.2247   -5.1827 C   0  0  0  0  0  0  0  0  0  0  0  0
   27.6790  -19.8436   -5.0214 C   0  0  2  0  0  0  0  0  0  0  0  0
   27.0633  -20.6021   -3.8780 C   0  0  0  0  0  0  0  0  0  0  0  0
   26.9087  -19.9592   -6.2965 C   0  0  0  0  0  0  0  0  0  0  0  0
   27.5425  -19.2848   -7.4607 C   0  0  2  0  0  0  0  0  0  0  0  0
   27.6962  -17.8667   -7.2256 N   0  0  0  0  0  0  0  0  0  0  0  0
   26.6328  -19.4782   -8.6411 C   0  0  0  0  0  0  0  0  0  0  0  0
   25.6419  -18.7261   -8.7384 O   0  0  0  0  0  0  0  0  0  0  0  0
   26.8934  -20.4739   -9.6006 N   0  0  0  0  0  0  0  0  0  0  0  0
   26.3127  -20.4229  -10.9343 C   0  0  1  0  0  0  0  0  0  0  0  0
   27.0891  -21.3596  -11.8607 C   0  0  0  0  0  0  0  0  0  0  0  0
   26.4240  -21.2327  -13.2112 C   0  0  0  0  0  0  0  0  0  0  0  0
   27.0035  -22.0919  -14.2793 C   0  0  0  0  0  0  0  0  0  0  0  0
   26.4427  -21.6812  -15.6203 C   0  0  0  0  0  0  0  0  0  0  0  0
   27.0650  -22.5512  -16.6243 N   0  0  0  0  0  0  0  0  0  0  0  0
   24.9082  -20.8813  -10.8304 C   0  0  0  0  0  0  0  0  0  0  0  0
   24.6071  -21.7302   -9.9119 O   0  0  0  0  0  0  0  0  0  0  0  0
   23.8810  -20.4280  -11.6917 N   0  0  0  0  0  0  0  0  0  0  0  0
   24.0839  -19.6018  -12.8658 C   0  0  0  0  0  0  0  0  0  0  0  0
   22.8210  -18.7444  -12.9302 C   0  0  0  0  0  0  0  0  0  0  0  0
   21.7762  -19.5099  -12.1766 C   0  0  0  0  0  0  0  0  0  0  0  0
   22.4505  -20.6934  -11.5564 C   0  0  1  0  0  0  0  0  0  0  0  0
   22.1557  -21.9703  -12.2486 C   0  0  0  0  0  0  0  0  0  0  0  0
   20.9901  -22.6443  -11.9734 O   0  0  0  0  0  0  0  0  0  0  0  0
   22.9582  -22.4667  -13.0995 O   0  0  0  0  0  0  0  0  0  0  0  0
  2  1  1  6
  2  3  1  0
  4  2  1  0
  5  6  1  1
  5  4  1  0
  7  5  1  0
  8  7  2  0
  9  7  1  0
 10 11  1  6
 10  9  1  0
 11 12  1  0
 12 13  1  0
 13 14  1  0
 15 14  1  0
 16 17  2  0
 16 10  1  0
 18 16  1  0
 19 18  1  0
 20 21  1  0
 20 19  1  0
 21 22  1  0
 22 18  1  0
 22 23  1  6
 24 23  1  0
 25 23  2  0
M  END
$$$$
