LKP.pdb
     RDKit          3D

 25 25  0  0  1  0  0  0  0  0999 V2000
   21.8080  -16.9873  -16.8328 C   0  0  0  0  0  0  0  0  0  0  0  0
   20.8066  -17.0628  -15.6998 C   0  0  2  0  0  0  0  0  0  0  0  0
   20.8007  -15.7766  -14.9203 C   0  0  0  0  0  0  0  0  0  0  0  0
   20.9921  -18.2755  -14.8469 C   0  0  0  0  0  0  0  0  0  0  0  0
   21.6191  -19.4286  -15.5462 C   0  0  2  0  0  0  0  0  0  0  0  0
   20.6215  -20.2732  -16.1637 N   0  0  0  0  0  0  0  0  0  0  0  0
   22.3546  -20.2342  -14.5125 C   0  0  0  0  0  0  0  0  0  0  0  0
   21.7322  -20.5602  -13.4813 O   0  0  0  0  0  0  0  0  0  0  0  0
   23.6980  -20.6056  -14.7053 N   0  0  0  0  0  0  0  0  0  0  0  0
   24.4165  -21.4139  -13.7310 C   0  0  1  0  0  0  0  0  0  0  0  0
   25.4481  -22.2805  -14.4543 C   0  0  0  0  0  0  0  0  0  0  0  0
   24.6479  -23.3303  -15.1893 C   0  0  0  0  0  0  0  0  0  0  0  0
   25.4602  -24.3570  -15.8969 C   0  0  0  0  0  0  0  0  0  0  0  0
   24.5487  -25.2779  -16.6732 C   0  0  0  0  0  0  0  0  0  0  0  0
   25.4107  -26.2403  -17.3681 N   0  0  0  0  0  0  0  0  0  0  0  0
   25.1089  -20.4895  -12.8038 C   0  0  0  0  0  0  0  0  0  0  0  0
   25.4992  -19.3491  -13.2535 O   0  0  0  0  0  0  0  0  0  0  0  0
   25.3594  -20.7998  -11.4462 N   0  0  0  0  0  0  0  0  0  0  0  0
   24.8997  -21.9958  -10.7675 C   0  0  0  0  0  0  0  0  0  0  0  0
   24.6555  -21.5294   -9.3333 C   0  0  0  0  0  0  0  0  0  0  0  0
   25.5096  -20.3110   -9.1556 C   0  0  0  0  0  0  0  0  0  0  0  0
   26.1046  -19.9846  -10.4895 C   0  0  1  0  0  0  0  0  0  0  0  0
   27.5377  -20.3460  -10.6006 C   0  0  0  0  0  0  0  0  0  0  0  0
   27.9149  -21.4173  -11.3743 O   0  0  0  0  0  0  0  0  0  0  0  0
   28.4391  -19.6869   -9.9945 O   0  0  0  0  0  0  0  0  0  0  0  0
  2  1  1  6
  2  3  1  0
  4  2  1  0
  5  6  1  1
  5  4  1  0
  7  5  1  0
  8  7  2  0
  9  7  1  0
 10 11  1  6
 10  9  1  0
 11 12  1  0
 12 13  1  0
 13 14  1  0
 15 14  1  0
 16 17  2  0
 16 10  1  0
 18 16  1  0
 19 18  1  0
 20 21  1  0
 20 19  1  0
 21 22  1  0
 22 18  1  0
 22 23  1  1
 24 23  1  0
 25 23  2  0
M  END
$$$$
