LKP.pdb
     RDKit          3D

 25 25  0  0  1  0  0  0  0  0999 V2000
   27.0398  -18.8146   -6.0720 C   0  0  0  0  0  0  0  0  0  0  0  0
   27.1663  -20.3214   -6.1480 C   0  0  2  0  0  0  0  0  0  0  0  0
   28.3079  -20.7944   -5.2907 C   0  0  0  0  0  0  0  0  0  0  0  0
   27.2288  -20.8240   -7.5537 C   0  0  0  0  0  0  0  0  0  0  0  0
   26.1763  -20.2756   -8.4499 C   0  0  2  0  0  0  0  0  0  0  0  0
   24.8807  -20.8393   -8.1438 N   0  0  0  0  0  0  0  0  0  0  0  0
   26.5427  -20.6550   -9.8570 C   0  0  0  0  0  0  0  0  0  0  0  0
   27.7166  -20.4483  -10.2260 O   0  0  0  0  0  0  0  0  0  0  0  0
   25.5917  -21.2233  -10.7246 N   0  0  0  0  0  0  0  0  0  0  0  0
   25.8967  -21.4983  -12.1209 C   0  0  1  0  0  0  0  0  0  0  0  0
   24.9915  -22.6229  -12.6250 C   0  0  0  0  0  0  0  0  0  0  0  0
   25.4142  -22.8703  -14.0542 C   0  0  0  0  0  0  0  0  0  0  0  0
   24.5907  -23.8690  -14.7883 C   0  0  0  0  0  0  0  0  0  0  0  0
   25.1266  -24.0357  -16.1906 C   0  0  0  0  0  0  0  0  0  0  0  0
   24.3620  -25.1238  -16.8099 N   0  0  0  0  0  0  0  0  0  0  0  0
   25.6270  -20.2625  -12.8914 C   0  0  0  0  0  0  0  0  0  0  0  0
   24.5847  -19.5698  -12.5932 O   0  0  0  0  0  0  0  0  0  0  0  0
   26.4625  -19.8058  -13.9382 N   0  0  0  0  0  0  0  0  0  0  0  0
   27.6531  -20.4860  -14.4093 C   0  0  0  0  0  0  0  0  0  0  0  0
   28.5770  -19.3474  -14.8387 C   0  0  0  0  0  0  0  0  0  0  0  0
   27.6762  -18.1844  -15.1240 C   0  0  0  0  0  0  0  0  0  0  0  0
   26.2916  -18.5821  -14.7182 C   0  0  1  0  0  0  0  0  0  0  0  0
   25.4066  -18.8923  -15.8659 C   0  0  0  0  0  0  0  0  0  0  0  0
   24.8036  -17.8711  -16.5602 O   0  0  0  0  0  0  0  0  0  0  0  0
   25.1859  -20.0889  -16.2317 O   0  0  0  0  0  0  0  0  0  0  0  0
  2  1  1  6
  2  3  1  0
  4  2  1  0
  5  6  1  1
  5  4  1  0
  7  5  1  0
  8  7  2  0
  9  7  1  0
 10 11  1  6
 10  9  1  0
 11 12  1  0
 12 13  1  0
 13 14  1  0
 15 14  1  0
 16 17  2  0
 16 10  1  0
 18 16  1  0
 19 18  1  0
 20 21  1  0
 20 19  1  0
 21 22  1  0
 22 18  1  0
 22 23  1  6
 24 23  1  0
 25 23  2  0
M  END
$$$$
