LKP.pdb
     RDKit          3D

 25 25  0  0  1  0  0  0  0  0999 V2000
   18.3552  -96.5945   27.3629 C   0  0  0  0  0  0  0  0  0  0  0  0
   18.6790  -95.3410   26.5781 C   0  0  2  0  0  0  0  0  0  0  0  0
   17.6348  -95.1002   25.5227 C   0  0  0  0  0  0  0  0  0  0  0  0
   20.0752  -95.3391   26.0460 C   0  0  0  0  0  0  0  0  0  0  0  0
   20.6021  -93.9901   25.7076 C   0  0  2  0  0  0  0  0  0  0  0  0
   21.5478  -94.0549   24.6162 N   0  0  0  0  0  0  0  0  0  0  0  0
   21.3115  -93.4672   26.9249 C   0  0  0  0  0  0  0  0  0  0  0  0
   21.2656  -94.1571   27.9635 O   0  0  0  0  0  0  0  0  0  0  0  0
   22.0021  -92.2418   26.8897 N   0  0  0  0  0  0  0  0  0  0  0  0
   21.5660  -91.1410   26.0431 C   0  0  1  0  0  0  0  0  0  0  0  0
   20.7516  -91.6940   24.8730 C   0  0  0  0  0  0  0  0  0  0  0  0
   21.7393  -92.4524   24.0176 C   0  0  0  0  0  0  0  0  0  0  0  0
   23.1385  -91.9491   24.0788 C   0  0  0  0  0  0  0  0  0  0  0  0
   23.2313  -90.6213   23.3650 C   0  0  0  0  0  0  0  0  0  0  0  0
   21.9162  -89.9823   23.4860 N   0  0  0  0  0  0  0  0  0  0  0  0
   20.7119  -90.2532   26.8653 C   0  0  0  0  0  0  0  0  0  0  0  0
   21.0512  -90.0360   28.0871 O   0  0  0  0  0  0  0  0  0  0  0  0
   19.5417  -89.6303   26.3703 N   0  0  0  0  0  0  0  0  0  0  0  0
   19.1009  -88.2932   26.7167 C   0  0  0  0  0  0  0  0  0  0  0  0
   17.5766  -88.3911   26.6789 C   0  0  0  0  0  0  0  0  0  0  0  0
   17.2704  -89.5536   25.7843 C   0  0  0  0  0  0  0  0  0  0  0  0
   18.5716  -90.2100   25.4440 C   0  0  1  0  0  0  0  0  0  0  0  0
   19.0323  -89.9266   24.0642 C   0  0  0  0  0  0  0  0  0  0  0  0
   18.2738  -90.3331   22.9928 O   0  0  0  0  0  0  0  0  0  0  0  0
   20.1212  -89.3115   23.8393 O   0  0  0  0  0  0  0  0  0  0  0  0
  2  1  1  6
  2  3  1  0
  4  2  1  0
  5  6  1  6
  5  4  1  0
  7  5  1  0
  8  7  2  0
  9  7  1  0
 10 11  1  6
 10  9  1  0
 11 12  1  0
 12 13  1  0
 13 14  1  0
 15 14  1  0
 16 17  2  0
 16 10  1  0
 18 16  1  0
 19 18  1  0
 20 21  1  0
 20 19  1  0
 21 22  1  0
 22 18  1  0
 22 23  1  6
 24 23  1  0
 25 23  2  0
M  END
$$$$
