WFM.pdb
     RDKit          3D

 34 36  0  0  1  0  0  0  0  0999 V2000
   10.8232  -16.2582   20.3459 N   0  0  0  0  0  0  0  0  0  0  0  0
    9.8829  -16.0628   21.4577 C   0  0  1  0  0  0  0  0  0  0  0  0
    8.5506  -16.5423   20.9635 C   0  0  0  0  0  0  0  0  0  0  0  0
    8.0752  -15.8682   19.7444 C   0  0  0  0  0  0  0  0  0  0  0  0
    7.7207  -16.5271   18.5622 C   0  0  0  0  0  0  0  0  0  0  0  0
    7.3051  -15.6487   17.6710 N   0  0  0  0  0  0  0  0  0  0  0  0
    7.3676  -14.4236   18.2104 C   0  0  0  0  0  0  0  0  0  0  0  0
    7.0495  -13.1758   17.6769 C   0  0  0  0  0  0  0  0  0  0  0  0
    7.2190  -12.0563   18.4552 C   0  0  0  0  0  0  0  0  0  0  0  0
    7.6961  -12.1736   19.7400 C   0  0  0  0  0  0  0  0  0  0  0  0
    8.0085  -13.4145   20.2599 C   0  0  0  0  0  0  0  0  0  0  0  0
    7.8441  -14.5463   19.4958 C   0  0  0  0  0  0  0  0  0  0  0  0
   10.3855  -16.7915   22.6264 C   0  0  0  0  0  0  0  0  0  0  0  0
   11.6146  -17.0380   22.7121 O   0  0  0  0  0  0  0  0  0  0  0  0
    9.5171  -17.2344   23.6920 N   0  0  0  0  0  0  0  0  0  0  0  0
    9.3474  -16.3696   24.8219 C   0  0  1  0  0  0  0  0  0  0  0  0
    8.3974  -15.2238   24.5062 C   0  0  0  0  0  0  0  0  0  0  0  0
    8.0113  -14.4243   25.6625 C   0  0  0  0  0  0  0  0  0  0  0  0
    6.8384  -14.7015   26.3235 C   0  0  0  0  0  0  0  0  0  0  0  0
    6.5068  -13.9066   27.4232 C   0  0  0  0  0  0  0  0  0  0  0  0
    7.3214  -12.8740   27.8423 C   0  0  0  0  0  0  0  0  0  0  0  0
    8.4838  -12.6030   27.1835 C   0  0  0  0  0  0  0  0  0  0  0  0
    8.8021  -13.3952   26.0971 C   0  0  0  0  0  0  0  0  0  0  0  0
    8.9136  -17.0271   26.0653 C   0  0  0  0  0  0  0  0  0  0  0  0
    7.7284  -17.2893   26.3329 O   0  0  0  0  0  0  0  0  0  0  0  0
   12.5168  -21.5896   24.6810 C   0  0  0  0  0  0  0  0  0  0  0  0
   12.0973  -21.2329   26.4029 S   0  0  0  0  0  0  0  0  0  0  0  0
   10.9887  -19.8469   26.5749 C   0  0  0  0  0  0  0  0  0  0  0  0
   10.5719  -19.5159   27.9488 C   0  0  0  0  0  0  0  0  0  0  0  0
    9.6364  -18.3379   28.0712 C   0  0  2  0  0  0  0  0  0  0  0  0
    9.9210  -17.3852   27.0140 N   0  0  0  0  0  0  0  0  0  0  0  0
    9.7007  -17.6653   29.3552 C   0  0  0  0  0  0  0  0  0  0  0  0
    9.2420  -18.2624   30.5470 O   0  0  0  0  0  0  0  0  0  0  0  0
   10.1686  -16.5144   29.4745 O   0  0  0  0  0  0  0  0  0  0  0  0
  2  1  1  6
  2  3  1  0
  3  4  1  0
  4 12  1  0
  4  5  2  0
  5  6  1  0
  7  8  2  0
  7  6  1  0
  9  8  1  0
 10  9  2  0
 11 10  1  0
 11 12  2  0
 12  7  1  0
 13 14  2  0
 13  2  1  0
 15 13  1  0
 16 15  1  0
 16 17  1  6
 18 17  1  0
 18 23  1  0
 19 18  2  0
 20 19  1  0
 20 21  2  0
 21 22  1  0
 22 23  2  0
 24 16  1  0
 25 24  2  0
 27 26  1  0
 27 28  1  0
 29 28  1  0
 30 29  1  1
 30 31  1  0
 31 24  1  0
 32 30  1  0
 32 33  1  0
 34 32  2  0
M  END
$$$$
