WFM.pdb
     RDKit          3D

 34 36  0  0  1  0  0  0  0  0999 V2000
    6.7207  -18.9190   21.3084 N   0  0  0  0  0  0  0  0  0  0  0  0
    6.0544  -18.3395   22.4825 C   0  0  1  0  0  0  0  0  0  0  0  0
    5.5357  -19.4992   23.2797 C   0  0  0  0  0  0  0  0  0  0  0  0
    4.2280  -20.0074   22.8343 C   0  0  0  0  0  0  0  0  0  0  0  0
    3.5688  -21.1028   23.4026 C   0  0  0  0  0  0  0  0  0  0  0  0
    2.4078  -21.2824   22.8042 N   0  0  0  0  0  0  0  0  0  0  0  0
    2.2622  -20.3483   21.8544 C   0  0  0  0  0  0  0  0  0  0  0  0
    1.2246  -20.1200   20.9523 C   0  0  0  0  0  0  0  0  0  0  0  0
    1.3345  -19.0807   20.0605 C   0  0  0  0  0  0  0  0  0  0  0  0
    2.4548  -18.2826   20.0640 C   0  0  0  0  0  0  0  0  0  0  0  0
    3.4778  -18.5166   20.9619 C   0  0  0  0  0  0  0  0  0  0  0  0
    3.3846  -19.5517   21.8628 C   0  0  0  0  0  0  0  0  0  0  0  0
    7.0209  -17.5036   23.2013 C   0  0  0  0  0  0  0  0  0  0  0  0
    8.2427  -17.6068   22.9269 O   0  0  0  0  0  0  0  0  0  0  0  0
    6.6189  -16.5564   24.2147 N   0  0  0  0  0  0  0  0  0  0  0  0
    7.6466  -15.9298   24.9922 C   0  0  1  0  0  0  0  0  0  0  0  0
    7.0575  -15.0465   26.0820 C   0  0  0  0  0  0  0  0  0  0  0  0
    8.0476  -14.3620   26.9046 C   0  0  0  0  0  0  0  0  0  0  0  0
    8.3444  -14.8427   28.1576 C   0  0  0  0  0  0  0  0  0  0  0  0
    9.2959  -14.1522   28.9118 C   0  0  0  0  0  0  0  0  0  0  0  0
    9.9245  -13.0232   28.4262 C   0  0  0  0  0  0  0  0  0  0  0  0
    9.6268  -12.5503   27.1827 C   0  0  0  0  0  0  0  0  0  0  0  0
    8.6841  -13.2407   26.4454 C   0  0  0  0  0  0  0  0  0  0  0  0
    8.6342  -16.8417   25.5919 C   0  0  0  0  0  0  0  0  0  0  0  0
    8.3336  -17.8574   26.2423 O   0  0  0  0  0  0  0  0  0  0  0  0
   14.6448  -16.6844   22.9494 C   0  0  0  0  0  0  0  0  0  0  0  0
   14.8055  -18.0406   24.1340 S   0  0  0  0  0  0  0  0  0  0  0  0
   13.3791  -18.2132   25.1899 C   0  0  0  0  0  0  0  0  0  0  0  0
   12.2736  -17.2703   24.9464 C   0  0  0  0  0  0  0  0  0  0  0  0
   11.0438  -17.4878   25.7940 C   0  0  2  0  0  0  0  0  0  0  0  0
   10.0184  -16.5361   25.4078 N   0  0  0  0  0  0  0  0  0  0  0  0
   11.2853  -17.3825   27.2208 C   0  0  0  0  0  0  0  0  0  0  0  0
   11.6002  -18.5000   28.0204 O   0  0  0  0  0  0  0  0  0  0  0  0
   11.2269  -16.2897   27.8209 O   0  0  0  0  0  0  0  0  0  0  0  0
  2  1  1  6
  2  3  1  0
  3  4  1  0
  4 12  1  0
  4  5  2  0
  5  6  1  0
  7  8  2  0
  7  6  1  0
  9  8  1  0
 10  9  2  0
 11 10  1  0
 11 12  2  0
 12  7  1  0
 13 14  2  0
 13  2  1  0
 15 13  1  0
 16 15  1  0
 16 17  1  1
 18 17  1  0
 18 23  1  0
 19 18  2  0
 20 19  1  0
 20 21  2  0
 21 22  1  0
 22 23  2  0
 24 16  1  0
 25 24  2  0
 27 26  1  0
 27 28  1  0
 29 28  1  0
 30 29  1  6
 30 31  1  0
 31 24  1  0
 32 30  1  0
 32 33  1  0
 34 32  2  0
M  END
$$$$
