WFM.pdb
     RDKit          3D

 34 36  0  0  1  0  0  0  0  0999 V2000
    6.1853  -18.6679   24.9185 N   0  0  0  0  0  0  0  0  0  0  0  0
    6.5870  -18.9178   23.5277 C   0  0  1  0  0  0  0  0  0  0  0  0
    5.3490  -19.3726   22.8135 C   0  0  0  0  0  0  0  0  0  0  0  0
    4.8340  -20.6774   23.2593 C   0  0  0  0  0  0  0  0  0  0  0  0
    3.8734  -21.4267   22.5714 C   0  0  0  0  0  0  0  0  0  0  0  0
    3.6516  -22.5588   23.2097 N   0  0  0  0  0  0  0  0  0  0  0  0
    4.4275  -22.5982   24.3016 C   0  0  0  0  0  0  0  0  0  0  0  0
    4.5541  -23.5677   25.2950 C   0  0  0  0  0  0  0  0  0  0  0  0
    5.4318  -23.3501   26.3293 C   0  0  0  0  0  0  0  0  0  0  0  0
    6.1703  -22.1906   26.3768 C   0  0  0  0  0  0  0  0  0  0  0  0
    6.0381  -21.2358   25.3876 C   0  0  0  0  0  0  0  0  0  0  0  0
    5.1652  -21.4370   24.3439 C   0  0  0  0  0  0  0  0  0  0  0  0
    7.1741  -17.6891   22.9845 C   0  0  0  0  0  0  0  0  0  0  0  0
    7.4111  -17.6164   21.7527 O   0  0  0  0  0  0  0  0  0  0  0  0
    7.4871  -16.5502   23.8156 N   0  0  0  0  0  0  0  0  0  0  0  0
    8.4287  -15.5932   23.3148 C   0  0  1  0  0  0  0  0  0  0  0  0
    7.7969  -14.2166   23.1694 C   0  0  0  0  0  0  0  0  0  0  0  0
    7.3366  -13.6289   24.4216 C   0  0  0  0  0  0  0  0  0  0  0  0
    7.8041  -12.3960   24.8099 C   0  0  0  0  0  0  0  0  0  0  0  0
    7.3391  -11.8740   26.0191 C   0  0  0  0  0  0  0  0  0  0  0  0
    6.4397  -12.5636   26.8073 C   0  0  0  0  0  0  0  0  0  0  0  0
    5.9789  -13.7861   26.4180 C   0  0  0  0  0  0  0  0  0  0  0  0
    6.4455  -14.2931   25.2204 C   0  0  0  0  0  0  0  0  0  0  0  0
    9.6791  -15.4713   24.0816 C   0  0  0  0  0  0  0  0  0  0  0  0
   10.6104  -14.7088   23.7711 O   0  0  0  0  0  0  0  0  0  0  0  0
    8.7309  -14.4233   28.8035 C   0  0  0  0  0  0  0  0  0  0  0  0
   10.3545  -13.6762   28.5309 S   0  0  0  0  0  0  0  0  0  0  0  0
   11.2678  -14.4603   27.2154 C   0  0  0  0  0  0  0  0  0  0  0  0
   11.2288  -15.9328   27.1863 C   0  0  0  0  0  0  0  0  0  0  0  0
   11.1340  -16.5470   25.8109 C   0  0  2  0  0  0  0  0  0  0  0  0
    9.8215  -16.2780   25.2530 N   0  0  0  0  0  0  0  0  0  0  0  0
   11.3842  -17.9760   25.7852 C   0  0  0  0  0  0  0  0  0  0  0  0
   12.6128  -18.5373   26.1887 O   0  0  0  0  0  0  0  0  0  0  0  0
   10.5196  -18.7903   25.4019 O   0  0  0  0  0  0  0  0  0  0  0  0
  2  1  1  1
  2  3  1  0
  3  4  1  0
  4 12  1  0
  4  5  2  0
  5  6  1  0
  7  8  2  0
  7  6  1  0
  9  8  1  0
 10  9  2  0
 11 10  1  0
 11 12  2  0
 12  7  1  0
 13 14  2  0
 13  2  1  0
 15 13  1  0
 16 15  1  0
 16 17  1  1
 18 17  1  0
 18 23  1  0
 19 18  2  0
 20 19  1  0
 20 21  2  0
 21 22  1  0
 22 23  2  0
 24 16  1  0
 25 24  2  0
 27 26  1  0
 27 28  1  0
 29 28  1  0
 30 29  1  1
 30 31  1  0
 31 24  1  0
 32 30  1  0
 32 33  1  0
 34 32  2  0
M  END
$$$$
