WFM.pdb
     RDKit          3D

 34 36  0  0  1  0  0  0  0  0999 V2000
    8.1749  -19.0424   24.5125 N   0  0  0  0  0  0  0  0  0  0  0  0
    7.4302  -17.7852   24.3605 C   0  0  1  0  0  0  0  0  0  0  0  0
    7.7828  -16.9471   25.5532 C   0  0  0  0  0  0  0  0  0  0  0  0
    6.8444  -15.8452   25.8214 C   0  0  0  0  0  0  0  0  0  0  0  0
    5.4955  -16.0163   26.1510 C   0  0  0  0  0  0  0  0  0  0  0  0
    4.9370  -14.8409   26.3630 N   0  0  0  0  0  0  0  0  0  0  0  0
    5.8607  -13.8859   26.1878 C   0  0  0  0  0  0  0  0  0  0  0  0
    5.7673  -12.4988   26.2873 C   0  0  0  0  0  0  0  0  0  0  0  0
    6.8844  -11.7372   26.0424 C   0  0  0  0  0  0  0  0  0  0  0  0
    8.0726  -12.3421   25.7043 C   0  0  0  0  0  0  0  0  0  0  0  0
    8.1553  -13.7175   25.6084 C   0  0  0  0  0  0  0  0  0  0  0  0
    7.0477  -14.4959   25.8512 C   0  0  0  0  0  0  0  0  0  0  0  0
    7.7943  -17.1806   23.0754 C   0  0  0  0  0  0  0  0  0  0  0  0
    7.2484  -17.6009   22.0246 O   0  0  0  0  0  0  0  0  0  0  0  0
    8.7582  -16.1101   22.9714 N   0  0  0  0  0  0  0  0  0  0  0  0
    9.9175  -16.3284   22.1581 C   0  0  1  0  0  0  0  0  0  0  0  0
    9.9776  -15.3420   21.0012 C   0  0  0  0  0  0  0  0  0  0  0  0
    8.7612  -14.5613   20.8103 C   0  0  0  0  0  0  0  0  0  0  0  0
    8.7527  -13.2228   21.1230 C   0  0  0  0  0  0  0  0  0  0  0  0
    7.5639  -12.5158   20.9281 C   0  0  0  0  0  0  0  0  0  0  0  0
    6.4285  -13.1293   20.4382 C   0  0  0  0  0  0  0  0  0  0  0  0
    6.4420  -14.4571   20.1294 C   0  0  0  0  0  0  0  0  0  0  0  0
    7.6228  -15.1469   20.3262 C   0  0  0  0  0  0  0  0  0  0  0  0
   11.2052  -16.3145   22.8710 C   0  0  0  0  0  0  0  0  0  0  0  0
   12.3105  -16.2751   22.3037 O   0  0  0  0  0  0  0  0  0  0  0  0
   11.4383  -13.9349   29.2926 C   0  0  0  0  0  0  0  0  0  0  0  0
   10.4004  -15.1900   28.5078 S   0  0  0  0  0  0  0  0  0  0  0  0
   10.8069  -15.4536   26.7918 C   0  0  0  0  0  0  0  0  0  0  0  0
   12.0901  -16.1264   26.5248 C   0  0  0  0  0  0  0  0  0  0  0  0
   12.4061  -16.3542   25.0666 C   0  0  2  0  0  0  0  0  0  0  0  0
   11.1739  -16.3445   24.2998 N   0  0  0  0  0  0  0  0  0  0  0  0
   13.1259  -17.5866   24.8052 C   0  0  0  0  0  0  0  0  0  0  0  0
   12.4736  -18.8270   24.6520 O   0  0  0  0  0  0  0  0  0  0  0  0
   14.3692  -17.6151   24.7013 O   0  0  0  0  0  0  0  0  0  0  0  0
  2  1  1  1
  2  3  1  0
  3  4  1  0
  4 12  1  0
  4  5  2  0
  5  6  1  0
  7  8  2  0
  7  6  1  0
  9  8  1  0
 10  9  2  0
 11 10  1  0
 11 12  2  0
 12  7  1  0
 13 14  2  0
 13  2  1  0
 15 13  1  0
 16 15  1  0
 16 17  1  6
 18 17  1  0
 18 23  1  0
 19 18  2  0
 20 19  1  0
 20 21  2  0
 21 22  1  0
 22 23  2  0
 24 16  1  0
 25 24  2  0
 27 26  1  0
 27 28  1  0
 29 28  1  0
 30 29  1  1
 30 31  1  0
 31 24  1  0
 32 30  1  0
 32 33  1  0
 34 32  2  0
M  END
$$$$
