WFM.pdb
     RDKit          3D

 34 36  0  0  1  0  0  0  0  0999 V2000
    7.2658  -20.7914   20.9898 N   0  0  0  0  0  0  0  0  0  0  0  0
    7.4363  -20.3331   22.3751 C   0  0  1  0  0  0  0  0  0  0  0  0
    8.4846  -21.2193   22.9793 C   0  0  0  0  0  0  0  0  0  0  0  0
    8.1037  -22.6382   23.0694 C   0  0  0  0  0  0  0  0  0  0  0  0
    8.7989  -23.6854   22.4549 C   0  0  0  0  0  0  0  0  0  0  0  0
    8.2268  -24.8349   22.7542 N   0  0  0  0  0  0  0  0  0  0  0  0
    7.1725  -24.5992   23.5471 C   0  0  0  0  0  0  0  0  0  0  0  0
    6.2501  -25.4730   24.1203 C   0  0  0  0  0  0  0  0  0  0  0  0
    5.2406  -24.9590   24.8977 C   0  0  0  0  0  0  0  0  0  0  0  0
    5.1484  -23.6018   25.1020 C   0  0  0  0  0  0  0  0  0  0  0  0
    6.0673  -22.7440   24.5298 C   0  0  0  0  0  0  0  0  0  0  0  0
    7.0852  -23.2406   23.7496 C   0  0  0  0  0  0  0  0  0  0  0  0
    7.7935  -18.9113   22.3548 C   0  0  0  0  0  0  0  0  0  0  0  0
    8.9191  -18.5692   21.9135 O   0  0  0  0  0  0  0  0  0  0  0  0
    6.8932  -17.8824   22.8202 N   0  0  0  0  0  0  0  0  0  0  0  0
    7.4650  -16.7001   23.3931 C   0  0  1  0  0  0  0  0  0  0  0  0
    6.3973  -15.8130   24.0163 C   0  0  0  0  0  0  0  0  0  0  0  0
    6.8713  -14.4975   24.4288 C   0  0  0  0  0  0  0  0  0  0  0  0
    7.6179  -13.7374   23.5603 C   0  0  0  0  0  0  0  0  0  0  0  0
    8.0542  -12.4855   24.0000 C   0  0  0  0  0  0  0  0  0  0  0  0
    7.7524  -12.0156   25.2624 C   0  0  0  0  0  0  0  0  0  0  0  0
    7.0115  -12.7732   26.1202 C   0  0  0  0  0  0  0  0  0  0  0  0
    6.5852  -14.0099   25.6753 C   0  0  0  0  0  0  0  0  0  0  0  0
    8.5381  -16.9253   24.3751 C   0  0  0  0  0  0  0  0  0  0  0  0
    8.4119  -17.6336   25.3887 O   0  0  0  0  0  0  0  0  0  0  0  0
   10.4603  -13.5059   30.0752 C   0  0  0  0  0  0  0  0  0  0  0  0
   10.7151  -13.5951   28.2876 S   0  0  0  0  0  0  0  0  0  0  0  0
   10.6302  -15.2605   27.6562 C   0  0  0  0  0  0  0  0  0  0  0  0
    9.8824  -15.4408   26.3996 C   0  0  0  0  0  0  0  0  0  0  0  0
   10.6877  -15.9824   25.2437 C   0  0  2  0  0  0  0  0  0  0  0  0
    9.7977  -16.2916   24.1399 N   0  0  0  0  0  0  0  0  0  0  0  0
   11.4732  -17.1574   25.5721 C   0  0  0  0  0  0  0  0  0  0  0  0
   12.7796  -17.3568   25.0811 O   0  0  0  0  0  0  0  0  0  0  0  0
   11.0317  -18.0606   26.3115 O   0  0  0  0  0  0  0  0  0  0  0  0
  2  1  1  6
  2  3  1  0
  3  4  1  0
  4 12  1  0
  4  5  2  0
  5  6  1  0
  7  8  2  0
  7  6  1  0
  9  8  1  0
 10  9  2  0
 11 10  1  0
 11 12  2  0
 12  7  1  0
 13 14  2  0
 13  2  1  0
 15 13  1  0
 16 15  1  0
 16 17  1  1
 18 17  1  0
 18 23  1  0
 19 18  2  0
 20 19  1  0
 20 21  2  0
 21 22  1  0
 22 23  2  0
 24 16  1  0
 25 24  2  0
 27 26  1  0
 27 28  1  0
 29 28  1  0
 30 29  1  1
 30 31  1  0
 31 24  1  0
 32 30  1  0
 32 33  1  0
 34 32  2  0
M  END
$$$$
