GWK.pdb
     RDKit          3D

 28 29  0  0  1  0  0  0  0  0999 V2000
    5.8996  -17.8319   20.0053 N   0  0  0  0  0  0  0  0  0  0  0  0
    6.2154  -18.2111   21.3534 C   0  0  0  0  0  0  0  0  0  0  0  0
    7.2495  -17.2471   21.8636 C   0  0  0  0  0  0  0  0  0  0  0  0
    7.6960  -16.3243   21.1303 O   0  0  0  0  0  0  0  0  0  0  0  0
    7.7673  -17.3239   23.1726 N   0  0  0  0  0  0  0  0  0  0  0  0
    8.7824  -16.4700   23.7019 C   0  0  1  0  0  0  0  0  0  0  0  0
    8.6232  -16.0461   25.1127 C   0  0  0  0  0  0  0  0  0  0  0  0
    7.4549  -15.2014   25.4131 C   0  0  0  0  0  0  0  0  0  0  0  0
    6.1355  -15.5361   25.5945 C   0  0  0  0  0  0  0  0  0  0  0  0
    5.4503  -14.3838   25.8412 N   0  0  0  0  0  0  0  0  0  0  0  0
    6.2900  -13.3409   25.8211 C   0  0  0  0  0  0  0  0  0  0  0  0
    6.1081  -11.9829   26.0060 C   0  0  0  0  0  0  0  0  0  0  0  0
    7.1618  -11.0878   25.9318 C   0  0  0  0  0  0  0  0  0  0  0  0
    8.4145  -11.5629   25.6682 C   0  0  0  0  0  0  0  0  0  0  0  0
    8.5954  -12.9118   25.4845 C   0  0  0  0  0  0  0  0  0  0  0  0
    7.5588  -13.8333   25.5529 C   0  0  0  0  0  0  0  0  0  0  0  0
   10.1262  -17.1482   23.6261 C   0  0  0  0  0  0  0  0  0  0  0  0
   10.1899  -18.3404   23.9792 O   0  0  0  0  0  0  0  0  0  0  0  0
   11.2386  -16.4446   23.1743 N   0  0  0  0  0  0  0  0  0  0  0  0
   12.5195  -17.1637   23.0338 C   0  0  1  0  0  0  0  0  0  0  0  0
   13.4692  -16.2712   22.2576 C   0  0  0  0  0  0  0  0  0  0  0  0
   14.8325  -16.8610   22.0893 C   0  0  0  0  0  0  0  0  0  0  0  0
   15.2761  -16.7566   20.6504 C   0  0  0  0  0  0  0  0  0  0  0  0
   16.5722  -17.4480   20.3577 C   0  0  0  0  0  0  0  0  0  0  0  0
   16.9871  -17.0794   18.9945 N   0  0  0  0  0  0  0  0  0  0  0  0
   12.9689  -17.4235   24.4167 C   0  0  0  0  0  0  0  0  0  0  0  0
   12.6076  -16.6392   25.4986 O   0  0  0  0  0  0  0  0  0  0  0  0
   13.7170  -18.4007   24.6420 O   0  0  0  0  0  0  0  0  0  0  0  0
  1  2  1  0
  3  4  2  0
  3  2  1  0
  5  3  1  0
  6  5  1  0
  6  7  1  1
  8 16  1  0
  8  7  1  0
  9  8  2  0
 10  9  1  0
 10 11  1  0
 11 16  2  0
 12 11  1  0
 12 13  2  0
 13 14  1  0
 14 15  2  0
 16 15  1  0
 17 18  2  0
 17  6  1  0
 19 17  1  0
 20 21  1  1
 20 19  1  0
 22 23  1  0
 22 21  1  0
 24 23  1  0
 24 25  1  0
 26 20  1  0
 27 26  1  0
 28 26  2  0
M  END
$$$$
