GWK.pdb
     RDKit          3D

 28 29  0  0  1  0  0  0  0  0999 V2000
    9.4900  -17.3221   19.2279 N   0  0  0  0  0  0  0  0  0  0  0  0
    8.7122  -17.7733   20.3470 C   0  0  0  0  0  0  0  0  0  0  0  0
    9.2217  -17.0606   21.5683 C   0  0  0  0  0  0  0  0  0  0  0  0
   10.2208  -16.2946   21.5046 O   0  0  0  0  0  0  0  0  0  0  0  0
    8.6163  -17.2098   22.8327 N   0  0  0  0  0  0  0  0  0  0  0  0
    9.0871  -16.6106   24.0406 C   0  0  1  0  0  0  0  0  0  0  0  0
    8.0624  -16.0083   24.9251 C   0  0  0  0  0  0  0  0  0  0  0  0
    7.4327  -14.7667   24.4445 C   0  0  0  0  0  0  0  0  0  0  0  0
    6.8869  -14.4588   23.2226 C   0  0  0  0  0  0  0  0  0  0  0  0
    6.4429  -13.1715   23.2845 N   0  0  0  0  0  0  0  0  0  0  0  0
    6.6900  -12.6618   24.4979 C   0  0  0  0  0  0  0  0  0  0  0  0
    6.4463  -11.4255   25.0664 C   0  0  0  0  0  0  0  0  0  0  0  0
    6.8077  -11.1374   26.3716 C   0  0  0  0  0  0  0  0  0  0  0  0
    7.4221  -12.1039   27.1153 C   0  0  0  0  0  0  0  0  0  0  0  0
    7.6642  -13.3321   26.5507 C   0  0  0  0  0  0  0  0  0  0  0  0
    7.3135  -13.6502   25.2453 C   0  0  0  0  0  0  0  0  0  0  0  0
    9.8077  -17.6317   24.8829 C   0  0  0  0  0  0  0  0  0  0  0  0
    9.1715  -18.6441   25.2297 O   0  0  0  0  0  0  0  0  0  0  0  0
   11.1353  -17.4256   25.2456 N   0  0  0  0  0  0  0  0  0  0  0  0
   11.8481  -18.5038   25.9577 C   0  0  1  0  0  0  0  0  0  0  0  0
   13.3303  -18.1836   25.9192 C   0  0  0  0  0  0  0  0  0  0  0  0
   14.1627  -19.1328   26.7199 C   0  0  0  0  0  0  0  0  0  0  0  0
   15.3437  -19.6083   25.9092 C   0  0  0  0  0  0  0  0  0  0  0  0
   16.1561  -20.6742   26.5784 C   0  0  0  0  0  0  0  0  0  0  0  0
   17.1411  -21.1739   25.6055 N   0  0  0  0  0  0  0  0  0  0  0  0
   11.2895  -18.4968   27.3251 C   0  0  0  0  0  0  0  0  0  0  0  0
   11.3394  -19.5864   28.1775 O   0  0  0  0  0  0  0  0  0  0  0  0
   10.7375  -17.4591   27.7538 O   0  0  0  0  0  0  0  0  0  0  0  0
  1  2  1  0
  3  4  2  0
  3  2  1  0
  5  3  1  0
  6  5  1  0
  6  7  1  1
  8 16  1  0
  8  7  1  0
  9  8  2  0
 10  9  1  0
 10 11  1  0
 11 16  2  0
 12 11  1  0
 12 13  2  0
 13 14  1  0
 14 15  2  0
 16 15  1  0
 17 18  2  0
 17  6  1  0
 19 17  1  0
 20 21  1  1
 20 19  1  0
 22 23  1  0
 22 21  1  0
 24 23  1  0
 24 25  1  0
 26 20  1  0
 27 26  1  0
 28 26  2  0
M  END
$$$$
