GWK.pdb
     RDKit          3D

 28 29  0  0  1  0  0  0  0  0999 V2000
    4.9069  -19.4432   22.3014 N   0  0  0  0  0  0  0  0  0  0  0  0
    5.6835  -19.3977   23.5079 C   0  0  0  0  0  0  0  0  0  0  0  0
    6.7263  -18.3293   23.3341 C   0  0  0  0  0  0  0  0  0  0  0  0
    6.8971  -17.7624   22.2213 O   0  0  0  0  0  0  0  0  0  0  0  0
    7.5571  -17.9108   24.3934 N   0  0  0  0  0  0  0  0  0  0  0  0
    8.5590  -16.8977   24.2957 C   0  0  1  0  0  0  0  0  0  0  0  0
    8.6940  -15.9846   25.4547 C   0  0  0  0  0  0  0  0  0  0  0  0
    7.4998  -15.1995   25.8103 C   0  0  0  0  0  0  0  0  0  0  0  0
    6.2564  -15.6070   26.2272 C   0  0  0  0  0  0  0  0  0  0  0  0
    5.5010  -14.4885   26.4182 N   0  0  0  0  0  0  0  0  0  0  0  0
    6.2236  -13.3968   26.1367 C   0  0  0  0  0  0  0  0  0  0  0  0
    5.9359  -12.0449   26.1656 C   0  0  0  0  0  0  0  0  0  0  0  0
    6.8767  -11.0901   25.8190 C   0  0  0  0  0  0  0  0  0  0  0  0
    8.1229  -11.4985   25.4383 C   0  0  0  0  0  0  0  0  0  0  0  0
    8.4088  -12.8414   25.4095 C   0  0  0  0  0  0  0  0  0  0  0  0
    7.4866  -13.8217   25.7514 C   0  0  0  0  0  0  0  0  0  0  0  0
    9.9168  -17.5237   24.1059 C   0  0  0  0  0  0  0  0  0  0  0  0
   10.1576  -18.5754   24.7273 O   0  0  0  0  0  0  0  0  0  0  0  0
   10.8484  -16.9274   23.2615 N   0  0  0  0  0  0  0  0  0  0  0  0
   12.1335  -17.6150   23.0303 C   0  0  1  0  0  0  0  0  0  0  0  0
   12.6275  -17.2224   21.6508 C   0  0  0  0  0  0  0  0  0  0  0  0
   11.8335  -17.8330   20.5411 C   0  0  0  0  0  0  0  0  0  0  0  0
   12.3289  -17.3349   19.2051 C   0  0  0  0  0  0  0  0  0  0  0  0
   11.6380  -17.9514   18.0276 C   0  0  0  0  0  0  0  0  0  0  0  0
   12.1466  -17.3005   16.8094 N   0  0  0  0  0  0  0  0  0  0  0  0
   13.0198  -17.1501   24.1167 C   0  0  0  0  0  0  0  0  0  0  0  0
   14.2251  -17.7535   24.4317 O   0  0  0  0  0  0  0  0  0  0  0  0
   12.6795  -16.1590   24.8002 O   0  0  0  0  0  0  0  0  0  0  0  0
  1  2  1  0
  3  4  2  0
  3  2  1  0
  5  3  1  0
  6  5  1  0
  6  7  1  1
  8 16  1  0
  8  7  1  0
  9  8  2  0
 10  9  1  0
 10 11  1  0
 11 16  2  0
 12 11  1  0
 12 13  2  0
 13 14  1  0
 14 15  2  0
 16 15  1  0
 17 18  2  0
 17  6  1  0
 19 17  1  0
 20 21  1  6
 20 19  1  0
 22 23  1  0
 22 21  1  0
 24 23  1  0
 24 25  1  0
 26 20  1  0
 27 26  1  0
 28 26  2  0
M  END
$$$$
