GWK.pdb
     RDKit          3D

 28 29  0  0  1  0  0  0  0  0999 V2000
    5.1524  -19.1652   21.5760 N   0  0  0  0  0  0  0  0  0  0  0  0
    5.8188  -19.1722   22.8475 C   0  0  0  0  0  0  0  0  0  0  0  0
    6.9038  -18.1334   22.7949 C   0  0  0  0  0  0  0  0  0  0  0  0
    7.1554  -17.5095   21.7289 O   0  0  0  0  0  0  0  0  0  0  0  0
    7.6867  -17.8068   23.9209 N   0  0  0  0  0  0  0  0  0  0  0  0
    8.7132  -16.8141   23.9431 C   0  0  1  0  0  0  0  0  0  0  0  0
    8.7940  -15.9708   25.1587 C   0  0  0  0  0  0  0  0  0  0  0  0
    7.5724  -15.2345   25.5253 C   0  0  0  0  0  0  0  0  0  0  0  0
    6.3345  -15.6932   25.9038 C   0  0  0  0  0  0  0  0  0  0  0  0
    5.5446  -14.6049   26.1271 N   0  0  0  0  0  0  0  0  0  0  0  0
    6.2404  -13.4829   25.9029 C   0  0  0  0  0  0  0  0  0  0  0  0
    5.9139  -12.1418   25.9819 C   0  0  0  0  0  0  0  0  0  0  0  0
    6.8327  -11.1478   25.6908 C   0  0  0  0  0  0  0  0  0  0  0  0
    8.0959  -11.5055   25.3153 C   0  0  0  0  0  0  0  0  0  0  0  0
    8.4203  -12.8376   25.2368 C   0  0  0  0  0  0  0  0  0  0  0  0
    7.5210  -13.8564   25.5224 C   0  0  0  0  0  0  0  0  0  0  0  0
   10.0672  -17.4607   23.8013 C   0  0  0  0  0  0  0  0  0  0  0  0
   10.2601  -18.5311   24.4071 O   0  0  0  0  0  0  0  0  0  0  0  0
   11.0476  -16.8621   23.0158 N   0  0  0  0  0  0  0  0  0  0  0  0
   12.2866  -17.6141   22.7385 C   0  0  1  0  0  0  0  0  0  0  0  0
   12.8335  -17.1317   21.4083 C   0  0  0  0  0  0  0  0  0  0  0  0
   12.3655  -17.9455   20.2449 C   0  0  0  0  0  0  0  0  0  0  0  0
   12.9402  -17.4026   18.9591 C   0  0  0  0  0  0  0  0  0  0  0  0
   12.3096  -17.9639   17.7218 C   0  0  0  0  0  0  0  0  0  0  0  0
   12.9401  -17.3208   16.5576 N   0  0  0  0  0  0  0  0  0  0  0  0
   13.1812  -17.3150   23.8752 C   0  0  0  0  0  0  0  0  0  0  0  0
   14.3199  -18.0464   24.1655 O   0  0  0  0  0  0  0  0  0  0  0  0
   12.9114  -16.3524   24.6274 O   0  0  0  0  0  0  0  0  0  0  0  0
  1  2  1  0
  3  4  2  0
  3  2  1  0
  5  3  1  0
  6  5  1  0
  6  7  1  1
  8 16  1  0
  8  7  1  0
  9  8  2  0
 10  9  1  0
 10 11  1  0
 11 16  2  0
 12 11  1  0
 12 13  2  0
 13 14  1  0
 14 15  2  0
 16 15  1  0
 17 18  2  0
 17  6  1  0
 19 17  1  0
 20 21  1  6
 20 19  1  0
 22 23  1  0
 22 21  1  0
 24 23  1  0
 24 25  1  0
 26 20  1  0
 27 26  1  0
 28 26  2  0
M  END
$$$$
