GWK.pdb
     RDKit          3D

 28 29  0  0  1  0  0  0  0  0999 V2000
    5.5984  -18.6546   20.8388 N   0  0  0  0  0  0  0  0  0  0  0  0
    6.0892  -18.8046   22.1794 C   0  0  0  0  0  0  0  0  0  0  0  0
    7.2004  -17.8101   22.3679 C   0  0  0  0  0  0  0  0  0  0  0  0
    7.7138  -17.2145   21.3827 O   0  0  0  0  0  0  0  0  0  0  0  0
    7.7196  -17.4956   23.6403 N   0  0  0  0  0  0  0  0  0  0  0  0
    8.7904  -16.5825   23.8837 C   0  0  1  0  0  0  0  0  0  0  0  0
    8.8015  -15.9102   25.2040 C   0  0  0  0  0  0  0  0  0  0  0  0
    7.5873  -15.1588   25.5646 C   0  0  0  0  0  0  0  0  0  0  0  0
    6.3394  -15.6020   25.9283 C   0  0  0  0  0  0  0  0  0  0  0  0
    5.5635  -14.5039   26.1522 N   0  0  0  0  0  0  0  0  0  0  0  0
    6.2775  -13.3906   25.9425 C   0  0  0  0  0  0  0  0  0  0  0  0
    5.9698  -12.0455   26.0282 C   0  0  0  0  0  0  0  0  0  0  0  0
    6.9056  -11.0630   25.7529 C   0  0  0  0  0  0  0  0  0  0  0  0
    8.1670  -11.4364   25.3865 C   0  0  0  0  0  0  0  0  0  0  0  0
    8.4727  -12.7725   25.3013 C   0  0  0  0  0  0  0  0  0  0  0  0
    7.5560  -13.7801   25.5712 C   0  0  0  0  0  0  0  0  0  0  0  0
   10.1157  -17.2916   23.7728 C   0  0  0  0  0  0  0  0  0  0  0  0
   10.2137  -18.4143   24.3019 O   0  0  0  0  0  0  0  0  0  0  0  0
   11.1744  -16.6908   23.0985 N   0  0  0  0  0  0  0  0  0  0  0  0
   12.4092  -17.4704   22.8859 C   0  0  1  0  0  0  0  0  0  0  0  0
   13.0169  -17.0259   21.5690 C   0  0  0  0  0  0  0  0  0  0  0  0
   12.4384  -17.7276   20.3825 C   0  0  0  0  0  0  0  0  0  0  0  0
   12.9617  -17.1179   19.1048 C   0  0  0  0  0  0  0  0  0  0  0  0
   12.3648  -17.6990   17.8599 C   0  0  0  0  0  0  0  0  0  0  0  0
   12.9079  -16.9617   16.7076 N   0  0  0  0  0  0  0  0  0  0  0  0
   13.2638  -17.1633   24.0509 C   0  0  0  0  0  0  0  0  0  0  0  0
   14.4095  -17.8727   24.3674 O   0  0  0  0  0  0  0  0  0  0  0  0
   12.9514  -16.2142   24.8039 O   0  0  0  0  0  0  0  0  0  0  0  0
  1  2  1  0
  3  4  2  0
  3  2  1  0
  5  3  1  0
  6  5  1  0
  6  7  1  1
  8 16  1  0
  8  7  1  0
  9  8  2  0
 10  9  1  0
 10 11  1  0
 11 16  2  0
 12 11  1  0
 12 13  2  0
 13 14  1  0
 14 15  2  0
 16 15  1  0
 17 18  2  0
 17  6  1  0
 19 17  1  0
 20 21  1  6
 20 19  1  0
 22 23  1  0
 22 21  1  0
 24 23  1  0
 24 25  1  0
 26 20  1  0
 27 26  1  0
 28 26  2  0
M  END
$$$$
