GWK.pdb
     RDKit          3D

 28 29  0  0  1  0  0  0  0  0999 V2000
    5.4892  -20.8041   24.0896 N   0  0  0  0  0  0  0  0  0  0  0  0
    6.6703  -20.2548   24.6932 C   0  0  0  0  0  0  0  0  0  0  0  0
    6.8306  -18.8520   24.1779 C   0  0  0  0  0  0  0  0  0  0  0  0
    5.9589  -18.3298   23.4321 O   0  0  0  0  0  0  0  0  0  0  0  0
    7.9502  -18.0573   24.4979 N   0  0  0  0  0  0  0  0  0  0  0  0
    8.1056  -16.6827   24.1431 C   0  0  1  0  0  0  0  0  0  0  0  0
    8.5008  -15.7576   25.2309 C   0  0  0  0  0  0  0  0  0  0  0  0
    7.4109  -15.0113   25.8820 C   0  0  0  0  0  0  0  0  0  0  0  0
    6.2585  -15.4573   26.4811 C   0  0  0  0  0  0  0  0  0  0  0  0
    5.5761  -14.3632   26.9230 N   0  0  0  0  0  0  0  0  0  0  0  0
    6.2568  -13.2496   26.6234 C   0  0  0  0  0  0  0  0  0  0  0  0
    6.0086  -11.9074   26.8429 C   0  0  0  0  0  0  0  0  0  0  0  0
    6.8887  -10.9237   26.4249 C   0  0  0  0  0  0  0  0  0  0  0  0
    8.0330  -11.2929   25.7778 C   0  0  0  0  0  0  0  0  0  0  0  0
    8.2797  -12.6261   25.5596 C   0  0  0  0  0  0  0  0  0  0  0  0
    7.4165  -13.6348   25.9669 C   0  0  0  0  0  0  0  0  0  0  0  0
    9.1595  -16.5355   23.0758 C   0  0  0  0  0  0  0  0  0  0  0  0
   10.0105  -17.4391   22.9789 O   0  0  0  0  0  0  0  0  0  0  0  0
    9.1583  -15.4207   22.2428 N   0  0  0  0  0  0  0  0  0  0  0  0
    9.4893  -15.6049   20.8166 C   0  0  1  0  0  0  0  0  0  0  0  0
    8.9853  -14.3886   20.0631 C   0  0  0  0  0  0  0  0  0  0  0  0
    9.3711  -14.3842   18.6189 C   0  0  0  0  0  0  0  0  0  0  0  0
    8.4570  -13.4753   17.8337 C   0  0  0  0  0  0  0  0  0  0  0  0
    8.6832  -13.5102   16.3534 C   0  0  0  0  0  0  0  0  0  0  0  0
    7.8873  -12.4314   15.7458 N   0  0  0  0  0  0  0  0  0  0  0  0
   10.9595  -15.7422   20.7772 C   0  0  0  0  0  0  0  0  0  0  0  0
   11.8229  -14.9328   21.4951 O   0  0  0  0  0  0  0  0  0  0  0  0
   11.4706  -16.6324   20.0619 O   0  0  0  0  0  0  0  0  0  0  0  0
  1  2  1  0
  3  4  2  0
  3  2  1  0
  5  3  1  0
  6  5  1  0
  6  7  1  1
  8 16  1  0
  8  7  1  0
  9  8  2  0
 10  9  1  0
 10 11  1  0
 11 16  2  0
 12 11  1  0
 12 13  2  0
 13 14  1  0
 14 15  2  0
 16 15  1  0
 17 18  2  0
 17  6  1  0
 19 17  1  0
 20 21  1  6
 20 19  1  0
 22 23  1  0
 22 21  1  0
 24 23  1  0
 24 25  1  0
 26 20  1  0
 27 26  1  0
 28 26  2  0
M  END
$$$$
