GWK.pdb
     RDKit          3D

 28 29  0  0  1  0  0  0  0  0999 V2000
    4.9415  -19.9409   24.0603 N   0  0  0  0  0  0  0  0  0  0  0  0
    6.1275  -19.8629   24.8652 C   0  0  0  0  0  0  0  0  0  0  0  0
    7.0160  -18.8121   24.2605 C   0  0  0  0  0  0  0  0  0  0  0  0
    7.1344  -18.7018   23.0104 O   0  0  0  0  0  0  0  0  0  0  0  0
    7.7536  -17.9066   25.0500 N   0  0  0  0  0  0  0  0  0  0  0  0
    8.6726  -16.9388   24.5415 C   0  0  1  0  0  0  0  0  0  0  0  0
    8.8240  -15.6914   25.3266 C   0  0  0  0  0  0  0  0  0  0  0  0
    7.7447  -14.6988   25.1904 C   0  0  0  0  0  0  0  0  0  0  0  0
    6.6872  -14.4119   26.0183 C   0  0  0  0  0  0  0  0  0  0  0  0
    5.9680  -13.4125   25.4335 N   0  0  0  0  0  0  0  0  0  0  0  0
    6.5344  -13.0629   24.2715 C   0  0  0  0  0  0  0  0  0  0  0  0
    6.2079  -12.1241   23.3106 C   0  0  0  0  0  0  0  0  0  0  0  0
    6.9713  -11.9519   22.1684 C   0  0  0  0  0  0  0  0  0  0  0  0
    8.0769  -12.7328   21.9890 C   0  0  0  0  0  0  0  0  0  0  0  0
    8.4013  -13.6654   22.9435 C   0  0  0  0  0  0  0  0  0  0  0  0
    7.6557  -13.8610   24.0985 C   0  0  0  0  0  0  0  0  0  0  0  0
   10.0544  -17.5326   24.4437 C   0  0  0  0  0  0  0  0  0  0  0  0
   10.3771  -18.3823   25.2945 O   0  0  0  0  0  0  0  0  0  0  0  0
   10.9176  -17.1283   23.4299 N   0  0  0  0  0  0  0  0  0  0  0  0
   12.1762  -17.8737   23.2354 C   0  0  1  0  0  0  0  0  0  0  0  0
   12.4833  -17.8849   21.7499 C   0  0  0  0  0  0  0  0  0  0  0  0
   13.4168  -18.9804   21.3459 C   0  0  0  0  0  0  0  0  0  0  0  0
   13.5661  -19.0163   19.8443 C   0  0  0  0  0  0  0  0  0  0  0  0
   14.5537  -20.0290   19.3515 C   0  0  0  0  0  0  0  0  0  0  0  0
   13.8336  -21.2915   19.1195 N   0  0  0  0  0  0  0  0  0  0  0  0
   13.1839  -17.1417   24.0295 C   0  0  0  0  0  0  0  0  0  0  0  0
   14.3733  -17.7033   24.4609 O   0  0  0  0  0  0  0  0  0  0  0  0
   12.9685  -15.9487   24.3386 O   0  0  0  0  0  0  0  0  0  0  0  0
  1  2  1  0
  3  4  2  0
  3  2  1  0
  5  3  1  0
  6  5  1  0
  6  7  1  1
  8 16  1  0
  8  7  1  0
  9  8  2  0
 10  9  1  0
 10 11  1  0
 11 16  2  0
 12 11  1  0
 12 13  2  0
 13 14  1  0
 14 15  2  0
 16 15  1  0
 17 18  2  0
 17  6  1  0
 19 17  1  0
 20 21  1  6
 20 19  1  0
 22 23  1  0
 22 21  1  0
 24 23  1  0
 24 25  1  0
 26 20  1  0
 27 26  1  0
 28 26  2  0
M  END
$$$$
