GWK.pdb
     RDKit          3D

 28 29  0  0  1  0  0  0  0  0999 V2000
    5.3393  -20.0315   22.6681 N   0  0  0  0  0  0  0  0  0  0  0  0
    6.0626  -19.7344   23.8720 C   0  0  0  0  0  0  0  0  0  0  0  0
    6.9985  -18.5981   23.5683 C   0  0  0  0  0  0  0  0  0  0  0  0
    7.2108  -18.2303   22.3815 O   0  0  0  0  0  0  0  0  0  0  0  0
    7.6788  -17.8935   24.5822 N   0  0  0  0  0  0  0  0  0  0  0  0
    8.6196  -16.8427   24.3577 C   0  0  1  0  0  0  0  0  0  0  0  0
    8.7291  -15.8130   25.4174 C   0  0  0  0  0  0  0  0  0  0  0  0
    7.5155  -15.0244   25.6899 C   0  0  0  0  0  0  0  0  0  0  0  0
    6.2505  -15.4272   26.0411 C   0  0  0  0  0  0  0  0  0  0  0  0
    5.4842  -14.3072   26.1690 N   0  0  0  0  0  0  0  0  0  0  0  0
    6.2208  -13.2190   25.9113 C   0  0  0  0  0  0  0  0  0  0  0  0
    5.9305  -11.8674   25.9006 C   0  0  0  0  0  0  0  0  0  0  0  0
    6.8889  -10.9167   25.5928 C   0  0  0  0  0  0  0  0  0  0  0  0
    8.1554  -11.3290   25.2918 C   0  0  0  0  0  0  0  0  0  0  0  0
    8.4439  -12.6716   25.3025 C   0  0  0  0  0  0  0  0  0  0  0  0
    7.5044  -13.6479   25.6070 C   0  0  0  0  0  0  0  0  0  0  0  0
   10.0058  -17.4104   24.1920 C   0  0  0  0  0  0  0  0  0  0  0  0
   10.3080  -18.4016   24.8821 O   0  0  0  0  0  0  0  0  0  0  0  0
   10.8955  -16.8288   23.2938 N   0  0  0  0  0  0  0  0  0  0  0  0
   12.1190  -17.5702   22.9319 C   0  0  1  0  0  0  0  0  0  0  0  0
   12.5370  -17.1247   21.5434 C   0  0  0  0  0  0  0  0  0  0  0  0
   13.7859  -17.7884   21.0591 C   0  0  0  0  0  0  0  0  0  0  0  0
   14.1854  -17.2368   19.7120 C   0  0  0  0  0  0  0  0  0  0  0  0
   15.3170  -17.9712   19.0611 C   0  0  0  0  0  0  0  0  0  0  0  0
   15.7736  -17.1757   17.9100 N   0  0  0  0  0  0  0  0  0  0  0  0
   13.1048  -17.2184   23.9742 C   0  0  0  0  0  0  0  0  0  0  0  0
   12.9769  -16.1220   24.8093 O   0  0  0  0  0  0  0  0  0  0  0  0
   14.1166  -17.9386   24.1253 O   0  0  0  0  0  0  0  0  0  0  0  0
  1  2  1  0
  3  4  2  0
  3  2  1  0
  5  3  1  0
  6  5  1  0
  6  7  1  1
  8 16  1  0
  8  7  1  0
  9  8  2  0
 10  9  1  0
 10 11  1  0
 11 16  2  0
 12 11  1  0
 12 13  2  0
 13 14  1  0
 14 15  2  0
 16 15  1  0
 17 18  2  0
 17  6  1  0
 19 17  1  0
 20 21  1  6
 20 19  1  0
 22 23  1  0
 22 21  1  0
 24 23  1  0
 24 25  1  0
 26 20  1  0
 27 26  1  0
 28 26  2  0
M  END
$$$$
