KNN.pdb
     RDKit          3D

 26 25  0  0  1  0  0  0  0  0999 V2000
    8.0128  -16.7005   21.2519 N   0  0  0  0  0  0  0  0  0  0  0  0
    9.0760  -15.7244   21.3781 C   0  0  1  0  0  0  0  0  0  0  0  0
    9.4212  -15.0457   20.0923 C   0  0  0  0  0  0  0  0  0  0  0  0
    8.2496  -14.4525   19.3657 C   0  0  0  0  0  0  0  0  0  0  0  0
    8.5957  -13.8010   18.0615 C   0  0  0  0  0  0  0  0  0  0  0  0
    7.3541  -13.2316   17.3818 C   0  0  0  0  0  0  0  0  0  0  0  0
    7.7963  -12.5945   16.1544 N   0  0  0  0  0  0  0  0  0  0  0  0
    8.9541  -14.8455   22.5469 C   0  0  0  0  0  0  0  0  0  0  0  0
    8.9930  -13.6174   22.3700 O   0  0  0  0  0  0  0  0  0  0  0  0
    5.4917  -13.0930   26.4806 N   0  0  0  0  0  0  0  0  0  0  0  0
    6.6360  -12.8380   25.6424 C   0  0  0  0  0  0  0  0  0  0  0  0
    7.2189  -11.7537   25.8571 O   0  0  0  0  0  0  0  0  0  0  0  0
    7.0329  -13.8395   24.6189 C   0  0  0  0  0  0  0  0  0  0  0  0
    8.3765  -14.4615   24.9311 C   0  0  2  0  0  0  0  0  0  0  0  0
    8.7948  -15.3186   23.8767 N   0  0  0  0  0  0  0  0  0  0  0  0
    8.2291  -15.1758   26.2347 C   0  0  0  0  0  0  0  0  0  0  0  0
    7.4105  -14.8232   27.0970 O   0  0  0  0  0  0  0  0  0  0  0  0
    7.2473  -20.6792   25.8932 N   0  0  0  0  0  0  0  0  0  0  0  0
    7.0875  -19.4957   26.6572 C   0  0  0  0  0  0  0  0  0  0  0  0
    6.5542  -19.5990   27.7752 O   0  0  0  0  0  0  0  0  0  0  0  0
    7.5599  -18.2154   26.0857 C   0  0  0  0  0  0  0  0  0  0  0  0
    8.7151  -17.6121   26.7963 C   0  0  2  0  0  0  0  0  0  0  0  0
    9.0772  -16.2913   26.4464 N   0  0  0  0  0  0  0  0  0  0  0  0
    9.8569  -18.5610   26.9511 C   0  0  0  0  0  0  0  0  0  0  0  0
    9.6464  -19.6965   27.5193 O   0  0  0  0  0  0  0  0  0  0  0  0
   11.1464  -18.3597   26.5512 O   0  0  0  0  0  0  0  0  0  0  0  0
  2  1  1  6
  3  2  1  0
  4  3  1  0
  4  5  1  0
  6  5  1  0
  7  6  1  0
  8  9  2  0
  8  2  1  0
 10 11  1  0
 11 12  2  0
 11 13  1  0
 14 13  1  6
 14 15  1  0
 15  8  1  0
 16 23  1  0
 16 14  1  0
 17 16  2  0
 19 18  1  0
 20 19  2  0
 21 19  1  0
 22 21  1  6
 22 23  1  0
 24 26  1  0
 24 22  1  0
 25 24  2  0
M  END
$$$$
