KNN.pdb
     RDKit          3D

 26 25  0  0  1  0  0  0  0  0999 V2000
    7.6959  -16.3802   19.1358 N   0  0  0  0  0  0  0  0  0  0  0  0
    8.5450  -15.3163   19.6318 C   0  0  1  0  0  0  0  0  0  0  0  0
    8.2492  -13.9826   19.0259 C   0  0  0  0  0  0  0  0  0  0  0  0
    7.5718  -14.0416   17.6880 C   0  0  0  0  0  0  0  0  0  0  0  0
    8.1540  -13.1216   16.6585 C   0  0  0  0  0  0  0  0  0  0  0  0
    7.2924  -13.0848   15.4001 C   0  0  0  0  0  0  0  0  0  0  0  0
    7.8494  -12.0614   14.5337 N   0  0  0  0  0  0  0  0  0  0  0  0
    8.7364  -15.3240   21.0867 C   0  0  0  0  0  0  0  0  0  0  0  0
    9.5079  -14.4897   21.5862 O   0  0  0  0  0  0  0  0  0  0  0  0
    6.7665  -17.4686   26.4506 N   0  0  0  0  0  0  0  0  0  0  0  0
    7.4177  -16.4800   25.6287 C   0  0  0  0  0  0  0  0  0  0  0  0
    8.2011  -15.7189   26.2360 O   0  0  0  0  0  0  0  0  0  0  0  0
    7.1278  -16.4311   24.1721 C   0  0  0  0  0  0  0  0  0  0  0  0
    8.3903  -16.2811   23.3516 C   0  0  2  0  0  0  0  0  0  0  0  0
    8.0890  -16.2355   21.9629 N   0  0  0  0  0  0  0  0  0  0  0  0
    9.2795  -17.4252   23.7144 C   0  0  0  0  0  0  0  0  0  0  0  0
    9.0534  -18.5866   23.3427 O   0  0  0  0  0  0  0  0  0  0  0  0
   14.1046  -18.4468   22.1775 N   0  0  0  0  0  0  0  0  0  0  0  0
   13.8363  -17.2634   22.9105 C   0  0  0  0  0  0  0  0  0  0  0  0
   14.8076  -16.6295   23.3574 O   0  0  0  0  0  0  0  0  0  0  0  0
   12.4275  -16.8532   23.1010 C   0  0  0  0  0  0  0  0  0  0  0  0
   11.7625  -17.4616   24.2805 C   0  0  2  0  0  0  0  0  0  0  0  0
   10.4103  -17.1216   24.5129 N   0  0  0  0  0  0  0  0  0  0  0  0
   12.6312  -17.4658   25.4943 C   0  0  0  0  0  0  0  0  0  0  0  0
   13.8478  -17.8712   25.3844 O   0  0  0  0  0  0  0  0  0  0  0  0
   12.2756  -17.0809   26.7547 O   0  0  0  0  0  0  0  0  0  0  0  0
  2  1  1  1
  3  2  1  0
  4  3  1  0
  4  5  1  0
  6  5  1  0
  7  6  1  0
  8  9  2  0
  8  2  1  0
 10 11  1  0
 11 12  2  0
 11 13  1  0
 14 13  1  1
 14 15  1  0
 15  8  1  0
 16 23  1  0
 16 14  1  0
 17 16  2  0
 19 18  1  0
 20 19  2  0
 21 19  1  0
 22 21  1  6
 22 23  1  0
 24 26  1  0
 24 22  1  0
 25 24  2  0
M  END
$$$$
