KNN.pdb
     RDKit          3D

 26 25  0  0  1  0  0  0  0  0999 V2000
    7.7831  -15.5671   21.2745 N   0  0  0  0  0  0  0  0  0  0  0  0
    8.2130  -14.1835   21.2687 C   0  0  1  0  0  0  0  0  0  0  0  0
    7.7413  -13.4151   20.0770 C   0  0  0  0  0  0  0  0  0  0  0  0
    7.6528  -14.2179   18.8121 C   0  0  0  0  0  0  0  0  0  0  0  0
    8.3113  -13.5799   17.6269 C   0  0  0  0  0  0  0  0  0  0  0  0
    8.1765  -14.4532   16.3833 C   0  0  0  0  0  0  0  0  0  0  0  0
    8.8368  -13.7511   15.2975 N   0  0  0  0  0  0  0  0  0  0  0  0
    8.0721  -13.5013   22.5603 C   0  0  0  0  0  0  0  0  0  0  0  0
    8.3723  -12.2988   22.6298 O   0  0  0  0  0  0  0  0  0  0  0  0
    6.6700  -11.5988   26.9438 N   0  0  0  0  0  0  0  0  0  0  0  0
    5.7460  -12.6552   26.6163 C   0  0  0  0  0  0  0  0  0  0  0  0
    4.7827  -12.7791   27.4027 O   0  0  0  0  0  0  0  0  0  0  0  0
    5.9880  -13.4946   25.4142 C   0  0  0  0  0  0  0  0  0  0  0  0
    7.4285  -13.4214   24.9571 C   0  0  2  0  0  0  0  0  0  0  0  0
    7.6114  -14.1385   23.7432 N   0  0  0  0  0  0  0  0  0  0  0  0
    8.2639  -13.9529   26.0756 C   0  0  0  0  0  0  0  0  0  0  0  0
    8.1203  -13.5776   27.2489 O   0  0  0  0  0  0  0  0  0  0  0  0
   11.3561  -17.5561   28.2040 N   0  0  0  0  0  0  0  0  0  0  0  0
   10.6242  -16.5355   28.8616 C   0  0  0  0  0  0  0  0  0  0  0  0
   10.7020  -16.4775   30.1008 O   0  0  0  0  0  0  0  0  0  0  0  0
    9.8158  -15.6051   28.0431 C   0  0  0  0  0  0  0  0  0  0  0  0
    9.8891  -15.8479   26.5806 C   0  0  2  0  0  0  0  0  0  0  0  0
    9.2416  -14.9200   25.7332 N   0  0  0  0  0  0  0  0  0  0  0  0
    9.6825  -17.2822   26.2227 C   0  0  0  0  0  0  0  0  0  0  0  0
    8.8176  -17.5764   25.3161 O   0  0  0  0  0  0  0  0  0  0  0  0
   10.3215  -18.3597   26.7650 O   0  0  0  0  0  0  0  0  0  0  0  0
  2  1  1  1
  3  2  1  0
  4  3  1  0
  4  5  1  0
  6  5  1  0
  7  6  1  0
  8  9  2  0
  8  2  1  0
 10 11  1  0
 11 12  2  0
 11 13  1  0
 14 13  1  1
 14 15  1  0
 15  8  1  0
 16 23  1  0
 16 14  1  0
 17 16  2  0
 19 18  1  0
 20 19  2  0
 21 19  1  0
 22 21  1  1
 22 23  1  0
 24 26  1  0
 24 22  1  0
 25 24  2  0
M  END
$$$$
