KNN.pdb
     RDKit          3D

 26 25  0  0  1  0  0  0  0  0999 V2000
    7.7228  -15.5882   18.2002 N   0  0  0  0  0  0  0  0  0  0  0  0
    8.6681  -14.4948   18.2996 C   0  0  1  0  0  0  0  0  0  0  0  0
    8.2162  -13.2483   17.6102 C   0  0  0  0  0  0  0  0  0  0  0  0
    7.5391  -13.4758   16.2903 C   0  0  0  0  0  0  0  0  0  0  0  0
    8.4778  -13.6900   15.1421 C   0  0  0  0  0  0  0  0  0  0  0  0
    7.7168  -13.8596   13.8307 C   0  0  0  0  0  0  0  0  0  0  0  0
    8.7082  -14.0106   12.7808 N   0  0  0  0  0  0  0  0  0  0  0  0
    9.2381  -14.3084   19.6389 C   0  0  0  0  0  0  0  0  0  0  0  0
   10.1142  -13.4426   19.7935 O   0  0  0  0  0  0  0  0  0  0  0  0
    7.2822  -13.5170   22.4776 N   0  0  0  0  0  0  0  0  0  0  0  0
    7.4942  -14.6600   23.3294 C   0  0  0  0  0  0  0  0  0  0  0  0
    6.5995  -14.8614   24.1783 O   0  0  0  0  0  0  0  0  0  0  0  0
    8.7128  -15.4915   23.1510 C   0  0  0  0  0  0  0  0  0  0  0  0
    9.5651  -15.0018   22.0006 C   0  0  2  0  0  0  0  0  0  0  0  0
    8.8464  -15.0648   20.7756 N   0  0  0  0  0  0  0  0  0  0  0  0
   10.8009  -15.8408   21.9912 C   0  0  0  0  0  0  0  0  0  0  0  0
   10.7753  -17.0594   21.7620 O   0  0  0  0  0  0  0  0  0  0  0  0
   13.2230  -14.8398   19.6255 N   0  0  0  0  0  0  0  0  0  0  0  0
   14.3049  -14.3592   20.4055 C   0  0  0  0  0  0  0  0  0  0  0  0
   15.0944  -13.5638   19.8679 O   0  0  0  0  0  0  0  0  0  0  0  0
   14.4324  -14.8275   21.8032 C   0  0  0  0  0  0  0  0  0  0  0  0
   13.3303  -15.7106   22.2603 C   0  0  2  0  0  0  0  0  0  0  0  0
   12.0226  -15.1740   22.2584 N   0  0  0  0  0  0  0  0  0  0  0  0
   13.6889  -16.4984   23.4764 C   0  0  0  0  0  0  0  0  0  0  0  0
   12.9785  -16.3543   24.5399 O   0  0  0  0  0  0  0  0  0  0  0  0
   14.7209  -17.3831   23.6017 O   0  0  0  0  0  0  0  0  0  0  0  0
  2  1  1  1
  3  2  1  0
  4  3  1  0
  4  5  1  0
  6  5  1  0
  7  6  1  0
  8  9  2  0
  8  2  1  0
 10 11  1  0
 11 12  2  0
 11 13  1  0
 14 13  1  1
 14 15  1  0
 15  8  1  0
 16 23  1  0
 16 14  1  0
 17 16  2  0
 19 18  1  0
 20 19  2  0
 21 19  1  0
 22 21  1  1
 22 23  1  0
 24 26  1  0
 24 22  1  0
 25 24  2  0
M  END
$$$$
