KNN.pdb
     RDKit          3D

 26 25  0  0  1  0  0  0  0  0999 V2000
   10.5486  -16.1093   16.2734 N   0  0  0  0  0  0  0  0  0  0  0  0
   11.1232  -17.1284   17.1280 C   0  0  1  0  0  0  0  0  0  0  0  0
   12.1452  -17.9771   16.4436 C   0  0  0  0  0  0  0  0  0  0  0  0
   13.4302  -17.2706   16.1240 C   0  0  0  0  0  0  0  0  0  0  0  0
   14.4198  -18.0999   15.3636 C   0  0  0  0  0  0  0  0  0  0  0  0
   15.6434  -17.2778   14.9707 C   0  0  0  0  0  0  0  0  0  0  0  0
   16.5594  -18.1771   14.2924 N   0  0  0  0  0  0  0  0  0  0  0  0
   11.4845  -16.6584   18.4704 C   0  0  0  0  0  0  0  0  0  0  0  0
   12.2231  -15.6658   18.5707 O   0  0  0  0  0  0  0  0  0  0  0  0
   11.5243  -17.8815   24.3514 N   0  0  0  0  0  0  0  0  0  0  0  0
   11.0097  -16.9404   23.3889 C   0  0  0  0  0  0  0  0  0  0  0  0
   10.9489  -15.7568   23.7852 O   0  0  0  0  0  0  0  0  0  0  0  0
   10.6012  -17.4182   22.0424 C   0  0  0  0  0  0  0  0  0  0  0  0
   11.4558  -16.8164   20.9483 C   0  0  2  0  0  0  0  0  0  0  0  0
   11.0381  -17.2758   19.6693 N   0  0  0  0  0  0  0  0  0  0  0  0
   12.8718  -17.1764   21.2593 C   0  0  0  0  0  0  0  0  0  0  0  0
   13.2933  -18.3404   21.1851 O   0  0  0  0  0  0  0  0  0  0  0  0
   14.8443  -13.6890   20.7989 N   0  0  0  0  0  0  0  0  0  0  0  0
   15.9341  -14.4908   20.3754 C   0  0  0  0  0  0  0  0  0  0  0  0
   16.7054  -14.0128   19.5260 O   0  0  0  0  0  0  0  0  0  0  0  0
   16.0903  -15.8397   20.9629 C   0  0  0  0  0  0  0  0  0  0  0  0
   15.0914  -16.1763   22.0079 C   0  0  2  0  0  0  0  0  0  0  0  0
   13.7259  -16.1143   21.6476 N   0  0  0  0  0  0  0  0  0  0  0  0
   15.4227  -15.5808   23.3360 C   0  0  0  0  0  0  0  0  0  0  0  0
   16.6409  -15.6259   23.7489 O   0  0  0  0  0  0  0  0  0  0  0  0
   14.5555  -14.9755   24.1991 O   0  0  0  0  0  0  0  0  0  0  0  0
  2  1  1  6
  3  2  1  0
  4  3  1  0
  4  5  1  0
  6  5  1  0
  7  6  1  0
  8  9  2  0
  8  2  1  0
 10 11  1  0
 11 12  2  0
 11 13  1  0
 14 13  1  1
 14 15  1  0
 15  8  1  0
 16 23  1  0
 16 14  1  0
 17 16  2  0
 19 18  1  0
 20 19  2  0
 21 19  1  0
 22 21  1  6
 22 23  1  0
 24 26  1  0
 24 22  1  0
 25 24  2  0
M  END
$$$$
