KNN.pdb
     RDKit          3D

 26 25  0  0  1  0  0  0  0  0999 V2000
   12.5682  -16.7580   18.4798 N   0  0  0  0  0  0  0  0  0  0  0  0
   12.4370  -15.3219   18.3403 C   0  0  1  0  0  0  0  0  0  0  0  0
   12.1490  -14.8801   16.9421 C   0  0  0  0  0  0  0  0  0  0  0  0
   10.8222  -15.3320   16.4058 C   0  0  0  0  0  0  0  0  0  0  0  0
    9.8652  -14.2192   16.1041 C   0  0  0  0  0  0  0  0  0  0  0  0
    8.5485  -14.7573   15.5525 C   0  0  0  0  0  0  0  0  0  0  0  0
    7.6986  -13.6103   15.2875 N   0  0  0  0  0  0  0  0  0  0  0  0
   11.6293  -14.6842   19.3865 C   0  0  0  0  0  0  0  0  0  0  0  0
   11.7577  -13.4634   19.5711 O   0  0  0  0  0  0  0  0  0  0  0  0
    8.3536  -13.2945   19.5500 N   0  0  0  0  0  0  0  0  0  0  0  0
    7.7450  -14.3954   20.2533 C   0  0  0  0  0  0  0  0  0  0  0  0
    6.5551  -14.6256   19.9487 O   0  0  0  0  0  0  0  0  0  0  0  0
    8.5387  -15.1548   21.2541 C   0  0  0  0  0  0  0  0  0  0  0  0
    9.9931  -14.7374   21.2534 C   0  0  2  0  0  0  0  0  0  0  0  0
   10.7049  -15.3846   20.2066 N   0  0  0  0  0  0  0  0  0  0  0  0
   10.5351  -15.0587   22.6077 C   0  0  0  0  0  0  0  0  0  0  0  0
    9.8440  -14.9850   23.6349 O   0  0  0  0  0  0  0  0  0  0  0  0
   11.4277  -16.5479   26.1298 N   0  0  0  0  0  0  0  0  0  0  0  0
   11.2069  -17.6516   25.2679 C   0  0  0  0  0  0  0  0  0  0  0  0
   10.5484  -18.6075   25.7126 O   0  0  0  0  0  0  0  0  0  0  0  0
   11.7682  -17.6043   23.8998 C   0  0  0  0  0  0  0  0  0  0  0  0
   12.5017  -16.3547   23.5773 C   0  0  2  0  0  0  0  0  0  0  0  0
   11.8933  -15.4585   22.6691 N   0  0  0  0  0  0  0  0  0  0  0  0
   13.9609  -16.5820   23.3601 C   0  0  0  0  0  0  0  0  0  0  0  0
   14.3866  -16.7722   22.1605 O   0  0  0  0  0  0  0  0  0  0  0  0
   14.9335  -16.6177   24.3172 O   0  0  0  0  0  0  0  0  0  0  0  0
  2  1  1  6
  3  2  1  0
  4  3  1  0
  4  5  1  0
  6  5  1  0
  7  6  1  0
  8  9  2  0
  8  2  1  0
 10 11  1  0
 11 12  2  0
 11 13  1  0
 14 13  1  1
 14 15  1  0
 15  8  1  0
 16 23  1  0
 16 14  1  0
 17 16  2  0
 19 18  1  0
 20 19  2  0
 21 19  1  0
 22 21  1  6
 22 23  1  0
 24 26  1  0
 24 22  1  0
 25 24  2  0
M  END
$$$$
