QDI.pdb
     RDKit          3D

 26 25  0  0  1  0  0  0  0  0999 V2000
   15.5471  -14.6594  -16.8231 N   0  0  0  0  0  0  0  0  0  0  0  0
   15.1687  -14.5116  -15.4509 C   0  0  0  0  0  0  0  0  0  0  0  0
   14.8303  -15.5372  -14.8164 O   0  0  0  0  0  0  0  0  0  0  0  0
   15.1680  -13.2082  -14.7757 C   0  0  0  0  0  0  0  0  0  0  0  0
   15.7283  -12.1090  -15.6018 C   0  0  0  0  0  0  0  0  0  0  0  0
   14.8535  -10.9089  -15.7143 C   0  0  2  0  0  0  0  0  0  0  0  0
   13.9438  -11.1547  -16.8269 N   0  0  0  0  0  0  0  0  0  0  0  0
   15.7054   -9.7257  -16.1315 C   0  0  0  0  0  0  0  0  0  0  0  0
   15.9628   -9.5504  -17.3330 O   0  0  0  0  0  0  0  0  0  0  0  0
   16.2085   -8.8225  -15.1699 N   0  0  0  0  0  0  0  0  0  0  0  0
   17.0451   -7.6855  -15.3314 C   0  0  1  0  0  0  0  0  0  0  0  0
   16.3430   -6.3340  -15.2889 C   0  0  0  0  0  0  0  0  0  0  0  0
   17.3140   -5.2704  -15.5833 C   0  0  0  0  0  0  0  0  0  0  0  0
   17.9047   -5.2351  -16.6790 O   0  0  0  0  0  0  0  0  0  0  0  0
   18.2473   -7.6257  -14.5180 C   0  0  0  0  0  0  0  0  0  0  0  0
   18.1565   -7.7155  -13.2377 O   0  0  0  0  0  0  0  0  0  0  0  0
   17.5338   -4.3158  -14.5801 O   0  0  0  0  0  0  0  0  0  0  0  0
   23.5172  -10.3281  -14.1080 C   0  0  0  0  0  0  0  0  0  0  0  0
   22.7515   -9.0896  -13.7542 C   0  0  0  0  0  0  0  0  0  0  0  0
   21.5403   -8.8523  -14.5983 C   0  0  2  0  0  0  0  0  0  0  0  0
   21.9003   -8.7634  -16.0441 C   0  0  0  0  0  0  0  0  0  0  0  0
   20.7435   -7.6346  -14.1781 C   0  0  2  0  0  0  0  0  0  0  0  0
   19.5666   -7.4724  -15.0182 N   0  0  0  0  0  0  0  0  0  0  0  0
   21.6368   -6.4632  -14.3380 C   0  0  0  0  0  0  0  0  0  0  0  0
   22.5852   -6.0744  -13.4047 O   0  0  0  0  0  0  0  0  0  0  0  0
   21.5345   -5.7744  -15.3817 O   0  0  0  0  0  0  0  0  0  0  0  0
  2  1  1  0
  3  2  2  0
  4  2  1  0
  5  4  1  0
  6  5  1  0
  6  8  1  0
  6  7  1  6
  8  9  2  0
 10  8  1  0
 10 11  1  0
 11 15  1  0
 11 12  1  1
 13 12  1  0
 14 13  2  0
 15 16  2  0
 17 13  1  0
 19 18  1  0
 19 20  1  0
 20 22  1  0
 20 21  1  6
 22 24  1  0
 22 23  1  6
 23 15  1  0
 24 26  2  0
 24 25  1  0
M  END
$$$$
