QDI.pdb
     RDKit          3D

 26 25  0  0  1  0  0  0  0  0999 V2000
   18.9307  -15.5701  -16.5360 N   0  0  0  0  0  0  0  0  0  0  0  0
   17.7124  -15.2076  -17.1937 C   0  0  0  0  0  0  0  0  0  0  0  0
   17.1276  -16.0785  -17.8784 O   0  0  0  0  0  0  0  0  0  0  0  0
   17.1369  -13.8614  -17.0879 C   0  0  0  0  0  0  0  0  0  0  0  0
   17.9465  -12.9306  -16.2617 C   0  0  0  0  0  0  0  0  0  0  0  0
   17.3488  -11.5782  -16.0838 C   0  0  2  0  0  0  0  0  0  0  0  0
   16.6580  -11.2571  -17.3271 N   0  0  0  0  0  0  0  0  0  0  0  0
   18.4706  -10.5650  -15.9616 C   0  0  0  0  0  0  0  0  0  0  0  0
   19.5514  -10.9067  -15.4561 O   0  0  0  0  0  0  0  0  0  0  0  0
   18.2996   -9.2390  -16.4157 N   0  0  0  0  0  0  0  0  0  0  0  0
   19.1744   -8.1226  -16.3317 C   0  0  1  0  0  0  0  0  0  0  0  0
   18.7617   -6.8950  -17.1342 C   0  0  0  0  0  0  0  0  0  0  0  0
   18.4975   -7.2881  -18.5258 C   0  0  0  0  0  0  0  0  0  0  0  0
   19.3312   -7.9555  -19.1666 O   0  0  0  0  0  0  0  0  0  0  0  0
   19.5945   -7.7075  -15.0045 C   0  0  0  0  0  0  0  0  0  0  0  0
   18.7125   -7.5117  -14.0883 O   0  0  0  0  0  0  0  0  0  0  0  0
   17.2773   -6.8773  -19.0810 O   0  0  0  0  0  0  0  0  0  0  0  0
   22.8263   -9.3390  -10.4100 C   0  0  0  0  0  0  0  0  0  0  0  0
   22.2857   -8.1365  -11.1220 C   0  0  0  0  0  0  0  0  0  0  0  0
   21.9449   -8.3730  -12.5585 C   0  0  2  0  0  0  0  0  0  0  0  0
   23.1427   -8.8176  -13.3303 C   0  0  0  0  0  0  0  0  0  0  0  0
   21.3008   -7.1770  -13.2287 C   0  0  2  0  0  0  0  0  0  0  0  0
   20.9379   -7.4884  -14.6030 N   0  0  0  0  0  0  0  0  0  0  0  0
   22.3034   -6.0860  -13.2115 C   0  0  0  0  0  0  0  0  0  0  0  0
   22.5917   -5.3112  -12.0987 O   0  0  0  0  0  0  0  0  0  0  0  0
   22.9359   -5.8419  -14.2673 O   0  0  0  0  0  0  0  0  0  0  0  0
  2  1  1  0
  3  2  2  0
  4  2  1  0
  5  4  1  0
  6  5  1  0
  6  8  1  0
  6  7  1  6
  8  9  2  0
 10  8  1  0
 10 11  1  0
 11 15  1  0
 11 12  1  1
 13 12  1  0
 14 13  2  0
 15 16  2  0
 17 13  1  0
 19 18  1  0
 19 20  1  0
 20 22  1  0
 20 21  1  6
 22 24  1  0
 22 23  1  6
 23 15  1  0
 24 26  2  0
 24 25  1  0
M  END
$$$$
