QDI.pdb
     RDKit          3D

 26 25  0  0  1  0  0  0  0  0999 V2000
   13.3999  -14.4493  -13.6263 N   0  0  0  0  0  0  0  0  0  0  0  0
   13.0104  -13.8403  -14.8615 C   0  0  0  0  0  0  0  0  0  0  0  0
   12.2807  -14.4958  -15.6404 O   0  0  0  0  0  0  0  0  0  0  0  0
   13.4363  -12.4858  -15.2341 C   0  0  0  0  0  0  0  0  0  0  0  0
   14.1416  -11.7625  -14.1461 C   0  0  0  0  0  0  0  0  0  0  0  0
   15.5268  -11.3316  -14.4833 C   0  0  2  0  0  0  0  0  0  0  0  0
   16.3424  -12.5392  -14.5326 N   0  0  0  0  0  0  0  0  0  0  0  0
   16.0732  -10.5115  -13.3306 C   0  0  0  0  0  0  0  0  0  0  0  0
   16.1544  -11.0208  -12.2017 O   0  0  0  0  0  0  0  0  0  0  0  0
   16.4900   -9.1768  -13.5268 N   0  0  0  0  0  0  0  0  0  0  0  0
   17.0862   -8.2610  -12.6188 C   0  0  1  0  0  0  0  0  0  0  0  0
   18.1264   -7.3198  -13.2133 C   0  0  0  0  0  0  0  0  0  0  0  0
   19.2478   -8.1064  -13.7468 C   0  0  0  0  0  0  0  0  0  0  0  0
   19.6401   -9.1323  -13.1597 O   0  0  0  0  0  0  0  0  0  0  0  0
   16.1936   -7.5049  -11.7575 C   0  0  0  0  0  0  0  0  0  0  0  0
   15.3538   -6.6796  -12.2764 O   0  0  0  0  0  0  0  0  0  0  0  0
   19.8399   -7.6457  -14.9312 O   0  0  0  0  0  0  0  0  0  0  0  0
   12.6492   -9.1452   -8.4043 C   0  0  0  0  0  0  0  0  0  0  0  0
   13.4697   -8.2725   -9.3045 C   0  0  0  0  0  0  0  0  0  0  0  0
   14.4594   -7.4088   -8.5901 C   0  0  2  0  0  0  0  0  0  0  0  0
   13.7754   -6.4552   -7.6677 C   0  0  0  0  0  0  0  0  0  0  0  0
   15.3905   -6.6626   -9.5232 C   0  0  2  0  0  0  0  0  0  0  0  0
   16.1551   -7.5915  -10.3415 N   0  0  0  0  0  0  0  0  0  0  0  0
   16.3104   -5.8748   -8.6693 C   0  0  0  0  0  0  0  0  0  0  0  0
   17.5737   -6.2993   -8.2879 O   0  0  0  0  0  0  0  0  0  0  0  0
   15.9289   -4.7513   -8.2616 O   0  0  0  0  0  0  0  0  0  0  0  0
  2  1  1  0
  3  2  2  0
  4  2  1  0
  5  4  1  0
  6  5  1  0
  6  8  1  0
  6  7  1  1
  8  9  2  0
 10  8  1  0
 10 11  1  0
 11 15  1  0
 11 12  1  6
 13 12  1  0
 14 13  2  0
 15 16  2  0
 17 13  1  0
 19 18  1  0
 19 20  1  0
 20 22  1  0
 20 21  1  6
 22 24  1  0
 22 23  1  1
 23 15  1  0
 24 26  2  0
 24 25  1  0
M  END
$$$$
