QDI.pdb
     RDKit          3D

 26 25  0  0  1  0  0  0  0  0999 V2000
   21.5297  -11.2262  -16.0764 N   0  0  0  0  0  0  0  0  0  0  0  0
   21.2600  -11.6763  -17.4079 C   0  0  0  0  0  0  0  0  0  0  0  0
   22.0576  -12.4882  -17.9311 O   0  0  0  0  0  0  0  0  0  0  0  0
   20.0890  -11.2193  -18.1660 C   0  0  0  0  0  0  0  0  0  0  0  0
   19.1957  -10.3173  -17.3960 C   0  0  0  0  0  0  0  0  0  0  0  0
   18.2190  -11.0151  -16.5144 C   0  0  2  0  0  0  0  0  0  0  0  0
   17.1222  -11.4556  -17.3681 N   0  0  0  0  0  0  0  0  0  0  0  0
   17.6176  -10.0016  -15.5600 C   0  0  0  0  0  0  0  0  0  0  0  0
   17.7195   -8.7901  -15.8101 O   0  0  0  0  0  0  0  0  0  0  0  0
   16.9440  -10.4198  -14.3918 N   0  0  0  0  0  0  0  0  0  0  0  0
   16.3293   -9.6534  -13.3654 C   0  0  1  0  0  0  0  0  0  0  0  0
   15.0919  -10.2718  -12.7267 C   0  0  0  0  0  0  0  0  0  0  0  0
   14.1012  -10.5699  -13.7710 C   0  0  0  0  0  0  0  0  0  0  0  0
   13.4019   -9.6631  -14.2605 O   0  0  0  0  0  0  0  0  0  0  0  0
   17.1932   -9.1269  -12.3229 C   0  0  0  0  0  0  0  0  0  0  0  0
   17.8822   -9.9352  -11.5967 O   0  0  0  0  0  0  0  0  0  0  0  0
   13.9897  -11.9072  -14.1773 O   0  0  0  0  0  0  0  0  0  0  0  0
   21.8857   -5.7708  -11.5885 C   0  0  0  0  0  0  0  0  0  0  0  0
   20.6572   -6.2657  -10.8876 C   0  0  0  0  0  0  0  0  0  0  0  0
   19.5771   -6.7457  -11.8034 C   0  0  2  0  0  0  0  0  0  0  0  0
   19.1768   -5.6803  -12.7692 C   0  0  0  0  0  0  0  0  0  0  0  0
   18.3616   -7.2778  -11.0729 C   0  0  2  0  0  0  0  0  0  0  0  0
   17.3590   -7.7514  -12.0151 N   0  0  0  0  0  0  0  0  0  0  0  0
   17.8115   -6.1522  -10.2816 C   0  0  0  0  0  0  0  0  0  0  0  0
   18.1803   -5.8645   -8.9767 O   0  0  0  0  0  0  0  0  0  0  0  0
   16.9572   -5.4074  -10.8200 O   0  0  0  0  0  0  0  0  0  0  0  0
  2  1  1  0
  3  2  2  0
  4  2  1  0
  5  4  1  0
  6  5  1  0
  6  8  1  0
  6  7  1  6
  8  9  2  0
 10  8  1  0
 10 11  1  0
 11 15  1  0
 11 12  1  1
 13 12  1  0
 14 13  2  0
 15 16  2  0
 17 13  1  0
 19 18  1  0
 19 20  1  0
 20 22  1  0
 20 21  1  6
 22 24  1  0
 22 23  1  6
 23 15  1  0
 24 26  2  0
 24 25  1  0
M  END
$$$$
