QDI.pdb
     RDKit          3D

 26 25  0  0  1  0  0  0  0  0999 V2000
   17.5801  -13.2145  -14.9259 N   0  0  0  0  0  0  0  0  0  0  0  0
   17.3566  -13.8694  -16.1786 C   0  0  0  0  0  0  0  0  0  0  0  0
   16.5059  -14.7877  -16.2229 O   0  0  0  0  0  0  0  0  0  0  0  0
   18.0866  -13.4978  -17.3967 C   0  0  0  0  0  0  0  0  0  0  0  0
   19.0426  -12.3788  -17.2005 C   0  0  0  0  0  0  0  0  0  0  0  0
   18.4886  -11.0292  -17.4997 C   0  0  2  0  0  0  0  0  0  0  0  0
   18.3905  -10.9273  -18.9509 N   0  0  0  0  0  0  0  0  0  0  0  0
   19.5048   -9.9845  -17.0806 C   0  0  0  0  0  0  0  0  0  0  0  0
   20.1471  -10.1424  -16.0303 O   0  0  0  0  0  0  0  0  0  0  0  0
   19.7282   -8.8357  -17.8704 N   0  0  0  0  0  0  0  0  0  0  0  0
   20.6457   -7.7657  -17.6912 C   0  0  1  0  0  0  0  0  0  0  0  0
   20.7592   -6.7877  -18.8540 C   0  0  0  0  0  0  0  0  0  0  0  0
   21.3328   -7.4783  -20.0180 C   0  0  0  0  0  0  0  0  0  0  0  0
   22.1738   -8.3846  -19.8681 O   0  0  0  0  0  0  0  0  0  0  0  0
   20.5617   -7.0213  -16.4466 C   0  0  0  0  0  0  0  0  0  0  0  0
   19.4241   -6.5712  -16.0480 O   0  0  0  0  0  0  0  0  0  0  0  0
   20.8887   -7.0672  -21.2827 O   0  0  0  0  0  0  0  0  0  0  0  0
   22.2702   -9.3985  -12.3683 C   0  0  0  0  0  0  0  0  0  0  0  0
   21.6114   -8.4602  -13.3331 C   0  0  0  0  0  0  0  0  0  0  0  0
   22.0416   -7.0347  -13.1968 C   0  0  2  0  0  0  0  0  0  0  0  0
   21.7045   -6.4971  -11.8457 C   0  0  0  0  0  0  0  0  0  0  0  0
   21.4829   -6.1318  -14.2770 C   0  0  2  0  0  0  0  0  0  0  0  0
   21.6566   -6.7308  -15.5917 N   0  0  0  0  0  0  0  0  0  0  0  0
   22.2386   -4.8593  -14.2038 C   0  0  0  0  0  0  0  0  0  0  0  0
   21.9312   -3.8200  -13.3395 O   0  0  0  0  0  0  0  0  0  0  0  0
   23.2205   -4.7050  -14.9695 O   0  0  0  0  0  0  0  0  0  0  0  0
  2  1  1  0
  3  2  2  0
  4  2  1  0
  5  4  1  0
  6  5  1  0
  6  8  1  0
  6  7  1  6
  8  9  2  0
 10  8  1  0
 10 11  1  0
 11 15  1  0
 11 12  1  6
 13 12  1  0
 14 13  2  0
 15 16  2  0
 17 13  1  0
 19 18  1  0
 19 20  1  0
 20 22  1  0
 20 21  1  1
 22 24  1  0
 22 23  1  6
 23 15  1  0
 24 26  2  0
 24 25  1  0
M  END
$$$$
