QDI.pdb
     RDKit          3D

 26 25  0  0  1  0  0  0  0  0999 V2000
   18.4870  -16.3087  -15.6169 N   0  0  0  0  0  0  0  0  0  0  0  0
   17.2157  -16.5167  -16.2404 C   0  0  0  0  0  0  0  0  0  0  0  0
   16.6200  -17.5970  -16.0238 O   0  0  0  0  0  0  0  0  0  0  0  0
   16.5990  -15.5110  -17.1139 C   0  0  0  0  0  0  0  0  0  0  0  0
   17.4442  -14.3093  -17.3282 C   0  0  0  0  0  0  0  0  0  0  0  0
   17.0683  -13.1300  -16.4999 C   0  0  2  0  0  0  0  0  0  0  0  0
   15.7623  -12.6846  -16.9710 N   0  0  0  0  0  0  0  0  0  0  0  0
   18.0268  -11.9960  -16.8082 C   0  0  0  0  0  0  0  0  0  0  0  0
   19.2412  -12.1480  -16.6014 O   0  0  0  0  0  0  0  0  0  0  0  0
   17.5542  -10.7709  -17.3271 N   0  0  0  0  0  0  0  0  0  0  0  0
   18.2569   -9.5751  -17.6348 C   0  0  1  0  0  0  0  0  0  0  0  0
   17.5221   -8.5860  -18.5311 C   0  0  0  0  0  0  0  0  0  0  0  0
   18.4195   -7.4707  -18.8652 C   0  0  0  0  0  0  0  0  0  0  0  0
   18.5445   -6.5024  -18.0920 O   0  0  0  0  0  0  0  0  0  0  0  0
   18.8623   -8.8575  -16.5263 C   0  0  0  0  0  0  0  0  0  0  0  0
   18.1698   -8.6141  -15.4696 O   0  0  0  0  0  0  0  0  0  0  0  0
   19.1137   -7.5562  -20.0804 O   0  0  0  0  0  0  0  0  0  0  0  0
   23.2408  -10.7999  -14.5305 C   0  0  0  0  0  0  0  0  0  0  0  0
   21.9629  -10.0711  -14.8155 C   0  0  0  0  0  0  0  0  0  0  0  0
   22.1238   -8.5964  -15.0027 C   0  0  2  0  0  0  0  0  0  0  0  0
   22.8216   -7.9782  -13.8370 C   0  0  0  0  0  0  0  0  0  0  0  0
   20.8181   -7.8788  -15.2758 C   0  0  2  0  0  0  0  0  0  0  0  0
   20.1982   -8.3797  -16.4933 N   0  0  0  0  0  0  0  0  0  0  0  0
   21.1451   -6.4424  -15.4361 C   0  0  0  0  0  0  0  0  0  0  0  0
   21.4070   -5.5814  -14.3816 O   0  0  0  0  0  0  0  0  0  0  0  0
   21.1897   -5.9677  -16.5966 O   0  0  0  0  0  0  0  0  0  0  0  0
  2  1  1  0
  3  2  2  0
  4  2  1  0
  5  4  1  0
  6  5  1  0
  6  8  1  0
  6  7  1  6
  8  9  2  0
 10  8  1  0
 10 11  1  0
 11 15  1  0
 11 12  1  1
 13 12  1  0
 14 13  2  0
 15 16  2  0
 17 13  1  0
 19 18  1  0
 19 20  1  0
 20 22  1  0
 20 21  1  1
 22 24  1  0
 22 23  1  6
 23 15  1  0
 24 26  2  0
 24 25  1  0
M  END
$$$$
