QDI.pdb
     RDKit          3D

 26 25  0  0  1  0  0  0  0  0999 V2000
   17.5164  -16.0330  -19.3249 N   0  0  0  0  0  0  0  0  0  0  0  0
   17.6298  -15.4391  -18.0278 C   0  0  0  0  0  0  0  0  0  0  0  0
   16.8124  -15.7862  -17.1443 O   0  0  0  0  0  0  0  0  0  0  0  0
   18.6651  -14.4485  -17.7088 C   0  0  0  0  0  0  0  0  0  0  0  0
   19.4365  -13.9909  -18.8920 C   0  0  0  0  0  0  0  0  0  0  0  0
   18.7337  -12.9904  -19.7424 C   0  0  2  0  0  0  0  0  0  0  0  0
   19.1636  -13.2294  -21.1150 N   0  0  0  0  0  0  0  0  0  0  0  0
   19.2435  -11.6075  -19.3853 C   0  0  0  0  0  0  0  0  0  0  0  0
   20.3785  -11.2609  -19.7489 O   0  0  0  0  0  0  0  0  0  0  0  0
   18.4426  -10.7109  -18.6448 N   0  0  0  0  0  0  0  0  0  0  0  0
   18.7090   -9.3811  -18.2212 C   0  0  1  0  0  0  0  0  0  0  0  0
   17.5980   -8.3695  -18.4738 C   0  0  0  0  0  0  0  0  0  0  0  0
   18.0679   -7.0266  -18.1041 C   0  0  0  0  0  0  0  0  0  0  0  0
   19.0182   -6.4970  -18.7102 O   0  0  0  0  0  0  0  0  0  0  0  0
   19.2195   -9.2042  -16.8728 C   0  0  0  0  0  0  0  0  0  0  0  0
   18.5725   -9.6973  -15.8759 O   0  0  0  0  0  0  0  0  0  0  0  0
   17.3989   -6.3873  -17.0507 O   0  0  0  0  0  0  0  0  0  0  0  0
   23.8487  -10.6101  -13.6466 C   0  0  0  0  0  0  0  0  0  0  0  0
   22.7621   -9.5849  -13.7624 C   0  0  0  0  0  0  0  0  0  0  0  0
   22.1785   -9.4583  -15.1332 C   0  0  2  0  0  0  0  0  0  0  0  0
   23.2107   -9.0245  -16.1203 C   0  0  0  0  0  0  0  0  0  0  0  0
   20.9750   -8.5403  -15.1922 C   0  0  2  0  0  0  0  0  0  0  0  0
   20.4116   -8.5129  -16.5335 N   0  0  0  0  0  0  0  0  0  0  0  0
   21.4512   -7.1867  -14.8224 C   0  0  0  0  0  0  0  0  0  0  0  0
   21.6686   -6.1628  -15.7313 O   0  0  0  0  0  0  0  0  0  0  0  0
   21.6741   -6.9440  -13.6118 O   0  0  0  0  0  0  0  0  0  0  0  0
  2  1  1  0
  3  2  2  0
  4  2  1  0
  5  4  1  0
  6  5  1  0
  6  8  1  0
  6  7  1  6
  8  9  2  0
 10  8  1  0
 10 11  1  0
 11 15  1  0
 11 12  1  1
 13 12  1  0
 14 13  2  0
 15 16  2  0
 17 13  1  0
 19 18  1  0
 19 20  1  0
 20 22  1  0
 20 21  1  6
 22 24  1  0
 22 23  1  6
 23 15  1  0
 24 26  2  0
 24 25  1  0
M  END
$$$$
