QDI.pdb
     RDKit          3D

 26 25  0  0  1  0  0  0  0  0999 V2000
   29.6319  -19.2846  -17.9261 N   0  0  0  0  0  0  0  0  0  0  0  0
   28.9080  -18.1654  -17.4050 C   0  0  0  0  0  0  0  0  0  0  0  0
   29.2408  -17.0180  -17.7814 O   0  0  0  0  0  0  0  0  0  0  0  0
   27.8001  -18.3241  -16.4553 C   0  0  0  0  0  0  0  0  0  0  0  0
   27.5573  -19.7325  -16.0528 C   0  0  0  0  0  0  0  0  0  0  0  0
   28.1152  -20.1031  -14.7227 C   0  0  2  0  0  0  0  0  0  0  0  0
   27.9228  -21.5406  -14.5719 N   0  0  0  0  0  0  0  0  0  0  0  0
   27.2663  -19.4579  -13.6444 C   0  0  0  0  0  0  0  0  0  0  0  0
   26.7370  -18.3561  -13.8597 O   0  0  0  0  0  0  0  0  0  0  0  0
   27.0714  -20.0956  -12.3998 N   0  0  0  0  0  0  0  0  0  0  0  0
   25.9161  -20.1606  -11.5754 C   0  0  1  0  0  0  0  0  0  0  0  0
   24.6576  -20.7058  -12.2391 C   0  0  0  0  0  0  0  0  0  0  0  0
   23.5044  -20.4832  -11.3551 C   0  0  0  0  0  0  0  0  0  0  0  0
   23.6380  -19.8716  -10.2785 O   0  0  0  0  0  0  0  0  0  0  0  0
   26.0689  -20.7708  -10.2660 C   0  0  0  0  0  0  0  0  0  0  0  0
   26.2844  -22.0359  -10.1730 O   0  0  0  0  0  0  0  0  0  0  0  0
   22.2688  -20.9888  -11.7836 O   0  0  0  0  0  0  0  0  0  0  0  0
   29.0367  -18.4502   -6.4086 C   0  0  0  0  0  0  0  0  0  0  0  0
   28.3171  -19.4178   -7.2981 C   0  0  0  0  0  0  0  0  0  0  0  0
   26.9696  -19.8295   -6.7975 C   0  0  2  0  0  0  0  0  0  0  0  0
   27.0658  -20.4592   -5.4476 C   0  0  0  0  0  0  0  0  0  0  0  0
   26.2260  -20.7408   -7.7518 C   0  0  2  0  0  0  0  0  0  0  0  0
   26.0019  -20.0795   -9.0284 N   0  0  0  0  0  0  0  0  0  0  0  0
   24.9247  -21.0549   -7.1164 C   0  0  0  0  0  0  0  0  0  0  0  0
   24.7462  -22.0323   -6.1497 O   0  0  0  0  0  0  0  0  0  0  0  0
   23.9155  -20.3989   -7.4705 O   0  0  0  0  0  0  0  0  0  0  0  0
  2  1  1  0
  3  2  2  0
  4  2  1  0
  5  4  1  0
  6  5  1  0
  6  8  1  0
  6  7  1  1
  8  9  2  0
 10  8  1  0
 10 11  1  0
 11 15  1  0
 11 12  1  6
 13 12  1  0
 14 13  2  0
 15 16  2  0
 17 13  1  0
 19 18  1  0
 19 20  1  0
 20 22  1  0
 20 21  1  1
 22 24  1  0
 22 23  1  6
 23 15  1  0
 24 26  2  0
 24 25  1  0
M  END
$$$$
