NMH.pdb
     RDKit          3D

 27 27  0  0  1  0  0  0  0  0999 V2000
    9.3155  -19.3826   19.2833 N   0  0  0  0  0  0  0  0  0  0  0  0
    8.4011  -18.5708   20.0000 C   0  0  0  0  0  0  0  0  0  0  0  0
    7.2507  -18.3611   19.5314 O   0  0  0  0  0  0  0  0  0  0  0  0
    8.7369  -17.9415   21.3025 C   0  0  0  0  0  0  0  0  0  0  0  0
    8.5939  -16.4567   21.2519 C   0  0  2  0  0  0  0  0  0  0  0  0
    9.3220  -15.9168   20.1407 N   0  0  0  0  0  0  0  0  0  0  0  0
    8.9161  -15.7951   22.5314 C   0  0  0  0  0  0  0  0  0  0  0  0
   10.0619  -15.2714   22.7372 O   0  0  0  0  0  0  0  0  0  0  0  0
    6.9657  -10.5940   26.5033 C   0  0  0  0  0  0  0  0  0  0  0  0
    5.9888  -12.0684   26.1855 S   0  0  0  0  0  0  0  0  0  0  0  0
    6.7862  -13.1193   24.9118 C   0  0  0  0  0  0  0  0  0  0  0  0
    7.1088  -14.4579   25.5102 C   0  0  0  0  0  0  0  0  0  0  0  0
    8.3257  -15.0374   24.8833 C   0  0  2  0  0  0  0  0  0  0  0  0
    8.0014  -15.6910   23.6076 N   0  0  0  0  0  0  0  0  0  0  0  0
    9.0837  -15.9946   25.7418 C   0  0  0  0  0  0  0  0  0  0  0  0
    9.5325  -15.7210   26.8752 O   0  0  0  0  0  0  0  0  0  0  0  0
    9.3394  -17.3307   25.2778 N   0  0  0  0  0  0  0  0  0  0  0  0
   10.1161  -18.2391   26.1308 C   0  0  1  0  0  0  0  0  0  0  0  0
    9.5984  -19.6332   26.0344 C   0  0  0  0  0  0  0  0  0  0  0  0
    8.3503  -19.7781   26.8083 C   0  0  0  0  0  0  0  0  0  0  0  0
    7.9293  -19.0822   27.9175 C   0  0  0  0  0  0  0  0  0  0  0  0
    6.7336  -19.5351   28.3539 N   0  0  0  0  0  0  0  0  0  0  0  0
    6.4003  -20.5259   27.5107 C   0  0  0  0  0  0  0  0  0  0  0  0
    7.3453  -20.6834   26.5901 N   0  0  0  0  0  0  0  0  0  0  0  0
   11.5255  -18.1856   25.7062 C   0  0  0  0  0  0  0  0  0  0  0  0
   12.4799  -18.7572   26.3119 O   0  0  0  0  0  0  0  0  0  0  0  0
   11.8298  -17.4468   24.5458 O   0  0  0  0  0  0  0  0  0  0  0  0
  2  1  1  0
  3  2  2  0
  4  2  1  0
  5  4  1  0
  5  6  1  6
  7  5  1  0
  7  8  2  0
  9 10  1  0
 10 11  1  0
 12 11  1  0
 13 12  1  1
 13 14  1  0
 14  7  1  0
 15 13  1  0
 16 15  2  0
 17 15  1  0
 18 17  1  0
 18 25  1  0
 19 20  1  0
 18 19  1  6
 20 21  2  0
 20 24  1  0
 21 22  1  0
 22 23  1  0
 24 23  2  0
 25 27  1  0
 26 25  2  0
M  END
$$$$
