NMH.pdb
     RDKit          3D

 27 27  0  0  1  0  0  0  0  0999 V2000
   13.2131  -16.4169   14.7116 N   0  0  0  0  0  0  0  0  0  0  0  0
   12.0207  -15.6571   14.8099 C   0  0  0  0  0  0  0  0  0  0  0  0
   11.2695  -15.5396   13.8054 O   0  0  0  0  0  0  0  0  0  0  0  0
   11.6028  -14.9782   16.0627 C   0  0  0  0  0  0  0  0  0  0  0  0
   11.8796  -15.8180   17.2650 C   0  0  2  0  0  0  0  0  0  0  0  0
   11.2123  -17.0831   17.1619 N   0  0  0  0  0  0  0  0  0  0  0  0
   11.6079  -15.1224   18.5383 C   0  0  0  0  0  0  0  0  0  0  0  0
   12.2583  -14.0769   18.8747 O   0  0  0  0  0  0  0  0  0  0  0  0
    6.8331  -11.6129   18.9809 C   0  0  0  0  0  0  0  0  0  0  0  0
    7.8715  -12.3861   20.2272 S   0  0  0  0  0  0  0  0  0  0  0  0
    8.1415  -14.1592   19.8452 C   0  0  0  0  0  0  0  0  0  0  0  0
    8.8755  -14.8018   20.9864 C   0  0  0  0  0  0  0  0  0  0  0  0
   10.3375  -14.8392   20.7200 C   0  0  2  0  0  0  0  0  0  0  0  0
   10.6271  -15.5494   19.4663 N   0  0  0  0  0  0  0  0  0  0  0  0
   11.1642  -15.4272   21.8148 C   0  0  0  0  0  0  0  0  0  0  0  0
   11.0711  -15.1052   23.0183 O   0  0  0  0  0  0  0  0  0  0  0  0
   12.1455  -16.4336   21.5146 N   0  0  0  0  0  0  0  0  0  0  0  0
   12.8801  -17.0579   22.6222 C   0  0  1  0  0  0  0  0  0  0  0  0
   12.7326  -18.5404   22.5905 C   0  0  0  0  0  0  0  0  0  0  0  0
   11.3104  -18.9228   22.6837 C   0  0  0  0  0  0  0  0  0  0  0  0
   10.3569  -18.5122   23.5860 C   0  0  0  0  0  0  0  0  0  0  0  0
    9.1716  -19.1176   23.3541 N   0  0  0  0  0  0  0  0  0  0  0  0
    9.3826  -19.9169   22.2957 C   0  0  0  0  0  0  0  0  0  0  0  0
   10.6425  -19.8144   21.8861 N   0  0  0  0  0  0  0  0  0  0  0  0
   14.2997  -16.6817   22.5101 C   0  0  0  0  0  0  0  0  0  0  0  0
   15.2090  -17.0661   23.3037 O   0  0  0  0  0  0  0  0  0  0  0  0
   14.6685  -15.8359   21.4454 O   0  0  0  0  0  0  0  0  0  0  0  0
  2  1  1  0
  3  2  2  0
  4  2  1  0
  5  4  1  0
  5  6  1  6
  7  5  1  0
  7  8  2  0
  9 10  1  0
 10 11  1  0
 12 11  1  0
 13 12  1  1
 13 14  1  0
 14  7  1  0
 15 13  1  0
 16 15  2  0
 17 15  1  0
 18 17  1  0
 18 25  1  0
 19 20  1  0
 18 19  1  6
 20 21  2  0
 20 24  1  0
 21 22  1  0
 22 23  1  0
 24 23  2  0
 25 27  1  0
 26 25  2  0
M  END
$$$$
