NMH.pdb
     RDKit          3D

 27 27  0  0  1  0  0  0  0  0999 V2000
   11.4479  -17.0963   17.2224 N   0  0  0  0  0  0  0  0  0  0  0  0
   10.2131  -17.0515   17.9167 C   0  0  0  0  0  0  0  0  0  0  0  0
    9.2664  -17.8011   17.5578 O   0  0  0  0  0  0  0  0  0  0  0  0
    9.9732  -16.1470   19.0698 C   0  0  0  0  0  0  0  0  0  0  0  0
    9.9300  -16.8962   20.3599 C   0  0  2  0  0  0  0  0  0  0  0  0
    8.8343  -17.8212   20.3703 N   0  0  0  0  0  0  0  0  0  0  0  0
    9.9575  -16.0181   21.5462 C   0  0  0  0  0  0  0  0  0  0  0  0
   10.9295  -15.2179   21.7566 O   0  0  0  0  0  0  0  0  0  0  0  0
    6.0534  -11.6851   26.7680 C   0  0  0  0  0  0  0  0  0  0  0  0
    6.0310  -12.8445   25.3952 S   0  0  0  0  0  0  0  0  0  0  0  0
    7.6875  -13.5890   25.1408 C   0  0  0  0  0  0  0  0  0  0  0  0
    7.6360  -14.5097   23.9560 C   0  0  0  0  0  0  0  0  0  0  0  0
    8.9656  -15.1267   23.7085 C   0  0  2  0  0  0  0  0  0  0  0  0
    8.9319  -15.9940   22.5224 N   0  0  0  0  0  0  0  0  0  0  0  0
    9.5291  -15.8950   24.8574 C   0  0  0  0  0  0  0  0  0  0  0  0
    9.3936  -17.1268   25.0152 O   0  0  0  0  0  0  0  0  0  0  0  0
   10.2848  -15.2172   25.8750 N   0  0  0  0  0  0  0  0  0  0  0  0
   10.7615  -15.9857   27.0318 C   0  0  1  0  0  0  0  0  0  0  0  0
   11.3138  -15.0823   28.0804 C   0  0  0  0  0  0  0  0  0  0  0  0
   11.5986  -15.8355   29.3170 C   0  0  0  0  0  0  0  0  0  0  0  0
   12.1744  -17.0756   29.4666 C   0  0  0  0  0  0  0  0  0  0  0  0
   12.2346  -17.4328   30.7682 N   0  0  0  0  0  0  0  0  0  0  0  0
   11.6908  -16.4070   31.4431 C   0  0  0  0  0  0  0  0  0  0  0  0
   11.3089  -15.4531   30.6004 N   0  0  0  0  0  0  0  0  0  0  0  0
    9.6337  -16.7656   27.5696 C   0  0  0  0  0  0  0  0  0  0  0  0
    8.4341  -16.3608   27.6070 O   0  0  0  0  0  0  0  0  0  0  0  0
    9.9117  -18.0504   28.0766 O   0  0  0  0  0  0  0  0  0  0  0  0
  2  1  1  0
  3  2  2  0
  4  2  1  0
  5  4  1  0
  5  6  1  6
  7  5  1  0
  7  8  2  0
  9 10  1  0
 10 11  1  0
 12 11  1  0
 13 12  1  1
 13 14  1  0
 14  7  1  0
 15 13  1  0
 16 15  2  0
 17 15  1  0
 18 17  1  0
 18 25  1  0
 19 20  1  0
 18 19  1  1
 20 21  2  0
 20 24  1  0
 21 22  1  0
 22 23  1  0
 24 23  2  0
 25 27  1  0
 26 25  2  0
M  END
$$$$
