NMH.pdb
     RDKit          3D

 27 27  0  0  1  0  0  0  0  0999 V2000
    9.2462  -17.9686   18.2663 N   0  0  0  0  0  0  0  0  0  0  0  0
    9.7752  -16.6541   18.3019 C   0  0  0  0  0  0  0  0  0  0  0  0
   10.2939  -16.1605   17.2654 O   0  0  0  0  0  0  0  0  0  0  0  0
    9.7487  -15.8113   19.5243 C   0  0  0  0  0  0  0  0  0  0  0  0
    9.1201  -16.5255   20.6742 C   0  0  2  0  0  0  0  0  0  0  0  0
    7.7565  -16.8567   20.3788 N   0  0  0  0  0  0  0  0  0  0  0  0
    9.2781  -15.8160   21.9590 C   0  0  0  0  0  0  0  0  0  0  0  0
   10.4279  -15.4566   22.3811 O   0  0  0  0  0  0  0  0  0  0  0  0
    7.2291  -11.5017   27.9598 C   0  0  0  0  0  0  0  0  0  0  0  0
    7.1126  -11.9819   26.2321 S   0  0  0  0  0  0  0  0  0  0  0  0
    7.2874  -13.7976   26.0446 C   0  0  0  0  0  0  0  0  0  0  0  0
    7.2008  -14.1522   24.5883 C   0  0  0  0  0  0  0  0  0  0  0  0
    8.3606  -14.9867   24.1780 C   0  0  2  0  0  0  0  0  0  0  0  0
    8.1923  -15.4853   22.8058 N   0  0  0  0  0  0  0  0  0  0  0  0
    8.6617  -16.1369   25.0804 C   0  0  0  0  0  0  0  0  0  0  0  0
    7.8192  -16.9827   25.4485 O   0  0  0  0  0  0  0  0  0  0  0  0
    9.9941  -16.3262   25.5851 N   0  0  0  0  0  0  0  0  0  0  0  0
   10.2835  -17.5216   26.3872 C   0  0  1  0  0  0  0  0  0  0  0  0
   11.6353  -18.0621   26.0690 C   0  0  0  0  0  0  0  0  0  0  0  0
   11.6560  -18.6431   24.7127 C   0  0  0  0  0  0  0  0  0  0  0  0
   10.6114  -18.8653   23.8459 C   0  0  0  0  0  0  0  0  0  0  0  0
   11.0392  -19.4465   22.7038 N   0  0  0  0  0  0  0  0  0  0  0  0
   12.3658  -19.5915   22.8547 C   0  0  0  0  0  0  0  0  0  0  0  0
   12.7479  -19.1216   24.0375 N   0  0  0  0  0  0  0  0  0  0  0  0
   10.1994  -17.1579   27.8121 C   0  0  0  0  0  0  0  0  0  0  0  0
   10.3403  -17.9738   28.7706 O   0  0  0  0  0  0  0  0  0  0  0  0
    9.9448  -15.8086   28.1272 O   0  0  0  0  0  0  0  0  0  0  0  0
  2  1  1  0
  3  2  2  0
  4  2  1  0
  5  4  1  0
  5  6  1  6
  7  5  1  0
  7  8  2  0
  9 10  1  0
 10 11  1  0
 12 11  1  0
 13 12  1  1
 13 14  1  0
 14  7  1  0
 15 13  1  0
 16 15  2  0
 17 15  1  0
 18 17  1  0
 18 25  1  0
 19 20  1  0
 18 19  1  6
 20 21  2  0
 20 24  1  0
 21 22  1  0
 22 23  1  0
 24 23  2  0
 25 27  1  0
 26 25  2  0
M  END
$$$$
