NMH.pdb
     RDKit          3D

 27 27  0  0  1  0  0  0  0  0999 V2000
    7.0827  -12.5756   17.6834 N   0  0  0  0  0  0  0  0  0  0  0  0
    7.9738  -13.6761   17.7432 C   0  0  0  0  0  0  0  0  0  0  0  0
    7.9831  -14.5246   16.8121 O   0  0  0  0  0  0  0  0  0  0  0  0
    8.9170  -13.8845   18.8712 C   0  0  0  0  0  0  0  0  0  0  0  0
    8.4762  -14.9986   19.7612 C   0  0  2  0  0  0  0  0  0  0  0  0
    7.0936  -15.3066   19.5379 N   0  0  0  0  0  0  0  0  0  0  0  0
    8.7958  -14.7704   21.1841 C   0  0  0  0  0  0  0  0  0  0  0  0
    9.9965  -14.5759   21.5712 O   0  0  0  0  0  0  0  0  0  0  0  0
    6.8104  -11.9610   28.2147 C   0  0  0  0  0  0  0  0  0  0  0  0
    6.3595  -12.3078   26.5101 S   0  0  0  0  0  0  0  0  0  0  0  0
    7.5486  -13.4745   25.7435 C   0  0  0  0  0  0  0  0  0  0  0  0
    7.2104  -13.6369   24.2898 C   0  0  0  0  0  0  0  0  0  0  0  0
    8.1452  -14.5881   23.6331 C   0  0  2  0  0  0  0  0  0  0  0  0
    7.8190  -14.7497   22.2092 N   0  0  0  0  0  0  0  0  0  0  0  0
    8.2260  -15.9355   24.2700 C   0  0  0  0  0  0  0  0  0  0  0  0
    7.4694  -16.8909   23.9954 O   0  0  0  0  0  0  0  0  0  0  0  0
    9.2233  -16.1999   25.2708 N   0  0  0  0  0  0  0  0  0  0  0  0
   10.0423  -17.4126   25.1500 C   0  0  1  0  0  0  0  0  0  0  0  0
   10.8076  -17.4133   23.8712 C   0  0  0  0  0  0  0  0  0  0  0  0
   11.5997  -18.6515   23.7410 C   0  0  0  0  0  0  0  0  0  0  0  0
   11.7208  -19.7027   24.6197 C   0  0  0  0  0  0  0  0  0  0  0  0
   12.5699  -20.6405   24.1458 N   0  0  0  0  0  0  0  0  0  0  0  0
   12.9870  -20.1736   22.9576 C   0  0  0  0  0  0  0  0  0  0  0  0
   12.4231  -18.9979   22.7021 N   0  0  0  0  0  0  0  0  0  0  0  0
   10.9632  -17.4689   26.2982 C   0  0  0  0  0  0  0  0  0  0  0  0
   11.2108  -18.5144   26.9691 O   0  0  0  0  0  0  0  0  0  0  0  0
   11.6119  -16.2759   26.6735 O   0  0  0  0  0  0  0  0  0  0  0  0
  2  1  1  0
  3  2  2  0
  4  2  1  0
  5  4  1  0
  5  6  1  1
  7  5  1  0
  7  8  2  0
  9 10  1  0
 10 11  1  0
 12 11  1  0
 13 12  1  1
 13 14  1  0
 14  7  1  0
 15 13  1  0
 16 15  2  0
 17 15  1  0
 18 17  1  0
 18 25  1  0
 19 20  1  0
 18 19  1  6
 20 21  2  0
 20 24  1  0
 21 22  1  0
 22 23  1  0
 24 23  2  0
 25 27  1  0
 26 25  2  0
M  END
$$$$
