NMH.pdb
     RDKit          3D

 27 27  0  0  1  0  0  0  0  0999 V2000
   10.2107  -17.6863   17.7499 N   0  0  0  0  0  0  0  0  0  0  0  0
    9.3868  -16.5479   17.9345 C   0  0  0  0  0  0  0  0  0  0  0  0
    8.5962  -16.1932   17.0201 O   0  0  0  0  0  0  0  0  0  0  0  0
    9.4084  -15.7348   19.1770 C   0  0  0  0  0  0  0  0  0  0  0  0
    9.0932  -16.5579   20.3814 C   0  0  2  0  0  0  0  0  0  0  0  0
    7.7623  -17.0854   20.2986 N   0  0  0  0  0  0  0  0  0  0  0  0
    9.3602  -15.8578   21.6532 C   0  0  0  0  0  0  0  0  0  0  0  0
   10.5189  -15.3970   21.9261 O   0  0  0  0  0  0  0  0  0  0  0  0
    7.1297  -11.3721   27.6486 C   0  0  0  0  0  0  0  0  0  0  0  0
    6.7352  -12.1807   26.0930 S   0  0  0  0  0  0  0  0  0  0  0  0
    7.9495  -13.5022   25.7165 C   0  0  0  0  0  0  0  0  0  0  0  0
    7.6345  -14.0909   24.3718 C   0  0  0  0  0  0  0  0  0  0  0  0
    8.6720  -15.0770   23.9707 C   0  0  2  0  0  0  0  0  0  0  0  0
    8.3754  -15.6463   22.6487 N   0  0  0  0  0  0  0  0  0  0  0  0
    8.8948  -16.1892   24.9408 C   0  0  0  0  0  0  0  0  0  0  0  0
    8.0206  -17.0155   25.2781 O   0  0  0  0  0  0  0  0  0  0  0  0
   10.1832  -16.3621   25.5541 N   0  0  0  0  0  0  0  0  0  0  0  0
   10.4024  -17.5250   26.4234 C   0  0  1  0  0  0  0  0  0  0  0  0
   11.7297  -18.1474   26.1557 C   0  0  0  0  0  0  0  0  0  0  0  0
   11.7202  -18.8533   24.8599 C   0  0  0  0  0  0  0  0  0  0  0  0
   10.6847  -19.0257   23.9712 C   0  0  0  0  0  0  0  0  0  0  0  0
   11.0716  -19.7619   22.9066 N   0  0  0  0  0  0  0  0  0  0  0  0
   12.3631  -20.0554   23.1288 C   0  0  0  0  0  0  0  0  0  0  0  0
   12.7635  -19.5260   24.2799 N   0  0  0  0  0  0  0  0  0  0  0  0
   10.3181  -17.0810   27.8253 C   0  0  0  0  0  0  0  0  0  0  0  0
   10.1487  -15.8795   28.1887 O   0  0  0  0  0  0  0  0  0  0  0  0
   10.4342  -18.0629   28.8289 O   0  0  0  0  0  0  0  0  0  0  0  0
  2  1  1  0
  3  2  2  0
  4  2  1  0
  5  4  1  0
  5  6  1  6
  7  5  1  0
  7  8  2  0
  9 10  1  0
 10 11  1  0
 12 11  1  0
 13 12  1  1
 13 14  1  0
 14  7  1  0
 15 13  1  0
 16 15  2  0
 17 15  1  0
 18 17  1  0
 18 25  1  0
 19 20  1  0
 18 19  1  1
 20 21  2  0
 20 24  1  0
 21 22  1  0
 22 23  1  0
 24 23  2  0
 25 27  1  0
 26 25  2  0
M  END
$$$$
