NMH.pdb
     RDKit          3D

 27 27  0  0  1  0  0  0  0  0999 V2000
   12.5677  -17.6412   14.4298 N   0  0  0  0  0  0  0  0  0  0  0  0
   12.3420  -16.2447   14.3421 C   0  0  0  0  0  0  0  0  0  0  0  0
   12.5972  -15.6362   13.2690 O   0  0  0  0  0  0  0  0  0  0  0  0
   11.8090  -15.4454   15.4745 C   0  0  0  0  0  0  0  0  0  0  0  0
   11.6088  -16.2811   16.6947 C   0  0  2  0  0  0  0  0  0  0  0  0
   10.3791  -17.0137   16.6090 N   0  0  0  0  0  0  0  0  0  0  0  0
   11.7425  -15.5198   17.9523 C   0  0  0  0  0  0  0  0  0  0  0  0
   12.8492  -14.9775   18.2848 O   0  0  0  0  0  0  0  0  0  0  0  0
    6.6256  -12.7357   20.1410 C   0  0  0  0  0  0  0  0  0  0  0  0
    8.0018  -11.7239   19.5825 S   0  0  0  0  0  0  0  0  0  0  0  0
    9.4833  -12.7553   19.2600 C   0  0  0  0  0  0  0  0  0  0  0  0
    9.6620  -13.7264   20.3909 C   0  0  0  0  0  0  0  0  0  0  0  0
   10.8257  -14.6175   20.1430 C   0  0  2  0  0  0  0  0  0  0  0  0
   10.6788  -15.3346   18.8686 N   0  0  0  0  0  0  0  0  0  0  0  0
   11.1080  -15.6041   21.2269 C   0  0  0  0  0  0  0  0  0  0  0  0
   10.4797  -16.6717   21.3887 O   0  0  0  0  0  0  0  0  0  0  0  0
   12.1622  -15.3539   22.1713 N   0  0  0  0  0  0  0  0  0  0  0  0
   12.7463  -16.4892   22.8964 C   0  0  1  0  0  0  0  0  0  0  0  0
   13.3176  -17.4886   21.9501 C   0  0  0  0  0  0  0  0  0  0  0  0
   12.6707  -18.8027   22.1298 C   0  0  0  0  0  0  0  0  0  0  0  0
   11.7118  -19.1825   23.0397 C   0  0  0  0  0  0  0  0  0  0  0  0
   11.3971  -20.4891   22.9015 N   0  0  0  0  0  0  0  0  0  0  0  0
   12.1664  -20.9347   21.8949 C   0  0  0  0  0  0  0  0  0  0  0  0
   12.9262  -19.9504   21.4265 N   0  0  0  0  0  0  0  0  0  0  0  0
   13.7947  -15.9777   23.7958 C   0  0  0  0  0  0  0  0  0  0  0  0
   14.4557  -16.6916   24.6069 O   0  0  0  0  0  0  0  0  0  0  0  0
   14.0797  -14.5988   23.7481 O   0  0  0  0  0  0  0  0  0  0  0  0
  2  1  1  0
  3  2  2  0
  4  2  1  0
  5  4  1  0
  5  6  1  6
  7  5  1  0
  7  8  2  0
  9 10  1  0
 10 11  1  0
 12 11  1  0
 13 12  1  1
 13 14  1  0
 14  7  1  0
 15 13  1  0
 16 15  2  0
 17 15  1  0
 18 17  1  0
 18 25  1  0
 19 20  1  0
 18 19  1  6
 20 21  2  0
 20 24  1  0
 21 22  1  0
 22 23  1  0
 24 23  2  0
 25 27  1  0
 26 25  2  0
M  END
$$$$
