NMH.pdb
     RDKit          3D

 27 27  0  0  1  0  0  0  0  0999 V2000
    9.6707  -15.8354   17.0245 N   0  0  0  0  0  0  0  0  0  0  0  0
    9.9184  -16.5426   18.2276 C   0  0  0  0  0  0  0  0  0  0  0  0
   10.0281  -17.7974   18.2041 O   0  0  0  0  0  0  0  0  0  0  0  0
   10.0580  -15.8658   19.5420 C   0  0  0  0  0  0  0  0  0  0  0  0
    9.4006  -16.6409   20.6350 C   0  0  2  0  0  0  0  0  0  0  0  0
    8.0468  -16.9587   20.2851 N   0  0  0  0  0  0  0  0  0  0  0  0
    9.5209  -15.9999   21.9592 C   0  0  0  0  0  0  0  0  0  0  0  0
   10.6386  -15.5470   22.3778 O   0  0  0  0  0  0  0  0  0  0  0  0
    6.8375  -11.2577   27.0676 C   0  0  0  0  0  0  0  0  0  0  0  0
    6.1758  -12.7341   26.2855 S   0  0  0  0  0  0  0  0  0  0  0  0
    7.5021  -13.9632   25.9809 C   0  0  0  0  0  0  0  0  0  0  0  0
    7.3770  -14.4843   24.5784 C   0  0  0  0  0  0  0  0  0  0  0  0
    8.5704  -15.2880   24.2051 C   0  0  2  0  0  0  0  0  0  0  0  0
    8.4317  -15.8399   22.8500 N   0  0  0  0  0  0  0  0  0  0  0  0
    8.9076  -16.3940   25.1490 C   0  0  0  0  0  0  0  0  0  0  0  0
    8.1127  -17.2951   25.4909 O   0  0  0  0  0  0  0  0  0  0  0  0
   10.2204  -16.4701   25.7290 N   0  0  0  0  0  0  0  0  0  0  0  0
   10.4997  -17.5254   26.7111 C   0  0  1  0  0  0  0  0  0  0  0  0
   11.8656  -18.0879   26.5147 C   0  0  0  0  0  0  0  0  0  0  0  0
   11.9179  -18.9082   25.2891 C   0  0  0  0  0  0  0  0  0  0  0  0
   10.8887  -19.3266   24.4783 C   0  0  0  0  0  0  0  0  0  0  0  0
   11.3461  -20.0919   23.4633 N   0  0  0  0  0  0  0  0  0  0  0  0
   12.6762  -20.1553   23.6384 C   0  0  0  0  0  0  0  0  0  0  0  0
   13.0319  -19.4608   24.7139 N   0  0  0  0  0  0  0  0  0  0  0  0
   10.3715  -16.9508   28.0613 C   0  0  0  0  0  0  0  0  0  0  0  0
   10.1337  -15.7303   28.3024 O   0  0  0  0  0  0  0  0  0  0  0  0
   10.5244  -17.8217   29.1582 O   0  0  0  0  0  0  0  0  0  0  0  0
  2  1  1  0
  3  2  2  0
  4  2  1  0
  5  4  1  0
  5  6  1  6
  7  5  1  0
  7  8  2  0
  9 10  1  0
 10 11  1  0
 12 11  1  0
 13 12  1  1
 13 14  1  0
 14  7  1  0
 15 13  1  0
 16 15  2  0
 17 15  1  0
 18 17  1  0
 18 25  1  0
 19 20  1  0
 18 19  1  6
 20 21  2  0
 20 24  1  0
 21 22  1  0
 22 23  1  0
 24 23  2  0
 25 27  1  0
 26 25  2  0
M  END
$$$$
