LQI.pdb
     RDKit          3D

 26 25  0  0  1  0  0  0  0  0999 V2000
   29.2090  -17.2623  -16.4083 C   0  0  0  0  0  0  0  0  0  0  0  0
   27.9702  -17.4355  -17.2930 C   0  0  2  0  0  0  0  0  0  0  0  0
   27.4042  -16.0576  -17.6215 C   0  0  0  0  0  0  0  0  0  0  0  0
   26.9546  -18.3162  -16.6150 C   0  0  0  0  0  0  0  0  0  0  0  0
   27.5917  -19.5870  -16.1754 C   0  0  2  0  0  0  0  0  0  0  0  0
   28.0251  -20.3864  -17.2898 N   0  0  0  0  0  0  0  0  0  0  0  0
   26.6422  -20.3636  -15.3070 C   0  0  0  0  0  0  0  0  0  0  0  0
   25.7947  -21.1086  -15.8296 O   0  0  0  0  0  0  0  0  0  0  0  0
   25.9962  -19.6664   -9.2210 N   0  0  0  0  0  0  0  0  0  0  0  0
   25.3238  -20.9136   -9.3640 C   0  0  0  0  0  0  0  0  0  0  0  0
   24.7040  -21.3828   -8.3860 O   0  0  0  0  0  0  0  0  0  0  0  0
   25.3878  -21.6143  -10.6869 C   0  0  0  0  0  0  0  0  0  0  0  0
   26.3520  -20.8853  -11.5989 C   0  0  0  0  0  0  0  0  0  0  0  0
   25.8009  -20.8927  -13.0089 C   0  0  2  0  0  0  0  0  0  0  0  0
   26.7268  -20.2348  -13.8953 N   0  0  0  0  0  0  0  0  0  0  0  0
   24.4704  -20.1972  -13.0045 C   0  0  0  0  0  0  0  0  0  0  0  0
   24.4082  -18.9595  -12.7974 O   0  0  0  0  0  0  0  0  0  0  0  0
   20.5593  -18.3639  -16.4667 C   0  0  0  0  0  0  0  0  0  0  0  0
   20.5831  -19.0094  -15.1009 C   0  0  0  0  0  0  0  0  0  0  0  0
   21.8459  -19.7533  -14.8184 C   0  0  2  0  0  0  0  0  0  0  0  0
   22.0338  -20.8002  -15.8921 C   0  0  0  0  0  0  0  0  0  0  0  0
   21.9714  -20.2924  -13.4382 C   0  0  2  0  0  0  0  0  0  0  0  0
   23.2781  -20.9322  -13.2338 N   0  0  0  0  0  0  0  0  0  0  0  0
   20.9067  -21.1688  -12.9723 C   0  0  0  0  0  0  0  0  0  0  0  0
   21.0311  -22.4122  -12.9813 O   0  0  0  0  0  0  0  0  0  0  0  0
   19.7194  -20.6329  -12.5036 O   0  0  0  0  0  0  0  0  0  0  0  0
  2  1  1  1
  2  4  1  0
  2  3  1  0
  5  7  1  0
  5  6  1  6
  5  4  1  0
  7  8  2  0
  9 10  1  0
 10 11  2  0
 10 12  1  0
 12 13  1  0
 14 13  1  1
 14 16  1  0
 15 14  1  0
 15  7  1  0
 16 17  2  0
 18 19  1  0
 19 20  1  0
 20 22  1  0
 20 21  1  6
 22 24  1  0
 23 16  1  0
 22 23  1  6
 24 25  2  0
 24 26  1  0
M  END
$$$$
