LQI.pdb
     RDKit          3D

 26 25  0  0  1  0  0  0  0  0999 V2000
   28.4967  -19.3403  -10.0444 C   0  0  0  0  0  0  0  0  0  0  0  0
   28.1349  -20.7127  -10.6211 C   0  0  2  0  0  0  0  0  0  0  0  0
   29.3751  -21.3134  -11.2754 C   0  0  0  0  0  0  0  0  0  0  0  0
   26.9873  -20.5944  -11.5885 C   0  0  0  0  0  0  0  0  0  0  0  0
   25.8188  -19.9597  -10.9208 C   0  0  2  0  0  0  0  0  0  0  0  0
   25.8667  -20.1116   -9.4913 N   0  0  0  0  0  0  0  0  0  0  0  0
   24.5415  -20.5310  -11.4693 C   0  0  0  0  0  0  0  0  0  0  0  0
   24.3935  -20.6470  -12.6985 O   0  0  0  0  0  0  0  0  0  0  0  0
   19.9608  -22.9067   -7.8167 N   0  0  0  0  0  0  0  0  0  0  0  0
   19.4950  -23.2395   -9.1207 C   0  0  0  0  0  0  0  0  0  0  0  0
   18.4349  -23.8900   -9.2372 O   0  0  0  0  0  0  0  0  0  0  0  0
   20.2992  -22.7938  -10.3039 C   0  0  0  0  0  0  0  0  0  0  0  0
   21.4241  -21.8925   -9.8400 C   0  0  0  0  0  0  0  0  0  0  0  0
   22.2860  -21.5248  -11.0291 C   0  0  2  0  0  0  0  0  0  0  0  0
   23.5169  -20.9323  -10.5716 N   0  0  0  0  0  0  0  0  0  0  0  0
   21.5178  -20.5716  -11.8982 C   0  0  0  0  0  0  0  0  0  0  0  0
   21.2575  -19.4140  -11.4851 O   0  0  0  0  0  0  0  0  0  0  0  0
   21.3754  -18.9851  -17.7109 C   0  0  0  0  0  0  0  0  0  0  0  0
   20.5617  -19.0737  -16.4409 C   0  0  0  0  0  0  0  0  0  0  0  0
   21.1630  -19.9734  -15.4129 C   0  0  2  0  0  0  0  0  0  0  0  0
   21.4189  -21.3206  -16.0484 C   0  0  0  0  0  0  0  0  0  0  0  0
   20.4196  -20.0572  -14.1278 C   0  0  2  0  0  0  0  0  0  0  0  0
   21.0823  -20.9719  -13.1884 N   0  0  0  0  0  0  0  0  0  0  0  0
   18.9986  -20.3632  -14.2058 C   0  0  0  0  0  0  0  0  0  0  0  0
   18.1561  -19.4898  -14.5044 O   0  0  0  0  0  0  0  0  0  0  0  0
   18.5478  -21.6463  -13.9468 O   0  0  0  0  0  0  0  0  0  0  0  0
  2  1  1  6
  2  4  1  0
  2  3  1  0
  5  7  1  0
  5  6  1  1
  5  4  1  0
  7  8  2  0
  9 10  1  0
 10 11  2  0
 10 12  1  0
 12 13  1  0
 14 13  1  1
 14 16  1  0
 15 14  1  0
 15  7  1  0
 16 17  2  0
 18 19  1  0
 19 20  1  0
 20 22  1  0
 20 21  1  6
 22 24  1  0
 23 16  1  0
 22 23  1  1
 24 25  2  0
 24 26  1  0
M  END
$$$$
