LQI.pdb
     RDKit          3D

 26 25  0  0  1  0  0  0  0  0999 V2000
   14.6227  -11.0028  -16.3291 C   0  0  0  0  0  0  0  0  0  0  0  0
   15.0881  -11.9325  -15.2039 C   0  0  2  0  0  0  0  0  0  0  0  0
   13.9370  -12.8585  -14.8235 C   0  0  0  0  0  0  0  0  0  0  0  0
   15.5823  -11.1334  -14.0275 C   0  0  0  0  0  0  0  0  0  0  0  0
   16.6977  -10.2422  -14.4467 C   0  0  2  0  0  0  0  0  0  0  0  0
   17.9178  -10.9720  -14.6653 N   0  0  0  0  0  0  0  0  0  0  0  0
   16.9053   -9.1630  -13.4217 C   0  0  0  0  0  0  0  0  0  0  0  0
   17.3381   -9.4564  -12.2935 O   0  0  0  0  0  0  0  0  0  0  0  0
   17.4361   -4.2072  -15.9740 N   0  0  0  0  0  0  0  0  0  0  0  0
   18.6300   -4.6291  -15.3224 C   0  0  0  0  0  0  0  0  0  0  0  0
   19.7323   -4.3635  -15.8469 O   0  0  0  0  0  0  0  0  0  0  0  0
   18.5142   -5.3772  -14.0292 C   0  0  0  0  0  0  0  0  0  0  0  0
   17.0594   -5.4487  -13.6152 C   0  0  0  0  0  0  0  0  0  0  0  0
   16.8278   -6.7287  -12.8407 C   0  0  2  0  0  0  0  0  0  0  0  0
   16.6026   -7.8168  -13.7578 N   0  0  0  0  0  0  0  0  0  0  0  0
   15.6460   -6.5314  -11.9360 C   0  0  0  0  0  0  0  0  0  0  0  0
   14.4868   -6.7796  -12.3522 O   0  0  0  0  0  0  0  0  0  0  0  0
   13.2306   -7.6445   -6.7070 C   0  0  0  0  0  0  0  0  0  0  0  0
   13.4571   -6.5044   -7.6723 C   0  0  0  0  0  0  0  0  0  0  0  0
   14.5429   -6.7713   -8.6611 C   0  0  2  0  0  0  0  0  0  0  0  0
   15.8152   -7.0735   -7.9033 C   0  0  0  0  0  0  0  0  0  0  0  0
   14.7134   -5.7351   -9.7138 C   0  0  2  0  0  0  0  0  0  0  0  0
   15.8312   -6.0645  -10.6085 N   0  0  0  0  0  0  0  0  0  0  0  0
   14.8190   -4.3531   -9.2690 C   0  0  0  0  0  0  0  0  0  0  0  0
   13.8296   -3.7295   -8.8289 O   0  0  0  0  0  0  0  0  0  0  0  0
   16.0355   -3.6948   -9.3262 O   0  0  0  0  0  0  0  0  0  0  0  0
  2  1  1  6
  2  4  1  0
  2  3  1  0
  5  7  1  0
  5  6  1  1
  5  4  1  0
  7  8  2  0
  9 10  1  0
 10 11  2  0
 10 12  1  0
 12 13  1  0
 14 13  1  6
 14 16  1  0
 15 14  1  0
 15  7  1  0
 16 17  2  0
 18 19  1  0
 19 20  1  0
 20 22  1  0
 20 21  1  1
 22 24  1  0
 23 16  1  0
 22 23  1  1
 24 25  2  0
 24 26  1  0
M  END
$$$$
