LQI.pdb
     RDKit          3D

 26 25  0  0  1  0  0  0  0  0999 V2000
   27.6585  -18.4052  -17.4243 C   0  0  0  0  0  0  0  0  0  0  0  0
   27.8100  -17.2373  -16.4444 C   0  0  2  0  0  0  0  0  0  0  0  0
   29.2846  -17.0862  -16.0840 C   0  0  0  0  0  0  0  0  0  0  0  0
   26.9505  -17.4528  -15.2272 C   0  0  0  0  0  0  0  0  0  0  0  0
   27.5692  -18.4731  -14.3382 C   0  0  2  0  0  0  0  0  0  0  0  0
   27.7752  -19.7249  -15.0159 N   0  0  0  0  0  0  0  0  0  0  0  0
   26.7200  -18.6698  -13.1139 C   0  0  0  0  0  0  0  0  0  0  0  0
   26.2117  -17.6854  -12.5491 O   0  0  0  0  0  0  0  0  0  0  0  0
   22.0980  -20.8434  -11.0765 N   0  0  0  0  0  0  0  0  0  0  0  0
   22.3556  -20.4867  -12.4309 C   0  0  0  0  0  0  0  0  0  0  0  0
   21.4401  -19.9693  -13.1053 O   0  0  0  0  0  0  0  0  0  0  0  0
   23.7197  -20.7477  -12.9933 C   0  0  0  0  0  0  0  0  0  0  0  0
   24.6157  -21.3058  -11.9077 C   0  0  0  0  0  0  0  0  0  0  0  0
   25.6269  -20.2516  -11.5102 C   0  0  2  0  0  0  0  0  0  0  0  0
   26.5091  -19.9833  -12.6172 N   0  0  0  0  0  0  0  0  0  0  0  0
   26.3918  -20.7500  -10.3183 C   0  0  0  0  0  0  0  0  0  0  0  0
   27.2200  -21.6858  -10.4488 O   0  0  0  0  0  0  0  0  0  0  0  0
   29.1609  -19.4675   -5.1509 C   0  0  0  0  0  0  0  0  0  0  0  0
   28.2478  -20.4393   -5.8613 C   0  0  0  0  0  0  0  0  0  0  0  0
   27.6032  -19.8655   -7.0792 C   0  0  2  0  0  0  0  0  0  0  0  0
   26.9797  -18.5393   -6.7096 C   0  0  0  0  0  0  0  0  0  0  0  0
   26.6727  -20.7774   -7.7959 C   0  0  2  0  0  0  0  0  0  0  0  0
   26.1842  -20.1682   -9.0405 N   0  0  0  0  0  0  0  0  0  0  0  0
   25.5576  -21.3170   -7.0316 C   0  0  0  0  0  0  0  0  0  0  0  0
   24.3794  -20.9657   -7.2556 O   0  0  0  0  0  0  0  0  0  0  0  0
   25.7853  -22.2428   -6.0279 O   0  0  0  0  0  0  0  0  0  0  0  0
  2  1  1  6
  2  4  1  0
  2  3  1  0
  5  7  1  0
  5  6  1  6
  5  4  1  0
  7  8  2  0
  9 10  1  0
 10 11  2  0
 10 12  1  0
 12 13  1  0
 14 13  1  6
 14 16  1  0
 15 14  1  0
 15  7  1  0
 16 17  2  0
 18 19  1  0
 19 20  1  0
 20 22  1  0
 20 21  1  1
 22 24  1  0
 23 16  1  0
 22 23  1  6
 24 25  2  0
 24 26  1  0
M  END
$$$$
