LQI.pdb
     RDKit          3D

 26 25  0  0  1  0  0  0  0  0999 V2000
   17.4227  -16.3399  -18.1110 C   0  0  0  0  0  0  0  0  0  0  0  0
   18.9383  -16.3340  -17.8869 C   0  0  2  0  0  0  0  0  0  0  0  0
   19.2630  -17.2342  -16.6989 C   0  0  0  0  0  0  0  0  0  0  0  0
   19.4377  -14.9284  -17.6834 C   0  0  0  0  0  0  0  0  0  0  0  0
   19.1371  -14.1000  -18.8825 C   0  0  2  0  0  0  0  0  0  0  0  0
   19.7738  -14.6134  -20.0657 N   0  0  0  0  0  0  0  0  0  0  0  0
   19.5483  -12.6753  -18.6382 C   0  0  0  0  0  0  0  0  0  0  0  0
   20.7409  -12.3458  -18.7626 O   0  0  0  0  0  0  0  0  0  0  0  0
   15.5160   -7.8416  -18.3077 N   0  0  0  0  0  0  0  0  0  0  0  0
   16.7524   -7.2021  -18.0068 C   0  0  0  0  0  0  0  0  0  0  0  0
   16.7737   -5.9609  -17.8671 O   0  0  0  0  0  0  0  0  0  0  0  0
   17.9816   -8.0480  -17.8696 C   0  0  0  0  0  0  0  0  0  0  0  0
   17.6362   -9.4928  -18.1632 C   0  0  0  0  0  0  0  0  0  0  0  0
   18.8877  -10.3357  -18.0393 C   0  0  2  0  0  0  0  0  0  0  0  0
   18.5643  -11.7211  -18.2671 N   0  0  0  0  0  0  0  0  0  0  0  0
   19.4646  -10.1341  -16.6680 C   0  0  0  0  0  0  0  0  0  0  0  0
   18.9834  -10.7527  -15.6859 O   0  0  0  0  0  0  0  0  0  0  0  0
   23.9734  -11.6769  -15.3578 C   0  0  0  0  0  0  0  0  0  0  0  0
   22.5775  -11.1003  -15.4025 C   0  0  0  0  0  0  0  0  0  0  0  0
   22.5289   -9.6402  -15.0964 C   0  0  2  0  0  0  0  0  0  0  0  0
   23.2344   -9.4043  -13.7808 C   0  0  0  0  0  0  0  0  0  0  0  0
   21.1785   -9.0211  -15.1628 C   0  0  2  0  0  0  0  0  0  0  0  0
   20.5542   -9.2456  -16.4737 N   0  0  0  0  0  0  0  0  0  0  0  0
   21.0774   -7.6165  -14.7944 C   0  0  0  0  0  0  0  0  0  0  0  0
   21.1841   -6.7071  -15.6449 O   0  0  0  0  0  0  0  0  0  0  0  0
   20.8577   -7.2571  -13.4756 O   0  0  0  0  0  0  0  0  0  0  0  0
  2  1  1  1
  2  4  1  0
  2  3  1  0
  5  7  1  0
  5  6  1  6
  5  4  1  0
  7  8  2  0
  9 10  1  0
 10 11  2  0
 10 12  1  0
 12 13  1  0
 14 13  1  1
 14 16  1  0
 15 14  1  0
 15  7  1  0
 16 17  2  0
 18 19  1  0
 19 20  1  0
 20 22  1  0
 20 21  1  1
 22 24  1  0
 23 16  1  0
 22 23  1  6
 24 25  2  0
 24 26  1  0
M  END
$$$$
