LQI.pdb
     RDKit          3D

 26 25  0  0  1  0  0  0  0  0999 V2000
   13.5025  -11.6552  -17.3294 C   0  0  0  0  0  0  0  0  0  0  0  0
   12.9170  -11.6308  -15.9138 C   0  0  2  0  0  0  0  0  0  0  0  0
   11.5506  -10.9541  -15.9586 C   0  0  0  0  0  0  0  0  0  0  0  0
   13.8585  -10.9398  -14.9636 C   0  0  0  0  0  0  0  0  0  0  0  0
   15.1814  -11.6210  -14.9682 C   0  0  2  0  0  0  0  0  0  0  0  0
   15.1343  -12.8942  -14.3006 N   0  0  0  0  0  0  0  0  0  0  0  0
   16.2179  -10.7335  -14.3387 C   0  0  0  0  0  0  0  0  0  0  0  0
   16.1779  -10.5060  -13.1169 O   0  0  0  0  0  0  0  0  0  0  0  0
   21.9006   -9.9124  -16.7310 N   0  0  0  0  0  0  0  0  0  0  0  0
   21.9600   -9.0532  -15.5967 C   0  0  0  0  0  0  0  0  0  0  0  0
   23.0446   -8.5041  -15.3094 O   0  0  0  0  0  0  0  0  0  0  0  0
   20.7138   -8.8426  -14.7917 C   0  0  0  0  0  0  0  0  0  0  0  0
   19.5772   -9.6346  -15.4031 C   0  0  0  0  0  0  0  0  0  0  0  0
   18.3178   -9.3946  -14.5980 C   0  0  2  0  0  0  0  0  0  0  0  0
   17.2333  -10.1644  -15.1522 N   0  0  0  0  0  0  0  0  0  0  0  0
   18.0069   -7.9260  -14.6253 C   0  0  0  0  0  0  0  0  0  0  0  0
   17.4138   -7.4269  -15.6141 O   0  0  0  0  0  0  0  0  0  0  0  0
   15.8643   -3.4154  -11.3888 C   0  0  0  0  0  0  0  0  0  0  0  0
   16.9389   -3.7699  -12.3901 C   0  0  0  0  0  0  0  0  0  0  0  0
   17.1862   -5.2377  -12.4999 C   0  0  2  0  0  0  0  0  0  0  0  0
   17.5049   -5.7727  -11.1229 C   0  0  0  0  0  0  0  0  0  0  0  0
   18.1754   -5.6405  -13.5346 C   0  0  2  0  0  0  0  0  0  0  0  0
   18.3805   -7.0953  -13.5368 N   0  0  0  0  0  0  0  0  0  0  0  0
   19.4590   -4.9541  -13.5234 C   0  0  0  0  0  0  0  0  0  0  0  0
   19.5638   -3.7558  -13.8621 O   0  0  0  0  0  0  0  0  0  0  0  0
   20.6040   -5.6263  -13.1314 O   0  0  0  0  0  0  0  0  0  0  0  0
  2  1  1  6
  2  4  1  0
  2  3  1  0
  5  7  1  0
  5  6  1  1
  5  4  1  0
  7  8  2  0
  9 10  1  0
 10 11  2  0
 10 12  1  0
 12 13  1  0
 14 13  1  6
 14 16  1  0
 15 14  1  0
 15  7  1  0
 16 17  2  0
 18 19  1  0
 19 20  1  0
 20 22  1  0
 20 21  1  1
 22 24  1  0
 23 16  1  0
 22 23  1  1
 24 25  2  0
 24 26  1  0
M  END
$$$$
