LQI.pdb
     RDKit          3D

 26 25  0  0  1  0  0  0  0  0999 V2000
   28.4503  -20.4825  -16.6273 C   0  0  0  0  0  0  0  0  0  0  0  0
   27.5062  -19.3781  -16.1413 C   0  0  2  0  0  0  0  0  0  0  0  0
   27.4110  -18.3031  -17.2194 C   0  0  0  0  0  0  0  0  0  0  0  0
   27.9792  -18.8185  -14.8260 C   0  0  0  0  0  0  0  0  0  0  0  0
   28.0298  -19.8953  -13.8004 C   0  0  2  0  0  0  0  0  0  0  0  0
   27.5732  -21.1565  -14.3200 N   0  0  0  0  0  0  0  0  0  0  0  0
   27.2217  -19.4969  -12.5976 C   0  0  0  0  0  0  0  0  0  0  0  0
   27.1840  -18.3050  -12.2450 O   0  0  0  0  0  0  0  0  0  0  0  0
   22.1109  -21.7544  -12.8691 N   0  0  0  0  0  0  0  0  0  0  0  0
   22.2923  -20.4303  -12.3773 C   0  0  0  0  0  0  0  0  0  0  0  0
   21.2864  -19.7219  -12.1606 O   0  0  0  0  0  0  0  0  0  0  0  0
   23.6879  -19.9395  -12.1394 C   0  0  0  0  0  0  0  0  0  0  0  0
   24.2840  -20.6668  -10.9525 C   0  0  0  0  0  0  0  0  0  0  0  0
   25.6982  -20.1744  -10.7297 C   0  0  2  0  0  0  0  0  0  0  0  0
   26.5092  -20.4920  -11.8774 N   0  0  0  0  0  0  0  0  0  0  0  0
   26.2394  -20.8241   -9.4892 C   0  0  0  0  0  0  0  0  0  0  0  0
   26.6338  -22.0165   -9.5245 O   0  0  0  0  0  0  0  0  0  0  0  0
   29.3435  -18.2845   -5.7551 C   0  0  0  0  0  0  0  0  0  0  0  0
   28.6700  -19.3078   -6.6394 C   0  0  0  0  0  0  0  0  0  0  0  0
   27.3688  -19.7969   -6.0957 C   0  0  2  0  0  0  0  0  0  0  0  0
   27.6078  -20.3492   -4.7094 C   0  0  0  0  0  0  0  0  0  0  0  0
   26.6182  -20.7260   -6.9814 C   0  0  2  0  0  0  0  0  0  0  0  0
   26.3085  -20.0967   -8.2724 N   0  0  0  0  0  0  0  0  0  0  0  0
   25.4233  -21.3457   -6.4273 C   0  0  0  0  0  0  0  0  0  0  0  0
   24.2779  -20.9744   -6.7620 O   0  0  0  0  0  0  0  0  0  0  0  0
   25.5355  -22.3728   -5.5059 O   0  0  0  0  0  0  0  0  0  0  0  0
  2  1  1  6
  2  4  1  0
  2  3  1  0
  5  7  1  0
  5  6  1  6
  5  4  1  0
  7  8  2  0
  9 10  1  0
 10 11  2  0
 10 12  1  0
 12 13  1  0
 14 13  1  6
 14 16  1  0
 15 14  1  0
 15  7  1  0
 16 17  2  0
 18 19  1  0
 19 20  1  0
 20 22  1  0
 20 21  1  1
 22 24  1  0
 23 16  1  0
 22 23  1  6
 24 25  2  0
 24 26  1  0
M  END
$$$$
