LQI.pdb
     RDKit          3D

 26 25  0  0  1  0  0  0  0  0999 V2000
   31.6858  -23.9069  -11.3908 C   0  0  0  0  0  0  0  0  0  0  0  0
   32.4632  -22.7774  -12.0740 C   0  0  2  0  0  0  0  0  0  0  0  0
   33.6811  -22.4336  -11.2222 C   0  0  0  0  0  0  0  0  0  0  0  0
   31.5745  -21.5827  -12.2968 C   0  0  0  0  0  0  0  0  0  0  0  0
   30.4023  -21.9653  -13.1296 C   0  0  2  0  0  0  0  0  0  0  0  0
   30.7068  -21.9353  -14.5350 N   0  0  0  0  0  0  0  0  0  0  0  0
   29.2389  -21.0648  -12.8228 C   0  0  0  0  0  0  0  0  0  0  0  0
   29.2540  -19.8822  -13.2068 O   0  0  0  0  0  0  0  0  0  0  0  0
   23.8189  -21.3222  -14.4711 N   0  0  0  0  0  0  0  0  0  0  0  0
   23.6237  -20.3337  -13.4648 C   0  0  0  0  0  0  0  0  0  0  0  0
   22.5469  -19.7009  -13.4385 O   0  0  0  0  0  0  0  0  0  0  0  0
   24.7225  -20.0925  -12.4749 C   0  0  0  0  0  0  0  0  0  0  0  0
   25.9157  -20.9571  -12.8237 C   0  0  0  0  0  0  0  0  0  0  0  0
   26.9864  -20.7711  -11.7696 C   0  0  2  0  0  0  0  0  0  0  0  0
   28.1335  -21.5798  -12.0950 N   0  0  0  0  0  0  0  0  0  0  0  0
   26.4146  -21.1564  -10.4360 C   0  0  0  0  0  0  0  0  0  0  0  0
   26.1113  -22.3533  -10.2037 O   0  0  0  0  0  0  0  0  0  0  0  0
   28.6443  -18.8489   -6.1276 C   0  0  0  0  0  0  0  0  0  0  0  0
   27.9563  -19.7903   -7.0884 C   0  0  0  0  0  0  0  0  0  0  0  0
   26.4676  -19.6884   -7.0548 C   0  0  2  0  0  0  0  0  0  0  0  0
   26.0024  -19.9554   -5.6419 C   0  0  0  0  0  0  0  0  0  0  0  0
   25.7514  -20.4977   -8.0763 C   0  0  2  0  0  0  0  0  0  0  0  0
   26.2140  -20.1730   -9.4324 N   0  0  0  0  0  0  0  0  0  0  0  0
   24.2966  -20.4851   -8.0274 C   0  0  0  0  0  0  0  0  0  0  0  0
   23.6238  -19.7178   -8.7488 O   0  0  0  0  0  0  0  0  0  0  0  0
   23.6219  -21.3356   -7.1684 O   0  0  0  0  0  0  0  0  0  0  0  0
  2  1  1  1
  2  4  1  0
  2  3  1  0
  5  7  1  0
  5  6  1  6
  5  4  1  0
  7  8  2  0
  9 10  1  0
 10 11  2  0
 10 12  1  0
 12 13  1  0
 14 13  1  6
 14 16  1  0
 15 14  1  0
 15  7  1  0
 16 17  2  0
 18 19  1  0
 19 20  1  0
 20 22  1  0
 20 21  1  1
 22 24  1  0
 23 16  1  0
 22 23  1  6
 24 25  2  0
 24 26  1  0
M  END
$$$$
