LQI.pdb
     RDKit          3D

 26 25  0  0  1  0  0  0  0  0999 V2000
   28.8616  -19.6331  -16.3394 C   0  0  0  0  0  0  0  0  0  0  0  0
   28.4649  -18.1696  -16.1202 C   0  0  2  0  0  0  0  0  0  0  0  0
   29.7104  -17.2982  -16.2483 C   0  0  0  0  0  0  0  0  0  0  0  0
   27.7907  -17.9984  -14.7850 C   0  0  0  0  0  0  0  0  0  0  0  0
   26.5932  -18.8775  -14.7000 C   0  0  2  0  0  0  0  0  0  0  0  0
   25.6319  -18.5797  -15.7277 N   0  0  0  0  0  0  0  0  0  0  0  0
   25.9649  -18.7588  -13.3400 C   0  0  0  0  0  0  0  0  0  0  0  0
   25.6802  -17.6367  -12.8860 O   0  0  0  0  0  0  0  0  0  0  0  0
   20.8411  -21.7466   -9.5071 N   0  0  0  0  0  0  0  0  0  0  0  0
   21.4019  -20.9385  -10.5369 C   0  0  0  0  0  0  0  0  0  0  0  0
   20.7451  -20.7482  -11.5823 O   0  0  0  0  0  0  0  0  0  0  0  0
   22.7621  -20.3475  -10.3230 C   0  0  0  0  0  0  0  0  0  0  0  0
   23.6000  -20.5434  -11.5690 C   0  0  0  0  0  0  0  0  0  0  0  0
   24.9580  -19.9088  -11.3569 C   0  0  2  0  0  0  0  0  0  0  0  0
   25.7041  -19.9356  -12.5891 N   0  0  0  0  0  0  0  0  0  0  0  0
   25.6740  -20.6648  -10.2753 C   0  0  0  0  0  0  0  0  0  0  0  0
   26.1028  -21.8248  -10.4969 O   0  0  0  0  0  0  0  0  0  0  0  0
   28.9858  -19.6333   -5.1898 C   0  0  0  0  0  0  0  0  0  0  0  0
   28.1212  -20.5820   -5.9869 C   0  0  0  0  0  0  0  0  0  0  0  0
   27.2982  -19.9006   -7.0292 C   0  0  2  0  0  0  0  0  0  0  0  0
   26.5146  -18.7900   -6.3684 C   0  0  0  0  0  0  0  0  0  0  0  0
   26.4596  -20.7997   -7.8656 C   0  0  2  0  0  0  0  0  0  0  0  0
   25.8700  -20.0748   -8.9994 N   0  0  0  0  0  0  0  0  0  0  0  0
   25.4356  -21.5744   -7.1800 C   0  0  0  0  0  0  0  0  0  0  0  0
   24.2195  -21.3263   -7.3257 O   0  0  0  0  0  0  0  0  0  0  0  0
   25.7956  -22.6157   -6.3418 O   0  0  0  0  0  0  0  0  0  0  0  0
  2  1  1  1
  2  4  1  0
  2  3  1  0
  5  7  1  0
  5  6  1  6
  5  4  1  0
  7  8  2  0
  9 10  1  0
 10 11  2  0
 10 12  1  0
 12 13  1  0
 14 13  1  6
 14 16  1  0
 15 14  1  0
 15  7  1  0
 16 17  2  0
 18 19  1  0
 19 20  1  0
 20 22  1  0
 20 21  1  1
 22 24  1  0
 23 16  1  0
 22 23  1  6
 24 25  2  0
 24 26  1  0
M  END
$$$$
