HHE.pdb
     RDKit          3D

 30 31  0  0  1  0  0  0  0  0999 V2000
   20.3043  -31.2208  -10.9834 N   0  0  0  0  0  0  0  0  0  0  0  0
   21.4563  -30.5753  -10.4071 C   0  0  1  0  0  0  0  0  0  0  0  0
   20.9525  -29.5714   -9.3977 C   0  0  0  0  0  0  0  0  0  0  0  0
   20.3338  -28.4487  -10.1596 C   0  0  0  0  0  0  0  0  0  0  0  0
   20.9870  -27.4827  -10.8994 C   0  0  0  0  0  0  0  0  0  0  0  0
   20.0505  -26.6659  -11.4165 N   0  0  0  0  0  0  0  0  0  0  0  0
   18.8389  -27.0698  -11.0385 C   0  0  0  0  0  0  0  0  0  0  0  0
   19.0108  -28.1504  -10.2769 N   0  0  0  0  0  0  0  0  0  0  0  0
   22.3710  -31.5716   -9.8169 C   0  0  0  0  0  0  0  0  0  0  0  0
   21.8805  -32.5428   -9.1556 O   0  0  0  0  0  0  0  0  0  0  0  0
   23.7985  -31.4414   -9.9907 N   0  0  0  0  0  0  0  0  0  0  0  0
   24.6356  -32.4303   -9.4031 C   0  0  1  0  0  0  0  0  0  0  0  0
   25.9901  -32.5266  -10.0311 C   0  0  0  0  0  0  0  0  0  0  0  0
   26.0689  -33.1556  -11.3501 C   0  0  0  0  0  0  0  0  0  0  0  0
   25.1830  -33.8501  -12.1169 C   0  0  0  0  0  0  0  0  0  0  0  0
   25.7830  -34.1908  -13.2699 N   0  0  0  0  0  0  0  0  0  0  0  0
   27.0309  -33.7179  -13.2330 C   0  0  0  0  0  0  0  0  0  0  0  0
   27.2261  -33.0861  -12.0769 N   0  0  0  0  0  0  0  0  0  0  0  0
   24.8313  -32.2392   -7.9280 C   0  0  0  0  0  0  0  0  0  0  0  0
   24.4541  -31.1601   -7.4165 O   0  0  0  0  0  0  0  0  0  0  0  0
   25.4184  -33.2133   -7.0944 N   0  0  0  0  0  0  0  0  0  0  0  0
   25.4184  -33.1741   -5.6513 C   0  0  1  0  0  0  0  0  0  0  0  0
   24.0603  -33.1949   -5.0374 C   0  0  0  0  0  0  0  0  0  0  0  0
   24.0774  -33.2065   -3.5240 C   0  0  0  0  0  0  0  0  0  0  0  0
   22.6764  -33.2363   -3.0733 C   0  0  0  0  0  0  0  0  0  0  0  0
   21.9905  -34.2567   -3.2639 O   0  0  0  0  0  0  0  0  0  0  0  0
   26.1669  -34.3667   -5.1722 C   0  0  0  0  0  0  0  0  0  0  0  0
   26.4162  -35.3584   -5.9248 O   0  0  0  0  0  0  0  0  0  0  0  0
   22.1247  -32.1453   -2.4445 O   0  0  0  0  0  0  0  0  0  0  0  0
   26.6428  -34.4733   -3.8659 O   0  0  0  0  0  0  0  0  0  0  0  0
  2  1  1  1
  2  9  1  0
  2  3  1  0
  4  3  1  0
  4  8  1  0
  5  6  1  0
  5  4  2  0
  6  7  1  0
  7  8  2  0
  9 11  1  0
 10  9  2  0
 11 12  1  0
 12 13  1  6
 13 14  1  0
 14 18  1  0
 15 14  2  0
 15 16  1  0
 16 17  1  0
 18 17  2  0
 19 21  1  0
 19 12  1  0
 20 19  2  0
 22 27  1  0
 22 23  1  1
 22 21  1  0
 24 23  1  0
 25 24  1  0
 26 25  2  0
 27 30  1  0
 28 27  2  0
 29 25  1  0
M  END
$$$$
