HHE.pdb
     RDKit          3D

 30 31  0  0  1  0  0  0  0  0999 V2000
   46.1368  -10.1408   -5.1600 N   0  0  0  0  0  0  0  0  0  0  0  0
   44.7673  -10.1729   -4.7134 C   0  0  1  0  0  0  0  0  0  0  0  0
   44.6352   -9.1697   -3.5924 C   0  0  0  0  0  0  0  0  0  0  0  0
   45.4819   -9.6520   -2.4636 C   0  0  0  0  0  0  0  0  0  0  0  0
   46.2289  -10.8126   -2.4178 C   0  0  0  0  0  0  0  0  0  0  0  0
   46.8346  -10.8576   -1.2167 N   0  0  0  0  0  0  0  0  0  0  0  0
   46.5058   -9.7821   -0.5033 C   0  0  0  0  0  0  0  0  0  0  0  0
   45.6860   -9.0514   -1.2592 N   0  0  0  0  0  0  0  0  0  0  0  0
   43.8470   -9.9031   -5.8351 C   0  0  0  0  0  0  0  0  0  0  0  0
   44.3066   -9.3642   -6.8932 O   0  0  0  0  0  0  0  0  0  0  0  0
   42.4489  -10.2479   -5.7280 N   0  0  0  0  0  0  0  0  0  0  0  0
   41.5987   -9.9375   -6.8256 C   0  0  1  0  0  0  0  0  0  0  0  0
   40.7562  -11.0866   -7.2815 C   0  0  0  0  0  0  0  0  0  0  0  0
   39.7913  -10.8218   -8.3495 C   0  0  0  0  0  0  0  0  0  0  0  0
   39.5379   -9.7452   -9.1445 C   0  0  0  0  0  0  0  0  0  0  0  0
   38.5350  -10.0538   -9.9837 N   0  0  0  0  0  0  0  0  0  0  0  0
   38.1596  -11.3081   -9.7235 C   0  0  0  0  0  0  0  0  0  0  0  0
   38.9086  -11.7936   -8.7351 N   0  0  0  0  0  0  0  0  0  0  0  0
   40.6820   -8.7812   -6.5552 C   0  0  0  0  0  0  0  0  0  0  0  0
   39.8772   -8.8755   -5.6003 O   0  0  0  0  0  0  0  0  0  0  0  0
   40.6837   -7.5985   -7.3231 N   0  0  0  0  0  0  0  0  0  0  0  0
   39.8487   -6.4483   -7.0704 C   0  0  1  0  0  0  0  0  0  0  0  0
   40.5903   -5.2437   -6.6003 C   0  0  0  0  0  0  0  0  0  0  0  0
   41.6032   -4.7257   -7.5985 C   0  0  0  0  0  0  0  0  0  0  0  0
   42.1240   -3.4544   -7.0700 C   0  0  0  0  0  0  0  0  0  0  0  0
   41.4950   -2.8546   -6.1797 O   0  0  0  0  0  0  0  0  0  0  0  0
   39.1612   -6.1070   -8.3443 C   0  0  0  0  0  0  0  0  0  0  0  0
   39.4877   -6.6323   -9.4531 O   0  0  0  0  0  0  0  0  0  0  0  0
   43.2988   -2.9290   -7.5539 O   0  0  0  0  0  0  0  0  0  0  0  0
   38.1142   -5.1880   -8.4037 O   0  0  0  0  0  0  0  0  0  0  0  0
  2  1  1  6
  2  9  1  0
  2  3  1  0
  4  3  1  0
  4  8  1  0
  5  6  1  0
  5  4  2  0
  6  7  1  0
  7  8  2  0
  9 11  1  0
 10  9  2  0
 11 12  1  0
 12 13  1  1
 13 14  1  0
 14 18  1  0
 15 14  2  0
 15 16  1  0
 16 17  1  0
 18 17  2  0
 19 21  1  0
 19 12  1  0
 20 19  2  0
 22 27  1  0
 22 23  1  6
 22 21  1  0
 24 23  1  0
 25 24  1  0
 26 25  2  0
 27 30  1  0
 28 27  2  0
 29 25  1  0
M  END
$$$$
