HHE.pdb
     RDKit          3D

 30 31  0  0  1  0  0  0  0  0999 V2000
   22.3060  -11.2293  -18.6483 N   0  0  0  0  0  0  0  0  0  0  0  0
   21.1892  -10.5011  -19.1946 C   0  0  1  0  0  0  0  0  0  0  0  0
   20.2021  -11.5165  -19.7189 C   0  0  0  0  0  0  0  0  0  0  0  0
   20.8209  -12.1612  -20.9127 C   0  0  0  0  0  0  0  0  0  0  0  0
   21.6970  -11.5854  -21.8116 C   0  0  0  0  0  0  0  0  0  0  0  0
   22.0036  -12.5175  -22.7327 N   0  0  0  0  0  0  0  0  0  0  0  0
   21.3635  -13.6528  -22.4584 C   0  0  0  0  0  0  0  0  0  0  0  0
   20.6468  -13.4367  -21.3552 N   0  0  0  0  0  0  0  0  0  0  0  0
   20.6042   -9.6050  -18.1784 C   0  0  0  0  0  0  0  0  0  0  0  0
   19.5737   -8.9208  -18.4802 O   0  0  0  0  0  0  0  0  0  0  0  0
   21.1956   -9.5109  -16.8645 N   0  0  0  0  0  0  0  0  0  0  0  0
   20.5781   -8.6506  -15.9144 C   0  0  1  0  0  0  0  0  0  0  0  0
   19.9862   -9.3691  -14.7433 C   0  0  0  0  0  0  0  0  0  0  0  0
   18.7140  -10.0593  -14.9596 C   0  0  0  0  0  0  0  0  0  0  0  0
   17.9328  -10.2736  -16.0546 C   0  0  0  0  0  0  0  0  0  0  0  0
   16.8615  -10.9964  -15.6870 N   0  0  0  0  0  0  0  0  0  0  0  0
   16.9639  -11.2363  -14.3777 C   0  0  0  0  0  0  0  0  0  0  0  0
   18.0806  -10.6768  -13.9156 N   0  0  0  0  0  0  0  0  0  0  0  0
   21.5036   -7.5973  -15.3809 C   0  0  0  0  0  0  0  0  0  0  0  0
   22.6905   -7.9184  -15.1434 O   0  0  0  0  0  0  0  0  0  0  0  0
   21.1009   -6.2686  -15.1346 N   0  0  0  0  0  0  0  0  0  0  0  0
   21.9564   -5.2293  -14.6131 C   0  0  1  0  0  0  0  0  0  0  0  0
   21.5703   -3.8510  -15.0291 C   0  0  0  0  0  0  0  0  0  0  0  0
   21.7105   -3.6030  -16.5156 C   0  0  0  0  0  0  0  0  0  0  0  0
   21.2058   -2.2458  -16.7797 C   0  0  0  0  0  0  0  0  0  0  0  0
   20.2604   -1.7989  -16.1055 O   0  0  0  0  0  0  0  0  0  0  0  0
   21.8962   -5.3042  -13.1289 C   0  0  0  0  0  0  0  0  0  0  0  0
   21.0660   -6.0475  -12.5204 O   0  0  0  0  0  0  0  0  0  0  0  0
   21.7729   -1.4722  -17.7647 O   0  0  0  0  0  0  0  0  0  0  0  0
   22.7471   -4.5631  -12.3097 O   0  0  0  0  0  0  0  0  0  0  0  0
  2  1  1  1
  2  9  1  0
  2  3  1  0
  4  3  1  0
  4  8  1  0
  5  6  1  0
  5  4  2  0
  6  7  1  0
  7  8  2  0
  9 11  1  0
 10  9  2  0
 11 12  1  0
 12 13  1  1
 13 14  1  0
 14 18  1  0
 15 14  2  0
 15 16  1  0
 16 17  1  0
 18 17  2  0
 19 21  1  0
 19 12  1  0
 20 19  2  0
 22 27  1  0
 22 23  1  1
 22 21  1  0
 24 23  1  0
 25 24  1  0
 26 25  2  0
 27 30  1  0
 28 27  2  0
 29 25  1  0
M  END
$$$$
