HHE.pdb
     RDKit          3D

 30 31  0  0  1  0  0  0  0  0999 V2000
   19.0839  -13.3160  -16.8125 N   0  0  0  0  0  0  0  0  0  0  0  0
   18.6145  -11.9682  -16.6151 C   0  0  1  0  0  0  0  0  0  0  0  0
   18.1573  -11.8558  -15.1802 C   0  0  0  0  0  0  0  0  0  0  0  0
   16.8376  -12.5429  -15.0802 C   0  0  0  0  0  0  0  0  0  0  0  0
   15.7310  -12.3445  -15.8821 C   0  0  0  0  0  0  0  0  0  0  0  0
   14.7597  -13.1664  -15.4432 N   0  0  0  0  0  0  0  0  0  0  0  0
   15.2001  -13.8731  -14.4037 C   0  0  0  0  0  0  0  0  0  0  0  0
   16.4596  -13.4951  -14.1839 N   0  0  0  0  0  0  0  0  0  0  0  0
   19.6683  -10.9939  -16.9586 C   0  0  0  0  0  0  0  0  0  0  0  0
   20.7936  -11.0693  -16.3676 O   0  0  0  0  0  0  0  0  0  0  0  0
   19.4208   -9.9741  -17.9504 N   0  0  0  0  0  0  0  0  0  0  0  0
   20.4695   -9.0581  -18.2424 C   0  0  1  0  0  0  0  0  0  0  0  0
   20.8263   -8.9903  -19.6937 C   0  0  0  0  0  0  0  0  0  0  0  0
   21.3211  -10.2192  -20.3154 C   0  0  0  0  0  0  0  0  0  0  0  0
   22.3172  -11.0957  -20.0075 C   0  0  0  0  0  0  0  0  0  0  0  0
   22.3264  -12.0791  -20.9230 N   0  0  0  0  0  0  0  0  0  0  0  0
   21.3495  -11.8283  -21.7976 C   0  0  0  0  0  0  0  0  0  0  0  0
   20.7264  -10.7043  -21.4482 N   0  0  0  0  0  0  0  0  0  0  0  0
   20.1801   -7.6606  -17.7799 C   0  0  0  0  0  0  0  0  0  0  0  0
   18.9964   -7.2549  -17.8287 O   0  0  0  0  0  0  0  0  0  0  0  0
   21.1747   -6.7861  -17.2957 N   0  0  0  0  0  0  0  0  0  0  0  0
   20.9361   -5.4406  -16.8300 C   0  0  1  0  0  0  0  0  0  0  0  0
   21.6096   -5.1091  -15.5423 C   0  0  0  0  0  0  0  0  0  0  0  0
   21.1942   -6.0005  -14.3919 C   0  0  0  0  0  0  0  0  0  0  0  0
   21.9065   -5.5258  -13.1944 C   0  0  0  0  0  0  0  0  0  0  0  0
   21.5670   -5.9410  -12.0717 O   0  0  0  0  0  0  0  0  0  0  0  0
   21.4407   -4.5104  -17.8751 C   0  0  0  0  0  0  0  0  0  0  0  0
   22.1336   -4.9097  -18.8613 O   0  0  0  0  0  0  0  0  0  0  0  0
   22.9420   -4.6289  -13.3109 O   0  0  0  0  0  0  0  0  0  0  0  0
   21.1861   -3.1399  -17.8394 O   0  0  0  0  0  0  0  0  0  0  0  0
  2  1  1  1
  2  9  1  0
  2  3  1  0
  4  3  1  0
  4  8  1  0
  5  6  1  0
  5  4  2  0
  6  7  1  0
  7  8  2  0
  9 11  1  0
 10  9  2  0
 11 12  1  0
 12 13  1  6
 13 14  1  0
 14 18  1  0
 15 14  2  0
 15 16  1  0
 16 17  1  0
 18 17  2  0
 19 21  1  0
 19 12  1  0
 20 19  2  0
 22 27  1  0
 22 23  1  1
 22 21  1  0
 24 23  1  0
 25 24  1  0
 26 25  2  0
 27 30  1  0
 28 27  2  0
 29 25  1  0
M  END
$$$$
