HHE.pdb
     RDKit          3D

 30 31  0  0  1  0  0  0  0  0999 V2000
   18.6556  -10.8166  -17.6783 N   0  0  0  0  0  0  0  0  0  0  0  0
   17.2967  -10.3658  -17.8397 C   0  0  1  0  0  0  0  0  0  0  0  0
   16.3957  -11.5519  -17.5905 C   0  0  0  0  0  0  0  0  0  0  0  0
   16.7391  -12.0945  -16.2447 C   0  0  0  0  0  0  0  0  0  0  0  0
   16.1998  -11.7172  -15.0306 C   0  0  0  0  0  0  0  0  0  0  0  0
   16.7938  -12.4568  -14.0758 N   0  0  0  0  0  0  0  0  0  0  0  0
   17.6812  -13.2818  -14.6288 C   0  0  0  0  0  0  0  0  0  0  0  0
   17.6479  -13.0622  -15.9433 N   0  0  0  0  0  0  0  0  0  0  0  0
   17.0133   -9.2318  -16.9388 C   0  0  0  0  0  0  0  0  0  0  0  0
   15.8308   -8.7620  -16.8927 O   0  0  0  0  0  0  0  0  0  0  0  0
   18.0649   -8.6691  -16.1247 N   0  0  0  0  0  0  0  0  0  0  0  0
   17.7496   -7.5472  -15.3087 C   0  0  1  0  0  0  0  0  0  0  0  0
   18.1203   -7.7230  -13.8700 C   0  0  0  0  0  0  0  0  0  0  0  0
   17.2161   -8.5229  -13.0428 C   0  0  0  0  0  0  0  0  0  0  0  0
   16.0926   -9.2471  -13.3045 C   0  0  0  0  0  0  0  0  0  0  0  0
   15.6628   -9.8071  -12.1613 N   0  0  0  0  0  0  0  0  0  0  0  0
   16.5030   -9.4425  -11.1900 C   0  0  0  0  0  0  0  0  0  0  0  0
   17.4534   -8.6629  -11.7024 N   0  0  0  0  0  0  0  0  0  0  0  0
   18.3786   -6.2722  -15.7874 C   0  0  0  0  0  0  0  0  0  0  0  0
   19.6089   -6.2712  -16.0209 O   0  0  0  0  0  0  0  0  0  0  0  0
   17.6524   -5.0797  -15.9850 N   0  0  0  0  0  0  0  0  0  0  0  0
   18.2094   -3.8473  -16.4899 C   0  0  1  0  0  0  0  0  0  0  0  0
   17.3861   -3.1887  -17.5436 C   0  0  0  0  0  0  0  0  0  0  0  0
   17.2722   -3.9956  -18.8190 C   0  0  0  0  0  0  0  0  0  0  0  0
   16.1739   -3.4122  -19.6064 C   0  0  0  0  0  0  0  0  0  0  0  0
   16.3314   -3.2058  -20.8232 O   0  0  0  0  0  0  0  0  0  0  0  0
   18.3359   -2.9109  -15.3414 C   0  0  0  0  0  0  0  0  0  0  0  0
   17.8228   -3.1564  -14.2063 O   0  0  0  0  0  0  0  0  0  0  0  0
   14.9786   -3.0959  -19.0051 O   0  0  0  0  0  0  0  0  0  0  0  0
   19.0256   -1.7027  -15.4367 O   0  0  0  0  0  0  0  0  0  0  0  0
  2  1  1  1
  2  9  1  0
  2  3  1  0
  4  3  1  0
  4  8  1  0
  5  6  1  0
  5  4  2  0
  6  7  1  0
  7  8  2  0
  9 11  1  0
 10  9  2  0
 11 12  1  0
 12 13  1  1
 13 14  1  0
 14 18  1  0
 15 14  2  0
 15 16  1  0
 16 17  1  0
 18 17  2  0
 19 21  1  0
 19 12  1  0
 20 19  2  0
 22 27  1  0
 22 23  1  6
 22 21  1  0
 24 23  1  0
 25 24  1  0
 26 25  2  0
 27 30  1  0
 28 27  2  0
 29 25  1  0
M  END
$$$$
