HHE.pdb
     RDKit          3D

 30 31  0  0  1  0  0  0  0  0999 V2000
   19.9180  -15.8990  -18.5447 N   0  0  0  0  0  0  0  0  0  0  0  0
   20.4827  -14.7955  -19.2791 C   0  0  1  0  0  0  0  0  0  0  0  0
   19.3666  -14.1698  -20.0813 C   0  0  0  0  0  0  0  0  0  0  0  0
   19.3257  -14.8640  -21.4005 C   0  0  0  0  0  0  0  0  0  0  0  0
   20.1627  -15.8706  -21.8398 C   0  0  0  0  0  0  0  0  0  0  0  0
   19.7759  -16.2051  -23.0848 N   0  0  0  0  0  0  0  0  0  0  0  0
   18.7359  -15.4583  -23.4517 C   0  0  0  0  0  0  0  0  0  0  0  0
   18.4630  -14.6456  -22.4307 N   0  0  0  0  0  0  0  0  0  0  0  0
   21.1356  -13.8399  -18.3635 C   0  0  0  0  0  0  0  0  0  0  0  0
   20.5316  -13.4987  -17.2958 O   0  0  0  0  0  0  0  0  0  0  0  0
   22.4389  -13.3045  -18.6792 N   0  0  0  0  0  0  0  0  0  0  0  0
   23.0214  -12.3828  -17.7653 C   0  0  1  0  0  0  0  0  0  0  0  0
   24.5155  -12.3352  -17.8246 C   0  0  0  0  0  0  0  0  0  0  0  0
   25.1920  -11.4610  -16.8655 C   0  0  0  0  0  0  0  0  0  0  0  0
   24.7647  -10.7031  -15.8175 C   0  0  0  0  0  0  0  0  0  0  0  0
   25.8276  -10.1025  -15.2563 N   0  0  0  0  0  0  0  0  0  0  0  0
   26.9121  -10.4757  -15.9396 C   0  0  0  0  0  0  0  0  0  0  0  0
   26.5497  -11.3001  -16.9207 N   0  0  0  0  0  0  0  0  0  0  0  0
   22.5151  -10.9809  -17.9357 C   0  0  0  0  0  0  0  0  0  0  0  0
   22.3695  -10.5423  -19.0996 O   0  0  0  0  0  0  0  0  0  0  0  0
   22.1976  -10.1375  -16.8511 N   0  0  0  0  0  0  0  0  0  0  0  0
   21.6649   -8.8013  -16.9722 C   0  0  1  0  0  0  0  0  0  0  0  0
   21.0289   -8.2799  -15.7289 C   0  0  0  0  0  0  0  0  0  0  0  0
   20.5309   -6.8560  -15.8520 C   0  0  0  0  0  0  0  0  0  0  0  0
   19.8325   -6.5294  -14.5981 C   0  0  0  0  0  0  0  0  0  0  0  0
   19.6617   -7.4145  -13.7406 O   0  0  0  0  0  0  0  0  0  0  0  0
   22.7929   -7.9018  -17.3334 C   0  0  0  0  0  0  0  0  0  0  0  0
   23.9574   -8.0457  -16.8482 O   0  0  0  0  0  0  0  0  0  0  0  0
   19.3701   -5.2546  -14.3711 O   0  0  0  0  0  0  0  0  0  0  0  0
   22.6449   -6.8423  -18.2278 O   0  0  0  0  0  0  0  0  0  0  0  0
  2  1  1  1
  2  9  1  0
  2  3  1  0
  4  3  1  0
  4  8  1  0
  5  6  1  0
  5  4  2  0
  6  7  1  0
  7  8  2  0
  9 11  1  0
 10  9  2  0
 11 12  1  0
 12 13  1  6
 13 14  1  0
 14 18  1  0
 15 14  2  0
 15 16  1  0
 16 17  1  0
 18 17  2  0
 19 21  1  0
 19 12  1  0
 20 19  2  0
 22 27  1  0
 22 23  1  1
 22 21  1  0
 24 23  1  0
 25 24  1  0
 26 25  2  0
 27 30  1  0
 28 27  2  0
 29 25  1  0
M  END
$$$$
