HHE.pdb
     RDKit          3D

 30 31  0  0  1  0  0  0  0  0999 V2000
   20.3569  -13.4861  -19.4856 N   0  0  0  0  0  0  0  0  0  0  0  0
   20.9090  -13.4593  -18.1551 C   0  0  1  0  0  0  0  0  0  0  0  0
   21.8978  -14.5962  -18.0544 C   0  0  0  0  0  0  0  0  0  0  0  0
   21.1283  -15.8664  -18.1892 C   0  0  0  0  0  0  0  0  0  0  0  0
   20.5983  -16.4018  -19.3466 C   0  0  0  0  0  0  0  0  0  0  0  0
   19.9832  -17.5525  -19.0164 N   0  0  0  0  0  0  0  0  0  0  0  0
   20.0996  -17.7685  -17.7073 C   0  0  0  0  0  0  0  0  0  0  0  0
   20.7937  -16.7466  -17.2061 N   0  0  0  0  0  0  0  0  0  0  0  0
   21.5161  -12.1449  -17.8692 C   0  0  0  0  0  0  0  0  0  0  0  0
   22.0876  -11.9613  -16.7464 O   0  0  0  0  0  0  0  0  0  0  0  0
   21.4598  -11.0885  -18.8520 N   0  0  0  0  0  0  0  0  0  0  0  0
   21.9891   -9.8167  -18.4962 C   0  0  1  0  0  0  0  0  0  0  0  0
   22.4919   -9.0239  -19.6609 C   0  0  0  0  0  0  0  0  0  0  0  0
   23.1923   -7.7741  -19.3625 C   0  0  0  0  0  0  0  0  0  0  0  0
   23.5331   -7.1378  -18.2074 C   0  0  0  0  0  0  0  0  0  0  0  0
   24.1956   -6.0098  -18.5141 N   0  0  0  0  0  0  0  0  0  0  0  0
   24.2731   -5.9339  -19.8447 C   0  0  0  0  0  0  0  0  0  0  0  0
   23.6707   -6.9942  -20.3800 N   0  0  0  0  0  0  0  0  0  0  0  0
   21.0121   -8.9573  -17.7494 C   0  0  0  0  0  0  0  0  0  0  0  0
   19.8790   -8.7773  -18.2514 O   0  0  0  0  0  0  0  0  0  0  0  0
   21.3092   -8.3449  -16.5145 N   0  0  0  0  0  0  0  0  0  0  0  0
   20.4149   -7.4756  -15.7873 C   0  0  1  0  0  0  0  0  0  0  0  0
   19.6606   -8.1495  -14.6924 C   0  0  0  0  0  0  0  0  0  0  0  0
   18.5193   -9.0140  -15.1832 C   0  0  0  0  0  0  0  0  0  0  0  0
   17.9528   -9.6951  -14.0077 C   0  0  0  0  0  0  0  0  0  0  0  0
   18.4349   -9.4809  -12.8809 O   0  0  0  0  0  0  0  0  0  0  0  0
   21.2362   -6.3891  -15.1898 C   0  0  0  0  0  0  0  0  0  0  0  0
   22.5051   -6.4296  -15.1716 O   0  0  0  0  0  0  0  0  0  0  0  0
   16.8964  -10.5636  -14.1490 O   0  0  0  0  0  0  0  0  0  0  0  0
   20.6662   -5.2559  -14.6107 O   0  0  0  0  0  0  0  0  0  0  0  0
  2  1  1  6
  2  9  1  0
  2  3  1  0
  4  3  1  0
  4  8  1  0
  5  6  1  0
  5  4  2  0
  6  7  1  0
  7  8  2  0
  9 11  1  0
 10  9  2  0
 11 12  1  0
 12 13  1  6
 13 14  1  0
 14 18  1  0
 15 14  2  0
 15 16  1  0
 16 17  1  0
 18 17  2  0
 19 21  1  0
 19 12  1  0
 20 19  2  0
 22 27  1  0
 22 23  1  1
 22 21  1  0
 24 23  1  0
 25 24  1  0
 26 25  2  0
 27 30  1  0
 28 27  2  0
 29 25  1  0
M  END
$$$$
