HHE.pdb
     RDKit          3D

 30 31  0  0  1  0  0  0  0  0999 V2000
   21.0577  -10.7912  -20.8204 N   0  0  0  0  0  0  0  0  0  0  0  0
   21.8948   -9.9323  -20.0221 C   0  0  1  0  0  0  0  0  0  0  0  0
   22.5062   -8.9097  -20.9499 C   0  0  0  0  0  0  0  0  0  0  0  0
   23.4682   -9.6306  -21.8324 C   0  0  0  0  0  0  0  0  0  0  0  0
   23.4052   -9.7588  -23.2060 C   0  0  0  0  0  0  0  0  0  0  0  0
   24.4687  -10.4865  -23.5944 N   0  0  0  0  0  0  0  0  0  0  0  0
   25.1989  -10.8234  -22.5326 C   0  0  0  0  0  0  0  0  0  0  0  0
   24.5923  -10.3045  -21.4648 N   0  0  0  0  0  0  0  0  0  0  0  0
   21.1186   -9.3201  -18.9264 C   0  0  0  0  0  0  0  0  0  0  0  0
   19.9764   -8.8204  -19.1849 O   0  0  0  0  0  0  0  0  0  0  0  0
   21.6516   -9.2922  -17.5847 N   0  0  0  0  0  0  0  0  0  0  0  0
   20.8970   -8.6246  -16.5803 C   0  0  1  0  0  0  0  0  0  0  0  0
   20.5814   -9.4788  -15.3933 C   0  0  0  0  0  0  0  0  0  0  0  0
   19.5141  -10.4678  -15.5502 C   0  0  0  0  0  0  0  0  0  0  0  0
   18.6559  -10.7751  -16.5622 C   0  0  0  0  0  0  0  0  0  0  0  0
   17.8788  -11.8002  -16.1741 N   0  0  0  0  0  0  0  0  0  0  0  0
   18.2408  -12.1369  -14.9340 C   0  0  0  0  0  0  0  0  0  0  0  0
   19.2317  -11.3413  -14.5355 N   0  0  0  0  0  0  0  0  0  0  0  0
   21.5567   -7.3744  -16.0777 C   0  0  0  0  0  0  0  0  0  0  0  0
   22.7846   -7.4108  -15.8342 O   0  0  0  0  0  0  0  0  0  0  0  0
   20.8616   -6.1658  -15.8669 N   0  0  0  0  0  0  0  0  0  0  0  0
   21.4629   -4.9362  -15.4080 C   0  0  1  0  0  0  0  0  0  0  0  0
   20.5776   -3.7421  -15.5189 C   0  0  0  0  0  0  0  0  0  0  0  0
   21.2294   -2.4571  -15.0556 C   0  0  0  0  0  0  0  0  0  0  0  0
   20.2049   -1.4021  -15.1191 C   0  0  0  0  0  0  0  0  0  0  0  0
   19.0731   -1.6695  -15.5612 O   0  0  0  0  0  0  0  0  0  0  0  0
   21.8214   -5.1216  -13.9765 C   0  0  0  0  0  0  0  0  0  0  0  0
   21.1915   -5.9211  -13.2175 O   0  0  0  0  0  0  0  0  0  0  0  0
   20.4923   -0.1269  -14.6931 O   0  0  0  0  0  0  0  0  0  0  0  0
   22.8719   -4.4293  -13.3751 O   0  0  0  0  0  0  0  0  0  0  0  0
  2  1  1  6
  2  9  1  0
  2  3  1  0
  4  3  1  0
  4  8  1  0
  5  6  1  0
  5  4  2  0
  6  7  1  0
  7  8  2  0
  9 11  1  0
 10  9  2  0
 11 12  1  0
 12 13  1  1
 13 14  1  0
 14 18  1  0
 15 14  2  0
 15 16  1  0
 16 17  1  0
 18 17  2  0
 19 21  1  0
 19 12  1  0
 20 19  2  0
 22 27  1  0
 22 23  1  1
 22 21  1  0
 24 23  1  0
 25 24  1  0
 26 25  2  0
 27 30  1  0
 28 27  2  0
 29 25  1  0
M  END
$$$$
