HHE.pdb
     RDKit          3D

 30 31  0  0  1  0  0  0  0  0999 V2000
   29.4653   -9.0936  -20.2790 N   0  0  0  0  0  0  0  0  0  0  0  0
   28.9372   -9.2834  -18.9520 C   0  0  1  0  0  0  0  0  0  0  0  0
   29.7894   -8.4699  -18.0072 C   0  0  0  0  0  0  0  0  0  0  0  0
   31.1149   -9.1464  -17.9115 C   0  0  0  0  0  0  0  0  0  0  0  0
   32.3429   -8.6309  -18.2769 C   0  0  0  0  0  0  0  0  0  0  0  0
   33.2695   -9.5741  -18.0254 N   0  0  0  0  0  0  0  0  0  0  0  0
   32.6855  -10.6589  -17.5194 C   0  0  0  0  0  0  0  0  0  0  0  0
   31.3797  -10.3995  -17.4503 N   0  0  0  0  0  0  0  0  0  0  0  0
   27.5101   -8.9112  -18.9009 C   0  0  0  0  0  0  0  0  0  0  0  0
   27.1230   -7.8676  -19.5192 O   0  0  0  0  0  0  0  0  0  0  0  0
   26.5728   -9.7224  -18.1603 N   0  0  0  0  0  0  0  0  0  0  0  0
   25.2094   -9.3167  -18.1397 C   0  0  1  0  0  0  0  0  0  0  0  0
   24.2395  -10.4556  -18.1622 C   0  0  0  0  0  0  0  0  0  0  0  0
   22.8193  -10.1182  -18.2677 C   0  0  0  0  0  0  0  0  0  0  0  0
   22.1019   -9.3117  -19.0983 C   0  0  0  0  0  0  0  0  0  0  0  0
   20.8041   -9.3850  -18.7579 N   0  0  0  0  0  0  0  0  0  0  0  0
   20.7022  -10.2266  -17.7266 C   0  0  0  0  0  0  0  0  0  0  0  0
   21.9131  -10.6835  -17.4124 N   0  0  0  0  0  0  0  0  0  0  0  0
   24.8672   -8.4518  -16.9626 C   0  0  0  0  0  0  0  0  0  0  0  0
   25.3846   -8.7277  -15.8560 O   0  0  0  0  0  0  0  0  0  0  0  0
   23.9935   -7.3480  -17.0437 N   0  0  0  0  0  0  0  0  0  0  0  0
   23.7638   -6.3967  -15.9824 C   0  0  1  0  0  0  0  0  0  0  0  0
   23.4308   -5.0220  -16.4528 C   0  0  0  0  0  0  0  0  0  0  0  0
   23.2829   -4.0153  -15.3324 C   0  0  0  0  0  0  0  0  0  0  0  0
   22.9117   -2.7307  -15.9479 C   0  0  0  0  0  0  0  0  0  0  0  0
   22.8724   -2.6311  -17.1874 O   0  0  0  0  0  0  0  0  0  0  0  0
   22.6256   -6.9014  -15.1689 C   0  0  0  0  0  0  0  0  0  0  0  0
   22.3554   -6.4368  -14.0186 O   0  0  0  0  0  0  0  0  0  0  0  0
   22.6087   -1.6444  -15.1614 O   0  0  0  0  0  0  0  0  0  0  0  0
   21.7820   -7.9175  -15.6163 O   0  0  0  0  0  0  0  0  0  0  0  0
  2  1  1  6
  2  9  1  0
  2  3  1  0
  4  3  1  0
  4  8  1  0
  5  6  1  0
  5  4  2  0
  6  7  1  0
  7  8  2  0
  9 11  1  0
 10  9  2  0
 11 12  1  0
 12 13  1  1
 13 14  1  0
 14 18  1  0
 15 14  2  0
 15 16  1  0
 16 17  1  0
 18 17  2  0
 19 21  1  0
 19 12  1  0
 20 19  2  0
 22 27  1  0
 22 23  1  6
 22 21  1  0
 24 23  1  0
 25 24  1  0
 26 25  2  0
 27 30  1  0
 28 27  2  0
 29 25  1  0
M  END
$$$$
