FFK.pdb
     RDKit          3D

 32 33  0  0  1  0  0  0  0  0999 V2000
   26.5837  -18.4484   -7.4870 N   0  0  0  0  0  0  0  0  0  0  0  0
   27.0545  -19.7644   -7.8716 C   0  0  1  0  0  0  0  0  0  0  0  0
   26.8118  -20.7467   -6.7458 C   0  0  0  0  0  0  0  0  0  0  0  0
   27.7237  -20.4027   -5.6346 C   0  0  0  0  0  0  0  0  0  0  0  0
   27.2330  -20.0811   -4.3915 C   0  0  0  0  0  0  0  0  0  0  0  0
   28.0829  -19.7543   -3.3321 C   0  0  0  0  0  0  0  0  0  0  0  0
   29.4586  -19.7567   -3.5491 C   0  0  0  0  0  0  0  0  0  0  0  0
   29.9557  -20.0761   -4.7853 C   0  0  0  0  0  0  0  0  0  0  0  0
   29.0914  -20.3939   -5.8097 C   0  0  0  0  0  0  0  0  0  0  0  0
   26.3529  -20.1557   -9.1136 C   0  0  0  0  0  0  0  0  0  0  0  0
   25.1052  -20.1527   -9.1865 O   0  0  0  0  0  0  0  0  0  0  0  0
   27.1301  -20.5395  -10.2356 N   0  0  0  0  0  0  0  0  0  0  0  0
   26.7626  -20.1092  -11.5534 C   0  0  1  0  0  0  0  0  0  0  0  0
   28.0041  -20.1958  -12.4513 C   0  0  0  0  0  0  0  0  0  0  0  0
   27.6864  -19.8583  -13.8412 C   0  0  0  0  0  0  0  0  0  0  0  0
   27.4839  -18.5510  -14.2170 C   0  0  0  0  0  0  0  0  0  0  0  0
   27.1800  -18.2363  -15.5488 C   0  0  0  0  0  0  0  0  0  0  0  0
   27.0798  -19.2214  -16.4949 C   0  0  0  0  0  0  0  0  0  0  0  0
   27.2811  -20.5292  -16.1249 C   0  0  0  0  0  0  0  0  0  0  0  0
   27.5834  -20.8380  -14.7989 C   0  0  0  0  0  0  0  0  0  0  0  0
   25.7351  -20.9839  -12.1711 C   0  0  0  0  0  0  0  0  0  0  0  0
   25.8855  -22.2296  -12.0719 O   0  0  0  0  0  0  0  0  0  0  0  0
   24.6053  -20.5130  -12.8595 N   0  0  0  0  0  0  0  0  0  0  0  0
   23.5424  -21.3845  -13.3289 C   0  0  1  0  0  0  0  0  0  0  0  0
   22.1837  -20.8916  -12.8780 C   0  0  0  0  0  0  0  0  0  0  0  0
   21.0336  -21.6341  -13.4488 C   0  0  0  0  0  0  0  0  0  0  0  0
   19.6786  -21.2655  -12.9919 C   0  0  0  0  0  0  0  0  0  0  0  0
   18.5365  -22.0383  -13.5443 C   0  0  0  0  0  0  0  0  0  0  0  0
   17.3081  -21.6470  -12.9049 N   0  0  0  0  0  0  0  0  0  0  0  0
   23.5882  -21.3745  -14.8046 C   0  0  0  0  0  0  0  0  0  0  0  0
   23.3416  -22.5191  -15.5360 O   0  0  0  0  0  0  0  0  0  0  0  0
   23.8530  -20.3206  -15.4096 O   0  0  0  0  0  0  0  0  0  0  0  0
  2  1  1  1
  3  2  1  0
  3  4  1  0
  4  5  2  0
  5  6  1  0
  7  6  2  0
  8  7  1  0
  9  4  1  0
  9  8  2  0
 10 12  1  0
 10  2  1  0
 11 10  2  0
 13 12  1  0
 13 14  1  6
 15 16  2  0
 15 14  1  0
 17 16  1  0
 18 17  2  0
 19 18  1  0
 19 20  2  0
 20 15  1  0
 21 22  2  0
 21 13  1  0
 23 21  1  0
 24 25  1  6
 24 23  1  0
 26 27  1  0
 26 25  1  0
 27 28  1  0
 28 29  1  0
 30 24  1  0
 31 30  1  0
 32 30  2  0
M  END
$$$$
