FFK.pdb
     RDKit          3D

 32 33  0  0  1  0  0  0  0  0999 V2000
   26.6866  -21.4859  -17.1373 N   0  0  0  0  0  0  0  0  0  0  0  0
   25.4775  -20.7016  -16.9813 C   0  0  1  0  0  0  0  0  0  0  0  0
   24.6046  -20.8528  -18.2087 C   0  0  0  0  0  0  0  0  0  0  0  0
   23.4327  -19.9666  -18.0479 C   0  0  0  0  0  0  0  0  0  0  0  0
   23.5017  -18.6357  -18.3848 C   0  0  0  0  0  0  0  0  0  0  0  0
   22.4021  -17.7865  -18.2385 C   0  0  0  0  0  0  0  0  0  0  0  0
   21.2116  -18.3089  -17.7389 C   0  0  0  0  0  0  0  0  0  0  0  0
   21.1347  -19.6344  -17.4008 C   0  0  0  0  0  0  0  0  0  0  0  0
   22.2367  -20.4460  -17.5567 C   0  0  0  0  0  0  0  0  0  0  0  0
   24.7934  -21.1565  -15.7513 C   0  0  0  0  0  0  0  0  0  0  0  0
   24.4405  -22.3463  -15.6033 O   0  0  0  0  0  0  0  0  0  0  0  0
   24.5411  -20.2073  -14.7289 N   0  0  0  0  0  0  0  0  0  0  0  0
   23.8038  -20.5825  -13.5573 C   0  0  1  0  0  0  0  0  0  0  0  0
   24.1313  -19.5809  -12.4418 C   0  0  0  0  0  0  0  0  0  0  0  0
   23.4873  -19.9531  -11.1795 C   0  0  0  0  0  0  0  0  0  0  0  0
   24.1370  -20.7544  -10.2699 C   0  0  0  0  0  0  0  0  0  0  0  0
   23.5138  -21.1064   -9.0646 C   0  0  0  0  0  0  0  0  0  0  0  0
   22.2522  -20.6603   -8.7731 C   0  0  0  0  0  0  0  0  0  0  0  0
   21.5985  -19.8595   -9.6782 C   0  0  0  0  0  0  0  0  0  0  0  0
   22.2221  -19.5115  -10.8763 C   0  0  0  0  0  0  0  0  0  0  0  0
   22.3357  -20.5164  -13.7641 C   0  0  0  0  0  0  0  0  0  0  0  0
   21.8687  -19.5058  -14.3514 O   0  0  0  0  0  0  0  0  0  0  0  0
   21.4325  -21.5076  -13.3474 N   0  0  0  0  0  0  0  0  0  0  0  0
   19.9914  -21.3657  -13.4608 C   0  0  1  0  0  0  0  0  0  0  0  0
   19.4465  -22.1701  -14.6219 C   0  0  0  0  0  0  0  0  0  0  0  0
   17.9698  -22.1412  -14.7577 C   0  0  0  0  0  0  0  0  0  0  0  0
   17.3589  -22.9548  -15.8280 C   0  0  0  0  0  0  0  0  0  0  0  0
   15.8923  -22.8312  -16.0290 C   0  0  0  0  0  0  0  0  0  0  0  0
   15.4509  -23.7181  -17.0727 N   0  0  0  0  0  0  0  0  0  0  0  0
   19.4016  -21.8769  -12.2075 C   0  0  0  0  0  0  0  0  0  0  0  0
   20.0566  -22.8200  -11.4410 O   0  0  0  0  0  0  0  0  0  0  0  0
   18.2949  -21.4566  -11.8264 O   0  0  0  0  0  0  0  0  0  0  0  0
  2  1  1  6
  3  2  1  0
  3  4  1  0
  4  5  2  0
  5  6  1  0
  7  6  2  0
  8  7  1  0
  9  4  1  0
  9  8  2  0
 10 12  1  0
 10  2  1  0
 11 10  2  0
 13 12  1  0
 13 14  1  1
 15 16  2  0
 15 14  1  0
 17 16  1  0
 18 17  2  0
 19 18  1  0
 19 20  2  0
 20 15  1  0
 21 22  2  0
 21 13  1  0
 23 21  1  0
 24 25  1  6
 24 23  1  0
 26 27  1  0
 26 25  1  0
 27 28  1  0
 28 29  1  0
 30 24  1  0
 31 30  1  0
 32 30  2  0
M  END
$$$$
