FFK.pdb
     RDKit          3D

 32 33  0  0  1  0  0  0  0  0999 V2000
   23.0603  -20.4469   -9.4315 N   0  0  0  0  0  0  0  0  0  0  0  0
   22.6530  -20.8077  -10.7751 C   0  0  1  0  0  0  0  0  0  0  0  0
   21.1422  -20.8384  -10.8637 C   0  0  0  0  0  0  0  0  0  0  0  0
   20.6640  -22.0152  -10.1079 C   0  0  0  0  0  0  0  0  0  0  0  0
   20.5947  -23.2543  -10.6990 C   0  0  0  0  0  0  0  0  0  0  0  0
   20.1451  -24.3752   -9.9968 C   0  0  0  0  0  0  0  0  0  0  0  0
   19.7600  -24.2249   -8.6669 C   0  0  0  0  0  0  0  0  0  0  0  0
   19.8261  -22.9932   -8.0704 C   0  0  0  0  0  0  0  0  0  0  0  0
   20.2739  -21.9071   -8.7897 C   0  0  0  0  0  0  0  0  0  0  0  0
   23.2463  -19.8279  -11.7109 C   0  0  0  0  0  0  0  0  0  0  0  0
   23.0116  -18.6044  -11.6098 O   0  0  0  0  0  0  0  0  0  0  0  0
   24.0976  -20.3062  -12.7389 N   0  0  0  0  0  0  0  0  0  0  0  0
   24.7279  -19.3889  -13.6436 C   0  0  1  0  0  0  0  0  0  0  0  0
   26.2482  -19.5456  -13.5056 C   0  0  0  0  0  0  0  0  0  0  0  0
   26.9657  -18.6123  -14.3779 C   0  0  0  0  0  0  0  0  0  0  0  0
   27.7929  -19.0772  -15.3733 C   0  0  0  0  0  0  0  0  0  0  0  0
   28.4762  -18.1778  -16.2034 C   0  0  0  0  0  0  0  0  0  0  0  0
   28.3326  -16.8259  -16.0381 C   0  0  0  0  0  0  0  0  0  0  0  0
   27.5075  -16.3559  -15.0451 C   0  0  0  0  0  0  0  0  0  0  0  0
   26.8293  -17.2541  -14.2214 C   0  0  0  0  0  0  0  0  0  0  0  0
   24.4027  -19.6763  -15.0628 C   0  0  0  0  0  0  0  0  0  0  0  0
   24.4520  -20.8738  -15.4473 O   0  0  0  0  0  0  0  0  0  0  0  0
   24.0433  -18.6996  -16.0056 N   0  0  0  0  0  0  0  0  0  0  0  0
   23.6548  -19.0179  -17.3685 C   0  0  1  0  0  0  0  0  0  0  0  0
   22.5113  -18.1427  -17.8360 C   0  0  0  0  0  0  0  0  0  0  0  0
   21.2394  -18.8642  -18.0844 C   0  0  0  0  0  0  0  0  0  0  0  0
   20.0663  -18.0710  -18.5033 C   0  0  0  0  0  0  0  0  0  0  0  0
   18.7770  -18.7905  -18.6673 C   0  0  0  0  0  0  0  0  0  0  0  0
   19.0003  -20.1070  -19.2040 N   0  0  0  0  0  0  0  0  0  0  0  0
   24.8292  -18.7682  -18.2277 C   0  0  0  0  0  0  0  0  0  0  0  0
   25.5017  -19.8069  -18.8399 O   0  0  0  0  0  0  0  0  0  0  0  0
   25.2281  -17.6044  -18.4098 O   0  0  0  0  0  0  0  0  0  0  0  0
  2  1  1  1
  3  2  1  0
  3  4  1  0
  4  5  2  0
  5  6  1  0
  7  6  2  0
  8  7  1  0
  9  4  1  0
  9  8  2  0
 10 12  1  0
 10  2  1  0
 11 10  2  0
 13 12  1  0
 13 14  1  6
 15 16  2  0
 15 14  1  0
 17 16  1  0
 18 17  2  0
 19 18  1  0
 19 20  2  0
 20 15  1  0
 21 22  2  0
 21 13  1  0
 23 21  1  0
 24 25  1  6
 24 23  1  0
 26 27  1  0
 26 25  1  0
 27 28  1  0
 28 29  1  0
 30 24  1  0
 31 30  1  0
 32 30  2  0
M  END
$$$$
