FFK.pdb
     RDKit          3D

 32 33  0  0  1  0  0  0  0  0999 V2000
   31.2983  -20.5449   -9.7387 N   0  0  0  0  0  0  0  0  0  0  0  0
   30.5652  -21.7432  -10.0966 C   0  0  1  0  0  0  0  0  0  0  0  0
   31.3981  -22.9680   -9.7846 C   0  0  0  0  0  0  0  0  0  0  0  0
   32.4200  -23.1076  -10.8433 C   0  0  0  0  0  0  0  0  0  0  0  0
   32.4277  -22.2695  -11.9329 C   0  0  0  0  0  0  0  0  0  0  0  0
   33.3875  -22.3895  -12.9408 C   0  0  0  0  0  0  0  0  0  0  0  0
   34.3558  -23.3845  -12.8314 C   0  0  0  0  0  0  0  0  0  0  0  0
   34.3550  -24.2239  -11.7485 C   0  0  0  0  0  0  0  0  0  0  0  0
   33.3951  -24.0800  -10.7712 C   0  0  0  0  0  0  0  0  0  0  0  0
   29.2861  -21.7351   -9.3539 C   0  0  0  0  0  0  0  0  0  0  0  0
   28.8251  -22.7757   -8.8374 O   0  0  0  0  0  0  0  0  0  0  0  0
   28.5818  -20.5103   -9.2361 N   0  0  0  0  0  0  0  0  0  0  0  0
   27.1984  -20.5030   -8.8574 C   0  0  1  0  0  0  0  0  0  0  0  0
   26.9526  -19.2844   -7.9577 C   0  0  0  0  0  0  0  0  0  0  0  0
   27.5978  -19.4420   -6.6517 C   0  0  0  0  0  0  0  0  0  0  0  0
   28.8099  -18.8467   -6.3914 C   0  0  0  0  0  0  0  0  0  0  0  0
   29.4208  -19.0027   -5.1395 C   0  0  0  0  0  0  0  0  0  0  0  0
   28.8236  -19.7477   -4.1577 C   0  0  0  0  0  0  0  0  0  0  0  0
   27.6126  -20.3448   -4.4123 C   0  0  0  0  0  0  0  0  0  0  0  0
   27.0081  -20.1870   -5.6592 C   0  0  0  0  0  0  0  0  0  0  0  0
   26.2908  -20.3556  -10.0222 C   0  0  0  0  0  0  0  0  0  0  0  0
   26.4821  -19.3833  -10.7983 O   0  0  0  0  0  0  0  0  0  0  0  0
   25.2320  -21.2300  -10.3159 N   0  0  0  0  0  0  0  0  0  0  0  0
   24.4488  -21.1454  -11.5362 C   0  0  1  0  0  0  0  0  0  0  0  0
   24.2348  -22.5120  -12.1515 C   0  0  0  0  0  0  0  0  0  0  0  0
   23.3921  -22.5177  -13.3721 C   0  0  0  0  0  0  0  0  0  0  0  0
   23.1699  -23.8099  -14.0515 C   0  0  0  0  0  0  0  0  0  0  0  0
   22.3583  -23.7981  -15.2956 C   0  0  0  0  0  0  0  0  0  0  0  0
   22.3503  -25.1024  -15.9035 N   0  0  0  0  0  0  0  0  0  0  0  0
   23.1364  -20.5737  -11.1748 C   0  0  0  0  0  0  0  0  0  0  0  0
   22.2882  -20.0644  -12.1377 O   0  0  0  0  0  0  0  0  0  0  0  0
   22.7789  -20.5457   -9.9840 O   0  0  0  0  0  0  0  0  0  0  0  0
  2  1  1  1
  3  2  1  0
  3  4  1  0
  4  5  2  0
  5  6  1  0
  7  6  2  0
  8  7  1  0
  9  4  1  0
  9  8  2  0
 10 12  1  0
 10  2  1  0
 11 10  2  0
 13 12  1  0
 13 14  1  1
 15 16  2  0
 15 14  1  0
 17 16  1  0
 18 17  2  0
 19 18  1  0
 19 20  2  0
 20 15  1  0
 21 22  2  0
 21 13  1  0
 23 21  1  0
 24 25  1  1
 24 23  1  0
 26 27  1  0
 26 25  1  0
 27 28  1  0
 28 29  1  0
 30 24  1  0
 31 30  1  0
 32 30  2  0
M  END
$$$$
