FFK.pdb
     RDKit          3D

 32 33  0  0  1  0  0  0  0  0999 V2000
   26.7760  -22.0324  -18.0360 N   0  0  0  0  0  0  0  0  0  0  0  0
   26.6526  -20.9061  -17.1317 C   0  0  1  0  0  0  0  0  0  0  0  0
   25.7342  -19.8631  -17.7318 C   0  0  0  0  0  0  0  0  0  0  0  0
   26.4333  -19.2434  -18.8772 C   0  0  0  0  0  0  0  0  0  0  0  0
   26.0808  -19.5497  -20.1700 C   0  0  0  0  0  0  0  0  0  0  0  0
   26.7324  -18.9715  -21.2621 C   0  0  0  0  0  0  0  0  0  0  0  0
   27.7625  -18.0642  -21.0264 C   0  0  0  0  0  0  0  0  0  0  0  0
   28.1199  -17.7535  -19.7407 C   0  0  0  0  0  0  0  0  0  0  0  0
   27.4579  -18.3407  -18.6851 C   0  0  0  0  0  0  0  0  0  0  0  0
   26.1492  -21.4131  -15.8366 C   0  0  0  0  0  0  0  0  0  0  0  0
   25.2553  -22.2849  -15.7803 O   0  0  0  0  0  0  0  0  0  0  0  0
   26.7051  -20.8863  -14.6434 N   0  0  0  0  0  0  0  0  0  0  0  0
   26.0593  -21.1098  -13.3825 C   0  0  1  0  0  0  0  0  0  0  0  0
   26.9142  -20.4647  -12.2834 C   0  0  0  0  0  0  0  0  0  0  0  0
   26.2679  -20.5642  -10.9722 C   0  0  0  0  0  0  0  0  0  0  0  0
   25.9664  -19.4328  -10.2510 C   0  0  0  0  0  0  0  0  0  0  0  0
   25.3484  -19.5365   -8.9971 C   0  0  0  0  0  0  0  0  0  0  0  0
   25.0355  -20.7614   -8.4706 C   0  0  0  0  0  0  0  0  0  0  0  0
   25.3344  -21.8951   -9.1869 C   0  0  0  0  0  0  0  0  0  0  0  0
   25.9493  -21.7876  -10.4342 C   0  0  0  0  0  0  0  0  0  0  0  0
   24.7231  -20.4684  -13.3065 C   0  0  0  0  0  0  0  0  0  0  0  0
   24.6284  -19.2622  -13.6536 O   0  0  0  0  0  0  0  0  0  0  0  0
   23.5567  -21.1190  -12.8728 N   0  0  0  0  0  0  0  0  0  0  0  0
   22.2543  -20.4767  -12.8443 C   0  0  1  0  0  0  0  0  0  0  0  0
   21.4318  -20.8406  -14.0623 C   0  0  0  0  0  0  0  0  0  0  0  0
   20.0487  -20.3050  -14.0594 C   0  0  0  0  0  0  0  0  0  0  0  0
   19.1831  -20.6225  -15.2130 C   0  0  0  0  0  0  0  0  0  0  0  0
   17.8186  -20.0353  -15.2267 C   0  0  0  0  0  0  0  0  0  0  0  0
   17.0291  -20.5719  -14.1498 N   0  0  0  0  0  0  0  0  0  0  0  0
   21.5558  -20.9575  -11.6357 C   0  0  0  0  0  0  0  0  0  0  0  0
   20.6252  -20.1710  -10.9866 O   0  0  0  0  0  0  0  0  0  0  0  0
   21.8031  -22.0903  -11.1859 O   0  0  0  0  0  0  0  0  0  0  0  0
  2  1  1  6
  3  2  1  0
  3  4  1  0
  4  5  2  0
  5  6  1  0
  7  6  2  0
  8  7  1  0
  9  4  1  0
  9  8  2  0
 10 12  1  0
 10  2  1  0
 11 10  2  0
 13 12  1  0
 13 14  1  1
 15 16  2  0
 15 14  1  0
 17 16  1  0
 18 17  2  0
 19 18  1  0
 19 20  2  0
 20 15  1  0
 21 22  2  0
 21 13  1  0
 23 21  1  0
 24 25  1  6
 24 23  1  0
 26 27  1  0
 26 25  1  0
 27 28  1  0
 28 29  1  0
 30 24  1  0
 31 30  1  0
 32 30  2  0
M  END
$$$$
