FFK.pdb
     RDKit          3D

 32 33  0  0  1  0  0  0  0  0999 V2000
   30.4634  -26.1146  -16.8663 N   0  0  0  0  0  0  0  0  0  0  0  0
   29.3328  -26.4737  -17.6995 C   0  0  1  0  0  0  0  0  0  0  0  0
   29.6046  -27.7901  -18.3957 C   0  0  0  0  0  0  0  0  0  0  0  0
   28.9928  -27.7310  -19.7399 C   0  0  0  0  0  0  0  0  0  0  0  0
   27.8856  -28.4858  -20.0461 C   0  0  0  0  0  0  0  0  0  0  0  0
   27.2966  -28.4397  -21.3121 C   0  0  0  0  0  0  0  0  0  0  0  0
   27.8508  -27.6068  -22.2809 C   0  0  0  0  0  0  0  0  0  0  0  0
   28.9545  -26.8512  -21.9836 C   0  0  0  0  0  0  0  0  0  0  0  0
   29.5121  -26.9188  -20.7259 C   0  0  0  0  0  0  0  0  0  0  0  0
   28.1321  -26.5363  -16.8381 C   0  0  0  0  0  0  0  0  0  0  0  0
   28.1493  -27.1277  -15.7371 O   0  0  0  0  0  0  0  0  0  0  0  0
   26.9447  -25.9056  -17.2883 N   0  0  0  0  0  0  0  0  0  0  0  0
   25.7716  -25.8956  -16.4632 C   0  0  1  0  0  0  0  0  0  0  0  0
   25.2461  -24.4555  -16.3921 C   0  0  0  0  0  0  0  0  0  0  0  0
   24.0107  -24.3726  -15.6088 C   0  0  0  0  0  0  0  0  0  0  0  0
   22.7937  -24.2235  -16.2316 C   0  0  0  0  0  0  0  0  0  0  0  0
   21.6163  -24.1445  -15.4749 C   0  0  0  0  0  0  0  0  0  0  0  0
   21.6574  -24.2141  -14.1078 C   0  0  0  0  0  0  0  0  0  0  0  0
   22.8707  -24.3631  -13.4803 C   0  0  0  0  0  0  0  0  0  0  0  0
   24.0398  -24.4413  -14.2369 C   0  0  0  0  0  0  0  0  0  0  0  0
   24.6723  -26.7170  -17.0281 C   0  0  0  0  0  0  0  0  0  0  0  0
   24.4409  -26.6227  -18.2618 O   0  0  0  0  0  0  0  0  0  0  0  0
   23.8725  -27.5931  -16.2766 N   0  0  0  0  0  0  0  0  0  0  0  0
   22.8808  -28.4707  -16.8731 C   0  0  1  0  0  0  0  0  0  0  0  0
   22.8283  -29.8077  -16.1645 C   0  0  0  0  0  0  0  0  0  0  0  0
   21.9018  -30.7949  -16.7704 C   0  0  0  0  0  0  0  0  0  0  0  0
   21.7841  -32.1178  -16.1248 C   0  0  0  0  0  0  0  0  0  0  0  0
   20.8761  -33.1091  -16.7568 C   0  0  0  0  0  0  0  0  0  0  0  0
   20.7643  -34.2848  -15.9345 N   0  0  0  0  0  0  0  0  0  0  0  0
   21.5696  -27.8060  -16.7361 C   0  0  0  0  0  0  0  0  0  0  0  0
   21.0126  -27.5711  -15.4950 O   0  0  0  0  0  0  0  0  0  0  0  0
   20.9471  -27.4474  -17.7514 O   0  0  0  0  0  0  0  0  0  0  0  0
  2  1  1  1
  3  2  1  0
  3  4  1  0
  4  5  2  0
  5  6  1  0
  7  6  2  0
  8  7  1  0
  9  4  1  0
  9  8  2  0
 10 12  1  0
 10  2  1  0
 11 10  2  0
 13 12  1  0
 13 14  1  6
 15 16  2  0
 15 14  1  0
 17 16  1  0
 18 17  2  0
 19 18  1  0
 19 20  2  0
 20 15  1  0
 21 22  2  0
 21 13  1  0
 23 21  1  0
 24 25  1  1
 24 23  1  0
 26 27  1  0
 26 25  1  0
 27 28  1  0
 28 29  1  0
 30 24  1  0
 31 30  1  0
 32 30  2  0
M  END
$$$$
