FFK.pdb
     RDKit          3D

 32 33  0  0  1  0  0  0  0  0999 V2000
   26.1706  -20.2726  -19.4917 N   0  0  0  0  0  0  0  0  0  0  0  0
   25.2919  -19.4483  -18.6855 C   0  0  1  0  0  0  0  0  0  0  0  0
   24.0822  -19.0388  -19.4981 C   0  0  0  0  0  0  0  0  0  0  0  0
   24.5327  -18.1000  -20.5470 C   0  0  0  0  0  0  0  0  0  0  0  0
   24.9277  -16.8222  -20.2294 C   0  0  0  0  0  0  0  0  0  0  0  0
   25.3562  -15.9244  -21.2102 C   0  0  0  0  0  0  0  0  0  0  0  0
   25.3807  -16.3419  -22.5386 C   0  0  0  0  0  0  0  0  0  0  0  0
   24.9886  -17.6139  -22.8634 C   0  0  0  0  0  0  0  0  0  0  0  0
   24.5712  -18.4757  -21.8732 C   0  0  0  0  0  0  0  0  0  0  0  0
   24.9185  -20.2211  -17.4809 C   0  0  0  0  0  0  0  0  0  0  0  0
   24.6993  -21.4503  -17.5365 O   0  0  0  0  0  0  0  0  0  0  0  0
   24.8118  -19.5348  -16.2449 N   0  0  0  0  0  0  0  0  0  0  0  0
   24.4165  -20.2362  -15.0579 C   0  0  1  0  0  0  0  0  0  0  0  0
   24.9283  -19.4513  -13.8426 C   0  0  0  0  0  0  0  0  0  0  0  0
   24.5539  -20.1037  -12.5853 C   0  0  0  0  0  0  0  0  0  0  0  0
   25.2882  -21.1588  -12.0966 C   0  0  0  0  0  0  0  0  0  0  0  0
   24.9232  -21.7779  -10.8931 C   0  0  0  0  0  0  0  0  0  0  0  0
   23.8334  -21.3446  -10.1859 C   0  0  0  0  0  0  0  0  0  0  0  0
   23.0962  -20.2908  -10.6696 C   0  0  0  0  0  0  0  0  0  0  0  0
   23.4627  -19.6775  -11.8674 C   0  0  0  0  0  0  0  0  0  0  0  0
   22.9421  -20.3220  -14.9126 C   0  0  0  0  0  0  0  0  0  0  0  0
   22.2832  -19.2503  -14.9520 O   0  0  0  0  0  0  0  0  0  0  0  0
   22.2331  -21.5209  -14.7340 N   0  0  0  0  0  0  0  0  0  0  0  0
   20.7940  -21.5704  -14.5439 C   0  0  1  0  0  0  0  0  0  0  0  0
   20.1881  -22.7806  -15.2227 C   0  0  0  0  0  0  0  0  0  0  0  0
   19.7873  -22.5643  -16.6342 C   0  0  0  0  0  0  0  0  0  0  0  0
   20.8555  -22.4843  -17.6507 C   0  0  0  0  0  0  0  0  0  0  0  0
   20.4407  -22.3232  -19.0680 C   0  0  0  0  0  0  0  0  0  0  0  0
   21.5920  -22.1373  -19.9111 N   0  0  0  0  0  0  0  0  0  0  0  0
   20.5476  -21.6646  -13.0912 C   0  0  0  0  0  0  0  0  0  0  0  0
   19.5740  -20.9005  -12.4796 O   0  0  0  0  0  0  0  0  0  0  0  0
   21.2241  -22.4436  -12.3968 O   0  0  0  0  0  0  0  0  0  0  0  0
  2  1  1  6
  3  2  1  0
  3  4  1  0
  4  5  2  0
  5  6  1  0
  7  6  2  0
  8  7  1  0
  9  4  1  0
  9  8  2  0
 10 12  1  0
 10  2  1  0
 11 10  2  0
 13 12  1  0
 13 14  1  1
 15 16  2  0
 15 14  1  0
 17 16  1  0
 18 17  2  0
 19 18  1  0
 19 20  2  0
 20 15  1  0
 21 22  2  0
 21 13  1  0
 23 21  1  0
 24 25  1  6
 24 23  1  0
 26 27  1  0
 26 25  1  0
 27 28  1  0
 28 29  1  0
 30 24  1  0
 31 30  1  0
 32 30  2  0
M  END
$$$$
