FFK.pdb
     RDKit          3D

 32 33  0  0  1  0  0  0  0  0999 V2000
   28.3875  -21.5906  -13.9276 N   0  0  0  0  0  0  0  0  0  0  0  0
   28.0506  -20.4478  -13.1018 C   0  0  1  0  0  0  0  0  0  0  0  0
   26.8533  -19.7277  -13.6841 C   0  0  0  0  0  0  0  0  0  0  0  0
   27.2856  -19.0527  -14.9260 C   0  0  0  0  0  0  0  0  0  0  0  0
   26.8722  -19.5047  -16.1566 C   0  0  0  0  0  0  0  0  0  0  0  0
   27.2725  -18.8765  -17.3384 C   0  0  0  0  0  0  0  0  0  0  0  0
   28.1104  -17.7669  -17.2590 C   0  0  0  0  0  0  0  0  0  0  0  0
   28.5269  -17.3102  -16.0362 C   0  0  0  0  0  0  0  0  0  0  0  0
   28.1147  -17.9514  -14.8889 C   0  0  0  0  0  0  0  0  0  0  0  0
   27.7940  -20.9359  -11.7292 C   0  0  0  0  0  0  0  0  0  0  0  0
   27.1305  -21.9741  -11.5195 O   0  0  0  0  0  0  0  0  0  0  0  0
   28.3205  -20.1961  -10.6404 N   0  0  0  0  0  0  0  0  0  0  0  0
   27.9523  -20.5264   -9.2941 C   0  0  1  0  0  0  0  0  0  0  0  0
   28.8236  -19.6980   -8.3403 C   0  0  0  0  0  0  0  0  0  0  0  0
   28.3908  -19.8498   -6.9488 C   0  0  0  0  0  0  0  0  0  0  0  0
   27.5434  -18.9321   -6.3735 C   0  0  0  0  0  0  0  0  0  0  0  0
   27.1344  -19.0843   -5.0414 C   0  0  0  0  0  0  0  0  0  0  0  0
   27.5698  -20.1452   -4.2928 C   0  0  0  0  0  0  0  0  0  0  0  0
   28.4165  -21.0651   -4.8625 C   0  0  0  0  0  0  0  0  0  0  0  0
   28.8211  -20.9101   -6.1882 C   0  0  0  0  0  0  0  0  0  0  0  0
   26.5432  -20.1757   -8.9879 C   0  0  0  0  0  0  0  0  0  0  0  0
   26.1960  -18.9720   -9.1102 O   0  0  0  0  0  0  0  0  0  0  0  0
   25.5709  -21.0988   -8.5703 N   0  0  0  0  0  0  0  0  0  0  0  0
   24.1562  -20.7794   -8.4910 C   0  0  1  0  0  0  0  0  0  0  0  0
   23.4006  -21.3145   -9.6889 C   0  0  0  0  0  0  0  0  0  0  0  0
   21.9326  -21.1092   -9.6387 C   0  0  0  0  0  0  0  0  0  0  0  0
   21.1221  -21.6457  -10.7505 C   0  0  0  0  0  0  0  0  0  0  0  0
   19.6725  -21.3211  -10.7591 C   0  0  0  0  0  0  0  0  0  0  0  0
   19.0376  -21.8848  -11.9211 N   0  0  0  0  0  0  0  0  0  0  0  0
   23.6307  -21.4211   -7.2696 C   0  0  0  0  0  0  0  0  0  0  0  0
   22.4444  -21.0071   -6.6975 O   0  0  0  0  0  0  0  0  0  0  0  0
   24.2607  -22.3526   -6.7384 O   0  0  0  0  0  0  0  0  0  0  0  0
  2  1  1  6
  3  2  1  0
  3  4  1  0
  4  5  2  0
  5  6  1  0
  7  6  2  0
  8  7  1  0
  9  4  1  0
  9  8  2  0
 10 12  1  0
 10  2  1  0
 11 10  2  0
 13 12  1  0
 13 14  1  1
 15 16  2  0
 15 14  1  0
 17 16  1  0
 18 17  2  0
 19 18  1  0
 19 20  2  0
 20 15  1  0
 21 22  2  0
 21 13  1  0
 23 21  1  0
 24 25  1  6
 24 23  1  0
 26 27  1  0
 26 25  1  0
 27 28  1  0
 28 29  1  0
 30 24  1  0
 31 30  1  0
 32 30  2  0
M  END
$$$$
