FFK.pdb
     RDKit          3D

 32 33  0  0  1  0  0  0  0  0999 V2000
   24.4197  -16.5775  -19.5857 N   0  0  0  0  0  0  0  0  0  0  0  0
   23.3009  -16.7894  -18.6885 C   0  0  1  0  0  0  0  0  0  0  0  0
   22.0569  -17.1171  -19.4862 C   0  0  0  0  0  0  0  0  0  0  0  0
   21.5638  -15.8654  -20.0983 C   0  0  0  0  0  0  0  0  0  0  0  0
   20.7805  -14.9902  -19.3841 C   0  0  0  0  0  0  0  0  0  0  0  0
   20.3077  -13.8035  -19.9496 C   0  0  0  0  0  0  0  0  0  0  0  0
   20.6426  -13.5078  -21.2687 C   0  0  0  0  0  0  0  0  0  0  0  0
   21.4229  -14.3749  -21.9874 C   0  0  0  0  0  0  0  0  0  0  0  0
   21.8736  -15.5372  -21.4013 C   0  0  0  0  0  0  0  0  0  0  0  0
   23.6652  -17.8756  -17.7528 C   0  0  0  0  0  0  0  0  0  0  0  0
   24.4438  -18.7933  -18.0901 O   0  0  0  0  0  0  0  0  0  0  0  0
   23.1086  -17.8582  -16.4489 N   0  0  0  0  0  0  0  0  0  0  0  0
   23.5005  -18.8408  -15.4804 C   0  0  1  0  0  0  0  0  0  0  0  0
   24.3832  -18.1544  -14.4293 C   0  0  0  0  0  0  0  0  0  0  0  0
   25.7411  -17.9304  -14.9317 C   0  0  0  0  0  0  0  0  0  0  0  0
   26.6184  -18.9798  -15.0744 C   0  0  0  0  0  0  0  0  0  0  0  0
   27.9161  -18.7571  -15.5554 C   0  0  0  0  0  0  0  0  0  0  0  0
   28.3312  -17.4957  -15.8902 C   0  0  0  0  0  0  0  0  0  0  0  0
   27.4588  -16.4436  -15.7496 C   0  0  0  0  0  0  0  0  0  0  0  0
   26.1685  -16.6694  -15.2707 C   0  0  0  0  0  0  0  0  0  0  0  0
   22.3422  -19.4115  -14.7489 C   0  0  0  0  0  0  0  0  0  0  0  0
   21.5252  -18.6110  -14.2235 O   0  0  0  0  0  0  0  0  0  0  0  0
   22.0974  -20.7866  -14.6042 N   0  0  0  0  0  0  0  0  0  0  0  0
   20.9389  -21.3169  -13.9069 C   0  0  1  0  0  0  0  0  0  0  0  0
   21.0012  -22.8258  -13.7994 C   0  0  0  0  0  0  0  0  0  0  0  0
   19.8193  -23.4514  -13.1578 C   0  0  0  0  0  0  0  0  0  0  0  0
   18.9110  -24.2455  -14.0094 C   0  0  0  0  0  0  0  0  0  0  0  0
   17.7277  -24.8633  -13.3577 C   0  0  0  0  0  0  0  0  0  0  0  0
   16.9107  -25.5365  -14.3325 N   0  0  0  0  0  0  0  0  0  0  0  0
   20.9450  -20.7408  -12.5474 C   0  0  0  0  0  0  0  0  0  0  0  0
   19.7675  -20.4733  -11.8784 O   0  0  0  0  0  0  0  0  0  0  0  0
   22.0256  -20.4882  -11.9859 O   0  0  0  0  0  0  0  0  0  0  0  0
  2  1  1  6
  3  2  1  0
  3  4  1  0
  4  5  2  0
  5  6  1  0
  7  6  2  0
  8  7  1  0
  9  4  1  0
  9  8  2  0
 10 12  1  0
 10  2  1  0
 11 10  2  0
 13 12  1  0
 13 14  1  1
 15 16  2  0
 15 14  1  0
 17 16  1  0
 18 17  2  0
 19 18  1  0
 19 20  2  0
 20 15  1  0
 21 22  2  0
 21 13  1  0
 23 21  1  0
 24 25  1  1
 24 23  1  0
 26 27  1  0
 26 25  1  0
 27 28  1  0
 28 29  1  0
 30 24  1  0
 31 30  1  0
 32 30  2  0
M  END
$$$$
