EKI.pdb
     RDKit          3D

 27 26  0  0  1  0  0  0  0  0999 V2000
    8.7979  -17.2647   18.4652 N   0  0  0  0  0  0  0  0  0  0  0  0
    9.2121  -17.5946   19.7803 C   0  0  1  0  0  0  0  0  0  0  0  0
   10.6423  -17.3778   20.1155 C   0  0  0  0  0  0  0  0  0  0  0  0
   11.6459  -17.9915   19.1937 C   0  0  0  0  0  0  0  0  0  0  0  0
   13.0470  -17.9095   19.5900 C   0  0  0  0  0  0  0  0  0  0  0  0
   13.9703  -17.4625   18.8862 O   0  0  0  0  0  0  0  0  0  0  0  0
    8.3030  -17.0014   20.8259 C   0  0  0  0  0  0  0  0  0  0  0  0
    7.7899  -15.8745   20.6042 O   0  0  0  0  0  0  0  0  0  0  0  0
   13.3997  -18.3693   20.8692 O   0  0  0  0  0  0  0  0  0  0  0  0
    8.0087  -17.6514   22.0273 N   0  0  0  0  0  0  0  0  0  0  0  0
    6.9856  -17.1453   22.9887 C   0  0  1  0  0  0  0  0  0  0  0  0
    6.0791  -18.2751   23.3290 C   0  0  0  0  0  0  0  0  0  0  0  0
    6.7269  -19.5195   23.8417 C   0  0  0  0  0  0  0  0  0  0  0  0
    5.7320  -20.6442   24.0609 C   0  0  0  0  0  0  0  0  0  0  0  0
    6.3702  -21.8975   24.5949 C   0  0  0  0  0  0  0  0  0  0  0  0
    5.3824  -22.9466   24.8093 N   0  0  0  0  0  0  0  0  0  0  0  0
    7.7278  -16.5078   24.0665 C   0  0  0  0  0  0  0  0  0  0  0  0
    8.9636  -16.7798   24.1745 O   0  0  0  0  0  0  0  0  0  0  0  0
    6.0074  -11.6663   25.7544 C   0  0  0  0  0  0  0  0  0  0  0  0
    6.9250  -12.7400   25.3333 C   0  0  0  0  0  0  0  0  0  0  0  0
    7.5536  -13.5992   26.3711 C   0  0  2  0  0  0  0  0  0  0  0  0
    8.3319  -12.8042   27.3947 C   0  0  0  0  0  0  0  0  0  0  0  0
    8.1464  -14.8443   25.8942 C   0  0  2  0  0  0  0  0  0  0  0  0
    7.2651  -15.6062   25.0269 N   0  0  0  0  0  0  0  0  0  0  0  0
    8.6929  -15.7723   26.8863 C   0  0  0  0  0  0  0  0  0  0  0  0
    9.7912  -15.6697   27.4900 O   0  0  0  0  0  0  0  0  0  0  0  0
    7.9402  -16.9127   27.2296 O   0  0  0  0  0  0  0  0  0  0  0  0
  2  1  1  6
  3  2  1  0
  4  3  1  0
  5  4  1  0
  5  6  2  0
  7  2  1  0
  7  8  2  0
  9  5  1  0
 10  7  1  0
 11 10  1  0
 11 12  1  1
 13 12  1  0
 13 14  1  0
 15 14  1  0
 16 15  1  0
 17 11  1  0
 18 17  2  0
 19 20  1  0
 20 21  1  0
 21 22  1  6
 21 23  1  0
 23 25  1  0
 23 24  1  1
 24 17  1  0
 25 27  1  0
 26 25  2  0
M  END
$$$$
