EKI.pdb
     RDKit          3D

 27 26  0  0  1  0  0  0  0  0999 V2000
   11.9212  -18.3979   20.0289 N   0  0  0  0  0  0  0  0  0  0  0  0
   11.7211  -18.1698   21.4137 C   0  0  1  0  0  0  0  0  0  0  0  0
   12.9046  -18.3013   22.3008 C   0  0  0  0  0  0  0  0  0  0  0  0
   13.4456  -19.6810   22.4940 C   0  0  0  0  0  0  0  0  0  0  0  0
   14.5973  -19.8235   23.3774 C   0  0  0  0  0  0  0  0  0  0  0  0
   14.5465  -20.1019   24.5889 O   0  0  0  0  0  0  0  0  0  0  0  0
   10.9747  -16.8866   21.6742 C   0  0  0  0  0  0  0  0  0  0  0  0
   11.6089  -15.8019   21.6154 O   0  0  0  0  0  0  0  0  0  0  0  0
   15.8768  -19.6339   22.8306 O   0  0  0  0  0  0  0  0  0  0  0  0
    9.6110  -16.8545   21.9773 N   0  0  0  0  0  0  0  0  0  0  0  0
    8.8489  -15.5808   22.1322 C   0  0  1  0  0  0  0  0  0  0  0  0
    7.5514  -15.7344   21.4201 C   0  0  0  0  0  0  0  0  0  0  0  0
    7.0566  -14.5414   20.6696 C   0  0  0  0  0  0  0  0  0  0  0  0
    7.8311  -14.2998   19.3873 C   0  0  0  0  0  0  0  0  0  0  0  0
    7.4466  -13.0173   18.7013 C   0  0  0  0  0  0  0  0  0  0  0  0
    8.2456  -12.7955   17.5036 N   0  0  0  0  0  0  0  0  0  0  0  0
    8.8229  -15.2993   23.5601 C   0  0  0  0  0  0  0  0  0  0  0  0
    8.9176  -16.2827   24.3580 O   0  0  0  0  0  0  0  0  0  0  0  0
    6.5050  -11.4335   27.7943 C   0  0  0  0  0  0  0  0  0  0  0  0
    7.3976  -12.5373   27.3977 C   0  0  0  0  0  0  0  0  0  0  0  0
    7.4947  -12.9050   25.9606 C   0  0  2  0  0  0  0  0  0  0  0  0
    6.1434  -12.9996   25.2892 C   0  0  0  0  0  0  0  0  0  0  0  0
    8.4831  -13.9258   25.6292 C   0  0  2  0  0  0  0  0  0  0  0  0
    8.7113  -14.0642   24.2015 N   0  0  0  0  0  0  0  0  0  0  0  0
    8.2941  -15.2716   26.1742 C   0  0  0  0  0  0  0  0  0  0  0  0
    7.8660  -16.2811   25.5587 O   0  0  0  0  0  0  0  0  0  0  0  0
    8.6143  -15.5026   27.5267 O   0  0  0  0  0  0  0  0  0  0  0  0
  2  1  1  6
  3  2  1  0
  4  3  1  0
  5  4  1  0
  5  6  2  0
  7  2  1  0
  7  8  2  0
  9  5  1  0
 10  7  1  0
 11 10  1  0
 11 12  1  1
 13 12  1  0
 13 14  1  0
 15 14  1  0
 16 15  1  0
 17 11  1  0
 18 17  2  0
 19 20  1  0
 20 21  1  0
 21 22  1  1
 21 23  1  0
 23 25  1  0
 23 24  1  6
 24 17  1  0
 25 27  1  0
 26 25  2  0
M  END
$$$$
