EKI.pdb
     RDKit          3D

 27 26  0  0  1  0  0  0  0  0999 V2000
    9.9159  -16.7160   19.0126 N   0  0  0  0  0  0  0  0  0  0  0  0
   10.4113  -17.3119   20.1997 C   0  0  1  0  0  0  0  0  0  0  0  0
   11.8442  -17.0931   20.5217 C   0  0  0  0  0  0  0  0  0  0  0  0
   12.2302  -15.7149   20.9519 C   0  0  0  0  0  0  0  0  0  0  0  0
   13.6296  -15.4968   21.2997 C   0  0  0  0  0  0  0  0  0  0  0  0
   14.5811  -15.5023   20.4982 O   0  0  0  0  0  0  0  0  0  0  0  0
    9.5280  -17.0274   21.3873 C   0  0  0  0  0  0  0  0  0  0  0  0
    8.7678  -16.0261   21.3426 O   0  0  0  0  0  0  0  0  0  0  0  0
   13.9462  -15.2595   22.6472 O   0  0  0  0  0  0  0  0  0  0  0  0
    9.5201  -17.8290   22.5318 N   0  0  0  0  0  0  0  0  0  0  0  0
    8.4502  -17.7441   23.5688 C   0  0  1  0  0  0  0  0  0  0  0  0
    8.3377  -19.0771   24.2204 C   0  0  0  0  0  0  0  0  0  0  0  0
    7.3447  -19.1960   25.3298 C   0  0  0  0  0  0  0  0  0  0  0  0
    7.3125  -20.5877   25.9338 C   0  0  0  0  0  0  0  0  0  0  0  0
    6.3524  -20.7063   27.0859 C   0  0  0  0  0  0  0  0  0  0  0  0
    6.3361  -22.0589   27.6265 N   0  0  0  0  0  0  0  0  0  0  0  0
    8.7857  -16.5966   24.3992 C   0  0  0  0  0  0  0  0  0  0  0  0
   10.0143  -16.3069   24.5381 O   0  0  0  0  0  0  0  0  0  0  0  0
    6.9160  -11.1186   26.6547 C   0  0  0  0  0  0  0  0  0  0  0  0
    7.8378  -12.2670   26.5954 C   0  0  0  0  0  0  0  0  0  0  0  0
    7.3938  -13.5134   25.9175 C   0  0  2  0  0  0  0  0  0  0  0  0
    5.9781  -13.9023   26.2784 C   0  0  0  0  0  0  0  0  0  0  0  0
    8.3843  -14.5816   25.8351 C   0  0  2  0  0  0  0  0  0  0  0  0
    7.9248  -15.7360   25.0829 N   0  0  0  0  0  0  0  0  0  0  0  0
    8.9696  -15.0773   27.0824 C   0  0  0  0  0  0  0  0  0  0  0  0
    9.7268  -14.4460   27.8631 O   0  0  0  0  0  0  0  0  0  0  0  0
    8.6782  -16.3950   27.4873 O   0  0  0  0  0  0  0  0  0  0  0  0
  2  1  1  6
  3  2  1  0
  4  3  1  0
  5  4  1  0
  5  6  2  0
  7  2  1  0
  7  8  2  0
  9  5  1  0
 10  7  1  0
 11 10  1  0
 11 12  1  1
 13 12  1  0
 13 14  1  0
 15 14  1  0
 16 15  1  0
 17 11  1  0
 18 17  2  0
 19 20  1  0
 20 21  1  0
 21 22  1  1
 21 23  1  0
 23 25  1  0
 23 24  1  1
 24 17  1  0
 25 27  1  0
 26 25  2  0
M  END
$$$$
