EKI.pdb
     RDKit          3D

 27 26  0  0  1  0  0  0  0  0999 V2000
    7.9885  -17.3056   19.0349 N   0  0  0  0  0  0  0  0  0  0  0  0
    8.5670  -17.9351   20.1658 C   0  0  1  0  0  0  0  0  0  0  0  0
   10.0487  -17.9293   20.2615 C   0  0  0  0  0  0  0  0  0  0  0  0
   10.7100  -16.5903   20.3198 C   0  0  0  0  0  0  0  0  0  0  0  0
   12.1644  -16.5735   20.4271 C   0  0  0  0  0  0  0  0  0  0  0  0
   12.8091  -16.5965   21.4908 O   0  0  0  0  0  0  0  0  0  0  0  0
    7.9279  -17.4835   21.4539 C   0  0  0  0  0  0  0  0  0  0  0  0
    7.3066  -16.3898   21.4634 O   0  0  0  0  0  0  0  0  0  0  0  0
   12.9139  -16.5277   19.2404 O   0  0  0  0  0  0  0  0  0  0  0  0
    7.9980  -18.2290   22.6336 N   0  0  0  0  0  0  0  0  0  0  0  0
    7.1204  -17.9612   23.8105 C   0  0  1  0  0  0  0  0  0  0  0  0
    6.8114  -19.2652   24.4572 C   0  0  0  0  0  0  0  0  0  0  0  0
    6.1624  -20.2996   23.5970 C   0  0  0  0  0  0  0  0  0  0  0  0
    4.6616  -20.1047   23.4867 C   0  0  0  0  0  0  0  0  0  0  0  0
    3.9966  -21.1402   22.6214 C   0  0  0  0  0  0  0  0  0  0  0  0
    3.8647  -22.4113   23.3206 N   0  0  0  0  0  0  0  0  0  0  0  0
    7.8036  -16.9454   24.5982 C   0  0  0  0  0  0  0  0  0  0  0  0
    9.0710  -16.9978   24.6586 O   0  0  0  0  0  0  0  0  0  0  0  0
    5.7097  -11.9358   25.6607 C   0  0  0  0  0  0  0  0  0  0  0  0
    6.6166  -13.0552   25.3500 C   0  0  0  0  0  0  0  0  0  0  0  0
    7.3250  -13.7394   26.4636 C   0  0  2  0  0  0  0  0  0  0  0  0
    8.0148  -12.7724   27.3989 C   0  0  0  0  0  0  0  0  0  0  0  0
    8.0427  -14.9592   26.1084 C   0  0  2  0  0  0  0  0  0  0  0  0
    7.2505  -15.8831   25.3159 N   0  0  0  0  0  0  0  0  0  0  0  0
    8.6667  -15.7306   27.1853 C   0  0  0  0  0  0  0  0  0  0  0  0
    9.7254  -15.4459   27.8010 O   0  0  0  0  0  0  0  0  0  0  0  0
    8.0471  -16.9238   27.6065 O   0  0  0  0  0  0  0  0  0  0  0  0
  2  1  1  6
  3  2  1  0
  4  3  1  0
  5  4  1  0
  5  6  2  0
  7  2  1  0
  7  8  2  0
  9  5  1  0
 10  7  1  0
 11 10  1  0
 11 12  1  1
 13 12  1  0
 13 14  1  0
 15 14  1  0
 16 15  1  0
 17 11  1  0
 18 17  2  0
 19 20  1  0
 20 21  1  0
 21 22  1  6
 21 23  1  0
 23 25  1  0
 23 24  1  1
 24 17  1  0
 25 27  1  0
 26 25  2  0
M  END
$$$$
