EKI.pdb
     RDKit          3D

 27 26  0  0  1  0  0  0  0  0999 V2000
    8.4616  -13.2285   18.5038 N   0  0  0  0  0  0  0  0  0  0  0  0
    9.0682  -14.2415   19.2885 C   0  0  1  0  0  0  0  0  0  0  0  0
   10.4903  -14.0455   19.6677 C   0  0  0  0  0  0  0  0  0  0  0  0
   11.4846  -14.0336   18.5519 C   0  0  0  0  0  0  0  0  0  0  0  0
   12.8807  -13.8119   18.9106 C   0  0  0  0  0  0  0  0  0  0  0  0
   13.2791  -13.1106   19.8578 O   0  0  0  0  0  0  0  0  0  0  0  0
    8.2247  -14.6160   20.4801 C   0  0  0  0  0  0  0  0  0  0  0  0
    7.4468  -13.7514   20.9592 O   0  0  0  0  0  0  0  0  0  0  0  0
   13.8697  -14.4346   18.1321 O   0  0  0  0  0  0  0  0  0  0  0  0
    8.2726  -15.8811   21.0714 N   0  0  0  0  0  0  0  0  0  0  0  0
    7.3270  -16.3061   22.1449 C   0  0  1  0  0  0  0  0  0  0  0  0
    6.9959  -17.7396   21.9219 C   0  0  0  0  0  0  0  0  0  0  0  0
    6.2624  -18.4341   23.0222 C   0  0  0  0  0  0  0  0  0  0  0  0
    5.9795  -19.8903   22.7028 C   0  0  0  0  0  0  0  0  0  0  0  0
    5.1667  -20.5780   23.7656 C   0  0  0  0  0  0  0  0  0  0  0  0
    5.0542  -22.0071   23.5066 N   0  0  0  0  0  0  0  0  0  0  0  0
    7.9537  -15.9307   23.4040 C   0  0  0  0  0  0  0  0  0  0  0  0
    9.2095  -16.0873   23.5088 O   0  0  0  0  0  0  0  0  0  0  0  0
    6.3043  -11.5839   26.0461 C   0  0  0  0  0  0  0  0  0  0  0  0
    7.1206  -12.6770   25.4886 C   0  0  0  0  0  0  0  0  0  0  0  0
    7.5221  -13.8011   26.3748 C   0  0  2  0  0  0  0  0  0  0  0  0
    8.1699  -13.3312   27.6574 C   0  0  0  0  0  0  0  0  0  0  0  0
    8.1103  -14.9587   25.7092 C   0  0  2  0  0  0  0  0  0  0  0  0
    7.3562  -15.4004   24.5491 N   0  0  0  0  0  0  0  0  0  0  0  0
    8.4032  -16.1440   26.5175 C   0  0  0  0  0  0  0  0  0  0  0  0
    7.6610  -17.1453   26.6839 O   0  0  0  0  0  0  0  0  0  0  0  0
    9.6363  -16.2096   27.1961 O   0  0  0  0  0  0  0  0  0  0  0  0
  2  1  1  1
  3  2  1  0
  4  3  1  0
  5  4  1  0
  5  6  2  0
  7  2  1  0
  7  8  2  0
  9  5  1  0
 10  7  1  0
 11 10  1  0
 11 12  1  1
 13 12  1  0
 13 14  1  0
 15 14  1  0
 16 15  1  0
 17 11  1  0
 18 17  2  0
 19 20  1  0
 20 21  1  0
 21 22  1  1
 21 23  1  0
 23 25  1  0
 23 24  1  6
 24 17  1  0
 25 27  1  0
 26 25  2  0
M  END
$$$$
