EKI.pdb
     RDKit          3D

 27 26  0  0  1  0  0  0  0  0999 V2000
   10.2145  -17.3243   19.7991 N   0  0  0  0  0  0  0  0  0  0  0  0
    9.0001  -16.6034   19.6754 C   0  0  1  0  0  0  0  0  0  0  0  0
    8.1402  -16.9187   18.5066 C   0  0  0  0  0  0  0  0  0  0  0  0
    8.0169  -18.3614   18.1367 C   0  0  0  0  0  0  0  0  0  0  0  0
    7.1167  -18.6891   17.0370 C   0  0  0  0  0  0  0  0  0  0  0  0
    6.5121  -17.8632   16.3298 O   0  0  0  0  0  0  0  0  0  0  0  0
    8.2097  -16.6009   20.9587 C   0  0  0  0  0  0  0  0  0  0  0  0
    7.1084  -15.9935   20.9831 O   0  0  0  0  0  0  0  0  0  0  0  0
    6.9042  -20.0448   16.7387 O   0  0  0  0  0  0  0  0  0  0  0  0
    8.6503  -17.2444   22.1181 N   0  0  0  0  0  0  0  0  0  0  0  0
    7.8586  -17.2591   23.3830 C   0  0  1  0  0  0  0  0  0  0  0  0
    7.9143  -18.6370   23.9419 C   0  0  0  0  0  0  0  0  0  0  0  0
    7.3705  -18.8205   25.3209 C   0  0  0  0  0  0  0  0  0  0  0  0
    7.5489  -20.2382   25.8316 C   0  0  0  0  0  0  0  0  0  0  0  0
    6.9538  -20.4502   27.1970 C   0  0  0  0  0  0  0  0  0  0  0  0
    7.1666  -21.8138   27.6631 N   0  0  0  0  0  0  0  0  0  0  0  0
    8.3747  -16.1650   24.1927 C   0  0  0  0  0  0  0  0  0  0  0  0
    9.6323  -15.9908   24.2180 O   0  0  0  0  0  0  0  0  0  0  0  0
    5.8641  -11.3796   26.6468 C   0  0  0  0  0  0  0  0  0  0  0  0
    6.4023  -12.7359   26.4395 C   0  0  0  0  0  0  0  0  0  0  0  0
    7.6388  -12.9051   25.6317 C   0  0  2  0  0  0  0  0  0  0  0  0
    7.5212  -12.3023   24.2502 C   0  0  0  0  0  0  0  0  0  0  0  0
    8.3029  -14.1993   25.7464 C   0  0  2  0  0  0  0  0  0  0  0  0
    7.6645  -15.2450   24.9664 N   0  0  0  0  0  0  0  0  0  0  0  0
    8.5393  -14.7367   27.0877 C   0  0  0  0  0  0  0  0  0  0  0  0
    8.0918  -15.8136   27.5581 O   0  0  0  0  0  0  0  0  0  0  0  0
    9.3486  -14.0011   27.9761 O   0  0  0  0  0  0  0  0  0  0  0  0
  2  1  1  1
  3  2  1  0
  4  3  1  0
  5  4  1  0
  5  6  2  0
  7  2  1  0
  7  8  2  0
  9  5  1  0
 10  7  1  0
 11 10  1  0
 11 12  1  1
 13 12  1  0
 13 14  1  0
 15 14  1  0
 16 15  1  0
 17 11  1  0
 18 17  2  0
 19 20  1  0
 20 21  1  0
 21 22  1  6
 21 23  1  0
 23 25  1  0
 23 24  1  6
 24 17  1  0
 25 27  1  0
 26 25  2  0
M  END
$$$$
