EKI.pdb
     RDKit          3D

 27 26  0  0  1  0  0  0  0  0999 V2000
   11.8755  -16.1834   19.8461 N   0  0  0  0  0  0  0  0  0  0  0  0
   11.8496  -16.7955   21.1246 C   0  0  1  0  0  0  0  0  0  0  0  0
   13.0255  -16.5781   22.0047 C   0  0  0  0  0  0  0  0  0  0  0  0
   14.3462  -16.4070   21.3264 C   0  0  0  0  0  0  0  0  0  0  0  0
   15.5046  -16.1722   22.1808 C   0  0  0  0  0  0  0  0  0  0  0  0
   16.1591  -15.1155   22.2337 O   0  0  0  0  0  0  0  0  0  0  0  0
   10.5571  -16.5306   21.8531 C   0  0  0  0  0  0  0  0  0  0  0  0
   10.1009  -15.3584   21.8573 O   0  0  0  0  0  0  0  0  0  0  0  0
   15.9293  -17.2155   23.0194 O   0  0  0  0  0  0  0  0  0  0  0  0
    9.8481  -17.5321   22.5216 N   0  0  0  0  0  0  0  0  0  0  0  0
    8.5070  -17.2998   23.1335 C   0  0  1  0  0  0  0  0  0  0  0  0
    7.8235  -18.6162   23.2515 C   0  0  0  0  0  0  0  0  0  0  0  0
    6.5083  -18.6243   23.9595 C   0  0  0  0  0  0  0  0  0  0  0  0
    5.4589  -19.4387   23.2260 C   0  0  0  0  0  0  0  0  0  0  0  0
    5.3278  -20.8410   23.7547 C   0  0  0  0  0  0  0  0  0  0  0  0
    4.4794  -21.6556   22.8951 N   0  0  0  0  0  0  0  0  0  0  0  0
    8.7470  -16.5358   24.3491 C   0  0  0  0  0  0  0  0  0  0  0  0
    9.8394  -16.7340   24.9656 O   0  0  0  0  0  0  0  0  0  0  0  0
    5.2295  -12.6967   26.9748 C   0  0  0  0  0  0  0  0  0  0  0  0
    6.0611  -13.8327   26.5386 C   0  0  0  0  0  0  0  0  0  0  0  0
    7.5195  -13.6239   26.3395 C   0  0  2  0  0  0  0  0  0  0  0  0
    7.8244  -12.4314   25.4616 C   0  0  0  0  0  0  0  0  0  0  0  0
    8.3139  -14.8305   26.1345 C   0  0  2  0  0  0  0  0  0  0  0  0
    7.9265  -15.5808   24.9528 N   0  0  0  0  0  0  0  0  0  0  0  0
    8.4202  -15.7827   27.2417 C   0  0  0  0  0  0  0  0  0  0  0  0
    9.0251  -15.6087   28.3303 O   0  0  0  0  0  0  0  0  0  0  0  0
    7.7921  -17.0375   27.1148 O   0  0  0  0  0  0  0  0  0  0  0  0
  2  1  1  6
  3  2  1  0
  4  3  1  0
  5  4  1  0
  5  6  2  0
  7  2  1  0
  7  8  2  0
  9  5  1  0
 10  7  1  0
 11 10  1  0
 11 12  1  1
 13 12  1  0
 13 14  1  0
 15 14  1  0
 16 15  1  0
 17 11  1  0
 18 17  2  0
 19 20  1  0
 20 21  1  0
 21 22  1  6
 21 23  1  0
 23 25  1  0
 23 24  1  6
 24 17  1  0
 25 27  1  0
 26 25  2  0
M  END
$$$$
