EKI.pdb
     RDKit          3D

 27 26  0  0  1  0  0  0  0  0999 V2000
   10.2394  -16.2438   19.2572 N   0  0  0  0  0  0  0  0  0  0  0  0
    9.1846  -15.3174   19.4547 C   0  0  1  0  0  0  0  0  0  0  0  0
    8.3288  -15.0038   18.2825 C   0  0  0  0  0  0  0  0  0  0  0  0
    8.5855  -15.7898   17.0375 C   0  0  0  0  0  0  0  0  0  0  0  0
    7.6757  -15.5742   15.9183 C   0  0  0  0  0  0  0  0  0  0  0  0
    7.5695  -16.3130   14.9230 O   0  0  0  0  0  0  0  0  0  0  0  0
    8.3575  -15.6516   20.6696 C   0  0  0  0  0  0  0  0  0  0  0  0
    7.3151  -14.9821   20.8875 O   0  0  0  0  0  0  0  0  0  0  0  0
    6.8438  -14.4433   15.9515 O   0  0  0  0  0  0  0  0  0  0  0  0
    8.7017  -16.6720   21.5600 N   0  0  0  0  0  0  0  0  0  0  0  0
    7.8959  -16.9873   22.7759 C   0  0  1  0  0  0  0  0  0  0  0  0
    7.9102  -18.4633   22.9643 C   0  0  0  0  0  0  0  0  0  0  0  0
    9.1778  -19.0573   23.4854 C   0  0  0  0  0  0  0  0  0  0  0  0
    9.1432  -20.5742   23.5048 C   0  0  0  0  0  0  0  0  0  0  0  0
   10.4564  -21.1868   23.9094 C   0  0  0  0  0  0  0  0  0  0  0  0
   10.3401  -22.6291   24.0773 N   0  0  0  0  0  0  0  0  0  0  0  0
    8.4308  -16.1508   23.8404 C   0  0  0  0  0  0  0  0  0  0  0  0
    9.6654  -15.8568   23.7969 O   0  0  0  0  0  0  0  0  0  0  0  0
    6.6931  -11.2375   25.4839 C   0  0  0  0  0  0  0  0  0  0  0  0
    7.6840  -12.3224   25.3681 C   0  0  0  0  0  0  0  0  0  0  0  0
    7.5205  -13.5403   26.2048 C   0  0  2  0  0  0  0  0  0  0  0  0
    7.3417  -13.2216   27.6718 C   0  0  0  0  0  0  0  0  0  0  0  0
    8.3789  -14.6692   25.8616 C   0  0  2  0  0  0  0  0  0  0  0  0
    7.7607  -15.6016   24.9353 N   0  0  0  0  0  0  0  0  0  0  0  0
    8.9542  -15.4555   26.9547 C   0  0  0  0  0  0  0  0  0  0  0  0
    8.7099  -16.6583   27.2281 O   0  0  0  0  0  0  0  0  0  0  0  0
    9.8844  -14.8370   27.8134 O   0  0  0  0  0  0  0  0  0  0  0  0
  2  1  1  6
  3  2  1  0
  4  3  1  0
  5  4  1  0
  5  6  2  0
  7  2  1  0
  7  8  2  0
  9  5  1  0
 10  7  1  0
 11 10  1  0
 11 12  1  1
 13 12  1  0
 13 14  1  0
 15 14  1  0
 16 15  1  0
 17 11  1  0
 18 17  2  0
 19 20  1  0
 20 21  1  0
 21 22  1  1
 21 23  1  0
 23 25  1  0
 23 24  1  6
 24 17  1  0
 25 27  1  0
 26 25  2  0
M  END
$$$$
