EEF.pdb
     RDKit          3D

 30 30  0  0  1  0  0  0  0  0999 V2000
   23.6721   -6.5050  -23.0196 N   0  0  0  0  0  0  0  0  0  0  0  0
   22.6896   -6.8018  -21.9874 C   0  0  1  0  0  0  0  0  0  0  0  0
   22.7289   -8.2798  -21.7620 C   0  0  0  0  0  0  0  0  0  0  0  0
   21.4499   -9.0051  -21.9812 C   0  0  0  0  0  0  0  0  0  0  0  0
   21.5889  -10.4443  -21.7718 C   0  0  0  0  0  0  0  0  0  0  0  0
   21.4153  -11.2828  -22.6729 O   0  0  0  0  0  0  0  0  0  0  0  0
   22.9851   -6.0040  -20.7583 C   0  0  0  0  0  0  0  0  0  0  0  0
   24.1294   -5.6331  -20.4795 O   0  0  0  0  0  0  0  0  0  0  0  0
   21.9299  -10.8986  -20.5104 O   0  0  0  0  0  0  0  0  0  0  0  0
   21.9392   -5.6562  -19.8799 N   0  0  0  0  0  0  0  0  0  0  0  0
   22.1308   -4.8874  -18.6629 C   0  0  1  0  0  0  0  0  0  0  0  0
   21.7103   -3.4941  -18.9589 C   0  0  0  0  0  0  0  0  0  0  0  0
   21.8333   -2.5423  -17.8041 C   0  0  0  0  0  0  0  0  0  0  0  0
   21.3988   -1.1766  -18.0945 C   0  0  0  0  0  0  0  0  0  0  0  0
   20.9248   -0.8719  -19.1927 O   0  0  0  0  0  0  0  0  0  0  0  0
   21.4685   -5.5183  -17.5039 C   0  0  0  0  0  0  0  0  0  0  0  0
   20.3056   -5.9778  -17.5848 O   0  0  0  0  0  0  0  0  0  0  0  0
   21.4995   -0.1501  -17.1402 O   0  0  0  0  0  0  0  0  0  0  0  0
   22.1711   -5.6024  -16.2727 N   0  0  0  0  0  0  0  0  0  0  0  0
   21.6497   -6.3348  -15.1002 C   0  0  1  0  0  0  0  0  0  0  0  0
   21.6449   -7.8014  -15.3554 C   0  0  0  0  0  0  0  0  0  0  0  0
   23.0082   -8.3193  -15.4528 C   0  0  0  0  0  0  0  0  0  0  0  0
   23.5196   -9.1219  -14.4719 C   0  0  0  0  0  0  0  0  0  0  0  0
   24.8078   -9.6203  -14.5491 C   0  0  0  0  0  0  0  0  0  0  0  0
   25.6162   -9.3171  -15.6283 C   0  0  0  0  0  0  0  0  0  0  0  0
   25.1102   -8.5174  -16.6084 C   0  0  0  0  0  0  0  0  0  0  0  0
   23.8111   -8.0126  -16.5340 C   0  0  0  0  0  0  0  0  0  0  0  0
   22.3349   -5.9009  -13.8735 C   0  0  0  0  0  0  0  0  0  0  0  0
   21.9457   -6.3967  -12.7606 O   0  0  0  0  0  0  0  0  0  0  0  0
   23.3730   -4.9972  -13.8141 O   0  0  0  0  0  0  0  0  0  0  0  0
  2  1  1  6
  2  3  1  0
  3  4  1  0
  4  5  1  0
  5  6  2  0
  5  9  1  0
  7  8  2  0
  7  2  1  0
 10  7  1  0
 11 10  1  0
 11 12  1  6
 13 14  1  0
 13 12  1  0
 14 15  2  0
 16 11  1  0
 16 19  1  0
 17 16  2  0
 18 14  1  0
 20 19  1  0
 20 28  1  0
 20 21  1  6
 22 21  1  0
 23 22  2  0
 24 23  1  0
 25 26  1  0
 25 24  2  0
 26 27  2  0
 27 22  1  0
 28 29  2  0
 28 30  1  0
M  END
$$$$
