EEF.pdb
     RDKit          3D

 30 30  0  0  1  0  0  0  0  0999 V2000
   17.6669  -12.0561  -17.1382 N   0  0  0  0  0  0  0  0  0  0  0  0
   18.9932  -11.5653  -16.7926 C   0  0  1  0  0  0  0  0  0  0  0  0
   19.9209  -12.0220  -17.8732 C   0  0  0  0  0  0  0  0  0  0  0  0
   19.5484  -11.6307  -19.2581 C   0  0  0  0  0  0  0  0  0  0  0  0
   20.7179  -11.4636  -20.1176 C   0  0  0  0  0  0  0  0  0  0  0  0
   21.2937  -10.3738  -20.2787 O   0  0  0  0  0  0  0  0  0  0  0  0
   18.9591  -10.0803  -16.6252 C   0  0  0  0  0  0  0  0  0  0  0  0
   19.3575   -9.3140  -17.5076 O   0  0  0  0  0  0  0  0  0  0  0  0
   21.2102  -12.5703  -20.7861 O   0  0  0  0  0  0  0  0  0  0  0  0
   18.4616   -9.5206  -15.4311 N   0  0  0  0  0  0  0  0  0  0  0  0
   18.4372   -8.0945  -15.1584 C   0  0  1  0  0  0  0  0  0  0  0  0
   17.0949   -7.7810  -14.6057 C   0  0  0  0  0  0  0  0  0  0  0  0
   15.9857   -7.7714  -15.6177 C   0  0  0  0  0  0  0  0  0  0  0  0
   14.6674   -7.4543  -15.0701 C   0  0  0  0  0  0  0  0  0  0  0  0
   14.0984   -8.2144  -14.2814 O   0  0  0  0  0  0  0  0  0  0  0  0
   19.5814   -7.6744  -14.3250 C   0  0  0  0  0  0  0  0  0  0  0  0
   19.9021   -8.3023  -13.2893 O   0  0  0  0  0  0  0  0  0  0  0  0
   13.9885   -6.2731  -15.4144 O   0  0  0  0  0  0  0  0  0  0  0  0
   20.3305   -6.5316  -14.7119 N   0  0  0  0  0  0  0  0  0  0  0  0
   21.4363   -5.9847  -13.8988 C   0  0  1  0  0  0  0  0  0  0  0  0
   22.7430   -6.1901  -14.5816 C   0  0  0  0  0  0  0  0  0  0  0  0
   22.7796   -5.4870  -15.8624 C   0  0  0  0  0  0  0  0  0  0  0  0
   22.3726   -6.1087  -17.0096 C   0  0  0  0  0  0  0  0  0  0  0  0
   22.4009   -5.4572  -18.2296 C   0  0  0  0  0  0  0  0  0  0  0  0
   22.8445   -4.1514  -18.3202 C   0  0  0  0  0  0  0  0  0  0  0  0
   23.2510   -3.5281  -17.1790 C   0  0  0  0  0  0  0  0  0  0  0  0
   23.2241   -4.1819  -15.9462 C   0  0  0  0  0  0  0  0  0  0  0  0
   21.1401   -4.6048  -13.4856 C   0  0  0  0  0  0  0  0  0  0  0  0
   21.9000   -4.0635  -12.6108 O   0  0  0  0  0  0  0  0  0  0  0  0
   20.1046   -3.8316  -13.9629 O   0  0  0  0  0  0  0  0  0  0  0  0
  2  1  1  6
  2  3  1  0
  3  4  1  0
  4  5  1  0
  5  6  2  0
  5  9  1  0
  7  8  2  0
  7  2  1  0
 10  7  1  0
 11 10  1  0
 11 12  1  1
 13 14  1  0
 13 12  1  0
 14 15  2  0
 16 11  1  0
 16 19  1  0
 17 16  2  0
 18 14  1  0
 20 19  1  0
 20 28  1  0
 20 21  1  6
 22 21  1  0
 23 22  2  0
 24 23  1  0
 25 26  1  0
 25 24  2  0
 26 27  2  0
 27 22  1  0
 28 29  2  0
 28 30  1  0
M  END
$$$$
