EEF.pdb
     RDKit          3D

 30 30  0  0  1  0  0  0  0  0999 V2000
   24.5395  -18.5939  -15.5020 N   0  0  0  0  0  0  0  0  0  0  0  0
   23.8846  -18.7729  -14.2143 C   0  0  1  0  0  0  0  0  0  0  0  0
   22.4113  -18.7063  -14.4629 C   0  0  0  0  0  0  0  0  0  0  0  0
   21.9901  -17.9611  -15.6783 C   0  0  0  0  0  0  0  0  0  0  0  0
   22.4802  -16.5848  -15.6791 C   0  0  0  0  0  0  0  0  0  0  0  0
   22.2171  -15.7684  -14.7795 O   0  0  0  0  0  0  0  0  0  0  0  0
   24.3261  -20.0587  -13.5927 C   0  0  0  0  0  0  0  0  0  0  0  0
   23.5185  -20.9120  -13.2129 O   0  0  0  0  0  0  0  0  0  0  0  0
   23.2756  -16.1673  -16.7312 O   0  0  0  0  0  0  0  0  0  0  0  0
   25.7008  -20.3214  -13.4265 N   0  0  0  0  0  0  0  0  0  0  0  0
   26.2218  -21.5239  -12.8010 C   0  0  1  0  0  0  0  0  0  0  0  0
   27.1506  -22.1523  -13.7746 C   0  0  0  0  0  0  0  0  0  0  0  0
   26.5666  -22.3876  -15.1378 C   0  0  0  0  0  0  0  0  0  0  0  0
   25.9618  -23.7065  -15.3194 C   0  0  0  0  0  0  0  0  0  0  0  0
   24.8033  -23.8327  -15.7264 O   0  0  0  0  0  0  0  0  0  0  0  0
   26.7912  -21.2474  -11.4670 C   0  0  0  0  0  0  0  0  0  0  0  0
   28.0185  -21.0521  -11.3071 O   0  0  0  0  0  0  0  0  0  0  0  0
   26.6684  -24.8886  -15.0403 O   0  0  0  0  0  0  0  0  0  0  0  0
   25.9225  -21.2039  -10.3445 N   0  0  0  0  0  0  0  0  0  0  0  0
   26.4121  -21.0801   -8.9560 C   0  0  1  0  0  0  0  0  0  0  0  0
   27.4185  -19.9885   -8.8482 C   0  0  0  0  0  0  0  0  0  0  0  0
   27.8197  -19.7831   -7.4579 C   0  0  0  0  0  0  0  0  0  0  0  0
   28.7613  -20.5872   -6.8792 C   0  0  0  0  0  0  0  0  0  0  0  0
   29.1521  -20.4060   -5.5646 C   0  0  0  0  0  0  0  0  0  0  0  0
   28.5965  -19.3995   -4.7975 C   0  0  0  0  0  0  0  0  0  0  0  0
   27.6577  -18.5957   -5.3707 C   0  0  0  0  0  0  0  0  0  0  0  0
   27.2606  -18.7754   -6.6966 C   0  0  0  0  0  0  0  0  0  0  0  0
   25.2841  -21.0056   -8.0153 C   0  0  0  0  0  0  0  0  0  0  0  0
   25.4630  -21.4435   -6.8271 O   0  0  0  0  0  0  0  0  0  0  0  0
   24.0355  -20.4990   -8.3021 O   0  0  0  0  0  0  0  0  0  0  0  0
  2  1  1  6
  2  3  1  0
  3  4  1  0
  4  5  1  0
  5  6  2  0
  5  9  1  0
  7  8  2  0
  7  2  1  0
 10  7  1  0
 11 10  1  0
 11 12  1  6
 13 14  1  0
 13 12  1  0
 14 15  2  0
 16 11  1  0
 16 19  1  0
 17 16  2  0
 18 14  1  0
 20 19  1  0
 20 28  1  0
 20 21  1  6
 22 21  1  0
 23 22  2  0
 24 23  1  0
 25 26  1  0
 25 24  2  0
 26 27  2  0
 27 22  1  0
 28 29  2  0
 28 30  1  0
M  END
$$$$
