EEF.pdb
     RDKit          3D

 30 30  0  0  1  0  0  0  0  0999 V2000
   25.3280  -11.2772  -20.4859 N   0  0  0  0  0  0  0  0  0  0  0  0
   23.9034  -11.0691  -20.2707 C   0  0  1  0  0  0  0  0  0  0  0  0
   23.4272  -12.1884  -19.4005 C   0  0  0  0  0  0  0  0  0  0  0  0
   23.8727  -12.1446  -17.9829 C   0  0  0  0  0  0  0  0  0  0  0  0
   23.3576  -13.2706  -17.2077 C   0  0  0  0  0  0  0  0  0  0  0  0
   23.5708  -13.4135  -15.9915 O   0  0  0  0  0  0  0  0  0  0  0  0
   23.6698   -9.7155  -19.6811 C   0  0  0  0  0  0  0  0  0  0  0  0
   24.5757   -9.0721  -19.1426 O   0  0  0  0  0  0  0  0  0  0  0  0
   22.5957  -14.2260  -17.8564 O   0  0  0  0  0  0  0  0  0  0  0  0
   22.3835   -9.1414  -19.7314 N   0  0  0  0  0  0  0  0  0  0  0  0
   22.0750   -7.8107  -19.2385 C   0  0  1  0  0  0  0  0  0  0  0  0
   20.9305   -7.3058  -20.0388 C   0  0  0  0  0  0  0  0  0  0  0  0
   20.5383   -5.8860  -19.7476 C   0  0  0  0  0  0  0  0  0  0  0  0
   19.3919   -5.4033  -20.5164 C   0  0  0  0  0  0  0  0  0  0  0  0
   18.7525   -6.1543  -21.2585 O   0  0  0  0  0  0  0  0  0  0  0  0
   21.8817   -7.7976  -17.7747 C   0  0  0  0  0  0  0  0  0  0  0  0
   21.4018   -8.7840  -17.1692 O   0  0  0  0  0  0  0  0  0  0  0  0
   18.9653   -4.0662  -20.4469 O   0  0  0  0  0  0  0  0  0  0  0  0
   22.2498   -6.6374  -17.0433 N   0  0  0  0  0  0  0  0  0  0  0  0
   22.0313   -6.5040  -15.5881 C   0  0  1  0  0  0  0  0  0  0  0  0
   23.3256   -6.3184  -14.8765 C   0  0  0  0  0  0  0  0  0  0  0  0
   24.1743   -7.4997  -15.0189 C   0  0  0  0  0  0  0  0  0  0  0  0
   23.9351   -8.6222  -14.2767 C   0  0  0  0  0  0  0  0  0  0  0  0
   24.7289   -9.7484  -14.3997 C   0  0  0  0  0  0  0  0  0  0  0  0
   25.7917   -9.7675  -15.2830 C   0  0  0  0  0  0  0  0  0  0  0  0
   26.0335   -8.6506  -16.0247 C   0  0  0  0  0  0  0  0  0  0  0  0
   25.2350   -7.5123  -15.9035 C   0  0  0  0  0  0  0  0  0  0  0  0
   20.9983   -5.4945  -15.3113 C   0  0  0  0  0  0  0  0  0  0  0  0
   20.6593   -4.7063  -16.2597 O   0  0  0  0  0  0  0  0  0  0  0  0
   20.3535   -5.3194  -14.1066 O   0  0  0  0  0  0  0  0  0  0  0  0
  2  1  1  1
  2  3  1  0
  3  4  1  0
  4  5  1  0
  5  6  2  0
  5  9  1  0
  7  8  2  0
  7  2  1  0
 10  7  1  0
 11 10  1  0
 11 12  1  6
 13 14  1  0
 13 12  1  0
 14 15  2  0
 16 11  1  0
 16 19  1  0
 17 16  2  0
 18 14  1  0
 20 19  1  0
 20 28  1  0
 20 21  1  1
 22 21  1  0
 23 22  2  0
 24 23  1  0
 25 26  1  0
 25 24  2  0
 26 27  2  0
 27 22  1  0
 28 29  2  0
 28 30  1  0
M  END
$$$$
