EEF.pdb
     RDKit          3D

 30 30  0  0  1  0  0  0  0  0999 V2000
   12.3142   -9.9421   -9.6446 N   0  0  0  0  0  0  0  0  0  0  0  0
   13.2407   -8.8867  -10.0282 C   0  0  1  0  0  0  0  0  0  0  0  0
   13.9487   -8.4560   -8.7832 C   0  0  0  0  0  0  0  0  0  0  0  0
   13.1366   -7.6813   -7.8084 C   0  0  0  0  0  0  0  0  0  0  0  0
   13.1065   -6.2555   -8.1254 C   0  0  0  0  0  0  0  0  0  0  0  0
   13.7435   -5.7544   -9.0679 O   0  0  0  0  0  0  0  0  0  0  0  0
   14.1620   -9.3813  -11.0964 C   0  0  0  0  0  0  0  0  0  0  0  0
   14.3718  -10.5854  -11.2723 O   0  0  0  0  0  0  0  0  0  0  0  0
   12.3326   -5.4201   -7.3397 O   0  0  0  0  0  0  0  0  0  0  0  0
   14.8199   -8.4604  -11.9364 N   0  0  0  0  0  0  0  0  0  0  0  0
   15.6868   -8.8482  -13.0350 C   0  0  1  0  0  0  0  0  0  0  0  0
   14.8097   -9.1482  -14.1952 C   0  0  0  0  0  0  0  0  0  0  0  0
   15.5387   -9.5188  -15.4544 C   0  0  0  0  0  0  0  0  0  0  0  0
   15.9847  -10.9103  -15.5102 C   0  0  0  0  0  0  0  0  0  0  0  0
   16.8156  -11.2869  -16.3417 O   0  0  0  0  0  0  0  0  0  0  0  0
   16.7448   -7.8479  -13.2802 C   0  0  0  0  0  0  0  0  0  0  0  0
   16.4759   -6.6323  -13.4217 O   0  0  0  0  0  0  0  0  0  0  0  0
   15.4904  -11.8812  -14.6228 O   0  0  0  0  0  0  0  0  0  0  0  0
   18.0952   -8.2805  -13.3565 N   0  0  0  0  0  0  0  0  0  0  0  0
   19.2146   -7.3649  -13.6593 C   0  0  1  0  0  0  0  0  0  0  0  0
   20.5149   -8.0875  -13.6051 C   0  0  0  0  0  0  0  0  0  0  0  0
   21.6078   -7.2319  -14.0630 C   0  0  0  0  0  0  0  0  0  0  0  0
   22.2109   -7.4584  -15.2684 C   0  0  0  0  0  0  0  0  0  0  0  0
   23.2464   -6.6578  -15.7163 C   0  0  0  0  0  0  0  0  0  0  0  0
   23.7005   -5.6005  -14.9507 C   0  0  0  0  0  0  0  0  0  0  0  0
   23.1019   -5.3713  -13.7485 C   0  0  0  0  0  0  0  0  0  0  0  0
   22.0571   -6.1768  -13.2931 C   0  0  0  0  0  0  0  0  0  0  0  0
   18.9495   -6.6166  -14.8972 C   0  0  0  0  0  0  0  0  0  0  0  0
   18.4403   -7.2501  -15.8847 O   0  0  0  0  0  0  0  0  0  0  0  0
   19.2026   -5.2765  -15.0916 O   0  0  0  0  0  0  0  0  0  0  0  0
  2  1  1  1
  2  3  1  0
  3  4  1  0
  4  5  1  0
  5  6  2  0
  5  9  1  0
  7  8  2  0
  7  2  1  0
 10  7  1  0
 11 10  1  0
 11 12  1  6
 13 14  1  0
 13 12  1  0
 14 15  2  0
 16 11  1  0
 16 19  1  0
 17 16  2  0
 18 14  1  0
 20 19  1  0
 20 28  1  0
 20 21  1  6
 22 21  1  0
 23 22  2  0
 24 23  1  0
 25 26  1  0
 25 24  2  0
 26 27  2  0
 27 22  1  0
 28 29  2  0
 28 30  1  0
M  END
$$$$
