LVN.pdb
     RDKit          3D

 24 23  0  0  1  0  0  0  0  0999 V2000
    8.4509  -12.6852   28.0804 C   0  0  0  0  0  0  0  0  0  0  0  0
    7.4011  -13.5332   27.3828 C   0  0  1  0  0  0  0  0  0  0  0  0
    6.3794  -12.5252   26.8342 C   0  0  0  0  0  0  0  0  0  0  0  0
    7.9539  -14.3465   26.2757 C   0  0  0  0  0  0  0  0  0  0  0  0
    7.0132  -15.0741   25.4112 C   0  0  2  0  0  0  0  0  0  0  0  0
    6.2522  -16.0816   26.1143 N   0  0  0  0  0  0  0  0  0  0  0  0
    7.5411  -15.6614   24.1640 C   0  0  0  0  0  0  0  0  0  0  0  0
    7.9173  -16.8952   24.1480 O   0  0  0  0  0  0  0  0  0  0  0  0
    8.3127  -13.5496   20.6498 C   0  0  0  0  0  0  0  0  0  0  0  0
    7.6847  -14.9363   20.5624 C   0  0  2  0  0  0  0  0  0  0  0  0
    6.2036  -14.7799   20.4921 C   0  0  0  0  0  0  0  0  0  0  0  0
    8.2048  -15.7083   21.7318 C   0  0  2  0  0  0  0  0  0  0  0  0
    7.6934  -14.9943   22.9261 N   0  0  0  0  0  0  0  0  0  0  0  0
    9.6698  -15.8048   21.8211 C   0  0  0  0  0  0  0  0  0  0  0  0
   10.3679  -15.0083   22.5170 O   0  0  0  0  0  0  0  0  0  0  0  0
   13.5908  -19.9621   22.4297 N   0  0  0  0  0  0  0  0  0  0  0  0
   13.2331  -18.6286   22.7322 C   0  0  0  0  0  0  0  0  0  0  0  0
   14.0917  -17.8697   23.2335 O   0  0  0  0  0  0  0  0  0  0  0  0
   11.8712  -18.1379   22.4624 C   0  0  0  0  0  0  0  0  0  0  0  0
   11.7913  -17.0604   21.4248 C   0  0  2  0  0  0  0  0  0  0  0  0
   10.3740  -16.8128   21.1207 N   0  0  0  0  0  0  0  0  0  0  0  0
   12.5136  -17.5394   20.2273 C   0  0  0  0  0  0  0  0  0  0  0  0
   11.8162  -18.0704   19.1665 O   0  0  0  0  0  0  0  0  0  0  0  0
   13.7563  -17.4562   20.1921 O   0  0  0  0  0  0  0  0  0  0  0  0
  2  1  1  6
  2  3  1  0
  4  2  1  0
  5  4  1  0
  5  7  1  0
  5  6  1  1
  7 13  1  0
  8  7  2  0
 10  9  1  1
 10 11  1  0
 12 10  1  0
 12 13  1  1
 14 21  1  0
 14 12  1  0
 15 14  2  0
 17 16  1  0
 17 18  2  0
 19 17  1  0
 20 19  1  1
 20 22  1  0
 20 21  1  0
 22 23  1  0
 24 22  2  0
M  END
$$$$
