LVN.pdb
     RDKit          3D

 24 23  0  0  1  0  0  0  0  0999 V2000
    7.8279  -11.8512   25.8906 C   0  0  0  0  0  0  0  0  0  0  0  0
    7.0872  -12.7469   26.8689 C   0  0  1  0  0  0  0  0  0  0  0  0
    5.9908  -11.8540   27.4700 C   0  0  0  0  0  0  0  0  0  0  0  0
    6.4773  -13.9317   26.2233 C   0  0  0  0  0  0  0  0  0  0  0  0
    7.3717  -14.9664   25.6837 C   0  0  2  0  0  0  0  0  0  0  0  0
    8.7660  -14.7284   25.9797 N   0  0  0  0  0  0  0  0  0  0  0  0
    7.2411  -15.3085   24.2536 C   0  0  0  0  0  0  0  0  0  0  0  0
    6.1540  -15.8541   23.8239 O   0  0  0  0  0  0  0  0  0  0  0  0
    9.2903  -13.6422   21.2047 C   0  0  0  0  0  0  0  0  0  0  0  0
    7.9468  -14.3419   21.0304 C   0  0  2  0  0  0  0  0  0  0  0  0
    6.8638  -13.3758   21.3724 C   0  0  0  0  0  0  0  0  0  0  0  0
    8.0054  -15.5797   21.8661 C   0  0  2  0  0  0  0  0  0  0  0  0
    8.2189  -15.1014   23.2529 N   0  0  0  0  0  0  0  0  0  0  0  0
    9.0749  -16.5263   21.5148 C   0  0  0  0  0  0  0  0  0  0  0  0
    9.1244  -17.1201   20.3963 O   0  0  0  0  0  0  0  0  0  0  0  0
   13.3850  -18.9448   20.4907 N   0  0  0  0  0  0  0  0  0  0  0  0
   13.5653  -17.9725   21.5007 C   0  0  0  0  0  0  0  0  0  0  0  0
   14.6887  -17.8588   22.0387 O   0  0  0  0  0  0  0  0  0  0  0  0
   12.4493  -17.1058   21.9149 C   0  0  0  0  0  0  0  0  0  0  0  0
   11.1389  -17.8129   22.0795 C   0  0  2  0  0  0  0  0  0  0  0  0
   10.1148  -16.8173   22.4293 N   0  0  0  0  0  0  0  0  0  0  0  0
   11.3013  -18.8075   23.1609 C   0  0  0  0  0  0  0  0  0  0  0  0
   12.1501  -19.8776   22.9933 O   0  0  0  0  0  0  0  0  0  0  0  0
   10.6622  -18.6643   24.2208 O   0  0  0  0  0  0  0  0  0  0  0  0
  2  1  1  6
  2  3  1  0
  4  2  1  0
  5  4  1  0
  5  7  1  0
  5  6  1  6
  7 13  1  0
  8  7  2  0
 10  9  1  1
 10 11  1  0
 12 10  1  0
 12 13  1  1
 14 21  1  0
 14 12  1  0
 15 14  2  0
 17 16  1  0
 17 18  2  0
 19 17  1  0
 20 19  1  1
 20 22  1  0
 20 21  1  0
 22 23  1  0
 24 22  2  0
M  END
$$$$
