LVN.pdb
     RDKit          3D

 24 23  0  0  1  0  0  0  0  0999 V2000
    9.0145  -19.3039   19.9538 C   0  0  0  0  0  0  0  0  0  0  0  0
    8.5282  -17.8652   19.9125 C   0  0  1  0  0  0  0  0  0  0  0  0
    7.0887  -17.9497   19.3819 C   0  0  0  0  0  0  0  0  0  0  0  0
    8.5402  -17.2103   21.2405 C   0  0  0  0  0  0  0  0  0  0  0  0
    8.0485  -15.8281   21.3380 C   0  0  2  0  0  0  0  0  0  0  0  0
    8.2537  -15.0614   20.1304 N   0  0  0  0  0  0  0  0  0  0  0  0
    8.4902  -15.0225   22.4934 C   0  0  0  0  0  0  0  0  0  0  0  0
    9.6205  -14.4027   22.4454 O   0  0  0  0  0  0  0  0  0  0  0  0
    6.6198  -12.3234   24.2836 C   0  0  0  0  0  0  0  0  0  0  0  0
    7.1195  -13.2870   25.3545 C   0  0  2  0  0  0  0  0  0  0  0  0
    7.3503  -12.5177   26.6107 C   0  0  0  0  0  0  0  0  0  0  0  0
    8.3170  -13.9715   24.7789 C   0  0  2  0  0  0  0  0  0  0  0  0
    7.7854  -14.8468   23.7070 N   0  0  0  0  0  0  0  0  0  0  0  0
    9.0908  -14.7885   25.7260 C   0  0  0  0  0  0  0  0  0  0  0  0
    9.5249  -14.3349   26.8269 O   0  0  0  0  0  0  0  0  0  0  0  0
   10.6932  -20.5585   26.8117 N   0  0  0  0  0  0  0  0  0  0  0  0
   10.2919  -19.2881   27.2835 C   0  0  0  0  0  0  0  0  0  0  0  0
   10.5392  -18.9760   28.4692 O   0  0  0  0  0  0  0  0  0  0  0  0
    9.5932  -18.3446   26.3947 C   0  0  0  0  0  0  0  0  0  0  0  0
   10.1352  -16.9482   26.4186 C   0  0  2  0  0  0  0  0  0  0  0  0
    9.3866  -16.1429   25.4420 N   0  0  0  0  0  0  0  0  0  0  0  0
   11.5673  -17.0191   26.0594 C   0  0  0  0  0  0  0  0  0  0  0  0
   11.9979  -16.5467   24.8408 O   0  0  0  0  0  0  0  0  0  0  0  0
   12.3750  -17.5101   26.8712 O   0  0  0  0  0  0  0  0  0  0  0  0
  2  1  1  1
  2  3  1  0
  4  2  1  0
  5  4  1  0
  5  7  1  0
  5  6  1  6
  7 13  1  0
  8  7  2  0
 10  9  1  6
 10 11  1  0
 12 10  1  0
 12 13  1  6
 14 21  1  0
 14 12  1  0
 15 14  2  0
 17 16  1  0
 17 18  2  0
 19 17  1  0
 20 19  1  6
 20 22  1  0
 20 21  1  0
 22 23  1  0
 24 22  2  0
M  END
$$$$
