LVN.pdb
     RDKit          3D

 24 23  0  0  1  0  0  0  0  0999 V2000
    5.4792  -12.0762   26.4110 C   0  0  0  0  0  0  0  0  0  0  0  0
    6.8120  -12.6875   26.0134 C   0  0  1  0  0  0  0  0  0  0  0  0
    7.8170  -12.1485   27.0431 C   0  0  0  0  0  0  0  0  0  0  0  0
    6.8029  -14.1680   26.0425 C   0  0  0  0  0  0  0  0  0  0  0  0
    7.8010  -14.8848   25.2352 C   0  0  2  0  0  0  0  0  0  0  0  0
    9.1568  -14.4509   25.4843 N   0  0  0  0  0  0  0  0  0  0  0  0
    7.5839  -14.9521   23.7766 C   0  0  0  0  0  0  0  0  0  0  0  0
    6.6200  -15.6691   23.3066 O   0  0  0  0  0  0  0  0  0  0  0  0
    7.4100  -13.3785   19.3240 C   0  0  0  0  0  0  0  0  0  0  0  0
    7.7520  -13.1687   20.7950 C   0  0  2  0  0  0  0  0  0  0  0  0
    8.8272  -12.1398   20.8874 C   0  0  0  0  0  0  0  0  0  0  0  0
    8.0897  -14.5169   21.3450 C   0  0  2  0  0  0  0  0  0  0  0  0
    8.3501  -14.2932   22.7872 N   0  0  0  0  0  0  0  0  0  0  0  0
    9.2622  -15.1675   20.7408 C   0  0  0  0  0  0  0  0  0  0  0  0
    9.2786  -15.5717   19.5397 O   0  0  0  0  0  0  0  0  0  0  0  0
   14.8057  -15.3811   19.4477 N   0  0  0  0  0  0  0  0  0  0  0  0
   13.4491  -14.9931   19.5304 C   0  0  0  0  0  0  0  0  0  0  0  0
   12.8647  -14.6079   18.4938 O   0  0  0  0  0  0  0  0  0  0  0  0
   12.7326  -15.0406   20.8160 C   0  0  0  0  0  0  0  0  0  0  0  0
   11.6041  -16.0246   20.8644 C   0  0  2  0  0  0  0  0  0  0  0  0
   10.4449  -15.3713   21.4905 N   0  0  0  0  0  0  0  0  0  0  0  0
   12.0554  -17.1823   21.6651 C   0  0  0  0  0  0  0  0  0  0  0  0
   13.0562  -18.0005   21.1932 O   0  0  0  0  0  0  0  0  0  0  0  0
   11.5198  -17.4059   22.7677 O   0  0  0  0  0  0  0  0  0  0  0  0
  2  1  1  1
  2  3  1  0
  4  2  1  0
  5  4  1  0
  5  7  1  0
  5  6  1  6
  7 13  1  0
  8  7  2  0
 10  9  1  6
 10 11  1  0
 12 10  1  0
 12 13  1  1
 14 21  1  0
 14 12  1  0
 15 14  2  0
 17 16  1  0
 17 18  2  0
 19 17  1  0
 20 19  1  1
 20 22  1  0
 20 21  1  0
 22 23  1  0
 24 22  2  0
M  END
$$$$
