LVN.pdb
     RDKit          3D

 24 23  0  0  1  0  0  0  0  0999 V2000
    5.9321  -20.9290   23.5271 C   0  0  0  0  0  0  0  0  0  0  0  0
    5.8171  -19.5601   22.8784 C   0  0  1  0  0  0  0  0  0  0  0  0
    4.3491  -19.1514   23.0755 C   0  0  0  0  0  0  0  0  0  0  0  0
    6.7099  -18.5504   23.4917 C   0  0  0  0  0  0  0  0  0  0  0  0
    6.5622  -17.1480   23.0755 C   0  0  2  0  0  0  0  0  0  0  0  0
    6.6444  -16.9643   21.6445 N   0  0  0  0  0  0  0  0  0  0  0  0
    7.4198  -16.1429   23.7339 C   0  0  0  0  0  0  0  0  0  0  0  0
    8.6124  -15.9315   23.2901 O   0  0  0  0  0  0  0  0  0  0  0  0
    6.2223  -13.7930   26.9153 C   0  0  0  0  0  0  0  0  0  0  0  0
    7.2776  -13.2661   25.9492 C   0  0  2  0  0  0  0  0  0  0  0  0
    6.5907  -12.4889   24.8781 C   0  0  0  0  0  0  0  0  0  0  0  0
    8.0614  -14.4542   25.4931 C   0  0  2  0  0  0  0  0  0  0  0  0
    7.0695  -15.3499   24.8514 N   0  0  0  0  0  0  0  0  0  0  0  0
    8.7590  -15.1938   26.5559 C   0  0  0  0  0  0  0  0  0  0  0  0
    8.1780  -16.0455   27.2930 O   0  0  0  0  0  0  0  0  0  0  0  0
   12.2646  -17.7930   25.8229 N   0  0  0  0  0  0  0  0  0  0  0  0
   12.5297  -16.4328   26.1009 C   0  0  0  0  0  0  0  0  0  0  0  0
   12.9825  -15.7051   25.1899 O   0  0  0  0  0  0  0  0  0  0  0  0
   12.2775  -15.8786   27.4417 C   0  0  0  0  0  0  0  0  0  0  0  0
   10.8300  -15.7897   27.8170 C   0  0  2  0  0  0  0  0  0  0  0  0
   10.1361  -14.9819   26.8028 N   0  0  0  0  0  0  0  0  0  0  0  0
   10.7523  -15.1497   29.1472 C   0  0  0  0  0  0  0  0  0  0  0  0
   10.2098  -13.8919   29.2779 O   0  0  0  0  0  0  0  0  0  0  0  0
   11.1829  -15.7619   30.1434 O   0  0  0  0  0  0  0  0  0  0  0  0
  2  1  1  1
  2  3  1  0
  4  2  1  0
  5  4  1  0
  5  7  1  0
  5  6  1  6
  7 13  1  0
  8  7  2  0
 10  9  1  1
 10 11  1  0
 12 10  1  0
 12 13  1  1
 14 21  1  0
 14 12  1  0
 15 14  2  0
 17 16  1  0
 17 18  2  0
 19 17  1  0
 20 19  1  6
 20 22  1  0
 20 21  1  0
 22 23  1  0
 24 22  2  0
M  END
$$$$
