LVN.pdb
     RDKit          3D

 24 23  0  0  1  0  0  0  0  0999 V2000
    6.0226  -11.3698   26.6830 C   0  0  0  0  0  0  0  0  0  0  0  0
    7.1893  -12.2968   26.3870 C   0  0  1  0  0  0  0  0  0  0  0  0
    8.0042  -12.3346   27.6890 C   0  0  0  0  0  0  0  0  0  0  0  0
    6.7632  -13.6658   26.0171 C   0  0  0  0  0  0  0  0  0  0  0  0
    7.7423  -14.5445   25.3604 C   0  0  2  0  0  0  0  0  0  0  0  0
    9.1078  -14.0991   25.5195 N   0  0  0  0  0  0  0  0  0  0  0  0
    7.5157  -14.8853   23.9421 C   0  0  0  0  0  0  0  0  0  0  0  0
    6.4272  -15.4843   23.5950 O   0  0  0  0  0  0  0  0  0  0  0  0
    7.3759  -12.6373   21.3325 C   0  0  0  0  0  0  0  0  0  0  0  0
    8.2554  -13.7066   20.6937 C   0  0  2  0  0  0  0  0  0  0  0  0
    7.9323  -13.7765   19.2397 C   0  0  0  0  0  0  0  0  0  0  0  0
    8.0272  -14.9606   21.4742 C   0  0  2  0  0  0  0  0  0  0  0  0
    8.3986  -14.6223   22.8689 N   0  0  0  0  0  0  0  0  0  0  0  0
    8.8121  -16.1254   21.0376 C   0  0  0  0  0  0  0  0  0  0  0  0
    8.5429  -16.7775   19.9848 O   0  0  0  0  0  0  0  0  0  0  0  0
   12.6186  -19.6222   20.4702 N   0  0  0  0  0  0  0  0  0  0  0  0
   13.1045  -18.3776   20.9314 C   0  0  0  0  0  0  0  0  0  0  0  0
   14.3387  -18.1755   20.9431 O   0  0  0  0  0  0  0  0  0  0  0  0
   12.1738  -17.3334   21.3916 C   0  0  0  0  0  0  0  0  0  0  0  0
   10.7257  -17.7069   21.3045 C   0  0  2  0  0  0  0  0  0  0  0  0
    9.9239  -16.5735   21.7895 N   0  0  0  0  0  0  0  0  0  0  0  0
   10.5210  -18.9008   22.1517 C   0  0  0  0  0  0  0  0  0  0  0  0
   11.0355  -20.1175   21.7664 O   0  0  0  0  0  0  0  0  0  0  0  0
    9.8794  -18.7907   23.2141 O   0  0  0  0  0  0  0  0  0  0  0  0
  2  1  1  1
  2  3  1  0
  4  2  1  0
  5  4  1  0
  5  7  1  0
  5  6  1  6
  7 13  1  0
  8  7  2  0
 10  9  1  1
 10 11  1  0
 12 10  1  0
 12 13  1  1
 14 21  1  0
 14 12  1  0
 15 14  2  0
 17 16  1  0
 17 18  2  0
 19 17  1  0
 20 19  1  1
 20 22  1  0
 20 21  1  0
 22 23  1  0
 24 22  2  0
M  END
$$$$
