LVN.pdb
     RDKit          3D

 24 23  0  0  1  0  0  0  0  0999 V2000
    8.3941  -12.2202   27.1836 C   0  0  0  0  0  0  0  0  0  0  0  0
    7.4698  -13.2365   26.5349 C   0  0  1  0  0  0  0  0  0  0  0  0
    6.1697  -12.4668   26.2556 C   0  0  0  0  0  0  0  0  0  0  0  0
    8.0109  -13.7902   25.2726 C   0  0  0  0  0  0  0  0  0  0  0  0
    7.1701  -14.7210   24.5055 C   0  0  2  0  0  0  0  0  0  0  0  0
    6.7648  -15.8829   25.2630 N   0  0  0  0  0  0  0  0  0  0  0  0
    7.6626  -15.1621   23.1856 C   0  0  0  0  0  0  0  0  0  0  0  0
    7.8146  -16.4209   22.9484 O   0  0  0  0  0  0  0  0  0  0  0  0
    8.8657  -12.6766   19.9777 C   0  0  0  0  0  0  0  0  0  0  0  0
    7.8560  -13.8050   19.7984 C   0  0  2  0  0  0  0  0  0  0  0  0
    6.4863  -13.2468   19.9867 C   0  0  0  0  0  0  0  0  0  0  0  0
    8.2577  -14.8844   20.7511 C   0  0  2  0  0  0  0  0  0  0  0  0
    8.0079  -14.3233   22.1004 N   0  0  0  0  0  0  0  0  0  0  0  0
    9.6620  -15.3123   20.6617 C   0  0  0  0  0  0  0  0  0  0  0  0
   10.1745  -15.7627   19.5937 O   0  0  0  0  0  0  0  0  0  0  0  0
   12.9701  -13.7220   19.3011 N   0  0  0  0  0  0  0  0  0  0  0  0
   13.5771  -14.2629   20.4573 C   0  0  0  0  0  0  0  0  0  0  0  0
   14.7897  -14.5671   20.4192 O   0  0  0  0  0  0  0  0  0  0  0  0
   12.7960  -14.4660   21.6890 C   0  0  0  0  0  0  0  0  0  0  0  0
   11.9146  -15.6772   21.6752 C   0  0  2  0  0  0  0  0  0  0  0  0
   10.5165  -15.2352   21.7871 N   0  0  0  0  0  0  0  0  0  0  0  0
   12.2969  -16.5204   22.8276 C   0  0  0  0  0  0  0  0  0  0  0  0
   13.5540  -17.0766   22.8895 O   0  0  0  0  0  0  0  0  0  0  0  0
   11.4691  -16.7196   23.7374 O   0  0  0  0  0  0  0  0  0  0  0  0
  2  1  1  6
  2  3  1  0
  4  2  1  0
  5  4  1  0
  5  7  1  0
  5  6  1  1
  7 13  1  0
  8  7  2  0
 10  9  1  1
 10 11  1  0
 12 10  1  0
 12 13  1  1
 14 21  1  0
 14 12  1  0
 15 14  2  0
 17 16  1  0
 17 18  2  0
 19 17  1  0
 20 19  1  1
 20 22  1  0
 20 21  1  0
 22 23  1  0
 24 22  2  0
M  END
$$$$
