KWM.pdb
     RDKit          3D

 32 33  0  0  1  0  0  0  0  0999 V2000
   28.4705  -23.8229  -16.7341 N   0  0  0  0  0  0  0  0  0  0  0  0
   27.2171  -23.0859  -16.7850 C   0  0  1  0  0  0  0  0  0  0  0  0
   26.2711  -23.6849  -17.8114 C   0  0  0  0  0  0  0  0  0  0  0  0
   26.9867  -23.9036  -19.1238 C   0  0  0  0  0  0  0  0  0  0  0  0
   27.1922  -22.5867  -19.8252 C   0  0  0  0  0  0  0  0  0  0  0  0
   27.5416  -22.7600  -21.2859 C   0  0  0  0  0  0  0  0  0  0  0  0
   27.8551  -21.4235  -21.8016 N   0  0  0  0  0  0  0  0  0  0  0  0
   26.5821  -23.0460  -15.4322 C   0  0  0  0  0  0  0  0  0  0  0  0
   25.8492  -23.9714  -15.0103 O   0  0  0  0  0  0  0  0  0  0  0  0
   26.7959  -21.9412  -14.5765 N   0  0  0  0  0  0  0  0  0  0  0  0
   26.2384  -21.8844  -13.2331 C   0  0  1  0  0  0  0  0  0  0  0  0
   27.0069  -20.9537  -12.3826 C   0  0  0  0  0  0  0  0  0  0  0  0
   26.5142  -20.6354  -11.0630 C   0  0  0  0  0  0  0  0  0  0  0  0
   25.2582  -20.1635  -10.6954 C   0  0  0  0  0  0  0  0  0  0  0  0
   25.2729  -19.9909   -9.3678 N   0  0  0  0  0  0  0  0  0  0  0  0
   26.4732  -20.3276   -8.8631 C   0  0  0  0  0  0  0  0  0  0  0  0
   26.9214  -20.3038   -7.5573 C   0  0  0  0  0  0  0  0  0  0  0  0
   28.2203  -20.7115   -7.3371 C   0  0  0  0  0  0  0  0  0  0  0  0
   29.0667  -21.1308   -8.3417 C   0  0  0  0  0  0  0  0  0  0  0  0
   28.5839  -21.1415   -9.6363 C   0  0  0  0  0  0  0  0  0  0  0  0
   27.2896  -20.7410   -9.8993 C   0  0  0  0  0  0  0  0  0  0  0  0
   24.7956  -21.5785  -13.4010 C   0  0  0  0  0  0  0  0  0  0  0  0
   24.4574  -20.6929  -14.2492 O   0  0  0  0  0  0  0  0  0  0  0  0
   20.1033  -25.4344  -15.1903 C   0  0  0  0  0  0  0  0  0  0  0  0
   19.3428  -24.5821  -13.7598 S   0  0  0  0  0  0  0  0  0  0  0  0
   20.1475  -22.9479  -13.5450 C   0  0  0  0  0  0  0  0  0  0  0  0
   21.5752  -23.2093  -13.2108 C   0  0  0  0  0  0  0  0  0  0  0  0
   22.3885  -21.9474  -13.0434 C   0  0  2  0  0  0  0  0  0  0  0  0
   23.7495  -22.2076  -12.6814 N   0  0  0  0  0  0  0  0  0  0  0  0
   21.7830  -21.0433  -12.0323 C   0  0  0  0  0  0  0  0  0  0  0  0
   22.0247  -21.1426  -10.8047 O   0  0  0  0  0  0  0  0  0  0  0  0
   20.9049  -20.0373  -12.4678 O   0  0  0  0  0  0  0  0  0  0  0  0
  2  3  1  0
  2  1  1  1
  3  4  1  0
  5  4  1  0
  6  5  1  0
  7  6  1  0
  8  9  2  0
  8  2  1  0
 10  8  1  0
 11 22  1  0
 11 10  1  0
 11 12  1  1
 13 12  1  0
 14 13  2  0
 15 14  1  0
 16 15  1  0
 16 21  2  0
 17 16  1  0
 18 17  2  0
 18 19  1  0
 19 20  2  0
 20 21  1  0
 21 13  1  0
 22 29  1  0
 23 22  2  0
 24 25  1  0
 25 26  1  0
 26 27  1  0
 28 27  1  1
 28 30  1  0
 29 28  1  0
 30 31  2  0
 30 32  1  0
M  END
$$$$
