KWM.pdb
     RDKit          3D

 32 33  0  0  1  0  0  0  0  0999 V2000
   28.4112  -22.3325  -15.4695 N   0  0  0  0  0  0  0  0  0  0  0  0
   28.2023  -21.0717  -14.7741 C   0  0  1  0  0  0  0  0  0  0  0  0
   27.6160  -20.0239  -15.7046 C   0  0  0  0  0  0  0  0  0  0  0  0
   28.6238  -19.6321  -16.7595 C   0  0  0  0  0  0  0  0  0  0  0  0
   28.3887  -20.4256  -18.0179 C   0  0  0  0  0  0  0  0  0  0  0  0
   29.2981  -19.9980  -19.1474 C   0  0  0  0  0  0  0  0  0  0  0  0
   29.0265  -20.9041  -20.2680 N   0  0  0  0  0  0  0  0  0  0  0  0
   27.3267  -21.2755  -13.5796 C   0  0  0  0  0  0  0  0  0  0  0  0
   26.2378  -21.8929  -13.6466 O   0  0  0  0  0  0  0  0  0  0  0  0
   27.7119  -20.7667  -12.3182 N   0  0  0  0  0  0  0  0  0  0  0  0
   26.9349  -21.0176  -11.1132 C   0  0  1  0  0  0  0  0  0  0  0  0
   27.6767  -20.5916   -9.9097 C   0  0  0  0  0  0  0  0  0  0  0  0
   26.9773  -20.4907   -8.6503 C   0  0  0  0  0  0  0  0  0  0  0  0
   25.6132  -20.6061   -8.4028 C   0  0  0  0  0  0  0  0  0  0  0  0
   25.4312  -20.4145   -7.0902 N   0  0  0  0  0  0  0  0  0  0  0  0
   26.6076  -20.1820   -6.4814 C   0  0  0  0  0  0  0  0  0  0  0  0
   26.8808  -19.9356   -5.1505 C   0  0  0  0  0  0  0  0  0  0  0  0
   28.2022  -19.7304   -4.8136 C   0  0  0  0  0  0  0  0  0  0  0  0
   29.2340  -19.7607   -5.7279 C   0  0  0  0  0  0  0  0  0  0  0  0
   28.9231  -20.0103   -7.0509 C   0  0  0  0  0  0  0  0  0  0  0  0
   27.6128  -20.2209   -7.4297 C   0  0  0  0  0  0  0  0  0  0  0  0
   25.6172  -20.3705  -11.3335 C   0  0  0  0  0  0  0  0  0  0  0  0
   25.5839  -19.1157  -11.5397 O   0  0  0  0  0  0  0  0  0  0  0  0
   22.7273  -19.5999  -16.0528 C   0  0  0  0  0  0  0  0  0  0  0  0
   21.1621  -19.8855  -15.1475 S   0  0  0  0  0  0  0  0  0  0  0  0
   21.4751  -19.7099  -13.3488 C   0  0  0  0  0  0  0  0  0  0  0  0
   22.7577  -20.4112  -13.0624 C   0  0  0  0  0  0  0  0  0  0  0  0
   23.1721  -20.3261  -11.6124 C   0  0  2  0  0  0  0  0  0  0  0  0
   24.3750  -21.0523  -11.3349 N   0  0  0  0  0  0  0  0  0  0  0  0
   22.0950  -20.8117  -10.7121 C   0  0  0  0  0  0  0  0  0  0  0  0
   22.0025  -22.0108  -10.3532 O   0  0  0  0  0  0  0  0  0  0  0  0
   21.1422  -19.8920  -10.2441 O   0  0  0  0  0  0  0  0  0  0  0  0
  2  3  1  0
  2  1  1  6
  3  4  1  0
  5  4  1  0
  6  5  1  0
  7  6  1  0
  8  9  2  0
  8  2  1  0
 10  8  1  0
 11 22  1  0
 11 10  1  0
 11 12  1  1
 13 12  1  0
 14 13  2  0
 15 14  1  0
 16 15  1  0
 16 21  2  0
 17 16  1  0
 18 17  2  0
 18 19  1  0
 19 20  2  0
 20 21  1  0
 21 13  1  0
 22 29  1  0
 23 22  2  0
 24 25  1  0
 25 26  1  0
 26 27  1  0
 28 27  1  6
 28 30  1  0
 29 28  1  0
 30 31  2  0
 30 32  1  0
M  END
$$$$
