KWM.pdb
     RDKit          3D

 32 33  0  0  1  0  0  0  0  0999 V2000
   28.0885  -23.8585  -17.6241 N   0  0  0  0  0  0  0  0  0  0  0  0
   29.3214  -23.1916  -17.2340 C   0  0  1  0  0  0  0  0  0  0  0  0
   30.1253  -22.7710  -18.4522 C   0  0  0  0  0  0  0  0  0  0  0  0
   30.2936  -23.9348  -19.4006 C   0  0  0  0  0  0  0  0  0  0  0  0
   29.0165  -24.1666  -20.1646 C   0  0  0  0  0  0  0  0  0  0  0  0
   29.1638  -25.2366  -21.2224 C   0  0  0  0  0  0  0  0  0  0  0  0
   27.8205  -25.4837  -21.7563 N   0  0  0  0  0  0  0  0  0  0  0  0
   29.0226  -22.0166  -16.3592 C   0  0  0  0  0  0  0  0  0  0  0  0
   29.9247  -21.2711  -15.9102 O   0  0  0  0  0  0  0  0  0  0  0  0
   27.6878  -21.7100  -16.0086 N   0  0  0  0  0  0  0  0  0  0  0  0
   27.3426  -20.5179  -15.2479 C   0  0  1  0  0  0  0  0  0  0  0  0
   26.5347  -19.5886  -16.0627 C   0  0  0  0  0  0  0  0  0  0  0  0
   26.4896  -18.1914  -15.7006 C   0  0  0  0  0  0  0  0  0  0  0  0
   27.5484  -17.3245  -15.4504 C   0  0  0  0  0  0  0  0  0  0  0  0
   27.0205  -16.1371  -15.1278 N   0  0  0  0  0  0  0  0  0  0  0  0
   25.6772  -16.1961  -15.1576 C   0  0  0  0  0  0  0  0  0  0  0  0
   24.7431  -15.2135  -14.8956 C   0  0  0  0  0  0  0  0  0  0  0  0
   23.4158  -15.5703  -15.0075 C   0  0  0  0  0  0  0  0  0  0  0  0
   22.9951  -16.8350  -15.3611 C   0  0  0  0  0  0  0  0  0  0  0  0
   23.9580  -17.7927  -15.6161 C   0  0  0  0  0  0  0  0  0  0  0  0
   25.2975  -17.4764  -15.5152 C   0  0  0  0  0  0  0  0  0  0  0  0
   26.7169  -21.0008  -13.9914 C   0  0  0  0  0  0  0  0  0  0  0  0
   25.9726  -22.0311  -14.0407 O   0  0  0  0  0  0  0  0  0  0  0  0
   26.0758  -21.0133   -6.1082 C   0  0  0  0  0  0  0  0  0  0  0  0
   26.8272  -20.2699   -7.6028 S   0  0  0  0  0  0  0  0  0  0  0  0
   26.0537  -21.0144   -9.0900 C   0  0  0  0  0  0  0  0  0  0  0  0
   26.7482  -20.4364  -10.2741 C   0  0  0  0  0  0  0  0  0  0  0  0
   26.1848  -20.9197  -11.5897 C   0  0  2  0  0  0  0  0  0  0  0  0
   26.8891  -20.3961  -12.7215 N   0  0  0  0  0  0  0  0  0  0  0  0
   24.7439  -20.5824  -11.7179 C   0  0  0  0  0  0  0  0  0  0  0  0
   24.3440  -19.4564  -12.1021 O   0  0  0  0  0  0  0  0  0  0  0  0
   23.7911  -21.5630  -11.3963 O   0  0  0  0  0  0  0  0  0  0  0  0
  2  3  1  0
  2  1  1  6
  3  4  1  0
  5  4  1  0
  6  5  1  0
  7  6  1  0
  8  9  2  0
  8  2  1  0
 10  8  1  0
 11 22  1  0
 11 10  1  0
 11 12  1  6
 13 12  1  0
 14 13  2  0
 15 14  1  0
 16 15  1  0
 16 21  2  0
 17 16  1  0
 18 17  2  0
 18 19  1  0
 19 20  2  0
 20 21  1  0
 21 13  1  0
 22 29  1  0
 23 22  2  0
 24 25  1  0
 25 26  1  0
 26 27  1  0
 28 27  1  1
 28 30  1  0
 29 28  1  0
 30 31  2  0
 30 32  1  0
M  END
$$$$
