KWM.pdb
     RDKit          3D

 32 33  0  0  1  0  0  0  0  0999 V2000
   25.7991  -19.8725  -13.0941 N   0  0  0  0  0  0  0  0  0  0  0  0
   26.3903  -21.1541  -12.7409 C   0  0  1  0  0  0  0  0  0  0  0  0
   27.8830  -21.1644  -13.0218 C   0  0  0  0  0  0  0  0  0  0  0  0
   28.1750  -20.4990  -14.3462 C   0  0  0  0  0  0  0  0  0  0  0  0
   28.0974  -21.5100  -15.4599 C   0  0  0  0  0  0  0  0  0  0  0  0
   28.3531  -20.8938  -16.8166 C   0  0  0  0  0  0  0  0  0  0  0  0
   28.1964  -21.9701  -17.8002 N   0  0  0  0  0  0  0  0  0  0  0  0
   26.1140  -21.4768  -11.3075 C   0  0  0  0  0  0  0  0  0  0  0  0
   26.4863  -22.5516  -10.7806 O   0  0  0  0  0  0  0  0  0  0  0  0
   25.4114  -20.5596  -10.4929 N   0  0  0  0  0  0  0  0  0  0  0  0
   25.1198  -20.8342   -9.0935 C   0  0  1  0  0  0  0  0  0  0  0  0
   25.7629  -19.8363   -8.2156 C   0  0  0  0  0  0  0  0  0  0  0  0
   27.1330  -20.0375   -7.8061 C   0  0  0  0  0  0  0  0  0  0  0  0
   28.2235  -20.4206   -8.5803 C   0  0  0  0  0  0  0  0  0  0  0  0
   29.2809  -20.5009   -7.7630 N   0  0  0  0  0  0  0  0  0  0  0  0
   28.9265  -20.1891   -6.5036 C   0  0  0  0  0  0  0  0  0  0  0  0
   29.6920  -20.1439   -5.3553 C   0  0  0  0  0  0  0  0  0  0  0  0
   29.0466  -19.7860   -4.1903 C   0  0  0  0  0  0  0  0  0  0  0  0
   27.7036  -19.4796   -4.1279 C   0  0  0  0  0  0  0  0  0  0  0  0
   26.9690  -19.5354   -5.2969 C   0  0  0  0  0  0  0  0  0  0  0  0
   27.5771  -19.8893   -6.4842 C   0  0  0  0  0  0  0  0  0  0  0  0
   23.6422  -20.9372   -8.9955 C   0  0  0  0  0  0  0  0  0  0  0  0
   22.9311  -20.2231   -9.7717 O   0  0  0  0  0  0  0  0  0  0  0  0
   19.8172  -24.6538   -4.9213 C   0  0  0  0  0  0  0  0  0  0  0  0
   19.0841  -24.7854   -6.5936 S   0  0  0  0  0  0  0  0  0  0  0  0
   19.5286  -23.2892   -7.5569 C   0  0  0  0  0  0  0  0  0  0  0  0
   21.0022  -23.1139   -7.4285 C   0  0  0  0  0  0  0  0  0  0  0  0
   21.5336  -21.9414   -8.2187 C   0  0  2  0  0  0  0  0  0  0  0  0
   22.9516  -21.7838   -8.0932 N   0  0  0  0  0  0  0  0  0  0  0  0
   20.8687  -20.6742   -7.8204 C   0  0  0  0  0  0  0  0  0  0  0  0
   21.4132  -19.8328   -7.0648 O   0  0  0  0  0  0  0  0  0  0  0  0
   19.5792  -20.4073   -8.3089 O   0  0  0  0  0  0  0  0  0  0  0  0
  2  3  1  0
  2  1  1  1
  3  4  1  0
  5  4  1  0
  6  5  1  0
  7  6  1  0
  8  9  2  0
  8  2  1  0
 10  8  1  0
 11 22  1  0
 11 10  1  0
 11 12  1  1
 13 12  1  0
 14 13  2  0
 15 14  1  0
 16 15  1  0
 16 21  2  0
 17 16  1  0
 18 17  2  0
 18 19  1  0
 19 20  2  0
 20 21  1  0
 21 13  1  0
 22 29  1  0
 23 22  2  0
 24 25  1  0
 25 26  1  0
 26 27  1  0
 28 27  1  1
 28 30  1  0
 29 28  1  0
 30 31  2  0
 30 32  1  0
M  END
$$$$
