KWM.pdb
     RDKit          3D

 32 33  0  0  1  0  0  0  0  0999 V2000
   28.0268  -23.3998  -17.5505 N   0  0  0  0  0  0  0  0  0  0  0  0
   28.8695  -22.7202  -16.5784 C   0  0  1  0  0  0  0  0  0  0  0  0
   30.0836  -22.0982  -17.2465 C   0  0  0  0  0  0  0  0  0  0  0  0
   30.5768  -22.9796  -18.3699 C   0  0  0  0  0  0  0  0  0  0  0  0
   31.6889  -23.8684  -17.8782 C   0  0  0  0  0  0  0  0  0  0  0  0
   32.2561  -24.7416  -18.9743 C   0  0  0  0  0  0  0  0  0  0  0  0
   33.4012  -25.4500  -18.3933 N   0  0  0  0  0  0  0  0  0  0  0  0
   28.0806  -21.6891  -15.8371 C   0  0  0  0  0  0  0  0  0  0  0  0
   28.5344  -20.5457  -15.5967 O   0  0  0  0  0  0  0  0  0  0  0  0
   26.7761  -21.9832  -15.3787 N   0  0  0  0  0  0  0  0  0  0  0  0
   25.9373  -20.9807  -14.7380 C   0  0  1  0  0  0  0  0  0  0  0  0
   24.6611  -20.8202  -15.4630 C   0  0  0  0  0  0  0  0  0  0  0  0
   23.6151  -20.0149  -14.8776 C   0  0  0  0  0  0  0  0  0  0  0  0
   23.7292  -18.8183  -14.1775 C   0  0  0  0  0  0  0  0  0  0  0  0
   22.4945  -18.4568  -13.8069 N   0  0  0  0  0  0  0  0  0  0  0  0
   21.5927  -19.3592  -14.2326 C   0  0  0  0  0  0  0  0  0  0  0  0
   20.2212  -19.3812  -14.0738 C   0  0  0  0  0  0  0  0  0  0  0  0
   19.5473  -20.4495  -14.6270 C   0  0  0  0  0  0  0  0  0  0  0  0
   20.1712  -21.4694  -15.3141 C   0  0  0  0  0  0  0  0  0  0  0  0
   21.5448  -21.4141  -15.4534 C   0  0  0  0  0  0  0  0  0  0  0  0
   22.2568  -20.3618  -14.9145 C   0  0  0  0  0  0  0  0  0  0  0  0
   25.8348  -21.3826  -13.3128 C   0  0  0  0  0  0  0  0  0  0  0  0
   25.5231  -22.5858  -13.0421 O   0  0  0  0  0  0  0  0  0  0  0  0
   28.0345  -18.3327   -7.8214 C   0  0  0  0  0  0  0  0  0  0  0  0
   27.5953  -20.0520   -7.3719 S   0  0  0  0  0  0  0  0  0  0  0  0
   26.2140  -20.6117   -8.4411 C   0  0  0  0  0  0  0  0  0  0  0  0
   26.5473  -20.1949   -9.8318 C   0  0  0  0  0  0  0  0  0  0  0  0
   25.8045  -20.9839  -10.8841 C   0  0  2  0  0  0  0  0  0  0  0  0
   26.0634  -20.5182  -12.2135 N   0  0  0  0  0  0  0  0  0  0  0  0
   24.3392  -20.9647  -10.6413 C   0  0  0  0  0  0  0  0  0  0  0  0
   23.5522  -20.2498  -11.3083 O   0  0  0  0  0  0  0  0  0  0  0  0
   23.8139  -21.7791   -9.6248 O   0  0  0  0  0  0  0  0  0  0  0  0
  2  3  1  0
  2  1  1  6
  3  4  1  0
  5  4  1  0
  6  5  1  0
  7  6  1  0
  8  9  2  0
  8  2  1  0
 10  8  1  0
 11 22  1  0
 11 10  1  0
 11 12  1  6
 13 12  1  0
 14 13  2  0
 15 14  1  0
 16 15  1  0
 16 21  2  0
 17 16  1  0
 18 17  2  0
 18 19  1  0
 19 20  2  0
 20 21  1  0
 21 13  1  0
 22 29  1  0
 23 22  2  0
 24 25  1  0
 25 26  1  0
 26 27  1  0
 28 27  1  1
 28 30  1  0
 29 28  1  0
 30 31  2  0
 30 32  1  0
M  END
$$$$
