KWM.pdb
     RDKit          3D

 32 33  0  0  1  0  0  0  0  0999 V2000
   28.4611  -20.9179  -16.0440 N   0  0  0  0  0  0  0  0  0  0  0  0
   28.2557  -20.1463  -14.8277 C   0  0  1  0  0  0  0  0  0  0  0  0
   27.7702  -18.7425  -15.1454 C   0  0  0  0  0  0  0  0  0  0  0  0
   28.0743  -18.3920  -16.5831 C   0  0  0  0  0  0  0  0  0  0  0  0
   29.4639  -17.8217  -16.6923 C   0  0  0  0  0  0  0  0  0  0  0  0
   29.7926  -17.3695  -18.0970 C   0  0  0  0  0  0  0  0  0  0  0  0
   31.1947  -16.9402  -18.0800 N   0  0  0  0  0  0  0  0  0  0  0  0
   27.2983  -20.8504  -13.9207 C   0  0  0  0  0  0  0  0  0  0  0  0
   26.2724  -21.4283  -14.3505 O   0  0  0  0  0  0  0  0  0  0  0  0
   27.5300  -20.8831  -12.5265 N   0  0  0  0  0  0  0  0  0  0  0  0
   26.6044  -21.5237  -11.6037 C   0  0  1  0  0  0  0  0  0  0  0  0
   27.2391  -21.7440  -10.2888 C   0  0  0  0  0  0  0  0  0  0  0  0
   26.8460  -20.9198   -9.1701 C   0  0  0  0  0  0  0  0  0  0  0  0
   25.6873  -20.1665   -9.0112 C   0  0  0  0  0  0  0  0  0  0  0  0
   25.7746  -19.5510   -7.8254 N   0  0  0  0  0  0  0  0  0  0  0  0
   26.9293  -19.8697   -7.2140 C   0  0  0  0  0  0  0  0  0  0  0  0
   27.4223  -19.4648   -5.9894 C   0  0  0  0  0  0  0  0  0  0  0  0
   28.6538  -19.9624   -5.6185 C   0  0  0  0  0  0  0  0  0  0  0  0
   29.3928  -20.8248   -6.4004 C   0  0  0  0  0  0  0  0  0  0  0  0
   28.8680  -21.2085   -7.6197 C   0  0  0  0  0  0  0  0  0  0  0  0
   27.6384  -20.7331   -8.0282 C   0  0  0  0  0  0  0  0  0  0  0  0
   25.3781  -20.6873  -11.6070 C   0  0  0  0  0  0  0  0  0  0  0  0
   25.4917  -19.4443  -11.8524 O   0  0  0  0  0  0  0  0  0  0  0  0
   22.8972  -21.6023  -16.3900 C   0  0  0  0  0  0  0  0  0  0  0  0
   22.2794  -19.9263  -15.9893 S   0  0  0  0  0  0  0  0  0  0  0  0
   21.9603  -19.8259  -14.1858 C   0  0  0  0  0  0  0  0  0  0  0  0
   23.1037  -20.4963  -13.5062 C   0  0  0  0  0  0  0  0  0  0  0  0
   22.9527  -20.5546  -12.0044 C   0  0  2  0  0  0  0  0  0  0  0  0
   24.0707  -21.1732  -11.3573 N   0  0  0  0  0  0  0  0  0  0  0  0
   21.7107  -21.2688  -11.6125 C   0  0  0  0  0  0  0  0  0  0  0  0
   21.6006  -22.5177  -11.6725 O   0  0  0  0  0  0  0  0  0  0  0  0
   20.6158  -20.5162  -11.1567 O   0  0  0  0  0  0  0  0  0  0  0  0
  2  3  1  0
  2  1  1  6
  3  4  1  0
  5  4  1  0
  6  5  1  0
  7  6  1  0
  8  9  2  0
  8  2  1  0
 10  8  1  0
 11 22  1  0
 11 10  1  0
 11 12  1  1
 13 12  1  0
 14 13  2  0
 15 14  1  0
 16 15  1  0
 16 21  2  0
 17 16  1  0
 18 17  2  0
 18 19  1  0
 19 20  2  0
 20 21  1  0
 21 13  1  0
 22 29  1  0
 23 22  2  0
 24 25  1  0
 25 26  1  0
 26 27  1  0
 28 27  1  6
 28 30  1  0
 29 28  1  0
 30 31  2  0
 30 32  1  0
M  END
$$$$
