KWM.pdb
     RDKit          3D

 32 33  0  0  1  0  0  0  0  0999 V2000
   28.8618  -20.9642  -15.0771 N   0  0  0  0  0  0  0  0  0  0  0  0
   27.4909  -21.3854  -15.3219 C   0  0  1  0  0  0  0  0  0  0  0  0
   27.4481  -22.6409  -16.1759 C   0  0  0  0  0  0  0  0  0  0  0  0
   28.5621  -22.6230  -17.1961 C   0  0  0  0  0  0  0  0  0  0  0  0
   28.0290  -22.1840  -18.5345 C   0  0  0  0  0  0  0  0  0  0  0  0
   29.0916  -22.1950  -19.6099 C   0  0  0  0  0  0  0  0  0  0  0  0
   28.4563  -21.6861  -20.8298 N   0  0  0  0  0  0  0  0  0  0  0  0
   26.7722  -21.5945  -14.0278 C   0  0  0  0  0  0  0  0  0  0  0  0
   25.6463  -22.1426  -13.9695 O   0  0  0  0  0  0  0  0  0  0  0  0
   27.3556  -21.1709  -12.8118 N   0  0  0  0  0  0  0  0  0  0  0  0
   26.6249  -21.1974  -11.5531 C   0  0  1  0  0  0  0  0  0  0  0  0
   27.5432  -21.0420  -10.4074 C   0  0  0  0  0  0  0  0  0  0  0  0
   26.9968  -20.7684   -9.0990 C   0  0  0  0  0  0  0  0  0  0  0  0
   25.6725  -20.8391   -8.6787 C   0  0  0  0  0  0  0  0  0  0  0  0
   25.6454  -20.4725   -7.3913 N   0  0  0  0  0  0  0  0  0  0  0  0
   26.8837  -20.1700   -6.9624 C   0  0  0  0  0  0  0  0  0  0  0  0
   27.3103  -19.7502   -5.7180 C   0  0  0  0  0  0  0  0  0  0  0  0
   28.6606  -19.5122   -5.5702 C   0  0  0  0  0  0  0  0  0  0  0  0
   29.5773  -19.6723   -6.5878 C   0  0  0  0  0  0  0  0  0  0  0  0
   29.1141  -20.0939   -7.8195 C   0  0  0  0  0  0  0  0  0  0  0  0
   27.7700  -20.3429   -8.0091 C   0  0  0  0  0  0  0  0  0  0  0  0
   25.5557  -20.1754  -11.6787 C   0  0  0  0  0  0  0  0  0  0  0  0
   25.8393  -19.0644  -12.2295 O   0  0  0  0  0  0  0  0  0  0  0  0
   24.6941  -18.7361  -16.1087 C   0  0  0  0  0  0  0  0  0  0  0  0
   22.9346  -19.2391  -16.0591 S   0  0  0  0  0  0  0  0  0  0  0  0
   22.3603  -19.2216  -14.3171 C   0  0  0  0  0  0  0  0  0  0  0  0
   23.4572  -19.8032  -13.4942 C   0  0  0  0  0  0  0  0  0  0  0  0
   23.1418  -19.8332  -12.0172 C   0  0  2  0  0  0  0  0  0  0  0  0
   24.2227  -20.3444  -11.2287 N   0  0  0  0  0  0  0  0  0  0  0  0
   21.9207  -20.6324  -11.7406 C   0  0  0  0  0  0  0  0  0  0  0  0
   20.7648  -20.1484  -11.8113 O   0  0  0  0  0  0  0  0  0  0  0  0
   22.0657  -21.9836  -11.3857 O   0  0  0  0  0  0  0  0  0  0  0  0
  2  3  1  0
  2  1  1  1
  3  4  1  0
  5  4  1  0
  6  5  1  0
  7  6  1  0
  8  9  2  0
  8  2  1  0
 10  8  1  0
 11 22  1  0
 11 10  1  0
 11 12  1  1
 13 12  1  0
 14 13  2  0
 15 14  1  0
 16 15  1  0
 16 21  2  0
 17 16  1  0
 18 17  2  0
 18 19  1  0
 19 20  2  0
 20 21  1  0
 21 13  1  0
 22 29  1  0
 23 22  2  0
 24 25  1  0
 25 26  1  0
 26 27  1  0
 28 27  1  6
 28 30  1  0
 29 28  1  0
 30 31  2  0
 30 32  1  0
M  END
$$$$
