KWM.pdb
     RDKit          3D

 32 33  0  0  1  0  0  0  0  0999 V2000
   27.4581  -21.6982  -13.8463 N   0  0  0  0  0  0  0  0  0  0  0  0
   26.7308  -20.6418  -13.1595 C   0  0  1  0  0  0  0  0  0  0  0  0
   25.5931  -20.1139  -14.0164 C   0  0  0  0  0  0  0  0  0  0  0  0
   26.0693  -18.9673  -14.8771 C   0  0  0  0  0  0  0  0  0  0  0  0
   26.2224  -19.4226  -16.3046 C   0  0  0  0  0  0  0  0  0  0  0  0
   26.8092  -18.3486  -17.1923 C   0  0  0  0  0  0  0  0  0  0  0  0
   26.9217  -18.9309  -18.5335 N   0  0  0  0  0  0  0  0  0  0  0  0
   26.2238  -21.1318  -11.8412 C   0  0  0  0  0  0  0  0  0  0  0  0
   26.0330  -22.3488  -11.6090 O   0  0  0  0  0  0  0  0  0  0  0  0
   25.9407  -20.2168  -10.8014 N   0  0  0  0  0  0  0  0  0  0  0  0
   25.5499  -20.6562   -9.4699 C   0  0  1  0  0  0  0  0  0  0  0  0
   26.1335  -19.7809   -8.4338 C   0  0  0  0  0  0  0  0  0  0  0  0
   27.4314  -20.1033   -7.8890 C   0  0  0  0  0  0  0  0  0  0  0  0
   28.4428  -20.8742   -8.4528 C   0  0  0  0  0  0  0  0  0  0  0  0
   29.4493  -20.9138   -7.5707 N   0  0  0  0  0  0  0  0  0  0  0  0
   29.1370  -20.2082   -6.4692 C   0  0  0  0  0  0  0  0  0  0  0  0
   29.8746  -19.9855   -5.3233 C   0  0  0  0  0  0  0  0  0  0  0  0
   29.2876  -19.2102   -4.3456 C   0  0  0  0  0  0  0  0  0  0  0  0
   28.0273  -18.6630   -4.4631 C   0  0  0  0  0  0  0  0  0  0  0  0
   27.3184  -18.9069   -5.6238 C   0  0  0  0  0  0  0  0  0  0  0  0
   27.8701  -19.6780   -6.6267 C   0  0  0  0  0  0  0  0  0  0  0  0
   24.0686  -20.7515   -9.4884 C   0  0  0  0  0  0  0  0  0  0  0  0
   23.4363  -20.1957  -10.4420 O   0  0  0  0  0  0  0  0  0  0  0  0
   17.5261  -24.4692   -7.0508 C   0  0  0  0  0  0  0  0  0  0  0  0
   19.2513  -23.9786   -6.6847 S   0  0  0  0  0  0  0  0  0  0  0  0
   19.8096  -22.7770   -7.9532 C   0  0  0  0  0  0  0  0  0  0  0  0
   21.2557  -22.5236   -7.7022 C   0  0  0  0  0  0  0  0  0  0  0  0
   21.8976  -21.6470   -8.7516 C   0  0  2  0  0  0  0  0  0  0  0  0
   23.2925  -21.4259   -8.5134 N   0  0  0  0  0  0  0  0  0  0  0  0
   21.2102  -20.3342   -8.8546 C   0  0  0  0  0  0  0  0  0  0  0  0
   20.1714  -20.1661   -9.5386 O   0  0  0  0  0  0  0  0  0  0  0  0
   21.7445  -19.2374   -8.1586 O   0  0  0  0  0  0  0  0  0  0  0  0
  2  3  1  0
  2  1  1  6
  3  4  1  0
  5  4  1  0
  6  5  1  0
  7  6  1  0
  8  9  2  0
  8  2  1  0
 10  8  1  0
 11 22  1  0
 11 10  1  0
 11 12  1  1
 13 12  1  0
 14 13  2  0
 15 14  1  0
 16 15  1  0
 16 21  2  0
 17 16  1  0
 18 17  2  0
 18 19  1  0
 19 20  2  0
 20 21  1  0
 21 13  1  0
 22 29  1  0
 23 22  2  0
 24 25  1  0
 25 26  1  0
 26 27  1  0
 28 27  1  1
 28 30  1  0
 29 28  1  0
 30 31  2  0
 30 32  1  0
M  END
$$$$
