CIG.pdb
     RDKit          3D

 19 18  0  0  1  0  0  0  0  0999 V2000
    7.6579  -14.5803   20.3551 N   0  0  0  0  0  0  0  0  0  0  0  0
    6.9755  -15.1894   21.4501 C   0  0  1  0  0  0  0  0  0  0  0  0
    6.7099  -16.6512   21.2892 C   0  0  0  0  0  0  0  0  0  0  0  0
    5.8204  -17.2382   22.7583 S   0  0  0  0  0  0  0  0  0  0  0  0
    7.7273  -14.9940   22.7454 C   0  0  0  0  0  0  0  0  0  0  0  0
    8.9536  -15.1576   22.6849 O   0  0  0  0  0  0  0  0  0  0  0  0
    5.9052  -11.4221   26.2124 C   0  0  0  0  0  0  0  0  0  0  0  0
    6.7768  -12.3428   25.3488 C   0  0  0  0  0  0  0  0  0  0  0  0
    7.2098  -13.5564   26.1354 C   0  0  2  0  0  0  0  0  0  0  0  0
    8.1628  -13.1494   27.2329 C   0  0  0  0  0  0  0  0  0  0  0  0
    7.8151  -14.5511   25.1803 C   0  0  2  0  0  0  0  0  0  0  0  0
    7.1100  -14.6528   23.9424 N   0  0  0  0  0  0  0  0  0  0  0  0
    8.2057  -15.8191   25.7763 C   0  0  0  0  0  0  0  0  0  0  0  0
    7.3578  -16.6039   26.3120 O   0  0  0  0  0  0  0  0  0  0  0  0
    9.5520  -16.2810   25.8091 N   0  0  0  0  0  0  0  0  0  0  0  0
    9.8894  -17.6005   26.2957 C   0  0  0  0  0  0  0  0  0  0  0  0
   10.5742  -17.4932   27.6168 C   0  0  0  0  0  0  0  0  0  0  0  0
   10.9728  -18.6268   28.3062 O   0  0  0  0  0  0  0  0  0  0  0  0
   10.8145  -16.3837   28.1518 O   0  0  0  0  0  0  0  0  0  0  0  0
  2  1  1  6
  3  2  1  0
  4  3  1  0
  5  6  2  0
  5  2  1  0
  8  7  1  0
  8  9  1  0
  9 11  1  0
  9 10  1  1
 11 13  1  0
 11 12  1  6
 12  5  1  0
 13 15  1  0
 14 13  2  0
 15 16  1  0
 16 17  1  0
 17 19  2  0
 17 18  1  0
M  END
$$$$
