CIG.pdb
     RDKit          3D

 19 18  0  0  1  0  0  0  0  0999 V2000
    5.0244  -17.6733   22.3825 N   0  0  0  0  0  0  0  0  0  0  0  0
    5.5449  -17.6875   23.7109 C   0  0  1  0  0  0  0  0  0  0  0  0
    6.0921  -19.0047   24.1567 C   0  0  0  0  0  0  0  0  0  0  0  0
    4.7027  -20.0754   24.6229 S   0  0  0  0  0  0  0  0  0  0  0  0
    6.6283  -16.6503   23.8894 C   0  0  0  0  0  0  0  0  0  0  0  0
    7.3603  -16.4635   22.9079 O   0  0  0  0  0  0  0  0  0  0  0  0
    5.7752  -12.2909   26.6766 C   0  0  0  0  0  0  0  0  0  0  0  0
    6.3967  -13.2102   25.6174 C   0  0  0  0  0  0  0  0  0  0  0  0
    7.6251  -13.8966   26.1642 C   0  0  2  0  0  0  0  0  0  0  0  0
    8.7709  -12.9178   26.2492 C   0  0  0  0  0  0  0  0  0  0  0  0
    7.9375  -15.0812   25.2882 C   0  0  2  0  0  0  0  0  0  0  0  0
    6.8154  -15.9365   25.0667 N   0  0  0  0  0  0  0  0  0  0  0  0
    9.1848  -15.7635   25.5957 C   0  0  0  0  0  0  0  0  0  0  0  0
    9.5717  -15.9576   26.7933 O   0  0  0  0  0  0  0  0  0  0  0  0
   10.0645  -16.2641   24.5945 N   0  0  0  0  0  0  0  0  0  0  0  0
   11.3021  -16.9298   24.9364 C   0  0  0  0  0  0  0  0  0  0  0  0
   12.4584  -16.1587   24.3943 C   0  0  0  0  0  0  0  0  0  0  0  0
   13.7611  -16.5389   24.6728 O   0  0  0  0  0  0  0  0  0  0  0  0
   12.3001  -15.1449   23.6716 O   0  0  0  0  0  0  0  0  0  0  0  0
  2  1  1  6
  3  2  1  0
  4  3  1  0
  5  6  2  0
  5  2  1  0
  8  7  1  0
  8  9  1  0
  9 11  1  0
  9 10  1  6
 11 13  1  0
 11 12  1  1
 12  5  1  0
 13 15  1  0
 14 13  2  0
 15 16  1  0
 16 17  1  0
 17 19  2  0
 17 18  1  0
M  END
$$$$
