CIG.pdb
     RDKit          3D

 19 18  0  0  1  0  0  0  0  0999 V2000
    5.8429  -16.2544   21.2184 N   0  0  0  0  0  0  0  0  0  0  0  0
    5.7837  -16.5245   22.6181 C   0  0  1  0  0  0  0  0  0  0  0  0
    5.8621  -17.9718   22.9819 C   0  0  0  0  0  0  0  0  0  0  0  0
    4.3236  -18.7796   22.4579 S   0  0  0  0  0  0  0  0  0  0  0  0
    6.8762  -15.7980   23.3663 C   0  0  0  0  0  0  0  0  0  0  0  0
    7.9633  -15.7110   22.7792 O   0  0  0  0  0  0  0  0  0  0  0  0
    5.4359  -11.9759   26.7861 C   0  0  0  0  0  0  0  0  0  0  0  0
    6.2732  -12.7087   25.7300 C   0  0  0  0  0  0  0  0  0  0  0  0
    7.2672  -13.6346   26.3886 C   0  0  2  0  0  0  0  0  0  0  0  0
    8.3881  -12.8357   27.0077 C   0  0  0  0  0  0  0  0  0  0  0  0
    7.7559  -14.6183   25.3581 C   0  0  2  0  0  0  0  0  0  0  0  0
    6.7019  -15.2522   24.6321 N   0  0  0  0  0  0  0  0  0  0  0  0
    8.8187  -15.5042   25.8067 C   0  0  0  0  0  0  0  0  0  0  0  0
    8.6773  -16.2757   26.8100 O   0  0  0  0  0  0  0  0  0  0  0  0
   10.0890  -15.5802   25.1683 N   0  0  0  0  0  0  0  0  0  0  0  0
   11.1175  -16.4852   25.6315 C   0  0  0  0  0  0  0  0  0  0  0  0
   12.3123  -16.3915   24.7429 C   0  0  0  0  0  0  0  0  0  0  0  0
   13.4693  -17.0977   25.0286 O   0  0  0  0  0  0  0  0  0  0  0  0
   12.3179  -15.6766   23.7113 O   0  0  0  0  0  0  0  0  0  0  0  0
  2  1  1  6
  3  2  1  0
  4  3  1  0
  5  6  2  0
  5  2  1  0
  8  7  1  0
  8  9  1  0
  9 11  1  0
  9 10  1  6
 11 13  1  0
 11 12  1  1
 12  5  1  0
 13 15  1  0
 14 13  2  0
 15 16  1  0
 16 17  1  0
 17 19  2  0
 17 18  1  0
M  END
$$$$
