CIG.pdb
     RDKit          3D

 19 18  0  0  1  0  0  0  0  0999 V2000
    6.1069  -16.7345   20.7320 N   0  0  0  0  0  0  0  0  0  0  0  0
    5.7531  -16.5826   22.1059 C   0  0  1  0  0  0  0  0  0  0  0  0
    5.6230  -17.8628   22.8657 C   0  0  0  0  0  0  0  0  0  0  0  0
    7.2533  -18.6575   22.9350 S   0  0  0  0  0  0  0  0  0  0  0  0
    6.7439  -15.7077   22.8367 C   0  0  0  0  0  0  0  0  0  0  0  0
    7.8125  -15.4976   22.2468 O   0  0  0  0  0  0  0  0  0  0  0  0
    7.3659  -11.2238   26.9639 C   0  0  0  0  0  0  0  0  0  0  0  0
    7.9437  -12.3934   26.1568 C   0  0  0  0  0  0  0  0  0  0  0  0
    6.8351  -13.2462   25.5887 C   0  0  2  0  0  0  0  0  0  0  0  0
    5.9472  -13.7498   26.7006 C   0  0  0  0  0  0  0  0  0  0  0  0
    7.4554  -14.3626   24.7905 C   0  0  2  0  0  0  0  0  0  0  0  0
    6.4997  -15.1601   24.0901 N   0  0  0  0  0  0  0  0  0  0  0  0
    8.4977  -15.1076   25.4791 C   0  0  0  0  0  0  0  0  0  0  0  0
    8.3354  -15.5669   26.6557 O   0  0  0  0  0  0  0  0  0  0  0  0
    9.7696  -15.3809   24.9007 N   0  0  0  0  0  0  0  0  0  0  0  0
   10.7653  -16.1669   25.5951 C   0  0  0  0  0  0  0  0  0  0  0  0
   11.9968  -16.2763   24.7601 C   0  0  0  0  0  0  0  0  0  0  0  0
   11.9346  -16.1606   23.3810 O   0  0  0  0  0  0  0  0  0  0  0  0
   13.1274  -16.4754   25.2675 O   0  0  0  0  0  0  0  0  0  0  0  0
  2  1  1  6
  3  2  1  0
  4  3  1  0
  5  6  2  0
  5  2  1  0
  8  7  1  0
  8  9  1  0
  9 11  1  0
  9 10  1  1
 11 13  1  0
 11 12  1  1
 12  5  1  0
 13 15  1  0
 14 13  2  0
 15 16  1  0
 16 17  1  0
 17 19  2  0
 17 18  1  0
M  END
$$$$
