CIG.pdb
     RDKit          3D

 19 18  0  0  1  0  0  0  0  0999 V2000
    5.9506  -15.6192   20.9306 N   0  0  0  0  0  0  0  0  0  0  0  0
    5.8485  -16.0915   22.2731 C   0  0  1  0  0  0  0  0  0  0  0  0
    5.8635  -17.5788   22.4180 C   0  0  0  0  0  0  0  0  0  0  0  0
    5.4817  -17.9913   24.1437 S   0  0  0  0  0  0  0  0  0  0  0  0
    6.9498  -15.5294   23.1404 C   0  0  0  0  0  0  0  0  0  0  0  0
    8.0787  -15.5117   22.6311 O   0  0  0  0  0  0  0  0  0  0  0  0
    5.5017  -11.8602   26.7416 C   0  0  0  0  0  0  0  0  0  0  0  0
    6.3122  -12.5952   25.6664 C   0  0  0  0  0  0  0  0  0  0  0  0
    7.2816  -13.5632   26.3006 C   0  0  2  0  0  0  0  0  0  0  0  0
    8.3975  -12.8081   26.9808 C   0  0  0  0  0  0  0  0  0  0  0  0
    7.7817  -14.5023   25.2346 C   0  0  2  0  0  0  0  0  0  0  0  0
    6.7398  -15.0555   24.4295 N   0  0  0  0  0  0  0  0  0  0  0  0
    8.7945  -15.4496   25.6733 C   0  0  0  0  0  0  0  0  0  0  0  0
    8.6108  -16.2232   26.6681 O   0  0  0  0  0  0  0  0  0  0  0  0
   10.0590  -15.5878   25.0338 N   0  0  0  0  0  0  0  0  0  0  0  0
   11.0497  -16.5288   25.5079 C   0  0  0  0  0  0  0  0  0  0  0  0
   12.2419  -16.5034   24.6114 C   0  0  0  0  0  0  0  0  0  0  0  0
   13.3664  -17.2591   24.9007 O   0  0  0  0  0  0  0  0  0  0  0  0
   12.2745  -15.8040   23.5698 O   0  0  0  0  0  0  0  0  0  0  0  0
  2  1  1  6
  3  2  1  0
  4  3  1  0
  5  6  2  0
  5  2  1  0
  8  7  1  0
  8  9  1  0
  9 11  1  0
  9 10  1  6
 11 13  1  0
 11 12  1  1
 12  5  1  0
 13 15  1  0
 14 13  2  0
 15 16  1  0
 16 17  1  0
 17 19  2  0
 17 18  1  0
M  END
$$$$
