CIG.pdb
     RDKit          3D

 19 18  0  0  1  0  0  0  0  0999 V2000
    6.0083  -17.8168   21.7947 N   0  0  0  0  0  0  0  0  0  0  0  0
    5.7994  -17.2886   23.1035 C   0  0  1  0  0  0  0  0  0  0  0  0
    5.6125  -18.3160   24.1725 C   0  0  0  0  0  0  0  0  0  0  0  0
    7.0560  -19.4162   24.1699 S   0  0  0  0  0  0  0  0  0  0  0  0
    6.9356  -16.3854   23.5212 C   0  0  0  0  0  0  0  0  0  0  0  0
    8.0048  -16.5533   22.9188 O   0  0  0  0  0  0  0  0  0  0  0  0
    6.3124  -11.9579   27.1510 C   0  0  0  0  0  0  0  0  0  0  0  0
    6.5251  -13.3292   26.4971 C   0  0  0  0  0  0  0  0  0  0  0  0
    7.5235  -13.2309   25.3690 C   0  0  2  0  0  0  0  0  0  0  0  0
    6.9393  -12.4337   24.2282 C   0  0  0  0  0  0  0  0  0  0  0  0
    7.9180  -14.6257   24.9603 C   0  0  2  0  0  0  0  0  0  0  0  0
    6.8184  -15.4201   24.5135 N   0  0  0  0  0  0  0  0  0  0  0  0
    8.8388  -15.2960   25.8650 C   0  0  0  0  0  0  0  0  0  0  0  0
    8.4817  -15.6928   27.0212 O   0  0  0  0  0  0  0  0  0  0  0  0
   10.1985  -15.5601   25.5357 N   0  0  0  0  0  0  0  0  0  0  0  0
   11.1377  -16.0440   26.5232 C   0  0  0  0  0  0  0  0  0  0  0  0
   11.0876  -17.5338   26.5826 C   0  0  0  0  0  0  0  0  0  0  0  0
   11.0250  -18.1963   27.7976 O   0  0  0  0  0  0  0  0  0  0  0  0
   11.0998  -18.2403   25.5453 O   0  0  0  0  0  0  0  0  0  0  0  0
  2  1  1  6
  3  2  1  0
  4  3  1  0
  5  6  2  0
  5  2  1  0
  8  7  1  0
  8  9  1  0
  9 11  1  0
  9 10  1  6
 11 13  1  0
 11 12  1  1
 12  5  1  0
 13 15  1  0
 14 13  2  0
 15 16  1  0
 16 17  1  0
 17 19  2  0
 17 18  1  0
M  END
$$$$
