CIG.pdb
     RDKit          3D

 19 18  0  0  1  0  0  0  0  0999 V2000
    7.6149  -13.1478   19.9099 N   0  0  0  0  0  0  0  0  0  0  0  0
    7.0317  -14.0663   20.8329 C   0  0  1  0  0  0  0  0  0  0  0  0
    6.9670  -15.4807   20.3548 C   0  0  0  0  0  0  0  0  0  0  0  0
    6.0978  -16.4698   21.6039 S   0  0  0  0  0  0  0  0  0  0  0  0
    7.7607  -14.0562   22.1556 C   0  0  0  0  0  0  0  0  0  0  0  0
    8.9974  -14.0505   22.0874 O   0  0  0  0  0  0  0  0  0  0  0  0
    5.5785  -11.4902   26.2059 C   0  0  0  0  0  0  0  0  0  0  0  0
    6.6065  -12.0932   25.2400 C   0  0  0  0  0  0  0  0  0  0  0  0
    7.1050  -13.4216   25.7557 C   0  0  2  0  0  0  0  0  0  0  0  0
    7.9960  -13.2103   26.9555 C   0  0  0  0  0  0  0  0  0  0  0  0
    7.8063  -14.1356   24.6303 C   0  0  2  0  0  0  0  0  0  0  0  0
    7.1127  -14.0534   23.3846 N   0  0  0  0  0  0  0  0  0  0  0  0
    8.3251  -15.4528   24.9643 C   0  0  0  0  0  0  0  0  0  0  0  0
    7.6291  -16.3137   25.5939 O   0  0  0  0  0  0  0  0  0  0  0  0
    9.6378  -15.8821   24.6187 N   0  0  0  0  0  0  0  0  0  0  0  0
   10.0939  -17.2261   24.8969 C   0  0  0  0  0  0  0  0  0  0  0  0
   11.5147  -17.1948   25.3507 C   0  0  0  0  0  0  0  0  0  0  0  0
   12.1025  -18.3087   25.9278 O   0  0  0  0  0  0  0  0  0  0  0  0
   12.2279  -16.1692   25.2296 O   0  0  0  0  0  0  0  0  0  0  0  0
  2  1  1  6
  3  2  1  0
  4  3  1  0
  5  6  2  0
  5  2  1  0
  8  7  1  0
  8  9  1  0
  9 11  1  0
  9 10  1  1
 11 13  1  0
 11 12  1  6
 12  5  1  0
 13 15  1  0
 14 13  2  0
 15 16  1  0
 16 17  1  0
 17 19  2  0
 17 18  1  0
M  END
$$$$
