CIG.pdb
     RDKit          3D

 19 18  0  0  1  0  0  0  0  0999 V2000
    5.8599  -17.1760   21.8338 N   0  0  0  0  0  0  0  0  0  0  0  0
    5.9114  -17.2371   23.2583 C   0  0  1  0  0  0  0  0  0  0  0  0
    6.1506  -18.6012   23.8197 C   0  0  0  0  0  0  0  0  0  0  0  0
    4.6430  -19.5868   23.5957 S   0  0  0  0  0  0  0  0  0  0  0  0
    6.9717  -16.3148   23.8116 C   0  0  0  0  0  0  0  0  0  0  0  0
    8.0214  -16.2492   23.1574 O   0  0  0  0  0  0  0  0  0  0  0  0
    5.4567  -11.9592   26.4357 C   0  0  0  0  0  0  0  0  0  0  0  0
    6.3905  -12.7867   25.5431 C   0  0  0  0  0  0  0  0  0  0  0  0
    7.3186  -13.6306   26.3831 C   0  0  2  0  0  0  0  0  0  0  0  0
    8.4228  -12.7746   26.9542 C   0  0  0  0  0  0  0  0  0  0  0  0
    7.8397  -14.7571   25.5301 C   0  0  2  0  0  0  0  0  0  0  0  0
    6.8084  -15.5756   24.9766 N   0  0  0  0  0  0  0  0  0  0  0  0
    8.9716  -15.4804   26.0882 C   0  0  0  0  0  0  0  0  0  0  0  0
   10.0295  -14.8861   26.4745 O   0  0  0  0  0  0  0  0  0  0  0  0
    8.9888  -16.8952   26.2463 N   0  0  0  0  0  0  0  0  0  0  0  0
   10.0783  -17.5701   26.9163 C   0  0  0  0  0  0  0  0  0  0  0  0
   11.2121  -17.7676   25.9669 C   0  0  0  0  0  0  0  0  0  0  0  0
   12.4481  -17.1885   26.2035 O   0  0  0  0  0  0  0  0  0  0  0  0
   11.0937  -18.4591   24.9262 O   0  0  0  0  0  0  0  0  0  0  0  0
  2  1  1  6
  3  2  1  0
  4  3  1  0
  5  6  2  0
  5  2  1  0
  8  7  1  0
  8  9  1  0
  9 11  1  0
  9 10  1  6
 11 13  1  0
 11 12  1  1
 12  5  1  0
 13 15  1  0
 14 13  2  0
 15 16  1  0
 16 17  1  0
 17 19  2  0
 17 18  1  0
M  END
$$$$
