CIG.pdb
     RDKit          3D

 19 18  0  0  1  0  0  0  0  0999 V2000
    6.1713  -16.7552   21.5473 N   0  0  0  0  0  0  0  0  0  0  0  0
    6.0795  -16.8978   22.9640 C   0  0  1  0  0  0  0  0  0  0  0  0
    6.2476  -18.2952   23.4663 C   0  0  0  0  0  0  0  0  0  0  0  0
    4.7411  -19.2300   23.0778 S   0  0  0  0  0  0  0  0  0  0  0  0
    7.0885  -16.0253   23.6724 C   0  0  0  0  0  0  0  0  0  0  0  0
    8.1698  -15.8715   23.0883 O   0  0  0  0  0  0  0  0  0  0  0  0
    5.4862  -11.6640   26.4079 C   0  0  0  0  0  0  0  0  0  0  0  0
    6.3676  -12.5833   25.5528 C   0  0  0  0  0  0  0  0  0  0  0  0
    7.1578  -13.5263   26.4277 C   0  0  2  0  0  0  0  0  0  0  0  0
    8.1698  -12.7547   27.2393 C   0  0  0  0  0  0  0  0  0  0  0  0
    7.7936  -14.5707   25.5484 C   0  0  2  0  0  0  0  0  0  0  0  0
    6.8471  -15.4214   24.9001 N   0  0  0  0  0  0  0  0  0  0  0  0
    8.9409  -15.2504   26.1293 C   0  0  0  0  0  0  0  0  0  0  0  0
   10.0123  -14.6314   26.4302 O   0  0  0  0  0  0  0  0  0  0  0  0
    8.9593  -16.6469   26.4058 N   0  0  0  0  0  0  0  0  0  0  0  0
   10.1141  -17.2881   26.9947 C   0  0  0  0  0  0  0  0  0  0  0  0
    9.8138  -18.7246   27.2632 C   0  0  0  0  0  0  0  0  0  0  0  0
   10.6551  -19.4926   28.0515 O   0  0  0  0  0  0  0  0  0  0  0  0
    8.7975  -19.2898   26.7911 O   0  0  0  0  0  0  0  0  0  0  0  0
  2  1  1  6
  3  2  1  0
  4  3  1  0
  5  6  2  0
  5  2  1  0
  8  7  1  0
  8  9  1  0
  9 11  1  0
  9 10  1  6
 11 13  1  0
 11 12  1  1
 12  5  1  0
 13 15  1  0
 14 13  2  0
 15 16  1  0
 16 17  1  0
 17 19  2  0
 17 18  1  0
M  END
$$$$
