KLI.pdb
     RDKit          3D

 26 25  0  0  1  0  0  0  0  0999 V2000
    7.9492  -17.8965   20.8215 N   0  0  0  0  0  0  0  0  0  0  0  0
    9.3247  -17.5942   21.0071 C   0  0  1  0  0  0  0  0  0  0  0  0
    9.9564  -17.0570   19.7840 C   0  0  0  0  0  0  0  0  0  0  0  0
    9.5207  -17.7204   18.5135 C   0  0  0  0  0  0  0  0  0  0  0  0
   10.5908  -18.0368   17.5287 C   0  0  0  0  0  0  0  0  0  0  0  0
    9.8676  -18.6781   16.3236 C   0  0  0  0  0  0  0  0  0  0  0  0
   10.8348  -18.9532   15.2954 N   0  0  0  0  0  0  0  0  0  0  0  0
    9.5435  -16.6751   22.1832 C   0  0  0  0  0  0  0  0  0  0  0  0
   10.6571  -16.1768   22.4239 O   0  0  0  0  0  0  0  0  0  0  0  0
    5.8169  -13.5736   26.0345 C   0  0  0  0  0  0  0  0  0  0  0  0
    7.2745  -13.8227   25.6128 C   0  0  2  0  0  0  0  0  0  0  0  0
    7.8176  -12.5239   25.1336 C   0  0  0  0  0  0  0  0  0  0  0  0
    7.2408  -14.9373   24.6340 C   0  0  0  0  0  0  0  0  0  0  0  0
    8.5615  -15.4850   24.1984 C   0  0  2  0  0  0  0  0  0  0  0  0
    8.4686  -16.3530   23.0548 N   0  0  0  0  0  0  0  0  0  0  0  0
    9.2763  -16.0716   25.3513 C   0  0  0  0  0  0  0  0  0  0  0  0
    9.0743  -17.2847   25.5977 O   0  0  0  0  0  0  0  0  0  0  0  0
   10.5141  -13.3268   30.0844 C   0  0  0  0  0  0  0  0  0  0  0  0
   10.2186  -14.5299   29.2763 C   0  0  0  0  0  0  0  0  0  0  0  0
   11.1856  -14.9724   28.2621 C   0  0  2  0  0  0  0  0  0  0  0  0
   11.7724  -13.7569   27.5424 C   0  0  0  0  0  0  0  0  0  0  0  0
   10.8343  -16.0577   27.3095 C   0  0  2  0  0  0  0  0  0  0  0  0
   10.1656  -15.3605   26.1828 N   0  0  0  0  0  0  0  0  0  0  0  0
    9.9596  -17.1170   27.7369 C   0  0  0  0  0  0  0  0  0  0  0  0
   10.3286  -18.0362   28.4936 O   0  0  0  0  0  0  0  0  0  0  0  0
    8.6332  -17.1685   27.3204 O   0  0  0  0  0  0  0  0  0  0  0  0
  2  1  1  6
  3  2  1  0
  4  5  1  0
  4  3  1  0
  6  7  1  0
  6  5  1  0
  8  2  1  0
  9  8  2  0
 11 10  1  6
 11 13  1  0
 12 11  1  0
 14 13  1  1
 14 15  1  0
 15  8  1  0
 16 23  1  0
 16 14  1  0
 17 16  2  0
 19 18  1  0
 19 20  1  0
 20 22  1  0
 20 21  1  6
 22 24  1  0
 22 23  1  6
 24 26  1  0
 25 24  2  0
M  END
$$$$
