KLI.pdb
     RDKit          3D

 26 25  0  0  1  0  0  0  0  0999 V2000
   12.4290  -17.5476   19.0293 N   0  0  0  0  0  0  0  0  0  0  0  0
   12.3480  -17.8261   20.4199 C   0  0  1  0  0  0  0  0  0  0  0  0
   13.6670  -18.1250   21.0153 C   0  0  0  0  0  0  0  0  0  0  0  0
   13.7630  -19.4644   21.6794 C   0  0  0  0  0  0  0  0  0  0  0  0
   15.0773  -19.8128   22.2845 C   0  0  0  0  0  0  0  0  0  0  0  0
   14.8519  -21.1523   23.0204 C   0  0  0  0  0  0  0  0  0  0  0  0
   16.1144  -21.6236   23.5224 N   0  0  0  0  0  0  0  0  0  0  0  0
   11.6464  -16.7231   21.1731 C   0  0  0  0  0  0  0  0  0  0  0  0
   12.2689  -15.7526   21.6389 O   0  0  0  0  0  0  0  0  0  0  0  0
    6.1348  -14.1843   21.0443 C   0  0  0  0  0  0  0  0  0  0  0  0
    7.4545  -14.2307   21.8320 C   0  0  2  0  0  0  0  0  0  0  0  0
    8.1027  -12.9015   21.6752 C   0  0  0  0  0  0  0  0  0  0  0  0
    8.2033  -15.4060   21.3224 C   0  0  0  0  0  0  0  0  0  0  0  0
    9.4656  -15.7579   22.0413 C   0  0  2  0  0  0  0  0  0  0  0  0
   10.2401  -16.7679   21.3705 N   0  0  0  0  0  0  0  0  0  0  0  0
    9.1794  -16.0530   23.4608 C   0  0  0  0  0  0  0  0  0  0  0  0
    9.0274  -17.2565   23.7796 O   0  0  0  0  0  0  0  0  0  0  0  0
    9.4469  -12.9125   28.8152 C   0  0  0  0  0  0  0  0  0  0  0  0
    9.4360  -14.1980   28.0836 C   0  0  0  0  0  0  0  0  0  0  0  0
    9.0942  -14.2110   26.6545 C   0  0  2  0  0  0  0  0  0  0  0  0
    7.8221  -13.3948   26.4198 C   0  0  0  0  0  0  0  0  0  0  0  0
    9.0738  -15.4893   25.8966 C   0  0  2  0  0  0  0  0  0  0  0  0
    9.0704  -15.0758   24.4713 N   0  0  0  0  0  0  0  0  0  0  0  0
    7.9766  -16.4017   26.0801 C   0  0  0  0  0  0  0  0  0  0  0  0
    6.9272  -16.3424   25.4100 O   0  0  0  0  0  0  0  0  0  0  0  0
    8.0336  -17.4153   27.0313 O   0  0  0  0  0  0  0  0  0  0  0  0
  2  1  1  6
  3  2  1  0
  4  5  1  0
  4  3  1  0
  6  7  1  0
  6  5  1  0
  8  2  1  0
  9  8  2  0
 11 10  1  6
 11 13  1  0
 12 11  1  0
 14 13  1  6
 14 15  1  0
 15  8  1  0
 16 23  1  0
 16 14  1  0
 17 16  2  0
 19 18  1  0
 19 20  1  0
 20 22  1  0
 20 21  1  1
 22 24  1  0
 22 23  1  6
 24 26  1  0
 25 24  2  0
M  END
$$$$
