KLI.pdb
     RDKit          3D

 26 25  0  0  1  0  0  0  0  0999 V2000
    8.4259  -19.8630   20.9428 N   0  0  0  0  0  0  0  0  0  0  0  0
    9.1583  -19.3536   22.0482 C   0  0  1  0  0  0  0  0  0  0  0  0
   10.3754  -20.1418   22.3327 C   0  0  0  0  0  0  0  0  0  0  0  0
   10.1515  -21.6192   22.4396 C   0  0  0  0  0  0  0  0  0  0  0  0
   10.9766  -22.3449   23.4434 C   0  0  0  0  0  0  0  0  0  0  0  0
   10.6021  -23.8355   23.2870 C   0  0  0  0  0  0  0  0  0  0  0  0
   11.7680  -24.5648   22.8662 N   0  0  0  0  0  0  0  0  0  0  0  0
    9.4828  -17.8900   21.8798 C   0  0  0  0  0  0  0  0  0  0  0  0
   10.6568  -17.4840   21.8235 O   0  0  0  0  0  0  0  0  0  0  0  0
    6.1888  -12.7292   20.8471 C   0  0  0  0  0  0  0  0  0  0  0  0
    7.5956  -13.2793   21.1340 C   0  0  2  0  0  0  0  0  0  0  0  0
    8.4927  -12.7594   20.0679 C   0  0  0  0  0  0  0  0  0  0  0  0
    7.4552  -14.7531   21.2322 C   0  0  0  0  0  0  0  0  0  0  0  0
    8.6289  -15.5022   21.7754 C   0  0  2  0  0  0  0  0  0  0  0  0
    8.4414  -16.9286   21.7802 N   0  0  0  0  0  0  0  0  0  0  0  0
    9.0361  -14.9374   23.0790 C   0  0  0  0  0  0  0  0  0  0  0  0
    9.6364  -13.8362   23.0675 O   0  0  0  0  0  0  0  0  0  0  0  0
    6.5707  -12.1987   25.8072 C   0  0  0  0  0  0  0  0  0  0  0  0
    7.6761  -13.0193   25.2662 C   0  0  0  0  0  0  0  0  0  0  0  0
    8.2391  -14.1008   26.0864 C   0  0  2  0  0  0  0  0  0  0  0  0
    8.5453  -13.5784   27.4910 C   0  0  0  0  0  0  0  0  0  0  0  0
    9.3431  -14.9467   25.5625 C   0  0  2  0  0  0  0  0  0  0  0  0
    8.7918  -15.5516   24.3244 N   0  0  0  0  0  0  0  0  0  0  0  0
    9.8553  -16.0203   26.3719 C   0  0  0  0  0  0  0  0  0  0  0  0
    9.3660  -17.1667   26.3648 O   0  0  0  0  0  0  0  0  0  0  0  0
   10.9434  -15.8294   27.2174 O   0  0  0  0  0  0  0  0  0  0  0  0
  2  1  1  6
  3  2  1  0
  4  5  1  0
  4  3  1  0
  6  7  1  0
  6  5  1  0
  8  2  1  0
  9  8  2  0
 11 10  1  6
 11 13  1  0
 12 11  1  0
 14 13  1  1
 14 15  1  0
 15  8  1  0
 16 23  1  0
 16 14  1  0
 17 16  2  0
 19 18  1  0
 19 20  1  0
 20 22  1  0
 20 21  1  1
 22 24  1  0
 22 23  1  6
 24 26  1  0
 25 24  2  0
M  END
$$$$
