KLI.pdb
     RDKit          3D

 26 25  0  0  1  0  0  0  0  0999 V2000
   10.5494  -18.4439   19.8684 N   0  0  0  0  0  0  0  0  0  0  0  0
   11.6411  -17.7082   20.4021 C   0  0  1  0  0  0  0  0  0  0  0  0
   12.4875  -17.1077   19.3501 C   0  0  0  0  0  0  0  0  0  0  0  0
   13.4442  -18.0595   18.6997 C   0  0  0  0  0  0  0  0  0  0  0  0
   14.3573  -17.4859   17.6739 C   0  0  0  0  0  0  0  0  0  0  0  0
   15.2086  -18.6717   17.1683 C   0  0  0  0  0  0  0  0  0  0  0  0
   16.1027  -18.1980   16.1463 N   0  0  0  0  0  0  0  0  0  0  0  0
   11.1850  -16.6684   21.3954 C   0  0  0  0  0  0  0  0  0  0  0  0
   11.9950  -15.9471   22.0036 O   0  0  0  0  0  0  0  0  0  0  0  0
    7.9212  -13.2770   21.3629 C   0  0  0  0  0  0  0  0  0  0  0  0
    7.3760  -14.7129   21.2913 C   0  0  2  0  0  0  0  0  0  0  0  0
    5.9131  -14.6119   21.0442 C   0  0  0  0  0  0  0  0  0  0  0  0
    7.7994  -15.3829   22.5456 C   0  0  0  0  0  0  0  0  0  0  0  0
    9.2618  -15.6492   22.7009 C   0  0  2  0  0  0  0  0  0  0  0  0
    9.8015  -16.4865   21.6628 N   0  0  0  0  0  0  0  0  0  0  0  0
    9.5529  -16.1164   24.0725 C   0  0  0  0  0  0  0  0  0  0  0  0
    9.9987  -17.2816   24.2017 O   0  0  0  0  0  0  0  0  0  0  0  0
    9.8041  -12.2660   28.0020 C   0  0  0  0  0  0  0  0  0  0  0  0
   10.1452  -13.4315   27.1573 C   0  0  0  0  0  0  0  0  0  0  0  0
    9.5975  -14.7522   27.4964 C   0  0  2  0  0  0  0  0  0  0  0  0
   10.0091  -15.1327   28.9196 C   0  0  0  0  0  0  0  0  0  0  0  0
    9.7492  -15.8941   26.5573 C   0  0  2  0  0  0  0  0  0  0  0  0
    9.3655  -15.3406   25.2348 N   0  0  0  0  0  0  0  0  0  0  0  0
    8.9713  -17.0867   26.7640 C   0  0  0  0  0  0  0  0  0  0  0  0
    7.7839  -17.1924   26.3998 O   0  0  0  0  0  0  0  0  0  0  0  0
    9.5161  -18.2027   27.3910 O   0  0  0  0  0  0  0  0  0  0  0  0
  2  1  1  6
  3  2  1  0
  4  5  1  0
  4  3  1  0
  6  7  1  0
  6  5  1  0
  8  2  1  0
  9  8  2  0
 11 10  1  1
 11 13  1  0
 12 11  1  0
 14 13  1  6
 14 15  1  0
 15  8  1  0
 16 23  1  0
 16 14  1  0
 17 16  2  0
 19 18  1  0
 19 20  1  0
 20 22  1  0
 20 21  1  1
 22 24  1  0
 22 23  1  6
 24 26  1  0
 25 24  2  0
M  END
$$$$
