KLI.pdb
     RDKit          3D

 26 25  0  0  1  0  0  0  0  0999 V2000
    8.2799  -17.6305   20.7816 N   0  0  0  0  0  0  0  0  0  0  0  0
    9.6411  -17.2744   20.9767 C   0  0  1  0  0  0  0  0  0  0  0  0
   10.2572  -16.7044   19.7605 C   0  0  0  0  0  0  0  0  0  0  0  0
   10.0545  -17.5171   18.5185 C   0  0  0  0  0  0  0  0  0  0  0  0
   11.1472  -18.4607   18.1567 C   0  0  0  0  0  0  0  0  0  0  0  0
   10.7975  -18.9761   16.7430 C   0  0  0  0  0  0  0  0  0  0  0  0
   11.7234  -20.0173   16.3870 N   0  0  0  0  0  0  0  0  0  0  0  0
    9.8166  -16.3549   22.1598 C   0  0  0  0  0  0  0  0  0  0  0  0
   10.9103  -15.8210   22.4149 O   0  0  0  0  0  0  0  0  0  0  0  0
    5.9857  -13.3416   25.9666 C   0  0  0  0  0  0  0  0  0  0  0  0
    7.4587  -13.5902   25.6023 C   0  0  2  0  0  0  0  0  0  0  0  0
    8.0540  -12.2690   25.2683 C   0  0  0  0  0  0  0  0  0  0  0  0
    7.4557  -14.6148   24.5291 C   0  0  0  0  0  0  0  0  0  0  0  0
    8.7769  -15.2185   24.1770 C   0  0  2  0  0  0  0  0  0  0  0  0
    8.7223  -16.0735   23.0213 N   0  0  0  0  0  0  0  0  0  0  0  0
    9.3861  -15.8445   25.3691 C   0  0  0  0  0  0  0  0  0  0  0  0
    8.9356  -16.9585   25.7284 O   0  0  0  0  0  0  0  0  0  0  0  0
    9.9761  -13.8279   30.3460 C   0  0  0  0  0  0  0  0  0  0  0  0
    9.8893  -14.8099   29.2432 C   0  0  0  0  0  0  0  0  0  0  0  0
   11.0532  -15.0187   28.3708 C   0  0  2  0  0  0  0  0  0  0  0  0
   11.5811  -13.6690   27.8816 C   0  0  0  0  0  0  0  0  0  0  0  0
   11.0014  -16.0186   27.2725 C   0  0  2  0  0  0  0  0  0  0  0  0
   10.4348  -15.2748   26.1199 N   0  0  0  0  0  0  0  0  0  0  0  0
   10.2151  -17.2118   27.4401 C   0  0  0  0  0  0  0  0  0  0  0  0
    9.0386  -17.3093   27.0398 O   0  0  0  0  0  0  0  0  0  0  0  0
   10.7386  -18.3375   28.0677 O   0  0  0  0  0  0  0  0  0  0  0  0
  2  1  1  6
  3  2  1  0
  4  5  1  0
  4  3  1  0
  6  7  1  0
  6  5  1  0
  8  2  1  0
  9  8  2  0
 11 10  1  6
 11 13  1  0
 12 11  1  0
 14 13  1  1
 14 15  1  0
 15  8  1  0
 16 23  1  0
 16 14  1  0
 17 16  2  0
 19 18  1  0
 19 20  1  0
 20 22  1  0
 20 21  1  6
 22 24  1  0
 22 23  1  6
 24 26  1  0
 25 24  2  0
M  END
$$$$
