KLI.pdb
     RDKit          3D

 26 25  0  0  1  0  0  0  0  0999 V2000
    8.1705  -17.0024   20.3747 N   0  0  0  0  0  0  0  0  0  0  0  0
    9.5195  -16.7893   20.7654 C   0  0  1  0  0  0  0  0  0  0  0  0
   10.3123  -16.1127   19.7179 C   0  0  0  0  0  0  0  0  0  0  0  0
   10.6549  -16.9735   18.5407 C   0  0  0  0  0  0  0  0  0  0  0  0
   11.1999  -18.3251   18.8426 C   0  0  0  0  0  0  0  0  0  0  0  0
   11.4260  -18.9963   17.4696 C   0  0  0  0  0  0  0  0  0  0  0  0
   11.9827  -20.3055   17.6797 N   0  0  0  0  0  0  0  0  0  0  0  0
    9.6136  -16.0558   22.0804 C   0  0  0  0  0  0  0  0  0  0  0  0
   10.7059  -15.6820   22.5425 O   0  0  0  0  0  0  0  0  0  0  0  0
    5.4827  -13.6421   26.0388 C   0  0  0  0  0  0  0  0  0  0  0  0
    6.9715  -13.7029   25.6591 C   0  0  2  0  0  0  0  0  0  0  0  0
    7.4465  -12.2995   25.5323 C   0  0  0  0  0  0  0  0  0  0  0  0
    7.0581  -14.5523   24.4457 C   0  0  0  0  0  0  0  0  0  0  0  0
    8.4131  -15.0724   24.0886 C   0  0  2  0  0  0  0  0  0  0  0  0
    8.4416  -15.7712   22.8313 N   0  0  0  0  0  0  0  0  0  0  0  0
    8.9827  -15.8327   25.2206 C   0  0  0  0  0  0  0  0  0  0  0  0
    8.9855  -17.0838   25.1309 O   0  0  0  0  0  0  0  0  0  0  0  0
   10.9499  -12.8265   29.3934 C   0  0  0  0  0  0  0  0  0  0  0  0
   10.9934  -13.7670   28.2525 C   0  0  0  0  0  0  0  0  0  0  0  0
   10.6140  -15.1712   28.4612 C   0  0  2  0  0  0  0  0  0  0  0  0
   11.5640  -15.8189   29.4700 C   0  0  0  0  0  0  0  0  0  0  0  0
   10.3560  -16.0622   27.2999 C   0  0  2  0  0  0  0  0  0  0  0  0
    9.5213  -15.2457   26.3838 N   0  0  0  0  0  0  0  0  0  0  0  0
    9.6702  -17.3101   27.5058 C   0  0  0  0  0  0  0  0  0  0  0  0
    8.4388  -17.3847   27.6840 O   0  0  0  0  0  0  0  0  0  0  0  0
   10.3598  -18.5183   27.5151 O   0  0  0  0  0  0  0  0  0  0  0  0
  2  1  1  6
  3  2  1  0
  4  5  1  0
  4  3  1  0
  6  7  1  0
  6  5  1  0
  8  2  1  0
  9  8  2  0
 11 10  1  6
 11 13  1  0
 12 11  1  0
 14 13  1  1
 14 15  1  0
 15  8  1  0
 16 23  1  0
 16 14  1  0
 17 16  2  0
 19 18  1  0
 19 20  1  0
 20 22  1  0
 20 21  1  6
 22 24  1  0
 22 23  1  6
 24 26  1  0
 25 24  2  0
M  END
$$$$
