KLI.pdb
     RDKit          3D

 26 25  0  0  1  0  0  0  0  0999 V2000
    8.6093  -15.3875   19.8724 N   0  0  0  0  0  0  0  0  0  0  0  0
    8.0902  -16.0193   21.0341 C   0  0  1  0  0  0  0  0  0  0  0  0
    8.3542  -17.4730   21.0537 C   0  0  0  0  0  0  0  0  0  0  0  0
    7.7907  -18.2257   19.8875 C   0  0  0  0  0  0  0  0  0  0  0  0
    7.9688  -19.7032   19.9019 C   0  0  0  0  0  0  0  0  0  0  0  0
    7.3541  -20.2070   18.5772 C   0  0  0  0  0  0  0  0  0  0  0  0
    7.4296  -21.6428   18.5476 N   0  0  0  0  0  0  0  0  0  0  0  0
    8.5802  -15.3584   22.2986 C   0  0  0  0  0  0  0  0  0  0  0  0
    9.7630  -14.9981   22.4307 O   0  0  0  0  0  0  0  0  0  0  0  0
    7.5825  -11.6993   24.9853 C   0  0  0  0  0  0  0  0  0  0  0  0
    6.4053  -12.6856   24.9079 C   0  0  2  0  0  0  0  0  0  0  0  0
    5.2754  -12.0754   25.6579 C   0  0  0  0  0  0  0  0  0  0  0  0
    6.9170  -13.9858   25.4072 C   0  0  0  0  0  0  0  0  0  0  0  0
    8.0648  -14.5843   24.6601 C   0  0  2  0  0  0  0  0  0  0  0  0
    7.6904  -15.1291   23.3823 N   0  0  0  0  0  0  0  0  0  0  0  0
    8.8054  -15.5230   25.5286 C   0  0  0  0  0  0  0  0  0  0  0  0
    8.8324  -16.7284   25.1829 O   0  0  0  0  0  0  0  0  0  0  0  0
   12.2521  -15.3100   30.7078 C   0  0  0  0  0  0  0  0  0  0  0  0
   11.7943  -16.0594   29.5174 C   0  0  0  0  0  0  0  0  0  0  0  0
   10.9755  -15.3759   28.5065 C   0  0  2  0  0  0  0  0  0  0  0  0
    9.9988  -14.4195   29.1928 C   0  0  0  0  0  0  0  0  0  0  0  0
   10.3157  -16.1500   27.4229 C   0  0  2  0  0  0  0  0  0  0  0  0
    9.4803  -15.1520   26.7096 N   0  0  0  0  0  0  0  0  0  0  0  0
    9.4621  -17.2567   27.7645 C   0  0  0  0  0  0  0  0  0  0  0  0
    8.2245  -17.1505   27.8684 O   0  0  0  0  0  0  0  0  0  0  0  0
    9.9849  -18.5244   27.9988 O   0  0  0  0  0  0  0  0  0  0  0  0
  2  1  1  6
  3  2  1  0
  4  5  1  0
  4  3  1  0
  6  7  1  0
  6  5  1  0
  8  2  1  0
  9  8  2  0
 11 10  1  1
 11 13  1  0
 12 11  1  0
 14 13  1  1
 14 15  1  0
 15  8  1  0
 16 23  1  0
 16 14  1  0
 17 16  2  0
 19 18  1  0
 19 20  1  0
 20 22  1  0
 20 21  1  1
 22 24  1  0
 22 23  1  1
 24 26  1  0
 25 24  2  0
M  END
$$$$
