KLI.pdb
     RDKit          3D

 26 25  0  0  1  0  0  0  0  0999 V2000
    8.8288  -17.4074   20.0304 N   0  0  0  0  0  0  0  0  0  0  0  0
    8.4707  -17.5931   21.3924 C   0  0  1  0  0  0  0  0  0  0  0  0
    9.0785  -18.8064   21.9772 C   0  0  0  0  0  0  0  0  0  0  0  0
    8.9151  -20.0461   21.1523 C   0  0  0  0  0  0  0  0  0  0  0  0
    9.5022  -21.2958   21.7080 C   0  0  0  0  0  0  0  0  0  0  0  0
    9.1226  -22.4112   20.7088 C   0  0  0  0  0  0  0  0  0  0  0  0
    9.7526  -23.6366   21.1208 N   0  0  0  0  0  0  0  0  0  0  0  0
    8.7782  -16.3731   22.2248 C   0  0  0  0  0  0  0  0  0  0  0  0
    9.8535  -15.7591   22.1105 O   0  0  0  0  0  0  0  0  0  0  0  0
    5.6690  -13.1655   26.5629 C   0  0  0  0  0  0  0  0  0  0  0  0
    6.9975  -13.2809   25.7975 C   0  0  2  0  0  0  0  0  0  0  0  0
    7.2234  -11.9777   25.1177 C   0  0  0  0  0  0  0  0  0  0  0  0
    6.8760  -14.4778   24.9291 C   0  0  0  0  0  0  0  0  0  0  0  0
    8.0868  -14.8566   24.1389 C   0  0  2  0  0  0  0  0  0  0  0  0
    7.8344  -15.8907   23.1710 N   0  0  0  0  0  0  0  0  0  0  0  0
    9.2212  -15.1342   25.0445 C   0  0  0  0  0  0  0  0  0  0  0  0
   10.3133  -14.5729   24.7886 O   0  0  0  0  0  0  0  0  0  0  0  0
    9.7802  -13.1071   29.3446 C   0  0  0  0  0  0  0  0  0  0  0  0
   10.0441  -13.9014   28.1249 C   0  0  0  0  0  0  0  0  0  0  0  0
   10.1186  -15.3658   28.2206 C   0  0  2  0  0  0  0  0  0  0  0  0
   11.0503  -15.7621   29.3672 C   0  0  0  0  0  0  0  0  0  0  0  0
   10.3612  -16.1885   27.0069 C   0  0  2  0  0  0  0  0  0  0  0  0
    9.1533  -15.9806   26.1700 N   0  0  0  0  0  0  0  0  0  0  0  0
   10.5488  -17.6086   27.1421 C   0  0  0  0  0  0  0  0  0  0  0  0
    9.5997  -18.4120   27.2271 O   0  0  0  0  0  0  0  0  0  0  0  0
   11.8226  -18.1663   27.1840 O   0  0  0  0  0  0  0  0  0  0  0  0
  2  1  1  6
  3  2  1  0
  4  5  1  0
  4  3  1  0
  6  7  1  0
  6  5  1  0
  8  2  1  0
  9  8  2  0
 11 10  1  6
 11 13  1  0
 12 11  1  0
 14 13  1  1
 14 15  1  0
 15  8  1  0
 16 23  1  0
 16 14  1  0
 17 16  2  0
 19 18  1  0
 19 20  1  0
 20 22  1  0
 20 21  1  1
 22 24  1  0
 22 23  1  6
 24 26  1  0
 25 24  2  0
M  END
$$$$
