KLI.pdb
     RDKit          3D

 26 25  0  0  1  0  0  0  0  0999 V2000
    7.3613  -18.4299   21.9803 N   0  0  0  0  0  0  0  0  0  0  0  0
    8.6364  -17.9145   21.6251 C   0  0  1  0  0  0  0  0  0  0  0  0
    8.7663  -17.6766   20.1725 C   0  0  0  0  0  0  0  0  0  0  0  0
    9.2021  -18.8714   19.3808 C   0  0  0  0  0  0  0  0  0  0  0  0
    9.4107  -18.6614   17.9222 C   0  0  0  0  0  0  0  0  0  0  0  0
    9.8805  -20.0259   17.3708 C   0  0  0  0  0  0  0  0  0  0  0  0
   10.2236  -19.8717   15.9827 N   0  0  0  0  0  0  0  0  0  0  0  0
    8.9805  -16.6755   22.4140 C   0  0  0  0  0  0  0  0  0  0  0  0
   10.0818  -16.1107   22.2947 O   0  0  0  0  0  0  0  0  0  0  0  0
    5.8243  -12.9879   26.3086 C   0  0  0  0  0  0  0  0  0  0  0  0
    7.1722  -13.2015   25.6002 C   0  0  2  0  0  0  0  0  0  0  0  0
    7.4663  -11.9584   24.8389 C   0  0  0  0  0  0  0  0  0  0  0  0
    7.0367  -14.4528   24.8143 C   0  0  0  0  0  0  0  0  0  0  0  0
    8.2733  -14.9595   24.1451 C   0  0  2  0  0  0  0  0  0  0  0  0
    8.0422  -16.1177   23.3235 N   0  0  0  0  0  0  0  0  0  0  0  0
    9.3593  -15.1217   25.1343 C   0  0  0  0  0  0  0  0  0  0  0  0
   10.2172  -14.2093   25.2027 O   0  0  0  0  0  0  0  0  0  0  0  0
   10.2950  -13.0774   29.0542 C   0  0  0  0  0  0  0  0  0  0  0  0
   10.5995  -13.9629   27.9092 C   0  0  0  0  0  0  0  0  0  0  0  0
   10.3469  -15.4058   28.0268 C   0  0  2  0  0  0  0  0  0  0  0  0
   10.9108  -15.9229   29.3513 C   0  0  0  0  0  0  0  0  0  0  0  0
   10.6661  -16.3206   26.8998 C   0  0  2  0  0  0  0  0  0  0  0  0
    9.4892  -16.2264   26.0006 N   0  0  0  0  0  0  0  0  0  0  0  0
   10.8912  -17.7166   27.1653 C   0  0  0  0  0  0  0  0  0  0  0  0
   11.9378  -18.1463   27.6885 O   0  0  0  0  0  0  0  0  0  0  0  0
    9.9337  -18.6742   26.8467 O   0  0  0  0  0  0  0  0  0  0  0  0
  2  1  1  6
  3  2  1  0
  4  5  1  0
  4  3  1  0
  6  7  1  0
  6  5  1  0
  8  2  1  0
  9  8  2  0
 11 10  1  6
 11 13  1  0
 12 11  1  0
 14 13  1  1
 14 15  1  0
 15  8  1  0
 16 23  1  0
 16 14  1  0
 17 16  2  0
 19 18  1  0
 19 20  1  0
 20 22  1  0
 20 21  1  1
 22 24  1  0
 22 23  1  6
 24 26  1  0
 25 24  2  0
M  END
$$$$
