NLF.pdb
     RDKit          3D

 28 28  0  0  1  0  0  0  0  0999 V2000
   15.1090   -9.9903  -17.0511 N   0  0  0  0  0  0  0  0  0  0  0  0
   14.3818  -10.1214  -15.8483 C   0  0  0  0  0  0  0  0  0  0  0  0
   13.1215  -10.0674  -15.8722 O   0  0  0  0  0  0  0  0  0  0  0  0
   15.1223  -10.3189  -14.5779 C   0  0  0  0  0  0  0  0  0  0  0  0
   16.6364  -10.2904  -14.8333 C   0  0  2  0  0  0  0  0  0  0  0  0
   17.0613  -11.6238  -15.1364 N   0  0  0  0  0  0  0  0  0  0  0  0
   17.2535   -9.7463  -13.5962 C   0  0  0  0  0  0  0  0  0  0  0  0
   17.5085  -10.4882  -12.5999 O   0  0  0  0  0  0  0  0  0  0  0  0
   21.0441   -6.9448  -10.9337 C   0  0  0  0  0  0  0  0  0  0  0  0
   20.3354   -6.3195  -12.0713 C   0  0  1  0  0  0  0  0  0  0  0  0
   21.3801   -5.6426  -12.9599 C   0  0  0  0  0  0  0  0  0  0  0  0
   19.4478   -7.1433  -12.9057 C   0  0  0  0  0  0  0  0  0  0  0  0
   18.2349   -7.7676  -12.3408 C   0  0  2  0  0  0  0  0  0  0  0  0
   17.5615   -8.3872  -13.5245 N   0  0  0  0  0  0  0  0  0  0  0  0
   17.2393   -6.8989  -11.6977 C   0  0  0  0  0  0  0  0  0  0  0  0
   16.4748   -6.1150  -12.2957 O   0  0  0  0  0  0  0  0  0  0  0  0
   17.0713   -6.8933  -10.2560 N   0  0  0  0  0  0  0  0  0  0  0  0
   16.0954   -6.0306   -9.6235 C   0  0  1  0  0  0  0  0  0  0  0  0
   15.6930   -6.7218   -8.3288 C   0  0  0  0  0  0  0  0  0  0  0  0
   14.4261   -7.4802   -8.4539 C   0  0  0  0  0  0  0  0  0  0  0  0
   13.2569   -6.9019   -8.0440 C   0  0  0  0  0  0  0  0  0  0  0  0
   12.0844   -7.6452   -8.1790 C   0  0  0  0  0  0  0  0  0  0  0  0
   12.1226   -8.9229   -8.7123 C   0  0  0  0  0  0  0  0  0  0  0  0
   13.3188   -9.4807   -9.1182 C   0  0  0  0  0  0  0  0  0  0  0  0
   14.4951   -8.7611   -8.9936 C   0  0  0  0  0  0  0  0  0  0  0  0
   16.6963   -4.7074   -9.4160 C   0  0  0  0  0  0  0  0  0  0  0  0
   18.0389   -4.4776   -9.6508 O   0  0  0  0  0  0  0  0  0  0  0  0
   15.9899   -3.7565   -9.0152 O   0  0  0  0  0  0  0  0  0  0  0  0
  2  1  1  0
  2  3  2  0
  4  2  1  0
  5  4  1  0
  5  6  1  1
  7  8  2  0
  7  5  1  0
 10  9  1  1
 10 12  1  0
 11 10  1  0
 13 12  1  6
 13 14  1  0
 14  7  1  0
 15 17  1  0
 15 13  1  0
 16 15  2  0
 18 17  1  0
 18 26  1  0
 18 19  1  1
 20 19  1  0
 20 25  2  0
 21 20  1  0
 22 23  1  0
 22 21  2  0
 23 24  2  0
 24 25  1  0
 26 27  1  0
 28 26  2  0
M  END
$$$$
