NLF.pdb
     RDKit          3D

 28 28  0  0  1  0  0  0  0  0999 V2000
   20.3817  -18.3049  -18.6995 N   0  0  0  0  0  0  0  0  0  0  0  0
   21.7914  -18.3781  -18.6970 C   0  0  0  0  0  0  0  0  0  0  0  0
   22.4666  -17.4233  -19.1705 O   0  0  0  0  0  0  0  0  0  0  0  0
   22.4479  -19.5844  -18.1357 C   0  0  0  0  0  0  0  0  0  0  0  0
   23.9659  -19.3710  -18.0430 C   0  0  2  0  0  0  0  0  0  0  0  0
   24.5027  -19.4132  -19.3697 N   0  0  0  0  0  0  0  0  0  0  0  0
   24.4824  -20.4548  -17.1678 C   0  0  0  0  0  0  0  0  0  0  0  0
   24.5983  -21.6466  -17.5852 O   0  0  0  0  0  0  0  0  0  0  0  0
   28.9805  -19.5821  -14.7207 C   0  0  0  0  0  0  0  0  0  0  0  0
   27.7781  -20.2336  -15.2838 C   0  0  1  0  0  0  0  0  0  0  0  0
   28.2260  -21.5132  -15.9917 C   0  0  0  0  0  0  0  0  0  0  0  0
   26.6447  -20.5394  -14.3979 C   0  0  0  0  0  0  0  0  0  0  0  0
   25.4208  -21.1787  -14.9206 C   0  0  2  0  0  0  0  0  0  0  0  0
   24.8498  -20.1588  -15.8546 N   0  0  0  0  0  0  0  0  0  0  0  0
   24.3540  -21.5223  -13.9701 C   0  0  0  0  0  0  0  0  0  0  0  0
   24.3574  -22.5131  -13.2119 O   0  0  0  0  0  0  0  0  0  0  0  0
   23.1687  -20.6940  -13.8444 N   0  0  0  0  0  0  0  0  0  0  0  0
   22.1445  -21.0031  -12.8687 C   0  0  1  0  0  0  0  0  0  0  0  0
   22.2282  -19.9169  -11.8062 C   0  0  0  0  0  0  0  0  0  0  0  0
   23.3481  -20.1269  -10.8589 C   0  0  0  0  0  0  0  0  0  0  0  0
   24.6001  -19.6930  -11.1960 C   0  0  0  0  0  0  0  0  0  0  0  0
   25.6287  -19.9064  -10.2785 C   0  0  0  0  0  0  0  0  0  0  0  0
   25.3717  -20.5373   -9.0725 C   0  0  0  0  0  0  0  0  0  0  0  0
   24.0964  -20.9644   -8.7593 C   0  0  0  0  0  0  0  0  0  0  0  0
   23.0600  -20.7631   -9.6549 C   0  0  0  0  0  0  0  0  0  0  0  0
   20.8439  -21.0562  -13.5474 C   0  0  0  0  0  0  0  0  0  0  0  0
   20.7200  -20.7814  -14.8963 O   0  0  0  0  0  0  0  0  0  0  0  0
   19.8144  -21.3533  -12.9025 O   0  0  0  0  0  0  0  0  0  0  0  0
  2  1  1  0
  2  3  2  0
  4  2  1  0
  5  4  1  0
  5  6  1  6
  7  8  2  0
  7  5  1  0
 10  9  1  1
 10 12  1  0
 11 10  1  0
 13 12  1  1
 13 14  1  0
 14  7  1  0
 15 17  1  0
 15 13  1  0
 16 15  2  0
 18 17  1  0
 18 26  1  0
 18 19  1  1
 20 19  1  0
 20 25  2  0
 21 20  1  0
 22 23  1  0
 22 21  2  0
 23 24  2  0
 24 25  1  0
 26 27  1  0
 28 26  2  0
M  END
$$$$
