NLF.pdb
     RDKit          3D

 28 28  0  0  1  0  0  0  0  0999 V2000
   20.1004  -14.1335  -20.3862 N   0  0  0  0  0  0  0  0  0  0  0  0
   19.2913  -13.0870  -19.8930 C   0  0  0  0  0  0  0  0  0  0  0  0
   18.3089  -12.6841  -20.5742 O   0  0  0  0  0  0  0  0  0  0  0  0
   19.6197  -12.4823  -18.5786 C   0  0  0  0  0  0  0  0  0  0  0  0
   20.9048  -13.1035  -18.0119 C   0  0  2  0  0  0  0  0  0  0  0  0
   20.5574  -14.3343  -17.3680 N   0  0  0  0  0  0  0  0  0  0  0  0
   21.4743  -12.0959  -17.0804 C   0  0  0  0  0  0  0  0  0  0  0  0
   20.8267  -11.6845  -16.0707 O   0  0  0  0  0  0  0  0  0  0  0  0
   25.7585   -9.9265  -14.3106 C   0  0  0  0  0  0  0  0  0  0  0  0
   25.8557  -10.1596  -15.7678 C   0  0  1  0  0  0  0  0  0  0  0  0
   27.2412  -10.7382  -16.0590 C   0  0  0  0  0  0  0  0  0  0  0  0
   24.8352  -10.9831  -16.4336 C   0  0  0  0  0  0  0  0  0  0  0  0
   23.4116  -10.5922  -16.4167 C   0  0  2  0  0  0  0  0  0  0  0  0
   22.7518  -11.5874  -17.3183 N   0  0  0  0  0  0  0  0  0  0  0  0
   23.0486   -9.2610  -16.9228 C   0  0  0  0  0  0  0  0  0  0  0  0
   23.2064   -8.8700  -18.0970 O   0  0  0  0  0  0  0  0  0  0  0  0
   22.4556   -8.2649  -16.0495 N   0  0  0  0  0  0  0  0  0  0  0  0
   22.0186   -6.9856  -16.5683 C   0  0  1  0  0  0  0  0  0  0  0  0
   21.0123   -7.2942  -17.6674 C   0  0  0  0  0  0  0  0  0  0  0  0
   20.3644   -6.0767  -18.2095 C   0  0  0  0  0  0  0  0  0  0  0  0
   21.0868   -5.2328  -19.0065 C   0  0  0  0  0  0  0  0  0  0  0  0
   20.4430   -4.0981  -19.4999 C   0  0  0  0  0  0  0  0  0  0  0  0
   19.1173   -3.8517  -19.1831 C   0  0  0  0  0  0  0  0  0  0  0  0
   18.4129   -4.7227  -18.3758 C   0  0  0  0  0  0  0  0  0  0  0  0
   19.0317   -5.8554  -17.8748 C   0  0  0  0  0  0  0  0  0  0  0  0
   21.4555   -6.1948  -15.4671 C   0  0  0  0  0  0  0  0  0  0  0  0
   21.2576   -6.7399  -14.2124 O   0  0  0  0  0  0  0  0  0  0  0  0
   21.1404   -4.9991  -15.6541 O   0  0  0  0  0  0  0  0  0  0  0  0
  2  1  1  0
  2  3  2  0
  4  2  1  0
  5  4  1  0
  5  6  1  1
  7  8  2  0
  7  5  1  0
 10  9  1  1
 10 12  1  0
 11 10  1  0
 13 12  1  6
 13 14  1  0
 14  7  1  0
 15 17  1  0
 15 13  1  0
 16 15  2  0
 18 17  1  0
 18 26  1  0
 18 19  1  6
 20 19  1  0
 20 25  2  0
 21 20  1  0
 22 23  1  0
 22 21  2  0
 23 24  2  0
 24 25  1  0
 26 27  1  0
 28 26  2  0
M  END
$$$$
