NLF.pdb
     RDKit          3D

 28 28  0  0  1  0  0  0  0  0999 V2000
   22.9719  -16.7482  -18.8769 N   0  0  0  0  0  0  0  0  0  0  0  0
   22.0029  -17.5331  -18.2153 C   0  0  0  0  0  0  0  0  0  0  0  0
   20.8353  -17.0815  -18.0585 O   0  0  0  0  0  0  0  0  0  0  0  0
   22.3845  -18.8772  -17.7163 C   0  0  0  0  0  0  0  0  0  0  0  0
   23.8924  -19.1049  -17.8973 C   0  0  2  0  0  0  0  0  0  0  0  0
   24.1180  -19.5402  -19.2426 N   0  0  0  0  0  0  0  0  0  0  0  0
   24.2819  -20.1168  -16.8816 C   0  0  0  0  0  0  0  0  0  0  0  0
   24.1843  -21.3600  -17.1117 O   0  0  0  0  0  0  0  0  0  0  0  0
   28.8649  -19.0920  -14.5074 C   0  0  0  0  0  0  0  0  0  0  0  0
   27.6986  -19.8656  -14.9854 C   0  0  1  0  0  0  0  0  0  0  0  0
   28.1906  -21.2579  -15.3839 C   0  0  0  0  0  0  0  0  0  0  0  0
   26.5186  -19.9970  -14.1176 C   0  0  0  0  0  0  0  0  0  0  0  0
   25.2824  -20.6401  -14.6057 C   0  0  2  0  0  0  0  0  0  0  0  0
   24.7671  -19.6937  -15.6436 N   0  0  0  0  0  0  0  0  0  0  0  0
   24.1857  -20.8556  -13.6515 C   0  0  0  0  0  0  0  0  0  0  0  0
   24.2257  -21.6263  -12.6713 O   0  0  0  0  0  0  0  0  0  0  0  0
   22.9228  -20.1542  -13.7926 N   0  0  0  0  0  0  0  0  0  0  0  0
   21.8443  -20.3660  -12.8500 C   0  0  1  0  0  0  0  0  0  0  0  0
   21.4088  -18.9839  -12.3850 C   0  0  0  0  0  0  0  0  0  0  0  0
   20.1570  -19.0139  -11.5927 C   0  0  0  0  0  0  0  0  0  0  0  0
   18.9680  -18.7394  -12.2094 C   0  0  0  0  0  0  0  0  0  0  0  0
   17.8106  -18.7791  -11.4321 C   0  0  0  0  0  0  0  0  0  0  0  0
   17.8827  -19.0883  -10.0839 C   0  0  0  0  0  0  0  0  0  0  0  0
   19.0983  -19.3616   -9.4885 C   0  0  0  0  0  0  0  0  0  0  0  0
   20.2601  -19.3281  -10.2408 C   0  0  0  0  0  0  0  0  0  0  0  0
   20.7754  -21.1215  -13.5146 C   0  0  0  0  0  0  0  0  0  0  0  0
   20.7131  -21.2281  -14.8913 O   0  0  0  0  0  0  0  0  0  0  0  0
   19.8919  -21.6854  -12.8324 O   0  0  0  0  0  0  0  0  0  0  0  0
  2  1  1  0
  2  3  2  0
  4  2  1  0
  5  4  1  0
  5  6  1  6
  7  8  2  0
  7  5  1  0
 10  9  1  1
 10 12  1  0
 11 10  1  0
 13 12  1  1
 13 14  1  0
 14  7  1  0
 15 17  1  0
 15 13  1  0
 16 15  2  0
 18 17  1  0
 18 26  1  0
 18 19  1  6
 20 19  1  0
 20 25  2  0
 21 20  1  0
 22 23  1  0
 22 21  2  0
 23 24  2  0
 24 25  1  0
 26 27  1  0
 28 26  2  0
M  END
$$$$
