NLF.pdb
     RDKit          3D

 28 28  0  0  1  0  0  0  0  0999 V2000
   28.1711  -20.3822  -19.9500 N   0  0  0  0  0  0  0  0  0  0  0  0
   28.2451  -20.4137  -18.5406 C   0  0  0  0  0  0  0  0  0  0  0  0
   29.1803  -21.0474  -17.9790 O   0  0  0  0  0  0  0  0  0  0  0  0
   27.2137  -19.6978  -17.7501 C   0  0  0  0  0  0  0  0  0  0  0  0
   26.1031  -19.1740  -18.6725 C   0  0  2  0  0  0  0  0  0  0  0  0
   26.5791  -17.9834  -19.3097 N   0  0  0  0  0  0  0  0  0  0  0  0
   24.9209  -18.9403  -17.8036 C   0  0  0  0  0  0  0  0  0  0  0  0
   24.8350  -17.9160  -17.0609 O   0  0  0  0  0  0  0  0  0  0  0  0
   19.9025  -19.4658  -19.8105 C   0  0  0  0  0  0  0  0  0  0  0  0
   20.9865  -19.0569  -18.8913 C   0  0  1  0  0  0  0  0  0  0  0  0
   20.5013  -17.8368  -18.1070 C   0  0  0  0  0  0  0  0  0  0  0  0
   21.5470  -20.0441  -17.9564 C   0  0  0  0  0  0  0  0  0  0  0  0
   22.6210  -19.6750  -17.0129 C   0  0  2  0  0  0  0  0  0  0  0  0
   23.8779  -19.8673  -17.8013 N   0  0  0  0  0  0  0  0  0  0  0  0
   22.7706  -20.4663  -15.7836 C   0  0  0  0  0  0  0  0  0  0  0  0
   23.0759  -21.6752  -15.7386 O   0  0  0  0  0  0  0  0  0  0  0  0
   22.5623  -19.8669  -14.4781 N   0  0  0  0  0  0  0  0  0  0  0  0
   22.7114  -20.6480  -13.2680 C   0  0  1  0  0  0  0  0  0  0  0  0
   23.3976  -19.7397  -12.2580 C   0  0  0  0  0  0  0  0  0  0  0  0
   23.5527  -20.3752  -10.9284 C   0  0  0  0  0  0  0  0  0  0  0  0
   22.4708  -20.4591  -10.0966 C   0  0  0  0  0  0  0  0  0  0  0  0
   22.6544  -21.0656   -8.8541 C   0  0  0  0  0  0  0  0  0  0  0  0
   23.8967  -21.5603   -8.4930 C   0  0  0  0  0  0  0  0  0  0  0  0
   24.9713  -21.4616   -9.3546 C   0  0  0  0  0  0  0  0  0  0  0  0
   24.8122  -20.8635  -10.5931 C   0  0  0  0  0  0  0  0  0  0  0  0
   21.3864  -21.1070  -12.8339 C   0  0  0  0  0  0  0  0  0  0  0  0
   21.1959  -22.3691  -12.3033 O   0  0  0  0  0  0  0  0  0  0  0  0
   20.3966  -20.3505  -12.9426 O   0  0  0  0  0  0  0  0  0  0  0  0
  2  1  1  0
  2  3  2  0
  4  2  1  0
  5  4  1  0
  5  6  1  1
  7  8  2  0
  7  5  1  0
 10  9  1  1
 10 12  1  0
 11 10  1  0
 13 12  1  6
 13 14  1  0
 14  7  1  0
 15 17  1  0
 15 13  1  0
 16 15  2  0
 18 17  1  0
 18 26  1  0
 18 19  1  1
 20 19  1  0
 20 25  2  0
 21 20  1  0
 22 23  1  0
 22 21  2  0
 23 24  2  0
 24 25  1  0
 26 27  1  0
 28 26  2  0
M  END
$$$$
