NLF.pdb
     RDKit          3D

 28 28  0  0  1  0  0  0  0  0999 V2000
   33.2727  -34.8221  -20.0050 N   0  0  0  0  0  0  0  0  0  0  0  0
   34.1847  -33.9020  -19.4443 C   0  0  0  0  0  0  0  0  0  0  0  0
   35.2553  -34.3221  -18.9256 O   0  0  0  0  0  0  0  0  0  0  0  0
   33.8586  -32.4550  -19.4778 C   0  0  0  0  0  0  0  0  0  0  0  0
   32.4423  -32.2402  -20.0314 C   0  0  2  0  0  0  0  0  0  0  0  0
   32.5585  -31.7070  -21.3552 N   0  0  0  0  0  0  0  0  0  0  0  0
   31.7651  -31.3161  -19.0855 C   0  0  0  0  0  0  0  0  0  0  0  0
   31.6557  -31.5911  -17.8525 O   0  0  0  0  0  0  0  0  0  0  0  0
   32.0789  -25.9006  -20.2747 C   0  0  0  0  0  0  0  0  0  0  0  0
   31.9879  -27.1713  -19.5234 C   0  0  1  0  0  0  0  0  0  0  0  0
   32.5637  -26.9327  -18.1267 C   0  0  0  0  0  0  0  0  0  0  0  0
   30.6856  -27.8440  -19.4039 C   0  0  0  0  0  0  0  0  0  0  0  0
   30.5526  -29.1215  -18.6757 C   0  0  2  0  0  0  0  0  0  0  0  0
   31.2353  -30.1159  -19.5609 N   0  0  0  0  0  0  0  0  0  0  0  0
   29.2016  -29.6417  -18.4227 C   0  0  0  0  0  0  0  0  0  0  0  0
   28.5606  -30.3847  -19.1931 O   0  0  0  0  0  0  0  0  0  0  0  0
   28.4885  -29.3095  -17.2028 N   0  0  0  0  0  0  0  0  0  0  0  0
   27.1496  -29.8066  -16.9645 C   0  0  1  0  0  0  0  0  0  0  0  0
   27.3098  -31.2319  -16.4556 C   0  0  0  0  0  0  0  0  0  0  0  0
   26.0168  -31.8620  -16.0995 C   0  0  0  0  0  0  0  0  0  0  0  0
   25.6228  -31.8873  -14.7905 C   0  0  0  0  0  0  0  0  0  0  0  0
   24.3990  -32.4870  -14.4938 C   0  0  0  0  0  0  0  0  0  0  0  0
   23.6232  -33.0322  -15.5034 C   0  0  0  0  0  0  0  0  0  0  0  0
   24.0472  -32.9914  -16.8169 C   0  0  0  0  0  0  0  0  0  0  0  0
   25.2586  -32.4010  -17.1347 C   0  0  0  0  0  0  0  0  0  0  0  0
   26.4773  -28.9181  -16.0086 C   0  0  0  0  0  0  0  0  0  0  0  0
   27.1925  -28.0897  -15.1644 O   0  0  0  0  0  0  0  0  0  0  0  0
   25.2285  -28.9010  -15.9435 O   0  0  0  0  0  0  0  0  0  0  0  0
  2  1  1  0
  2  3  2  0
  4  2  1  0
  5  4  1  0
  5  6  1  6
  7  8  2  0
  7  5  1  0
 10  9  1  1
 10 12  1  0
 11 10  1  0
 13 12  1  6
 13 14  1  0
 14  7  1  0
 15 17  1  0
 15 13  1  0
 16 15  2  0
 18 17  1  0
 18 26  1  0
 18 19  1  1
 20 19  1  0
 20 25  2  0
 21 20  1  0
 22 23  1  0
 22 21  2  0
 23 24  2  0
 24 25  1  0
 26 27  1  0
 28 26  2  0
M  END
$$$$
