NLF.pdb
     RDKit          3D

 28 28  0  0  1  0  0  0  0  0999 V2000
   22.4516  -18.8244  -20.7814 N   0  0  0  0  0  0  0  0  0  0  0  0
   23.8180  -19.0310  -21.0697 C   0  0  0  0  0  0  0  0  0  0  0  0
   24.2354  -18.8846  -22.2512 O   0  0  0  0  0  0  0  0  0  0  0  0
   24.7344  -19.4194  -19.9695 C   0  0  0  0  0  0  0  0  0  0  0  0
   23.9696  -19.4947  -18.6399 C   0  0  2  0  0  0  0  0  0  0  0  0
   23.2266  -18.2806  -18.4849 N   0  0  0  0  0  0  0  0  0  0  0  0
   24.9960  -19.6917  -17.5839 C   0  0  0  0  0  0  0  0  0  0  0  0
   25.8085  -20.6646  -17.6211 O   0  0  0  0  0  0  0  0  0  0  0  0
   27.5528  -15.4199  -16.2243 C   0  0  0  0  0  0  0  0  0  0  0  0
   27.1310  -16.8263  -16.4010 C   0  0  1  0  0  0  0  0  0  0  0  0
   28.3036  -17.5943  -17.0128 C   0  0  0  0  0  0  0  0  0  0  0  0
   26.6121  -17.5719  -15.2445 C   0  0  0  0  0  0  0  0  0  0  0  0
   26.0515  -18.9286  -15.4026 C   0  0  2  0  0  0  0  0  0  0  0  0
   25.0712  -18.7872  -16.5240 N   0  0  0  0  0  0  0  0  0  0  0  0
   25.3165  -19.5147  -14.2730 C   0  0  0  0  0  0  0  0  0  0  0  0
   25.8004  -19.7612  -13.1498 O   0  0  0  0  0  0  0  0  0  0  0  0
   23.9127  -19.8633  -14.3942 N   0  0  0  0  0  0  0  0  0  0  0  0
   23.2148  -20.5279  -13.3135 C   0  0  1  0  0  0  0  0  0  0  0  0
   23.2148  -19.5532  -12.1448 C   0  0  0  0  0  0  0  0  0  0  0  0
   22.4375  -20.0492  -10.9849 C   0  0  0  0  0  0  0  0  0  0  0  0
   23.0692  -20.7858  -10.0217 C   0  0  0  0  0  0  0  0  0  0  0  0
   22.3057  -21.2337   -8.9438 C   0  0  0  0  0  0  0  0  0  0  0  0
   20.9558  -20.9327   -8.8686 C   0  0  0  0  0  0  0  0  0  0  0  0
   20.3450  -20.1861   -9.8568 C   0  0  0  0  0  0  0  0  0  0  0  0
   21.0835  -19.7308  -10.9359 C   0  0  0  0  0  0  0  0  0  0  0  0
   21.8677  -20.8900  -13.7710 C   0  0  0  0  0  0  0  0  0  0  0  0
   21.1604  -21.9259  -13.1903 O   0  0  0  0  0  0  0  0  0  0  0  0
   21.3354  -20.2569  -14.7089 O   0  0  0  0  0  0  0  0  0  0  0  0
  2  1  1  0
  2  3  2  0
  4  2  1  0
  5  4  1  0
  5  6  1  1
  7  8  2  0
  7  5  1  0
 10  9  1  1
 10 12  1  0
 11 10  1  0
 13 12  1  1
 13 14  1  0
 14  7  1  0
 15 17  1  0
 15 13  1  0
 16 15  2  0
 18 17  1  0
 18 26  1  0
 18 19  1  1
 20 19  1  0
 20 25  2  0
 21 20  1  0
 22 23  1  0
 22 21  2  0
 23 24  2  0
 24 25  1  0
 26 27  1  0
 28 26  2  0
M  END
$$$$
