NLF.pdb
     RDKit          3D

 28 28  0  0  1  0  0  0  0  0999 V2000
   18.7604  -15.2787  -18.2971 N   0  0  0  0  0  0  0  0  0  0  0  0
   19.9458  -14.6344  -18.7127 C   0  0  0  0  0  0  0  0  0  0  0  0
   20.3254  -14.7392  -19.9113 O   0  0  0  0  0  0  0  0  0  0  0  0
   20.7213  -13.8468  -17.7231 C   0  0  0  0  0  0  0  0  0  0  0  0
   22.1698  -14.3528  -17.6560 C   0  0  2  0  0  0  0  0  0  0  0  0
   22.1514  -15.6860  -17.1342 N   0  0  0  0  0  0  0  0  0  0  0  0
   22.9019  -13.3945  -16.7882 C   0  0  0  0  0  0  0  0  0  0  0  0
   22.9511  -13.5426  -15.5298 O   0  0  0  0  0  0  0  0  0  0  0  0
   27.2281  -10.4974  -15.3163 C   0  0  0  0  0  0  0  0  0  0  0  0
   26.8005  -10.5411  -16.7314 C   0  0  1  0  0  0  0  0  0  0  0  0
   28.0391  -10.8094  -17.5877 C   0  0  0  0  0  0  0  0  0  0  0  0
   25.7255  -11.4624  -17.1294 C   0  0  0  0  0  0  0  0  0  0  0  0
   24.3634  -11.3273  -16.5761 C   0  0  2  0  0  0  0  0  0  0  0  0
   23.5523  -12.3043  -17.3674 N   0  0  0  0  0  0  0  0  0  0  0  0
   23.6889  -10.0270  -16.6953 C   0  0  0  0  0  0  0  0  0  0  0  0
   23.1751   -9.5758  -17.7388 O   0  0  0  0  0  0  0  0  0  0  0  0
   23.5707   -9.1383  -15.5538 N   0  0  0  0  0  0  0  0  0  0  0  0
   22.9199   -7.8507  -15.6771 C   0  0  1  0  0  0  0  0  0  0  0  0
   22.3292   -7.5405  -14.3093 C   0  0  0  0  0  0  0  0  0  0  0  0
   21.7336   -6.1856  -14.2362 C   0  0  0  0  0  0  0  0  0  0  0  0
   22.5527   -5.1020  -14.0808 C   0  0  0  0  0  0  0  0  0  0  0  0
   21.9564   -3.8427  -14.0181 C   0  0  0  0  0  0  0  0  0  0  0  0
   20.5805   -3.7139  -14.1123 C   0  0  0  0  0  0  0  0  0  0  0  0
   19.7785   -4.8269  -14.2694 C   0  0  0  0  0  0  0  0  0  0  0  0
   20.3487   -6.0869  -14.3342 C   0  0  0  0  0  0  0  0  0  0  0  0
   23.9079   -6.8611  -16.1239 C   0  0  0  0  0  0  0  0  0  0  0  0
   23.5859   -5.8822  -17.0451 O   0  0  0  0  0  0  0  0  0  0  0  0
   25.0731   -6.8933  -15.6709 O   0  0  0  0  0  0  0  0  0  0  0  0
  2  1  1  0
  2  3  2  0
  4  2  1  0
  5  4  1  0
  5  6  1  1
  7  8  2  0
  7  5  1  0
 10  9  1  1
 10 12  1  0
 11 10  1  0
 13 12  1  6
 13 14  1  0
 14  7  1  0
 15 17  1  0
 15 13  1  0
 16 15  2  0
 18 17  1  0
 18 26  1  0
 18 19  1  1
 20 19  1  0
 20 25  2  0
 21 20  1  0
 22 23  1  0
 22 21  2  0
 23 24  2  0
 24 25  1  0
 26 27  1  0
 28 26  2  0
M  END
$$$$
