PLC.pdb
     RDKit          3D

 22 22  0  0  1  0  0  0  0  0999 V2000
   24.1383  -14.6962  -19.9366 N   0  0  0  0  0  0  0  0  0  0  0  0
   23.6558  -15.5791  -20.9754 C   0  0  0  0  0  0  0  0  0  0  0  0
   22.2539  -15.1749  -21.3043 C   0  0  0  0  0  0  0  0  0  0  0  0
   21.9384  -14.1246  -20.2589 C   0  0  0  0  0  0  0  0  0  0  0  0
   23.3128  -13.5321  -20.0191 C   0  0  1  0  0  0  0  0  0  0  0  0
   23.3571  -12.7054  -18.7842 C   0  0  0  0  0  0  0  0  0  0  0  0
   22.6535  -13.0455  -17.7984 O   0  0  0  0  0  0  0  0  0  0  0  0
   26.2155  -11.9987  -15.6993 C   0  0  0  0  0  0  0  0  0  0  0  0
   26.6070  -11.3831  -17.0439 C   0  0  2  0  0  0  0  0  0  0  0  0
   28.0242  -10.8619  -16.8580 C   0  0  0  0  0  0  0  0  0  0  0  0
   25.7269  -10.1960  -17.3469 C   0  0  0  0  0  0  0  0  0  0  0  0
   24.3003  -10.6062  -17.7000 C   0  0  2  0  0  0  0  0  0  0  0  0
   24.1881  -11.5602  -18.7510 N   0  0  0  0  0  0  0  0  0  0  0  0
   23.3642   -9.4924  -17.7142 C   0  0  0  0  0  0  0  0  0  0  0  0
   23.3182   -8.7138  -18.7043 O   0  0  0  0  0  0  0  0  0  0  0  0
   22.4643   -9.2104  -16.6503 N   0  0  0  0  0  0  0  0  0  0  0  0
   21.5261   -8.1114  -16.7298 C   0  0  1  0  0  0  0  0  0  0  0  0
   20.0912   -8.6061  -16.5997 C   0  0  0  0  0  0  0  0  0  0  0  0
   19.7154   -9.7594  -17.9258 S   0  0  0  0  0  0  0  0  0  0  0  0
   21.8235   -7.0904  -15.6949 C   0  0  0  0  0  0  0  0  0  0  0  0
   21.0758   -5.9402  -15.5753 O   0  0  0  0  0  0  0  0  0  0  0  0
   22.7841   -7.2941  -14.9155 O   0  0  0  0  0  0  0  0  0  0  0  0
  1  5  1  0
  2  1  1  0
  3  4  1  0
  3  2  1  0
  4  5  1  0
  5  6  1  1
  6  7  2  0
  9  8  1  1
  9 10  1  0
  9 11  1  0
 12 11  1  6
 12 13  1  0
 12 14  1  0
 13  6  1  0
 14 16  1  0
 15 14  2  0
 16 17  1  0
 17 20  1  0
 17 18  1  1
 19 18  1  0
 20 22  2  0
 20 21  1  0
M  END
$$$$
