PLC.pdb
     RDKit          3D

 22 22  0  0  1  0  0  0  0  0999 V2000
   26.8090  -18.2123  -15.4747 N   0  0  0  0  0  0  0  0  0  0  0  0
   28.0553  -17.6723  -15.9715 C   0  0  0  0  0  0  0  0  0  0  0  0
   28.9802  -18.8192  -16.2284 C   0  0  0  0  0  0  0  0  0  0  0  0
   28.2221  -20.0099  -15.6779 C   0  0  0  0  0  0  0  0  0  0  0  0
   26.7891  -19.5738  -15.9097 C   0  0  1  0  0  0  0  0  0  0  0  0
   25.8213  -20.4077  -15.1492 C   0  0  0  0  0  0  0  0  0  0  0  0
   25.5369  -21.5551  -15.5795 O   0  0  0  0  0  0  0  0  0  0  0  0
   26.2262  -22.1451  -11.2783 C   0  0  0  0  0  0  0  0  0  0  0  0
   25.9940  -20.6358  -11.1873 C   0  0  2  0  0  0  0  0  0  0  0  0
   26.1295  -20.2893   -9.7122 C   0  0  0  0  0  0  0  0  0  0  0  0
   24.5820  -20.3022  -11.6002 C   0  0  0  0  0  0  0  0  0  0  0  0
   24.3388  -20.5467  -13.0866 C   0  0  2  0  0  0  0  0  0  0  0  0
   25.2472  -19.8893  -13.9640 N   0  0  0  0  0  0  0  0  0  0  0  0
   22.9312  -20.5259  -13.4542 C   0  0  0  0  0  0  0  0  0  0  0  0
   22.3373  -19.4286  -13.6330 O   0  0  0  0  0  0  0  0  0  0  0  0
   22.1496  -21.7000  -13.6326 N   0  0  0  0  0  0  0  0  0  0  0  0
   20.7683  -21.6269  -14.0582 C   0  0  1  0  0  0  0  0  0  0  0  0
   20.2603  -22.9916  -14.5057 C   0  0  0  0  0  0  0  0  0  0  0  0
   18.5101  -22.8966  -14.9026 S   0  0  0  0  0  0  0  0  0  0  0  0
   19.9132  -21.0793  -12.9761 C   0  0  0  0  0  0  0  0  0  0  0  0
   20.2080  -21.2819  -11.6463 O   0  0  0  0  0  0  0  0  0  0  0  0
   18.8983  -20.4165  -13.2963 O   0  0  0  0  0  0  0  0  0  0  0  0
  1  5  1  0
  2  1  1  0
  3  4  1  0
  3  2  1  0
  4  5  1  0
  5  6  1  1
  6  7  2  0
  9  8  1  1
  9 10  1  0
  9 11  1  0
 12 11  1  1
 12 13  1  0
 12 14  1  0
 13  6  1  0
 14 16  1  0
 15 14  2  0
 16 17  1  0
 17 20  1  0
 17 18  1  1
 19 18  1  0
 20 22  2  0
 20 21  1  0
M  END
$$$$
