PLC.pdb
     RDKit          3D

 22 22  0  0  1  0  0  0  0  0999 V2000
   18.0146  -12.8329  -14.4435 N   0  0  0  0  0  0  0  0  0  0  0  0
   18.1051  -14.2162  -14.8556 C   0  0  0  0  0  0  0  0  0  0  0  0
   16.9465  -14.5012  -15.7575 C   0  0  0  0  0  0  0  0  0  0  0  0
   16.1198  -13.2342  -15.6758 C   0  0  0  0  0  0  0  0  0  0  0  0
   17.1994  -12.1986  -15.4316 C   0  0  1  0  0  0  0  0  0  0  0  0
   16.6363  -10.9028  -14.9691 C   0  0  0  0  0  0  0  0  0  0  0  0
   15.9445  -10.2200  -15.7677 O   0  0  0  0  0  0  0  0  0  0  0  0
   13.6518   -9.1760  -11.6566 C   0  0  0  0  0  0  0  0  0  0  0  0
   14.8425  -10.0786  -11.3284 C   0  0  2  0  0  0  0  0  0  0  0  0
   14.7441  -10.3593   -9.8365 C   0  0  0  0  0  0  0  0  0  0  0  0
   16.1354   -9.3376  -11.5628 C   0  0  0  0  0  0  0  0  0  0  0  0
   16.4920   -9.2465  -13.0435 C   0  0  2  0  0  0  0  0  0  0  0  0
   16.8933  -10.4729  -13.6453 N   0  0  0  0  0  0  0  0  0  0  0  0
   17.2631   -8.0598  -13.3816 C   0  0  0  0  0  0  0  0  0  0  0  0
   18.5004   -8.0173  -13.1448 O   0  0  0  0  0  0  0  0  0  0  0  0
   16.6980   -6.9020  -13.9827 N   0  0  0  0  0  0  0  0  0  0  0  0
   17.5077   -5.7425  -14.2899 C   0  0  1  0  0  0  0  0  0  0  0  0
   17.8042   -5.6614  -15.7819 C   0  0  0  0  0  0  0  0  0  0  0  0
   18.6676   -4.1301  -16.1552 S   0  0  0  0  0  0  0  0  0  0  0  0
   16.8464   -4.5001  -13.8195 C   0  0  0  0  0  0  0  0  0  0  0  0
   17.5714   -3.4134  -13.3838 O   0  0  0  0  0  0  0  0  0  0  0  0
   15.5937   -4.4531  -13.8247 O   0  0  0  0  0  0  0  0  0  0  0  0
  1  5  1  0
  2  1  1  0
  3  4  1  0
  3  2  1  0
  4  5  1  0
  5  6  1  1
  6  7  2  0
  9  8  1  1
  9 10  1  0
  9 11  1  0
 12 11  1  1
 12 13  1  0
 12 14  1  0
 13  6  1  0
 14 16  1  0
 15 14  2  0
 16 17  1  0
 17 20  1  0
 17 18  1  6
 19 18  1  0
 20 22  2  0
 20 21  1  0
M  END
$$$$
