PLC.pdb
     RDKit          3D

 22 22  0  0  1  0  0  0  0  0999 V2000
   31.1604  -21.0734   -9.5684 N   0  0  0  0  0  0  0  0  0  0  0  0
   32.4848  -21.5357   -9.9205 C   0  0  0  0  0  0  0  0  0  0  0  0
   32.6441  -22.9210   -9.3798 C   0  0  0  0  0  0  0  0  0  0  0  0
   31.3860  -23.1234   -8.5603 C   0  0  0  0  0  0  0  0  0  0  0  0
   30.4012  -22.2593   -9.3224 C   0  0  1  0  0  0  0  0  0  0  0  0
   29.1638  -21.9995   -8.5403 C   0  0  0  0  0  0  0  0  0  0  0  0
   28.3135  -22.9191   -8.4232 O   0  0  0  0  0  0  0  0  0  0  0  0
   28.7016  -20.9933   -4.4996 C   0  0  0  0  0  0  0  0  0  0  0  0
   29.1205  -19.7465   -5.2808 C   0  0  2  0  0  0  0  0  0  0  0  0
   29.3418  -18.6638   -4.2352 C   0  0  0  0  0  0  0  0  0  0  0  0
   27.9922  -19.2887   -6.1712 C   0  0  0  0  0  0  0  0  0  0  0  0
   27.7829  -20.2148   -7.3656 C   0  0  2  0  0  0  0  0  0  0  0  0
   28.9761  -20.7270   -7.9498 N   0  0  0  0  0  0  0  0  0  0  0  0
   26.7426  -19.7604   -8.2756 C   0  0  0  0  0  0  0  0  0  0  0  0
   26.4083  -18.5454   -8.3025 O   0  0  0  0  0  0  0  0  0  0  0  0
   26.0510  -20.6226   -9.1697 N   0  0  0  0  0  0  0  0  0  0  0  0
   25.2094  -20.0961  -10.2228 C   0  0  1  0  0  0  0  0  0  0  0  0
   25.8779  -20.2442  -11.5836 C   0  0  0  0  0  0  0  0  0  0  0  0
   26.3717  -21.9525  -11.8437 S   0  0  0  0  0  0  0  0  0  0  0  0
   23.8823  -20.7601  -10.2167 C   0  0  0  0  0  0  0  0  0  0  0  0
   22.8617  -20.3480  -11.0442 O   0  0  0  0  0  0  0  0  0  0  0  0
   23.7002  -21.7206   -9.4318 O   0  0  0  0  0  0  0  0  0  0  0  0
  1  5  1  0
  2  1  1  0
  3  4  1  0
  3  2  1  0
  4  5  1  0
  5  6  1  1
  6  7  2  0
  9  8  1  1
  9 10  1  0
  9 11  1  0
 12 11  1  1
 12 13  1  0
 12 14  1  0
 13  6  1  0
 14 16  1  0
 15 14  2  0
 16 17  1  0
 17 20  1  0
 17 18  1  6
 19 18  1  0
 20 22  2  0
 20 21  1  0
M  END
$$$$
