PLC.pdb
     RDKit          3D

 22 22  0  0  1  0  0  0  0  0999 V2000
   28.8271  -24.3224  -17.5717 N   0  0  0  0  0  0  0  0  0  0  0  0
   28.5633  -25.5829  -18.2297 C   0  0  0  0  0  0  0  0  0  0  0  0
   27.2034  -26.0422  -17.8092 C   0  0  0  0  0  0  0  0  0  0  0  0
   26.8092  -25.0389  -16.7446 C   0  0  0  0  0  0  0  0  0  0  0  0
   27.5414  -23.8022  -17.2261 C   0  0  1  0  0  0  0  0  0  0  0  0
   27.6082  -22.7492  -16.1787 C   0  0  0  0  0  0  0  0  0  0  0  0
   28.5172  -22.8103  -15.3112 O   0  0  0  0  0  0  0  0  0  0  0  0
   25.6111  -16.9915  -15.0691 C   0  0  0  0  0  0  0  0  0  0  0  0
   26.1723  -18.3093  -14.5319 C   0  0  2  0  0  0  0  0  0  0  0  0
   27.5517  -17.9739  -13.9850 C   0  0  0  0  0  0  0  0  0  0  0  0
   26.3623  -19.2910  -15.6614 C   0  0  0  0  0  0  0  0  0  0  0  0
   26.4257  -20.7346  -15.1712 C   0  0  2  0  0  0  0  0  0  0  0  0
   26.6492  -21.7083  -16.1857 N   0  0  0  0  0  0  0  0  0  0  0  0
   25.4258  -21.0479  -14.1618 C   0  0  0  0  0  0  0  0  0  0  0  0
   24.2486  -21.3415  -14.5032 O   0  0  0  0  0  0  0  0  0  0  0  0
   25.6933  -21.0460  -12.7655 N   0  0  0  0  0  0  0  0  0  0  0  0
   24.6710  -21.3966  -11.8031 C   0  0  1  0  0  0  0  0  0  0  0  0
   25.2423  -21.4489  -10.3919 C   0  0  0  0  0  0  0  0  0  0  0  0
   25.8762  -19.8335   -9.9246 S   0  0  0  0  0  0  0  0  0  0  0  0
   23.5348  -20.4446  -11.8727 C   0  0  0  0  0  0  0  0  0  0  0  0
   22.3041  -20.7439  -11.3323 O   0  0  0  0  0  0  0  0  0  0  0  0
   23.7151  -19.3422  -12.4417 O   0  0  0  0  0  0  0  0  0  0  0  0
  1  5  1  0
  2  1  1  0
  3  4  1  0
  3  2  1  0
  4  5  1  0
  5  6  1  1
  6  7  2  0
  9  8  1  6
  9 10  1  0
  9 11  1  0
 12 11  1  6
 12 13  1  0
 12 14  1  0
 13  6  1  0
 14 16  1  0
 15 14  2  0
 16 17  1  0
 17 20  1  0
 17 18  1  1
 19 18  1  0
 20 22  2  0
 20 21  1  0
M  END
$$$$
