PLC.pdb
     RDKit          3D

 22 22  0  0  1  0  0  0  0  0999 V2000
   21.6826  -12.6222  -18.6984 N   0  0  0  0  0  0  0  0  0  0  0  0
   21.4253  -13.9742  -19.1427 C   0  0  0  0  0  0  0  0  0  0  0  0
   20.7237  -14.6936  -18.0349 C   0  0  0  0  0  0  0  0  0  0  0  0
   20.7666  -13.7011  -16.8911 C   0  0  0  0  0  0  0  0  0  0  0  0
   20.7441  -12.3871  -17.6461 C   0  0  1  0  0  0  0  0  0  0  0  0
   21.1237  -11.2390  -16.7812 C   0  0  0  0  0  0  0  0  0  0  0  0
   20.3941  -10.9505  -15.7978 O   0  0  0  0  0  0  0  0  0  0  0  0
   24.6958  -10.6588  -14.3769 C   0  0  0  0  0  0  0  0  0  0  0  0
   24.9868  -10.4804  -15.8681 C   0  0  2  0  0  0  0  0  0  0  0  0
   26.4890  -10.2619  -15.9684 C   0  0  0  0  0  0  0  0  0  0  0  0
   24.3149   -9.2314  -16.3820 C   0  0  0  0  0  0  0  0  0  0  0  0
   22.7945   -9.3578  -16.4050 C   0  0  2  0  0  0  0  0  0  0  0  0
   22.2933  -10.5030  -17.0868 N   0  0  0  0  0  0  0  0  0  0  0  0
   22.1118   -8.0950  -16.6420 C   0  0  0  0  0  0  0  0  0  0  0  0
   22.1813   -7.5371  -17.7701 O   0  0  0  0  0  0  0  0  0  0  0  0
   21.3434   -7.4211  -15.6537 N   0  0  0  0  0  0  0  0  0  0  0  0
   20.6107   -6.2126  -15.9651 C   0  0  1  0  0  0  0  0  0  0  0  0
   19.1082   -6.4405  -15.8585 C   0  0  0  0  0  0  0  0  0  0  0  0
   18.6342   -7.8797  -16.8248 S   0  0  0  0  0  0  0  0  0  0  0  0
   21.0349   -5.0983  -15.0818 C   0  0  0  0  0  0  0  0  0  0  0  0
   20.5007   -3.8347  -15.2014 O   0  0  0  0  0  0  0  0  0  0  0  0
   21.9038   -5.3283  -14.2078 O   0  0  0  0  0  0  0  0  0  0  0  0
  1  5  1  0
  2  1  1  0
  3  4  1  0
  3  2  1  0
  4  5  1  0
  5  6  1  1
  6  7  2  0
  9  8  1  1
  9 10  1  0
  9 11  1  0
 12 11  1  6
 12 13  1  0
 12 14  1  0
 13  6  1  0
 14 16  1  0
 15 14  2  0
 16 17  1  0
 17 20  1  0
 17 18  1  1
 19 18  1  0
 20 22  2  0
 20 21  1  0
M  END
$$$$
