PLC.pdb
     RDKit          3D

 22 22  0  0  1  0  0  0  0  0999 V2000
   23.9944  -14.1391  -18.4871 N   0  0  0  0  0  0  0  0  0  0  0  0
   24.1094  -15.5662  -18.6912 C   0  0  0  0  0  0  0  0  0  0  0  0
   23.9886  -16.2300  -17.3564 C   0  0  0  0  0  0  0  0  0  0  0  0
   23.9727  -15.0658  -16.3870 C   0  0  0  0  0  0  0  0  0  0  0  0
   23.3214  -13.9913  -17.2347 C   0  0  1  0  0  0  0  0  0  0  0  0
   23.4900  -12.6365  -16.6461 C   0  0  0  0  0  0  0  0  0  0  0  0
   22.9662  -12.3884  -15.5296 O   0  0  0  0  0  0  0  0  0  0  0  0
   28.1334   -9.1939  -17.4866 C   0  0  0  0  0  0  0  0  0  0  0  0
   26.9417   -9.8639  -16.8002 C   0  0  2  0  0  0  0  0  0  0  0  0
   27.2516  -11.3533  -16.8045 C   0  0  0  0  0  0  0  0  0  0  0  0
   25.6908   -9.6619  -17.6186 C   0  0  0  0  0  0  0  0  0  0  0  0
   24.4673  -10.3114  -16.9786 C   0  0  2  0  0  0  0  0  0  0  0  0
   24.2339  -11.6642  -17.3564 N   0  0  0  0  0  0  0  0  0  0  0  0
   23.3098   -9.4319  -16.9180 C   0  0  0  0  0  0  0  0  0  0  0  0
   22.4902   -9.3935  -17.8748 O   0  0  0  0  0  0  0  0  0  0  0  0
   23.0279   -8.5813  -15.8143 N   0  0  0  0  0  0  0  0  0  0  0  0
   21.8716   -7.7110  -15.8112 C   0  0  1  0  0  0  0  0  0  0  0  0
   21.1615   -7.7489  -14.4641 C   0  0  0  0  0  0  0  0  0  0  0  0
   20.5315   -9.4019  -14.1470 S   0  0  0  0  0  0  0  0  0  0  0  0
   22.2585   -6.3215  -16.1599 C   0  0  0  0  0  0  0  0  0  0  0  0
   21.3234   -5.3185  -16.2857 O   0  0  0  0  0  0  0  0  0  0  0  0
   23.4729   -6.0689  -16.3420 O   0  0  0  0  0  0  0  0  0  0  0  0
  1  5  1  0
  2  1  1  0
  3  4  1  0
  3  2  1  0
  4  5  1  0
  5  6  1  1
  6  7  2  0
  9  8  1  6
  9 10  1  0
  9 11  1  0
 12 11  1  6
 12 13  1  0
 12 14  1  0
 13  6  1  0
 14 16  1  0
 15 14  2  0
 16 17  1  0
 17 20  1  0
 17 18  1  1
 19 18  1  0
 20 22  2  0
 20 21  1  0
M  END
$$$$
