PLC.pdb
     RDKit          3D

 22 22  0  0  1  0  0  0  0  0999 V2000
   19.6710  -12.7510  -18.6791 N   0  0  0  0  0  0  0  0  0  0  0  0
   18.9776  -13.9103  -19.1957 C   0  0  0  0  0  0  0  0  0  0  0  0
   18.0980  -14.4391  -18.1078 C   0  0  0  0  0  0  0  0  0  0  0  0
   18.4829  -13.5988  -16.9073 C   0  0  0  0  0  0  0  0  0  0  0  0
   18.8792  -12.2988  -17.5783 C   0  0  1  0  0  0  0  0  0  0  0  0
   19.6284  -11.4015  -16.6596 C   0  0  0  0  0  0  0  0  0  0  0  0
   19.0220  -10.8819  -15.6875 O   0  0  0  0  0  0  0  0  0  0  0  0
   25.6494  -10.0454  -15.5115 C   0  0  0  0  0  0  0  0  0  0  0  0
   24.1655   -9.7102  -15.3507 C   0  0  2  0  0  0  0  0  0  0  0  0
   23.8480   -9.9530  -13.8828 C   0  0  0  0  0  0  0  0  0  0  0  0
   23.3265  -10.6697  -16.1575 C   0  0  0  0  0  0  0  0  0  0  0  0
   21.8561  -10.2637  -16.1965 C   0  0  2  0  0  0  0  0  0  0  0  0
   21.0009  -11.1566  -16.9028 N   0  0  0  0  0  0  0  0  0  0  0  0
   21.6542   -8.8399  -16.4174 C   0  0  0  0  0  0  0  0  0  0  0  0
   22.0212   -8.3063  -17.4988 O   0  0  0  0  0  0  0  0  0  0  0  0
   21.0493   -7.9762  -15.4638 N   0  0  0  0  0  0  0  0  0  0  0  0
   20.8260   -6.5757  -15.7523 C   0  0  1  0  0  0  0  0  0  0  0  0
   19.3519   -6.2167  -15.6149 C   0  0  0  0  0  0  0  0  0  0  0  0
   18.3549   -7.3100  -16.6350 S   0  0  0  0  0  0  0  0  0  0  0  0
   21.6576   -5.7185  -14.8715 C   0  0  0  0  0  0  0  0  0  0  0  0
   21.6646   -4.3467  -14.9919 O   0  0  0  0  0  0  0  0  0  0  0  0
   22.3677   -6.2720  -13.9992 O   0  0  0  0  0  0  0  0  0  0  0  0
  1  5  1  0
  2  1  1  0
  3  4  1  0
  3  2  1  0
  4  5  1  0
  5  6  1  1
  6  7  2  0
  9  8  1  1
  9 10  1  0
  9 11  1  0
 12 11  1  6
 12 13  1  0
 12 14  1  0
 13  6  1  0
 14 16  1  0
 15 14  2  0
 16 17  1  0
 17 20  1  0
 17 18  1  1
 19 18  1  0
 20 22  2  0
 20 21  1  0
M  END
$$$$
