PLC.pdb
     RDKit          3D

 22 22  0  0  1  0  0  0  0  0999 V2000
   28.3210  -21.7882  -14.9181 N   0  0  0  0  0  0  0  0  0  0  0  0
   28.9755  -21.1140  -16.0174 C   0  0  0  0  0  0  0  0  0  0  0  0
   28.3949  -19.7396  -16.1215 C   0  0  0  0  0  0  0  0  0  0  0  0
   27.2592  -19.7629  -15.1191 C   0  0  0  0  0  0  0  0  0  0  0  0
   27.7956  -20.7438  -14.0956 C   0  0  1  0  0  0  0  0  0  0  0  0
   26.7356  -21.2189  -13.1677 C   0  0  0  0  0  0  0  0  0  0  0  0
   26.0673  -22.2386  -13.4780 O   0  0  0  0  0  0  0  0  0  0  0  0
   26.5683  -21.6546   -8.5283 C   0  0  0  0  0  0  0  0  0  0  0  0
   26.7091  -20.2341   -9.0784 C   0  0  2  0  0  0  0  0  0  0  0  0
   26.8292  -19.3332   -7.8584 C   0  0  0  0  0  0  0  0  0  0  0  0
   25.4526  -19.8346   -9.8113 C   0  0  0  0  0  0  0  0  0  0  0  0
   25.3269  -20.5244  -11.1664 C   0  0  2  0  0  0  0  0  0  0  0  0
   26.5072  -20.5125  -11.9627 N   0  0  0  0  0  0  0  0  0  0  0  0
   24.0690  -20.2469  -11.8431 C   0  0  0  0  0  0  0  0  0  0  0  0
   23.9257  -19.1855  -12.5076 O   0  0  0  0  0  0  0  0  0  0  0  0
   22.9488  -21.1214  -11.8060 N   0  0  0  0  0  0  0  0  0  0  0  0
   21.7577  -20.8518  -12.5826 C   0  0  1  0  0  0  0  0  0  0  0  0
   21.4492  -22.0043  -13.5298 C   0  0  0  0  0  0  0  0  0  0  0  0
   19.8423  -21.7575  -14.2959 S   0  0  0  0  0  0  0  0  0  0  0  0
   20.6008  -20.5808  -11.6938 C   0  0  0  0  0  0  0  0  0  0  0  0
   19.5490  -19.7873  -12.0945 O   0  0  0  0  0  0  0  0  0  0  0  0
   20.5945  -21.0947  -10.5503 O   0  0  0  0  0  0  0  0  0  0  0  0
  1  5  1  0
  2  1  1  0
  3  4  1  0
  3  2  1  0
  4  5  1  0
  5  6  1  1
  6  7  2  0
  9  8  1  1
  9 10  1  0
  9 11  1  0
 12 11  1  1
 12 13  1  0
 12 14  1  0
 13  6  1  0
 14 16  1  0
 15 14  2  0
 16 17  1  0
 17 20  1  0
 17 18  1  1
 19 18  1  0
 20 22  2  0
 20 21  1  0
M  END
$$$$
