PLC.pdb
     RDKit          3D

 22 22  0  0  1  0  0  0  0  0999 V2000
   27.3146  -19.1818  -14.2249 N   0  0  0  0  0  0  0  0  0  0  0  0
   28.0875  -18.8975  -15.4138 C   0  0  0  0  0  0  0  0  0  0  0  0
   28.7766  -20.1601  -15.8237 C   0  0  0  0  0  0  0  0  0  0  0  0
   28.4695  -21.1115  -14.6854 C   0  0  0  0  0  0  0  0  0  0  0  0
   27.1168  -20.5974  -14.2345 C   0  0  1  0  0  0  0  0  0  0  0  0
   26.7304  -21.1344  -12.9031 C   0  0  0  0  0  0  0  0  0  0  0  0
   26.2492  -22.2945  -12.8310 O   0  0  0  0  0  0  0  0  0  0  0  0
   26.9478  -19.2039   -6.9048 C   0  0  0  0  0  0  0  0  0  0  0  0
   26.2525  -19.9902   -8.0177 C   0  0  2  0  0  0  0  0  0  0  0  0
   26.3817  -21.4546   -7.6260 C   0  0  0  0  0  0  0  0  0  0  0  0
   26.9891  -19.8061   -9.3211 C   0  0  0  0  0  0  0  0  0  0  0  0
   26.2660  -20.4616  -10.4940 C   0  0  2  0  0  0  0  0  0  0  0  0
   26.9139  -20.3275  -11.7549 N   0  0  0  0  0  0  0  0  0  0  0  0
   24.8242  -20.2679  -10.4668 C   0  0  0  0  0  0  0  0  0  0  0  0
   24.3359  -19.1126  -10.5908 O   0  0  0  0  0  0  0  0  0  0  0  0
   23.8931  -21.3299  -10.3042 N   0  0  0  0  0  0  0  0  0  0  0  0
   22.4684  -21.1065  -10.4256 C   0  0  1  0  0  0  0  0  0  0  0  0
   21.8844  -21.9112  -11.5798 C   0  0  0  0  0  0  0  0  0  0  0  0
   22.6140  -21.3774  -13.1330 S   0  0  0  0  0  0  0  0  0  0  0  0
   21.7747  -21.4344   -9.1554 C   0  0  0  0  0  0  0  0  0  0  0  0
   20.4153  -21.2709   -9.0087 O   0  0  0  0  0  0  0  0  0  0  0  0
   22.4576  -21.8709   -8.1989 O   0  0  0  0  0  0  0  0  0  0  0  0
  1  5  1  0
  2  1  1  0
  3  4  1  0
  3  2  1  0
  4  5  1  0
  5  6  1  1
  6  7  2  0
  9  8  1  1
  9 10  1  0
  9 11  1  0
 12 11  1  1
 12 13  1  0
 12 14  1  0
 13  6  1  0
 14 16  1  0
 15 14  2  0
 16 17  1  0
 17 20  1  0
 17 18  1  6
 19 18  1  0
 20 22  2  0
 20 21  1  0
M  END
$$$$
