STH.pdb
     RDKit          3D

 24 24  0  0  1  0  0  0  0  0999 V2000
   10.4388  -17.2218   15.8095 O   0  0  0  0  0  0  0  0  0  0  0  0
   10.6409  -16.1304   14.9907 C   0  0  0  0  0  0  0  0  0  0  0  0
    9.6746  -15.0085   15.3205 C   0  0  2  0  0  0  0  0  0  0  0  0
    9.8329  -13.8958   14.4354 N   0  0  0  0  0  0  0  0  0  0  0  0
    9.9697  -14.5929   16.7349 C   0  0  0  0  0  0  0  0  0  0  0  0
   11.0037  -13.9535   17.0114 O   0  0  0  0  0  0  0  0  0  0  0  0
    7.3907  -13.0327   19.1134 C   0  0  0  0  0  0  0  0  0  0  0  0
    7.9995  -14.1935   19.8756 C   0  0  1  0  0  0  0  0  0  0  0  0
    7.0751  -15.2355   19.8293 O   0  0  0  0  0  0  0  0  0  0  0  0
    9.2925  -14.5640   19.1736 C   0  0  2  0  0  0  0  0  0  0  0  0
    9.0793  -14.9169   17.7954 N   0  0  0  0  0  0  0  0  0  0  0  0
    9.8882  -15.6867   19.9445 C   0  0  0  0  0  0  0  0  0  0  0  0
   10.2700  -16.7162   19.3665 O   0  0  0  0  0  0  0  0  0  0  0  0
   10.0005  -15.5332   21.3529 N   0  0  0  0  0  0  0  0  0  0  0  0
   11.0334  -16.2004   22.0877 C   0  0  1  0  0  0  0  0  0  0  0  0
   12.3780  -15.9419   21.4549 C   0  0  0  0  0  0  0  0  0  0  0  0
   13.4950  -16.6163   22.1499 C   0  0  0  0  0  0  0  0  0  0  0  0
   13.3762  -17.6010   23.1119 C   0  0  0  0  0  0  0  0  0  0  0  0
   14.6021  -17.9517   23.4929 N   0  0  0  0  0  0  0  0  0  0  0  0
   15.4893  -17.2213   22.8036 C   0  0  0  0  0  0  0  0  0  0  0  0
   14.8101  -16.4163   21.9936 N   0  0  0  0  0  0  0  0  0  0  0  0
   11.0041  -15.8418   23.5164 C   0  0  0  0  0  0  0  0  0  0  0  0
   10.5944  -14.6813   23.8285 O   0  0  0  0  0  0  0  0  0  0  0  0
   11.4072  -16.7301   24.5066 O   0  0  0  0  0  0  0  0  0  0  0  0
  2  1  1  0
  2  3  1  0
  3  5  1  0
  3  4  1  6
  5  6  2  0
  8  7  1  6
  8 10  1  0
  9  8  1  0
 10 11  1  6
 10 12  1  0
 11  5  1  0
 12 13  2  0
 12 14  1  0
 14 15  1  0
 15 22  1  0
 16 17  1  0
 15 16  1  6
 17 18  2  0
 19 18  1  0
 20 19  1  0
 21 20  2  0
 21 17  1  0
 22 23  2  0
 22 24  1  0
M  END
$$$$
