STH.pdb
     RDKit          3D

 24 24  0  0  1  0  0  0  0  0999 V2000
    7.4717  -13.1550   17.6291 O   0  0  0  0  0  0  0  0  0  0  0  0
    8.6666  -12.7076   17.1051 C   0  0  0  0  0  0  0  0  0  0  0  0
    9.2440  -13.7066   16.1203 C   0  0  2  0  0  0  0  0  0  0  0  0
    8.3013  -14.0507   15.1007 N   0  0  0  0  0  0  0  0  0  0  0  0
    9.6150  -14.9261   16.9174 C   0  0  0  0  0  0  0  0  0  0  0  0
    8.9021  -15.9486   16.8916 O   0  0  0  0  0  0  0  0  0  0  0  0
   12.2210  -17.1512   16.5419 C   0  0  0  0  0  0  0  0  0  0  0  0
   12.5053  -16.6830   17.9557 C   0  0  1  0  0  0  0  0  0  0  0  0
   13.5214  -15.7331   17.8694 O   0  0  0  0  0  0  0  0  0  0  0  0
   11.2226  -16.0793   18.4962 C   0  0  2  0  0  0  0  0  0  0  0  0
   10.7876  -14.9477   17.7218 N   0  0  0  0  0  0  0  0  0  0  0  0
   11.4898  -15.7094   19.9109 C   0  0  0  0  0  0  0  0  0  0  0  0
   12.1611  -14.7021   20.1836 O   0  0  0  0  0  0  0  0  0  0  0  0
   10.9510  -16.5473   20.9246 N   0  0  0  0  0  0  0  0  0  0  0  0
   11.1299  -16.2358   22.3114 C   0  0  1  0  0  0  0  0  0  0  0  0
    9.8380  -16.4338   23.0644 C   0  0  0  0  0  0  0  0  0  0  0  0
    8.7437  -15.5569   22.5963 C   0  0  0  0  0  0  0  0  0  0  0  0
    8.8701  -14.2357   22.2120 C   0  0  0  0  0  0  0  0  0  0  0  0
    7.6654  -13.7948   21.8583 N   0  0  0  0  0  0  0  0  0  0  0  0
    6.7841  -14.7934   22.0068 C   0  0  0  0  0  0  0  0  0  0  0  0
    7.4459  -15.8553   22.4537 N   0  0  0  0  0  0  0  0  0  0  0  0
   12.2477  -16.9938   22.9001 C   0  0  0  0  0  0  0  0  0  0  0  0
   12.8285  -17.8562   22.1715 O   0  0  0  0  0  0  0  0  0  0  0  0
   12.6690  -16.7870   24.2084 O   0  0  0  0  0  0  0  0  0  0  0  0
  2  1  1  0
  2  3  1  0
  3  5  1  0
  3  4  1  6
  5  6  2  0
  8  7  1  6
  8 10  1  0
  9  8  1  0
 10 11  1  6
 10 12  1  0
 11  5  1  0
 12 13  2  0
 12 14  1  0
 14 15  1  0
 15 22  1  0
 16 17  1  0
 15 16  1  1
 17 18  2  0
 19 18  1  0
 20 19  1  0
 21 20  2  0
 21 17  1  0
 22 23  2  0
 22 24  1  0
M  END
$$$$
