STH.pdb
     RDKit          3D

 24 24  0  0  1  0  0  0  0  0999 V2000
   -1.2117  -27.6700   29.0438 O   0  0  0  0  0  0  0  0  0  0  0  0
   -2.3246  -26.8713   28.8824 C   0  0  0  0  0  0  0  0  0  0  0  0
   -2.7166  -26.7625   27.4210 C   0  0  2  0  0  0  0  0  0  0  0  0
   -1.5781  -26.5475   26.5818 N   0  0  0  0  0  0  0  0  0  0  0  0
   -3.6639  -25.5996   27.3187 C   0  0  0  0  0  0  0  0  0  0  0  0
   -3.2368  -24.4299   27.2566 O   0  0  0  0  0  0  0  0  0  0  0  0
   -6.7069  -25.4352   24.9396 C   0  0  0  0  0  0  0  0  0  0  0  0
   -7.2315  -25.1425   26.3318 C   0  0  1  0  0  0  0  0  0  0  0  0
   -7.8243  -26.3159   26.7945 O   0  0  0  0  0  0  0  0  0  0  0  0
   -6.0426  -24.7444   27.1862 C   0  0  2  0  0  0  0  0  0  0  0  0
   -5.0715  -25.8006   27.2898 N   0  0  0  0  0  0  0  0  0  0  0  0
   -6.5842  -24.3608   28.5162 C   0  0  0  0  0  0  0  0  0  0  0  0
   -6.6463  -25.1918   29.4356 O   0  0  0  0  0  0  0  0  0  0  0  0
   -7.0221  -23.0197   28.6882 N   0  0  0  0  0  0  0  0  0  0  0  0
   -7.5911  -22.5826   29.9281 C   0  0  1  0  0  0  0  0  0  0  0  0
   -6.6893  -21.5717   30.5916 C   0  0  0  0  0  0  0  0  0  0  0  0
   -5.5101  -22.1759   31.2473 C   0  0  0  0  0  0  0  0  0  0  0  0
   -5.1653  -23.5138   31.2247 C   0  0  0  0  0  0  0  0  0  0  0  0
   -4.0444  -23.6599   31.9269 N   0  0  0  0  0  0  0  0  0  0  0  0
   -3.6712  -22.4596   32.3912 C   0  0  0  0  0  0  0  0  0  0  0  0
   -4.5641  -21.5680   31.9748 N   0  0  0  0  0  0  0  0  0  0  0  0
   -8.9652  -22.0818   29.7502 C   0  0  0  0  0  0  0  0  0  0  0  0
   -9.3785  -21.8915   28.5649 O   0  0  0  0  0  0  0  0  0  0  0  0
   -9.7987  -21.8198   30.8312 O   0  0  0  0  0  0  0  0  0  0  0  0
  2  1  1  0
  2  3  1  0
  3  5  1  0
  3  4  1  6
  5  6  2  0
  8  7  1  6
  8 10  1  0
  9  8  1  0
 10 11  1  1
 10 12  1  0
 11  5  1  0
 12 13  2  0
 12 14  1  0
 14 15  1  0
 15 22  1  0
 16 17  1  0
 15 16  1  6
 17 18  2  0
 19 18  1  0
 20 19  1  0
 21 20  2  0
 21 17  1  0
 22 23  2  0
 22 24  1  0
M  END
$$$$
