STH.pdb
     RDKit          3D

 24 24  0  0  1  0  0  0  0  0999 V2000
    9.6811  -16.7541   14.8430 O   0  0  0  0  0  0  0  0  0  0  0  0
    8.4216  -16.5353   15.3609 C   0  0  0  0  0  0  0  0  0  0  0  0
    8.1287  -15.0523   15.4878 C   0  0  2  0  0  0  0  0  0  0  0  0
    8.4747  -14.3402   14.2963 N   0  0  0  0  0  0  0  0  0  0  0  0
    8.9462  -14.5534   16.6467 C   0  0  0  0  0  0  0  0  0  0  0  0
   10.0223  -13.9524   16.4589 O   0  0  0  0  0  0  0  0  0  0  0  0
    7.2362  -12.8016   19.6326 C   0  0  0  0  0  0  0  0  0  0  0  0
    8.1907  -13.8163   20.2311 C   0  0  1  0  0  0  0  0  0  0  0  0
    7.4200  -14.9044   20.6371 O   0  0  0  0  0  0  0  0  0  0  0  0
    9.1743  -14.2051   19.1434 C   0  0  2  0  0  0  0  0  0  0  0  0
    8.5159  -14.7526   17.9875 N   0  0  0  0  0  0  0  0  0  0  0  0
   10.1190  -15.1779   19.7523 C   0  0  0  0  0  0  0  0  0  0  0  0
   10.0660  -16.3808   19.4527 O   0  0  0  0  0  0  0  0  0  0  0  0
   11.0730  -14.6785   20.6799 N   0  0  0  0  0  0  0  0  0  0  0  0
   11.9618  -15.5632   21.3723 C   0  0  1  0  0  0  0  0  0  0  0  0
   13.3428  -14.9618   21.4534 C   0  0  0  0  0  0  0  0  0  0  0  0
   14.0434  -14.9193   20.1524 C   0  0  0  0  0  0  0  0  0  0  0  0
   13.6032  -15.4916   18.9742 C   0  0  0  0  0  0  0  0  0  0  0  0
   14.5071  -15.2356   18.0317 N   0  0  0  0  0  0  0  0  0  0  0  0
   15.5018  -14.5214   18.5758 C   0  0  0  0  0  0  0  0  0  0  0  0
   15.2123  -14.3350   19.8592 N   0  0  0  0  0  0  0  0  0  0  0  0
   11.4329  -15.9417   22.6943 C   0  0  0  0  0  0  0  0  0  0  0  0
   12.0586  -16.8298   23.3515 O   0  0  0  0  0  0  0  0  0  0  0  0
   10.2879  -15.3579   23.2236 O   0  0  0  0  0  0  0  0  0  0  0  0
  2  1  1  0
  2  3  1  0
  3  5  1  0
  3  4  1  6
  5  6  2  0
  8  7  1  6
  8 10  1  0
  9  8  1  0
 10 11  1  6
 10 12  1  0
 11  5  1  0
 12 13  2  0
 12 14  1  0
 14 15  1  0
 15 22  1  0
 16 17  1  0
 15 16  1  1
 17 18  2  0
 19 18  1  0
 20 19  1  0
 21 20  2  0
 21 17  1  0
 22 23  2  0
 22 24  1  0
M  END
$$$$
