STH.pdb
     RDKit          3D

 24 24  0  0  1  0  0  0  0  0999 V2000
    5.6068  -18.5417   19.8724 O   0  0  0  0  0  0  0  0  0  0  0  0
    6.7212  -18.5067   19.0604 C   0  0  0  0  0  0  0  0  0  0  0  0
    6.6738  -17.3243   18.1114 C   0  0  2  0  0  0  0  0  0  0  0  0
    6.7341  -17.7399   16.7438 N   0  0  0  0  0  0  0  0  0  0  0  0
    7.8593  -16.4617   18.4446 C   0  0  0  0  0  0  0  0  0  0  0  0
    8.9335  -16.5829   17.8236 O   0  0  0  0  0  0  0  0  0  0  0  0
    7.9930  -12.8608   18.4279 C   0  0  0  0  0  0  0  0  0  0  0  0
    8.4928  -13.1618   19.8274 C   0  0  1  0  0  0  0  0  0  0  0  0
    7.4402  -12.8887   20.6990 O   0  0  0  0  0  0  0  0  0  0  0  0
    8.8785  -14.6288   19.8617 C   0  0  2  0  0  0  0  0  0  0  0  0
    7.7888  -15.4849   19.4758 N   0  0  0  0  0  0  0  0  0  0  0  0
    9.3411  -14.9145   21.2452 C   0  0  0  0  0  0  0  0  0  0  0  0
    8.5401  -14.9046   22.1928 O   0  0  0  0  0  0  0  0  0  0  0  0
   10.7213  -15.1959   21.4341 N   0  0  0  0  0  0  0  0  0  0  0  0
   11.1884  -15.8260   22.6328 C   0  0  1  0  0  0  0  0  0  0  0  0
   10.4202  -17.0985   22.8901 C   0  0  0  0  0  0  0  0  0  0  0  0
   10.8533  -17.8107   24.1110 C   0  0  0  0  0  0  0  0  0  0  0  0
   11.8263  -17.3870   24.9959 C   0  0  0  0  0  0  0  0  0  0  0  0
   11.9260  -18.2971   25.9617 N   0  0  0  0  0  0  0  0  0  0  0  0
   11.0489  -19.2798   25.7154 C   0  0  0  0  0  0  0  0  0  0  0  0
   10.4046  -18.9767   24.5936 N   0  0  0  0  0  0  0  0  0  0  0  0
   12.6452  -16.0431   22.6019 C   0  0  0  0  0  0  0  0  0  0  0  0
   13.2006  -16.1811   21.4685 O   0  0  0  0  0  0  0  0  0  0  0  0
   13.4060  -16.0982   23.7639 O   0  0  0  0  0  0  0  0  0  0  0  0
  2  1  1  0
  2  3  1  0
  3  5  1  0
  3  4  1  6
  5  6  2  0
  8  7  1  6
  8 10  1  0
  9  8  1  0
 10 11  1  1
 10 12  1  0
 11  5  1  0
 12 13  2  0
 12 14  1  0
 14 15  1  0
 15 22  1  0
 16 17  1  0
 15 16  1  6
 17 18  2  0
 19 18  1  0
 20 19  1  0
 21 20  2  0
 21 17  1  0
 22 23  2  0
 22 24  1  0
M  END
$$$$
