STH.pdb
     RDKit          3D

 24 24  0  0  1  0  0  0  0  0999 V2000
   13.9050  -17.3163   20.2761 O   0  0  0  0  0  0  0  0  0  0  0  0
   13.6393  -15.9628   20.2698 C   0  0  0  0  0  0  0  0  0  0  0  0
   12.4394  -15.6415   19.3991 C   0  0  2  0  0  0  0  0  0  0  0  0
   12.8134  -14.8997   18.2345 N   0  0  0  0  0  0  0  0  0  0  0  0
   11.4990  -14.8335   20.2495 C   0  0  0  0  0  0  0  0  0  0  0  0
   11.7670  -13.6556   20.5577 O   0  0  0  0  0  0  0  0  0  0  0  0
    7.7809  -13.9583   19.9794 C   0  0  0  0  0  0  0  0  0  0  0  0
    7.9406  -14.8307   21.2092 C   0  0  1  0  0  0  0  0  0  0  0  0
    7.6080  -16.1295   20.8283 O   0  0  0  0  0  0  0  0  0  0  0  0
    9.3903  -14.7320   21.6458 C   0  0  2  0  0  0  0  0  0  0  0  0
   10.2795  -15.3891   20.7255 N   0  0  0  0  0  0  0  0  0  0  0  0
    9.4662  -15.3270   23.0059 C   0  0  0  0  0  0  0  0  0  0  0  0
   10.4729  -15.9584   23.3629 O   0  0  0  0  0  0  0  0  0  0  0  0
    8.3517  -15.1444   23.8687 N   0  0  0  0  0  0  0  0  0  0  0  0
    8.3369  -15.7105   25.1845 C   0  0  1  0  0  0  0  0  0  0  0  0
    7.1240  -15.2365   25.9459 C   0  0  0  0  0  0  0  0  0  0  0  0
    7.0873  -13.7716   26.1413 C   0  0  0  0  0  0  0  0  0  0  0  0
    8.1794  -12.9547   26.3634 C   0  0  0  0  0  0  0  0  0  0  0  0
    7.7379  -11.7055   26.4884 N   0  0  0  0  0  0  0  0  0  0  0  0
    6.4048  -11.7076   26.3527 C   0  0  0  0  0  0  0  0  0  0  0  0
    6.0204  -12.9621   26.1431 N   0  0  0  0  0  0  0  0  0  0  0  0
    8.4404  -17.1796   25.1466 C   0  0  0  0  0  0  0  0  0  0  0  0
    8.6721  -17.7864   26.2375 O   0  0  0  0  0  0  0  0  0  0  0  0
    8.2923  -17.8977   23.9657 O   0  0  0  0  0  0  0  0  0  0  0  0
  2  1  1  0
  2  3  1  0
  3  5  1  0
  3  4  1  6
  5  6  2  0
  8  7  1  6
  8 10  1  0
  9  8  1  0
 10 11  1  6
 10 12  1  0
 11  5  1  0
 12 13  2  0
 12 14  1  0
 14 15  1  0
 15 22  1  0
 16 17  1  0
 15 16  1  6
 17 18  2  0
 19 18  1  0
 20 19  1  0
 21 20  2  0
 21 17  1  0
 22 23  2  0
 22 24  1  0
M  END
$$$$
