STH.pdb
     RDKit          3D

 24 24  0  0  1  0  0  0  0  0999 V2000
    9.1311  -18.1214   17.3117 O   0  0  0  0  0  0  0  0  0  0  0  0
    9.6376  -17.3259   16.3051 C   0  0  0  0  0  0  0  0  0  0  0  0
    9.0539  -15.9269   16.3629 C   0  0  2  0  0  0  0  0  0  0  0  0
    9.4942  -15.1235   15.2641 N   0  0  0  0  0  0  0  0  0  0  0  0
    9.5133  -15.3261   17.6622 C   0  0  0  0  0  0  0  0  0  0  0  0
   10.6916  -14.9467   17.8105 O   0  0  0  0  0  0  0  0  0  0  0  0
    7.3402  -12.7795   19.7347 C   0  0  0  0  0  0  0  0  0  0  0  0
    7.7875  -13.8849   20.6712 C   0  0  1  0  0  0  0  0  0  0  0  0
    6.7051  -14.7503   20.8197 O   0  0  0  0  0  0  0  0  0  0  0  0
    8.9690  -14.5775   20.0180 C   0  0  2  0  0  0  0  0  0  0  0  0
    8.6183  -15.1740   18.7569 N   0  0  0  0  0  0  0  0  0  0  0  0
    9.4587  -15.5900   20.9898 C   0  0  0  0  0  0  0  0  0  0  0  0
    9.2429  -16.7979   20.8050 O   0  0  0  0  0  0  0  0  0  0  0  0
   10.1752  -15.1224   22.1247 N   0  0  0  0  0  0  0  0  0  0  0  0
   10.7085  -16.0377   23.0890 C   0  0  1  0  0  0  0  0  0  0  0  0
   12.0043  -15.5099   23.6526 C   0  0  0  0  0  0  0  0  0  0  0  0
   13.1583  -15.6945   22.7472 C   0  0  0  0  0  0  0  0  0  0  0  0
   13.1051  -15.7635   21.3681 C   0  0  0  0  0  0  0  0  0  0  0  0
   14.3460  -15.9334   20.9183 N   0  0  0  0  0  0  0  0  0  0  0  0
   15.1792  -15.9738   21.9670 C   0  0  0  0  0  0  0  0  0  0  0  0
   14.4514  -15.8284   23.0692 N   0  0  0  0  0  0  0  0  0  0  0  0
    9.7254  -16.3568   24.1389 C   0  0  0  0  0  0  0  0  0  0  0  0
    8.6542  -15.6762   24.1752 O   0  0  0  0  0  0  0  0  0  0  0  0
    9.9434  -17.3663   25.0691 O   0  0  0  0  0  0  0  0  0  0  0  0
  2  1  1  0
  2  3  1  0
  3  5  1  0
  3  4  1  6
  5  6  2  0
  8  7  1  6
  8 10  1  0
  9  8  1  0
 10 11  1  6
 10 12  1  0
 11  5  1  0
 12 13  2  0
 12 14  1  0
 14 15  1  0
 15 22  1  0
 16 17  1  0
 15 16  1  1
 17 18  2  0
 19 18  1  0
 20 19  1  0
 21 20  2  0
 21 17  1  0
 22 23  2  0
 22 24  1  0
M  END
$$$$
