STH.pdb
     RDKit          3D

 24 24  0  0  1  0  0  0  0  0999 V2000
    6.9017  -12.0138   18.5872 O   0  0  0  0  0  0  0  0  0  0  0  0
    7.5970  -13.1920   18.7626 C   0  0  0  0  0  0  0  0  0  0  0  0
    8.5959  -13.4135   17.6427 C   0  0  2  0  0  0  0  0  0  0  0  0
    7.9448  -13.6942   16.4001 N   0  0  0  0  0  0  0  0  0  0  0  0
    9.4495  -14.5799   18.0565 C   0  0  0  0  0  0  0  0  0  0  0  0
    9.1008  -15.7497   17.8031 O   0  0  0  0  0  0  0  0  0  0  0  0
   12.8785  -15.1107   17.0880 C   0  0  0  0  0  0  0  0  0  0  0  0
   12.9794  -15.2131   18.5974 C   0  0  1  0  0  0  0  0  0  0  0  0
   13.5099  -14.0060   19.0490 O   0  0  0  0  0  0  0  0  0  0  0  0
   11.5760  -15.4382   19.1280 C   0  0  2  0  0  0  0  0  0  0  0  0
   10.6766  -14.3819   18.7476 N   0  0  0  0  0  0  0  0  0  0  0  0
   11.6938  -15.5569   20.6051 C   0  0  0  0  0  0  0  0  0  0  0  0
   11.6734  -14.5449   21.3228 O   0  0  0  0  0  0  0  0  0  0  0  0
   11.8289  -16.8612   21.1532 N   0  0  0  0  0  0  0  0  0  0  0  0
   11.9432  -17.0589   22.5674 C   0  0  1  0  0  0  0  0  0  0  0  0
   11.6151  -18.4870   22.9256 C   0  0  0  0  0  0  0  0  0  0  0  0
   11.6853  -18.7608   24.3766 C   0  0  0  0  0  0  0  0  0  0  0  0
   11.9009  -17.8246   25.3698 C   0  0  0  0  0  0  0  0  0  0  0  0
   11.8958  -18.4595   26.5393 N   0  0  0  0  0  0  0  0  0  0  0  0
   11.6843  -19.7639   26.3168 C   0  0  0  0  0  0  0  0  0  0  0  0
   11.5582  -19.9365   25.0054 N   0  0  0  0  0  0  0  0  0  0  0  0
   13.2628  -16.6400   23.0710 C   0  0  0  0  0  0  0  0  0  0  0  0
   13.4339  -16.6046   24.3286 O   0  0  0  0  0  0  0  0  0  0  0  0
   14.3004  -16.2907   22.2147 O   0  0  0  0  0  0  0  0  0  0  0  0
  2  1  1  0
  2  3  1  0
  3  5  1  0
  3  4  1  6
  5  6  2  0
  8  7  1  6
  8 10  1  0
  9  8  1  0
 10 11  1  1
 10 12  1  0
 11  5  1  0
 12 13  2  0
 12 14  1  0
 14 15  1  0
 15 22  1  0
 16 17  1  0
 15 16  1  6
 17 18  2  0
 19 18  1  0
 20 19  1  0
 21 20  2  0
 21 17  1  0
 22 23  2  0
 22 24  1  0
M  END
$$$$
