STH.pdb
     RDKit          3D

 24 24  0  0  1  0  0  0  0  0999 V2000
    9.4509  -19.3166   20.2089 O   0  0  0  0  0  0  0  0  0  0  0  0
    8.4441  -18.8505   19.3893 C   0  0  0  0  0  0  0  0  0  0  0  0
    8.8509  -17.5649   18.6944 C   0  0  2  0  0  0  0  0  0  0  0  0
    9.9339  -17.7749   17.7836 N   0  0  0  0  0  0  0  0  0  0  0  0
    9.2615  -16.6060   19.7771 C   0  0  0  0  0  0  0  0  0  0  0  0
   10.4501  -16.5272   20.1449 O   0  0  0  0  0  0  0  0  0  0  0  0
    7.4582  -12.9606   20.3877 C   0  0  0  0  0  0  0  0  0  0  0  0
    7.5167  -13.7993   21.6495 C   0  0  1  0  0  0  0  0  0  0  0  0
    6.2697  -14.4060   21.7887 O   0  0  0  0  0  0  0  0  0  0  0  0
    8.6173  -14.8257   21.4570 C   0  0  2  0  0  0  0  0  0  0  0  0
    8.3073  -15.7633   20.4110 N   0  0  0  0  0  0  0  0  0  0  0  0
    8.8015  -15.5026   22.7675 C   0  0  0  0  0  0  0  0  0  0  0  0
    8.3638  -16.6488   22.9525 O   0  0  0  0  0  0  0  0  0  0  0  0
    9.4909  -14.7907   23.7863 N   0  0  0  0  0  0  0  0  0  0  0  0
    9.4965  -15.2602   25.1397 C   0  0  1  0  0  0  0  0  0  0  0  0
    8.0901  -15.3123   25.6826 C   0  0  0  0  0  0  0  0  0  0  0  0
    7.4796  -13.9782   25.8643 C   0  0  0  0  0  0  0  0  0  0  0  0
    8.0882  -12.8784   26.4382 C   0  0  0  0  0  0  0  0  0  0  0  0
    7.2177  -11.8720   26.4190 N   0  0  0  0  0  0  0  0  0  0  0  0
    6.0813  -12.3004   25.8525 C   0  0  0  0  0  0  0  0  0  0  0  0
    6.2494  -13.5758   25.5202 N   0  0  0  0  0  0  0  0  0  0  0  0
   10.1980  -16.5495   25.2661 C   0  0  0  0  0  0  0  0  0  0  0  0
   10.2805  -17.0692   26.4216 O   0  0  0  0  0  0  0  0  0  0  0  0
   10.7583  -17.1932   24.1690 O   0  0  0  0  0  0  0  0  0  0  0  0
  2  1  1  0
  2  3  1  0
  3  5  1  0
  3  4  1  6
  5  6  2  0
  8  7  1  6
  8 10  1  0
  9  8  1  0
 10 11  1  6
 10 12  1  0
 11  5  1  0
 12 13  2  0
 12 14  1  0
 14 15  1  0
 15 22  1  0
 16 17  1  0
 15 16  1  6
 17 18  2  0
 19 18  1  0
 20 19  1  0
 21 20  2  0
 21 17  1  0
 22 23  2  0
 22 24  1  0
M  END
$$$$
