STH.pdb
     RDKit          3D

 24 24  0  0  1  0  0  0  0  0999 V2000
   11.6451  -16.7321   13.4686 O   0  0  0  0  0  0  0  0  0  0  0  0
   10.6563  -16.3831   14.3647 C   0  0  0  0  0  0  0  0  0  0  0  0
    9.6862  -17.5279   14.5872 C   0  0  2  0  0  0  0  0  0  0  0  0
    8.6317  -17.5242   13.6204 N   0  0  0  0  0  0  0  0  0  0  0  0
    9.1236  -17.3479   15.9698 C   0  0  0  0  0  0  0  0  0  0  0  0
    8.1571  -16.5871   16.1732 O   0  0  0  0  0  0  0  0  0  0  0  0
    8.2536  -20.3189   18.1469 C   0  0  0  0  0  0  0  0  0  0  0  0
    9.1134  -19.4292   19.0233 C   0  0  1  0  0  0  0  0  0  0  0  0
   10.3928  -19.9820   19.0271 O   0  0  0  0  0  0  0  0  0  0  0  0
    9.1065  -18.0446   18.4031 C   0  0  2  0  0  0  0  0  0  0  0  0
    9.6770  -18.0393   17.0825 N   0  0  0  0  0  0  0  0  0  0  0  0
    9.8570  -17.1590   19.3316 C   0  0  0  0  0  0  0  0  0  0  0  0
   11.0239  -16.8225   19.0772 O   0  0  0  0  0  0  0  0  0  0  0  0
    9.1903  -16.7198   20.5074 N   0  0  0  0  0  0  0  0  0  0  0  0
    9.8558  -15.8893   21.4662 C   0  0  1  0  0  0  0  0  0  0  0  0
    9.0271  -14.6648   21.7645 C   0  0  0  0  0  0  0  0  0  0  0  0
    8.7021  -13.8671   20.5630 C   0  0  0  0  0  0  0  0  0  0  0  0
    9.5363  -12.9563   19.9433 C   0  0  0  0  0  0  0  0  0  0  0  0
    8.8848  -12.4478   18.9003 N   0  0  0  0  0  0  0  0  0  0  0  0
    7.6686  -13.0072   18.8417 C   0  0  0  0  0  0  0  0  0  0  0  0
    7.5673  -13.8645   19.8517 N   0  0  0  0  0  0  0  0  0  0  0  0
   10.2116  -16.6397   22.6831 C   0  0  0  0  0  0  0  0  0  0  0  0
    9.7160  -17.7992   22.8311 O   0  0  0  0  0  0  0  0  0  0  0  0
   11.0605  -16.1142   23.6501 O   0  0  0  0  0  0  0  0  0  0  0  0
  2  1  1  0
  2  3  1  0
  3  5  1  0
  3  4  1  6
  5  6  2  0
  8  7  1  6
  8 10  1  0
  9  8  1  0
 10 11  1  6
 10 12  1  0
 11  5  1  0
 12 13  2  0
 12 14  1  0
 14 15  1  0
 15 22  1  0
 16 17  1  0
 15 16  1  1
 17 18  2  0
 19 18  1  0
 20 19  1  0
 21 20  2  0
 21 17  1  0
 22 23  2  0
 22 24  1  0
M  END
$$$$
