WFT.pdb
     RDKit          3D

 33 35  0  0  1  0  0  0  0  0999 V2000
    6.3413  -17.4077   20.5250 N   0  0  0  0  0  0  0  0  0  0  0  0
    5.9943  -17.5486   21.9162 C   0  0  1  0  0  0  0  0  0  0  0  0
    5.8440  -19.0298   22.2084 C   0  0  0  0  0  0  0  0  0  0  0  0
    4.6331  -19.5583   21.5285 C   0  0  0  0  0  0  0  0  0  0  0  0
    4.5820  -20.3880   20.4209 C   0  0  0  0  0  0  0  0  0  0  0  0
    3.3078  -20.6273   20.1413 N   0  0  0  0  0  0  0  0  0  0  0  0
    2.4960  -19.9846   21.0251 C   0  0  0  0  0  0  0  0  0  0  0  0
    1.1229  -19.9272   21.1361 C   0  0  0  0  0  0  0  0  0  0  0  0
    0.5292  -19.1927   22.1273 C   0  0  0  0  0  0  0  0  0  0  0  0
    1.3525  -18.5169   23.0053 C   0  0  0  0  0  0  0  0  0  0  0  0
    2.7203  -18.5733   22.8969 C   0  0  0  0  0  0  0  0  0  0  0  0
    3.3426  -19.3184   21.8896 C   0  0  0  0  0  0  0  0  0  0  0  0
    6.9493  -16.8485   22.7862 C   0  0  0  0  0  0  0  0  0  0  0  0
    8.1594  -16.6709   22.4330 O   0  0  0  0  0  0  0  0  0  0  0  0
    6.6328  -16.3161   24.0820 N   0  0  0  0  0  0  0  0  0  0  0  0
    7.6110  -15.7602   24.9240 C   0  0  1  0  0  0  0  0  0  0  0  0
    7.0623  -15.0620   26.1573 C   0  0  0  0  0  0  0  0  0  0  0  0
    8.1615  -14.4623   26.9560 C   0  0  0  0  0  0  0  0  0  0  0  0
    8.7401  -15.2892   27.9166 C   0  0  0  0  0  0  0  0  0  0  0  0
    9.7600  -14.8383   28.6957 C   0  0  0  0  0  0  0  0  0  0  0  0
   10.2005  -13.5427   28.5031 C   0  0  0  0  0  0  0  0  0  0  0  0
    9.6347  -12.7211   27.5548 C   0  0  0  0  0  0  0  0  0  0  0  0
    8.6013  -13.1724   26.7649 C   0  0  0  0  0  0  0  0  0  0  0  0
    8.7765  -16.5651   25.2827 C   0  0  0  0  0  0  0  0  0  0  0  0
    8.5674  -17.6254   25.9654 O   0  0  0  0  0  0  0  0  0  0  0  0
   10.9418  -17.9954   22.7098 C   0  0  0  0  0  0  0  0  0  0  0  0
   11.8803  -17.6074   23.8099 C   0  0  1  0  0  0  0  0  0  0  0  0
   12.5830  -16.4700   23.4289 O   0  0  0  0  0  0  0  0  0  0  0  0
   11.1361  -17.3740   25.0747 C   0  0  2  0  0  0  0  0  0  0  0  0
   10.1347  -16.3114   24.9630 N   0  0  0  0  0  0  0  0  0  0  0  0
   12.0223  -17.1158   26.2569 C   0  0  0  0  0  0  0  0  0  0  0  0
   11.9930  -16.0297   26.8829 O   0  0  0  0  0  0  0  0  0  0  0  0
   12.9349  -18.0473   26.7409 O   0  0  0  0  0  0  0  0  0  0  0  0
  2  1  1  6
  2  3  1  0
  3  4  1  0
  4  5  2  0
  5  6  1  0
  7  6  1  0
  8  7  2  0
  9  8  1  0
 10 11  1  0
 10  9  2  0
 11 12  2  0
 12  4  1  0
 12  7  1  0
 13  2  1  0
 13 14  2  0
 15 13  1  0
 16 15  1  0
 16 17  1  1
 18 23  1  0
 18 17  1  0
 19 18  2  0
 20 21  2  0
 20 19  1  0
 21 22  1  0
 22 23  2  0
 24 16  1  0
 25 24  2  0
 27 26  1  6
 27 28  1  0
 29 30  1  6
 29 27  1  0
 30 24  1  0
 31 29  1  0
 32 31  2  0
 33 31  1  0
M  END
$$$$
