WFT.pdb
     RDKit          3D

 33 35  0  0  1  0  0  0  0  0999 V2000
    4.9381  -20.3620   23.6551 N   0  0  0  0  0  0  0  0  0  0  0  0
    6.0085  -19.8013   24.4397 C   0  0  1  0  0  0  0  0  0  0  0  0
    7.2588  -20.6163   24.1670 C   0  0  0  0  0  0  0  0  0  0  0  0
    7.7083  -21.2846   25.4157 C   0  0  0  0  0  0  0  0  0  0  0  0
    8.0991  -22.6039   25.5728 C   0  0  0  0  0  0  0  0  0  0  0  0
    8.4305  -22.7889   26.8436 N   0  0  0  0  0  0  0  0  0  0  0  0
    8.2752  -21.6360   27.5505 C   0  0  0  0  0  0  0  0  0  0  0  0
    8.4840  -21.3397   28.8807 C   0  0  0  0  0  0  0  0  0  0  0  0
    8.2457  -20.0815   29.3651 C   0  0  0  0  0  0  0  0  0  0  0  0
    7.7918  -19.1276   28.4765 C   0  0  0  0  0  0  0  0  0  0  0  0
    7.5839  -19.4206   27.1510 C   0  0  0  0  0  0  0  0  0  0  0  0
    7.8218  -20.7011   26.6405 C   0  0  0  0  0  0  0  0  0  0  0  0
    6.1561  -18.3588   24.2021 C   0  0  0  0  0  0  0  0  0  0  0  0
    6.4787  -17.9062   23.0568 O   0  0  0  0  0  0  0  0  0  0  0  0
    5.9660  -17.3444   25.2009 N   0  0  0  0  0  0  0  0  0  0  0  0
    6.6043  -16.0944   25.1317 C   0  0  1  0  0  0  0  0  0  0  0  0
    6.2099  -15.1203   26.2294 C   0  0  0  0  0  0  0  0  0  0  0  0
    6.8592  -13.8009   26.0212 C   0  0  0  0  0  0  0  0  0  0  0  0
    6.4189  -13.0705   24.9194 C   0  0  0  0  0  0  0  0  0  0  0  0
    6.9442  -11.8460   24.6448 C   0  0  0  0  0  0  0  0  0  0  0  0
    7.9210  -11.3541   25.4895 C   0  0  0  0  0  0  0  0  0  0  0  0
    8.3593  -12.0696   26.5807 C   0  0  0  0  0  0  0  0  0  0  0  0
    7.8317  -13.3098   26.8618 C   0  0  0  0  0  0  0  0  0  0  0  0
    8.0491  -16.0484   24.9185 C   0  0  0  0  0  0  0  0  0  0  0  0
    8.7798  -16.7324   25.7138 O   0  0  0  0  0  0  0  0  0  0  0  0
   11.7659  -15.8495   21.7092 C   0  0  0  0  0  0  0  0  0  0  0  0
   10.3741  -15.4349   22.0731 C   0  0  1  0  0  0  0  0  0  0  0  0
    9.4733  -16.0728   21.2279 O   0  0  0  0  0  0  0  0  0  0  0  0
   10.0874  -15.7554   23.4954 C   0  0  2  0  0  0  0  0  0  0  0  0
    8.7542  -15.3259   23.9225 N   0  0  0  0  0  0  0  0  0  0  0  0
   11.1199  -15.2352   24.4508 C   0  0  0  0  0  0  0  0  0  0  0  0
   10.8311  -14.4233   25.3617 O   0  0  0  0  0  0  0  0  0  0  0  0
   12.4597  -15.6056   24.3981 O   0  0  0  0  0  0  0  0  0  0  0  0
  2  1  1  6
  2  3  1  0
  3  4  1  0
  4  5  2  0
  5  6  1  0
  7  6  1  0
  8  7  2  0
  9  8  1  0
 10 11  1  0
 10  9  2  0
 11 12  2  0
 12  4  1  0
 12  7  1  0
 13  2  1  0
 13 14  2  0
 15 13  1  0
 16 15  1  0
 16 17  1  1
 18 23  1  0
 18 17  1  0
 19 18  2  0
 20 21  2  0
 20 19  1  0
 21 22  1  0
 22 23  2  0
 24 16  1  0
 25 24  2  0
 27 26  1  6
 27 28  1  0
 29 30  1  1
 29 27  1  0
 30 24  1  0
 31 29  1  0
 32 31  2  0
 33 31  1  0
M  END
$$$$
