WFT.pdb
     RDKit          3D

 33 35  0  0  1  0  0  0  0  0999 V2000
   10.3405  -15.7817   21.4367 N   0  0  0  0  0  0  0  0  0  0  0  0
    9.1461  -15.5446   22.2066 C   0  0  1  0  0  0  0  0  0  0  0  0
    8.0155  -16.3218   21.5587 C   0  0  0  0  0  0  0  0  0  0  0  0
    7.6982  -15.7380   20.2296 C   0  0  0  0  0  0  0  0  0  0  0  0
    7.2827  -16.4084   19.0913 C   0  0  0  0  0  0  0  0  0  0  0  0
    7.1024  -15.5153   18.1275 N   0  0  0  0  0  0  0  0  0  0  0  0
    7.3837  -14.2622   18.5788 C   0  0  0  0  0  0  0  0  0  0  0  0
    7.3494  -13.0329   17.9556 C   0  0  0  0  0  0  0  0  0  0  0  0
    7.6896  -11.8929   18.6332 C   0  0  0  0  0  0  0  0  0  0  0  0
    8.0654  -12.0208   19.9553 C   0  0  0  0  0  0  0  0  0  0  0  0
    8.0995  -13.2443   20.5781 C   0  0  0  0  0  0  0  0  0  0  0  0
    7.7558  -14.4185   19.8998 C   0  0  0  0  0  0  0  0  0  0  0  0
    9.3522  -15.8402   23.6311 C   0  0  0  0  0  0  0  0  0  0  0  0
   10.5169  -16.0423   24.1035 O   0  0  0  0  0  0  0  0  0  0  0  0
    8.3004  -15.9358   24.6044 N   0  0  0  0  0  0  0  0  0  0  0  0
    8.5566  -16.1787   25.9646 C   0  0  1  0  0  0  0  0  0  0  0  0
    7.4737  -15.6871   26.9107 C   0  0  0  0  0  0  0  0  0  0  0  0
    7.2382  -14.2318   26.7311 C   0  0  0  0  0  0  0  0  0  0  0  0
    8.1198  -13.3835   27.3977 C   0  0  0  0  0  0  0  0  0  0  0  0
    7.9954  -12.0329   27.2923 C   0  0  0  0  0  0  0  0  0  0  0  0
    6.9736  -11.5343   26.5068 C   0  0  0  0  0  0  0  0  0  0  0  0
    6.1003  -12.3665   25.8440 C   0  0  0  0  0  0  0  0  0  0  0  0
    6.2214  -13.7340   25.9488 C   0  0  0  0  0  0  0  0  0  0  0  0
    9.0120  -17.5057   26.3730 C   0  0  0  0  0  0  0  0  0  0  0  0
    8.1142  -18.3771   26.6354 O   0  0  0  0  0  0  0  0  0  0  0  0
   11.3027  -19.9303   24.5614 C   0  0  0  0  0  0  0  0  0  0  0  0
   11.7017  -19.9456   26.0043 C   0  0  1  0  0  0  0  0  0  0  0  0
   12.8966  -19.2510   26.1537 O   0  0  0  0  0  0  0  0  0  0  0  0
   10.6327  -19.3528   26.8493 C   0  0  2  0  0  0  0  0  0  0  0  0
   10.3493  -17.9548   26.5181 N   0  0  0  0  0  0  0  0  0  0  0  0
   10.8845  -19.4859   28.3218 C   0  0  0  0  0  0  0  0  0  0  0  0
   10.9771  -18.4853   29.0718 O   0  0  0  0  0  0  0  0  0  0  0  0
   11.0364  -20.7129   28.9593 O   0  0  0  0  0  0  0  0  0  0  0  0
  2  1  1  6
  2  3  1  0
  3  4  1  0
  4  5  2  0
  5  6  1  0
  7  6  1  0
  8  7  2  0
  9  8  1  0
 10 11  1  0
 10  9  2  0
 11 12  2  0
 12  4  1  0
 12  7  1  0
 13  2  1  0
 13 14  2  0
 15 13  1  0
 16 15  1  0
 16 17  1  1
 18 23  1  0
 18 17  1  0
 19 18  2  0
 20 21  2  0
 20 19  1  0
 21 22  1  0
 22 23  2  0
 24 16  1  0
 25 24  2  0
 27 26  1  6
 27 28  1  0
 29 30  1  6
 29 27  1  0
 30 24  1  0
 31 29  1  0
 32 31  2  0
 33 31  1  0
M  END
$$$$
