WFT.pdb
     RDKit          3D

 33 35  0  0  1  0  0  0  0  0999 V2000
    6.3773  -18.3300   24.0080 N   0  0  0  0  0  0  0  0  0  0  0  0
    7.1313  -17.1127   23.8493 C   0  0  1  0  0  0  0  0  0  0  0  0
    7.6893  -16.7330   25.2082 C   0  0  0  0  0  0  0  0  0  0  0  0
    6.9760  -15.5389   25.7312 C   0  0  0  0  0  0  0  0  0  0  0  0
    5.6337  -15.4328   26.0549 C   0  0  0  0  0  0  0  0  0  0  0  0
    5.4093  -14.2008   26.4916 N   0  0  0  0  0  0  0  0  0  0  0  0
    6.5581  -13.4706   26.4726 C   0  0  0  0  0  0  0  0  0  0  0  0
    6.8205  -12.1630   26.8220 C   0  0  0  0  0  0  0  0  0  0  0  0
    8.0827  -11.6455   26.7060 C   0  0  0  0  0  0  0  0  0  0  0  0
    9.0756  -12.4777   26.2294 C   0  0  0  0  0  0  0  0  0  0  0  0
    8.8164  -13.7807   25.8815 C   0  0  0  0  0  0  0  0  0  0  0  0
    7.5323  -14.3244   25.9933 C   0  0  0  0  0  0  0  0  0  0  0  0
    8.1398  -17.2347   22.7877 C   0  0  0  0  0  0  0  0  0  0  0  0
    8.6348  -18.3641   22.4715 O   0  0  0  0  0  0  0  0  0  0  0  0
    8.6600  -16.1331   22.0270 N   0  0  0  0  0  0  0  0  0  0  0  0
    9.8711  -16.2157   21.3190 C   0  0  1  0  0  0  0  0  0  0  0  0
   10.1896  -14.9998   20.4649 C   0  0  0  0  0  0  0  0  0  0  0  0
    8.9660  -14.1957   20.2161 C   0  0  0  0  0  0  0  0  0  0  0  0
    8.8878  -12.9782   20.8889 C   0  0  0  0  0  0  0  0  0  0  0  0
    7.8115  -12.1627   20.7236 C   0  0  0  0  0  0  0  0  0  0  0  0
    6.8064  -12.5789   19.8714 C   0  0  0  0  0  0  0  0  0  0  0  0
    6.8780  -13.7795   19.2022 C   0  0  0  0  0  0  0  0  0  0  0  0
    7.9646  -14.6088   19.3674 C   0  0  0  0  0  0  0  0  0  0  0  0
   11.0724  -16.6614   22.0213 C   0  0  0  0  0  0  0  0  0  0  0  0
   12.1914  -16.5056   21.4230 O   0  0  0  0  0  0  0  0  0  0  0  0
   13.7428  -18.1566   25.8997 C   0  0  0  0  0  0  0  0  0  0  0  0
   12.3956  -17.7830   25.3639 C   0  0  1  0  0  0  0  0  0  0  0  0
   11.9561  -16.6285   26.0015 O   0  0  0  0  0  0  0  0  0  0  0  0
   12.4534  -17.5884   23.8918 C   0  0  2  0  0  0  0  0  0  0  0  0
   11.1530  -17.2567   23.3059 N   0  0  0  0  0  0  0  0  0  0  0  0
   13.0641  -18.7429   23.1544 C   0  0  0  0  0  0  0  0  0  0  0  0
   12.3650  -19.6622   22.6660 O   0  0  0  0  0  0  0  0  0  0  0  0
   14.4346  -18.8824   22.9615 O   0  0  0  0  0  0  0  0  0  0  0  0
  2  1  1  1
  2  3  1  0
  3  4  1  0
  4  5  2  0
  5  6  1  0
  7  6  1  0
  8  7  2  0
  9  8  1  0
 10 11  1  0
 10  9  2  0
 11 12  2  0
 12  4  1  0
 12  7  1  0
 13  2  1  0
 13 14  2  0
 15 13  1  0
 16 15  1  0
 16 17  1  1
 18 23  1  0
 18 17  1  0
 19 18  2  0
 20 21  2  0
 20 19  1  0
 21 22  1  0
 22 23  2  0
 24 16  1  0
 25 24  2  0
 27 26  1  1
 27 28  1  0
 29 30  1  6
 29 27  1  0
 30 24  1  0
 31 29  1  0
 32 31  2  0
 33 31  1  0
M  END
$$$$
