WFT.pdb
     RDKit          3D

 33 35  0  0  1  0  0  0  0  0999 V2000
    7.9814  -16.4914   22.2567 N   0  0  0  0  0  0  0  0  0  0  0  0
    8.9968  -15.5352   22.6175 C   0  0  1  0  0  0  0  0  0  0  0  0
    8.4643  -14.1510   22.2978 C   0  0  0  0  0  0  0  0  0  0  0  0
    7.8417  -14.1488   20.9486 C   0  0  0  0  0  0  0  0  0  0  0  0
    6.5844  -14.6126   20.5990 C   0  0  0  0  0  0  0  0  0  0  0  0
    6.4186  -14.4180   19.2976 N   0  0  0  0  0  0  0  0  0  0  0  0
    7.5248  -13.8378   18.7565 C   0  0  0  0  0  0  0  0  0  0  0  0
    7.8221  -13.4544   17.4660 C   0  0  0  0  0  0  0  0  0  0  0  0
    9.0299  -12.8852   17.1637 C   0  0  0  0  0  0  0  0  0  0  0  0
    9.9322  -12.7107   18.1938 C   0  0  0  0  0  0  0  0  0  0  0  0
    9.6378  -13.0912   19.4800 C   0  0  0  0  0  0  0  0  0  0  0  0
    8.4087  -13.6749   19.8053 C   0  0  0  0  0  0  0  0  0  0  0  0
    9.4389  -15.7131   24.0075 C   0  0  0  0  0  0  0  0  0  0  0  0
   10.6331  -15.4500   24.3612 O   0  0  0  0  0  0  0  0  0  0  0  0
    8.6038  -16.1913   25.0737 N   0  0  0  0  0  0  0  0  0  0  0  0
    9.0557  -16.2726   26.4018 C   0  0  1  0  0  0  0  0  0  0  0  0
    8.1084  -15.6778   27.4307 C   0  0  0  0  0  0  0  0  0  0  0  0
    7.6165  -14.3484   26.9873 C   0  0  0  0  0  0  0  0  0  0  0  0
    6.3553  -14.3300   26.3955 C   0  0  0  0  0  0  0  0  0  0  0  0
    5.8101  -13.1615   25.9620 C   0  0  0  0  0  0  0  0  0  0  0  0
    6.5432  -12.0019   26.1280 C   0  0  0  0  0  0  0  0  0  0  0  0
    7.7889  -12.0126   26.7133 C   0  0  0  0  0  0  0  0  0  0  0  0
    8.3454  -13.1930   27.1523 C   0  0  0  0  0  0  0  0  0  0  0  0
    9.5915  -17.5410   26.8907 C   0  0  0  0  0  0  0  0  0  0  0  0
    9.9837  -17.5804   28.1068 O   0  0  0  0  0  0  0  0  0  0  0  0
   10.0196  -21.2797   24.8111 C   0  0  0  0  0  0  0  0  0  0  0  0
   11.2142  -20.4978   25.2619 C   0  0  1  0  0  0  0  0  0  0  0  0
   11.6826  -19.7302   24.2017 O   0  0  0  0  0  0  0  0  0  0  0  0
   10.8705  -19.6421   26.4270 C   0  0  2  0  0  0  0  0  0  0  0  0
    9.7340  -18.7548   26.1713 N   0  0  0  0  0  0  0  0  0  0  0  0
   12.0282  -18.8472   26.9538 C   0  0  0  0  0  0  0  0  0  0  0  0
   12.1207  -17.6100   26.7716 O   0  0  0  0  0  0  0  0  0  0  0  0
   13.0758  -19.4142   27.6720 O   0  0  0  0  0  0  0  0  0  0  0  0
  2  1  1  1
  2  3  1  0
  3  4  1  0
  4  5  2  0
  5  6  1  0
  7  6  1  0
  8  7  2  0
  9  8  1  0
 10 11  1  0
 10  9  2  0
 11 12  2  0
 12  4  1  0
 12  7  1  0
 13  2  1  0
 13 14  2  0
 15 13  1  0
 16 15  1  0
 16 17  1  1
 18 23  1  0
 18 17  1  0
 19 18  2  0
 20 21  2  0
 20 19  1  0
 21 22  1  0
 22 23  2  0
 24 16  1  0
 25 24  2  0
 27 26  1  6
 27 28  1  0
 29 30  1  6
 29 27  1  0
 30 24  1  0
 31 29  1  0
 32 31  2  0
 33 31  1  0
M  END
$$$$
