LVH.pdb
     RDKit          3D

 26 26  0  0  1  0  0  0  0  0999 V2000
   27.9329  -14.9998  -15.6192 C   0  0  0  0  0  0  0  0  0  0  0  0
   26.9349  -14.4715  -16.5955 C   0  0  1  0  0  0  0  0  0  0  0  0
   26.7764  -15.5031  -17.7129 C   0  0  0  0  0  0  0  0  0  0  0  0
   25.5576  -14.2906  -15.9944 C   0  0  0  0  0  0  0  0  0  0  0  0
   24.5668  -13.7990  -17.0532 C   0  0  2  0  0  0  0  0  0  0  0  0
   24.8820  -12.4290  -17.3920 N   0  0  0  0  0  0  0  0  0  0  0  0
   23.2253  -13.8294  -16.4208 C   0  0  0  0  0  0  0  0  0  0  0  0
   22.9571  -12.9755  -15.5414 O   0  0  0  0  0  0  0  0  0  0  0  0
   18.5598  -14.0427  -16.5612 C   0  0  0  0  0  0  0  0  0  0  0  0
   19.9471  -14.1062  -17.0904 C   0  0  2  0  0  0  0  0  0  0  0  0
   19.9719  -14.8609  -18.4047 C   0  0  0  0  0  0  0  0  0  0  0  0
   20.9290  -14.6741  -16.0989 C   0  0  2  0  0  0  0  0  0  0  0  0
   22.2379  -14.7810  -16.7690 N   0  0  0  0  0  0  0  0  0  0  0  0
   20.5396  -15.9904  -15.5540 C   0  0  0  0  0  0  0  0  0  0  0  0
   20.6238  -17.0176  -16.3286 O   0  0  0  0  0  0  0  0  0  0  0  0
   20.0785  -16.2731  -14.2601 N   0  0  0  0  0  0  0  0  0  0  0  0
   19.6199  -17.6058  -13.8544 C   0  0  1  0  0  0  0  0  0  0  0  0
   19.6049  -17.7333  -12.3499 C   0  0  0  0  0  0  0  0  0  0  0  0
   19.1046  -19.0427  -11.8830 C   0  0  0  0  0  0  0  0  0  0  0  0
   18.6753  -20.1052  -12.6305 C   0  0  0  0  0  0  0  0  0  0  0  0
   18.2967  -21.1232  -11.8033 N   0  0  0  0  0  0  0  0  0  0  0  0
   18.5007  -20.6656  -10.5759 C   0  0  0  0  0  0  0  0  0  0  0  0
   18.9872  -19.4143  -10.5990 N   0  0  0  0  0  0  0  0  0  0  0  0
   18.3379  -17.9416  -14.4859 C   0  0  0  0  0  0  0  0  0  0  0  0
   18.0695  -19.1842  -15.0326 O   0  0  0  0  0  0  0  0  0  0  0  0
   17.4354  -17.0714  -14.5391 O   0  0  0  0  0  0  0  0  0  0  0  0
  2  1  1  1
  3  2  1  0
  4  5  1  0
  4  2  1  0
  5  6  1  1
  7 13  1  0
  7  5  1  0
  8  7  2  0
 10  9  1  1
 10 12  1  0
 11 10  1  0
 12 14  1  0
 12 13  1  6
 14 16  1  0
 15 14  2  0
 16 17  1  0
 17 24  1  0
 17 18  1  1
 19 18  1  0
 20 19  2  0
 21 22  1  0
 21 20  1  0
 22 23  2  0
 23 19  1  0
 24 26  2  0
 24 25  1  0
M  END
$$$$
