LVH.pdb
     RDKit          3D

 26 26  0  0  1  0  0  0  0  0999 V2000
   27.2774  -17.0789  -17.4555 C   0  0  0  0  0  0  0  0  0  0  0  0
   27.8745  -18.1614  -16.6188 C   0  0  1  0  0  0  0  0  0  0  0  0
   28.7469  -17.5037  -15.5489 C   0  0  0  0  0  0  0  0  0  0  0  0
   26.8373  -18.9727  -15.8724 C   0  0  0  0  0  0  0  0  0  0  0  0
   27.5104  -20.0106  -14.9702 C   0  0  2  0  0  0  0  0  0  0  0  0
   28.2332  -20.9527  -15.7954 N   0  0  0  0  0  0  0  0  0  0  0  0
   26.4187  -20.7359  -14.2756 C   0  0  0  0  0  0  0  0  0  0  0  0
   25.9316  -21.7542  -14.8235 O   0  0  0  0  0  0  0  0  0  0  0  0
   24.8537  -19.9032  -10.2559 C   0  0  0  0  0  0  0  0  0  0  0  0
   25.1404  -21.2050  -10.9132 C   0  0  2  0  0  0  0  0  0  0  0  0
   26.5523  -21.6534  -10.5926 C   0  0  0  0  0  0  0  0  0  0  0  0
   24.8820  -21.1835  -12.3972 C   0  0  2  0  0  0  0  0  0  0  0  0
   25.9057  -20.3263  -13.0223 N   0  0  0  0  0  0  0  0  0  0  0  0
   23.5357  -20.7010  -12.7660 C   0  0  0  0  0  0  0  0  0  0  0  0
   23.3282  -19.4286  -12.7766 O   0  0  0  0  0  0  0  0  0  0  0  0
   22.4215  -21.4757  -13.1195 N   0  0  0  0  0  0  0  0  0  0  0  0
   21.1282  -20.8868  -13.4825 C   0  0  1  0  0  0  0  0  0  0  0  0
   20.6649  -21.3958  -14.8265 C   0  0  0  0  0  0  0  0  0  0  0  0
   21.4096  -20.8075  -15.9587 C   0  0  0  0  0  0  0  0  0  0  0  0
   22.3680  -19.8313  -15.9311 C   0  0  0  0  0  0  0  0  0  0  0  0
   22.8014  -19.5801  -17.2012 N   0  0  0  0  0  0  0  0  0  0  0  0
   22.1043  -20.4016  -17.9735 C   0  0  0  0  0  0  0  0  0  0  0  0
   21.2594  -21.1509  -17.2471 N   0  0  0  0  0  0  0  0  0  0  0  0
   20.1411  -21.0711  -12.4117 C   0  0  0  0  0  0  0  0  0  0  0  0
   18.9479  -20.3723  -12.3579 O   0  0  0  0  0  0  0  0  0  0  0  0
   20.3776  -21.8969  -11.4970 O   0  0  0  0  0  0  0  0  0  0  0  0
  2  1  1  1
  3  2  1  0
  4  5  1  0
  4  2  1  0
  5  6  1  6
  7 13  1  0
  7  5  1  0
  8  7  2  0
 10  9  1  6
 10 12  1  0
 11 10  1  0
 12 14  1  0
 12 13  1  6
 14 16  1  0
 15 14  2  0
 16 17  1  0
 17 24  1  0
 17 18  1  6
 19 18  1  0
 20 19  2  0
 21 22  1  0
 21 20  1  0
 22 23  2  0
 23 19  1  0
 24 26  2  0
 24 25  1  0
M  END
$$$$
