LVH.pdb
     RDKit          3D

 26 26  0  0  1  0  0  0  0  0999 V2000
   28.3927  -18.7665   -5.9908 C   0  0  0  0  0  0  0  0  0  0  0  0
   28.2021  -19.9380   -6.8962 C   0  0  1  0  0  0  0  0  0  0  0  0
   27.8775  -21.1556   -6.0302 C   0  0  0  0  0  0  0  0  0  0  0  0
   27.0308  -19.7717   -7.8404 C   0  0  0  0  0  0  0  0  0  0  0  0
   27.0866  -20.8156   -8.9590 C   0  0  2  0  0  0  0  0  0  0  0  0
   28.4392  -20.8909   -9.4648 N   0  0  0  0  0  0  0  0  0  0  0  0
   26.2066  -20.3172  -10.0443 C   0  0  0  0  0  0  0  0  0  0  0  0
   26.3754  -19.1467  -10.4636 O   0  0  0  0  0  0  0  0  0  0  0  0
   25.3452  -22.4720  -13.1449 C   0  0  0  0  0  0  0  0  0  0  0  0
   25.2341  -20.9943  -13.0311 C   0  0  2  0  0  0  0  0  0  0  0  0
   26.6072  -20.3581  -13.1162 C   0  0  0  0  0  0  0  0  0  0  0  0
   24.4874  -20.5543  -11.7988 C   0  0  2  0  0  0  0  0  0  0  0  0
   25.1866  -21.1075  -10.6246 N   0  0  0  0  0  0  0  0  0  0  0  0
   23.0700  -20.9684  -11.7750 C   0  0  0  0  0  0  0  0  0  0  0  0
   22.6966  -21.8050  -10.8679 O   0  0  0  0  0  0  0  0  0  0  0  0
   22.0471  -20.5515  -12.6391 N   0  0  0  0  0  0  0  0  0  0  0  0
   20.6464  -20.9476  -12.4603 C   0  0  1  0  0  0  0  0  0  0  0  0
   20.1228  -20.4806  -11.1232 C   0  0  0  0  0  0  0  0  0  0  0  0
   20.0083  -21.5698  -10.1317 C   0  0  0  0  0  0  0  0  0  0  0  0
   20.3095  -22.8956  -10.2856 C   0  0  0  0  0  0  0  0  0  0  0  0
   20.0586  -23.5599   -9.1196 N   0  0  0  0  0  0  0  0  0  0  0  0
   19.6125  -22.6336   -8.2827 C   0  0  0  0  0  0  0  0  0  0  0  0
   19.5735  -21.4269   -8.8703 N   0  0  0  0  0  0  0  0  0  0  0  0
   19.8232  -20.5172  -13.5971 C   0  0  0  0  0  0  0  0  0  0  0  0
   18.6583  -21.1633  -13.9716 O   0  0  0  0  0  0  0  0  0  0  0  0
   20.1808  -19.5192  -14.2684 O   0  0  0  0  0  0  0  0  0  0  0  0
  2  1  1  1
  3  2  1  0
  4  5  1  0
  4  2  1  0
  5  6  1  6
  7 13  1  0
  7  5  1  0
  8  7  2  0
 10  9  1  1
 10 12  1  0
 11 10  1  0
 12 14  1  0
 12 13  1  1
 14 16  1  0
 15 14  2  0
 16 17  1  0
 17 24  1  0
 17 18  1  1
 19 18  1  0
 20 19  2  0
 21 22  1  0
 21 20  1  0
 22 23  2  0
 23 19  1  0
 24 26  2  0
 24 25  1  0
M  END
$$$$
