LVH.pdb
     RDKit          3D

 26 26  0  0  1  0  0  0  0  0999 V2000
   25.6883   -5.6100  -21.0634 C   0  0  0  0  0  0  0  0  0  0  0  0
   26.2179   -6.8463  -20.4159 C   0  0  1  0  0  0  0  0  0  0  0  0
   27.2870   -6.4288  -19.4056 C   0  0  0  0  0  0  0  0  0  0  0  0
   25.1672   -7.5978  -19.6270 C   0  0  0  0  0  0  0  0  0  0  0  0
   25.7590   -8.8705  -19.0151 C   0  0  2  0  0  0  0  0  0  0  0  0
   26.0735   -9.8003  -20.0769 N   0  0  0  0  0  0  0  0  0  0  0  0
   24.6949   -9.4654  -18.1699 C   0  0  0  0  0  0  0  0  0  0  0  0
   23.7480  -10.0666  -18.7323 O   0  0  0  0  0  0  0  0  0  0  0  0
   23.2448  -11.5203  -14.0332 C   0  0  0  0  0  0  0  0  0  0  0  0
   24.2447  -10.8032  -14.8667 C   0  0  2  0  0  0  0  0  0  0  0  0
   25.0799   -9.8791  -14.0030 C   0  0  0  0  0  0  0  0  0  0  0  0
   23.6253  -10.0750  -16.0312 C   0  0  2  0  0  0  0  0  0  0  0  0
   24.7051   -9.3823  -16.7576 N   0  0  0  0  0  0  0  0  0  0  0  0
   22.5814   -9.1038  -15.6461 C   0  0  0  0  0  0  0  0  0  0  0  0
   22.9560   -7.9714  -15.1569 O   0  0  0  0  0  0  0  0  0  0  0  0
   21.1920   -9.2616  -15.7515 N   0  0  0  0  0  0  0  0  0  0  0  0
   20.2404   -8.2474  -15.2857 C   0  0  1  0  0  0  0  0  0  0  0  0
   19.7047   -7.4414  -16.4448 C   0  0  0  0  0  0  0  0  0  0  0  0
   18.7513   -6.3915  -16.0308 C   0  0  0  0  0  0  0  0  0  0  0  0
   18.3523   -6.0555  -14.7659 C   0  0  0  0  0  0  0  0  0  0  0  0
   17.4572   -5.0263  -14.8270 N   0  0  0  0  0  0  0  0  0  0  0  0
   17.3284   -4.7561  -16.1184 C   0  0  0  0  0  0  0  0  0  0  0  0
   18.0984   -5.5658  -16.8630 N   0  0  0  0  0  0  0  0  0  0  0  0
   19.1914   -8.8463  -14.4514 C   0  0  0  0  0  0  0  0  0  0  0  0
   18.5790   -8.1710  -13.4103 O   0  0  0  0  0  0  0  0  0  0  0  0
   18.8239  -10.0237  -14.6820 O   0  0  0  0  0  0  0  0  0  0  0  0
  2  1  1  1
  3  2  1  0
  4  5  1  0
  4  2  1  0
  5  6  1  6
  7 13  1  0
  7  5  1  0
  8  7  2  0
 10  9  1  1
 10 12  1  0
 11 10  1  0
 12 14  1  0
 12 13  1  1
 14 16  1  0
 15 14  2  0
 16 17  1  0
 17 24  1  0
 17 18  1  6
 19 18  1  0
 20 19  2  0
 21 22  1  0
 21 20  1  0
 22 23  2  0
 23 19  1  0
 24 26  2  0
 24 25  1  0
M  END
$$$$
