LVH.pdb
     RDKit          3D

 26 26  0  0  1  0  0  0  0  0999 V2000
   28.1027  -19.5330  -18.5851 C   0  0  0  0  0  0  0  0  0  0  0  0
   27.6231  -19.2662  -17.1969 C   0  0  1  0  0  0  0  0  0  0  0  0
   26.6127  -18.1203  -17.2589 C   0  0  0  0  0  0  0  0  0  0  0  0
   26.8869  -20.4409  -16.5892 C   0  0  0  0  0  0  0  0  0  0  0  0
   27.6698  -21.0146  -15.4049 C   0  0  2  0  0  0  0  0  0  0  0  0
   28.3041  -22.2480  -15.8139 N   0  0  0  0  0  0  0  0  0  0  0  0
   26.6722  -21.3262  -14.3522 C   0  0  0  0  0  0  0  0  0  0  0  0
   25.9062  -22.3052  -14.5227 O   0  0  0  0  0  0  0  0  0  0  0  0
   27.1638  -21.0710  -10.3431 C   0  0  0  0  0  0  0  0  0  0  0  0
   25.9062  -20.4594  -10.8462 C   0  0  2  0  0  0  0  0  0  0  0  0
   24.7959  -20.6344   -9.8294 C   0  0  0  0  0  0  0  0  0  0  0  0
   25.5071  -20.9705  -12.2061 C   0  0  2  0  0  0  0  0  0  0  0  0
   26.5504  -20.5653  -13.1657 N   0  0  0  0  0  0  0  0  0  0  0  0
   24.1906  -20.4857  -12.6677 C   0  0  0  0  0  0  0  0  0  0  0  0
   24.0505  -19.2227  -12.8854 O   0  0  0  0  0  0  0  0  0  0  0  0
   23.0395  -21.2494  -12.9092 N   0  0  0  0  0  0  0  0  0  0  0  0
   21.7539  -20.6509  -13.2836 C   0  0  1  0  0  0  0  0  0  0  0  0
   21.2403  -21.2454  -14.5730 C   0  0  0  0  0  0  0  0  0  0  0  0
   19.9618  -20.6529  -15.0171 C   0  0  0  0  0  0  0  0  0  0  0  0
   19.2135  -19.6860  -14.4029 C   0  0  0  0  0  0  0  0  0  0  0  0
   18.1009  -19.4254  -15.1501 N   0  0  0  0  0  0  0  0  0  0  0  0
   18.1910  -20.2324  -16.1980 C   0  0  0  0  0  0  0  0  0  0  0  0
   19.3040  -20.9814  -16.1395 N   0  0  0  0  0  0  0  0  0  0  0  0
   20.7914  -20.7245  -12.1776 C   0  0  0  0  0  0  0  0  0  0  0  0
   19.9256  -19.6921  -11.8619 O   0  0  0  0  0  0  0  0  0  0  0  0
   20.7409  -21.7653  -11.4785 O   0  0  0  0  0  0  0  0  0  0  0  0
  2  1  1  6
  3  2  1  0
  4  5  1  0
  4  2  1  0
  5  6  1  6
  7 13  1  0
  7  5  1  0
  8  7  2  0
 10  9  1  1
 10 12  1  0
 11 10  1  0
 12 14  1  0
 12 13  1  6
 14 16  1  0
 15 14  2  0
 16 17  1  0
 17 24  1  0
 17 18  1  6
 19 18  1  0
 20 19  2  0
 21 22  1  0
 21 20  1  0
 22 23  2  0
 23 19  1  0
 24 26  2  0
 24 25  1  0
M  END
$$$$
