KRP.pdb
     RDKit          3D

 28 28  0  0  1  0  0  0  0  0999 V2000
   25.2539  -25.6808  -15.8818 N   0  0  0  0  0  0  0  0  0  0  0  0
   25.3169  -24.2578  -16.0182 C   0  0  1  0  0  0  0  0  0  0  0  0
   24.1031  -23.6229  -16.6341 C   0  0  0  0  0  0  0  0  0  0  0  0
   24.2526  -23.1964  -18.0421 C   0  0  0  0  0  0  0  0  0  0  0  0
   24.5054  -21.7541  -18.2943 C   0  0  0  0  0  0  0  0  0  0  0  0
   23.3470  -21.0572  -18.9743 C   0  0  0  0  0  0  0  0  0  0  0  0
   23.6496  -19.6651  -19.2719 N   0  0  0  0  0  0  0  0  0  0  0  0
   25.7469  -23.5562  -14.7851 C   0  0  0  0  0  0  0  0  0  0  0  0
   25.3702  -24.0193  -13.6654 O   0  0  0  0  0  0  0  0  0  0  0  0
   31.2948  -21.5531   -9.8022 N   0  0  0  0  0  0  0  0  0  0  0  0
   31.5128  -21.7695  -11.1941 C   0  0  0  0  0  0  0  0  0  0  0  0
   32.5062  -22.4782  -11.6284 N   0  0  0  0  0  0  0  0  0  0  0  0
   30.6427  -21.2110  -12.1675 N   0  0  0  0  0  0  0  0  0  0  0  0
   29.3769  -20.5651  -11.7353 C   0  0  0  0  0  0  0  0  0  0  0  0
   28.6833  -19.9540  -12.8955 C   0  0  0  0  0  0  0  0  0  0  0  0
   28.0336  -20.8810  -13.8041 C   0  0  0  0  0  0  0  0  0  0  0  0
   26.9067  -21.7696  -13.3950 C   0  0  2  0  0  0  0  0  0  0  0  0
   26.5411  -22.4131  -14.7590 N   0  0  0  0  0  0  0  0  0  0  0  0
   25.6813  -21.0836  -13.0545 C   0  0  0  0  0  0  0  0  0  0  0  0
   25.3689  -20.1980  -13.9956 O   0  0  0  0  0  0  0  0  0  0  0  0
   32.5560  -22.6494  -12.6518 N   0  0  0  0  0  0  0  0  0  0  0  0
   24.7986  -21.1870  -11.9682 C   0  0  0  0  0  0  0  0  0  0  0  0
   25.0178  -22.2964  -10.9713 C   0  0  0  0  0  0  0  0  0  0  0  0
   25.0971  -21.4352   -9.7173 C   0  0  0  0  0  0  0  0  0  0  0  0
   24.3329  -20.1554  -10.0284 C   0  0  2  0  0  0  0  0  0  0  0  0
   23.6868  -20.5871  -11.3579 C   0  0  0  0  0  0  0  0  0  0  0  0
   22.8881  -19.5694  -11.9492 O   0  0  0  0  0  0  0  0  0  0  0  0
   23.4168  -18.7716  -12.8133 O   0  0  0  0  0  0  0  0  0  0  0  0
  2  1  1  1
  3  2  1  0
  4  3  1  0
  5  4  1  0
  5  6  1  0
  7  6  1  0
  8  2  1  0
  9  8  2  0
 10 11  1  0
 11 12  2  0
 13 11  1  0
 13 14  1  0
 14 15  1  0
 16 15  1  0
 17 16  1  6
 17 18  1  0
 18  8  1  0
 19 21  1  0
 19 17  1  0
 20 19  2  0
 21 22  1  0
 23 22  1  0
 24 23  1  0
 25 26  1  1
 25 21  1  0
 25 24  1  0
 26 28  1  0
 27 26  2  0
M  END
$$$$
