KRP.pdb
     RDKit          3D

 28 28  0  0  1  0  0  0  0  0999 V2000
   21.4231  -20.4504   -9.9759 N   0  0  0  0  0  0  0  0  0  0  0  0
   20.8945  -20.7405  -11.2736 C   0  0  1  0  0  0  0  0  0  0  0  0
   19.4328  -20.4422  -11.4469 C   0  0  0  0  0  0  0  0  0  0  0  0
   18.5066  -21.4081  -10.8174 C   0  0  0  0  0  0  0  0  0  0  0  0
   18.5235  -22.8024  -11.3306 C   0  0  0  0  0  0  0  0  0  0  0  0
   17.5638  -23.7166  -10.6004 C   0  0  0  0  0  0  0  0  0  0  0  0
   16.2115  -23.6183  -11.1294 N   0  0  0  0  0  0  0  0  0  0  0  0
   21.7091  -20.1983  -12.3873 C   0  0  0  0  0  0  0  0  0  0  0  0
   22.2167  -19.0428  -12.2560 O   0  0  0  0  0  0  0  0  0  0  0  0
   26.5292  -20.5255  -10.7497 N   0  0  0  0  0  0  0  0  0  0  0  0
   27.0819  -21.4838  -11.6485 C   0  0  0  0  0  0  0  0  0  0  0  0
   28.3551  -21.5520  -11.8769 N   0  0  0  0  0  0  0  0  0  0  0  0
   26.2515  -22.4084  -12.3354 N   0  0  0  0  0  0  0  0  0  0  0  0
   24.9370  -21.9616  -12.8635 C   0  0  0  0  0  0  0  0  0  0  0  0
   24.9891  -21.8270  -14.3399 C   0  0  0  0  0  0  0  0  0  0  0  0
   23.7429  -21.4568  -14.9856 C   0  0  0  0  0  0  0  0  0  0  0  0
   22.9541  -20.2488  -14.6046 C   0  0  2  0  0  0  0  0  0  0  0  0
   21.9631  -20.8657  -13.5823 N   0  0  0  0  0  0  0  0  0  0  0  0
   22.0572  -19.7584  -15.6261 C   0  0  0  0  0  0  0  0  0  0  0  0
   21.1019  -20.6501  -15.8710 O   0  0  0  0  0  0  0  0  0  0  0  0
   28.6706  -22.2113  -12.6151 N   0  0  0  0  0  0  0  0  0  0  0  0
   22.0086  -18.5642  -16.3618 C   0  0  0  0  0  0  0  0  0  0  0  0
   22.5660  -17.3129  -15.7324 C   0  0  0  0  0  0  0  0  0  0  0  0
   23.5488  -16.9458  -16.8368 C   0  0  0  0  0  0  0  0  0  0  0  0
   23.0155  -17.5827  -18.1130 C   0  0  2  0  0  0  0  0  0  0  0  0
   21.6307  -18.0152  -17.5964 C   0  0  0  0  0  0  0  0  0  0  0  0
   20.8514  -18.6875  -18.5783 O   0  0  0  0  0  0  0  0  0  0  0  0
   21.1595  -19.8935  -18.9144 O   0  0  0  0  0  0  0  0  0  0  0  0
  2  1  1  1
  3  2  1  0
  4  3  1  0
  5  4  1  0
  5  6  1  0
  7  6  1  0
  8  2  1  0
  9  8  2  0
 10 11  1  0
 11 12  2  0
 13 11  1  0
 13 14  1  0
 14 15  1  0
 16 15  1  0
 17 16  1  6
 17 18  1  0
 18  8  1  0
 19 21  1  0
 19 17  1  0
 20 19  2  0
 21 22  1  0
 23 22  1  0
 24 23  1  0
 25 26  1  6
 25 21  1  0
 25 24  1  0
 26 28  1  0
 27 26  2  0
M  END
$$$$
