KRP.pdb
     RDKit          3D

 28 28  0  0  1  0  0  0  0  0999 V2000
   26.3137  -24.5482  -15.6972 N   0  0  0  0  0  0  0  0  0  0  0  0
   25.6079  -24.8469  -16.9056 C   0  0  1  0  0  0  0  0  0  0  0  0
   24.8600  -23.6923  -17.5081 C   0  0  0  0  0  0  0  0  0  0  0  0
   24.0283  -22.9115  -16.5670 C   0  0  0  0  0  0  0  0  0  0  0  0
   23.1140  -23.6700  -15.6745 C   0  0  0  0  0  0  0  0  0  0  0  0
   22.1212  -22.7866  -14.9506 C   0  0  0  0  0  0  0  0  0  0  0  0
   21.3688  -23.5243  -13.9469 N   0  0  0  0  0  0  0  0  0  0  0  0
   26.4223  -25.5688  -17.9123 C   0  0  0  0  0  0  0  0  0  0  0  0
   25.9346  -25.7408  -19.0711 O   0  0  0  0  0  0  0  0  0  0  0  0
   32.4408  -24.3856  -14.4377 N   0  0  0  0  0  0  0  0  0  0  0  0
   33.0354  -25.3252  -15.3294 C   0  0  0  0  0  0  0  0  0  0  0  0
   34.1593  -25.9088  -15.0575 N   0  0  0  0  0  0  0  0  0  0  0  0
   32.4144  -25.6603  -16.5617 N   0  0  0  0  0  0  0  0  0  0  0  0
   31.1655  -24.9655  -16.9663 C   0  0  0  0  0  0  0  0  0  0  0  0
   30.7163  -25.4386  -18.2985 C   0  0  0  0  0  0  0  0  0  0  0  0
   29.8879  -26.6305  -18.3002 C   0  0  0  0  0  0  0  0  0  0  0  0
   28.5087  -26.6646  -18.8689 C   0  0  2  0  0  0  0  0  0  0  0  0
   27.6963  -26.0807  -17.6827 N   0  0  0  0  0  0  0  0  0  0  0  0
   27.9344  -27.9844  -18.9985 C   0  0  0  0  0  0  0  0  0  0  0  0
   27.7390  -28.5246  -17.7995 O   0  0  0  0  0  0  0  0  0  0  0  0
   34.5381  -26.5647  -15.7685 N   0  0  0  0  0  0  0  0  0  0  0  0
   27.5538  -28.7560  -20.1073 C   0  0  0  0  0  0  0  0  0  0  0  0
   27.2223  -28.0446  -21.3943 C   0  0  0  0  0  0  0  0  0  0  0  0
   28.1986  -28.7862  -22.2984 C   0  0  0  0  0  0  0  0  0  0  0  0
   28.4577  -30.1321  -21.6349 C   0  0  2  0  0  0  0  0  0  0  0  0
   27.3638  -30.0729  -20.5527 C   0  0  0  0  0  0  0  0  0  0  0  0
   27.3461  -31.2191  -19.7105 O   0  0  0  0  0  0  0  0  0  0  0  0
   26.4536  -32.1302  -19.8998 O   0  0  0  0  0  0  0  0  0  0  0  0
  2  1  1  1
  3  2  1  0
  4  3  1  0
  5  4  1  0
  5  6  1  0
  7  6  1  0
  8  2  1  0
  9  8  2  0
 10 11  1  0
 11 12  2  0
 13 11  1  0
 13 14  1  0
 14 15  1  0
 16 15  1  0
 17 16  1  1
 17 18  1  0
 18  8  1  0
 19 21  1  0
 19 17  1  0
 20 19  2  0
 21 22  1  0
 23 22  1  0
 24 23  1  0
 25 26  1  6
 25 21  1  0
 25 24  1  0
 26 28  1  0
 27 26  2  0
M  END
$$$$
