KRP.pdb
     RDKit          3D

 28 28  0  0  1  0  0  0  0  0999 V2000
   26.6889  -26.1331  -16.0512 N   0  0  0  0  0  0  0  0  0  0  0  0
   27.0893  -24.7967  -16.3691 C   0  0  1  0  0  0  0  0  0  0  0  0
   27.3300  -24.5341  -17.8281 C   0  0  0  0  0  0  0  0  0  0  0  0
   26.4421  -25.2609  -18.7610 C   0  0  0  0  0  0  0  0  0  0  0  0
   25.0541  -24.7536  -18.9158 C   0  0  0  0  0  0  0  0  0  0  0  0
   24.2409  -25.5427  -19.9187 C   0  0  0  0  0  0  0  0  0  0  0  0
   22.8278  -25.1989  -19.8628 N   0  0  0  0  0  0  0  0  0  0  0  0
   26.2390  -23.7528  -15.7486 C   0  0  0  0  0  0  0  0  0  0  0  0
   25.3348  -24.1163  -14.9359 O   0  0  0  0  0  0  0  0  0  0  0  0
   26.4507  -20.8942   -9.1831 N   0  0  0  0  0  0  0  0  0  0  0  0
   25.3083  -20.6990  -10.0129 C   0  0  0  0  0  0  0  0  0  0  0  0
   24.1029  -20.8435   -9.5615 N   0  0  0  0  0  0  0  0  0  0  0  0
   25.4480  -20.3367  -11.3788 N   0  0  0  0  0  0  0  0  0  0  0  0
   26.8034  -20.1083  -11.9419 C   0  0  0  0  0  0  0  0  0  0  0  0
   26.7134  -19.7199  -13.3707 C   0  0  0  0  0  0  0  0  0  0  0  0
   26.8223  -20.8046  -14.3291 C   0  0  0  0  0  0  0  0  0  0  0  0
   25.6473  -21.3810  -15.0459 C   0  0  2  0  0  0  0  0  0  0  0  0
   26.3553  -22.3870  -15.9917 N   0  0  0  0  0  0  0  0  0  0  0  0
   25.0093  -20.4896  -15.9875 C   0  0  0  0  0  0  0  0  0  0  0  0
   25.9226  -19.8459  -16.7082 O   0  0  0  0  0  0  0  0  0  0  0  0
   23.3233  -20.6855  -10.2296 N   0  0  0  0  0  0  0  0  0  0  0  0
   23.6652  -20.2035  -16.2722 C   0  0  0  0  0  0  0  0  0  0  0  0
   22.6047  -21.1143  -15.7080 C   0  0  0  0  0  0  0  0  0  0  0  0
   21.7828  -20.0536  -14.9872 C   0  0  0  0  0  0  0  0  0  0  0  0
   22.0620  -18.7379  -15.7011 C   0  0  2  0  0  0  0  0  0  0  0  0
   22.8197  -19.2916  -16.9221 C   0  0  0  0  0  0  0  0  0  0  0  0
   23.2572  -18.2767  -17.8176 O   0  0  0  0  0  0  0  0  0  0  0  0
   22.6784  -18.1504  -18.9628 O   0  0  0  0  0  0  0  0  0  0  0  0
  2  1  1  6
  3  2  1  0
  4  3  1  0
  5  4  1  0
  5  6  1  0
  7  6  1  0
  8  2  1  0
  9  8  2  0
 10 11  1  0
 11 12  2  0
 13 11  1  0
 13 14  1  0
 14 15  1  0
 16 15  1  0
 17 16  1  6
 17 18  1  0
 18  8  1  0
 19 21  1  0
 19 17  1  0
 20 19  2  0
 21 22  1  0
 23 22  1  0
 24 23  1  0
 25 26  1  1
 25 21  1  0
 25 24  1  0
 26 28  1  0
 27 26  2  0
M  END
$$$$
