KRP.pdb
     RDKit          3D

 28 28  0  0  1  0  0  0  0  0999 V2000
   28.1345  -18.9030  -18.6433 N   0  0  0  0  0  0  0  0  0  0  0  0
   26.9288  -19.4730  -19.1619 C   0  0  1  0  0  0  0  0  0  0  0  0
   27.0752  -20.1856  -20.4758 C   0  0  0  0  0  0  0  0  0  0  0  0
   28.2478  -19.7923  -21.2865 C   0  0  0  0  0  0  0  0  0  0  0  0
   29.5746  -19.8062  -20.6176 C   0  0  0  0  0  0  0  0  0  0  0  0
   30.7083  -19.4072  -21.5371 C   0  0  0  0  0  0  0  0  0  0  0  0
   31.9759  -19.3154  -20.8281 N   0  0  0  0  0  0  0  0  0  0  0  0
   26.1731  -20.2785  -18.1730 C   0  0  0  0  0  0  0  0  0  0  0  0
   25.3201  -21.1143  -18.6019 O   0  0  0  0  0  0  0  0  0  0  0  0
   26.4790  -20.6996   -9.1874 N   0  0  0  0  0  0  0  0  0  0  0  0
   25.2123  -20.8723   -9.8177 C   0  0  0  0  0  0  0  0  0  0  0  0
   24.1040  -20.5720   -9.2184 N   0  0  0  0  0  0  0  0  0  0  0  0
   25.1147  -21.3858  -11.1380 N   0  0  0  0  0  0  0  0  0  0  0  0
   26.1718  -21.0631  -12.1303 C   0  0  0  0  0  0  0  0  0  0  0  0
   25.9172  -21.7708  -13.4089 C   0  0  0  0  0  0  0  0  0  0  0  0
   26.2808  -21.0491  -14.6147 C   0  0  0  0  0  0  0  0  0  0  0  0
   25.4732  -21.0964  -15.8686 C   0  0  2  0  0  0  0  0  0  0  0  0
   26.3270  -20.1877  -16.7924 N   0  0  0  0  0  0  0  0  0  0  0  0
   24.2231  -20.3733  -15.8170 C   0  0  0  0  0  0  0  0  0  0  0  0
   24.4355  -19.1035  -15.4850 O   0  0  0  0  0  0  0  0  0  0  0  0
   23.2229  -20.7144   -9.7498 N   0  0  0  0  0  0  0  0  0  0  0  0
   22.8918  -20.7487  -16.0540 C   0  0  0  0  0  0  0  0  0  0  0  0
   22.6238  -21.8369  -17.0622 C   0  0  0  0  0  0  0  0  0  0  0  0
   21.8206  -22.7634  -16.1584 C   0  0  0  0  0  0  0  0  0  0  0  0
   21.2251  -21.8850  -15.0664 C   0  0  2  0  0  0  0  0  0  0  0  0
   21.5658  -20.5073  -15.6640 C   0  0  0  0  0  0  0  0  0  0  0  0
   21.1461  -19.4223  -14.8454 O   0  0  0  0  0  0  0  0  0  0  0  0
   21.8900  -19.0467  -13.8615 O   0  0  0  0  0  0  0  0  0  0  0  0
  2  1  1  1
  3  2  1  0
  4  3  1  0
  5  4  1  0
  5  6  1  0
  7  6  1  0
  8  2  1  0
  9  8  2  0
 10 11  1  0
 11 12  2  0
 13 11  1  0
 13 14  1  0
 14 15  1  0
 16 15  1  0
 17 16  1  1
 17 18  1  0
 18  8  1  0
 19 21  1  0
 19 17  1  0
 20 19  2  0
 21 22  1  0
 23 22  1  0
 24 23  1  0
 25 26  1  1
 25 21  1  0
 25 24  1  0
 26 28  1  0
 27 26  2  0
M  END
$$$$
