KRP.pdb
     RDKit          3D

 28 28  0  0  1  0  0  0  0  0999 V2000
   24.6809  -25.0204  -14.8397 N   0  0  0  0  0  0  0  0  0  0  0  0
   24.7853  -23.5938  -14.8024 C   0  0  1  0  0  0  0  0  0  0  0  0
   25.5495  -22.9813  -15.9410 C   0  0  0  0  0  0  0  0  0  0  0  0
   26.9777  -23.3560  -16.0242 C   0  0  0  0  0  0  0  0  0  0  0  0
   27.3144  -24.5981  -16.7669 C   0  0  0  0  0  0  0  0  0  0  0  0
   28.8043  -24.8140  -16.9202 C   0  0  0  0  0  0  0  0  0  0  0  0
   29.1087  -26.1222  -17.4807 N   0  0  0  0  0  0  0  0  0  0  0  0
   23.4946  -22.9046  -14.5637 C   0  0  0  0  0  0  0  0  0  0  0  0
   22.4248  -23.4901  -14.9141 O   0  0  0  0  0  0  0  0  0  0  0  0
   19.1199  -23.0951   -9.6635 N   0  0  0  0  0  0  0  0  0  0  0  0
   19.8619  -22.0501   -9.0397 C   0  0  0  0  0  0  0  0  0  0  0  0
   19.8338  -21.8627   -7.7584 N   0  0  0  0  0  0  0  0  0  0  0  0
   20.6669  -21.1654   -9.8049 N   0  0  0  0  0  0  0  0  0  0  0  0
   20.1041  -20.5313  -11.0246 C   0  0  0  0  0  0  0  0  0  0  0  0
   21.1248  -19.6830  -11.6870 C   0  0  0  0  0  0  0  0  0  0  0  0
   22.1703  -20.3927  -12.4014 C   0  0  0  0  0  0  0  0  0  0  0  0
   21.9449  -21.0787  -13.7072 C   0  0  2  0  0  0  0  0  0  0  0  0
   23.3626  -21.6483  -13.9789 N   0  0  0  0  0  0  0  0  0  0  0  0
   21.7602  -20.1960  -14.8365 C   0  0  0  0  0  0  0  0  0  0  0  0
   22.7600  -19.3228  -14.9105 O   0  0  0  0  0  0  0  0  0  0  0  0
   20.4416  -21.1128   -7.3745 N   0  0  0  0  0  0  0  0  0  0  0  0
   20.7701  -20.1064  -15.8271 C   0  0  0  0  0  0  0  0  0  0  0  0
   19.9124  -21.3172  -16.0931 C   0  0  0  0  0  0  0  0  0  0  0  0
   18.5544  -20.6575  -15.8906 C   0  0  0  0  0  0  0  0  0  0  0  0
   18.7552  -19.1729  -16.1633 C   0  0  2  0  0  0  0  0  0  0  0  0
   20.1767  -19.2344  -16.7524 C   0  0  0  0  0  0  0  0  0  0  0  0
   20.6915  -17.9570  -17.1082 O   0  0  0  0  0  0  0  0  0  0  0  0
   21.0830  -17.1514  -16.1808 O   0  0  0  0  0  0  0  0  0  0  0  0
  2  1  1  6
  3  2  1  0
  4  3  1  0
  5  4  1  0
  5  6  1  0
  7  6  1  0
  8  2  1  0
  9  8  2  0
 10 11  1  0
 11 12  2  0
 13 11  1  0
 13 14  1  0
 14 15  1  0
 16 15  1  0
 17 16  1  1
 17 18  1  0
 18  8  1  0
 19 21  1  0
 19 17  1  0
 20 19  2  0
 21 22  1  0
 23 22  1  0
 24 23  1  0
 25 26  1  1
 25 21  1  0
 25 24  1  0
 26 28  1  0
 27 26  2  0
M  END
$$$$
