KRP.pdb
     RDKit          3D

 28 28  0  0  1  0  0  0  0  0999 V2000
   21.4124  -22.4386  -15.2356 N   0  0  0  0  0  0  0  0  0  0  0  0
   21.0066  -21.0824  -15.0266 C   0  0  1  0  0  0  0  0  0  0  0  0
   20.6379  -20.7391  -13.6117 C   0  0  0  0  0  0  0  0  0  0  0  0
   19.6473  -21.6347  -12.9764 C   0  0  0  0  0  0  0  0  0  0  0  0
   19.2893  -21.3601  -11.5607 C   0  0  0  0  0  0  0  0  0  0  0  0
   18.3848  -22.4145  -10.9607 C   0  0  0  0  0  0  0  0  0  0  0  0
   18.0118  -22.0945   -9.5909 N   0  0  0  0  0  0  0  0  0  0  0  0
   21.9271  -20.0832  -15.6200 C   0  0  0  0  0  0  0  0  0  0  0  0
   23.1491  -20.3961  -15.7572 O   0  0  0  0  0  0  0  0  0  0  0  0
   22.3187  -12.9562  -18.7466 N   0  0  0  0  0  0  0  0  0  0  0  0
   22.3836  -13.4632  -20.0771 C   0  0  0  0  0  0  0  0  0  0  0  0
   22.8407  -12.7517  -21.0582 N   0  0  0  0  0  0  0  0  0  0  0  0
   21.9448  -14.7788  -20.3822 N   0  0  0  0  0  0  0  0  0  0  0  0
   21.3966  -15.6380  -19.3016 C   0  0  0  0  0  0  0  0  0  0  0  0
   22.1451  -16.9164  -19.2246 C   0  0  0  0  0  0  0  0  0  0  0  0
   21.7555  -17.8140  -18.1524 C   0  0  0  0  0  0  0  0  0  0  0  0
   22.5386  -17.9670  -16.8915 C   0  0  2  0  0  0  0  0  0  0  0  0
   21.5512  -18.8113  -16.0429 N   0  0  0  0  0  0  0  0  0  0  0  0
   22.6576  -16.7656  -16.0973 C   0  0  0  0  0  0  0  0  0  0  0  0
   21.4566  -16.2494  -15.8549 O   0  0  0  0  0  0  0  0  0  0  0  0
   22.8668  -13.1973  -21.9963 N   0  0  0  0  0  0  0  0  0  0  0  0
   23.7577  -16.0853  -15.5528 C   0  0  0  0  0  0  0  0  0  0  0  0
   24.9990  -16.8766  -15.2277 C   0  0  0  0  0  0  0  0  0  0  0  0
   25.9882  -16.0547  -16.0440 C   0  0  0  0  0  0  0  0  0  0  0  0
   25.3810  -14.6647  -16.1784 C   0  0  2  0  0  0  0  0  0  0  0  0
   24.2243  -14.8176  -15.1734 C   0  0  0  0  0  0  0  0  0  0  0  0
   23.4142  -13.6530  -15.0700 O   0  0  0  0  0  0  0  0  0  0  0  0
   22.5402  -13.4064  -15.9853 O   0  0  0  0  0  0  0  0  0  0  0  0
  2  1  1  1
  3  2  1  0
  4  3  1  0
  5  4  1  0
  5  6  1  0
  7  6  1  0
  8  2  1  0
  9  8  2  0
 10 11  1  0
 11 12  2  0
 13 11  1  0
 13 14  1  0
 14 15  1  0
 16 15  1  0
 17 16  1  6
 17 18  1  0
 18  8  1  0
 19 21  1  0
 19 17  1  0
 20 19  2  0
 21 22  1  0
 23 22  1  0
 24 23  1  0
 25 26  1  6
 25 21  1  0
 25 24  1  0
 26 28  1  0
 27 26  2  0
M  END
$$$$
