KRP.pdb
     RDKit          3D

 28 28  0  0  1  0  0  0  0  0999 V2000
   29.3281  -23.7001  -16.9541 N   0  0  0  0  0  0  0  0  0  0  0  0
   28.2950  -22.7226  -17.1113 C   0  0  1  0  0  0  0  0  0  0  0  0
   27.0273  -23.2309  -17.7360 C   0  0  0  0  0  0  0  0  0  0  0  0
   26.6773  -24.6319  -17.4173 C   0  0  0  0  0  0  0  0  0  0  0  0
   25.4472  -24.8619  -16.6162 C   0  0  0  0  0  0  0  0  0  0  0  0
   25.1721  -26.3270  -16.3561 C   0  0  0  0  0  0  0  0  0  0  0  0
   23.9288  -26.5249  -15.6260 N   0  0  0  0  0  0  0  0  0  0  0  0
   28.0325  -21.9263  -15.8887 C   0  0  0  0  0  0  0  0  0  0  0  0
   28.5317  -22.3235  -14.7918 O   0  0  0  0  0  0  0  0  0  0  0  0
   25.0606  -13.9420  -15.6892 N   0  0  0  0  0  0  0  0  0  0  0  0
   25.6247  -14.9206  -16.5586 C   0  0  0  0  0  0  0  0  0  0  0  0
   25.5328  -14.8246  -17.8470 N   0  0  0  0  0  0  0  0  0  0  0  0
   26.3144  -16.0493  -16.0420 N   0  0  0  0  0  0  0  0  0  0  0  0
   26.3084  -16.3060  -14.5790 C   0  0  0  0  0  0  0  0  0  0  0  0
   27.2836  -17.3693  -14.2343 C   0  0  0  0  0  0  0  0  0  0  0  0
   27.2559  -18.5504  -15.0777 C   0  0  0  0  0  0  0  0  0  0  0  0
   27.2027  -19.9394  -14.5348 C   0  0  2  0  0  0  0  0  0  0  0  0
   27.2702  -20.7621  -15.8488 N   0  0  0  0  0  0  0  0  0  0  0  0
   25.9197  -20.3379  -14.0026 C   0  0  0  0  0  0  0  0  0  0  0  0
   24.9753  -20.2175  -14.9307 O   0  0  0  0  0  0  0  0  0  0  0  0
   25.9745  -15.5761  -18.4120 N   0  0  0  0  0  0  0  0  0  0  0  0
   25.5129  -20.8167  -12.7477 C   0  0  0  0  0  0  0  0  0  0  0  0
   26.5545  -21.4196  -11.8399 C   0  0  0  0  0  0  0  0  0  0  0  0
   26.3065  -20.5355  -10.6243 C   0  0  0  0  0  0  0  0  0  0  0  0
   24.8701  -20.0434  -10.7394 C   0  0  2  0  0  0  0  0  0  0  0  0
   24.4058  -20.9481  -11.8958 C   0  0  0  0  0  0  0  0  0  0  0  0
   23.0556  -20.7182  -12.2797 O   0  0  0  0  0  0  0  0  0  0  0  0
   22.4233  -21.6241  -12.9446 O   0  0  0  0  0  0  0  0  0  0  0  0
  2  1  1  1
  3  2  1  0
  4  3  1  0
  5  4  1  0
  5  6  1  0
  7  6  1  0
  8  2  1  0
  9  8  2  0
 10 11  1  0
 11 12  2  0
 13 11  1  0
 13 14  1  0
 14 15  1  0
 16 15  1  0
 17 16  1  6
 17 18  1  0
 18  8  1  0
 19 21  1  0
 19 17  1  0
 20 19  2  0
 21 22  1  0
 23 22  1  0
 24 23  1  0
 25 26  1  1
 25 21  1  0
 25 24  1  0
 26 28  1  0
 27 26  2  0
M  END
$$$$
