KRP.pdb
     RDKit          3D

 28 28  0  0  1  0  0  0  0  0999 V2000
   25.5180  -21.8384  -11.4386 N   0  0  0  0  0  0  0  0  0  0  0  0
   24.9789  -21.2916  -12.6460 C   0  0  1  0  0  0  0  0  0  0  0  0
   23.8793  -20.2867  -12.4544 C   0  0  0  0  0  0  0  0  0  0  0  0
   22.5797  -20.6405  -13.0651 C   0  0  0  0  0  0  0  0  0  0  0  0
   21.7759  -21.6949  -12.3943 C   0  0  0  0  0  0  0  0  0  0  0  0
   20.5340  -22.0790  -13.1690 C   0  0  0  0  0  0  0  0  0  0  0  0
   19.6920  -23.0019  -12.4224 N   0  0  0  0  0  0  0  0  0  0  0  0
   26.0086  -20.8149  -13.6000 C   0  0  0  0  0  0  0  0  0  0  0  0
   26.8568  -19.9625  -13.1953 O   0  0  0  0  0  0  0  0  0  0  0  0
   28.7407  -26.4259  -15.6694 N   0  0  0  0  0  0  0  0  0  0  0  0
   27.5959  -25.9134  -16.3465 C   0  0  0  0  0  0  0  0  0  0  0  0
   26.4298  -26.4654  -16.2317 N   0  0  0  0  0  0  0  0  0  0  0  0
   27.6899  -24.7686  -17.1814 N   0  0  0  0  0  0  0  0  0  0  0  0
   28.9048  -23.9161  -17.1231 C   0  0  0  0  0  0  0  0  0  0  0  0
   28.6829  -22.7565  -16.2251 C   0  0  0  0  0  0  0  0  0  0  0  0
   27.6177  -21.8502  -16.6139 C   0  0  0  0  0  0  0  0  0  0  0  0
   27.2410  -20.6452  -15.8185 C   0  0  2  0  0  0  0  0  0  0  0  0
   26.1185  -21.2337  -14.9231 N   0  0  0  0  0  0  0  0  0  0  0  0
   26.5276  -19.6266  -16.5546 C   0  0  0  0  0  0  0  0  0  0  0  0
   25.3378  -20.0793  -16.9379 O   0  0  0  0  0  0  0  0  0  0  0  0
   25.6526  -26.0531  -16.7840 N   0  0  0  0  0  0  0  0  0  0  0  0
   26.8444  -18.3064  -16.9104 C   0  0  0  0  0  0  0  0  0  0  0  0
   27.6625  -17.4829  -15.9486 C   0  0  0  0  0  0  0  0  0  0  0  0
   28.7830  -17.0985  -16.9064 C   0  0  0  0  0  0  0  0  0  0  0  0
   28.1941  -17.1802  -18.3083 C   0  0  2  0  0  0  0  0  0  0  0  0
   26.7114  -17.3503  -17.9286 C   0  0  0  0  0  0  0  0  0  0  0  0
   25.8555  -17.4814  -19.0572 O   0  0  0  0  0  0  0  0  0  0  0  0
   25.8005  -18.6075  -19.6828 O   0  0  0  0  0  0  0  0  0  0  0  0
  2  1  1  1
  3  2  1  0
  4  3  1  0
  5  4  1  0
  5  6  1  0
  7  6  1  0
  8  2  1  0
  9  8  2  0
 10 11  1  0
 11 12  2  0
 13 11  1  0
 13 14  1  0
 14 15  1  0
 16 15  1  0
 17 16  1  6
 17 18  1  0
 18  8  1  0
 19 21  1  0
 19 17  1  0
 20 19  2  0
 21 22  1  0
 23 22  1  0
 24 23  1  0
 25 26  1  6
 25 21  1  0
 25 24  1  0
 26 28  1  0
 27 26  2  0
M  END
$$$$
