KRP.pdb
     RDKit          3D

 28 28  0  0  1  0  0  0  0  0999 V2000
   27.4971  -16.0524  -20.0299 N   0  0  0  0  0  0  0  0  0  0  0  0
   26.3815  -16.8287  -19.5825 C   0  0  1  0  0  0  0  0  0  0  0  0
   25.6117  -17.5224  -20.6697 C   0  0  0  0  0  0  0  0  0  0  0  0
   24.6759  -16.6680  -21.4322 C   0  0  0  0  0  0  0  0  0  0  0  0
   23.8135  -17.3341  -22.4423 C   0  0  0  0  0  0  0  0  0  0  0  0
   22.9489  -16.3645  -23.2183 C   0  0  0  0  0  0  0  0  0  0  0  0
   23.6479  -15.1197  -23.5008 N   0  0  0  0  0  0  0  0  0  0  0  0
   26.6983  -17.7397  -18.4567 C   0  0  0  0  0  0  0  0  0  0  0  0
   27.8107  -18.3498  -18.4696 O   0  0  0  0  0  0  0  0  0  0  0  0
   25.1565  -21.6168  -11.5543 N   0  0  0  0  0  0  0  0  0  0  0  0
   26.2009  -20.7918  -11.0442 C   0  0  0  0  0  0  0  0  0  0  0  0
   26.7441  -21.0126   -9.8893 N   0  0  0  0  0  0  0  0  0  0  0  0
   26.6902  -19.6855  -11.7878 N   0  0  0  0  0  0  0  0  0  0  0  0
   26.2677  -19.5070  -13.2006 C   0  0  0  0  0  0  0  0  0  0  0  0
   26.7760  -18.2203  -13.7360 C   0  0  0  0  0  0  0  0  0  0  0  0
   26.3594  -17.8883  -15.0862 C   0  0  0  0  0  0  0  0  0  0  0  0
   26.3597  -18.8748  -16.2059 C   0  0  2  0  0  0  0  0  0  0  0  0
   25.8593  -17.9824  -17.3726 N   0  0  0  0  0  0  0  0  0  0  0  0
   25.3219  -19.8780  -16.1356 C   0  0  0  0  0  0  0  0  0  0  0  0
   24.1370  -19.3065  -15.9434 O   0  0  0  0  0  0  0  0  0  0  0  0
   27.5721  -20.4386   -9.6362 N   0  0  0  0  0  0  0  0  0  0  0  0
   25.3374  -21.2775  -16.2403 C   0  0  0  0  0  0  0  0  0  0  0  0
   26.5923  -21.9435  -16.7442 C   0  0  0  0  0  0  0  0  0  0  0  0
   26.8111  -22.8886  -15.5697 C   0  0  0  0  0  0  0  0  0  0  0  0
   25.4456  -23.0976  -14.9289 C   0  0  2  0  0  0  0  0  0  0  0  0
   24.5757  -22.4336  -16.0123 C   0  0  0  0  0  0  0  0  0  0  0  0
   23.1881  -22.4418  -15.6995 O   0  0  0  0  0  0  0  0  0  0  0  0
   22.3757  -23.1135  -16.4420 O   0  0  0  0  0  0  0  0  0  0  0  0
  2  1  1  6
  3  2  1  0
  4  3  1  0
  5  4  1  0
  5  6  1  0
  7  6  1  0
  8  2  1  0
  9  8  2  0
 10 11  1  0
 11 12  2  0
 13 11  1  0
 13 14  1  0
 14 15  1  0
 16 15  1  0
 17 16  1  1
 17 18  1  0
 18  8  1  0
 19 21  1  0
 19 17  1  0
 20 19  2  0
 21 22  1  0
 23 22  1  0
 24 23  1  0
 25 26  1  1
 25 21  1  0
 25 24  1  0
 26 28  1  0
 27 26  2  0
M  END
$$$$
