KRP.pdb
     RDKit          3D

 28 28  0  0  1  0  0  0  0  0999 V2000
   20.0800  -19.8171  -14.0155 N   0  0  0  0  0  0  0  0  0  0  0  0
   21.1730  -20.5422  -14.5874 C   0  0  1  0  0  0  0  0  0  0  0  0
   21.1014  -20.7330  -16.0754 C   0  0  0  0  0  0  0  0  0  0  0  0
   20.0732  -21.6858  -16.5466 C   0  0  0  0  0  0  0  0  0  0  0  0
   19.1336  -22.2311  -15.5330 C   0  0  0  0  0  0  0  0  0  0  0  0
   18.0617  -23.1162  -16.1310 C   0  0  0  0  0  0  0  0  0  0  0  0
   18.6301  -24.2276  -16.8791 N   0  0  0  0  0  0  0  0  0  0  0  0
   22.5054  -20.0600  -14.1516 C   0  0  0  0  0  0  0  0  0  0  0  0
   22.7009  -18.8080  -14.0840 O   0  0  0  0  0  0  0  0  0  0  0  0
   30.3563  -22.4479  -11.4202 N   0  0  0  0  0  0  0  0  0  0  0  0
   29.8873  -21.6063  -10.3698 C   0  0  0  0  0  0  0  0  0  0  0  0
   30.6646  -21.2107   -9.4122 N   0  0  0  0  0  0  0  0  0  0  0  0
   28.5379  -21.1658  -10.3310 N   0  0  0  0  0  0  0  0  0  0  0  0
   27.6102  -21.5470  -11.4266 C   0  0  0  0  0  0  0  0  0  0  0  0
   26.2878  -20.9029  -11.2349 C   0  0  0  0  0  0  0  0  0  0  0  0
   25.2862  -21.2030  -12.2417 C   0  0  0  0  0  0  0  0  0  0  0  0
   24.9021  -20.2465  -13.3208 C   0  0  2  0  0  0  0  0  0  0  0  0
   23.5736  -20.8838  -13.8074 N   0  0  0  0  0  0  0  0  0  0  0  0
   25.7156  -20.3132  -14.5134 C   0  0  0  0  0  0  0  0  0  0  0  0
   25.7909  -21.5654  -14.9536 O   0  0  0  0  0  0  0  0  0  0  0  0
   30.2509  -20.5876   -8.6913 N   0  0  0  0  0  0  0  0  0  0  0  0
   26.3973  -19.3402  -15.2604 C   0  0  0  0  0  0  0  0  0  0  0  0
   26.1318  -17.8880  -14.9555 C   0  0  0  0  0  0  0  0  0  0  0  0
   27.5721  -17.4636  -14.6987 C   0  0  0  0  0  0  0  0  0  0  0  0
   28.4502  -18.4505  -15.4562 C   0  0  2  0  0  0  0  0  0  0  0  0
   27.3533  -19.1601  -16.2715 C   0  0  0  0  0  0  0  0  0  0  0  0
   27.8570  -20.1969  -17.1050 O   0  0  0  0  0  0  0  0  0  0  0  0
   27.6921  -20.1195  -18.3815 O   0  0  0  0  0  0  0  0  0  0  0  0
  2  1  1  6
  3  2  1  0
  4  3  1  0
  5  4  1  0
  5  6  1  0
  7  6  1  0
  8  2  1  0
  9  8  2  0
 10 11  1  0
 11 12  2  0
 13 11  1  0
 13 14  1  0
 14 15  1  0
 16 15  1  0
 17 16  1  1
 17 18  1  0
 18  8  1  0
 19 21  1  0
 19 17  1  0
 20 19  2  0
 21 22  1  0
 23 22  1  0
 24 23  1  0
 25 26  1  1
 25 21  1  0
 25 24  1  0
 26 28  1  0
 27 26  2  0
M  END
$$$$
