HYP.pdb
     RDKit          3D

 30 32  0  0  1  0  0  0  0  0999 V2000
    8.9085  -19.7418   24.3200 N   0  0  0  0  0  0  0  0  0  0  0  0
    8.7056  -18.4552   23.7175 C   0  0  1  0  0  0  0  0  0  0  0  0
    7.5855  -18.5323   22.7208 C   0  0  0  0  0  0  0  0  0  0  0  0
    8.0493  -17.8297   21.4850 C   0  0  0  0  0  0  0  0  0  0  0  0
    9.0775  -18.2436   20.6311 C   0  0  0  0  0  0  0  0  0  0  0  0
    9.2014  -17.3541   19.6296 N   0  0  0  0  0  0  0  0  0  0  0  0
    8.2883  -16.3916   19.8187 C   0  0  0  0  0  0  0  0  0  0  0  0
    7.5970  -16.6872   20.9419 N   0  0  0  0  0  0  0  0  0  0  0  0
    8.4752  -17.4511   24.7773 C   0  0  0  0  0  0  0  0  0  0  0  0
    7.5312  -17.6596   25.5903 O   0  0  0  0  0  0  0  0  0  0  0  0
   11.4264  -18.1798   30.9578 O   0  0  0  0  0  0  0  0  0  0  0  0
   11.0693  -17.3329   29.9270 C   0  0  0  0  0  0  0  0  0  0  0  0
   10.3259  -16.1927   30.1636 C   0  0  0  0  0  0  0  0  0  0  0  0
    9.9910  -15.3735   29.1020 C   0  0  0  0  0  0  0  0  0  0  0  0
   10.3591  -15.6312   27.8102 C   0  0  0  0  0  0  0  0  0  0  0  0
   10.0117  -14.7616   26.6550 C   0  0  0  0  0  0  0  0  0  0  0  0
    8.7746  -15.2927   25.9329 C   0  0  2  0  0  0  0  0  0  0  0  0
    9.2297  -16.2888   24.9404 N   0  0  0  0  0  0  0  0  0  0  0  0
    8.2029  -14.1687   25.1558 C   0  0  0  0  0  0  0  0  0  0  0  0
    8.6102  -14.0291   23.9364 O   0  0  0  0  0  0  0  0  0  0  0  0
   11.0998  -16.7664   27.5713 C   0  0  0  0  0  0  0  0  0  0  0  0
   11.4485  -17.6060   28.6261 C   0  0  0  0  0  0  0  0  0  0  0  0
    7.2549  -13.2257   25.5936 N   0  0  0  0  0  0  0  0  0  0  0  0
    6.5403  -13.3219   26.8795 C   0  0  0  0  0  0  0  0  0  0  0  0
    5.2141  -12.6648   26.5077 C   0  0  0  0  0  0  0  0  0  0  0  0
    5.7351  -11.4194   25.8212 C   0  0  0  0  0  0  0  0  0  0  0  0
    6.8184  -12.0423   24.9080 C   0  0  1  0  0  0  0  0  0  0  0  0
    7.8729  -11.0115   24.8156 C   0  0  0  0  0  0  0  0  0  0  0  0
    7.7023   -9.8879   24.0376 O   0  0  0  0  0  0  0  0  0  0  0  0
    8.9340  -11.1607   25.4516 O   0  0  0  0  0  0  0  0  0  0  0  0
  2  1  1  1
  2  3  1  0
  3  4  1  0
  4  8  1  0
  5  4  2  0
  5  6  1  0
  6  7  1  0
  8  7  2  0
  9 18  1  0
  9  2  1  0
 10  9  2  0
 12 11  1  0
 13 12  2  0
 14 13  1  0
 15 14  2  0
 15 21  1  0
 17 16  1  6
 16 15  1  0
 17 18  1  0
 19 17  1  0
 20 19  2  0
 21 22  2  0
 22 12  1  0
 23 27  1  0
 23 19  1  0
 24 23  1  0
 25 26  1  0
 25 24  1  0
 26 27  1  0
 27 28  1  1
 28 30  2  0
 28 29  1  0
M  END
$$$$
