HYP.pdb
     RDKit          3D

 30 32  0  0  1  0  0  0  0  0999 V2000
   11.6986  -16.6454   20.1440 N   0  0  0  0  0  0  0  0  0  0  0  0
   11.3028  -17.3821   21.3103 C   0  0  1  0  0  0  0  0  0  0  0  0
   12.4319  -18.2625   21.7620 C   0  0  0  0  0  0  0  0  0  0  0  0
   12.4218  -19.4732   20.8845 C   0  0  0  0  0  0  0  0  0  0  0  0
   11.5233  -20.5433   20.9566 C   0  0  0  0  0  0  0  0  0  0  0  0
   11.8324  -21.4413   20.0040 N   0  0  0  0  0  0  0  0  0  0  0  0
   12.8949  -20.9782   19.3311 C   0  0  0  0  0  0  0  0  0  0  0  0
   13.2440  -19.7888   19.8700 N   0  0  0  0  0  0  0  0  0  0  0  0
   10.8465  -16.4382   22.3521 C   0  0  0  0  0  0  0  0  0  0  0  0
   11.6641  -15.5617   22.7509 O   0  0  0  0  0  0  0  0  0  0  0  0
    6.1280  -11.0954   27.4353 O   0  0  0  0  0  0  0  0  0  0  0  0
    6.5123  -12.0810   26.5475 C   0  0  0  0  0  0  0  0  0  0  0  0
    6.2489  -13.4133   26.8006 C   0  0  0  0  0  0  0  0  0  0  0  0
    6.6517  -14.3664   25.8843 C   0  0  0  0  0  0  0  0  0  0  0  0
    7.3065  -14.0612   24.7230 C   0  0  0  0  0  0  0  0  0  0  0  0
    7.7455  -15.0708   23.7233 C   0  0  0  0  0  0  0  0  0  0  0  0
    9.2314  -15.3841   23.8896 C   0  0  2  0  0  0  0  0  0  0  0  0
    9.5742  -16.4497   22.9245 N   0  0  0  0  0  0  0  0  0  0  0  0
    9.4079  -15.9757   25.2361 C   0  0  0  0  0  0  0  0  0  0  0  0
    9.1895  -17.2447   25.3545 O   0  0  0  0  0  0  0  0  0  0  0  0
    7.5704  -12.7347   24.4680 C   0  0  0  0  0  0  0  0  0  0  0  0
    7.1736  -11.7577   25.3775 C   0  0  0  0  0  0  0  0  0  0  0  0
    9.7928  -15.3107   26.4147 N   0  0  0  0  0  0  0  0  0  0  0  0
    9.7072  -13.8498   26.5940 C   0  0  0  0  0  0  0  0  0  0  0  0
   10.8889  -13.6174   27.5312 C   0  0  0  0  0  0  0  0  0  0  0  0
   10.6147  -14.7001   28.5540 C   0  0  0  0  0  0  0  0  0  0  0  0
   10.3188  -15.8951   27.6159 C   0  0  1  0  0  0  0  0  0  0  0  0
    9.3214  -16.7078   28.3424 C   0  0  0  0  0  0  0  0  0  0  0  0
    8.0122  -16.7713   27.9194 O   0  0  0  0  0  0  0  0  0  0  0  0
    9.6697  -17.3462   29.3542 O   0  0  0  0  0  0  0  0  0  0  0  0
  2  1  1  6
  2  3  1  0
  3  4  1  0
  4  8  1  0
  5  4  2  0
  5  6  1  0
  6  7  1  0
  8  7  2  0
  9 18  1  0
  9  2  1  0
 10  9  2  0
 12 11  1  0
 13 12  2  0
 14 13  1  0
 15 14  2  0
 15 21  1  0
 17 16  1  6
 16 15  1  0
 17 18  1  0
 19 17  1  0
 20 19  2  0
 21 22  2  0
 22 12  1  0
 23 27  1  0
 23 19  1  0
 24 23  1  0
 25 26  1  0
 25 24  1  0
 26 27  1  0
 27 28  1  1
 28 30  2  0
 28 29  1  0
M  END
$$$$
