HYP.pdb
     RDKit          3D

 30 32  0  0  1  0  0  0  0  0999 V2000
   11.8806  -17.0820   20.4627 N   0  0  0  0  0  0  0  0  0  0  0  0
   11.2988  -17.6834   21.6287 C   0  0  1  0  0  0  0  0  0  0  0  0
   12.2415  -18.7039   22.1976 C   0  0  0  0  0  0  0  0  0  0  0  0
   12.1039  -19.9393   21.3665 C   0  0  0  0  0  0  0  0  0  0  0  0
   12.9178  -20.3112   20.2909 C   0  0  0  0  0  0  0  0  0  0  0  0
   12.4826  -21.4838   19.7958 N   0  0  0  0  0  0  0  0  0  0  0  0
   11.4220  -21.8679   20.5194 C   0  0  0  0  0  0  0  0  0  0  0  0
   11.2005  -20.9288   21.4659 N   0  0  0  0  0  0  0  0  0  0  0  0
   10.9341  -16.6245   22.5932 C   0  0  0  0  0  0  0  0  0  0  0  0
   11.7078  -15.6316   22.6975 O   0  0  0  0  0  0  0  0  0  0  0  0
    6.9611  -12.9009   19.0628 O   0  0  0  0  0  0  0  0  0  0  0  0
    7.2134  -13.4683   20.2964 C   0  0  0  0  0  0  0  0  0  0  0  0
    6.7927  -14.7502   20.5931 C   0  0  0  0  0  0  0  0  0  0  0  0
    7.0669  -15.2784   21.8405 C   0  0  0  0  0  0  0  0  0  0  0  0
    7.7417  -14.5937   22.8133 C   0  0  0  0  0  0  0  0  0  0  0  0
    8.0493  -15.1447   24.1599 C   0  0  0  0  0  0  0  0  0  0  0  0
    9.5331  -15.4889   24.2760 C   0  0  2  0  0  0  0  0  0  0  0  0
    9.7932  -16.6477   23.3961 N   0  0  0  0  0  0  0  0  0  0  0  0
    9.7678  -15.9618   25.6599 C   0  0  0  0  0  0  0  0  0  0  0  0
    9.8889  -17.2375   25.8333 O   0  0  0  0  0  0  0  0  0  0  0  0
    8.1622  -13.3163   22.5207 C   0  0  0  0  0  0  0  0  0  0  0  0
    7.8967  -12.7643   21.2702 C   0  0  0  0  0  0  0  0  0  0  0  0
    9.8785  -15.1755   26.8214 N   0  0  0  0  0  0  0  0  0  0  0  0
    9.4687  -13.7611   26.8929 C   0  0  0  0  0  0  0  0  0  0  0  0
   10.4702  -13.2354   27.9173 C   0  0  0  0  0  0  0  0  0  0  0  0
   10.3247  -14.3033   28.9812 C   0  0  0  0  0  0  0  0  0  0  0  0
   10.3871  -15.5761   28.1028 C   0  0  1  0  0  0  0  0  0  0  0  0
    9.5128  -16.5508   28.7873 C   0  0  0  0  0  0  0  0  0  0  0  0
    9.9491  -17.2402   29.8970 O   0  0  0  0  0  0  0  0  0  0  0  0
    8.3621  -16.7528   28.3541 O   0  0  0  0  0  0  0  0  0  0  0  0
  2  1  1  6
  2  3  1  0
  3  4  1  0
  4  8  1  0
  5  4  2  0
  5  6  1  0
  6  7  1  0
  8  7  2  0
  9 18  1  0
  9  2  1  0
 10  9  2  0
 12 11  1  0
 13 12  2  0
 14 13  1  0
 15 14  2  0
 15 21  1  0
 17 16  1  1
 16 15  1  0
 17 18  1  0
 19 17  1  0
 20 19  2  0
 21 22  2  0
 22 12  1  0
 23 27  1  0
 23 19  1  0
 24 23  1  0
 25 26  1  0
 25 24  1  0
 26 27  1  0
 27 28  1  1
 28 30  2  0
 28 29  1  0
M  END
$$$$
