HYP.pdb
     RDKit          3D

 30 32  0  0  1  0  0  0  0  0999 V2000
   10.7324  -18.3961   21.2629 N   0  0  0  0  0  0  0  0  0  0  0  0
   11.4678  -17.1641   21.2297 C   0  0  1  0  0  0  0  0  0  0  0  0
   11.5282  -16.6467   19.8217 C   0  0  0  0  0  0  0  0  0  0  0  0
   10.1947  -16.9121   19.1996 C   0  0  0  0  0  0  0  0  0  0  0  0
    9.9004  -17.9049   18.2585 C   0  0  0  0  0  0  0  0  0  0  0  0
    8.5964  -17.8319   17.9363 N   0  0  0  0  0  0  0  0  0  0  0  0
    8.0542  -16.8283   18.6397 C   0  0  0  0  0  0  0  0  0  0  0  0
    9.0271  -16.2784   19.4000 N   0  0  0  0  0  0  0  0  0  0  0  0
   10.8591  -16.2070   22.1772 C   0  0  0  0  0  0  0  0  0  0  0  0
   11.4016  -15.0726   22.2978 O   0  0  0  0  0  0  0  0  0  0  0  0
    5.8947  -11.3352   27.3995 O   0  0  0  0  0  0  0  0  0  0  0  0
    6.3471  -12.3173   26.5403 C   0  0  0  0  0  0  0  0  0  0  0  0
    6.2011  -13.6567   26.8454 C   0  0  0  0  0  0  0  0  0  0  0  0
    6.6687  -14.6059   25.9563 C   0  0  0  0  0  0  0  0  0  0  0  0
    7.2772  -14.2900   24.7728 C   0  0  0  0  0  0  0  0  0  0  0  0
    7.7843  -15.2955   23.8016 C   0  0  0  0  0  0  0  0  0  0  0  0
    9.2976  -15.4575   23.9334 C   0  0  2  0  0  0  0  0  0  0  0  0
    9.7260  -16.4717   22.9472 N   0  0  0  0  0  0  0  0  0  0  0  0
    9.5625  -16.0432   25.2678 C   0  0  0  0  0  0  0  0  0  0  0  0
    9.5847  -17.3335   25.3503 O   0  0  0  0  0  0  0  0  0  0  0  0
    7.4241  -12.9564   24.4660 C   0  0  0  0  0  0  0  0  0  0  0  0
    6.9604  -11.9832   25.3474 C   0  0  0  0  0  0  0  0  0  0  0  0
    9.7985  -15.3513   26.4700 N   0  0  0  0  0  0  0  0  0  0  0  0
    9.4708  -13.9281   26.6717 C   0  0  0  0  0  0  0  0  0  0  0  0
   10.5703  -13.5282   27.6515 C   0  0  0  0  0  0  0  0  0  0  0  0
   10.4455  -14.6639   28.6457 C   0  0  0  0  0  0  0  0  0  0  0  0
   10.3764  -15.8696   27.6777 C   0  0  1  0  0  0  0  0  0  0  0  0
    9.5033  -16.8495   28.3564 C   0  0  0  0  0  0  0  0  0  0  0  0
    9.9708  -17.6126   29.4033 O   0  0  0  0  0  0  0  0  0  0  0  0
    8.3249  -16.9881   27.9759 O   0  0  0  0  0  0  0  0  0  0  0  0
  2  1  1  6
  2  3  1  0
  3  4  1  0
  4  8  1  0
  5  4  2  0
  5  6  1  0
  6  7  1  0
  8  7  2  0
  9 18  1  0
  9  2  1  0
 10  9  2  0
 12 11  1  0
 13 12  2  0
 14 13  1  0
 15 14  2  0
 15 21  1  0
 17 16  1  1
 16 15  1  0
 17 18  1  0
 19 17  1  0
 20 19  2  0
 21 22  2  0
 22 12  1  0
 23 27  1  0
 23 19  1  0
 24 23  1  0
 25 26  1  0
 25 24  1  0
 26 27  1  0
 27 28  1  1
 28 30  2  0
 28 29  1  0
M  END
$$$$
