HYP.pdb
     RDKit          3D

 30 32  0  0  1  0  0  0  0  0999 V2000
    9.9622  -13.5536   19.7284 N   0  0  0  0  0  0  0  0  0  0  0  0
    8.8985  -14.1875   20.4539 C   0  0  1  0  0  0  0  0  0  0  0  0
    8.4111  -15.3877   19.6950 C   0  0  0  0  0  0  0  0  0  0  0  0
    7.7318  -14.8811   18.4630 C   0  0  0  0  0  0  0  0  0  0  0  0
    7.6878  -13.5528   18.0258 C   0  0  0  0  0  0  0  0  0  0  0  0
    6.9858  -13.4905   16.8801 N   0  0  0  0  0  0  0  0  0  0  0  0
    6.5834  -14.7321   16.5759 C   0  0  0  0  0  0  0  0  0  0  0  0
    7.0386  -15.5655   17.5377 N   0  0  0  0  0  0  0  0  0  0  0  0
    9.3638  -14.5102   21.8191 C   0  0  0  0  0  0  0  0  0  0  0  0
   10.5624  -14.8831   21.9596 O   0  0  0  0  0  0  0  0  0  0  0  0
   10.4707  -14.9745   30.5140 O   0  0  0  0  0  0  0  0  0  0  0  0
    9.9143  -14.8124   29.2605 C   0  0  0  0  0  0  0  0  0  0  0  0
    9.0675  -15.7640   28.7257 C   0  0  0  0  0  0  0  0  0  0  0  0
    8.5332  -15.5607   27.4675 C   0  0  0  0  0  0  0  0  0  0  0  0
    8.7989  -14.4538   26.7094 C   0  0  0  0  0  0  0  0  0  0  0  0
    8.2322  -14.2148   25.3554 C   0  0  0  0  0  0  0  0  0  0  0  0
    9.2004  -14.6904   24.2737 C   0  0  2  0  0  0  0  0  0  0  0  0
    8.5687  -14.4306   22.9629 N   0  0  0  0  0  0  0  0  0  0  0  0
    9.3064  -16.1628   24.3950 C   0  0  0  0  0  0  0  0  0  0  0  0
    8.2285  -16.8489   24.1961 O   0  0  0  0  0  0  0  0  0  0  0  0
    9.6422  -13.5039   27.2394 C   0  0  0  0  0  0  0  0  0  0  0  0
   10.1919  -13.6883   28.5054 C   0  0  0  0  0  0  0  0  0  0  0  0
   10.4574  -16.9114   24.7024 N   0  0  0  0  0  0  0  0  0  0  0  0
   11.7855  -16.3125   24.9288 C   0  0  0  0  0  0  0  0  0  0  0  0
   12.6845  -17.4321   24.4120 C   0  0  0  0  0  0  0  0  0  0  0  0
   12.0575  -18.6089   25.1300 C   0  0  0  0  0  0  0  0  0  0  0  0
   10.5602  -18.3359   24.8488 C   0  0  1  0  0  0  0  0  0  0  0  0
    9.8531  -18.8417   26.0435 C   0  0  0  0  0  0  0  0  0  0  0  0
    9.6923  -20.1931   26.2551 O   0  0  0  0  0  0  0  0  0  0  0  0
    9.3945  -18.0331   26.8733 O   0  0  0  0  0  0  0  0  0  0  0  0
  2  1  1  6
  2  3  1  0
  3  4  1  0
  4  8  1  0
  5  4  2  0
  5  6  1  0
  6  7  1  0
  8  7  2  0
  9 18  1  0
  9  2  1  0
 10  9  2  0
 12 11  1  0
 13 12  2  0
 14 13  1  0
 15 14  2  0
 15 21  1  0
 17 16  1  1
 16 15  1  0
 17 18  1  0
 19 17  1  0
 20 19  2  0
 21 22  2  0
 22 12  1  0
 23 27  1  0
 23 19  1  0
 24 23  1  0
 25 26  1  0
 25 24  1  0
 26 27  1  0
 27 28  1  1
 28 30  2  0
 28 29  1  0
M  END
$$$$
