HYP.pdb
     RDKit          3D

 30 32  0  0  1  0  0  0  0  0999 V2000
    6.9305  -17.2505   20.2615 N   0  0  0  0  0  0  0  0  0  0  0  0
    7.2988  -15.9555   20.7588 C   0  0  1  0  0  0  0  0  0  0  0  0
    6.4034  -14.9089   20.1615 C   0  0  0  0  0  0  0  0  0  0  0  0
    7.1775  -14.2402   19.0709 C   0  0  0  0  0  0  0  0  0  0  0  0
    7.8924  -13.0419   19.1748 C   0  0  0  0  0  0  0  0  0  0  0  0
    8.4558  -12.7621   17.9858 N   0  0  0  0  0  0  0  0  0  0  0  0
    8.1232  -13.7404   17.1324 C   0  0  0  0  0  0  0  0  0  0  0  0
    7.3510  -14.6288   17.7966 N   0  0  0  0  0  0  0  0  0  0  0  0
    7.2695  -15.9740   22.2364 C   0  0  0  0  0  0  0  0  0  0  0  0
    6.2761  -16.5149   22.7986 O   0  0  0  0  0  0  0  0  0  0  0  0
    9.2825  -17.5506   30.4959 O   0  0  0  0  0  0  0  0  0  0  0  0
    9.2996  -17.3107   29.1359 C   0  0  0  0  0  0  0  0  0  0  0  0
   10.1410  -16.3619   28.5880 C   0  0  0  0  0  0  0  0  0  0  0  0
   10.1251  -16.1547   27.2216 C   0  0  0  0  0  0  0  0  0  0  0  0
    9.3110  -16.8462   26.3674 C   0  0  0  0  0  0  0  0  0  0  0  0
    9.2806  -16.6406   24.8949 C   0  0  0  0  0  0  0  0  0  0  0  0
    8.1738  -15.6607   24.5097 C   0  0  2  0  0  0  0  0  0  0  0  0
    8.2647  -15.4344   23.0519 N   0  0  0  0  0  0  0  0  0  0  0  0
    8.4934  -14.3631   25.1485 C   0  0  0  0  0  0  0  0  0  0  0  0
    9.6199  -13.8128   24.8315 O   0  0  0  0  0  0  0  0  0  0  0  0
    8.4715  -17.7922   26.9103 C   0  0  0  0  0  0  0  0  0  0  0  0
    8.4711  -18.0173   28.2844 C   0  0  0  0  0  0  0  0  0  0  0  0
    7.7039  -13.6494   26.0688 N   0  0  0  0  0  0  0  0  0  0  0  0
    6.4120  -14.1355   26.5868 C   0  0  0  0  0  0  0  0  0  0  0  0
    5.6835  -12.8113   26.7973 C   0  0  0  0  0  0  0  0  0  0  0  0
    6.7594  -12.0487   27.5420 C   0  0  0  0  0  0  0  0  0  0  0  0
    7.9869  -12.3702   26.6557 C   0  0  1  0  0  0  0  0  0  0  0  0
    9.1292  -12.4093   27.5921 C   0  0  0  0  0  0  0  0  0  0  0  0
    9.7360  -11.2499   28.0217 O   0  0  0  0  0  0  0  0  0  0  0  0
    9.5508  -13.5086   27.9999 O   0  0  0  0  0  0  0  0  0  0  0  0
  2  1  1  6
  2  3  1  0
  3  4  1  0
  4  8  1  0
  5  4  2  0
  5  6  1  0
  6  7  1  0
  8  7  2  0
  9 18  1  0
  9  2  1  0
 10  9  2  0
 12 11  1  0
 13 12  2  0
 14 13  1  0
 15 14  2  0
 15 21  1  0
 17 16  1  1
 16 15  1  0
 17 18  1  0
 19 17  1  0
 20 19  2  0
 21 22  2  0
 22 12  1  0
 23 27  1  0
 23 19  1  0
 24 23  1  0
 25 26  1  0
 25 24  1  0
 26 27  1  0
 27 28  1  1
 28 30  2  0
 28 29  1  0
M  END
$$$$
