HYP.pdb
     RDKit          3D

 30 32  0  0  1  0  0  0  0  0999 V2000
   10.2906  -15.3871   19.8507 N   0  0  0  0  0  0  0  0  0  0  0  0
    9.2739  -14.8287   20.6957 C   0  0  1  0  0  0  0  0  0  0  0  0
    7.9183  -15.2415   20.1997 C   0  0  0  0  0  0  0  0  0  0  0  0
    7.7475  -14.6420   18.8406 C   0  0  0  0  0  0  0  0  0  0  0  0
    7.7859  -13.2798   18.5233 C   0  0  0  0  0  0  0  0  0  0  0  0
    7.5919  -13.1313   17.2005 N   0  0  0  0  0  0  0  0  0  0  0  0
    7.4319  -14.3509   16.6686 C   0  0  0  0  0  0  0  0  0  0  0  0
    7.5275  -15.2573   17.6667 N   0  0  0  0  0  0  0  0  0  0  0  0
    9.5293  -15.2282   22.0956 C   0  0  0  0  0  0  0  0  0  0  0  0
   10.4040  -16.1154   22.3041 O   0  0  0  0  0  0  0  0  0  0  0  0
   10.4524  -15.4385   30.7903 O   0  0  0  0  0  0  0  0  0  0  0  0
   10.0350  -15.0930   29.5200 C   0  0  0  0  0  0  0  0  0  0  0  0
   10.1579  -13.7980   29.0547 C   0  0  0  0  0  0  0  0  0  0  0  0
    9.7270  -13.4967   27.7765 C   0  0  0  0  0  0  0  0  0  0  0  0
    9.1771  -14.4219   26.9326 C   0  0  0  0  0  0  0  0  0  0  0  0
    8.7102  -14.1190   25.5536 C   0  0  0  0  0  0  0  0  0  0  0  0
    9.3241  -15.0934   24.5499 C   0  0  2  0  0  0  0  0  0  0  0  0
    8.8699  -14.6917   23.2019 N   0  0  0  0  0  0  0  0  0  0  0  0
    8.7259  -16.4239   24.8065 C   0  0  0  0  0  0  0  0  0  0  0  0
    9.1849  -17.0910   25.8147 O   0  0  0  0  0  0  0  0  0  0  0  0
    9.0533  -15.7130   27.3932 C   0  0  0  0  0  0  0  0  0  0  0  0
    9.4809  -16.0388   28.6778 C   0  0  0  0  0  0  0  0  0  0  0  0
    7.7024  -17.0531   24.0743 N   0  0  0  0  0  0  0  0  0  0  0  0
    7.0221  -16.4335   22.9223 C   0  0  0  0  0  0  0  0  0  0  0  0
    5.6346  -17.0547   23.0548 C   0  0  0  0  0  0  0  0  0  0  0  0
    6.0259  -18.5064   23.2364 C   0  0  0  0  0  0  0  0  0  0  0  0
    7.1463  -18.3584   24.2939 C   0  0  1  0  0  0  0  0  0  0  0  0
    8.0990  -19.4459   23.9897 C   0  0  0  0  0  0  0  0  0  0  0  0
    9.0219  -19.8640   24.9227 O   0  0  0  0  0  0  0  0  0  0  0  0
    8.0675  -19.9941   22.8712 O   0  0  0  0  0  0  0  0  0  0  0  0
  2  1  1  6
  2  3  1  0
  3  4  1  0
  4  8  1  0
  5  4  2  0
  5  6  1  0
  6  7  1  0
  8  7  2  0
  9 18  1  0
  9  2  1  0
 10  9  2  0
 12 11  1  0
 13 12  2  0
 14 13  1  0
 15 14  2  0
 15 21  1  0
 17 16  1  1
 16 15  1  0
 17 18  1  0
 19 17  1  0
 20 19  2  0
 21 22  2  0
 22 12  1  0
 23 27  1  0
 23 19  1  0
 24 23  1  0
 25 26  1  0
 25 24  1  0
 26 27  1  0
 27 28  1  6
 28 30  2  0
 28 29  1  0
M  END
$$$$
