HYP.pdb
     RDKit          3D

 30 32  0  0  1  0  0  0  0  0999 V2000
   11.7837  -16.3098   20.0430 N   0  0  0  0  0  0  0  0  0  0  0  0
   11.2346  -17.1081   21.1017 C   0  0  1  0  0  0  0  0  0  0  0  0
   12.2362  -18.1411   21.5305 C   0  0  0  0  0  0  0  0  0  0  0  0
   12.2250  -19.2191   20.4943 C   0  0  0  0  0  0  0  0  0  0  0  0
   11.4297  -19.2566   19.3438 C   0  0  0  0  0  0  0  0  0  0  0  0
   11.7010  -20.3820   18.6588 N   0  0  0  0  0  0  0  0  0  0  0  0
   12.6398  -21.0588   19.3345 C   0  0  0  0  0  0  0  0  0  0  0  0
   12.9503  -20.3488   20.4419 N   0  0  0  0  0  0  0  0  0  0  0  0
   10.7999  -16.2245   22.2038 C   0  0  0  0  0  0  0  0  0  0  0  0
   11.5089  -15.2110   22.4601 O   0  0  0  0  0  0  0  0  0  0  0  0
    5.8457  -11.4002   27.5701 O   0  0  0  0  0  0  0  0  0  0  0  0
    6.3256  -12.2786   26.6185 C   0  0  0  0  0  0  0  0  0  0  0  0
    7.0192  -11.8258   25.5128 C   0  0  0  0  0  0  0  0  0  0  0  0
    7.4815  -12.7403   24.5855 C   0  0  0  0  0  0  0  0  0  0  0  0
    7.2884  -14.0894   24.7015 C   0  0  0  0  0  0  0  0  0  0  0  0
    7.7799  -15.0897   23.7170 C   0  0  0  0  0  0  0  0  0  0  0  0
    9.2628  -15.3818   23.9391 C   0  0  2  0  0  0  0  0  0  0  0  0
    9.6595  -16.4341   22.9801 N   0  0  0  0  0  0  0  0  0  0  0  0
    9.3956  -15.9818   25.2869 C   0  0  0  0  0  0  0  0  0  0  0  0
    9.1968  -17.2557   25.3861 O   0  0  0  0  0  0  0  0  0  0  0  0
    6.5977  -14.5436   25.8019 C   0  0  0  0  0  0  0  0  0  0  0  0
    6.1229  -13.6398   26.7488 C   0  0  0  0  0  0  0  0  0  0  0  0
    9.7194  -15.3201   26.4856 N   0  0  0  0  0  0  0  0  0  0  0  0
    9.5789  -13.8654   26.6798 C   0  0  0  0  0  0  0  0  0  0  0  0
   10.7210  -13.6063   27.6581 C   0  0  0  0  0  0  0  0  0  0  0  0
   10.4504  -14.7111   28.6580 C   0  0  0  0  0  0  0  0  0  0  0  0
   10.2256  -15.9027   27.6962 C   0  0  1  0  0  0  0  0  0  0  0  0
    9.2330  -16.7577   28.3795 C   0  0  0  0  0  0  0  0  0  0  0  0
    9.6022  -17.5863   29.4159 O   0  0  0  0  0  0  0  0  0  0  0  0
    8.0425  -16.7291   28.0126 O   0  0  0  0  0  0  0  0  0  0  0  0
  2  1  1  6
  2  3  1  0
  3  4  1  0
  4  8  1  0
  5  4  2  0
  5  6  1  0
  6  7  1  0
  8  7  2  0
  9 18  1  0
  9  2  1  0
 10  9  2  0
 12 11  1  0
 13 12  2  0
 14 13  1  0
 15 14  2  0
 15 21  1  0
 17 16  1  6
 16 15  1  0
 17 18  1  0
 19 17  1  0
 20 19  2  0
 21 22  2  0
 22 12  1  0
 23 27  1  0
 23 19  1  0
 24 23  1  0
 25 26  1  0
 25 24  1  0
 26 27  1  0
 27 28  1  1
 28 30  2  0
 28 29  1  0
M  END
$$$$
