IYP.pdb
     RDKit          3D

 28 29  0  0  1  0  0  0  0  0999 V2000
   16.9850   -2.3402  -18.4702 C   0  0  0  0  0  0  0  0  0  0  0  0
   18.1532   -2.5745  -17.5559 C   0  0  0  0  0  0  0  0  0  0  0  0
   18.3113   -4.0005  -17.1364 C   0  0  2  0  0  0  0  0  0  0  0  0
   17.1392   -4.4528  -16.3199 C   0  0  0  0  0  0  0  0  0  0  0  0
   19.6064   -4.2573  -16.3707 C   0  0  2  0  0  0  0  0  0  0  0  0
   20.7207   -4.0069  -17.3046 N   0  0  0  0  0  0  0  0  0  0  0  0
   19.6616   -5.6755  -15.9882 C   0  0  0  0  0  0  0  0  0  0  0  0
   18.7561   -6.1818  -15.2541 O   0  0  0  0  0  0  0  0  0  0  0  0
   18.4203  -13.8889  -15.6980 O   0  0  0  0  0  0  0  0  0  0  0  0
   18.6422  -12.5713  -15.9928 C   0  0  0  0  0  0  0  0  0  0  0  0
   18.4277  -11.5709  -15.0553 C   0  0  0  0  0  0  0  0  0  0  0  0
   18.6400  -10.2546  -15.3216 C   0  0  0  0  0  0  0  0  0  0  0  0
   19.0897   -9.8885  -16.5798 C   0  0  0  0  0  0  0  0  0  0  0  0
   19.3234   -8.4750  -16.8829 C   0  0  0  0  0  0  0  0  0  0  0  0
   20.6053   -7.9926  -16.1222 C   0  0  2  0  0  0  0  0  0  0  0  0
   20.7056   -6.5904  -16.3983 N   0  0  0  0  0  0  0  0  0  0  0  0
   21.6448   -8.8996  -16.5037 C   0  0  0  0  0  0  0  0  0  0  0  0
   21.8865   -8.9643  -17.7777 O   0  0  0  0  0  0  0  0  0  0  0  0
   19.3039  -10.8754  -17.5122 C   0  0  0  0  0  0  0  0  0  0  0  0
   19.0875  -12.2036  -17.2371 C   0  0  0  0  0  0  0  0  0  0  0  0
   22.4403   -9.7283  -15.6870 N   0  0  0  0  0  0  0  0  0  0  0  0
   22.4248   -9.7719  -14.2521 C   0  0  0  0  0  0  0  0  0  0  0  0
   23.7092  -10.5399  -13.8467 C   0  0  0  0  0  0  0  0  0  0  0  0
   23.8158  -11.5097  -14.9965 C   0  0  0  0  0  0  0  0  0  0  0  0
   23.4831  -10.6268  -16.1604 C   0  0  1  0  0  0  0  0  0  0  0  0
   23.0516  -11.4409  -17.3329 C   0  0  0  0  0  0  0  0  0  0  0  0
   24.0270  -11.8566  -18.2135 O   0  0  0  0  0  0  0  0  0  0  0  0
   21.8760  -11.7373  -17.5198 O   0  0  0  0  0  0  0  0  0  0  0  0
  1  2  1  0
  2  3  1  0
  3  4  1  1
  5  3  1  0
  5  6  1  6
  7  8  2  0
  7  5  1  0
  9 10  1  0
 10 11  2  0
 11 12  1  0
 13 12  2  0
 13 14  1  0
 15 14  1  6
 15 16  1  0
 16  7  1  0
 17 21  1  0
 17 15  1  0
 18 17  2  0
 19 13  1  0
 20 10  1  0
 20 19  2  0
 21 25  1  0
 22 21  1  0
 23 22  1  0
 23 24  1  0
 24 25  1  0
 25 26  1  6
 26 28  2  0
 26 27  1  0
M  END
$$$$
