IYP.pdb
     RDKit          3D

 28 29  0  0  1  0  0  0  0  0999 V2000
   27.7177  -13.8711  -15.8983 C   0  0  0  0  0  0  0  0  0  0  0  0
   26.4231  -14.4533  -16.3888 C   0  0  0  0  0  0  0  0  0  0  0  0
   25.5425  -14.9662  -15.2952 C   0  0  2  0  0  0  0  0  0  0  0  0
   26.2187  -16.0638  -14.5318 C   0  0  0  0  0  0  0  0  0  0  0  0
   24.1837  -15.4457  -15.7985 C   0  0  2  0  0  0  0  0  0  0  0  0
   24.4363  -16.3612  -16.9273 N   0  0  0  0  0  0  0  0  0  0  0  0
   23.4354  -14.2943  -16.3231 C   0  0  0  0  0  0  0  0  0  0  0  0
   23.4500  -14.0268  -17.5653 O   0  0  0  0  0  0  0  0  0  0  0  0
   17.5255   -9.0085  -19.1699 O   0  0  0  0  0  0  0  0  0  0  0  0
   18.2332   -9.9206  -18.4354 C   0  0  0  0  0  0  0  0  0  0  0  0
   19.1194  -10.8050  -19.0339 C   0  0  0  0  0  0  0  0  0  0  0  0
   19.8349  -11.7209  -18.3282 C   0  0  0  0  0  0  0  0  0  0  0  0
   19.6781  -11.7799  -16.9530 C   0  0  0  0  0  0  0  0  0  0  0  0
   20.4413  -12.7605  -16.1781 C   0  0  0  0  0  0  0  0  0  0  0  0
   21.9364  -12.2995  -16.0980 C   0  0  2  0  0  0  0  0  0  0  0  0
   22.6418  -13.3985  -15.5090 N   0  0  0  0  0  0  0  0  0  0  0  0
   21.9107  -11.0133  -15.4705 C   0  0  0  0  0  0  0  0  0  0  0  0
   21.6731  -11.0219  -14.1941 O   0  0  0  0  0  0  0  0  0  0  0  0
   18.8016  -10.9062  -16.3550 C   0  0  0  0  0  0  0  0  0  0  0  0
   18.0816   -9.9832  -17.0735 C   0  0  0  0  0  0  0  0  0  0  0  0
   22.1090   -9.7427  -16.0476 N   0  0  0  0  0  0  0  0  0  0  0  0
   22.4385   -9.4760  -17.4191 C   0  0  0  0  0  0  0  0  0  0  0  0
   22.9092   -7.9990  -17.4529 C   0  0  0  0  0  0  0  0  0  0  0  0
   22.0302   -7.4130  -16.3769 C   0  0  0  0  0  0  0  0  0  0  0  0
   22.0983   -8.4786  -15.3259 C   0  0  1  0  0  0  0  0  0  0  0  0
   20.9478   -8.3642  -14.3842 C   0  0  0  0  0  0  0  0  0  0  0  0
   20.9450   -7.3003  -13.5079 O   0  0  0  0  0  0  0  0  0  0  0  0
   20.0307   -9.1790  -14.3780 O   0  0  0  0  0  0  0  0  0  0  0  0
  1  2  1  0
  2  3  1  0
  3  4  1  6
  5  3  1  0
  5  6  1  6
  7  8  2  0
  7  5  1  0
  9 10  1  0
 10 11  2  0
 11 12  1  0
 13 12  2  0
 13 14  1  0
 15 14  1  1
 15 16  1  0
 16  7  1  0
 17 21  1  0
 17 15  1  0
 18 17  2  0
 19 13  1  0
 20 10  1  0
 20 19  2  0
 21 25  1  0
 22 21  1  0
 23 22  1  0
 23 24  1  0
 24 25  1  0
 25 26  1  1
 26 28  2  0
 26 27  1  0
M  END
$$$$
