IYP.pdb
     RDKit          3D

 28 29  0  0  1  0  0  0  0  0999 V2000
   19.3593  -18.6393  -17.9316 C   0  0  0  0  0  0  0  0  0  0  0  0
   19.6318  -19.4626  -16.7055 C   0  0  0  0  0  0  0  0  0  0  0  0
   21.0314  -19.3364  -16.1958 C   0  0  2  0  0  0  0  0  0  0  0  0
   22.0249  -19.6576  -17.2704 C   0  0  0  0  0  0  0  0  0  0  0  0
   21.2993  -20.2009  -14.9669 C   0  0  2  0  0  0  0  0  0  0  0  0
   20.4612  -19.6739  -13.8732 N   0  0  0  0  0  0  0  0  0  0  0  0
   22.7036  -20.0370  -14.5648 C   0  0  0  0  0  0  0  0  0  0  0  0
   23.1349  -18.9081  -14.1717 O   0  0  0  0  0  0  0  0  0  0  0  0
   22.9732  -20.3084   -8.2664 O   0  0  0  0  0  0  0  0  0  0  0  0
   23.5617  -20.6968   -9.4391 C   0  0  0  0  0  0  0  0  0  0  0  0
   22.8554  -21.3903  -10.4117 C   0  0  0  0  0  0  0  0  0  0  0  0
   23.4153  -21.7879  -11.5852 C   0  0  0  0  0  0  0  0  0  0  0  0
   24.7467  -21.4921  -11.8277 C   0  0  0  0  0  0  0  0  0  0  0  0
   25.3650  -21.9132  -13.0866 C   0  0  0  0  0  0  0  0  0  0  0  0
   25.0430  -20.8543  -14.1955 C   0  0  2  0  0  0  0  0  0  0  0  0
   23.6838  -21.1021  -14.5741 N   0  0  0  0  0  0  0  0  0  0  0  0
   26.1079  -20.9554  -15.1466 C   0  0  0  0  0  0  0  0  0  0  0  0
   26.1197  -22.0437  -15.8545 O   0  0  0  0  0  0  0  0  0  0  0  0
   25.4511  -20.8054  -10.8677 C   0  0  0  0  0  0  0  0  0  0  0  0
   24.8798  -20.4063   -9.6841 C   0  0  0  0  0  0  0  0  0  0  0  0
   27.1412  -20.0365  -15.4195 N   0  0  0  0  0  0  0  0  0  0  0  0
   27.2836  -18.7263  -14.8503 C   0  0  0  0  0  0  0  0  0  0  0  0
   28.3305  -18.0013  -15.7348 C   0  0  0  0  0  0  0  0  0  0  0  0
   29.2159  -19.1632  -16.1089 C   0  0  0  0  0  0  0  0  0  0  0  0
   28.2017  -20.2273  -16.3983 C   0  0  1  0  0  0  0  0  0  0  0  0
   28.8210  -21.5814  -16.3179 C   0  0  0  0  0  0  0  0  0  0  0  0
   29.3791  -22.0961  -17.4683 O   0  0  0  0  0  0  0  0  0  0  0  0
   28.8405  -22.2252  -15.2738 O   0  0  0  0  0  0  0  0  0  0  0  0
  1  2  1  0
  2  3  1  0
  3  4  1  6
  5  3  1  0
  5  6  1  1
  7  8  2  0
  7  5  1  0
  9 10  1  0
 10 11  2  0
 11 12  1  0
 13 12  2  0
 13 14  1  0
 15 14  1  1
 15 16  1  0
 16  7  1  0
 17 21  1  0
 17 15  1  0
 18 17  2  0
 19 13  1  0
 20 10  1  0
 20 19  2  0
 21 25  1  0
 22 21  1  0
 23 22  1  0
 23 24  1  0
 24 25  1  0
 25 26  1  1
 26 28  2  0
 26 27  1  0
M  END
$$$$
