IYP.pdb
     RDKit          3D

 28 29  0  0  1  0  0  0  0  0999 V2000
   20.0748  -19.9225  -19.4933 C   0  0  0  0  0  0  0  0  0  0  0  0
   19.7750  -19.6686  -18.0437 C   0  0  0  0  0  0  0  0  0  0  0  0
   20.9918  -19.6306  -17.1763 C   0  0  2  0  0  0  0  0  0  0  0  0
   21.7797  -20.8989  -17.3010 C   0  0  0  0  0  0  0  0  0  0  0  0
   20.6703  -19.3622  -15.7086 C   0  0  2  0  0  0  0  0  0  0  0  0
   20.0650  -18.0189  -15.6344 N   0  0  0  0  0  0  0  0  0  0  0  0
   21.9253  -19.3235  -14.9443 C   0  0  0  0  0  0  0  0  0  0  0  0
   22.7445  -18.3640  -15.0968 O   0  0  0  0  0  0  0  0  0  0  0  0
   27.5974  -20.1438   -8.4723 O   0  0  0  0  0  0  0  0  0  0  0  0
   26.6142  -20.4312   -9.3795 C   0  0  0  0  0  0  0  0  0  0  0  0
   25.3186  -19.9599   -9.2207 C   0  0  0  0  0  0  0  0  0  0  0  0
   24.3231  -20.2303  -10.1063 C   0  0  0  0  0  0  0  0  0  0  0  0
   24.6059  -21.0085  -11.2169 C   0  0  0  0  0  0  0  0  0  0  0  0
   23.5450  -21.3091  -12.1805 C   0  0  0  0  0  0  0  0  0  0  0  0
   23.6132  -20.2766  -13.3569 C   0  0  2  0  0  0  0  0  0  0  0  0
   22.3261  -20.3294  -13.9837 N   0  0  0  0  0  0  0  0  0  0  0  0
   24.8049  -20.5962  -14.0825 C   0  0  0  0  0  0  0  0  0  0  0  0
   24.8362  -21.7847  -14.6045 O   0  0  0  0  0  0  0  0  0  0  0  0
   25.8876  -21.4780  -11.3792 C   0  0  0  0  0  0  0  0  0  0  0  0
   26.8891  -21.2014  -10.4808 C   0  0  0  0  0  0  0  0  0  0  0  0
   25.9448  -19.7985  -14.3081 N   0  0  0  0  0  0  0  0  0  0  0  0
   26.1381  -18.4488  -13.8587 C   0  0  0  0  0  0  0  0  0  0  0  0
   27.3478  -17.9120  -14.6664 C   0  0  0  0  0  0  0  0  0  0  0  0
   28.1602  -19.1750  -14.8036 C   0  0  0  0  0  0  0  0  0  0  0  0
   27.0941  -20.1804  -15.1156 C   0  0  1  0  0  0  0  0  0  0  0  0
   27.5703  -21.5623  -14.8202 C   0  0  0  0  0  0  0  0  0  0  0  0
   28.4311  -22.1465  -15.7243 O   0  0  0  0  0  0  0  0  0  0  0  0
   27.2176  -22.1690  -13.8140 O   0  0  0  0  0  0  0  0  0  0  0  0
  1  2  1  0
  2  3  1  0
  3  4  1  1
  5  3  1  0
  5  6  1  6
  7  8  2  0
  7  5  1  0
  9 10  1  0
 10 11  2  0
 11 12  1  0
 13 12  2  0
 13 14  1  0
 15 14  1  1
 15 16  1  0
 16  7  1  0
 17 21  1  0
 17 15  1  0
 18 17  2  0
 19 13  1  0
 20 10  1  0
 20 19  2  0
 21 25  1  0
 22 21  1  0
 23 22  1  0
 23 24  1  0
 24 25  1  0
 25 26  1  1
 26 28  2  0
 26 27  1  0
M  END
$$$$
