IYP.pdb
     RDKit          3D

 28 29  0  0  1  0  0  0  0  0999 V2000
   27.0185  -22.1568  -13.3697 C   0  0  0  0  0  0  0  0  0  0  0  0
   27.0817  -20.7990  -12.7312 C   0  0  0  0  0  0  0  0  0  0  0  0
   25.8140  -20.3964  -12.0490 C   0  0  2  0  0  0  0  0  0  0  0  0
   25.7860  -18.9197  -11.7965 C   0  0  0  0  0  0  0  0  0  0  0  0
   25.5732  -21.1501  -10.7438 C   0  0  2  0  0  0  0  0  0  0  0  0
   24.2666  -20.7078  -10.2207 N   0  0  0  0  0  0  0  0  0  0  0  0
   26.5971  -20.7525   -9.7670 C   0  0  0  0  0  0  0  0  0  0  0  0
   27.8129  -21.0812   -9.9363 O   0  0  0  0  0  0  0  0  0  0  0  0
   30.4980  -17.5908   -2.5777 O   0  0  0  0  0  0  0  0  0  0  0  0
   29.5794  -17.8685   -3.5531 C   0  0  0  0  0  0  0  0  0  0  0  0
   28.6344  -18.8727   -3.3966 C   0  0  0  0  0  0  0  0  0  0  0  0
   27.7108  -19.1693   -4.3492 C   0  0  0  0  0  0  0  0  0  0  0  0
   27.7061  -18.4429   -5.5287 C   0  0  0  0  0  0  0  0  0  0  0  0
   26.7178  -18.7497   -6.5649 C   0  0  0  0  0  0  0  0  0  0  0  0
   27.3679  -19.6987   -7.6286 C   0  0  2  0  0  0  0  0  0  0  0  0
   26.3284  -19.9781   -8.5740 N   0  0  0  0  0  0  0  0  0  0  0  0
   27.9912  -20.7477   -6.8805 C   0  0  0  0  0  0  0  0  0  0  0  0
   27.1780  -21.5981   -6.3315 O   0  0  0  0  0  0  0  0  0  0  0  0
   28.6398  -17.4471   -5.6890 C   0  0  0  0  0  0  0  0  0  0  0  0
   29.5706  -17.1521   -4.7229 C   0  0  0  0  0  0  0  0  0  0  0  0
   29.3633  -20.9833   -6.6604 N   0  0  0  0  0  0  0  0  0  0  0  0
   30.4540  -20.3068   -7.3036 C   0  0  0  0  0  0  0  0  0  0  0  0
   31.7085  -21.1688   -7.0085 C   0  0  0  0  0  0  0  0  0  0  0  0
   31.3629  -21.6832   -5.6337 C   0  0  0  0  0  0  0  0  0  0  0  0
   29.9126  -22.0209   -5.7999 C   0  0  1  0  0  0  0  0  0  0  0  0
   29.2322  -22.0884   -4.4748 C   0  0  0  0  0  0  0  0  0  0  0  0
   29.6045  -23.1020   -3.6182 O   0  0  0  0  0  0  0  0  0  0  0  0
   28.3712  -21.2789   -4.1453 O   0  0  0  0  0  0  0  0  0  0  0  0
  1  2  1  0
  2  3  1  0
  3  4  1  1
  5  3  1  0
  5  6  1  1
  7  8  2  0
  7  5  1  0
  9 10  1  0
 10 11  2  0
 11 12  1  0
 13 12  2  0
 13 14  1  0
 15 14  1  1
 15 16  1  0
 16  7  1  0
 17 21  1  0
 17 15  1  0
 18 17  2  0
 19 13  1  0
 20 10  1  0
 20 19  2  0
 21 25  1  0
 22 21  1  0
 23 22  1  0
 23 24  1  0
 24 25  1  0
 25 26  1  1
 26 28  2  0
 26 27  1  0
M  END
$$$$
