IYP.pdb
     RDKit          3D

 28 29  0  0  1  0  0  0  0  0999 V2000
   28.0809  -19.7792  -22.7841 C   0  0  0  0  0  0  0  0  0  0  0  0
   26.6075  -19.6492  -22.5242 C   0  0  0  0  0  0  0  0  0  0  0  0
   26.2760  -19.2891  -21.1118 C   0  0  2  0  0  0  0  0  0  0  0  0
   26.6578  -17.8707  -20.8158 C   0  0  0  0  0  0  0  0  0  0  0  0
   26.9201  -20.2231  -20.0908 C   0  0  2  0  0  0  0  0  0  0  0  0
   26.6519  -21.6042  -20.5348 N   0  0  0  0  0  0  0  0  0  0  0  0
   26.2570  -20.0405  -18.7917 C   0  0  0  0  0  0  0  0  0  0  0  0
   26.1733  -18.8864  -18.2663 O   0  0  0  0  0  0  0  0  0  0  0  0
   20.8769  -20.3625  -12.0853 O   0  0  0  0  0  0  0  0  0  0  0  0
   21.6122  -20.7237  -13.1812 C   0  0  0  0  0  0  0  0  0  0  0  0
   21.5117  -20.0361  -14.3825 C   0  0  0  0  0  0  0  0  0  0  0  0
   22.2303  -20.3736  -15.4863 C   0  0  0  0  0  0  0  0  0  0  0  0
   23.1020  -21.4481  -15.4170 C   0  0  0  0  0  0  0  0  0  0  0  0
   23.8833  -21.8247  -16.5968 C   0  0  0  0  0  0  0  0  0  0  0  0
   25.1196  -20.8701  -16.7192 C   0  0  2  0  0  0  0  0  0  0  0  0
   25.6585  -21.1120  -18.0244 N   0  0  0  0  0  0  0  0  0  0  0  0
   25.9003  -21.0964  -15.5411 C   0  0  0  0  0  0  0  0  0  0  0  0
   26.1941  -22.3376  -15.2987 O   0  0  0  0  0  0  0  0  0  0  0  0
   23.2054  -22.1327  -14.2296 C   0  0  0  0  0  0  0  0  0  0  0  0
   22.4767  -21.7869  -13.1178 C   0  0  0  0  0  0  0  0  0  0  0  0
   26.3930  -20.1580  -14.6119 N   0  0  0  0  0  0  0  0  0  0  0  0
   26.3357  -18.7291  -14.7377 C   0  0  0  0  0  0  0  0  0  0  0  0
   27.3214  -18.1793  -13.6747 C   0  0  0  0  0  0  0  0  0  0  0  0
   27.1554  -19.2169  -12.5932 C   0  0  0  0  0  0  0  0  0  0  0  0
   27.1273  -20.4809  -13.3972 C   0  0  1  0  0  0  0  0  0  0  0  0
   26.4955  -21.5857  -12.6203 C   0  0  0  0  0  0  0  0  0  0  0  0
   27.2300  -22.1467  -11.5978 O   0  0  0  0  0  0  0  0  0  0  0  0
   25.3648  -21.9908  -12.8703 O   0  0  0  0  0  0  0  0  0  0  0  0
  1  2  1  0
  2  3  1  0
  3  4  1  1
  5  3  1  0
  5  6  1  6
  7  8  2  0
  7  5  1  0
  9 10  1  0
 10 11  2  0
 11 12  1  0
 13 12  2  0
 13 14  1  0
 15 14  1  1
 15 16  1  0
 16  7  1  0
 17 21  1  0
 17 15  1  0
 18 17  2  0
 19 13  1  0
 20 10  1  0
 20 19  2  0
 21 25  1  0
 22 21  1  0
 23 22  1  0
 23 24  1  0
 24 25  1  0
 25 26  1  1
 26 28  2  0
 26 27  1  0
M  END
$$$$
