IYP.pdb
     RDKit          3D

 28 29  0  0  1  0  0  0  0  0999 V2000
   21.2137  -17.3498  -20.9886 C   0  0  0  0  0  0  0  0  0  0  0  0
   20.7636  -17.1325  -19.5724 C   0  0  0  0  0  0  0  0  0  0  0  0
   21.8142  -17.4397  -18.5543 C   0  0  2  0  0  0  0  0  0  0  0  0
   22.3091  -18.8463  -18.7013 C   0  0  0  0  0  0  0  0  0  0  0  0
   21.3443  -17.2025  -17.1216 C   0  0  2  0  0  0  0  0  0  0  0  0
   21.1057  -15.7539  -16.9763 N   0  0  0  0  0  0  0  0  0  0  0  0
   22.4280  -17.5660  -16.1974 C   0  0  0  0  0  0  0  0  0  0  0  0
   23.4921  -16.8731  -16.1461 O   0  0  0  0  0  0  0  0  0  0  0  0
   27.2206  -20.7404   -9.6961 O   0  0  0  0  0  0  0  0  0  0  0  0
   26.1857  -20.5037  -10.5594 C   0  0  0  0  0  0  0  0  0  0  0  0
   25.6356  -19.2379  -10.7045 C   0  0  0  0  0  0  0  0  0  0  0  0
   24.6075  -18.9750  -11.5545 C   0  0  0  0  0  0  0  0  0  0  0  0
   24.0813  -20.0091  -12.3113 C   0  0  0  0  0  0  0  0  0  0  0  0
   22.9738  -19.7428  -13.2317 C   0  0  0  0  0  0  0  0  0  0  0  0
   23.5369  -19.0735  -14.5315 C   0  0  2  0  0  0  0  0  0  0  0  0
   22.3844  -18.6963  -15.2943 N   0  0  0  0  0  0  0  0  0  0  0  0
   24.5022  -19.9930  -15.0522 C   0  0  0  0  0  0  0  0  0  0  0  0
   24.0192  -21.1114  -15.5011 O   0  0  0  0  0  0  0  0  0  0  0  0
   24.6224  -21.2649  -12.1716 C   0  0  0  0  0  0  0  0  0  0  0  0
   25.6611  -21.5242  -11.3110 C   0  0  0  0  0  0  0  0  0  0  0  0
   25.9014  -19.8496  -15.1449 N   0  0  0  0  0  0  0  0  0  0  0  0
   26.6698  -18.7218  -14.6995 C   0  0  0  0  0  0  0  0  0  0  0  0
   28.0650  -18.8854  -15.3558 C   0  0  0  0  0  0  0  0  0  0  0  0
   28.1824  -20.3887  -15.3646 C   0  0  0  0  0  0  0  0  0  0  0  0
   26.8038  -20.7909  -15.7917 C   0  0  1  0  0  0  0  0  0  0  0  0
   26.5265  -22.2061  -15.4123 C   0  0  0  0  0  0  0  0  0  0  0  0
   27.2449  -23.1908  -16.0558 O   0  0  0  0  0  0  0  0  0  0  0  0
   25.6928  -22.4984  -14.5611 O   0  0  0  0  0  0  0  0  0  0  0  0
  1  2  1  0
  2  3  1  0
  3  4  1  1
  5  3  1  0
  5  6  1  6
  7  8  2  0
  7  5  1  0
  9 10  1  0
 10 11  2  0
 11 12  1  0
 13 12  2  0
 13 14  1  0
 15 14  1  1
 15 16  1  0
 16  7  1  0
 17 21  1  0
 17 15  1  0
 18 17  2  0
 19 13  1  0
 20 10  1  0
 20 19  2  0
 21 25  1  0
 22 21  1  0
 23 22  1  0
 23 24  1  0
 24 25  1  0
 25 26  1  1
 26 28  2  0
 26 27  1  0
M  END
$$$$
