IYP.pdb
     RDKit          3D

 28 29  0  0  1  0  0  0  0  0999 V2000
   27.5449  -19.7346  -21.6684 C   0  0  0  0  0  0  0  0  0  0  0  0
   28.4847  -20.1447  -20.5712 C   0  0  0  0  0  0  0  0  0  0  0  0
   27.7996  -20.4637  -19.2814 C   0  0  2  0  0  0  0  0  0  0  0  0
   26.8914  -19.3469  -18.8655 C   0  0  0  0  0  0  0  0  0  0  0  0
   28.7741  -20.7873  -18.1521 C   0  0  2  0  0  0  0  0  0  0  0  0
   29.4898  -22.0192  -18.5348 N   0  0  0  0  0  0  0  0  0  0  0  0
   28.0097  -21.0822  -16.9317 C   0  0  0  0  0  0  0  0  0  0  0  0
   27.3850  -22.1823  -16.8114 O   0  0  0  0  0  0  0  0  0  0  0  0
   25.0921  -21.1662   -8.7195 O   0  0  0  0  0  0  0  0  0  0  0  0
   25.7303  -20.8133   -9.8773 C   0  0  0  0  0  0  0  0  0  0  0  0
   25.3804  -19.6690  -10.5802 C   0  0  0  0  0  0  0  0  0  0  0  0
   25.9977  -19.2952  -11.7325 C   0  0  0  0  0  0  0  0  0  0  0  0
   27.0203  -20.0847  -12.2326 C   0  0  0  0  0  0  0  0  0  0  0  0
   27.6955  -19.6962  -13.4726 C   0  0  0  0  0  0  0  0  0  0  0  0
   27.1071  -20.5314  -14.6603 C   0  0  2  0  0  0  0  0  0  0  0  0
   27.9053  -20.1871  -15.7990 N   0  0  0  0  0  0  0  0  0  0  0  0
   25.6968  -20.2875  -14.6424 C   0  0  0  0  0  0  0  0  0  0  0  0
   25.3398  -19.0685  -14.9116 O   0  0  0  0  0  0  0  0  0  0  0  0
   27.3710  -21.2192  -11.5404 C   0  0  0  0  0  0  0  0  0  0  0  0
   26.7435  -21.5916  -10.3767 C   0  0  0  0  0  0  0  0  0  0  0  0
   24.6460  -21.1880  -14.3745 N   0  0  0  0  0  0  0  0  0  0  0  0
   24.7747  -22.6010  -14.1561 C   0  0  0  0  0  0  0  0  0  0  0  0
   23.3390  -23.1727  -14.2827 C   0  0  0  0  0  0  0  0  0  0  0  0
   22.5416  -22.0203  -13.7258 C   0  0  0  0  0  0  0  0  0  0  0  0
   23.2302  -20.8501  -14.3592 C   0  0  1  0  0  0  0  0  0  0  0  0
   22.9464  -19.5979  -13.6009 C   0  0  0  0  0  0  0  0  0  0  0  0
   21.7011  -19.0277  -13.7557 O   0  0  0  0  0  0  0  0  0  0  0  0
   23.7803  -19.0829  -12.8631 O   0  0  0  0  0  0  0  0  0  0  0  0
  1  2  1  0
  2  3  1  0
  3  4  1  1
  5  3  1  0
  5  6  1  6
  7  8  2  0
  7  5  1  0
  9 10  1  0
 10 11  2  0
 11 12  1  0
 13 12  2  0
 13 14  1  0
 15 14  1  1
 15 16  1  0
 16  7  1  0
 17 21  1  0
 17 15  1  0
 18 17  2  0
 19 13  1  0
 20 10  1  0
 20 19  2  0
 21 25  1  0
 22 21  1  0
 23 22  1  0
 23 24  1  0
 24 25  1  0
 25 26  1  1
 26 28  2  0
 26 27  1  0
M  END
$$$$
