IYP.pdb
     RDKit          3D

 28 29  0  0  1  0  0  0  0  0999 V2000
   26.1985  -22.8646  -19.9709 C   0  0  0  0  0  0  0  0  0  0  0  0
   26.7381  -23.0779  -18.5857 C   0  0  0  0  0  0  0  0  0  0  0  0
   27.7236  -22.0383  -18.1583 C   0  0  2  0  0  0  0  0  0  0  0  0
   28.8618  -21.9466  -19.1283 C   0  0  0  0  0  0  0  0  0  0  0  0
   28.2612  -22.2693  -16.7486 C   0  0  2  0  0  0  0  0  0  0  0  0
   28.7119  -23.6723  -16.6794 N   0  0  0  0  0  0  0  0  0  0  0  0
   27.1613  -22.1112  -15.7863 C   0  0  0  0  0  0  0  0  0  0  0  0
   26.5610  -23.1293  -15.3193 O   0  0  0  0  0  0  0  0  0  0  0  0
   24.7994  -21.0517   -8.1636 O   0  0  0  0  0  0  0  0  0  0  0  0
   25.0494  -20.6820   -9.4571 C   0  0  0  0  0  0  0  0  0  0  0  0
   26.2460  -20.9981  -10.0848 C   0  0  0  0  0  0  0  0  0  0  0  0
   26.5202  -20.6431  -11.3684 C   0  0  0  0  0  0  0  0  0  0  0  0
   25.5700  -19.9359  -12.0867 C   0  0  0  0  0  0  0  0  0  0  0  0
   25.8496  -19.5460  -13.4702 C   0  0  0  0  0  0  0  0  0  0  0  0
   25.5571  -20.7613  -14.4146 C   0  0  2  0  0  0  0  0  0  0  0  0
   26.6827  -20.8356  -15.2978 N   0  0  0  0  0  0  0  0  0  0  0  0
   24.2334  -20.5504  -14.9167 C   0  0  0  0  0  0  0  0  0  0  0  0
   24.1064  -19.5657  -15.7534 O   0  0  0  0  0  0  0  0  0  0  0  0
   24.3830  -19.6201  -11.4698 C   0  0  0  0  0  0  0  0  0  0  0  0
   24.1118  -19.9815  -10.1726 C   0  0  0  0  0  0  0  0  0  0  0  0
   23.0530  -21.2647  -14.6284 N   0  0  0  0  0  0  0  0  0  0  0  0
   22.9595  -22.4743  -13.8609 C   0  0  0  0  0  0  0  0  0  0  0  0
   21.5467  -23.0424  -14.1527 C   0  0  0  0  0  0  0  0  0  0  0  0
   20.7719  -21.7599  -14.3225 C   0  0  0  0  0  0  0  0  0  0  0  0
   21.7277  -20.9421  -15.1365 C   0  0  1  0  0  0  0  0  0  0  0  0
   21.4069  -19.4902  -15.0244 C   0  0  0  0  0  0  0  0  0  0  0  0
   20.2821  -19.0339  -15.6773 O   0  0  0  0  0  0  0  0  0  0  0  0
   22.1087  -18.7185  -14.3786 O   0  0  0  0  0  0  0  0  0  0  0  0
  1  2  1  0
  2  3  1  0
  3  4  1  6
  5  3  1  0
  5  6  1  6
  7  8  2  0
  7  5  1  0
  9 10  1  0
 10 11  2  0
 11 12  1  0
 13 12  2  0
 13 14  1  0
 15 14  1  1
 15 16  1  0
 16  7  1  0
 17 21  1  0
 17 15  1  0
 18 17  2  0
 19 13  1  0
 20 10  1  0
 20 19  2  0
 21 25  1  0
 22 21  1  0
 23 22  1  0
 23 24  1  0
 24 25  1  0
 25 26  1  1
 26 28  2  0
 26 27  1  0
M  END
$$$$
