VKG.pdb
     RDKit          3D

 21 20  0  0  1  0  0  0  0  0999 V2000
   19.3041  -23.7870  -12.0050 C   0  0  0  0  0  0  0  0  0  0  0  0
   18.0959  -23.2579  -12.7963 C   0  0  2  0  0  0  0  0  0  0  0  0
   17.2919  -24.4643  -13.1673 C   0  0  0  0  0  0  0  0  0  0  0  0
   18.6824  -22.5190  -13.9846 C   0  0  2  0  0  0  0  0  0  0  0  0
   19.1809  -23.5788  -14.8775 N   0  0  0  0  0  0  0  0  0  0  0  0
   19.8272  -21.6474  -13.6160 C   0  0  0  0  0  0  0  0  0  0  0  0
   19.5976  -20.6563  -12.8917 O   0  0  0  0  0  0  0  0  0  0  0  0
   21.1474  -21.9101  -14.0572 N   0  0  0  0  0  0  0  0  0  0  0  0
   22.2720  -21.0067  -13.8961 C   0  0  1  0  0  0  0  0  0  0  0  0
   23.4426  -21.7572  -13.3399 C   0  0  0  0  0  0  0  0  0  0  0  0
   24.6515  -20.9216  -13.0641 C   0  0  0  0  0  0  0  0  0  0  0  0
   25.8053  -21.6859  -12.4703 C   0  0  0  0  0  0  0  0  0  0  0  0
   26.9881  -20.8235  -12.1743 C   0  0  0  0  0  0  0  0  0  0  0  0
   28.1321  -21.5505  -11.7001 N   0  0  0  0  0  0  0  0  0  0  0  0
   22.5740  -20.2835  -15.1444 C   0  0  0  0  0  0  0  0  0  0  0  0
   22.8410  -20.9243  -16.1785 O   0  0  0  0  0  0  0  0  0  0  0  0
   22.5687  -18.8738  -15.1953 N   0  0  0  0  0  0  0  0  0  0  0  0
   22.8970  -18.2341  -16.4544 C   0  0  0  0  0  0  0  0  0  0  0  0
   21.7281  -18.0794  -17.3301 C   0  0  0  0  0  0  0  0  0  0  0  0
   21.7968  -17.3457  -18.3377 O   0  0  0  0  0  0  0  0  0  0  0  0
   20.5469  -18.7350  -17.0572 O   0  0  0  0  0  0  0  0  0  0  0  0
  2  4  1  0
  2  1  1  1
  3  2  1  0
  4  5  1  6
  6  4  1  0
  7  6  2  0
  8  6  1  0
  9  8  1  0
  9 10  1  6
 10 11  1  0
 11 12  1  0
 13 14  1  0
 13 12  1  0
 15 17  1  0
 15  9  1  0
 16 15  2  0
 18 19  1  0
 18 17  1  0
 19 21  1  0
 20 19  2  0
M  END
$$$$
