VKG.pdb
     RDKit          3D

 21 20  0  0  1  0  0  0  0  0999 V2000
   15.8242   -6.8264  -16.0419 C   0  0  0  0  0  0  0  0  0  0  0  0
   15.9449   -7.3142  -17.4955 C   0  0  2  0  0  0  0  0  0  0  0  0
   14.5746   -7.1859  -18.0834 C   0  0  0  0  0  0  0  0  0  0  0  0
   16.4440   -8.7439  -17.4026 C   0  0  2  0  0  0  0  0  0  0  0  0
   15.3407   -9.4870  -16.7705 N   0  0  0  0  0  0  0  0  0  0  0  0
   17.6474   -8.8816  -16.5429 C   0  0  0  0  0  0  0  0  0  0  0  0
   17.4788   -9.2097  -15.3498 O   0  0  0  0  0  0  0  0  0  0  0  0
   18.9560   -8.6553  -17.0359 N   0  0  0  0  0  0  0  0  0  0  0  0
   20.1679   -8.7345  -16.2411 C   0  0  1  0  0  0  0  0  0  0  0  0
   21.2768   -9.3020  -17.0724 C   0  0  0  0  0  0  0  0  0  0  0  0
   21.0475  -10.6976  -17.5579 C   0  0  0  0  0  0  0  0  0  0  0  0
   21.1483  -11.7472  -16.4827 C   0  0  0  0  0  0  0  0  0  0  0  0
   20.8935  -13.1292  -16.9884 C   0  0  0  0  0  0  0  0  0  0  0  0
   21.0298  -14.1482  -15.9859 N   0  0  0  0  0  0  0  0  0  0  0  0
   20.4992   -7.4389  -15.6209 C   0  0  0  0  0  0  0  0  0  0  0  0
   20.4155   -6.3944  -16.2941 O   0  0  0  0  0  0  0  0  0  0  0  0
   20.9123   -7.3542  -14.2748 N   0  0  0  0  0  0  0  0  0  0  0  0
   21.1631   -6.0389  -13.7184 C   0  0  0  0  0  0  0  0  0  0  0  0
   22.4951   -5.5252  -14.0634 C   0  0  0  0  0  0  0  0  0  0  0  0
   23.2490   -6.1930  -14.8009 O   0  0  0  0  0  0  0  0  0  0  0  0
   22.9313   -4.3091  -13.5837 O   0  0  0  0  0  0  0  0  0  0  0  0
  2  4  1  0
  2  1  1  1
  3  2  1  0
  4  5  1  1
  6  4  1  0
  7  6  2  0
  8  6  1  0
  9  8  1  0
  9 10  1  6
 10 11  1  0
 11 12  1  0
 13 14  1  0
 13 12  1  0
 15 17  1  0
 15  9  1  0
 16 15  2  0
 18 19  1  0
 18 17  1  0
 19 21  1  0
 20 19  2  0
M  END
$$$$
