VKG.pdb
     RDKit          3D

 21 20  0  0  1  0  0  0  0  0999 V2000
   17.9684  -12.0252  -16.6020 C   0  0  0  0  0  0  0  0  0  0  0  0
   17.1088  -11.7785  -15.3506 C   0  0  2  0  0  0  0  0  0  0  0  0
   15.7258  -12.2211  -15.7126 C   0  0  0  0  0  0  0  0  0  0  0  0
   17.2255  -10.2929  -15.0658 C   0  0  2  0  0  0  0  0  0  0  0  0
   16.6115   -9.6370  -16.2328 N   0  0  0  0  0  0  0  0  0  0  0  0
   18.6339   -9.8325  -14.9636 C   0  0  0  0  0  0  0  0  0  0  0  0
   19.2998  -10.2040  -13.9746 O   0  0  0  0  0  0  0  0  0  0  0  0
   19.2278   -8.9994  -15.9433 N   0  0  0  0  0  0  0  0  0  0  0  0
   20.5919   -8.5055  -15.8970 C   0  0  1  0  0  0  0  0  0  0  0  0
   21.3181   -8.9206  -17.1393 C   0  0  0  0  0  0  0  0  0  0  0  0
   21.6762  -10.3709  -17.2031 C   0  0  0  0  0  0  0  0  0  0  0  0
   22.3803  -10.7755  -18.4714 C   0  0  0  0  0  0  0  0  0  0  0  0
   22.6187  -12.2468  -18.5645 C   0  0  0  0  0  0  0  0  0  0  0  0
   23.1297  -12.6724  -19.8373 N   0  0  0  0  0  0  0  0  0  0  0  0
   20.6382   -7.0542  -15.6436 C   0  0  0  0  0  0  0  0  0  0  0  0
   20.0941   -6.2712  -16.4450 O   0  0  0  0  0  0  0  0  0  0  0  0
   21.2895   -6.5281  -14.5083 N   0  0  0  0  0  0  0  0  0  0  0  0
   21.3005   -5.0888  -14.3324 C   0  0  0  0  0  0  0  0  0  0  0  0
   21.8055   -4.6857  -13.0135 C   0  0  0  0  0  0  0  0  0  0  0  0
   22.1330   -5.5545  -12.1792 O   0  0  0  0  0  0  0  0  0  0  0  0
   21.9254   -3.3545  -12.6776 O   0  0  0  0  0  0  0  0  0  0  0  0
  2  4  1  0
  2  1  1  6
  3  2  1  0
  4  5  1  6
  6  4  1  0
  7  6  2  0
  8  6  1  0
  9  8  1  0
  9 10  1  6
 10 11  1  0
 11 12  1  0
 13 14  1  0
 13 12  1  0
 15 17  1  0
 15  9  1  0
 16 15  2  0
 18 19  1  0
 18 17  1  0
 19 21  1  0
 20 19  2  0
M  END
$$$$
