VKG.pdb
     RDKit          3D

 21 20  0  0  1  0  0  0  0  0999 V2000
   22.4091  -12.8888  -17.6206 C   0  0  0  0  0  0  0  0  0  0  0  0
   23.8042  -12.2851  -17.8551 C   0  0  2  0  0  0  0  0  0  0  0  0
   24.7693  -13.4188  -17.7037 C   0  0  0  0  0  0  0  0  0  0  0  0
   23.9577  -11.2007  -16.8052 C   0  0  2  0  0  0  0  0  0  0  0  0
   23.9552  -11.9192  -15.5196 N   0  0  0  0  0  0  0  0  0  0  0  0
   22.8275  -10.2370  -16.7995 C   0  0  0  0  0  0  0  0  0  0  0  0
   22.6956   -9.4853  -17.7879 O   0  0  0  0  0  0  0  0  0  0  0  0
   21.9132  -10.1538  -15.7208 N   0  0  0  0  0  0  0  0  0  0  0  0
   20.7939   -9.2324  -15.6503 C   0  0  1  0  0  0  0  0  0  0  0  0
   19.5448   -9.9856  -15.3107 C   0  0  0  0  0  0  0  0  0  0  0  0
   19.0278  -10.8694  -16.4003 C   0  0  0  0  0  0  0  0  0  0  0  0
   18.5413  -12.2127  -15.9241 C   0  0  0  0  0  0  0  0  0  0  0  0
   18.0140  -13.0691  -17.0281 C   0  0  0  0  0  0  0  0  0  0  0  0
   17.7030  -14.4114  -16.6233 N   0  0  0  0  0  0  0  0  0  0  0  0
   21.0703   -8.1069  -14.7395 C   0  0  0  0  0  0  0  0  0  0  0  0
   21.6903   -8.3109  -13.6787 O   0  0  0  0  0  0  0  0  0  0  0  0
   20.6453   -6.7964  -15.0426 N   0  0  0  0  0  0  0  0  0  0  0  0
   20.9683   -5.7391  -14.1044 C   0  0  0  0  0  0  0  0  0  0  0  0
   22.3041   -5.1724  -14.3312 C   0  0  0  0  0  0  0  0  0  0  0  0
   23.0543   -5.6711  -15.1953 O   0  0  0  0  0  0  0  0  0  0  0  0
   22.7480   -4.0910  -13.6012 O   0  0  0  0  0  0  0  0  0  0  0  0
  2  4  1  0
  2  1  1  1
  3  2  1  0
  4  5  1  1
  6  4  1  0
  7  6  2  0
  8  6  1  0
  9  8  1  0
  9 10  1  1
 10 11  1  0
 11 12  1  0
 13 14  1  0
 13 12  1  0
 15 17  1  0
 15  9  1  0
 16 15  2  0
 18 19  1  0
 18 17  1  0
 19 21  1  0
 20 19  2  0
M  END
$$$$
