VKG.pdb
     RDKit          3D

 21 20  0  0  1  0  0  0  0  0999 V2000
   20.3088  -14.3182  -17.1338 C   0  0  0  0  0  0  0  0  0  0  0  0
   19.0521  -13.7641  -16.4415 C   0  0  2  0  0  0  0  0  0  0  0  0
   17.9187  -14.0279  -17.3825 C   0  0  0  0  0  0  0  0  0  0  0  0
   19.3325  -12.2908  -16.2124 C   0  0  2  0  0  0  0  0  0  0  0  0
   19.5044  -11.7265  -17.5618 N   0  0  0  0  0  0  0  0  0  0  0  0
   20.5833  -12.0522  -15.4478 C   0  0  0  0  0  0  0  0  0  0  0  0
   20.6386  -12.4705  -14.2725 O   0  0  0  0  0  0  0  0  0  0  0  0
   21.6935  -11.3757  -16.0105 N   0  0  0  0  0  0  0  0  0  0  0  0
   22.9091  -11.0359  -15.2939 C   0  0  1  0  0  0  0  0  0  0  0  0
   24.1002  -11.4254  -16.1139 C   0  0  0  0  0  0  0  0  0  0  0  0
   24.6950  -12.7528  -15.7674 C   0  0  0  0  0  0  0  0  0  0  0  0
   24.2032  -13.8897  -16.6238 C   0  0  0  0  0  0  0  0  0  0  0  0
   24.7546  -15.2147  -16.2106 C   0  0  0  0  0  0  0  0  0  0  0  0
   24.2940  -16.3114  -17.0152 N   0  0  0  0  0  0  0  0  0  0  0  0
   22.9182   -9.6229  -14.8744 C   0  0  0  0  0  0  0  0  0  0  0  0
   23.9394   -9.1435  -14.3465 O   0  0  0  0  0  0  0  0  0  0  0  0
   21.7900   -8.7962  -15.0570 N   0  0  0  0  0  0  0  0  0  0  0  0
   21.8567   -7.4317  -14.5710 C   0  0  0  0  0  0  0  0  0  0  0  0
   20.6304   -6.6730  -14.8498 C   0  0  0  0  0  0  0  0  0  0  0  0
   19.6754   -7.2248  -15.4345 O   0  0  0  0  0  0  0  0  0  0  0  0
   20.5139   -5.3521  -14.4745 O   0  0  0  0  0  0  0  0  0  0  0  0
  2  4  1  0
  2  1  1  6
  3  2  1  0
  4  5  1  6
  6  4  1  0
  7  6  2  0
  8  6  1  0
  9  8  1  0
  9 10  1  6
 10 11  1  0
 11 12  1  0
 13 14  1  0
 13 12  1  0
 15 17  1  0
 15  9  1  0
 16 15  2  0
 18 19  1  0
 18 17  1  0
 19 21  1  0
 20 19  2  0
M  END
$$$$
