VKG.pdb
     RDKit          3D

 21 20  0  0  1  0  0  0  0  0999 V2000
   15.2118  -22.8360    2.6671 C   0  0  0  0  0  0  0  0  0  0  0  0
   13.9589  -21.9451    2.7126 C   0  0  2  0  0  0  0  0  0  0  0  0
   12.8222  -22.8182    2.2820 C   0  0  0  0  0  0  0  0  0  0  0  0
   14.2454  -20.7949    1.7656 C   0  0  2  0  0  0  0  0  0  0  0  0
   14.4385  -21.4297    0.4508 N   0  0  0  0  0  0  0  0  0  0  0  0
   15.4875  -20.0573    2.1107 C   0  0  0  0  0  0  0  0  0  0  0  0
   16.5317  -20.3490    1.4909 O   0  0  0  0  0  0  0  0  0  0  0  0
   15.5141  -19.0496    3.1059 N   0  0  0  0  0  0  0  0  0  0  0  0
   16.6817  -18.2636    3.4607 C   0  0  1  0  0  0  0  0  0  0  0  0
   16.2964  -16.8219    3.5868 C   0  0  0  0  0  0  0  0  0  0  0  0
   17.4446  -15.8743    3.7257 C   0  0  0  0  0  0  0  0  0  0  0  0
   17.0368  -14.4351    3.9004 C   0  0  0  0  0  0  0  0  0  0  0  0
   18.1998  -13.5142    4.0730 C   0  0  0  0  0  0  0  0  0  0  0  0
   17.8280  -12.1596    4.3715 N   0  0  0  0  0  0  0  0  0  0  0  0
   17.3580  -18.8002    4.6554 C   0  0  0  0  0  0  0  0  0  0  0  0
   16.6807  -19.1669    5.6343 O   0  0  0  0  0  0  0  0  0  0  0  0
   18.7632  -18.9077    4.7168 N   0  0  0  0  0  0  0  0  0  0  0  0
   19.3505  -19.5299    5.8874 C   0  0  0  0  0  0  0  0  0  0  0  0
   19.5357  -18.5841    6.9958 C   0  0  0  0  0  0  0  0  0  0  0  0
   20.0927  -18.9586    8.0483 O   0  0  0  0  0  0  0  0  0  0  0  0
   19.1020  -17.2799    6.8940 O   0  0  0  0  0  0  0  0  0  0  0  0
  2  4  1  0
  2  1  1  6
  3  2  1  0
  4  5  1  6
  6  4  1  0
  7  6  2  0
  8  6  1  0
  9  8  1  0
  9 10  1  1
 10 11  1  0
 11 12  1  0
 13 14  1  0
 13 12  1  0
 15 17  1  0
 15  9  1  0
 16 15  2  0
 18 19  1  0
 18 17  1  0
 19 21  1  0
 20 19  2  0
M  END
$$$$
