VKG.pdb
     RDKit          3D

 21 20  0  0  1  0  0  0  0  0999 V2000
   20.3090  -22.1422  -12.0395 C   0  0  0  0  0  0  0  0  0  0  0  0
   20.2344  -20.7323  -11.4292 C   0  0  2  0  0  0  0  0  0  0  0  0
   21.4553  -20.0142  -11.9121 C   0  0  0  0  0  0  0  0  0  0  0  0
   20.1971  -20.9430   -9.9272 C   0  0  2  0  0  0  0  0  0  0  0  0
   21.5026  -21.5404   -9.5988 N   0  0  0  0  0  0  0  0  0  0  0  0
   19.1345  -21.8897   -9.5021 C   0  0  0  0  0  0  0  0  0  0  0  0
   17.9461  -21.5631   -9.7039 O   0  0  0  0  0  0  0  0  0  0  0  0
   19.4322  -23.1303   -8.8866 N   0  0  0  0  0  0  0  0  0  0  0  0
   18.4428  -24.0904   -8.4325 C   0  0  1  0  0  0  0  0  0  0  0  0
   18.4871  -25.3069   -9.3049 C   0  0  0  0  0  0  0  0  0  0  0  0
   18.0017  -25.0955  -10.7033 C   0  0  0  0  0  0  0  0  0  0  0  0
   16.5018  -25.0701  -10.8366 C   0  0  0  0  0  0  0  0  0  0  0  0
   16.0422  -24.9487  -12.2524 C   0  0  0  0  0  0  0  0  0  0  0  0
   14.6139  -24.9484  -12.4007 N   0  0  0  0  0  0  0  0  0  0  0  0
   18.5909  -24.3885   -6.9965 C   0  0  0  0  0  0  0  0  0  0  0  0
   19.7099  -24.2891   -6.4589 O   0  0  0  0  0  0  0  0  0  0  0  0
   17.4880  -24.7871   -6.2125 N   0  0  0  0  0  0  0  0  0  0  0  0
   17.6824  -24.9314   -4.7829 C   0  0  0  0  0  0  0  0  0  0  0  0
   18.2355  -26.2422   -4.4183 C   0  0  0  0  0  0  0  0  0  0  0  0
   18.4641  -27.0907   -5.3048 O   0  0  0  0  0  0  0  0  0  0  0  0
   18.5089  -26.5550   -3.1042 O   0  0  0  0  0  0  0  0  0  0  0  0
  2  4  1  0
  2  1  1  6
  3  2  1  0
  4  5  1  6
  6  4  1  0
  7  6  2  0
  8  6  1  0
  9  8  1  0
  9 10  1  6
 10 11  1  0
 11 12  1  0
 13 14  1  0
 13 12  1  0
 15 17  1  0
 15  9  1  0
 16 15  2  0
 18 19  1  0
 18 17  1  0
 19 21  1  0
 20 19  2  0
M  END
$$$$
