VKG.pdb
     RDKit          3D

 21 20  0  0  1  0  0  0  0  0999 V2000
   28.8044  -19.7645  -14.0512 C   0  0  0  0  0  0  0  0  0  0  0  0
   28.5290  -20.5077  -15.3694 C   0  0  2  0  0  0  0  0  0  0  0  0
   29.2383  -19.7287  -16.4322 C   0  0  0  0  0  0  0  0  0  0  0  0
   27.0192  -20.5207  -15.5188 C   0  0  2  0  0  0  0  0  0  0  0  0
   26.6455  -19.1056  -15.6825 N   0  0  0  0  0  0  0  0  0  0  0  0
   26.3235  -21.0474  -14.3169 C   0  0  0  0  0  0  0  0  0  0  0  0
   26.3866  -22.2750  -14.0963 O   0  0  0  0  0  0  0  0  0  0  0  0
   25.6058  -20.2058  -13.4319 N   0  0  0  0  0  0  0  0  0  0  0  0
   24.7252  -20.6702  -12.3755 C   0  0  1  0  0  0  0  0  0  0  0  0
   25.0558  -19.9605  -11.0988 C   0  0  0  0  0  0  0  0  0  0  0  0
   24.8510  -20.7701   -9.8585 C   0  0  0  0  0  0  0  0  0  0  0  0
   23.4470  -20.7202   -9.3161 C   0  0  0  0  0  0  0  0  0  0  0  0
   23.2921  -21.4544   -8.0249 C   0  0  0  0  0  0  0  0  0  0  0  0
   21.9412  -21.4959   -7.5394 N   0  0  0  0  0  0  0  0  0  0  0  0
   23.3066  -20.5614  -12.7607 C   0  0  0  0  0  0  0  0  0  0  0  0
   22.7775  -19.4376  -12.8524 O   0  0  0  0  0  0  0  0  0  0  0  0
   22.5292  -21.7076  -13.0285 N   0  0  0  0  0  0  0  0  0  0  0  0
   21.1838  -21.5178  -13.5349 C   0  0  0  0  0  0  0  0  0  0  0  0
   20.2098  -21.2613  -12.4660 C   0  0  0  0  0  0  0  0  0  0  0  0
   20.5821  -21.2426  -11.2747 O   0  0  0  0  0  0  0  0  0  0  0  0
   18.8811  -21.0391  -12.7568 O   0  0  0  0  0  0  0  0  0  0  0  0
  2  4  1  0
  2  1  1  1
  3  2  1  0
  4  5  1  1
  6  4  1  0
  7  6  2  0
  8  6  1  0
  9  8  1  0
  9 10  1  1
 10 11  1  0
 11 12  1  0
 13 14  1  0
 13 12  1  0
 15 17  1  0
 15  9  1  0
 16 15  2  0
 18 19  1  0
 18 17  1  0
 19 21  1  0
 20 19  2  0
M  END
$$$$
