VKG.pdb
     RDKit          3D

 21 20  0  0  1  0  0  0  0  0999 V2000
   17.2287  -12.6175  -16.8438 C   0  0  0  0  0  0  0  0  0  0  0  0
   16.3259  -12.4175  -15.6148 C   0  0  2  0  0  0  0  0  0  0  0  0
   14.9431  -12.7736  -16.0628 C   0  0  0  0  0  0  0  0  0  0  0  0
   16.4910  -10.9607  -15.2242 C   0  0  2  0  0  0  0  0  0  0  0  0
   15.9037  -10.2029  -16.3420 N   0  0  0  0  0  0  0  0  0  0  0  0
   17.9136  -10.5563  -15.0871 C   0  0  0  0  0  0  0  0  0  0  0  0
   18.5676  -11.0333  -14.1362 O   0  0  0  0  0  0  0  0  0  0  0  0
   18.5335   -9.6610  -15.9931 N   0  0  0  0  0  0  0  0  0  0  0  0
   19.8958   -9.1737  -15.8775 C   0  0  1  0  0  0  0  0  0  0  0  0
   20.6325   -9.4364  -17.1546 C   0  0  0  0  0  0  0  0  0  0  0  0
   22.1174   -9.2844  -17.0664 C   0  0  0  0  0  0  0  0  0  0  0  0
   22.8122  -10.4246  -16.3697 C   0  0  0  0  0  0  0  0  0  0  0  0
   24.2985  -10.2798  -16.3502 C   0  0  0  0  0  0  0  0  0  0  0  0
   24.9665  -11.2612  -15.5422 N   0  0  0  0  0  0  0  0  0  0  0  0
   19.9363   -7.7628  -15.4526 C   0  0  0  0  0  0  0  0  0  0  0  0
   19.2982   -6.9075  -16.0949 O   0  0  0  0  0  0  0  0  0  0  0  0
   20.6862   -7.3562  -14.3292 N   0  0  0  0  0  0  0  0  0  0  0  0
   20.7344   -5.9414  -14.0153 C   0  0  0  0  0  0  0  0  0  0  0  0
   22.0502   -5.3480  -14.2867 C   0  0  0  0  0  0  0  0  0  0  0  0
   22.9414   -6.0308  -14.8324 O   0  0  0  0  0  0  0  0  0  0  0  0
   22.3210   -4.0401  -13.9470 O   0  0  0  0  0  0  0  0  0  0  0  0
  2  4  1  0
  2  1  1  6
  3  2  1  0
  4  5  1  6
  6  4  1  0
  7  6  2  0
  8  6  1  0
  9  8  1  0
  9 10  1  6
 10 11  1  0
 11 12  1  0
 13 14  1  0
 13 12  1  0
 15 17  1  0
 15  9  1  0
 16 15  2  0
 18 19  1  0
 18 17  1  0
 19 21  1  0
 20 19  2  0
M  END
$$$$
