EQT.pdb
     RDKit          3D

 26 25  0  0  1  0  0  0  0  0999 V2000
    7.2931  -14.9498   19.0249 N   0  0  0  0  0  0  0  0  0  0  0  0
    8.3263  -14.4770   19.9742 C   0  0  1  0  0  0  0  0  0  0  0  0
    8.3504  -12.9951   19.8166 C   0  0  0  0  0  0  0  0  0  0  0  0
    9.0033  -12.4672   18.5856 C   0  0  0  0  0  0  0  0  0  0  0  0
   10.3691  -13.1105   18.5200 C   0  0  0  0  0  0  0  0  0  0  0  0
   10.6137  -14.1014   17.7863 O   0  0  0  0  0  0  0  0  0  0  0  0
    7.9724  -14.9825   21.2944 C   0  0  0  0  0  0  0  0  0  0  0  0
    6.7470  -15.0175   21.6622 O   0  0  0  0  0  0  0  0  0  0  0  0
   11.4253  -12.6223   19.2818 O   0  0  0  0  0  0  0  0  0  0  0  0
   10.8466  -19.3132   24.4393 N   0  0  0  0  0  0  0  0  0  0  0  0
    9.8686  -18.9726   25.4108 C   0  0  0  0  0  0  0  0  0  0  0  0
    9.8011  -19.6609   26.4576 O   0  0  0  0  0  0  0  0  0  0  0  0
    8.9633  -17.8270   25.1675 C   0  0  0  0  0  0  0  0  0  0  0  0
    9.3389  -17.2073   23.8363 C   0  0  0  0  0  0  0  0  0  0  0  0
    8.4585  -15.9847   23.5524 C   0  0  2  0  0  0  0  0  0  0  0  0
    8.8844  -15.4704   22.2742 N   0  0  0  0  0  0  0  0  0  0  0  0
    8.7746  -14.9948   24.6044 C   0  0  0  0  0  0  0  0  0  0  0  0
    9.9493  -14.5666   24.6944 O   0  0  0  0  0  0  0  0  0  0  0  0
    7.0703  -11.6238   25.6026 C   0  0  0  0  0  0  0  0  0  0  0  0
    7.0276  -12.6145   26.7194 C   0  0  1  0  0  0  0  0  0  0  0  0
    5.8104  -13.2578   26.8410 O   0  0  0  0  0  0  0  0  0  0  0  0
    8.1826  -13.5889   26.5344 C   0  0  2  0  0  0  0  0  0  0  0  0
    7.7982  -14.5125   25.5145 N   0  0  0  0  0  0  0  0  0  0  0  0
    8.5297  -14.2491   27.8089 C   0  0  0  0  0  0  0  0  0  0  0  0
    8.4192  -15.4931   27.9448 O   0  0  0  0  0  0  0  0  0  0  0  0
    8.9880  -13.5247   28.8976 O   0  0  0  0  0  0  0  0  0  0  0  0
  2  1  1  6
  2  7  1  0
  3  2  1  0
  4  3  1  0
  5  6  2  0
  5  4  1  0
  7 16  1  0
  8  7  2  0
  9  5  1  0
 10 11  1  0
 11 12  2  0
 11 13  1  0
 13 14  1  0
 15 14  1  1
 16 15  1  0
 17 18  2  0
 17 15  1  0
 20 19  1  6
 20 22  1  0
 21 20  1  0
 22 24  1  0
 22 23  1  6
 23 17  1  0
 24 26  1  0
 25 24  2  0
M  END
$$$$
