EQT.pdb
     RDKit          3D

 26 25  0  0  1  0  0  0  0  0999 V2000
    8.1229  -13.0480   19.0270 N   0  0  0  0  0  0  0  0  0  0  0  0
    8.4723  -14.4069   19.4998 C   0  0  1  0  0  0  0  0  0  0  0  0
    9.9577  -14.4821   19.4042 C   0  0  0  0  0  0  0  0  0  0  0  0
   10.7294  -13.6026   20.3269 C   0  0  0  0  0  0  0  0  0  0  0  0
   12.1859  -13.9528   20.1284 C   0  0  0  0  0  0  0  0  0  0  0  0
   12.6417  -14.3425   19.0237 O   0  0  0  0  0  0  0  0  0  0  0  0
    7.8996  -14.5687   20.8300 C   0  0  0  0  0  0  0  0  0  0  0  0
    7.3302  -13.5797   21.4095 O   0  0  0  0  0  0  0  0  0  0  0  0
   13.0928  -13.8555   21.1784 O   0  0  0  0  0  0  0  0  0  0  0  0
    7.2954  -19.9230   23.9935 N   0  0  0  0  0  0  0  0  0  0  0  0
    6.4812  -19.0696   24.7841 C   0  0  0  0  0  0  0  0  0  0  0  0
    5.8165  -19.5764   25.7197 O   0  0  0  0  0  0  0  0  0  0  0  0
    6.4372  -17.6199   24.4884 C   0  0  0  0  0  0  0  0  0  0  0  0
    7.2398  -17.3744   23.2263 C   0  0  0  0  0  0  0  0  0  0  0  0
    7.2223  -15.8841   22.8673 C   0  0  2  0  0  0  0  0  0  0  0  0
    7.8997  -15.7677   21.5994 N   0  0  0  0  0  0  0  0  0  0  0  0
    8.0183  -15.1990   23.9083 C   0  0  0  0  0  0  0  0  0  0  0  0
    9.2687  -15.2216   23.8219 O   0  0  0  0  0  0  0  0  0  0  0  0
    7.0563  -11.6828   25.7156 C   0  0  0  0  0  0  0  0  0  0  0  0
    7.3536  -12.8092   26.6503 C   0  0  1  0  0  0  0  0  0  0  0  0
    6.2224  -13.4018   27.1787 O   0  0  0  0  0  0  0  0  0  0  0  0
    8.2451  -13.8066   25.9235 C   0  0  2  0  0  0  0  0  0  0  0  0
    7.4194  -14.5181   24.9999 N   0  0  0  0  0  0  0  0  0  0  0  0
    8.9380  -14.6939   26.8792 C   0  0  0  0  0  0  0  0  0  0  0  0
    8.8012  -15.9414   26.8207 O   0  0  0  0  0  0  0  0  0  0  0  0
    9.7611  -14.1864   27.8716 O   0  0  0  0  0  0  0  0  0  0  0  0
  2  1  1  1
  2  7  1  0
  3  2  1  0
  4  3  1  0
  5  6  2  0
  5  4  1  0
  7 16  1  0
  8  7  2  0
  9  5  1  0
 10 11  1  0
 11 12  2  0
 11 13  1  0
 13 14  1  0
 15 14  1  1
 16 15  1  0
 17 18  2  0
 17 15  1  0
 20 19  1  6
 20 22  1  0
 21 20  1  0
 22 24  1  0
 22 23  1  6
 23 17  1  0
 24 26  1  0
 25 24  2  0
M  END
$$$$
