EQT.pdb
     RDKit          3D

 26 25  0  0  1  0  0  0  0  0999 V2000
   12.4668  -17.3246   21.1037 N   0  0  0  0  0  0  0  0  0  0  0  0
   11.0806  -16.8072   21.0486 C   0  0  1  0  0  0  0  0  0  0  0  0
   10.4222  -17.5746   19.9537 C   0  0  0  0  0  0  0  0  0  0  0  0
   11.3196  -18.3508   19.0521 C   0  0  0  0  0  0  0  0  0  0  0  0
   10.4299  -18.9764   18.0031 C   0  0  0  0  0  0  0  0  0  0  0  0
    9.1765  -18.8899   18.0426 O   0  0  0  0  0  0  0  0  0  0  0  0
   10.5051  -16.9538   22.3794 C   0  0  0  0  0  0  0  0  0  0  0  0
    9.2851  -16.6303   22.5915 O   0  0  0  0  0  0  0  0  0  0  0  0
   10.9732  -19.6838   16.9360 O   0  0  0  0  0  0  0  0  0  0  0  0
   12.0811  -21.0672   26.5502 N   0  0  0  0  0  0  0  0  0  0  0  0
   11.2244  -20.2944   27.3779 C   0  0  0  0  0  0  0  0  0  0  0  0
   10.8863  -20.7637   28.4913 O   0  0  0  0  0  0  0  0  0  0  0  0
   10.7568  -18.9694   26.9122 C   0  0  0  0  0  0  0  0  0  0  0  0
   11.3332  -18.7276   25.5315 C   0  0  0  0  0  0  0  0  0  0  0  0
   10.5221  -17.6531   24.7981 C   0  0  2  0  0  0  0  0  0  0  0  0
   11.1821  -17.4445   23.5329 N   0  0  0  0  0  0  0  0  0  0  0  0
   10.6331  -16.4239   25.6127 C   0  0  0  0  0  0  0  0  0  0  0  0
   11.7405  -15.8394   25.6723 O   0  0  0  0  0  0  0  0  0  0  0  0
    8.5932  -12.6387   27.7964 C   0  0  0  0  0  0  0  0  0  0  0  0
    8.4392  -13.8729   26.9696 C   0  0  1  0  0  0  0  0  0  0  0  0
    8.1116  -13.6176   25.6515 O   0  0  0  0  0  0  0  0  0  0  0  0
    9.7138  -14.6951   27.1017 C   0  0  2  0  0  0  0  0  0  0  0  0
    9.5336  -15.8827   26.3283 N   0  0  0  0  0  0  0  0  0  0  0  0
   10.0227  -14.9715   28.5191 C   0  0  0  0  0  0  0  0  0  0  0  0
    9.8162  -16.1061   29.0174 O   0  0  0  0  0  0  0  0  0  0  0  0
   10.5493  -13.9946   29.3486 O   0  0  0  0  0  0  0  0  0  0  0  0
  2  1  1  1
  2  7  1  0
  3  2  1  0
  4  3  1  0
  5  6  2  0
  5  4  1  0
  7 16  1  0
  8  7  2  0
  9  5  1  0
 10 11  1  0
 11 12  2  0
 11 13  1  0
 13 14  1  0
 15 14  1  1
 16 15  1  0
 17 18  2  0
 17 15  1  0
 20 19  1  1
 20 22  1  0
 21 20  1  0
 22 24  1  0
 22 23  1  6
 23 17  1  0
 24 26  1  0
 25 24  2  0
M  END
$$$$
