EQT.pdb
     RDKit          3D

 26 25  0  0  1  0  0  0  0  0999 V2000
    9.7701  -18.4172   21.1488 N   0  0  0  0  0  0  0  0  0  0  0  0
    8.9248  -17.2709   20.7440 C   0  0  1  0  0  0  0  0  0  0  0  0
    8.1711  -17.7463   19.5494 C   0  0  0  0  0  0  0  0  0  0  0  0
    7.7012  -19.1601   19.5780 C   0  0  0  0  0  0  0  0  0  0  0  0
    6.8563  -19.3520   18.3399 C   0  0  0  0  0  0  0  0  0  0  0  0
    5.6066  -19.4778   18.3887 O   0  0  0  0  0  0  0  0  0  0  0  0
    8.1280  -16.8839   21.9012 C   0  0  0  0  0  0  0  0  0  0  0  0
    7.3281  -15.8877   21.8268 O   0  0  0  0  0  0  0  0  0  0  0  0
    7.4393  -19.3976   17.0781 O   0  0  0  0  0  0  0  0  0  0  0  0
    8.5343  -20.5311   24.7013 N   0  0  0  0  0  0  0  0  0  0  0  0
    7.1209  -20.5411   24.5652 C   0  0  0  0  0  0  0  0  0  0  0  0
    6.5659  -21.5953   24.1718 O   0  0  0  0  0  0  0  0  0  0  0  0
    6.3461  -19.3216   24.8870 C   0  0  0  0  0  0  0  0  0  0  0  0
    7.3249  -18.2382   25.2936 C   0  0  0  0  0  0  0  0  0  0  0  0
    7.3067  -17.0953   24.2718 C   0  0  2  0  0  0  0  0  0  0  0  0
    8.1375  -17.5242   23.1738 N   0  0  0  0  0  0  0  0  0  0  0  0
    7.9403  -15.9365   24.9369 C   0  0  0  0  0  0  0  0  0  0  0  0
    9.1847  -15.8056   24.8615 O   0  0  0  0  0  0  0  0  0  0  0  0
    7.4656  -11.5867   27.0888 C   0  0  0  0  0  0  0  0  0  0  0  0
    6.7929  -12.7825   26.4988 C   0  0  1  0  0  0  0  0  0  0  0  0
    6.0200  -12.4910   25.3908 O   0  0  0  0  0  0  0  0  0  0  0  0
    7.8582  -13.8294   26.2037 C   0  0  2  0  0  0  0  0  0  0  0  0
    7.1922  -14.9686   25.6563 N   0  0  0  0  0  0  0  0  0  0  0  0
    8.6410  -14.1462   27.4152 C   0  0  0  0  0  0  0  0  0  0  0  0
    8.4812  -15.2339   28.0232 O   0  0  0  0  0  0  0  0  0  0  0  0
    9.5766  -13.2600   27.9243 O   0  0  0  0  0  0  0  0  0  0  0  0
  2  1  1  1
  2  7  1  0
  3  2  1  0
  4  3  1  0
  5  6  2  0
  5  4  1  0
  7 16  1  0
  8  7  2  0
  9  5  1  0
 10 11  1  0
 11 12  2  0
 11 13  1  0
 13 14  1  0
 15 14  1  1
 16 15  1  0
 17 18  2  0
 17 15  1  0
 20 19  1  6
 20 22  1  0
 21 20  1  0
 22 24  1  0
 22 23  1  1
 23 17  1  0
 24 26  1  0
 25 24  2  0
M  END
$$$$
