EQT.pdb
     RDKit          3D

 26 25  0  0  1  0  0  0  0  0999 V2000
    8.2260  -13.4950   19.0023 N   0  0  0  0  0  0  0  0  0  0  0  0
    7.2731  -14.0089   20.0123 C   0  0  1  0  0  0  0  0  0  0  0  0
    6.8717  -15.3564   19.5181 C   0  0  0  0  0  0  0  0  0  0  0  0
    7.9718  -16.3327   19.2792 C   0  0  0  0  0  0  0  0  0  0  0  0
    7.3344  -17.7027   19.2927 C   0  0  0  0  0  0  0  0  0  0  0  0
    6.1531  -17.9010   18.9119 O   0  0  0  0  0  0  0  0  0  0  0  0
    7.9412  -13.9658   21.3067 C   0  0  0  0  0  0  0  0  0  0  0  0
    9.2179  -13.9016   21.3694 O   0  0  0  0  0  0  0  0  0  0  0  0
    8.0427  -18.8151   19.7345 O   0  0  0  0  0  0  0  0  0  0  0  0
    5.4900  -12.1047   26.6462 N   0  0  0  0  0  0  0  0  0  0  0  0
    6.8364  -12.3029   27.0517 C   0  0  0  0  0  0  0  0  0  0  0  0
    7.1880  -11.8851   28.1812 O   0  0  0  0  0  0  0  0  0  0  0  0
    7.7810  -12.9896   26.1421 C   0  0  0  0  0  0  0  0  0  0  0  0
    7.0752  -13.2211   24.8210 C   0  0  0  0  0  0  0  0  0  0  0  0
    8.0248  -13.8925   23.8220 C   0  0  2  0  0  0  0  0  0  0  0  0
    7.3000  -13.9863   22.5788 N   0  0  0  0  0  0  0  0  0  0  0  0
    8.2763  -15.2537   24.3420 C   0  0  0  0  0  0  0  0  0  0  0  0
    7.3173  -16.0580   24.4118 O   0  0  0  0  0  0  0  0  0  0  0  0
   11.9831  -16.6394   24.2831 C   0  0  0  0  0  0  0  0  0  0  0  0
   10.8617  -17.6247   24.3337 C   0  0  1  0  0  0  0  0  0  0  0  0
   11.2477  -18.8792   24.7663 O   0  0  0  0  0  0  0  0  0  0  0  0
    9.7486  -17.0337   25.1879 C   0  0  2  0  0  0  0  0  0  0  0  0
    9.5617  -15.6823   24.7641 N   0  0  0  0  0  0  0  0  0  0  0  0
   10.0649  -17.1485   26.6257 C   0  0  0  0  0  0  0  0  0  0  0  0
    9.7736  -18.1857   27.2720 O   0  0  0  0  0  0  0  0  0  0  0  0
   10.6919  -16.1215   27.3128 O   0  0  0  0  0  0  0  0  0  0  0  0
  2  1  1  6
  2  7  1  0
  3  2  1  0
  4  3  1  0
  5  6  2  0
  5  4  1  0
  7 16  1  0
  8  7  2  0
  9  5  1  0
 10 11  1  0
 11 12  2  0
 11 13  1  0
 13 14  1  0
 15 14  1  1
 16 15  1  0
 17 18  2  0
 17 15  1  0
 20 19  1  1
 20 22  1  0
 21 20  1  0
 22 24  1  0
 22 23  1  6
 23 17  1  0
 24 26  1  0
 25 24  2  0
M  END
$$$$
