LNR.pdb
     RDKit          3D

 28 27  0  0  1  0  0  0  0  0999 V2000
    8.8857  -12.0044   19.1969 C   0  0  0  0  0  0  0  0  0  0  0  0
    8.0173  -13.1645   18.7718 C   0  0  2  0  0  0  0  0  0  0  0  0
    6.5846  -12.6864   18.7038 C   0  0  0  0  0  0  0  0  0  0  0  0
    8.0958  -14.2451   19.8213 C   0  0  0  0  0  0  0  0  0  0  0  0
    9.5220  -14.4553   20.2993 C   0  0  2  0  0  0  0  0  0  0  0  0
   10.2905  -14.8702   19.1339 N   0  0  0  0  0  0  0  0  0  0  0  0
    9.4884  -15.5792   21.2865 C   0  0  0  0  0  0  0  0  0  0  0  0
    8.6035  -15.6791   22.1583 O   0  0  0  0  0  0  0  0  0  0  0  0
   12.3292  -19.2242   19.3717 N   0  0  0  0  0  0  0  0  0  0  0  0
   11.3317  -19.2419   20.3988 C   0  0  0  0  0  0  0  0  0  0  0  0
   10.2236  -19.7392   20.0819 O   0  0  0  0  0  0  0  0  0  0  0  0
   11.6461  -18.6951   21.7277 C   0  0  0  0  0  0  0  0  0  0  0  0
   10.6165  -17.6910   22.1149 C   0  0  2  0  0  0  0  0  0  0  0  0
   10.4867  -16.5777   21.2491 N   0  0  0  0  0  0  0  0  0  0  0  0
   10.7650  -17.2316   23.5302 C   0  0  0  0  0  0  0  0  0  0  0  0
   11.9238  -16.9364   23.8954 O   0  0  0  0  0  0  0  0  0  0  0  0
    5.6305  -12.1315   27.5587 N   0  0  0  0  0  0  0  0  0  0  0  0
    6.2405  -12.0347   26.2723 C   0  0  0  0  0  0  0  0  0  0  0  0
    6.6366  -10.8914   25.8888 N   0  0  0  0  0  0  0  0  0  0  0  0
    6.3691  -13.2222   25.4952 N   0  0  0  0  0  0  0  0  0  0  0  0
    6.7022  -14.4525   26.1857 C   0  0  0  0  0  0  0  0  0  0  0  0
    8.0523  -14.9110   25.6506 C   0  0  0  0  0  0  0  0  0  0  0  0
    8.4547  -16.1631   26.3694 C   0  0  0  0  0  0  0  0  0  0  0  0
    9.7060  -16.7927   25.8026 C   0  0  2  0  0  0  0  0  0  0  0  0
    9.6824  -17.1269   24.4243 N   0  0  0  0  0  0  0  0  0  0  0  0
   10.2735  -17.7777   26.7213 C   0  0  0  0  0  0  0  0  0  0  0  0
   10.4567  -18.9766   26.4135 O   0  0  0  0  0  0  0  0  0  0  0  0
   10.6241  -17.3501   27.9995 O   0  0  0  0  0  0  0  0  0  0  0  0
  2  1  1  1
  3  2  1  0
  4  2  1  0
  5  4  1  0
  5  6  1  6
  7  5  1  0
  8  7  2  0
  9 10  1  0
 10 12  1  0
 10 11  2  0
 13 12  1  6
 13 14  1  0
 14  7  1  0
 15 25  1  0
 15 13  1  0
 16 15  2  0
 18 19  2  0
 18 17  1  0
 20 18  1  0
 21 20  1  0
 22 21  1  0
 23 22  1  0
 24 23  1  1
 24 25  1  0
 26 28  1  0
 26 24  1  0
 27 26  2  0
M  END
$$$$
