LNR.pdb
     RDKit          3D

 28 27  0  0  1  0  0  0  0  0999 V2000
    6.6834  -14.0795   19.1647 C   0  0  0  0  0  0  0  0  0  0  0  0
    7.7581  -13.4009   19.9802 C   0  0  2  0  0  0  0  0  0  0  0  0
    7.7197  -11.9197   19.6794 C   0  0  0  0  0  0  0  0  0  0  0  0
    9.1047  -13.9263   19.5493 C   0  0  0  0  0  0  0  0  0  0  0  0
    9.2731  -15.3918   19.9110 C   0  0  2  0  0  0  0  0  0  0  0  0
    8.2223  -15.7031   20.8700 N   0  0  0  0  0  0  0  0  0  0  0  0
   10.6026  -15.5233   20.5847 C   0  0  0  0  0  0  0  0  0  0  0  0
   11.6801  -15.4020   19.9703 O   0  0  0  0  0  0  0  0  0  0  0  0
   13.0462  -14.9237   20.0020 N   0  0  0  0  0  0  0  0  0  0  0  0
   13.6107  -15.4029   21.2276 C   0  0  0  0  0  0  0  0  0  0  0  0
   14.6570  -16.0883   21.1212 O   0  0  0  0  0  0  0  0  0  0  0  0
   12.9578  -15.0785   22.5052 C   0  0  0  0  0  0  0  0  0  0  0  0
   11.8282  -16.0189   22.7459 C   0  0  2  0  0  0  0  0  0  0  0  0
   10.6652  -15.7951   21.9694 N   0  0  0  0  0  0  0  0  0  0  0  0
   11.4707  -16.1295   24.1938 C   0  0  0  0  0  0  0  0  0  0  0  0
   11.8641  -15.1996   24.9313 O   0  0  0  0  0  0  0  0  0  0  0  0
    5.7430  -20.1934   23.3576 N   0  0  0  0  0  0  0  0  0  0  0  0
    5.7512  -18.9082   22.7376 C   0  0  0  0  0  0  0  0  0  0  0  0
    4.9678  -18.7183   21.7570 N   0  0  0  0  0  0  0  0  0  0  0  0
    6.6347  -17.9159   23.2525 N   0  0  0  0  0  0  0  0  0  0  0  0
    7.2575  -18.1627   24.5381 C   0  0  0  0  0  0  0  0  0  0  0  0
    8.0208  -16.8991   24.9122 C   0  0  0  0  0  0  0  0  0  0  0  0
    8.7322  -17.1334   26.2104 C   0  0  0  0  0  0  0  0  0  0  0  0
   10.2169  -17.3561   26.0379 C   0  0  2  0  0  0  0  0  0  0  0  0
   10.7351  -17.2054   24.7261 N   0  0  0  0  0  0  0  0  0  0  0  0
   10.6798  -18.5053   26.8134 C   0  0  0  0  0  0  0  0  0  0  0  0
   11.3258  -19.4538   26.3144 O   0  0  0  0  0  0  0  0  0  0  0  0
   10.3821  -18.5359   28.1735 O   0  0  0  0  0  0  0  0  0  0  0  0
  2  1  1  6
  3  2  1  0
  4  2  1  0
  5  4  1  0
  5  6  1  1
  7  5  1  0
  8  7  2  0
  9 10  1  0
 10 12  1  0
 10 11  2  0
 13 12  1  1
 13 14  1  0
 14  7  1  0
 15 25  1  0
 15 13  1  0
 16 15  2  0
 18 19  2  0
 18 17  1  0
 20 18  1  0
 21 20  1  0
 22 21  1  0
 23 22  1  0
 24 23  1  6
 24 25  1  0
 26 28  1  0
 26 24  1  0
 27 26  2  0
M  END
$$$$
