LNR.pdb
     RDKit          3D

 28 27  0  0  1  0  0  0  0  0999 V2000
    8.7856  -13.0899   18.5282 C   0  0  0  0  0  0  0  0  0  0  0  0
    7.6516  -13.4023   19.4755 C   0  0  2  0  0  0  0  0  0  0  0  0
    7.2698  -12.1294   20.1966 C   0  0  0  0  0  0  0  0  0  0  0  0
    8.1337  -14.3920   20.5066 C   0  0  0  0  0  0  0  0  0  0  0  0
    8.6192  -15.6780   19.8606 C   0  0  2  0  0  0  0  0  0  0  0  0
    7.4319  -16.3741   19.3846 N   0  0  0  0  0  0  0  0  0  0  0  0
    9.2613  -16.4912   20.9401 C   0  0  0  0  0  0  0  0  0  0  0  0
    8.5999  -17.1184   21.7899 O   0  0  0  0  0  0  0  0  0  0  0  0
   14.6091  -19.1805   22.1894 N   0  0  0  0  0  0  0  0  0  0  0  0
   13.5204  -18.3493   22.6068 C   0  0  0  0  0  0  0  0  0  0  0  0
   13.1746  -18.4572   23.8087 O   0  0  0  0  0  0  0  0  0  0  0  0
   12.8847  -17.4424   21.6388 C   0  0  0  0  0  0  0  0  0  0  0  0
   11.4354  -17.3063   21.9538 C   0  0  2  0  0  0  0  0  0  0  0  0
   10.6696  -16.5668   21.0198 N   0  0  0  0  0  0  0  0  0  0  0  0
   11.1935  -16.7981   23.3394 C   0  0  0  0  0  0  0  0  0  0  0  0
   11.2163  -15.5563   23.4830 O   0  0  0  0  0  0  0  0  0  0  0  0
    5.4184  -13.0479   26.5066 N   0  0  0  0  0  0  0  0  0  0  0  0
    6.6812  -12.3912   26.6089 C   0  0  0  0  0  0  0  0  0  0  0  0
    6.6830  -11.1331   26.7766 N   0  0  0  0  0  0  0  0  0  0  0  0
    7.8628  -13.1824   26.5172 N   0  0  0  0  0  0  0  0  0  0  0  0
    7.7391  -14.5294   25.9959 C   0  0  0  0  0  0  0  0  0  0  0  0
    9.1073  -15.1849   26.1289 C   0  0  0  0  0  0  0  0  0  0  0  0
    9.0199  -16.5896   25.6135 C   0  0  0  0  0  0  0  0  0  0  0  0
   10.3385  -17.3249   25.6780 C   0  0  2  0  0  0  0  0  0  0  0  0
   10.9512  -17.6433   24.4390 N   0  0  0  0  0  0  0  0  0  0  0  0
   10.3220  -18.3653   26.7045 C   0  0  0  0  0  0  0  0  0  0  0  0
    9.6381  -18.2866   27.7494 O   0  0  0  0  0  0  0  0  0  0  0  0
   11.1096  -19.4954   26.4992 O   0  0  0  0  0  0  0  0  0  0  0  0
  2  1  1  6
  3  2  1  0
  4  2  1  0
  5  4  1  0
  5  6  1  1
  7  5  1  0
  8  7  2  0
  9 10  1  0
 10 12  1  0
 10 11  2  0
 13 12  1  6
 13 14  1  0
 14  7  1  0
 15 25  1  0
 15 13  1  0
 16 15  2  0
 18 19  2  0
 18 17  1  0
 20 18  1  0
 21 20  1  0
 22 21  1  0
 23 22  1  0
 24 23  1  6
 24 25  1  0
 26 28  1  0
 26 24  1  0
 27 26  2  0
M  END
$$$$
