LNR.pdb
     RDKit          3D

 28 27  0  0  1  0  0  0  0  0999 V2000
    7.2297  -12.8034   20.4140 C   0  0  0  0  0  0  0  0  0  0  0  0
    8.0421  -13.4965   19.3462 C   0  0  2  0  0  0  0  0  0  0  0  0
    7.4319  -13.1751   18.0007 C   0  0  0  0  0  0  0  0  0  0  0  0
    7.9503  -14.9879   19.5521 C   0  0  0  0  0  0  0  0  0  0  0  0
    7.4329  -15.3284   20.9389 C   0  0  2  0  0  0  0  0  0  0  0  0
    7.2846  -14.0637   21.6456 N   0  0  0  0  0  0  0  0  0  0  0  0
    8.4940  -16.1412   21.6113 C   0  0  0  0  0  0  0  0  0  0  0  0
    8.7739  -17.3027   21.2567 O   0  0  0  0  0  0  0  0  0  0  0  0
   13.6630  -16.2165   24.4304 N   0  0  0  0  0  0  0  0  0  0  0  0
   12.5446  -16.8444   23.7937 C   0  0  0  0  0  0  0  0  0  0  0  0
   12.4254  -18.0796   23.9826 O   0  0  0  0  0  0  0  0  0  0  0  0
   11.6239  -16.0371   22.9786 C   0  0  0  0  0  0  0  0  0  0  0  0
   10.2269  -16.2308   23.4572 C   0  0  2  0  0  0  0  0  0  0  0  0
    9.2203  -15.5932   22.6917 N   0  0  0  0  0  0  0  0  0  0  0  0
   10.0642  -15.8979   24.9061 C   0  0  0  0  0  0  0  0  0  0  0  0
   11.0013  -15.2604   25.4340 O   0  0  0  0  0  0  0  0  0  0  0  0
    7.2550  -23.3228   25.3293 N   0  0  0  0  0  0  0  0  0  0  0  0
    6.0805  -22.5126   25.3061 C   0  0  0  0  0  0  0  0  0  0  0  0
    5.1487  -22.8424   24.5098 N   0  0  0  0  0  0  0  0  0  0  0  0
    6.0216  -21.3843   26.1744 N   0  0  0  0  0  0  0  0  0  0  0  0
    7.2727  -20.7802   26.5884 C   0  0  0  0  0  0  0  0  0  0  0  0
    7.0592  -19.2723   26.5897 C   0  0  0  0  0  0  0  0  0  0  0  0
    8.1504  -18.6313   25.7867 C   0  0  0  0  0  0  0  0  0  0  0  0
    8.7479  -17.4200   26.4644 C   0  0  2  0  0  0  0  0  0  0  0  0
    8.9335  -16.2669   25.6595 N   0  0  0  0  0  0  0  0  0  0  0  0
    9.8388  -17.7926   27.3631 C   0  0  0  0  0  0  0  0  0  0  0  0
   10.0367  -17.2387   28.4675 O   0  0  0  0  0  0  0  0  0  0  0  0
   10.6937  -18.8156   26.9606 O   0  0  0  0  0  0  0  0  0  0  0  0
  2  1  1  1
  3  2  1  0
  4  2  1  0
  5  4  1  0
  5  6  1  1
  7  5  1  0
  8  7  2  0
  9 10  1  0
 10 12  1  0
 10 11  2  0
 13 12  1  6
 13 14  1  0
 14  7  1  0
 15 25  1  0
 15 13  1  0
 16 15  2  0
 18 19  2  0
 18 17  1  0
 20 18  1  0
 21 20  1  0
 22 21  1  0
 23 22  1  0
 24 23  1  6
 24 25  1  0
 26 28  1  0
 26 24  1  0
 27 26  2  0
M  END
$$$$
