LNR.pdb
     RDKit          3D

 28 27  0  0  1  0  0  0  0  0999 V2000
    8.8939  -11.9439   19.8451 C   0  0  0  0  0  0  0  0  0  0  0  0
    8.0112  -13.0689   19.3593 C   0  0  2  0  0  0  0  0  0  0  0  0
    6.5759  -12.5948   19.3904 C   0  0  0  0  0  0  0  0  0  0  0  0
    8.1350  -14.2336   20.3096 C   0  0  0  0  0  0  0  0  0  0  0  0
    9.5519  -14.3732   20.8387 C   0  0  2  0  0  0  0  0  0  0  0  0
   10.3932  -14.6764   19.6893 N   0  0  0  0  0  0  0  0  0  0  0  0
    9.5552  -15.5457   21.7683 C   0  0  0  0  0  0  0  0  0  0  0  0
    8.6408  -15.7525   22.5893 O   0  0  0  0  0  0  0  0  0  0  0  0
   11.2223  -20.3369   20.7709 N   0  0  0  0  0  0  0  0  0  0  0  0
   11.8215  -19.0436   20.9073 C   0  0  0  0  0  0  0  0  0  0  0  0
   12.1775  -18.4862   19.8403 O   0  0  0  0  0  0  0  0  0  0  0  0
   11.9838  -18.4544   22.2453 C   0  0  0  0  0  0  0  0  0  0  0  0
   10.8067  -17.5995   22.5645 C   0  0  2  0  0  0  0  0  0  0  0  0
   10.6247  -16.4677   21.7329 N   0  0  0  0  0  0  0  0  0  0  0  0
   10.7621  -17.1968   24.0040 C   0  0  0  0  0  0  0  0  0  0  0  0
   11.7044  -16.4796   24.4054 O   0  0  0  0  0  0  0  0  0  0  0  0
    7.9852  -12.7274   27.2297 N   0  0  0  0  0  0  0  0  0  0  0  0
    6.8130  -12.6099   26.4244 C   0  0  0  0  0  0  0  0  0  0  0  0
    6.3338  -11.4489   26.2412 N   0  0  0  0  0  0  0  0  0  0  0  0
    6.2500  -13.7978   25.8746 N   0  0  0  0  0  0  0  0  0  0  0  0
    6.5477  -15.0563   26.5296 C   0  0  0  0  0  0  0  0  0  0  0  0
    7.9099  -15.5103   26.0222 C   0  0  0  0  0  0  0  0  0  0  0  0
    8.3027  -16.7599   26.7506 C   0  0  0  0  0  0  0  0  0  0  0  0
    9.6167  -17.3332   26.2727 C   0  0  2  0  0  0  0  0  0  0  0  0
    9.7326  -17.5864   24.8819 N   0  0  0  0  0  0  0  0  0  0  0  0
   10.1163  -18.3603   27.1848 C   0  0  0  0  0  0  0  0  0  0  0  0
   10.1841  -18.2022   28.4242 O   0  0  0  0  0  0  0  0  0  0  0  0
   10.5346  -19.5703   26.6369 O   0  0  0  0  0  0  0  0  0  0  0  0
  2  1  1  1
  3  2  1  0
  4  2  1  0
  5  4  1  0
  5  6  1  6
  7  5  1  0
  8  7  2  0
  9 10  1  0
 10 12  1  0
 10 11  2  0
 13 12  1  6
 13 14  1  0
 14  7  1  0
 15 25  1  0
 15 13  1  0
 16 15  2  0
 18 19  2  0
 18 17  1  0
 20 18  1  0
 21 20  1  0
 22 21  1  0
 23 22  1  0
 24 23  1  1
 24 25  1  0
 26 28  1  0
 26 24  1  0
 27 26  2  0
M  END
$$$$
