LNR.pdb
     RDKit          3D

 28 27  0  0  1  0  0  0  0  0999 V2000
    8.6104  -13.4798   18.7940 C   0  0  0  0  0  0  0  0  0  0  0  0
    7.7100  -13.5551   20.0041 C   0  0  2  0  0  0  0  0  0  0  0  0
    7.2065  -12.1626   20.3097 C   0  0  0  0  0  0  0  0  0  0  0  0
    8.5185  -14.0254   21.1874 C   0  0  0  0  0  0  0  0  0  0  0  0
    9.0459  -15.4342   20.9777 C   0  0  2  0  0  0  0  0  0  0  0  0
    7.9042  -16.2471   20.5819 N   0  0  0  0  0  0  0  0  0  0  0  0
    9.5485  -15.9121   22.3036 C   0  0  0  0  0  0  0  0  0  0  0  0
   10.4099  -15.2921   22.9567 O   0  0  0  0  0  0  0  0  0  0  0  0
    6.0505  -17.4152   24.6999 N   0  0  0  0  0  0  0  0  0  0  0  0
    7.3636  -17.4012   25.2708 C   0  0  0  0  0  0  0  0  0  0  0  0
    7.5820  -16.5106   26.1279 O   0  0  0  0  0  0  0  0  0  0  0  0
    8.3556  -18.3976   24.8383 C   0  0  0  0  0  0  0  0  0  0  0  0
    9.4396  -17.7266   24.0683 C   0  0  2  0  0  0  0  0  0  0  0  0
    9.0424  -17.1089   22.8573 N   0  0  0  0  0  0  0  0  0  0  0  0
   10.6151  -18.6204   23.8323 C   0  0  0  0  0  0  0  0  0  0  0  0
   10.3744  -19.7109   23.2700 O   0  0  0  0  0  0  0  0  0  0  0  0
   18.8303  -17.8957   20.8682 N   0  0  0  0  0  0  0  0  0  0  0  0
   18.8356  -19.0600   21.6932 C   0  0  0  0  0  0  0  0  0  0  0  0
   19.9539  -19.6087   21.9367 N   0  0  0  0  0  0  0  0  0  0  0  0
   17.5901  -19.5378   22.1942 N   0  0  0  0  0  0  0  0  0  0  0  0
   16.6022  -18.5588   22.6030 C   0  0  0  0  0  0  0  0  0  0  0  0
   15.4614  -19.3256   23.2586 C   0  0  0  0  0  0  0  0  0  0  0  0
   14.2859  -18.4073   23.4046 C   0  0  0  0  0  0  0  0  0  0  0  0
   13.1085  -19.0605   24.0907 C   0  0  2  0  0  0  0  0  0  0  0  0
   11.9287  -18.2821   24.2095 N   0  0  0  0  0  0  0  0  0  0  0  0
   13.5285  -19.8242   25.2641 C   0  0  0  0  0  0  0  0  0  0  0  0
   13.2713  -19.4746   26.4377 O   0  0  0  0  0  0  0  0  0  0  0  0
   14.2497  -20.9969   25.0541 O   0  0  0  0  0  0  0  0  0  0  0  0
  2  1  1  6
  3  2  1  0
  4  2  1  0
  5  4  1  0
  5  6  1  1
  7  5  1  0
  8  7  2  0
  9 10  1  0
 10 12  1  0
 10 11  2  0
 13 12  1  6
 13 14  1  0
 14  7  1  0
 15 25  1  0
 15 13  1  0
 16 15  2  0
 18 19  2  0
 18 17  1  0
 20 18  1  0
 21 20  1  0
 22 21  1  0
 23 22  1  0
 24 23  1  1
 24 25  1  0
 26 28  1  0
 26 24  1  0
 27 26  2  0
M  END
$$$$
