LNR.pdb
     RDKit          3D

 28 27  0  0  1  0  0  0  0  0999 V2000
    8.0475  -13.4977   18.4919 C   0  0  0  0  0  0  0  0  0  0  0  0
    7.3644  -13.8347   19.7960 C   0  0  2  0  0  0  0  0  0  0  0  0
    6.4772  -12.6730   20.1823 C   0  0  0  0  0  0  0  0  0  0  0  0
    8.4114  -13.9950   20.8699 C   0  0  0  0  0  0  0  0  0  0  0  0
    9.4012  -15.0938   20.5238 C   0  0  2  0  0  0  0  0  0  0  0  0
    8.6208  -16.3103   20.3450 N   0  0  0  0  0  0  0  0  0  0  0  0
   10.2985  -15.2599   21.7096 C   0  0  0  0  0  0  0  0  0  0  0  0
   10.8956  -14.3020   22.2375 O   0  0  0  0  0  0  0  0  0  0  0  0
   11.5791  -18.3286   26.5317 N   0  0  0  0  0  0  0  0  0  0  0  0
   12.0074  -18.3207   25.1654 C   0  0  0  0  0  0  0  0  0  0  0  0
   13.2341  -18.5034   24.9717 O   0  0  0  0  0  0  0  0  0  0  0  0
   11.0214  -18.1062   24.0950 C   0  0  0  0  0  0  0  0  0  0  0  0
   11.3875  -16.8950   23.3093 C   0  0  2  0  0  0  0  0  0  0  0  0
   10.4921  -16.5418   22.2704 N   0  0  0  0  0  0  0  0  0  0  0  0
   12.7885  -16.9490   22.7891 C   0  0  0  0  0  0  0  0  0  0  0  0
   13.4902  -17.9018   23.1929 O   0  0  0  0  0  0  0  0  0  0  0  0
   17.0911  -12.1570   16.5695 N   0  0  0  0  0  0  0  0  0  0  0  0
   18.0171  -13.1784   16.9378 C   0  0  0  0  0  0  0  0  0  0  0  0
   19.1135  -13.2417   16.3014 N   0  0  0  0  0  0  0  0  0  0  0  0
   17.6590  -14.0651   17.9942 N   0  0  0  0  0  0  0  0  0  0  0  0
   16.3732  -13.8730   18.6353 C   0  0  0  0  0  0  0  0  0  0  0  0
   16.2405  -14.9552   19.6986 C   0  0  0  0  0  0  0  0  0  0  0  0
   14.8641  -14.8847   20.2876 C   0  0  0  0  0  0  0  0  0  0  0  0
   14.6278  -15.9220   21.3608 C   0  0  2  0  0  0  0  0  0  0  0  0
   13.3163  -15.9973   21.8958 N   0  0  0  0  0  0  0  0  0  0  0  0
   15.7413  -15.9781   22.3060 C   0  0  0  0  0  0  0  0  0  0  0  0
   15.8491  -15.2063   23.2850 O   0  0  0  0  0  0  0  0  0  0  0  0
   16.7249  -16.9417   22.0973 O   0  0  0  0  0  0  0  0  0  0  0  0
  2  1  1  6
  3  2  1  0
  4  2  1  0
  5  4  1  0
  5  6  1  1
  7  5  1  0
  8  7  2  0
  9 10  1  0
 10 12  1  0
 10 11  2  0
 13 12  1  6
 13 14  1  0
 14  7  1  0
 15 25  1  0
 15 13  1  0
 16 15  2  0
 18 19  2  0
 18 17  1  0
 20 18  1  0
 21 20  1  0
 22 21  1  0
 23 22  1  0
 24 23  1  1
 24 25  1  0
 26 28  1  0
 26 24  1  0
 27 26  2  0
M  END
$$$$
