TYK.pdb
     RDKit          3D

 29 29  0  0  1  0  0  0  0  0999 V2000
    6.6343  -15.8481   20.1959 C   0  0  0  0  0  0  0  0  0  0  0  0
    7.2741  -14.7158   19.4583 C   0  0  1  0  0  0  0  0  0  0  0  0
    6.6786  -14.4542   18.2230 O   0  0  0  0  0  0  0  0  0  0  0  0
    7.4168  -13.4557   20.2639 C   0  0  2  0  0  0  0  0  0  0  0  0
    7.8545  -12.3674   19.4476 N   0  0  0  0  0  0  0  0  0  0  0  0
    8.2763  -13.5832   21.4433 C   0  0  0  0  0  0  0  0  0  0  0  0
    9.5332  -13.6335   21.3308 O   0  0  0  0  0  0  0  0  0  0  0  0
   10.3939  -15.2389   29.9387 O   0  0  0  0  0  0  0  0  0  0  0  0
    9.7422  -14.8561   28.7642 C   0  0  0  0  0  0  0  0  0  0  0  0
    8.9698  -15.7702   28.1039 C   0  0  0  0  0  0  0  0  0  0  0  0
    8.3087  -15.4113   26.9281 C   0  0  0  0  0  0  0  0  0  0  0  0
    8.4140  -14.1436   26.4067 C   0  0  0  0  0  0  0  0  0  0  0  0
    7.7005  -13.7954   25.1620 C   0  0  0  0  0  0  0  0  0  0  0  0
    8.5165  -13.9921   23.9128 C   0  0  2  0  0  0  0  0  0  0  0  0
    7.7323  -13.6542   22.7358 N   0  0  0  0  0  0  0  0  0  0  0  0
    8.9040  -15.4227   23.8690 C   0  0  0  0  0  0  0  0  0  0  0  0
    8.0196  -16.2765   23.6402 O   0  0  0  0  0  0  0  0  0  0  0  0
    9.1958  -13.2441   27.0889 C   0  0  0  0  0  0  0  0  0  0  0  0
    9.8536  -13.5843   28.2497 C   0  0  0  0  0  0  0  0  0  0  0  0
   10.2342  -15.8670   24.0754 N   0  0  0  0  0  0  0  0  0  0  0  0
   10.6406  -17.2641   23.9894 C   0  0  1  0  0  0  0  0  0  0  0  0
   11.4622  -17.4935   22.7399 C   0  0  0  0  0  0  0  0  0  0  0  0
   12.0171  -18.8719   22.6306 C   0  0  0  0  0  0  0  0  0  0  0  0
   12.8573  -19.0466   21.3669 C   0  0  0  0  0  0  0  0  0  0  0  0
   13.3875  -20.4422   21.2433 C   0  0  0  0  0  0  0  0  0  0  0  0
   14.1038  -20.5478   20.0004 N   0  0  0  0  0  0  0  0  0  0  0  0
   11.4278  -17.6241   25.1853 C   0  0  0  0  0  0  0  0  0  0  0  0
   11.8467  -18.7800   25.4304 O   0  0  0  0  0  0  0  0  0  0  0  0
   11.7438  -16.6393   26.1235 O   0  0  0  0  0  0  0  0  0  0  0  0
  2  4  1  0
  2  1  1  1
  3  2  1  0
  4  5  1  6
  6  4  1  0
  6  7  2  0
  8  9  1  0
  9 10  2  0
 10 11  1  0
 12 11  2  0
 12 13  1  0
 14 13  1  1
 14 15  1  0
 14 16  1  0
 15  6  1  0
 16 20  1  0
 17 16  2  0
 18 12  1  0
 19  9  1  0
 19 18  2  0
 20 21  1  0
 21 27  1  0
 22 23  1  0
 21 22  1  6
 24 23  1  0
 25 24  1  0
 26 25  1  0
 27 28  2  0
 27 29  1  0
M  END
$$$$
