TYK.pdb
     RDKit          3D

 29 29  0  0  1  0  0  0  0  0999 V2000
    7.6560  -18.5983   18.1260 C   0  0  0  0  0  0  0  0  0  0  0  0
    8.0279  -18.0313   19.4586 C   0  0  1  0  0  0  0  0  0  0  0  0
    8.7318  -18.9284   20.2640 O   0  0  0  0  0  0  0  0  0  0  0  0
    8.7297  -16.7045   19.3914 C   0  0  2  0  0  0  0  0  0  0  0  0
    9.9403  -16.7979   18.6380 N   0  0  0  0  0  0  0  0  0  0  0  0
    8.9892  -16.0883   20.6948 C   0  0  0  0  0  0  0  0  0  0  0  0
   10.1134  -16.2056   21.2583 O   0  0  0  0  0  0  0  0  0  0  0  0
    7.2237  -11.9497   28.3733 O   0  0  0  0  0  0  0  0  0  0  0  0
    7.1479  -12.4589   27.0750 C   0  0  0  0  0  0  0  0  0  0  0  0
    7.9154  -11.8962   26.0939 C   0  0  0  0  0  0  0  0  0  0  0  0
    7.8569  -12.3876   24.7889 C   0  0  0  0  0  0  0  0  0  0  0  0
    7.0357  -13.4391   24.4566 C   0  0  0  0  0  0  0  0  0  0  0  0
    6.9985  -13.9364   23.0670 C   0  0  0  0  0  0  0  0  0  0  0  0
    8.1811  -14.7870   22.6890 C   0  0  2  0  0  0  0  0  0  0  0  0
    7.9984  -15.3487   21.3603 N   0  0  0  0  0  0  0  0  0  0  0  0
    8.2692  -15.8765   23.6911 C   0  0  0  0  0  0  0  0  0  0  0  0
    7.3172  -16.6814   23.7867 O   0  0  0  0  0  0  0  0  0  0  0  0
    6.2750  -13.9867   25.4601 C   0  0  0  0  0  0  0  0  0  0  0  0
    6.3227  -13.5120   26.7518 C   0  0  0  0  0  0  0  0  0  0  0  0
    9.3860  -16.0469   24.5473 N   0  0  0  0  0  0  0  0  0  0  0  0
    9.4988  -17.1255   25.5212 C   0  0  1  0  0  0  0  0  0  0  0  0
   10.7482  -17.9375   25.2594 C   0  0  0  0  0  0  0  0  0  0  0  0
   10.5781  -18.9795   24.2081 C   0  0  0  0  0  0  0  0  0  0  0  0
   11.8771  -19.7398   23.9475 C   0  0  0  0  0  0  0  0  0  0  0  0
   11.7062  -20.7784   22.8817 C   0  0  0  0  0  0  0  0  0  0  0  0
   13.0000  -21.3214   22.5648 N   0  0  0  0  0  0  0  0  0  0  0  0
    9.5405  -16.5585   26.8836 C   0  0  0  0  0  0  0  0  0  0  0  0
    9.8367  -15.3679   27.1416 O   0  0  0  0  0  0  0  0  0  0  0  0
    9.2364  -17.3716   27.9773 O   0  0  0  0  0  0  0  0  0  0  0  0
  2  4  1  0
  2  1  1  6
  3  2  1  0
  4  5  1  1
  6  4  1  0
  6  7  2  0
  8  9  1  0
  9 10  2  0
 10 11  1  0
 12 11  2  0
 12 13  1  0
 14 13  1  1
 14 15  1  0
 14 16  1  0
 15  6  1  0
 16 20  1  0
 17 16  2  0
 18 12  1  0
 19  9  1  0
 19 18  2  0
 20 21  1  0
 21 27  1  0
 22 23  1  0
 21 22  1  6
 24 23  1  0
 25 24  1  0
 26 25  1  0
 27 28  2  0
 27 29  1  0
M  END
$$$$
