TYK.pdb
     RDKit          3D

 29 29  0  0  1  0  0  0  0  0999 V2000
    6.3986  -16.3793   17.7555 C   0  0  0  0  0  0  0  0  0  0  0  0
    7.0874  -16.2146   19.0723 C   0  0  1  0  0  0  0  0  0  0  0  0
    7.8796  -17.3096   19.4223 O   0  0  0  0  0  0  0  0  0  0  0  0
    7.8539  -14.9299   19.2123 C   0  0  2  0  0  0  0  0  0  0  0  0
    8.8616  -14.8172   18.2054 N   0  0  0  0  0  0  0  0  0  0  0  0
    8.4353  -14.7114   20.5390 C   0  0  0  0  0  0  0  0  0  0  0  0
    9.6447  -14.9894   20.7739 O   0  0  0  0  0  0  0  0  0  0  0  0
    8.3987  -13.2925   29.3583 O   0  0  0  0  0  0  0  0  0  0  0  0
    8.1173  -13.3169   27.9904 C   0  0  0  0  0  0  0  0  0  0  0  0
    6.8204  -13.4512   27.5805 C   0  0  0  0  0  0  0  0  0  0  0  0
    6.5142  -13.4782   26.2190 C   0  0  0  0  0  0  0  0  0  0  0  0
    7.4963  -13.3720   25.2627 C   0  0  0  0  0  0  0  0  0  0  0  0
    7.1388  -13.4024   23.8305 C   0  0  0  0  0  0  0  0  0  0  0  0
    8.1491  -14.1023   22.9619 C   0  0  2  0  0  0  0  0  0  0  0  0
    7.6686  -14.1872   21.5920 N   0  0  0  0  0  0  0  0  0  0  0  0
    8.3308  -15.4641   23.5196 C   0  0  0  0  0  0  0  0  0  0  0  0
    7.3852  -16.2778   23.4345 O   0  0  0  0  0  0  0  0  0  0  0  0
    8.7909  -13.2381   25.7005 C   0  0  0  0  0  0  0  0  0  0  0  0
    9.1074  -13.2099   27.0403 C   0  0  0  0  0  0  0  0  0  0  0  0
    9.5303  -15.8860   24.1462 N   0  0  0  0  0  0  0  0  0  0  0  0
    9.7375  -17.2308   24.6690 C   0  0  1  0  0  0  0  0  0  0  0  0
   10.7181  -17.9848   23.7978 C   0  0  0  0  0  0  0  0  0  0  0  0
   10.2850  -19.3716   23.4677 C   0  0  0  0  0  0  0  0  0  0  0  0
   11.2676  -20.0635   22.5247 C   0  0  0  0  0  0  0  0  0  0  0  0
   10.8539  -21.4729   22.2311 C   0  0  0  0  0  0  0  0  0  0  0  0
   11.8222  -22.0547   21.3406 N   0  0  0  0  0  0  0  0  0  0  0  0
   10.2483  -17.1499   26.0518 C   0  0  0  0  0  0  0  0  0  0  0  0
   10.8750  -16.1674   26.5142 O   0  0  0  0  0  0  0  0  0  0  0  0
   10.0377  -18.2173   26.9270 O   0  0  0  0  0  0  0  0  0  0  0  0
  2  4  1  0
  2  1  1  6
  3  2  1  0
  4  5  1  6
  6  4  1  0
  6  7  2  0
  8  9  1  0
  9 10  2  0
 10 11  1  0
 12 11  2  0
 12 13  1  0
 14 13  1  1
 14 15  1  0
 14 16  1  0
 15  6  1  0
 16 20  1  0
 17 16  2  0
 18 12  1  0
 19  9  1  0
 19 18  2  0
 20 21  1  0
 21 27  1  0
 22 23  1  0
 21 22  1  6
 24 23  1  0
 25 24  1  0
 26 25  1  0
 27 28  2  0
 27 29  1  0
M  END
$$$$
