TYK.pdb
     RDKit          3D

 29 29  0  0  1  0  0  0  0  0999 V2000
    5.4270  -16.8126   19.6817 C   0  0  0  0  0  0  0  0  0  0  0  0
    6.4575  -16.6169   20.7473 C   0  0  1  0  0  0  0  0  0  0  0  0
    7.5988  -17.3994   20.5628 O   0  0  0  0  0  0  0  0  0  0  0  0
    6.8243  -15.1812   20.9957 C   0  0  2  0  0  0  0  0  0  0  0  0
    7.2855  -14.5513   19.7988 N   0  0  0  0  0  0  0  0  0  0  0  0
    7.7892  -14.9800   22.0794 C   0  0  0  0  0  0  0  0  0  0  0  0
    9.0124  -14.7827   21.8340 O   0  0  0  0  0  0  0  0  0  0  0  0
   10.9180  -14.6019   30.4143 O   0  0  0  0  0  0  0  0  0  0  0  0
   10.1010  -14.6001   29.2815 C   0  0  0  0  0  0  0  0  0  0  0  0
    9.5294  -15.7721   28.8717 C   0  0  0  0  0  0  0  0  0  0  0  0
    8.7093  -15.7955   27.7426 C   0  0  0  0  0  0  0  0  0  0  0  0
    8.4557  -14.6544   27.0188 C   0  0  0  0  0  0  0  0  0  0  0  0
    7.5820  -14.7128   25.8301 C   0  0  0  0  0  0  0  0  0  0  0  0
    8.3214  -14.9233   24.5364 C   0  0  2  0  0  0  0  0  0  0  0  0
    7.3874  -15.0003   23.4245 N   0  0  0  0  0  0  0  0  0  0  0  0
    9.0627  -16.2013   24.6638 C   0  0  0  0  0  0  0  0  0  0  0  0
    8.4121  -17.2616   24.7899 O   0  0  0  0  0  0  0  0  0  0  0  0
    9.0416  -13.4902   27.4512 C   0  0  0  0  0  0  0  0  0  0  0  0
    9.8528  -13.4525   28.5632 C   0  0  0  0  0  0  0  0  0  0  0  0
   10.4782  -16.2753   24.6494 N   0  0  0  0  0  0  0  0  0  0  0  0
   11.2216  -17.5254   24.7453 C   0  0  1  0  0  0  0  0  0  0  0  0
   12.3571  -17.5362   23.7455 C   0  0  0  0  0  0  0  0  0  0  0  0
   11.9096  -17.4437   22.3274 C   0  0  0  0  0  0  0  0  0  0  0  0
   13.0824  -17.5501   21.3544 C   0  0  0  0  0  0  0  0  0  0  0  0
   12.6303  -17.4515   19.9297 C   0  0  0  0  0  0  0  0  0  0  0  0
   13.7833  -17.5700   19.0778 N   0  0  0  0  0  0  0  0  0  0  0  0
   11.7519  -17.6810   26.1143 C   0  0  0  0  0  0  0  0  0  0  0  0
   11.7445  -16.7734   26.9792 O   0  0  0  0  0  0  0  0  0  0  0  0
   12.3037  -18.9030   26.5040 O   0  0  0  0  0  0  0  0  0  0  0  0
  2  4  1  0
  2  1  1  6
  3  2  1  0
  4  5  1  6
  6  4  1  0
  6  7  2  0
  8  9  1  0
  9 10  2  0
 10 11  1  0
 12 11  2  0
 12 13  1  0
 14 13  1  1
 14 15  1  0
 14 16  1  0
 15  6  1  0
 16 20  1  0
 17 16  2  0
 18 12  1  0
 19  9  1  0
 19 18  2  0
 20 21  1  0
 21 27  1  0
 22 23  1  0
 21 22  1  6
 24 23  1  0
 25 24  1  0
 26 25  1  0
 27 28  2  0
 27 29  1  0
M  END
$$$$
