TYK.pdb
     RDKit          3D

 29 29  0  0  1  0  0  0  0  0999 V2000
    6.9594  -14.8574   17.1199 C   0  0  0  0  0  0  0  0  0  0  0  0
    7.5525  -14.8381   18.4923 C   0  0  1  0  0  0  0  0  0  0  0  0
    8.7485  -15.5518   18.5876 O   0  0  0  0  0  0  0  0  0  0  0  0
    7.6974  -13.4645   19.0836 C   0  0  2  0  0  0  0  0  0  0  0  0
    8.4875  -12.6211   18.2431 N   0  0  0  0  0  0  0  0  0  0  0  0
    8.2158  -13.4448   20.4535 C   0  0  0  0  0  0  0  0  0  0  0  0
    9.4583  -13.4371   20.6796 O   0  0  0  0  0  0  0  0  0  0  0  0
    8.2474  -13.4612   29.3443 O   0  0  0  0  0  0  0  0  0  0  0  0
    7.8567  -13.4293   28.0037 C   0  0  0  0  0  0  0  0  0  0  0  0
    8.0925  -12.3012   27.2689 C   0  0  0  0  0  0  0  0  0  0  0  0
    7.7112  -12.2454   25.9274 C   0  0  0  0  0  0  0  0  0  0  0  0
    7.0950  -13.3105   25.3139 C   0  0  0  0  0  0  0  0  0  0  0  0
    6.7058  -13.2199   23.8926 C   0  0  0  0  0  0  0  0  0  0  0  0
    7.8093  -13.5720   22.9318 C   0  0  2  0  0  0  0  0  0  0  0  0
    7.3501  -13.4346   21.5589 N   0  0  0  0  0  0  0  0  0  0  0  0
    8.1853  -14.9809   23.2010 C   0  0  0  0  0  0  0  0  0  0  0  0
    7.4114  -15.8895   22.8280 O   0  0  0  0  0  0  0  0  0  0  0  0
    6.8696  -14.4318   26.0738 C   0  0  0  0  0  0  0  0  0  0  0  0
    7.2404  -14.5007   27.3981 C   0  0  0  0  0  0  0  0  0  0  0  0
    9.3845  -15.3449   23.8634 N   0  0  0  0  0  0  0  0  0  0  0  0
    9.7913  -16.7254   24.0945 C   0  0  1  0  0  0  0  0  0  0  0  0
   11.0737  -17.0241   23.3493 C   0  0  0  0  0  0  0  0  0  0  0  0
   11.5375  -18.4326   23.4928 C   0  0  0  0  0  0  0  0  0  0  0  0
   12.7597  -18.7188   22.6223 C   0  0  0  0  0  0  0  0  0  0  0  0
   13.2631  -20.1162   22.8171 C   0  0  0  0  0  0  0  0  0  0  0  0
   12.3286  -21.0248   22.2085 N   0  0  0  0  0  0  0  0  0  0  0  0
    9.9836  -16.9481   25.5412 C   0  0  0  0  0  0  0  0  0  0  0  0
   10.2267  -18.0655   26.0550 O   0  0  0  0  0  0  0  0  0  0  0  0
    9.8960  -15.8678   26.4216 O   0  0  0  0  0  0  0  0  0  0  0  0
  2  4  1  0
  2  1  1  6
  3  2  1  0
  4  5  1  6
  6  4  1  0
  6  7  2  0
  8  9  1  0
  9 10  2  0
 10 11  1  0
 12 11  2  0
 12 13  1  0
 14 13  1  1
 14 15  1  0
 14 16  1  0
 15  6  1  0
 16 20  1  0
 17 16  2  0
 18 12  1  0
 19  9  1  0
 19 18  2  0
 20 21  1  0
 21 27  1  0
 22 23  1  0
 21 22  1  6
 24 23  1  0
 25 24  1  0
 26 25  1  0
 27 28  2  0
 27 29  1  0
M  END
$$$$
