TYK.pdb
     RDKit          3D

 29 29  0  0  1  0  0  0  0  0999 V2000
    2.6107  -18.8657   21.4680 C   0  0  0  0  0  0  0  0  0  0  0  0
    3.9500  -18.5533   22.0547 C   0  0  1  0  0  0  0  0  0  0  0  0
    4.4805  -19.6009   22.8097 O   0  0  0  0  0  0  0  0  0  0  0  0
    4.9557  -18.0430   21.0620 C   0  0  2  0  0  0  0  0  0  0  0  0
    5.2108  -19.0102   20.0414 N   0  0  0  0  0  0  0  0  0  0  0  0
    6.2151  -17.5857   21.6541 C   0  0  0  0  0  0  0  0  0  0  0  0
    7.2683  -18.2763   21.5585 O   0  0  0  0  0  0  0  0  0  0  0  0
    8.7927  -12.0453   18.0896 O   0  0  0  0  0  0  0  0  0  0  0  0
    8.4574  -12.6268   19.3144 C   0  0  0  0  0  0  0  0  0  0  0  0
    9.4557  -13.0751   20.1333 C   0  0  0  0  0  0  0  0  0  0  0  0
    9.1456  -13.6598   21.3622 C   0  0  0  0  0  0  0  0  0  0  0  0
    7.8430  -13.8000   21.7793 C   0  0  0  0  0  0  0  0  0  0  0  0
    7.5487  -14.4214   23.0858 C   0  0  0  0  0  0  0  0  0  0  0  0
    7.4873  -15.9247   23.0490 C   0  0  2  0  0  0  0  0  0  0  0  0
    6.2932  -16.3670   22.3469 N   0  0  0  0  0  0  0  0  0  0  0  0
    7.4490  -16.3914   24.4560 C   0  0  0  0  0  0  0  0  0  0  0  0
    6.4048  -16.2099   25.1195 O   0  0  0  0  0  0  0  0  0  0  0  0
    6.8588  -13.3416   20.9384 C   0  0  0  0  0  0  0  0  0  0  0  0
    7.1502  -12.7628   19.7235 C   0  0  0  0  0  0  0  0  0  0  0  0
    8.5447  -17.0352   25.0839 N   0  0  0  0  0  0  0  0  0  0  0  0
    8.4559  -17.7002   26.3779 C   0  0  1  0  0  0  0  0  0  0  0  0
    8.0720  -19.1521   26.1941 C   0  0  0  0  0  0  0  0  0  0  0  0
    7.4169  -19.7558   27.3883 C   0  0  0  0  0  0  0  0  0  0  0  0
    7.1403  -21.2452   27.1913 C   0  0  0  0  0  0  0  0  0  0  0  0
    6.3843  -21.8254   28.3470 C   0  0  0  0  0  0  0  0  0  0  0  0
    6.1603  -23.2225   28.0881 N   0  0  0  0  0  0  0  0  0  0  0  0
    9.7552  -17.6049   27.0725 C   0  0  0  0  0  0  0  0  0  0  0  0
    9.9499  -17.9737   28.2548 O   0  0  0  0  0  0  0  0  0  0  0  0
   10.8583  -17.0755   26.3996 O   0  0  0  0  0  0  0  0  0  0  0  0
  2  4  1  0
  2  1  1  6
  3  2  1  0
  4  5  1  6
  6  4  1  0
  6  7  2  0
  8  9  1  0
  9 10  2  0
 10 11  1  0
 12 11  2  0
 12 13  1  0
 14 13  1  1
 14 15  1  0
 14 16  1  0
 15  6  1  0
 16 20  1  0
 17 16  2  0
 18 12  1  0
 19  9  1  0
 19 18  2  0
 20 21  1  0
 21 27  1  0
 22 23  1  0
 21 22  1  6
 24 23  1  0
 25 24  1  0
 26 25  1  0
 27 28  2  0
 27 29  1  0
M  END
$$$$
