TYK.pdb
     RDKit          3D

 29 29  0  0  1  0  0  0  0  0999 V2000
    6.6598  -17.5307   17.8481 C   0  0  0  0  0  0  0  0  0  0  0  0
    7.2260  -17.2281   19.1984 C   0  0  1  0  0  0  0  0  0  0  0  0
    7.9261  -18.2991   19.7568 O   0  0  0  0  0  0  0  0  0  0  0  0
    8.0376  -15.9652   19.2592 C   0  0  2  0  0  0  0  0  0  0  0  0
    9.1497  -16.0221   18.3637 N   0  0  0  0  0  0  0  0  0  0  0  0
    8.4870  -15.5965   20.6038 C   0  0  0  0  0  0  0  0  0  0  0  0
    9.6361  -15.9183   21.0175 O   0  0  0  0  0  0  0  0  0  0  0  0
    7.9970  -12.5441   28.9494 O   0  0  0  0  0  0  0  0  0  0  0  0
    7.7140  -12.8722   27.6216 C   0  0  0  0  0  0  0  0  0  0  0  0
    8.2955  -12.1478   26.6189 C   0  0  0  0  0  0  0  0  0  0  0  0
    8.0281  -12.4567   25.2843 C   0  0  0  0  0  0  0  0  0  0  0  0
    7.1825  -13.4859   24.9438 C   0  0  0  0  0  0  0  0  0  0  0  0
    6.9220  -13.7881   23.5224 C   0  0  0  0  0  0  0  0  0  0  0  0
    8.0152  -14.5772   22.8537 C   0  0  2  0  0  0  0  0  0  0  0  0
    7.6566  -14.8749   21.4762 N   0  0  0  0  0  0  0  0  0  0  0  0
    8.1707  -15.8374   23.6196 C   0  0  0  0  0  0  0  0  0  0  0  0
    7.2755  -16.7060   23.5326 O   0  0  0  0  0  0  0  0  0  0  0  0
    6.6112  -14.1982   25.9695 C   0  0  0  0  0  0  0  0  0  0  0  0
    6.8660  -13.9046   27.2904 C   0  0  0  0  0  0  0  0  0  0  0  0
    9.2903  -16.1021   24.4477 N   0  0  0  0  0  0  0  0  0  0  0  0
    9.5032  -17.3695   25.1354 C   0  0  1  0  0  0  0  0  0  0  0  0
   10.5656  -18.1783   24.4239 C   0  0  0  0  0  0  0  0  0  0  0  0
   10.9078  -19.4558   25.1099 C   0  0  0  0  0  0  0  0  0  0  0  0
   11.9550  -20.2532   24.3346 C   0  0  0  0  0  0  0  0  0  0  0  0
   12.3004  -21.5349   25.0288 C   0  0  0  0  0  0  0  0  0  0  0  0
   13.3006  -22.2171   24.2521 N   0  0  0  0  0  0  0  0  0  0  0  0
    9.9135  -17.1119   26.5300 C   0  0  0  0  0  0  0  0  0  0  0  0
   10.5788  -16.1139   26.8949 O   0  0  0  0  0  0  0  0  0  0  0  0
    9.5547  -18.0164   27.5314 O   0  0  0  0  0  0  0  0  0  0  0  0
  2  4  1  0
  2  1  1  6
  3  2  1  0
  4  5  1  6
  6  4  1  0
  6  7  2  0
  8  9  1  0
  9 10  2  0
 10 11  1  0
 12 11  2  0
 12 13  1  0
 14 13  1  1
 14 15  1  0
 14 16  1  0
 15  6  1  0
 16 20  1  0
 17 16  2  0
 18 12  1  0
 19  9  1  0
 19 18  2  0
 20 21  1  0
 21 27  1  0
 22 23  1  0
 21 22  1  6
 24 23  1  0
 25 24  1  0
 26 25  1  0
 27 28  2  0
 27 29  1  0
M  END
$$$$
