TYK.pdb
     RDKit          3D

 29 29  0  0  1  0  0  0  0  0999 V2000
    6.8351  -16.0688   20.2717 C   0  0  0  0  0  0  0  0  0  0  0  0
    7.4514  -14.9158   19.5463 C   0  0  1  0  0  0  0  0  0  0  0  0
    6.8938  -14.6941   18.2858 O   0  0  0  0  0  0  0  0  0  0  0  0
    7.5047  -13.6424   20.3420 C   0  0  2  0  0  0  0  0  0  0  0  0
    7.9218  -12.5429   19.5301 N   0  0  0  0  0  0  0  0  0  0  0  0
    8.3240  -13.7178   21.5541 C   0  0  0  0  0  0  0  0  0  0  0  0
    9.5698  -13.5144   21.5117 O   0  0  0  0  0  0  0  0  0  0  0  0
   10.3716  -15.1651   30.1007 O   0  0  0  0  0  0  0  0  0  0  0  0
    9.7189  -14.8657   28.9027 C   0  0  0  0  0  0  0  0  0  0  0  0
    9.0502  -15.8589   28.2435 C   0  0  0  0  0  0  0  0  0  0  0  0
    8.3903  -15.5843   27.0446 C   0  0  0  0  0  0  0  0  0  0  0  0
    8.3938  -14.3223   26.4989 C   0  0  0  0  0  0  0  0  0  0  0  0
    7.6845  -14.0645   25.2300 C   0  0  0  0  0  0  0  0  0  0  0  0
    8.5383  -14.2437   24.0037 C   0  0  2  0  0  0  0  0  0  0  0  0
    7.7528  -14.0187   22.8009 N   0  0  0  0  0  0  0  0  0  0  0  0
    9.0414  -15.6384   24.0259 C   0  0  0  0  0  0  0  0  0  0  0  0
    8.2126  -16.5743   24.0490 O   0  0  0  0  0  0  0  0  0  0  0  0
    9.0726  -13.3425   27.1806 C   0  0  0  0  0  0  0  0  0  0  0  0
    9.7279  -13.5991   28.3641 C   0  0  0  0  0  0  0  0  0  0  0  0
   10.4222  -15.9592   24.0223 N   0  0  0  0  0  0  0  0  0  0  0  0
   10.9333  -17.3239   24.0534 C   0  0  1  0  0  0  0  0  0  0  0  0
   11.9171  -17.5393   22.9242 C   0  0  0  0  0  0  0  0  0  0  0  0
   11.2717  -17.8073   21.6084 C   0  0  0  0  0  0  0  0  0  0  0  0
   12.3043  -18.0400   20.5070 C   0  0  0  0  0  0  0  0  0  0  0  0
   11.6530  -18.3536   19.1950 C   0  0  0  0  0  0  0  0  0  0  0  0
   12.6832  -18.6477   18.2351 N   0  0  0  0  0  0  0  0  0  0  0  0
   11.5904  -17.5759   25.3512 C   0  0  0  0  0  0  0  0  0  0  0  0
   12.0727  -18.6814   25.6929 O   0  0  0  0  0  0  0  0  0  0  0  0
   11.6986  -16.5395   26.2807 O   0  0  0  0  0  0  0  0  0  0  0  0
  2  4  1  0
  2  1  1  1
  3  2  1  0
  4  5  1  6
  6  4  1  0
  6  7  2  0
  8  9  1  0
  9 10  2  0
 10 11  1  0
 12 11  2  0
 12 13  1  0
 14 13  1  1
 14 15  1  0
 14 16  1  0
 15  6  1  0
 16 20  1  0
 17 16  2  0
 18 12  1  0
 19  9  1  0
 19 18  2  0
 20 21  1  0
 21 27  1  0
 22 23  1  0
 21 22  1  6
 24 23  1  0
 25 24  1  0
 26 25  1  0
 27 28  2  0
 27 29  1  0
M  END
$$$$
