TYK.pdb
     RDKit          3D

 29 29  0  0  1  0  0  0  0  0999 V2000
   11.7210  -17.3331   18.8961 C   0  0  0  0  0  0  0  0  0  0  0  0
   10.2846  -17.0458   18.5964 C   0  0  1  0  0  0  0  0  0  0  0  0
    9.8419  -17.6247   17.4057 O   0  0  0  0  0  0  0  0  0  0  0  0
    9.3439  -17.3545   19.7265 C   0  0  2  0  0  0  0  0  0  0  0  0
    7.9824  -17.2914   19.2972 N   0  0  0  0  0  0  0  0  0  0  0  0
    9.5382  -16.5289   20.9209 C   0  0  0  0  0  0  0  0  0  0  0  0
   10.6289  -16.5507   21.5573 O   0  0  0  0  0  0  0  0  0  0  0  0
    6.9081  -11.8966   28.0692 O   0  0  0  0  0  0  0  0  0  0  0  0
    7.0424  -12.4384   26.7889 C   0  0  0  0  0  0  0  0  0  0  0  0
    6.1504  -13.3857   26.3706 C   0  0  0  0  0  0  0  0  0  0  0  0
    6.2641  -13.9419   25.0955 C   0  0  0  0  0  0  0  0  0  0  0  0
    7.2643  -13.5576   24.2340 C   0  0  0  0  0  0  0  0  0  0  0  0
    7.3557  -14.1642   22.8911 C   0  0  0  0  0  0  0  0  0  0  0  0
    8.5795  -15.0158   22.6857 C   0  0  2  0  0  0  0  0  0  0  0  0
    8.5200  -15.6878   21.3976 N   0  0  0  0  0  0  0  0  0  0  0  0
    8.5985  -16.0178   23.7787 C   0  0  0  0  0  0  0  0  0  0  0  0
    7.6250  -16.7933   23.8979 O   0  0  0  0  0  0  0  0  0  0  0  0
    8.1474  -12.6045   24.6782 C   0  0  0  0  0  0  0  0  0  0  0  0
    8.0473  -12.0473   25.9334 C   0  0  0  0  0  0  0  0  0  0  0  0
    9.6725  -16.1362   24.6962 N   0  0  0  0  0  0  0  0  0  0  0  0
    9.7257  -17.1414   25.7505 C   0  0  1  0  0  0  0  0  0  0  0  0
   10.8123  -18.1517   25.4550 C   0  0  0  0  0  0  0  0  0  0  0  0
   10.9522  -19.2059   26.4985 C   0  0  0  0  0  0  0  0  0  0  0  0
   12.0943  -20.1695   26.1819 C   0  0  0  0  0  0  0  0  0  0  0  0
   12.1681  -21.2866   27.1772 C   0  0  0  0  0  0  0  0  0  0  0  0
   13.2074  -22.1926   26.7673 N   0  0  0  0  0  0  0  0  0  0  0  0
    9.9853  -16.4843   27.0468 C   0  0  0  0  0  0  0  0  0  0  0  0
    9.5951  -16.9293   28.1520 O   0  0  0  0  0  0  0  0  0  0  0  0
   10.7082  -15.2901   27.0807 O   0  0  0  0  0  0  0  0  0  0  0  0
  2  4  1  0
  2  1  1  1
  3  2  1  0
  4  5  1  6
  6  4  1  0
  6  7  2  0
  8  9  1  0
  9 10  2  0
 10 11  1  0
 12 11  2  0
 12 13  1  0
 14 13  1  1
 14 15  1  0
 14 16  1  0
 15  6  1  0
 16 20  1  0
 17 16  2  0
 18 12  1  0
 19  9  1  0
 19 18  2  0
 20 21  1  0
 21 27  1  0
 22 23  1  0
 21 22  1  6
 24 23  1  0
 25 24  1  0
 26 25  1  0
 27 28  2  0
 27 29  1  0
M  END
$$$$
