TYK.pdb
     RDKit          3D

 29 29  0  0  1  0  0  0  0  0999 V2000
    6.7448  -16.0692   19.7537 C   0  0  0  0  0  0  0  0  0  0  0  0
    7.3505  -14.8713   19.0951 C   0  0  1  0  0  0  0  0  0  0  0  0
    6.8267  -14.6139   17.8269 O   0  0  0  0  0  0  0  0  0  0  0  0
    7.3425  -13.6303   19.9420 C   0  0  2  0  0  0  0  0  0  0  0  0
    7.7552  -12.4882   19.1889 N   0  0  0  0  0  0  0  0  0  0  0  0
    8.1234  -13.7332   21.1771 C   0  0  0  0  0  0  0  0  0  0  0  0
    9.3852  -13.7788   21.1478 O   0  0  0  0  0  0  0  0  0  0  0  0
    9.7535  -14.8242   29.8664 O   0  0  0  0  0  0  0  0  0  0  0  0
    9.1454  -14.5881   28.6314 C   0  0  0  0  0  0  0  0  0  0  0  0
    9.2205  -13.3394   28.0809 C   0  0  0  0  0  0  0  0  0  0  0  0
    8.6208  -13.0791   26.8477 C   0  0  0  0  0  0  0  0  0  0  0  0
    7.9454  -14.0592   26.1596 C   0  0  0  0  0  0  0  0  0  0  0  0
    7.3235  -13.7516   24.8564 C   0  0  0  0  0  0  0  0  0  0  0  0
    8.2174  -14.0132   23.6743 C   0  0  2  0  0  0  0  0  0  0  0  0
    7.4964  -13.7851   22.4323 N   0  0  0  0  0  0  0  0  0  0  0  0
    8.6437  -15.4310   23.7587 C   0  0  0  0  0  0  0  0  0  0  0  0
    7.8483  -16.3195   23.3829 O   0  0  0  0  0  0  0  0  0  0  0  0
    7.8844  -15.3050   26.7341 C   0  0  0  0  0  0  0  0  0  0  0  0
    8.4714  -15.5759   27.9498 C   0  0  0  0  0  0  0  0  0  0  0  0
    9.9147  -15.8252   24.2471 N   0  0  0  0  0  0  0  0  0  0  0  0
   10.4055  -17.1970   24.2040 C   0  0  1  0  0  0  0  0  0  0  0  0
   11.2515  -17.4108   22.9681 C   0  0  0  0  0  0  0  0  0  0  0  0
   11.8566  -18.7696   22.8821 C   0  0  0  0  0  0  0  0  0  0  0  0
   12.6924  -18.9392   21.6148 C   0  0  0  0  0  0  0  0  0  0  0  0
   13.2251  -20.3333   21.4856 C   0  0  0  0  0  0  0  0  0  0  0  0
   14.0965  -20.3827   20.3422 N   0  0  0  0  0  0  0  0  0  0  0  0
   11.2015  -17.4752   25.4159 C   0  0  0  0  0  0  0  0  0  0  0  0
   12.0126  -16.6668   25.9259 O   0  0  0  0  0  0  0  0  0  0  0  0
   11.0671  -18.7067   26.0600 O   0  0  0  0  0  0  0  0  0  0  0  0
  2  4  1  0
  2  1  1  1
  3  2  1  0
  4  5  1  6
  6  4  1  0
  6  7  2  0
  8  9  1  0
  9 10  2  0
 10 11  1  0
 12 11  2  0
 12 13  1  0
 14 13  1  1
 14 15  1  0
 14 16  1  0
 15  6  1  0
 16 20  1  0
 17 16  2  0
 18 12  1  0
 19  9  1  0
 19 18  2  0
 20 21  1  0
 21 27  1  0
 22 23  1  0
 21 22  1  6
 24 23  1  0
 25 24  1  0
 26 25  1  0
 27 28  2  0
 27 29  1  0
M  END
$$$$
