TYK.pdb
     RDKit          3D

 29 29  0  0  1  0  0  0  0  0999 V2000
    8.9056  -19.7153   21.0996 C   0  0  0  0  0  0  0  0  0  0  0  0
    9.8651  -19.3845   20.0016 C   0  0  1  0  0  0  0  0  0  0  0  0
    9.7620  -20.2382   18.9018 O   0  0  0  0  0  0  0  0  0  0  0  0
    9.8377  -17.9457   19.5697 C   0  0  2  0  0  0  0  0  0  0  0  0
   10.6377  -17.7411   18.4035 N   0  0  0  0  0  0  0  0  0  0  0  0
   10.2115  -16.9907   20.6157 C   0  0  0  0  0  0  0  0  0  0  0  0
   11.3871  -16.5354   20.6919 O   0  0  0  0  0  0  0  0  0  0  0  0
    7.3502  -12.1716   17.4975 O   0  0  0  0  0  0  0  0  0  0  0  0
    7.5903  -12.7581   18.7421 C   0  0  0  0  0  0  0  0  0  0  0  0
    8.7730  -12.5059   19.3792 C   0  0  0  0  0  0  0  0  0  0  0  0
    9.0359  -13.0805   20.6238 C   0  0  0  0  0  0  0  0  0  0  0  0
    8.1240  -13.9066   21.2372 C   0  0  0  0  0  0  0  0  0  0  0  0
    8.4320  -14.4972   22.5548 C   0  0  0  0  0  0  0  0  0  0  0  0
    9.5562  -15.4975   22.5299 C   0  0  2  0  0  0  0  0  0  0  0  0
    9.2772  -16.5508   21.5670 N   0  0  0  0  0  0  0  0  0  0  0  0
    9.6555  -16.0718   23.8934 C   0  0  0  0  0  0  0  0  0  0  0  0
    9.9270  -15.3094   24.8466 O   0  0  0  0  0  0  0  0  0  0  0  0
    6.9438  -14.1440   20.5765 C   0  0  0  0  0  0  0  0  0  0  0  0
    6.6712  -13.5840   19.3485 C   0  0  0  0  0  0  0  0  0  0  0  0
    9.4564  -17.4486   24.1655 N   0  0  0  0  0  0  0  0  0  0  0  0
   10.3116  -18.2275   25.0525 C   0  0  1  0  0  0  0  0  0  0  0  0
   11.0669  -19.2745   24.2636 C   0  0  0  0  0  0  0  0  0  0  0  0
   12.0212  -20.0720   25.0840 C   0  0  0  0  0  0  0  0  0  0  0  0
   12.7771  -21.0961   24.2394 C   0  0  0  0  0  0  0  0  0  0  0  0
   13.7578  -21.8754   25.0609 C   0  0  0  0  0  0  0  0  0  0  0  0
   14.5034  -22.7366   24.1825 N   0  0  0  0  0  0  0  0  0  0  0  0
   11.2610  -17.3287   25.7382 C   0  0  0  0  0  0  0  0  0  0  0  0
   11.2909  -17.1508   26.9788 O   0  0  0  0  0  0  0  0  0  0  0  0
   12.1987  -16.6162   24.9879 O   0  0  0  0  0  0  0  0  0  0  0  0
  2  4  1  0
  2  1  1  1
  3  2  1  0
  4  5  1  6
  6  4  1  0
  6  7  2  0
  8  9  1  0
  9 10  2  0
 10 11  1  0
 12 11  2  0
 12 13  1  0
 14 13  1  1
 14 15  1  0
 14 16  1  0
 15  6  1  0
 16 20  1  0
 17 16  2  0
 18 12  1  0
 19  9  1  0
 19 18  2  0
 20 21  1  0
 21 27  1  0
 22 23  1  0
 21 22  1  6
 24 23  1  0
 25 24  1  0
 26 25  1  0
 27 28  2  0
 27 29  1  0
M  END
$$$$
