SKG.pdb
     RDKit          3D

 20 19  0  0  1  0  0  0  0  0999 V2000
   13.4119   -7.6095   -9.3055 O   0  0  0  0  0  0  0  0  0  0  0  0
   14.7672   -7.8048   -9.5632 C   0  0  0  0  0  0  0  0  0  0  0  0
   14.9078   -8.9950  -10.4962 C   0  0  2  0  0  0  0  0  0  0  0  0
   14.4400  -10.1725   -9.8377 N   0  0  0  0  0  0  0  0  0  0  0  0
   16.2729   -9.1180  -11.0352 C   0  0  0  0  0  0  0  0  0  0  0  0
   17.2409   -9.5564  -10.3322 O   0  0  0  0  0  0  0  0  0  0  0  0
   16.5239   -8.7401  -12.3722 N   0  0  0  0  0  0  0  0  0  0  0  0
   17.8300   -8.7477  -12.9925 C   0  0  1  0  0  0  0  0  0  0  0  0
   17.7013   -9.3560  -14.3477 C   0  0  0  0  0  0  0  0  0  0  0  0
   18.9874   -9.4822  -15.0990 C   0  0  0  0  0  0  0  0  0  0  0  0
   18.8601  -10.1361  -16.4368 C   0  0  0  0  0  0  0  0  0  0  0  0
   20.2302  -10.1124  -17.0943 C   0  0  0  0  0  0  0  0  0  0  0  0
   20.1484  -10.6283  -18.4465 N   0  0  0  0  0  0  0  0  0  0  0  0
   18.2676   -7.3298  -13.1742 C   0  0  0  0  0  0  0  0  0  0  0  0
   17.4808   -6.4190  -13.5418 O   0  0  0  0  0  0  0  0  0  0  0  0
   19.6208   -6.9618  -12.9299 N   0  0  0  0  0  0  0  0  0  0  0  0
   20.1273   -5.6351  -13.0753 C   0  0  0  0  0  0  0  0  0  0  0  0
   21.5494   -5.5063  -12.7284 C   0  0  0  0  0  0  0  0  0  0  0  0
   22.1639   -6.5069  -12.2858 O   0  0  0  0  0  0  0  0  0  0  0  0
   22.2633   -4.3288  -12.8626 O   0  0  0  0  0  0  0  0  0  0  0  0
  2  1  1  0
  3  2  1  0
  3  4  1  1
  5  3  1  0
  6  5  2  0
  7  5  1  0
  8  9  1  6
  8  7  1  0
 10  9  1  0
 11 12  1  0
 11 10  1  0
 13 12  1  0
 14 15  2  0
 14  8  1  0
 16 14  1  0
 17 16  1  0
 18 17  1  0
 18 20  1  0
 19 18  2  0
M  END
$$$$
