SKG.pdb
     RDKit          3D

 20 19  0  0  1  0  0  0  0  0999 V2000
   27.2197  -11.8424  -15.6325 O   0  0  0  0  0  0  0  0  0  0  0  0
   26.4188  -10.7581  -15.9851 C   0  0  0  0  0  0  0  0  0  0  0  0
   25.1436  -11.2926  -16.6135 C   0  0  2  0  0  0  0  0  0  0  0  0
   25.4640  -11.9934  -17.8156 N   0  0  0  0  0  0  0  0  0  0  0  0
   24.1302  -10.2388  -16.7920 C   0  0  0  0  0  0  0  0  0  0  0  0
   24.0695   -9.5307  -17.8495 O   0  0  0  0  0  0  0  0  0  0  0  0
   23.1935  -10.0003  -15.7629 N   0  0  0  0  0  0  0  0  0  0  0  0
   22.1385   -9.0137  -15.8301 C   0  0  1  0  0  0  0  0  0  0  0  0
   20.8807   -9.6382  -15.3289 C   0  0  0  0  0  0  0  0  0  0  0  0
   20.2023  -10.5438  -16.3056 C   0  0  0  0  0  0  0  0  0  0  0  0
   19.0380  -11.2953  -15.7460 C   0  0  0  0  0  0  0  0  0  0  0  0
   18.4830  -12.1772  -16.8524 C   0  0  0  0  0  0  0  0  0  0  0  0
   17.4902  -13.0889  -16.3190 N   0  0  0  0  0  0  0  0  0  0  0  0
   22.4874   -7.8947  -14.9023 C   0  0  0  0  0  0  0  0  0  0  0  0
   22.7293   -8.0769  -13.6808 O   0  0  0  0  0  0  0  0  0  0  0  0
   22.5574   -6.5584  -15.3876 N   0  0  0  0  0  0  0  0  0  0  0  0
   22.8427   -5.4243  -14.5689 C   0  0  0  0  0  0  0  0  0  0  0  0
   21.6669   -4.8971  -13.8625 C   0  0  0  0  0  0  0  0  0  0  0  0
   20.5484   -5.4335  -14.0519 O   0  0  0  0  0  0  0  0  0  0  0  0
   21.7199   -3.8271  -12.9869 O   0  0  0  0  0  0  0  0  0  0  0  0
  2  1  1  0
  3  2  1  0
  3  4  1  6
  5  3  1  0
  6  5  2  0
  7  5  1  0
  8  9  1  1
  8  7  1  0
 10  9  1  0
 11 12  1  0
 11 10  1  0
 13 12  1  0
 14 15  2  0
 14  8  1  0
 16 14  1  0
 17 16  1  0
 18 17  1  0
 18 20  1  0
 19 18  2  0
M  END
$$$$
