SKG.pdb
     RDKit          3D

 20 19  0  0  1  0  0  0  0  0999 V2000
   27.5969  -22.6283  -17.1616 O   0  0  0  0  0  0  0  0  0  0  0  0
   27.4202  -22.7060  -15.7817 C   0  0  0  0  0  0  0  0  0  0  0  0
   26.0589  -23.3224  -15.5099 C   0  0  2  0  0  0  0  0  0  0  0  0
   25.9137  -24.5134  -16.2840 N   0  0  0  0  0  0  0  0  0  0  0  0
   24.9650  -22.3543  -15.6979 C   0  0  0  0  0  0  0  0  0  0  0  0
   24.1781  -22.4085  -16.6986 O   0  0  0  0  0  0  0  0  0  0  0  0
   24.7766  -21.3313  -14.7432 N   0  0  0  0  0  0  0  0  0  0  0  0
   23.7658  -20.3016  -14.8369 C   0  0  1  0  0  0  0  0  0  0  0  0
   23.2734  -20.0022  -13.4617 C   0  0  0  0  0  0  0  0  0  0  0  0
   22.2709  -20.9766  -12.9328 C   0  0  0  0  0  0  0  0  0  0  0  0
   21.3248  -21.5090  -13.9599 C   0  0  0  0  0  0  0  0  0  0  0  0
   20.2927  -22.3607  -13.2393 C   0  0  0  0  0  0  0  0  0  0  0  0
   19.3964  -22.9810  -14.1949 N   0  0  0  0  0  0  0  0  0  0  0  0
   24.4122  -19.0611  -15.3646 C   0  0  0  0  0  0  0  0  0  0  0  0
   25.5424  -18.6673  -14.9759 O   0  0  0  0  0  0  0  0  0  0  0  0
   23.7498  -18.2715  -16.3464 N   0  0  0  0  0  0  0  0  0  0  0  0
   24.3175  -17.1125  -16.9564 C   0  0  0  0  0  0  0  0  0  0  0  0
   24.2527  -17.1280  -18.4244 C   0  0  0  0  0  0  0  0  0  0  0  0
   24.5394  -18.1844  -19.0380 O   0  0  0  0  0  0  0  0  0  0  0  0
   23.8885  -16.0298  -19.1831 O   0  0  0  0  0  0  0  0  0  0  0  0
  2  1  1  0
  3  2  1  0
  3  4  1  6
  5  3  1  0
  6  5  2  0
  7  5  1  0
  8  9  1  1
  8  7  1  0
 10  9  1  0
 11 12  1  0
 11 10  1  0
 13 12  1  0
 14 15  2  0
 14  8  1  0
 16 14  1  0
 17 16  1  0
 18 17  1  0
 18 20  1  0
 19 18  2  0
M  END
$$$$
