SKG.pdb
     RDKit          3D

 20 19  0  0  1  0  0  0  0  0999 V2000
   15.7890   -6.3511  -10.9200 O   0  0  0  0  0  0  0  0  0  0  0  0
   16.8947   -7.0272  -11.4314 C   0  0  0  0  0  0  0  0  0  0  0  0
   16.4965   -8.4716  -11.6801 C   0  0  2  0  0  0  0  0  0  0  0  0
   15.9284   -9.0193  -10.4901 N   0  0  0  0  0  0  0  0  0  0  0  0
   17.6088   -9.2664  -12.2281 C   0  0  0  0  0  0  0  0  0  0  0  0
   18.3470   -9.9963  -11.4894 O   0  0  0  0  0  0  0  0  0  0  0  0
   17.8710   -9.2228  -13.6147 N   0  0  0  0  0  0  0  0  0  0  0  0
   18.8681  -10.0283  -14.2840 C   0  0  1  0  0  0  0  0  0  0  0  0
   18.3587  -10.3704  -15.6429 C   0  0  0  0  0  0  0  0  0  0  0  0
   17.8408  -11.7657  -15.7813 C   0  0  0  0  0  0  0  0  0  0  0  0
   16.4884  -11.9851  -15.1842 C   0  0  0  0  0  0  0  0  0  0  0  0
   16.0941  -13.4282  -15.4522 C   0  0  0  0  0  0  0  0  0  0  0  0
   14.8188  -13.7253  -14.8304 N   0  0  0  0  0  0  0  0  0  0  0  0
   20.0979   -9.1964  -14.4594 C   0  0  0  0  0  0  0  0  0  0  0  0
   21.1162   -9.6120  -15.0709 O   0  0  0  0  0  0  0  0  0  0  0  0
   20.1517   -7.8779  -13.9258 N   0  0  0  0  0  0  0  0  0  0  0  0
   21.2179   -6.9602  -14.1684 C   0  0  0  0  0  0  0  0  0  0  0  0
   21.0368   -5.6594  -13.5092 C   0  0  0  0  0  0  0  0  0  0  0  0
   19.9991   -5.4554  -12.8337 O   0  0  0  0  0  0  0  0  0  0  0  0
   21.9567   -4.6291  -13.5901 O   0  0  0  0  0  0  0  0  0  0  0  0
  2  1  1  0
  3  2  1  0
  3  4  1  1
  5  3  1  0
  6  5  2  0
  7  5  1  0
  8  9  1  6
  8  7  1  0
 10  9  1  0
 11 12  1  0
 11 10  1  0
 13 12  1  0
 14 15  2  0
 14  8  1  0
 16 14  1  0
 17 16  1  0
 18 17  1  0
 18 20  1  0
 19 18  2  0
M  END
$$$$
