SKG.pdb
     RDKit          3D

 20 19  0  0  1  0  0  0  0  0999 V2000
   15.6447   -8.4807  -14.6999 O   0  0  0  0  0  0  0  0  0  0  0  0
   15.8748   -9.2495  -15.8389 C   0  0  0  0  0  0  0  0  0  0  0  0
   16.8610  -10.3477  -15.4808 C   0  0  2  0  0  0  0  0  0  0  0  0
   16.3289  -11.1350  -14.4150 N   0  0  0  0  0  0  0  0  0  0  0  0
   18.2081   -9.8164  -15.2121 C   0  0  0  0  0  0  0  0  0  0  0  0
   18.6746   -9.7214  -14.0302 O   0  0  0  0  0  0  0  0  0  0  0  0
   19.0134   -9.3973  -16.2934 N   0  0  0  0  0  0  0  0  0  0  0  0
   20.3805   -8.9437  -16.1671 C   0  0  1  0  0  0  0  0  0  0  0  0
   21.0700   -9.1659  -17.4703 C   0  0  0  0  0  0  0  0  0  0  0  0
   22.2227  -10.1156  -17.4116 C   0  0  0  0  0  0  0  0  0  0  0  0
   21.8587  -11.5047  -16.9977 C   0  0  0  0  0  0  0  0  0  0  0  0
   23.1404  -12.3194  -16.9382 C   0  0  0  0  0  0  0  0  0  0  0  0
   22.8908  -13.6056  -16.3179 N   0  0  0  0  0  0  0  0  0  0  0  0
   20.3609   -7.4707  -15.9124 C   0  0  0  0  0  0  0  0  0  0  0  0
   19.7000   -6.6686  -16.6219 O   0  0  0  0  0  0  0  0  0  0  0  0
   21.1083   -6.9214  -14.8327 N   0  0  0  0  0  0  0  0  0  0  0  0
   21.0880   -5.5418  -14.4665 C   0  0  0  0  0  0  0  0  0  0  0  0
   21.8186   -5.2511  -13.2251 C   0  0  0  0  0  0  0  0  0  0  0  0
   22.2363   -6.2042  -12.5240 O   0  0  0  0  0  0  0  0  0  0  0  0
   22.0777   -3.9685  -12.7755 O   0  0  0  0  0  0  0  0  0  0  0  0
  2  1  1  0
  3  2  1  0
  3  4  1  1
  5  3  1  0
  6  5  2  0
  7  5  1  0
  8  9  1  6
  8  7  1  0
 10  9  1  0
 11 12  1  0
 11 10  1  0
 13 12  1  0
 14 15  2  0
 14  8  1  0
 16 14  1  0
 17 16  1  0
 18 17  1  0
 18 20  1  0
 19 18  2  0
M  END
$$$$
