SKG.pdb
     RDKit          3D

 20 19  0  0  1  0  0  0  0  0999 V2000
   21.8582  -14.3501  -19.1766 O   0  0  0  0  0  0  0  0  0  0  0  0
   21.2934  -13.0814  -19.2898 C   0  0  0  0  0  0  0  0  0  0  0  0
   22.1521  -12.1060  -18.5036 C   0  0  2  0  0  0  0  0  0  0  0  0
   22.7418  -12.7814  -17.3922 N   0  0  0  0  0  0  0  0  0  0  0  0
   21.4104  -10.8885  -18.1338 C   0  0  0  0  0  0  0  0  0  0  0  0
   20.8498  -10.1469  -19.0052 O   0  0  0  0  0  0  0  0  0  0  0  0
   21.3134  -10.5258  -16.7727 N   0  0  0  0  0  0  0  0  0  0  0  0
   20.5552   -9.3977  -16.2793 C   0  0  1  0  0  0  0  0  0  0  0  0
   19.5370   -9.9037  -15.3148 C   0  0  0  0  0  0  0  0  0  0  0  0
   18.4009  -10.6468  -15.9404 C   0  0  0  0  0  0  0  0  0  0  0  0
   17.4092  -11.1946  -14.9658 C   0  0  0  0  0  0  0  0  0  0  0  0
   16.3727  -11.9789  -15.7535 C   0  0  0  0  0  0  0  0  0  0  0  0
   15.4877  -12.6899  -14.8521 N   0  0  0  0  0  0  0  0  0  0  0  0
   21.4869   -8.5046  -15.5247 C   0  0  0  0  0  0  0  0  0  0  0  0
   22.3193   -8.9437  -14.6892 O   0  0  0  0  0  0  0  0  0  0  0  0
   21.4569   -7.0973  -15.7360 N   0  0  0  0  0  0  0  0  0  0  0  0
   22.2242   -6.1591  -14.9819 C   0  0  0  0  0  0  0  0  0  0  0  0
   21.5666   -5.7211  -13.7428 C   0  0  0  0  0  0  0  0  0  0  0  0
   20.4687   -6.2350  -13.4187 O   0  0  0  0  0  0  0  0  0  0  0  0
   22.0941   -4.7604  -12.8983 O   0  0  0  0  0  0  0  0  0  0  0  0
  2  1  1  0
  3  2  1  0
  3  4  1  1
  5  3  1  0
  6  5  2  0
  7  5  1  0
  8  9  1  1
  8  7  1  0
 10  9  1  0
 11 12  1  0
 11 10  1  0
 13 12  1  0
 14 15  2  0
 14  8  1  0
 16 14  1  0
 17 16  1  0
 18 17  1  0
 18 20  1  0
 19 18  2  0
M  END
$$$$
