RYY.pdb
     RDKit          3D

 36 37  0  0  1  0  0  0  0  0999 V2000
    8.7753  -13.7212   12.7426 N   0  0  0  0  0  0  0  0  0  0  0  0
    8.8668  -15.0083   13.3243 C   0  0  0  0  0  0  0  0  0  0  0  0
    9.4726  -15.9855   12.7174 N   0  0  0  0  0  0  0  0  0  0  0  0
    8.2928  -15.2578   14.5924 N   0  0  0  0  0  0  0  0  0  0  0  0
    7.6906  -14.1519   15.3532 C   0  0  0  0  0  0  0  0  0  0  0  0
    7.0736  -14.7329   16.5769 C   0  0  0  0  0  0  0  0  0  0  0  0
    7.6064  -14.1399   17.8335 C   0  0  0  0  0  0  0  0  0  0  0  0
    8.3673  -15.1209   18.6564 C   0  0  2  0  0  0  0  0  0  0  0  0
    7.5524  -16.2790   19.0704 N   0  0  0  0  0  0  0  0  0  0  0  0
    8.8098  -14.5081   19.9565 C   0  0  0  0  0  0  0  0  0  0  0  0
    9.5809  -13.5328   20.0157 O   0  0  0  0  0  0  0  0  0  0  0  0
    9.5138  -16.9533   13.0594 O   0  0  0  0  0  0  0  0  0  0  0  0
    5.8279  -11.4196   27.3575 C   0  0  0  0  0  0  0  0  0  0  0  0
    6.2688  -12.3339   26.4009 C   0  0  0  0  0  0  0  0  0  0  0  0
    5.9859  -13.6714   26.4879 C   0  0  0  0  0  0  0  0  0  0  0  0
    6.4352  -14.5671   25.5229 C   0  0  0  0  0  0  0  0  0  0  0  0
    7.1795  -14.1195   24.4535 C   0  0  0  0  0  0  0  0  0  0  0  0
    7.6570  -15.0637   23.4420 C   0  0  2  0  0  0  0  0  0  0  0  0
    8.6174  -14.4793   22.4359 N   0  0  0  0  0  0  0  0  0  0  0  0
    8.3097  -15.0880   21.1482 C   0  0  0  0  0  0  0  0  0  0  0  0
   10.0075  -14.8328   22.7827 O   0  0  0  0  0  0  0  0  0  0  0  0
   10.9653  -14.0124   22.6588 C   0  0  0  0  0  0  0  0  0  0  0  0
    7.4533  -12.7707   24.3838 C   0  0  0  0  0  0  0  0  0  0  0  0
    7.0054  -11.8758   25.3461 O   0  0  0  0  0  0  0  0  0  0  0  0
   11.3339  -15.5705   30.9969 C   0  0  0  0  0  0  0  0  0  0  0  0
   10.9478  -15.5964   29.6599 C   0  0  0  0  0  0  0  0  0  0  0  0
   11.0953  -14.4893   28.8736 C   0  0  0  0  0  0  0  0  0  0  0  0
   10.7288  -14.4709   27.5535 C   0  0  0  0  0  0  0  0  0  0  0  0
   10.1824  -15.6155   26.9710 C   0  0  0  0  0  0  0  0  0  0  0  0
    9.7817  -15.5999   25.5675 C   0  0  2  0  0  0  0  0  0  0  0  0
   10.7305  -16.3349   24.6850 N   0  0  0  0  0  0  0  0  0  0  0  0
   10.3511  -16.1164   23.2768 C   0  0  0  0  0  0  0  0  0  0  0  0
   10.8910  -17.7635   24.9698 O   0  0  0  0  0  0  0  0  0  0  0  0
   12.0497  -18.2794   25.1180 C   0  0  0  0  0  0  0  0  0  0  0  0
   10.0234  -16.7462   27.7453 C   0  0  0  0  0  0  0  0  0  0  0  0
   10.4057  -16.7201   29.0682 O   0  0  0  0  0  0  0  0  0  0  0  0
  2  1  1  0
  2  3  2  0
  4  5  1  0
  4  2  1  0
  5  6  1  0
  6  7  1  0
  7  8  1  0
  8 10  1  0
  8  9  1  1
 10 19  1  0
 11 10  2  0
 13 12  1  0
 13 14  2  0
 15 14  1  0
 16 15  2  0
 17 16  1  0
 18 17  1  6
 18 20  1  0
 19 18  1  0
 20 21  2  0
 20 31  1  0
 22 23  2  0
 22 16  1  0
 23 13  1  0
 25 24  1  0
 25 35  2  0
 26 25  1  0
 27 26  2  0
 27 28  1  0
 28 34  2  0
 29 28  1  0
 30 29  1  6
 30 32  1  0
 31 30  1  0
 32 36  1  0
 33 32  2  0
 34 35  1  0
M  END
$$$$
