RYY.pdb
     RDKit          3D

 36 37  0  0  1  0  0  0  0  0999 V2000
    7.1365  -13.3984   15.7177 N   0  0  0  0  0  0  0  0  0  0  0  0
    8.3522  -13.8334   15.1379 C   0  0  0  0  0  0  0  0  0  0  0  0
    8.7773  -13.3480   14.0092 N   0  0  0  0  0  0  0  0  0  0  0  0
    9.1361  -14.8170   15.7840 N   0  0  0  0  0  0  0  0  0  0  0  0
    8.5244  -16.0942   16.1829 C   0  0  0  0  0  0  0  0  0  0  0  0
    9.5882  -16.9245   16.8109 C   0  0  0  0  0  0  0  0  0  0  0  0
   10.2271  -16.2624   17.9806 C   0  0  0  0  0  0  0  0  0  0  0  0
   10.0108  -17.0061   19.2529 C   0  0  2  0  0  0  0  0  0  0  0  0
    8.6926  -17.6654   19.3169 N   0  0  0  0  0  0  0  0  0  0  0  0
   10.0042  -16.0715   20.4310 C   0  0  0  0  0  0  0  0  0  0  0  0
   10.9473  -15.3006   20.6872 O   0  0  0  0  0  0  0  0  0  0  0  0
    9.6544  -13.6178   13.5474 O   0  0  0  0  0  0  0  0  0  0  0  0
    6.2051  -11.7088   27.1646 C   0  0  0  0  0  0  0  0  0  0  0  0
    6.4672  -12.5359   26.0726 C   0  0  0  0  0  0  0  0  0  0  0  0
    6.2501  -13.8877   26.1150 C   0  0  0  0  0  0  0  0  0  0  0  0
    6.5182  -14.6954   25.0144 C   0  0  0  0  0  0  0  0  0  0  0  0
    7.0114  -14.1437   23.8524 C   0  0  0  0  0  0  0  0  0  0  0  0
    7.2989  -14.9952   22.6971 C   0  0  1  0  0  0  0  0  0  0  0  0
    8.7657  -15.1689   22.3899 N   0  0  0  0  0  0  0  0  0  0  0  0
    8.8603  -16.0921   21.2665 C   0  0  0  0  0  0  0  0  0  0  0  0
    9.4652  -15.7789   23.5371 O   0  0  0  0  0  0  0  0  0  0  0  0
    9.5238  -17.0337   23.7045 C   0  0  0  0  0  0  0  0  0  0  0  0
    7.2228  -12.7821   23.8296 C   0  0  0  0  0  0  0  0  0  0  0  0
    6.9556  -11.9750   24.9272 O   0  0  0  0  0  0  0  0  0  0  0  0
   11.3632  -17.0681   31.9422 C   0  0  0  0  0  0  0  0  0  0  0  0
   10.9615  -16.5841   30.7005 C   0  0  0  0  0  0  0  0  0  0  0  0
   11.5774  -15.4978   30.1470 C   0  0  0  0  0  0  0  0  0  0  0  0
   11.2141  -14.9884   28.9280 C   0  0  0  0  0  0  0  0  0  0  0  0
   10.1786  -15.5871   28.2087 C   0  0  0  0  0  0  0  0  0  0  0  0
    9.7809  -15.0441   26.9134 C   0  0  1  0  0  0  0  0  0  0  0  0
   10.6018  -15.5699   25.7870 N   0  0  0  0  0  0  0  0  0  0  0  0
   10.1146  -14.9916   24.5210 C   0  0  0  0  0  0  0  0  0  0  0  0
   10.6985  -17.0294   25.6945 O   0  0  0  0  0  0  0  0  0  0  0  0
   11.8278  -17.6206   25.7688 C   0  0  0  0  0  0  0  0  0  0  0  0
    9.5412  -16.6855   28.7474 C   0  0  0  0  0  0  0  0  0  0  0  0
    9.9392  -17.1642   29.9760 O   0  0  0  0  0  0  0  0  0  0  0  0
  2  1  1  0
  2  3  2  0
  4  5  1  0
  4  2  1  0
  5  6  1  0
  6  7  1  0
  7  8  1  0
  8 10  1  0
  8  9  1  6
 10 19  1  0
 11 10  2  0
 13 12  1  0
 13 14  2  0
 15 14  1  0
 16 15  2  0
 17 16  1  0
 18 17  1  6
 18 20  1  0
 19 18  1  0
 20 21  2  0
 20 31  1  0
 22 23  2  0
 22 16  1  0
 23 13  1  0
 25 24  1  0
 25 35  2  0
 26 25  1  0
 27 26  2  0
 27 28  1  0
 28 34  2  0
 29 28  1  0
 30 29  1  1
 30 32  1  0
 31 30  1  0
 32 36  1  0
 33 32  2  0
 34 35  1  0
M  END
$$$$
