RYY.pdb
     RDKit          3D

 36 37  0  0  1  0  0  0  0  0999 V2000
    7.4026  -12.8361   16.2762 N   0  0  0  0  0  0  0  0  0  0  0  0
    8.0553  -13.9599   15.7157 C   0  0  0  0  0  0  0  0  0  0  0  0
    8.1602  -14.1114   14.4287 N   0  0  0  0  0  0  0  0  0  0  0  0
    8.6120  -14.9513   16.5564 N   0  0  0  0  0  0  0  0  0  0  0  0
    8.7523  -14.6934   17.9980 C   0  0  0  0  0  0  0  0  0  0  0  0
    9.7994  -15.6142   18.5187 C   0  0  0  0  0  0  0  0  0  0  0  0
   10.1402  -15.3591   19.9447 C   0  0  0  0  0  0  0  0  0  0  0  0
    9.4508  -16.2930   20.8780 C   0  0  2  0  0  0  0  0  0  0  0  0
    7.9980  -16.3794   20.6364 N   0  0  0  0  0  0  0  0  0  0  0  0
    9.5520  -15.8103   22.2987 C   0  0  0  0  0  0  0  0  0  0  0  0
   10.3937  -14.9712   22.6688 O   0  0  0  0  0  0  0  0  0  0  0  0
    8.6590  -14.8817   13.9670 O   0  0  0  0  0  0  0  0  0  0  0  0
    6.4726  -10.7321   27.3003 C   0  0  0  0  0  0  0  0  0  0  0  0
    6.7040  -12.0047   26.7785 C   0  0  0  0  0  0  0  0  0  0  0  0
    6.1789  -12.4056   25.5785 C   0  0  0  0  0  0  0  0  0  0  0  0
    6.4216  -13.6798   25.0755 C   0  0  0  0  0  0  0  0  0  0  0  0
    7.2016  -14.5682   25.7828 C   0  0  0  0  0  0  0  0  0  0  0  0
    7.4513  -15.9106   25.2556 C   0  0  2  0  0  0  0  0  0  0  0  0
    8.8220  -16.1093   24.6573 N   0  0  0  0  0  0  0  0  0  0  0  0
    8.6351  -16.3521   23.2327 C   0  0  0  0  0  0  0  0  0  0  0  0
    9.4714  -17.3005   25.2379 O   0  0  0  0  0  0  0  0  0  0  0  0
    9.8462  -18.2806   24.5274 C   0  0  0  0  0  0  0  0  0  0  0  0
    7.7208  -14.1460   26.9876 C   0  0  0  0  0  0  0  0  0  0  0  0
    7.4793  -12.8747   27.4906 O   0  0  0  0  0  0  0  0  0  0  0  0
   16.0418  -16.0735   23.4402 C   0  0  0  0  0  0  0  0  0  0  0  0
   14.8976  -15.9900   24.2285 C   0  0  0  0  0  0  0  0  0  0  0  0
   14.9951  -15.7478   25.5692 C   0  0  0  0  0  0  0  0  0  0  0  0
   13.8955  -15.6578   26.3819 C   0  0  0  0  0  0  0  0  0  0  0  0
   12.6193  -15.8164   25.8395 C   0  0  0  0  0  0  0  0  0  0  0  0
   11.4443  -15.7304   26.7012 C   0  0  2  0  0  0  0  0  0  0  0  0
   11.0130  -17.0554   27.2281 N   0  0  0  0  0  0  0  0  0  0  0  0
    9.7141  -17.4155   26.6298 C   0  0  0  0  0  0  0  0  0  0  0  0
   10.9708  -17.1789   28.6879 O   0  0  0  0  0  0  0  0  0  0  0  0
   12.0377  -17.3660   29.3641 C   0  0  0  0  0  0  0  0  0  0  0  0
   12.4956  -16.0621   24.4876 C   0  0  0  0  0  0  0  0  0  0  0  0
   13.6281  -16.1445   23.7081 O   0  0  0  0  0  0  0  0  0  0  0  0
  2  1  1  0
  2  3  2  0
  4  5  1  0
  4  2  1  0
  5  6  1  0
  6  7  1  0
  7  8  1  0
  8 10  1  0
  8  9  1  6
 10 19  1  0
 11 10  2  0
 13 12  1  0
 13 14  2  0
 15 14  1  0
 16 15  2  0
 17 16  1  0
 18 17  1  6
 18 20  1  0
 19 18  1  0
 20 21  2  0
 20 31  1  0
 22 23  2  0
 22 16  1  0
 23 13  1  0
 25 24  1  0
 25 35  2  0
 26 25  1  0
 27 26  2  0
 27 28  1  0
 28 34  2  0
 29 28  1  0
 30 29  1  6
 30 32  1  0
 31 30  1  0
 32 36  1  0
 33 32  2  0
 34 35  1  0
M  END
$$$$
