RYY.pdb
     RDKit          3D

 36 37  0  0  1  0  0  0  0  0999 V2000
    8.0604  -15.4730   16.3063 N   0  0  0  0  0  0  0  0  0  0  0  0
    8.4888  -14.1514   16.5768 C   0  0  0  0  0  0  0  0  0  0  0  0
    8.2976  -13.1885   15.7246 N   0  0  0  0  0  0  0  0  0  0  0  0
    9.1415  -13.8510   17.7948 N   0  0  0  0  0  0  0  0  0  0  0  0
    8.5820  -12.8275   18.6914 C   0  0  0  0  0  0  0  0  0  0  0  0
    7.2112  -13.2654   19.0721 C   0  0  0  0  0  0  0  0  0  0  0  0
    7.1629  -13.9329   20.4012 C   0  0  0  0  0  0  0  0  0  0  0  0
    7.1010  -15.4175   20.2987 C   0  0  2  0  0  0  0  0  0  0  0  0
    5.9505  -15.8920   19.5063 N   0  0  0  0  0  0  0  0  0  0  0  0
    6.8917  -16.0446   21.6494 C   0  0  0  0  0  0  0  0  0  0  0  0
    6.2060  -15.5133   22.5420 O   0  0  0  0  0  0  0  0  0  0  0  0
    8.4856  -12.1955   15.9089 O   0  0  0  0  0  0  0  0  0  0  0  0
    1.6478  -19.2484   20.5788 C   0  0  0  0  0  0  0  0  0  0  0  0
    2.9224  -19.2620   21.1451 C   0  0  0  0  0  0  0  0  0  0  0  0
    4.0525  -19.4297   20.3894 C   0  0  0  0  0  0  0  0  0  0  0  0
    5.3150  -19.4404   20.9738 C   0  0  0  0  0  0  0  0  0  0  0  0
    5.4508  -19.2810   22.3355 C   0  0  0  0  0  0  0  0  0  0  0  0
    6.7791  -19.2984   22.9501 C   0  0  2  0  0  0  0  0  0  0  0  0
    7.3832  -17.9365   23.1872 N   0  0  0  0  0  0  0  0  0  0  0  0
    7.5145  -17.2949   21.8855 C   0  0  0  0  0  0  0  0  0  0  0  0
    8.7343  -18.0643   23.7668 O   0  0  0  0  0  0  0  0  0  0  0  0
    9.7715  -17.6601   23.1612 C   0  0  0  0  0  0  0  0  0  0  0  0
    4.3021  -19.1134   23.0782 C   0  0  0  0  0  0  0  0  0  0  0  0
    3.0416  -19.1026   22.4962 O   0  0  0  0  0  0  0  0  0  0  0  0
   11.2655  -13.3268   30.2588 C   0  0  0  0  0  0  0  0  0  0  0  0
   10.6782  -14.1321   29.2871 C   0  0  0  0  0  0  0  0  0  0  0  0
   11.2165  -14.2121   28.0342 C   0  0  0  0  0  0  0  0  0  0  0  0
   10.6712  -14.9918   27.0482 C   0  0  0  0  0  0  0  0  0  0  0  0
    9.5232  -15.7400   27.3130 C   0  0  0  0  0  0  0  0  0  0  0  0
    8.9323  -16.5658   26.2644 C   0  0  2  0  0  0  0  0  0  0  0  0
    9.5782  -17.9029   26.1458 N   0  0  0  0  0  0  0  0  0  0  0  0
    8.9488  -18.6490   25.0404 C   0  0  0  0  0  0  0  0  0  0  0  0
    9.6104  -18.7072   27.3705 O   0  0  0  0  0  0  0  0  0  0  0  0
    8.5673  -19.3143   27.7874 C   0  0  0  0  0  0  0  0  0  0  0  0
    8.9612  -15.6753   28.5713 C   0  0  0  0  0  0  0  0  0  0  0  0
    9.5427  -14.8785   29.5324 O   0  0  0  0  0  0  0  0  0  0  0  0
  2  1  1  0
  2  3  2  0
  4  5  1  0
  4  2  1  0
  5  6  1  0
  6  7  1  0
  7  8  1  0
  8 10  1  0
  8  9  1  6
 10 19  1  0
 11 10  2  0
 13 12  1  0
 13 14  2  0
 15 14  1  0
 16 15  2  0
 17 16  1  0
 18 17  1  1
 18 20  1  0
 19 18  1  0
 20 21  2  0
 20 31  1  0
 22 23  2  0
 22 16  1  0
 23 13  1  0
 25 24  1  0
 25 35  2  0
 26 25  1  0
 27 26  2  0
 27 28  1  0
 28 34  2  0
 29 28  1  0
 30 29  1  6
 30 32  1  0
 31 30  1  0
 32 36  1  0
 33 32  2  0
 34 35  1  0
M  END
$$$$
