RYY.pdb
     RDKit          3D

 36 37  0  0  1  0  0  0  0  0999 V2000
    9.0244  -18.8907   14.1188 N   0  0  0  0  0  0  0  0  0  0  0  0
    9.7435  -19.6822   15.0460 C   0  0  0  0  0  0  0  0  0  0  0  0
   10.9105  -20.1757   14.7550 N   0  0  0  0  0  0  0  0  0  0  0  0
    9.1981  -19.9543   16.3220 N   0  0  0  0  0  0  0  0  0  0  0  0
    7.8873  -19.3976   16.6911 C   0  0  0  0  0  0  0  0  0  0  0  0
    8.1222  -18.0542   17.2876 C   0  0  0  0  0  0  0  0  0  0  0  0
    8.7492  -18.1189   18.6356 C   0  0  0  0  0  0  0  0  0  0  0  0
    8.8780  -16.7803   19.2762 C   0  0  2  0  0  0  0  0  0  0  0  0
    9.2815  -15.7250   18.3274 N   0  0  0  0  0  0  0  0  0  0  0  0
    9.9734  -16.7770   20.3065 C   0  0  0  0  0  0  0  0  0  0  0  0
   10.8401  -17.6680   20.3740 O   0  0  0  0  0  0  0  0  0  0  0  0
   11.4874  -20.7352   15.3949 O   0  0  0  0  0  0  0  0  0  0  0  0
   15.0209  -14.2638   17.5718 C   0  0  0  0  0  0  0  0  0  0  0  0
   14.2365  -14.3209   18.7237 C   0  0  0  0  0  0  0  0  0  0  0  0
   14.6493  -14.9765   19.8533 C   0  0  0  0  0  0  0  0  0  0  0  0
   13.8515  -15.0217   20.9923 C   0  0  0  0  0  0  0  0  0  0  0  0
   12.6212  -14.4019   21.0029 C   0  0  0  0  0  0  0  0  0  0  0  0
   11.7801  -14.4552   22.1996 C   0  0  2  0  0  0  0  0  0  0  0  0
   10.9449  -15.7049   22.3294 N   0  0  0  0  0  0  0  0  0  0  0  0
    9.9936  -15.6993   21.2256 C   0  0  0  0  0  0  0  0  0  0  0  0
   10.1764  -15.6843   23.5890 O   0  0  0  0  0  0  0  0  0  0  0  0
   10.3335  -14.7800   24.4628 C   0  0  0  0  0  0  0  0  0  0  0  0
   12.2241  -13.7475   19.8569 C   0  0  0  0  0  0  0  0  0  0  0  0
   13.0193  -13.7016   18.7197 O   0  0  0  0  0  0  0  0  0  0  0  0
    4.4797  -17.5345   20.3389 C   0  0  0  0  0  0  0  0  0  0  0  0
    5.1399  -17.1876   21.5142 C   0  0  0  0  0  0  0  0  0  0  0  0
    5.9044  -16.0572   21.5726 C   0  0  0  0  0  0  0  0  0  0  0  0
    6.5710  -15.6783   22.7082 C   0  0  0  0  0  0  0  0  0  0  0  0
    6.4787  -16.4627   23.8590 C   0  0  0  0  0  0  0  0  0  0  0  0
    7.1935  -16.0695   25.0694 C   0  0  1  0  0  0  0  0  0  0  0  0
    8.5246  -16.7261   25.1964 N   0  0  0  0  0  0  0  0  0  0  0  0
    9.2142  -16.6797   23.8937 C   0  0  0  0  0  0  0  0  0  0  0  0
    8.5155  -18.0882   25.7373 O   0  0  0  0  0  0  0  0  0  0  0  0
    7.9848  -18.3434   26.8703 C   0  0  0  0  0  0  0  0  0  0  0  0
    5.7126  -17.6094   23.8242 C   0  0  0  0  0  0  0  0  0  0  0  0
    5.0594  -17.9522   22.6611 O   0  0  0  0  0  0  0  0  0  0  0  0
  2  1  1  0
  2  3  2  0
  4  5  1  0
  4  2  1  0
  5  6  1  0
  6  7  1  0
  7  8  1  0
  8 10  1  0
  8  9  1  6
 10 19  1  0
 11 10  2  0
 13 12  1  0
 13 14  2  0
 15 14  1  0
 16 15  2  0
 17 16  1  0
 18 17  1  6
 18 20  1  0
 19 18  1  0
 20 21  2  0
 20 31  1  0
 22 23  2  0
 22 16  1  0
 23 13  1  0
 25 24  1  0
 25 35  2  0
 26 25  1  0
 27 26  2  0
 27 28  1  0
 28 34  2  0
 29 28  1  0
 30 29  1  1
 30 32  1  0
 31 30  1  0
 32 36  1  0
 33 32  2  0
 34 35  1  0
M  END
$$$$
