RYY.pdb
     RDKit          3D

 36 37  0  0  1  0  0  0  0  0999 V2000
    3.4933  -26.7475   13.5118 N   0  0  0  0  0  0  0  0  0  0  0  0
    4.2049  -27.6443   12.6795 C   0  0  0  0  0  0  0  0  0  0  0  0
    3.8094  -27.9050   11.4688 N   0  0  0  0  0  0  0  0  0  0  0  0
    5.3738  -28.2814   13.1563 N   0  0  0  0  0  0  0  0  0  0  0  0
    5.7848  -28.1023   14.5575 C   0  0  0  0  0  0  0  0  0  0  0  0
    5.7426  -29.4386   15.2118 C   0  0  0  0  0  0  0  0  0  0  0  0
    6.1321  -29.3950   16.6474 C   0  0  0  0  0  0  0  0  0  0  0  0
    6.1285  -30.7403   17.2867 C   0  0  2  0  0  0  0  0  0  0  0  0
    4.8267  -31.4257   17.1774 N   0  0  0  0  0  0  0  0  0  0  0  0
    6.3573  -30.6350   18.7693 C   0  0  0  0  0  0  0  0  0  0  0  0
    5.4272  -30.6041   19.5959 O   0  0  0  0  0  0  0  0  0  0  0  0
    4.2771  -28.5554   10.8257 O   0  0  0  0  0  0  0  0  0  0  0  0
    4.5602  -35.7892   21.9291 C   0  0  0  0  0  0  0  0  0  0  0  0
    5.5344  -34.8196   21.6923 C   0  0  0  0  0  0  0  0  0  0  0  0
    5.9568  -34.5062   20.4275 C   0  0  0  0  0  0  0  0  0  0  0  0
    6.9301  -33.5356   20.2127 C   0  0  0  0  0  0  0  0  0  0  0  0
    7.4908  -32.8672   21.2789 C   0  0  0  0  0  0  0  0  0  0  0  0
    8.5192  -31.8505   21.0522 C   0  0  2  0  0  0  0  0  0  0  0  0
    7.9910  -30.4989   20.6396 N   0  0  0  0  0  0  0  0  0  0  0  0
    7.7010  -30.5710   19.2134 C   0  0  0  0  0  0  0  0  0  0  0  0
    9.0188  -29.4592   20.8403 O   0  0  0  0  0  0  0  0  0  0  0  0
    9.9016  -29.2032   19.9679 C   0  0  0  0  0  0  0  0  0  0  0  0
    7.0525  -33.1966   22.5433 C   0  0  0  0  0  0  0  0  0  0  0  0
    6.0812  -34.1649   22.7589 O   0  0  0  0  0  0  0  0  0  0  0  0
   15.3717  -31.2059   22.2820 C   0  0  0  0  0  0  0  0  0  0  0  0
   14.3062  -30.3526   22.0095 C   0  0  0  0  0  0  0  0  0  0  0  0
   14.4090  -29.4051   21.0310 C   0  0  0  0  0  0  0  0  0  0  0  0
   13.3856  -28.5452   20.7299 C   0  0  0  0  0  0  0  0  0  0  0  0
   12.1850  -28.6236   21.4374 C   0  0  0  0  0  0  0  0  0  0  0  0
   11.0940  -27.7047   21.1275 C   0  0  2  0  0  0  0  0  0  0  0  0
   10.0798  -27.6204   22.2154 N   0  0  0  0  0  0  0  0  0  0  0  0
    9.0763  -28.6844   22.0260 C   0  0  0  0  0  0  0  0  0  0  0  0
    9.4352  -26.3156   22.3876 O   0  0  0  0  0  0  0  0  0  0  0  0
   10.1256  -25.2433   22.4515 C   0  0  0  0  0  0  0  0  0  0  0  0
   12.0576  -29.5726   22.4306 C   0  0  0  0  0  0  0  0  0  0  0  0
   13.1121  -30.4167   22.6998 O   0  0  0  0  0  0  0  0  0  0  0  0
  2  1  1  0
  2  3  2  0
  4  5  1  0
  4  2  1  0
  5  6  1  0
  6  7  1  0
  7  8  1  0
  8 10  1  0
  8  9  1  1
 10 19  1  0
 11 10  2  0
 13 12  1  0
 13 14  2  0
 15 14  1  0
 16 15  2  0
 17 16  1  0
 18 17  1  1
 18 20  1  0
 19 18  1  0
 20 21  2  0
 20 31  1  0
 22 23  2  0
 22 16  1  0
 23 13  1  0
 25 24  1  0
 25 35  2  0
 26 25  1  0
 27 26  2  0
 27 28  1  0
 28 34  2  0
 29 28  1  0
 30 29  1  1
 30 32  1  0
 31 30  1  0
 32 36  1  0
 33 32  2  0
 34 35  1  0
M  END
$$$$
