RYY.pdb
     RDKit          3D

 36 37  0  0  1  0  0  0  0  0999 V2000
    7.9914  -11.8454   19.6428 N   0  0  0  0  0  0  0  0  0  0  0  0
    8.7045  -13.0676   19.6740 C   0  0  0  0  0  0  0  0  0  0  0  0
    9.9543  -13.1329   19.3220 N   0  0  0  0  0  0  0  0  0  0  0  0
    8.0617  -14.2552   20.0935 N   0  0  0  0  0  0  0  0  0  0  0  0
    6.6803  -14.2008   20.5967 C   0  0  0  0  0  0  0  0  0  0  0  0
    6.0112  -15.4727   20.2091 C   0  0  0  0  0  0  0  0  0  0  0  0
    6.7842  -16.6804   20.6072 C   0  0  0  0  0  0  0  0  0  0  0  0
    5.9680  -17.6588   21.3786 C   0  0  2  0  0  0  0  0  0  0  0  0
    4.5168  -17.4285   21.2460 N   0  0  0  0  0  0  0  0  0  0  0  0
    6.2204  -17.5282   22.8553 C   0  0  0  0  0  0  0  0  0  0  0  0
    5.4114  -16.9910   23.6341 O   0  0  0  0  0  0  0  0  0  0  0  0
   10.5382  -13.9759   19.3835 O   0  0  0  0  0  0  0  0  0  0  0  0
    8.8988  -21.1596   30.3763 C   0  0  0  0  0  0  0  0  0  0  0  0
    8.6769  -20.7870   29.0507 C   0  0  0  0  0  0  0  0  0  0  0  0
    7.4264  -20.4870   28.5789 C   0  0  0  0  0  0  0  0  0  0  0  0
    7.2262  -20.1175   27.2526 C   0  0  0  0  0  0  0  0  0  0  0  0
    8.2927  -20.0465   26.3834 C   0  0  0  0  0  0  0  0  0  0  0  0
    8.0802  -19.6635   24.9868 C   0  0  2  0  0  0  0  0  0  0  0  0
    7.6176  -18.2418   24.7851 N   0  0  0  0  0  0  0  0  0  0  0  0
    7.4405  -18.0495   23.3516 C   0  0  0  0  0  0  0  0  0  0  0  0
    8.6497  -17.2925   25.2447 O   0  0  0  0  0  0  0  0  0  0  0  0
    9.6964  -17.0528   24.5718 C   0  0  0  0  0  0  0  0  0  0  0  0
    9.5426  -20.3519   26.8772 C   0  0  0  0  0  0  0  0  0  0  0  0
    9.7436  -20.7207   28.2005 O   0  0  0  0  0  0  0  0  0  0  0  0
    5.2341  -11.5866   24.5259 C   0  0  0  0  0  0  0  0  0  0  0  0
    6.1476  -12.3128   25.2846 C   0  0  0  0  0  0  0  0  0  0  0  0
    5.8581  -12.6599   26.5736 C   0  0  0  0  0  0  0  0  0  0  0  0
    6.7277  -13.3738   27.3558 C   0  0  0  0  0  0  0  0  0  0  0  0
    7.9603  -13.7709   26.8352 C   0  0  0  0  0  0  0  0  0  0  0  0
    8.8948  -14.5240   27.6660 C   0  0  2  0  0  0  0  0  0  0  0  0
    9.5549  -15.6394   26.9317 N   0  0  0  0  0  0  0  0  0  0  0  0
    8.5273  -16.5915   26.4708 C   0  0  0  0  0  0  0  0  0  0  0  0
   10.6268  -16.3320   27.6522 O   0  0  0  0  0  0  0  0  0  0  0  0
   10.4808  -17.5361   28.0516 C   0  0  0  0  0  0  0  0  0  0  0  0
    8.2753  -13.4318   25.5356 C   0  0  0  0  0  0  0  0  0  0  0  0
    7.3710  -12.7133   24.7853 O   0  0  0  0  0  0  0  0  0  0  0  0
  2  1  1  0
  2  3  2  0
  4  5  1  0
  4  2  1  0
  5  6  1  0
  6  7  1  0
  7  8  1  0
  8 10  1  0
  8  9  1  1
 10 19  1  0
 11 10  2  0
 13 12  1  0
 13 14  2  0
 15 14  1  0
 16 15  2  0
 17 16  1  0
 18 17  1  1
 18 20  1  0
 19 18  1  0
 20 21  2  0
 20 31  1  0
 22 23  2  0
 22 16  1  0
 23 13  1  0
 25 24  1  0
 25 35  2  0
 26 25  1  0
 27 26  2  0
 27 28  1  0
 28 34  2  0
 29 28  1  0
 30 29  1  6
 30 32  1  0
 31 30  1  0
 32 36  1  0
 33 32  2  0
 34 35  1  0
M  END
$$$$
