SGP.pdb
     RDKit          3D

 18 18  0  0  1  0  0  0  0  0999 V2000
    7.8106  -18.1819   18.9001 O   0  0  0  0  0  0  0  0  0  0  0  0
    7.1598  -17.5549   19.9430 C   0  0  0  0  0  0  0  0  0  0  0  0
    8.2292  -17.1481   20.9551 C   0  0  2  0  0  0  0  0  0  0  0  0
    8.8378  -18.3144   21.5546 N   0  0  0  0  0  0  0  0  0  0  0  0
    7.5351  -16.3837   22.0119 C   0  0  0  0  0  0  0  0  0  0  0  0
    6.9950  -17.0108   22.9517 O   0  0  0  0  0  0  0  0  0  0  0  0
    7.4953  -14.9698   21.9404 N   0  0  0  0  0  0  0  0  0  0  0  0
    6.9267  -14.2707   23.0867 C   0  0  0  0  0  0  0  0  0  0  0  0
    7.9725  -14.0262   24.1093 C   0  0  0  0  0  0  0  0  0  0  0  0
    9.1689  -14.2527   23.8347 O   0  0  0  0  0  0  0  0  0  0  0  0
    7.5795  -13.5437   25.3635 N   0  0  0  0  0  0  0  0  0  0  0  0
    6.2231  -13.2418   25.7669 C   0  0  0  0  0  0  0  0  0  0  0  0
    6.4253  -11.8660   26.4096 C   0  0  0  0  0  0  0  0  0  0  0  0
    7.7256  -12.0508   27.1300 C   0  0  0  0  0  0  0  0  0  0  0  0
    8.4125  -13.2466   26.5061 C   0  0  1  0  0  0  0  0  0  0  0  0
    8.4136  -14.3793   27.4700 C   0  0  0  0  0  0  0  0  0  0  0  0
    7.5546  -15.2879   27.4701 O   0  0  0  0  0  0  0  0  0  0  0  0
    9.4435  -14.3974   28.4116 O   0  0  0  0  0  0  0  0  0  0  0  0
  1  2  1  0
  3  4  1  1
  3  2  1  0
  5  3  1  0
  6  5  2  0
  7  5  1  0
  8  7  1  0
  9  8  1  0
  9 11  1  0
 10  9  2  0
 11 12  1  0
 13 12  1  0
 14 13  1  0
 15 16  1  1
 15 11  1  0
 15 14  1  0
 16 18  1  0
 17 16  2  0
M  END
$$$$
