SGP.pdb
     RDKit          3D

 18 18  0  0  1  0  0  0  0  0999 V2000
    9.9232  -15.9248   19.7409 O   0  0  0  0  0  0  0  0  0  0  0  0
    9.6054  -17.0283   20.5062 C   0  0  0  0  0  0  0  0  0  0  0  0
    8.0810  -17.1008   20.5716 C   0  0  2  0  0  0  0  0  0  0  0  0
    7.5074  -17.0400   19.2459 N   0  0  0  0  0  0  0  0  0  0  0  0
    7.6385  -15.9130   21.3308 C   0  0  0  0  0  0  0  0  0  0  0  0
    7.2811  -14.8934   20.6978 O   0  0  0  0  0  0  0  0  0  0  0  0
    7.6280  -15.9522   22.7465 N   0  0  0  0  0  0  0  0  0  0  0  0
    7.0513  -14.8008   23.4304 C   0  0  0  0  0  0  0  0  0  0  0  0
    8.0325  -14.2240   24.3811 C   0  0  0  0  0  0  0  0  0  0  0  0
    9.2511  -14.2729   24.1155 O   0  0  0  0  0  0  0  0  0  0  0  0
    7.5547  -13.6368   25.5589 N   0  0  0  0  0  0  0  0  0  0  0  0
    6.1626  -13.4550   25.9092 C   0  0  0  0  0  0  0  0  0  0  0  0
    6.1814  -11.9938   26.3689 C   0  0  0  0  0  0  0  0  0  0  0  0
    7.4774  -11.9230   27.1169 C   0  0  0  0  0  0  0  0  0  0  0  0
    8.3186  -13.0951   26.6592 C   0  0  1  0  0  0  0  0  0  0  0  0
    8.4343  -14.0859   27.7624 C   0  0  0  0  0  0  0  0  0  0  0  0
    7.7002  -15.0926   27.8674 O   0  0  0  0  0  0  0  0  0  0  0  0
    9.4268  -13.8480   28.7142 O   0  0  0  0  0  0  0  0  0  0  0  0
  1  2  1  0
  3  4  1  6
  3  2  1  0
  5  3  1  0
  6  5  2  0
  7  5  1  0
  8  7  1  0
  9  8  1  0
  9 11  1  0
 10  9  2  0
 11 12  1  0
 13 12  1  0
 14 13  1  0
 15 16  1  1
 15 11  1  0
 15 14  1  0
 16 18  1  0
 17 16  2  0
M  END
$$$$
