SGP.pdb
     RDKit          3D

 18 18  0  0  1  0  0  0  0  0999 V2000
    9.8090  -15.3362   18.5620 O   0  0  0  0  0  0  0  0  0  0  0  0
    9.5612  -14.4205   19.5643 C   0  0  0  0  0  0  0  0  0  0  0  0
    8.0911  -14.0216   19.4495 C   0  0  2  0  0  0  0  0  0  0  0  0
    7.9198  -12.9711   18.4710 N   0  0  0  0  0  0  0  0  0  0  0  0
    7.6951  -13.5001   20.7739 C   0  0  0  0  0  0  0  0  0  0  0  0
    8.0347  -12.3365   21.0884 O   0  0  0  0  0  0  0  0  0  0  0  0
    6.9461  -14.3202   21.6527 N   0  0  0  0  0  0  0  0  0  0  0  0
    6.4927  -13.7073   22.8955 C   0  0  0  0  0  0  0  0  0  0  0  0
    7.5719  -13.7484   23.9118 C   0  0  0  0  0  0  0  0  0  0  0  0
    8.7297  -14.0655   23.5699 O   0  0  0  0  0  0  0  0  0  0  0  0
    7.2535  -13.4267   25.2368 N   0  0  0  0  0  0  0  0  0  0  0  0
    5.9415  -13.0636   25.7274 C   0  0  0  0  0  0  0  0  0  0  0  0
    6.2902  -11.8260   26.5601 C   0  0  0  0  0  0  0  0  0  0  0  0
    7.5806  -12.2385   27.1993 C   0  0  0  0  0  0  0  0  0  0  0  0
    8.1346  -13.3851   26.3812 C   0  0  1  0  0  0  0  0  0  0  0  0
    8.0445  -14.6457   27.1654 C   0  0  0  0  0  0  0  0  0  0  0  0
    7.0998  -15.4583   27.0620 O   0  0  0  0  0  0  0  0  0  0  0  0
    9.0880  -14.9037   28.0553 O   0  0  0  0  0  0  0  0  0  0  0  0
  1  2  1  0
  3  4  1  6
  3  2  1  0
  5  3  1  0
  6  5  2  0
  7  5  1  0
  8  7  1  0
  9  8  1  0
  9 11  1  0
 10  9  2  0
 11 12  1  0
 13 12  1  0
 14 13  1  0
 15 16  1  1
 15 11  1  0
 15 14  1  0
 16 18  1  0
 17 16  2  0
M  END
$$$$
