SGP.pdb
     RDKit          3D

 18 18  0  0  1  0  0  0  0  0999 V2000
    7.3398  -16.9558   19.3533 O   0  0  0  0  0  0  0  0  0  0  0  0
    8.5588  -16.3108   19.3039 C   0  0  0  0  0  0  0  0  0  0  0  0
    9.1899  -16.4446   20.6886 C   0  0  2  0  0  0  0  0  0  0  0  0
    8.9364  -17.7555   21.2430 N   0  0  0  0  0  0  0  0  0  0  0  0
    8.5336  -15.4360   21.5460 C   0  0  0  0  0  0  0  0  0  0  0  0
    8.7942  -14.2257   21.3582 O   0  0  0  0  0  0  0  0  0  0  0  0
    7.6313  -15.8557   22.5536 N   0  0  0  0  0  0  0  0  0  0  0  0
    7.0230  -14.8094   23.3668 C   0  0  0  0  0  0  0  0  0  0  0  0
    7.9904  -14.3170   24.3773 C   0  0  0  0  0  0  0  0  0  0  0  0
    9.2147  -14.4564   24.1787 O   0  0  0  0  0  0  0  0  0  0  0  0
    7.4933  -13.7050   25.5343 N   0  0  0  0  0  0  0  0  0  0  0  0
    6.0957  -13.5473   25.8743 C   0  0  0  0  0  0  0  0  0  0  0  0
    6.0761  -12.0723   26.2874 C   0  0  0  0  0  0  0  0  0  0  0  0
    7.3668  -11.9453   27.0369 C   0  0  0  0  0  0  0  0  0  0  0  0
    8.2389  -13.1098   26.6194 C   0  0  1  0  0  0  0  0  0  0  0  0
    8.3750  -14.0620   27.7538 C   0  0  0  0  0  0  0  0  0  0  0  0
    7.6956  -15.1056   27.8658 O   0  0  0  0  0  0  0  0  0  0  0  0
    9.3218  -13.7420   28.7279 O   0  0  0  0  0  0  0  0  0  0  0  0
  1  2  1  0
  3  4  1  1
  3  2  1  0
  5  3  1  0
  6  5  2  0
  7  5  1  0
  8  7  1  0
  9  8  1  0
  9 11  1  0
 10  9  2  0
 11 12  1  0
 13 12  1  0
 14 13  1  0
 15 16  1  1
 15 11  1  0
 15 14  1  0
 16 18  1  0
 17 16  2  0
M  END
$$$$
