SGP.pdb
     RDKit          3D

 18 18  0  0  1  0  0  0  0  0999 V2000
   10.7851  -16.7747   21.2605 O   0  0  0  0  0  0  0  0  0  0  0  0
    9.6312  -17.4675   21.5651 C   0  0  0  0  0  0  0  0  0  0  0  0
    8.4979  -16.8136   20.7768 C   0  0  2  0  0  0  0  0  0  0  0  0
    8.9526  -16.4086   19.4655 N   0  0  0  0  0  0  0  0  0  0  0  0
    8.1057  -15.6062   21.5326 C   0  0  0  0  0  0  0  0  0  0  0  0
    8.5495  -14.4949   21.1635 O   0  0  0  0  0  0  0  0  0  0  0  0
    7.2435  -15.7299   22.6493 N   0  0  0  0  0  0  0  0  0  0  0  0
    6.7898  -14.4901   23.2683 C   0  0  0  0  0  0  0  0  0  0  0  0
    7.7824  -14.0210   24.2654 C   0  0  0  0  0  0  0  0  0  0  0  0
    9.0014  -14.1231   24.0176 O   0  0  0  0  0  0  0  0  0  0  0  0
    7.3144  -13.4728   25.4658 N   0  0  0  0  0  0  0  0  0  0  0  0
    5.9283  -13.3824   25.8711 C   0  0  0  0  0  0  0  0  0  0  0  0
    5.8723  -11.9259   26.3423 C   0  0  0  0  0  0  0  0  0  0  0  0
    7.1892  -11.7772   27.0405 C   0  0  0  0  0  0  0  0  0  0  0  0
    8.0847  -12.8904   26.5406 C   0  0  1  0  0  0  0  0  0  0  0  0
    8.3060  -13.8787   27.6298 C   0  0  0  0  0  0  0  0  0  0  0  0
    9.0830  -13.6866   28.5904 O   0  0  0  0  0  0  0  0  0  0  0  0
    7.5913  -15.0742   27.5433 O   0  0  0  0  0  0  0  0  0  0  0  0
  1  2  1  0
  3  4  1  6
  3  2  1  0
  5  3  1  0
  6  5  2  0
  7  5  1  0
  8  7  1  0
  9  8  1  0
  9 11  1  0
 10  9  2  0
 11 12  1  0
 13 12  1  0
 14 13  1  0
 15 16  1  1
 15 11  1  0
 15 14  1  0
 16 18  1  0
 17 16  2  0
M  END
$$$$
