SGP.pdb
     RDKit          3D

 18 18  0  0  1  0  0  0  0  0999 V2000
    8.2777  -15.6171   18.1203 O   0  0  0  0  0  0  0  0  0  0  0  0
    7.3209  -15.7715   19.1027 C   0  0  0  0  0  0  0  0  0  0  0  0
    8.0292  -16.3468   20.3277 C   0  0  2  0  0  0  0  0  0  0  0  0
    7.9431  -17.7900   20.3390 N   0  0  0  0  0  0  0  0  0  0  0  0
    7.3125  -15.8233   21.5089 C   0  0  0  0  0  0  0  0  0  0  0  0
    6.5820  -16.6021   22.1632 O   0  0  0  0  0  0  0  0  0  0  0  0
    7.4653  -14.4633   21.8733 N   0  0  0  0  0  0  0  0  0  0  0  0
    6.8289  -14.0415   23.1154 C   0  0  0  0  0  0  0  0  0  0  0  0
    7.8467  -13.8650   24.1795 C   0  0  0  0  0  0  0  0  0  0  0  0
    9.0449  -14.1147   23.9347 O   0  0  0  0  0  0  0  0  0  0  0  0
    7.4257  -13.4191   25.4382 N   0  0  0  0  0  0  0  0  0  0  0  0
    6.0520  -13.2489   25.8597 C   0  0  0  0  0  0  0  0  0  0  0  0
    6.1284  -11.8581   26.4972 C   0  0  0  0  0  0  0  0  0  0  0  0
    7.4502  -11.9137   27.1999 C   0  0  0  0  0  0  0  0  0  0  0  0
    8.2414  -13.0391   26.5687 C   0  0  1  0  0  0  0  0  0  0  0  0
    8.3654  -14.1634   27.5345 C   0  0  0  0  0  0  0  0  0  0  0  0
    9.1770  -14.1716   28.4856 O   0  0  0  0  0  0  0  0  0  0  0  0
    7.5143  -15.2519   27.3386 O   0  0  0  0  0  0  0  0  0  0  0  0
  1  2  1  0
  3  4  1  6
  3  2  1  0
  5  3  1  0
  6  5  2  0
  7  5  1  0
  8  7  1  0
  9  8  1  0
  9 11  1  0
 10  9  2  0
 11 12  1  0
 13 12  1  0
 14 13  1  0
 15 16  1  1
 15 11  1  0
 15 14  1  0
 16 18  1  0
 17 16  2  0
M  END
$$$$
