SGP.pdb
     RDKit          3D

 18 18  0  0  1  0  0  0  0  0999 V2000
    8.2325  -16.8655   18.2942 O   0  0  0  0  0  0  0  0  0  0  0  0
    7.4092  -16.3960   19.2972 C   0  0  0  0  0  0  0  0  0  0  0  0
    8.0945  -16.7191   20.6237 C   0  0  2  0  0  0  0  0  0  0  0  0
    7.9392  -18.1181   20.9534 N   0  0  0  0  0  0  0  0  0  0  0  0
    7.4090  -15.9135   21.6552 C   0  0  0  0  0  0  0  0  0  0  0  0
    6.5912  -16.4801   22.4157 O   0  0  0  0  0  0  0  0  0  0  0  0
    7.6887  -14.5292   21.7612 N   0  0  0  0  0  0  0  0  0  0  0  0
    7.1031  -13.8268   22.8968 C   0  0  0  0  0  0  0  0  0  0  0  0
    8.0404  -13.8379   24.0461 C   0  0  0  0  0  0  0  0  0  0  0  0
    9.2120  -14.2359   23.8829 O   0  0  0  0  0  0  0  0  0  0  0  0
    7.5752  -13.3966   25.2908 N   0  0  0  0  0  0  0  0  0  0  0  0
    6.2175  -12.9984   25.5940 C   0  0  0  0  0  0  0  0  0  0  0  0
    6.4744  -11.6865   26.3420 C   0  0  0  0  0  0  0  0  0  0  0  0
    7.6826  -12.0290   27.1586 C   0  0  0  0  0  0  0  0  0  0  0  0
    8.3212  -13.2429   26.5186 C   0  0  1  0  0  0  0  0  0  0  0  0
    8.1381  -14.4257   27.4015 C   0  0  0  0  0  0  0  0  0  0  0  0
    7.1942  -15.2372   27.2834 O   0  0  0  0  0  0  0  0  0  0  0  0
    9.0900  -14.6093   28.4054 O   0  0  0  0  0  0  0  0  0  0  0  0
  1  2  1  0
  3  4  1  1
  3  2  1  0
  5  3  1  0
  6  5  2  0
  7  5  1  0
  8  7  1  0
  9  8  1  0
  9 11  1  0
 10  9  2  0
 11 12  1  0
 13 12  1  0
 14 13  1  0
 15 16  1  1
 15 11  1  0
 15 14  1  0
 16 18  1  0
 17 16  2  0
M  END
$$$$
