SGP.pdb
     RDKit          3D

 18 18  0  0  1  0  0  0  0  0999 V2000
    8.4582  -13.3494   17.5375 O   0  0  0  0  0  0  0  0  0  0  0  0
    8.5045  -13.2736   18.9147 C   0  0  0  0  0  0  0  0  0  0  0  0
    8.0887  -14.6424   19.4503 C   0  0  2  0  0  0  0  0  0  0  0  0
    7.2099  -15.3124   18.5181 N   0  0  0  0  0  0  0  0  0  0  0  0
    7.3447  -14.3927   20.7021 C   0  0  0  0  0  0  0  0  0  0  0  0
    6.0992  -14.2755   20.6484 O   0  0  0  0  0  0  0  0  0  0  0  0
    8.0500  -14.2920   21.9262 N   0  0  0  0  0  0  0  0  0  0  0  0
    7.2734  -13.9162   23.1017 C   0  0  0  0  0  0  0  0  0  0  0  0
    8.1520  -13.8384   24.2939 C   0  0  0  0  0  0  0  0  0  0  0  0
    9.3780  -14.0378   24.1709 O   0  0  0  0  0  0  0  0  0  0  0  0
    7.5711  -13.5405   25.5325 N   0  0  0  0  0  0  0  0  0  0  0  0
    6.1625  -13.3139   25.7739 C   0  0  0  0  0  0  0  0  0  0  0  0
    6.2285  -12.0391   26.6208 C   0  0  0  0  0  0  0  0  0  0  0  0
    7.4196  -12.3072   27.4887 C   0  0  0  0  0  0  0  0  0  0  0  0
    8.2251  -13.3959   26.8128 C   0  0  1  0  0  0  0  0  0  0  0  0
    8.1263  -14.6520   27.6031 C   0  0  0  0  0  0  0  0  0  0  0  0
    7.2460  -15.5199   27.4150 O   0  0  0  0  0  0  0  0  0  0  0  0
    9.0842  -14.8396   28.6005 O   0  0  0  0  0  0  0  0  0  0  0  0
  1  2  1  0
  3  4  1  6
  3  2  1  0
  5  3  1  0
  6  5  2  0
  7  5  1  0
  8  7  1  0
  9  8  1  0
  9 11  1  0
 10  9  2  0
 11 12  1  0
 13 12  1  0
 14 13  1  0
 15 16  1  1
 15 11  1  0
 15 14  1  0
 16 18  1  0
 17 16  2  0
M  END
$$$$
