SGP.pdb
     RDKit          3D

 18 18  0  0  1  0  0  0  0  0999 V2000
   10.0596  -14.5655   19.4872 O   0  0  0  0  0  0  0  0  0  0  0  0
    8.7815  -15.0682   19.3533 C   0  0  0  0  0  0  0  0  0  0  0  0
    7.8361  -13.8701   19.2887 C   0  0  2  0  0  0  0  0  0  0  0  0
    8.4160  -12.8011   18.5070 N   0  0  0  0  0  0  0  0  0  0  0  0
    7.6649  -13.3977   20.6781 C   0  0  0  0  0  0  0  0  0  0  0  0
    8.3426  -12.4199   21.0688 O   0  0  0  0  0  0  0  0  0  0  0  0
    6.7457  -14.0550   21.5317 N   0  0  0  0  0  0  0  0  0  0  0  0
    6.4257  -13.3889   22.7886 C   0  0  0  0  0  0  0  0  0  0  0  0
    7.4930  -13.6379   23.7878 C   0  0  0  0  0  0  0  0  0  0  0  0
    8.6002  -14.0748   23.4120 O   0  0  0  0  0  0  0  0  0  0  0  0
    7.2209  -13.3719   25.1352 N   0  0  0  0  0  0  0  0  0  0  0  0
    5.9400  -12.9723   25.6768 C   0  0  0  0  0  0  0  0  0  0  0  0
    6.3685  -11.7989   26.5636 C   0  0  0  0  0  0  0  0  0  0  0  0
    7.6509  -12.3068   27.1479 C   0  0  0  0  0  0  0  0  0  0  0  0
    8.1286  -13.4338   26.2577 C   0  0  1  0  0  0  0  0  0  0  0  0
    7.9936  -14.7284   26.9774 C   0  0  0  0  0  0  0  0  0  0  0  0
    7.0272  -15.5069   26.8248 O   0  0  0  0  0  0  0  0  0  0  0  0
    9.0196  -15.0605   27.8633 O   0  0  0  0  0  0  0  0  0  0  0  0
  1  2  1  0
  3  4  1  6
  3  2  1  0
  5  3  1  0
  6  5  2  0
  7  5  1  0
  8  7  1  0
  9  8  1  0
  9 11  1  0
 10  9  2  0
 11 12  1  0
 13 12  1  0
 14 13  1  0
 15 16  1  1
 15 11  1  0
 15 14  1  0
 16 18  1  0
 17 16  2  0
M  END
$$$$
