TGK.pdb
     RDKit          3D

 21 20  0  0  1  0  0  0  0  0999 V2000
    8.3706  -18.7377   17.9459 C   0  0  0  0  0  0  0  0  0  0  0  0
    7.7480  -17.6732   18.8102 C   0  0  1  0  0  0  0  0  0  0  0  0
    7.7539  -18.1698   20.1263 O   0  0  0  0  0  0  0  0  0  0  0  0
    8.6121  -16.4296   18.8255 C   0  0  2  0  0  0  0  0  0  0  0  0
    9.8858  -16.7892   19.3962 N   0  0  0  0  0  0  0  0  0  0  0  0
    8.0170  -15.3305   19.5764 C   0  0  0  0  0  0  0  0  0  0  0  0
    6.9295  -14.7805   19.2483 O   0  0  0  0  0  0  0  0  0  0  0  0
    8.6647  -14.8267   20.7412 N   0  0  0  0  0  0  0  0  0  0  0  0
    8.0865  -13.7850   21.5546 C   0  0  0  0  0  0  0  0  0  0  0  0
    7.7884  -14.3329   22.9009 C   0  0  0  0  0  0  0  0  0  0  0  0
    7.4456  -15.5652   22.9992 O   0  0  0  0  0  0  0  0  0  0  0  0
    7.8717  -13.5384   24.0691 N   0  0  0  0  0  0  0  0  0  0  0  0
    7.6730  -14.1930   25.3575 C   0  0  1  0  0  0  0  0  0  0  0  0
    8.6417  -13.6439   26.3723 C   0  0  0  0  0  0  0  0  0  0  0  0
    9.0448  -14.6997   27.3404 C   0  0  0  0  0  0  0  0  0  0  0  0
    9.9966  -14.1643   28.4064 C   0  0  0  0  0  0  0  0  0  0  0  0
   10.2510  -15.1974   29.4785 C   0  0  0  0  0  0  0  0  0  0  0  0
   11.1025  -14.6998   30.5181 N   0  0  0  0  0  0  0  0  0  0  0  0
    6.2886  -13.9463   25.8123 C   0  0  0  0  0  0  0  0  0  0  0  0
    5.7957  -12.7902   25.5666 O   0  0  0  0  0  0  0  0  0  0  0  0
    5.4823  -14.8445   26.4704 O   0  0  0  0  0  0  0  0  0  0  0  0
  2  1  1  6
  2  3  1  0
  4  2  1  0
  4  5  1  1
  6  7  2  0
  6  4  1  0
  8  6  1  0
  9  8  1  0
  9 10  1  0
 10 11  2  0
 12 10  1  0
 12 13  1  0
 13 14  1  1
 14 15  1  0
 15 16  1  0
 16 17  1  0
 17 18  1  0
 19 13  1  0
 19 21  1  0
 20 19  2  0
M  END
$$$$
