TGK.pdb
     RDKit          3D

 21 20  0  0  1  0  0  0  0  0999 V2000
    7.1018  -17.5294   19.4607 C   0  0  0  0  0  0  0  0  0  0  0  0
    8.2796  -17.8529   18.5798 C   0  0  1  0  0  0  0  0  0  0  0  0
    8.3523  -16.8316   17.6152 O   0  0  0  0  0  0  0  0  0  0  0  0
    9.5693  -17.7785   19.3699 C   0  0  2  0  0  0  0  0  0  0  0  0
    9.5543  -18.8501   20.3336 N   0  0  0  0  0  0  0  0  0  0  0  0
    9.7523  -16.4986   20.0442 C   0  0  0  0  0  0  0  0  0  0  0  0
   10.2122  -15.4748   19.4671 O   0  0  0  0  0  0  0  0  0  0  0  0
    9.4068  -16.3588   21.4194 N   0  0  0  0  0  0  0  0  0  0  0  0
    9.3831  -15.0773   22.0813 C   0  0  0  0  0  0  0  0  0  0  0  0
    8.8823  -15.2583   23.4663 C   0  0  0  0  0  0  0  0  0  0  0  0
    8.3468  -16.3804   23.7828 O   0  0  0  0  0  0  0  0  0  0  0  0
    8.9790  -14.2346   24.4386 N   0  0  0  0  0  0  0  0  0  0  0  0
    8.5324  -14.5341   25.7946 C   0  0  1  0  0  0  0  0  0  0  0  0
    9.1314  -13.5511   26.7663 C   0  0  0  0  0  0  0  0  0  0  0  0
    8.9276  -14.0060   28.1684 C   0  0  0  0  0  0  0  0  0  0  0  0
   10.1273  -14.7882   28.6955 C   0  0  0  0  0  0  0  0  0  0  0  0
    9.9098  -15.2215   30.1260 C   0  0  0  0  0  0  0  0  0  0  0  0
   10.9846  -16.0331   30.6149 N   0  0  0  0  0  0  0  0  0  0  0  0
    7.0581  -14.4425   25.8451 C   0  0  0  0  0  0  0  0  0  0  0  0
    6.5120  -13.5097   25.1584 O   0  0  0  0  0  0  0  0  0  0  0  0
    6.2212  -15.2683   26.5576 O   0  0  0  0  0  0  0  0  0  0  0  0
  2  1  1  1
  2  3  1  0
  4  2  1  0
  4  5  1  1
  6  7  2  0
  6  4  1  0
  8  6  1  0
  9  8  1  0
  9 10  1  0
 10 11  2  0
 12 10  1  0
 12 13  1  0
 13 14  1  1
 14 15  1  0
 15 16  1  0
 16 17  1  0
 17 18  1  0
 19 13  1  0
 19 21  1  0
 20 19  2  0
M  END
$$$$
