TGK.pdb
     RDKit          3D

 21 20  0  0  1  0  0  0  0  0999 V2000
    7.9438  -12.3745   17.6175 C   0  0  0  0  0  0  0  0  0  0  0  0
    7.8818  -13.5986   18.4925 C   0  0  1  0  0  0  0  0  0  0  0  0
    8.4847  -14.6421   17.7669 O   0  0  0  0  0  0  0  0  0  0  0  0
    8.7267  -13.4063   19.7344 C   0  0  2  0  0  0  0  0  0  0  0  0
   10.0989  -13.2749   19.3138 N   0  0  0  0  0  0  0  0  0  0  0  0
    8.5960  -14.5012   20.6885 C   0  0  0  0  0  0  0  0  0  0  0  0
    7.5366  -14.7294   21.3353 O   0  0  0  0  0  0  0  0  0  0  0  0
    9.6949  -15.3758   20.9285 N   0  0  0  0  0  0  0  0  0  0  0  0
    9.6118  -16.4823   21.8503 C   0  0  0  0  0  0  0  0  0  0  0  0
    9.7747  -15.9715   23.2339 C   0  0  0  0  0  0  0  0  0  0  0  0
   10.8104  -15.2662   23.5090 O   0  0  0  0  0  0  0  0  0  0  0  0
    8.8257  -16.2397   24.2489 N   0  0  0  0  0  0  0  0  0  0  0  0
    9.1445  -15.8252   25.6107 C   0  0  1  0  0  0  0  0  0  0  0  0
    7.9322  -15.2138   26.2632 C   0  0  0  0  0  0  0  0  0  0  0  0
    7.7735  -13.7924   25.8521 C   0  0  0  0  0  0  0  0  0  0  0  0
    6.5509  -13.1444   26.4958 C   0  0  0  0  0  0  0  0  0  0  0  0
    6.3991  -11.7081   26.0538 C   0  0  0  0  0  0  0  0  0  0  0  0
    5.1810  -11.1217   26.5288 N   0  0  0  0  0  0  0  0  0  0  0  0
    9.5772  -17.0085   26.3833 C   0  0  0  0  0  0  0  0  0  0  0  0
    9.8852  -16.8171   27.6115 O   0  0  0  0  0  0  0  0  0  0  0  0
    9.6753  -18.2938   25.9055 O   0  0  0  0  0  0  0  0  0  0  0  0
  2  1  1  6
  2  3  1  0
  4  2  1  0
  4  5  1  6
  6  7  2  0
  6  4  1  0
  8  6  1  0
  9  8  1  0
  9 10  1  0
 10 11  2  0
 12 10  1  0
 12 13  1  0
 13 14  1  1
 14 15  1  0
 15 16  1  0
 16 17  1  0
 17 18  1  0
 19 13  1  0
 19 21  1  0
 20 19  2  0
M  END
$$$$
