TGK.pdb
     RDKit          3D

 21 20  0  0  1  0  0  0  0  0999 V2000
    7.5813  -12.6184   18.3204 C   0  0  0  0  0  0  0  0  0  0  0  0
    7.9476  -13.9866   17.8089 C   0  0  1  0  0  0  0  0  0  0  0  0
    8.6287  -13.7922   16.5935 O   0  0  0  0  0  0  0  0  0  0  0  0
    8.9348  -14.6552   18.7426 C   0  0  2  0  0  0  0  0  0  0  0  0
    9.3157  -15.9122   18.1491 N   0  0  0  0  0  0  0  0  0  0  0  0
    8.3972  -14.8733   20.0803 C   0  0  0  0  0  0  0  0  0  0  0  0
    8.0496  -13.9318   20.8456 O   0  0  0  0  0  0  0  0  0  0  0  0
    8.2423  -16.1979   20.5819 N   0  0  0  0  0  0  0  0  0  0  0  0
    7.5977  -16.4739   21.8425 C   0  0  0  0  0  0  0  0  0  0  0  0
    8.4557  -15.9714   22.9438 C   0  0  0  0  0  0  0  0  0  0  0  0
    9.6842  -15.7024   22.6901 O   0  0  0  0  0  0  0  0  0  0  0  0
    7.9586  -15.7826   24.2553 N   0  0  0  0  0  0  0  0  0  0  0  0
    8.8585  -15.2151   25.2533 C   0  0  1  0  0  0  0  0  0  0  0  0
    8.0660  -14.5230   26.3315 C   0  0  0  0  0  0  0  0  0  0  0  0
    7.4207  -13.2911   25.8021 C   0  0  0  0  0  0  0  0  0  0  0  0
    6.5956  -12.5750   26.8677 C   0  0  0  0  0  0  0  0  0  0  0  0
    6.0866  -11.2462   26.3613 C   0  0  0  0  0  0  0  0  0  0  0  0
    5.3492  -10.5325   27.3614 N   0  0  0  0  0  0  0  0  0  0  0  0
    9.6596  -16.3038   25.8510 C   0  0  0  0  0  0  0  0  0  0  0  0
   10.5544  -15.9643   26.7020 O   0  0  0  0  0  0  0  0  0  0  0  0
    9.5294  -17.6453   25.5800 O   0  0  0  0  0  0  0  0  0  0  0  0
  2  1  1  1
  2  3  1  0
  4  2  1  0
  4  5  1  6
  6  7  2  0
  6  4  1  0
  8  6  1  0
  9  8  1  0
  9 10  1  0
 10 11  2  0
 12 10  1  0
 12 13  1  0
 13 14  1  1
 14 15  1  0
 15 16  1  0
 16 17  1  0
 17 18  1  0
 19 13  1  0
 19 21  1  0
 20 19  2  0
M  END
$$$$
