TGK.pdb
     RDKit          3D

 21 20  0  0  1  0  0  0  0  0999 V2000
    8.5981  -13.4589   16.3380 C   0  0  0  0  0  0  0  0  0  0  0  0
    8.6303  -14.3005   17.5864 C   0  0  1  0  0  0  0  0  0  0  0  0
    9.6027  -13.7321   18.4292 O   0  0  0  0  0  0  0  0  0  0  0  0
    7.3155  -14.1964   18.3305 C   0  0  2  0  0  0  0  0  0  0  0  0
    7.1500  -12.8232   18.7360 N   0  0  0  0  0  0  0  0  0  0  0  0
    7.2460  -15.0754   19.4918 C   0  0  0  0  0  0  0  0  0  0  0  0
    7.2702  -16.3343   19.4061 O   0  0  0  0  0  0  0  0  0  0  0  0
    7.1453  -14.5236   20.8016 N   0  0  0  0  0  0  0  0  0  0  0  0
    7.0020  -15.3486   21.9762 C   0  0  0  0  0  0  0  0  0  0  0  0
    8.1981  -15.1752   22.8370 C   0  0  0  0  0  0  0  0  0  0  0  0
    9.0931  -14.3284   22.4795 O   0  0  0  0  0  0  0  0  0  0  0  0
    8.3759  -15.9130   24.0315 N   0  0  0  0  0  0  0  0  0  0  0  0
    9.5090  -15.5719   24.8844 C   0  0  1  0  0  0  0  0  0  0  0  0
    9.0429  -15.3453   26.2989 C   0  0  0  0  0  0  0  0  0  0  0  0
   10.1861  -14.9772   27.1775 C   0  0  0  0  0  0  0  0  0  0  0  0
    9.7419  -14.7156   28.6139 C   0  0  0  0  0  0  0  0  0  0  0  0
   10.9093  -14.3033   29.4790 C   0  0  0  0  0  0  0  0  0  0  0  0
   10.5166  -14.0524   30.8340 N   0  0  0  0  0  0  0  0  0  0  0  0
   10.4817  -16.6843   24.8572 C   0  0  0  0  0  0  0  0  0  0  0  0
   10.0119  -17.8598   24.6636 O   0  0  0  0  0  0  0  0  0  0  0  0
   11.8426  -16.5717   25.0166 O   0  0  0  0  0  0  0  0  0  0  0  0
  2  1  1  6
  2  3  1  0
  4  2  1  0
  4  5  1  1
  6  7  2  0
  6  4  1  0
  8  6  1  0
  9  8  1  0
  9 10  1  0
 10 11  2  0
 12 10  1  0
 12 13  1  0
 13 14  1  1
 14 15  1  0
 15 16  1  0
 16 17  1  0
 17 18  1  0
 19 13  1  0
 19 21  1  0
 20 19  2  0
M  END
$$$$
