TGK.pdb
     RDKit          3D

 21 20  0  0  1  0  0  0  0  0999 V2000
    7.6346  -12.5095   18.3897 C   0  0  0  0  0  0  0  0  0  0  0  0
    7.9853  -13.8824   17.8797 C   0  0  1  0  0  0  0  0  0  0  0  0
    8.7062  -13.6956   16.6863 O   0  0  0  0  0  0  0  0  0  0  0  0
    8.9293  -14.5789   18.8373 C   0  0  2  0  0  0  0  0  0  0  0  0
    9.2928  -15.8441   18.2503 N   0  0  0  0  0  0  0  0  0  0  0  0
    8.3504  -14.7860   20.1595 C   0  0  0  0  0  0  0  0  0  0  0  0
    8.0172  -13.8376   20.9225 O   0  0  0  0  0  0  0  0  0  0  0  0
    8.1359  -16.1074   20.6475 N   0  0  0  0  0  0  0  0  0  0  0  0
    7.4374  -16.3687   21.8823 C   0  0  0  0  0  0  0  0  0  0  0  0
    8.3012  -15.9676   23.0200 C   0  0  0  0  0  0  0  0  0  0  0  0
    9.5488  -15.7643   22.8006 O   0  0  0  0  0  0  0  0  0  0  0  0
    7.7894  -15.8049   24.3294 N   0  0  0  0  0  0  0  0  0  0  0  0
    8.6730  -15.2427   25.3447 C   0  0  1  0  0  0  0  0  0  0  0  0
    7.8649  -14.5292   26.3971 C   0  0  0  0  0  0  0  0  0  0  0  0
    7.3790  -13.2178   25.8886 C   0  0  0  0  0  0  0  0  0  0  0  0
    6.5300  -12.4831   26.9223 C   0  0  0  0  0  0  0  0  0  0  0  0
    6.0388  -11.1603   26.3835 C   0  0  0  0  0  0  0  0  0  0  0  0
    5.2646  -10.4371   27.3483 N   0  0  0  0  0  0  0  0  0  0  0  0
    9.4421  -16.3382   25.9711 C   0  0  0  0  0  0  0  0  0  0  0  0
   10.3503  -16.0026   26.8093 O   0  0  0  0  0  0  0  0  0  0  0  0
    9.2692  -17.6822   25.7391 O   0  0  0  0  0  0  0  0  0  0  0  0
  2  1  1  1
  2  3  1  0
  4  2  1  0
  4  5  1  6
  6  7  2  0
  6  4  1  0
  8  6  1  0
  9  8  1  0
  9 10  1  0
 10 11  2  0
 12 10  1  0
 12 13  1  0
 13 14  1  1
 14 15  1  0
 15 16  1  0
 16 17  1  0
 17 18  1  0
 19 13  1  0
 19 21  1  0
 20 19  2  0
M  END
$$$$
