TGK.pdb
     RDKit          3D

 21 20  0  0  1  0  0  0  0  0999 V2000
    7.4365  -12.4617   18.8388 C   0  0  0  0  0  0  0  0  0  0  0  0
    7.9908  -13.7357   18.2579 C   0  0  1  0  0  0  0  0  0  0  0  0
    8.6852  -13.3754   17.0887 O   0  0  0  0  0  0  0  0  0  0  0  0
    9.0203  -14.3398   19.1898 C   0  0  2  0  0  0  0  0  0  0  0  0
    9.5929  -15.4840   18.5264 N   0  0  0  0  0  0  0  0  0  0  0  0
    8.4624  -14.7329   20.4784 C   0  0  0  0  0  0  0  0  0  0  0  0
    7.9806  -13.9069   21.3020 O   0  0  0  0  0  0  0  0  0  0  0  0
    8.4427  -16.1054   20.8606 N   0  0  0  0  0  0  0  0  0  0  0  0
    7.7940  -16.5602   22.0661 C   0  0  0  0  0  0  0  0  0  0  0  0
    8.5778  -16.1008   23.2391 C   0  0  0  0  0  0  0  0  0  0  0  0
    9.7982  -15.7475   23.0608 O   0  0  0  0  0  0  0  0  0  0  0  0
    8.0193  -16.0425   24.5381 N   0  0  0  0  0  0  0  0  0  0  0  0
    8.8272  -15.4625   25.6052 C   0  0  1  0  0  0  0  0  0  0  0  0
    7.9519  -14.6859   26.5540 C   0  0  0  0  0  0  0  0  0  0  0  0
    7.5349  -13.3929   25.9470 C   0  0  0  0  0  0  0  0  0  0  0  0
    6.6467  -12.5810   26.8856 C   0  0  0  0  0  0  0  0  0  0  0  0
    6.2245  -11.2792   26.2464 C   0  0  0  0  0  0  0  0  0  0  0  0
    5.3925  -10.4965   27.1114 N   0  0  0  0  0  0  0  0  0  0  0  0
    9.5061  -16.5513   26.3386 C   0  0  0  0  0  0  0  0  0  0  0  0
   10.2539  -16.2097   27.3206 O   0  0  0  0  0  0  0  0  0  0  0  0
    9.4053  -17.8949   26.0656 O   0  0  0  0  0  0  0  0  0  0  0  0
  2  1  1  1
  2  3  1  0
  4  2  1  0
  4  5  1  6
  6  7  2  0
  6  4  1  0
  8  6  1  0
  9  8  1  0
  9 10  1  0
 10 11  2  0
 12 10  1  0
 12 13  1  0
 13 14  1  1
 14 15  1  0
 15 16  1  0
 16 17  1  0
 17 18  1  0
 19 13  1  0
 19 21  1  0
 20 19  2  0
M  END
$$$$
