TGK.pdb
     RDKit          3D

 21 20  0  0  1  0  0  0  0  0999 V2000
    7.7251  -12.5276   18.2633 C   0  0  0  0  0  0  0  0  0  0  0  0
    7.7601  -13.7343   19.1635 C   0  0  1  0  0  0  0  0  0  0  0  0
    8.4003  -14.7569   18.4400 O   0  0  0  0  0  0  0  0  0  0  0  0
    8.6293  -13.4677   20.3746 C   0  0  2  0  0  0  0  0  0  0  0  0
    9.9706  -13.2260   19.9056 N   0  0  0  0  0  0  0  0  0  0  0  0
    8.6226  -14.5653   21.3344 C   0  0  0  0  0  0  0  0  0  0  0  0
    9.6160  -15.3199   21.5259 O   0  0  0  0  0  0  0  0  0  0  0  0
    7.4577  -14.8292   22.1112 N   0  0  0  0  0  0  0  0  0  0  0  0
    7.3567  -15.9730   22.9844 C   0  0  0  0  0  0  0  0  0  0  0  0
    7.6702  -15.5505   24.3718 C   0  0  0  0  0  0  0  0  0  0  0  0
    8.1264  -14.3669   24.5640 O   0  0  0  0  0  0  0  0  0  0  0  0
    7.4809  -16.4116   25.4788 N   0  0  0  0  0  0  0  0  0  0  0  0
    8.6621  -16.8537   26.2118 C   0  0  1  0  0  0  0  0  0  0  0  0
    8.6527  -18.3535   26.3532 C   0  0  0  0  0  0  0  0  0  0  0  0
    7.4535  -18.8035   27.1108 C   0  0  0  0  0  0  0  0  0  0  0  0
    7.4966  -20.2987   27.4133 C   0  0  0  0  0  0  0  0  0  0  0  0
    6.2844  -21.0036   26.8519 C   0  0  0  0  0  0  0  0  0  0  0  0
    6.2329  -22.3824   27.2386 N   0  0  0  0  0  0  0  0  0  0  0  0
    9.8707  -16.4350   25.4714 C   0  0  0  0  0  0  0  0  0  0  0  0
   10.5300  -17.3546   24.8717 O   0  0  0  0  0  0  0  0  0  0  0  0
   10.3483  -15.1503   25.3649 O   0  0  0  0  0  0  0  0  0  0  0  0
  2  1  1  6
  2  3  1  0
  4  2  1  0
  4  5  1  6
  6  7  2  0
  6  4  1  0
  8  6  1  0
  9  8  1  0
  9 10  1  0
 10 11  2  0
 12 10  1  0
 12 13  1  0
 13 14  1  6
 14 15  1  0
 15 16  1  0
 16 17  1  0
 17 18  1  0
 19 13  1  0
 19 21  1  0
 20 19  2  0
M  END
$$$$
