TGK.pdb
     RDKit          3D

 21 20  0  0  1  0  0  0  0  0999 V2000
    8.3815  -16.8466   17.8682 C   0  0  0  0  0  0  0  0  0  0  0  0
    7.9177  -17.0842   19.2811 C   0  0  1  0  0  0  0  0  0  0  0  0
    8.3460  -18.3772   19.6325 O   0  0  0  0  0  0  0  0  0  0  0  0
    8.6144  -16.1362   20.2347 C   0  0  2  0  0  0  0  0  0  0  0  0
   10.0243  -16.4328   20.1941 N   0  0  0  0  0  0  0  0  0  0  0  0
    8.1188  -16.2364   21.6024 C   0  0  0  0  0  0  0  0  0  0  0  0
    6.9353  -15.9454   21.9299 O   0  0  0  0  0  0  0  0  0  0  0  0
    8.9823  -16.6800   22.6453 N   0  0  0  0  0  0  0  0  0  0  0  0
    8.5183  -16.8812   23.9963 C   0  0  0  0  0  0  0  0  0  0  0  0
    9.2720  -15.9821   24.9047 C   0  0  0  0  0  0  0  0  0  0  0  0
   10.2947  -15.3605   24.4424 O   0  0  0  0  0  0  0  0  0  0  0  0
    8.8955  -15.7940   26.2559 N   0  0  0  0  0  0  0  0  0  0  0  0
    9.7014  -14.8925   27.0718 C   0  0  1  0  0  0  0  0  0  0  0  0
    8.8185  -13.8748   27.7457 C   0  0  0  0  0  0  0  0  0  0  0  0
    8.0122  -13.1298   26.7410 C   0  0  0  0  0  0  0  0  0  0  0  0
    7.0301  -12.1644   27.3987 C   0  0  0  0  0  0  0  0  0  0  0  0
    6.2253  -11.4156   26.3628 C   0  0  0  0  0  0  0  0  0  0  0  0
    5.2880  -10.5094   26.9572 N   0  0  0  0  0  0  0  0  0  0  0  0
   10.4156  -15.6825   28.0966 C   0  0  0  0  0  0  0  0  0  0  0  0
   11.2185  -15.0446   28.8638 O   0  0  0  0  0  0  0  0  0  0  0  0
   10.2939  -17.0361   28.3032 O   0  0  0  0  0  0  0  0  0  0  0  0
  2  1  1  6
  2  3  1  0
  4  2  1  0
  4  5  1  1
  6  7  2  0
  6  4  1  0
  8  6  1  0
  9  8  1  0
  9 10  1  0
 10 11  2  0
 12 10  1  0
 12 13  1  0
 13 14  1  1
 14 15  1  0
 15 16  1  0
 16 17  1  0
 17 18  1  0
 19 13  1  0
 19 21  1  0
 20 19  2  0
M  END
$$$$
