NRG.pdb
     RDKit          3D

 24 23  0  0  1  0  0  0  0  0999 V2000
    9.5814  -21.7685   18.4906 N   0  0  0  0  0  0  0  0  0  0  0  0
    9.1156  -20.5094   18.0107 C   0  0  0  0  0  0  0  0  0  0  0  0
    8.3652  -20.4634   17.0203 O   0  0  0  0  0  0  0  0  0  0  0  0
    9.5216  -19.2691   18.6847 C   0  0  0  0  0  0  0  0  0  0  0  0
   10.4502  -19.5176   19.8461 C   0  0  2  0  0  0  0  0  0  0  0  0
    9.8287  -20.3979   20.8303 N   0  0  0  0  0  0  0  0  0  0  0  0
   10.8363  -18.2298   20.4594 C   0  0  0  0  0  0  0  0  0  0  0  0
   11.5669  -17.4167   19.8588 O   0  0  0  0  0  0  0  0  0  0  0  0
    8.2670  -11.1213   19.9511 N   0  0  0  0  0  0  0  0  0  0  0  0
    8.0725  -12.5269   20.1065 C   0  0  0  0  0  0  0  0  0  0  0  0
    8.2337  -13.3447   19.1208 N   0  0  0  0  0  0  0  0  0  0  0  0
    7.6885  -13.0953   21.3522 N   0  0  0  0  0  0  0  0  0  0  0  0
    7.5741  -14.5198   21.5334 C   0  0  0  0  0  0  0  0  0  0  0  0
    8.8424  -15.2831   21.2750 C   0  0  0  0  0  0  0  0  0  0  0  0
    9.4895  -15.7638   22.5537 C   0  0  0  0  0  0  0  0  0  0  0  0
   10.7298  -16.5517   22.3180 C   0  0  2  0  0  0  0  0  0  0  0  0
   10.3925  -17.8457   21.7775 N   0  0  0  0  0  0  0  0  0  0  0  0
   11.5678  -16.6756   23.5456 C   0  0  0  0  0  0  0  0  0  0  0  0
   12.3944  -15.8350   23.9105 O   0  0  0  0  0  0  0  0  0  0  0  0
    8.1377  -14.3624   19.2493 N   0  0  0  0  0  0  0  0  0  0  0  0
   11.4017  -17.8422   24.3490 C   0  0  0  0  0  0  0  0  0  0  0  0
   12.1433  -19.0617   24.0911 C   0  0  0  0  0  0  0  0  0  0  0  0
   13.5547  -18.9573   24.4915 O   0  0  0  0  0  0  0  0  0  0  0  0
   13.8751  -19.3438   25.6417 O   0  0  0  0  0  0  0  0  0  0  0  0
  1  2  1  0
  2  3  2  0
  4  2  1  0
  5  4  1  0
  5  6  1  1
  7  5  1  0
  7  8  2  0
  9 10  1  0
 10 12  1  0
 11 10  2  0
 12 13  1  0
 13 14  1  0
 15 14  1  0
 16 15  1  1
 16 17  1  0
 17  7  1  0
 18 20  1  0
 18 16  1  0
 19 18  2  0
 21 22  1  0
 21 20  1  0
 22 24  1  0
 23 22  2  0
M  END
$$$$
