NRG.pdb
     RDKit          3D

 24 23  0  0  1  0  0  0  0  0999 V2000
   12.1504  -18.3842   17.9114 N   0  0  0  0  0  0  0  0  0  0  0  0
   12.1040  -17.0104   17.5330 C   0  0  0  0  0  0  0  0  0  0  0  0
   12.1754  -16.6962   16.3320 O   0  0  0  0  0  0  0  0  0  0  0  0
   11.9725  -15.9683   18.5598 C   0  0  0  0  0  0  0  0  0  0  0  0
   12.0201  -16.5250   19.9601 C   0  0  2  0  0  0  0  0  0  0  0  0
   11.3876  -17.8389   20.0197 N   0  0  0  0  0  0  0  0  0  0  0  0
   11.3679  -15.5826   20.8929 C   0  0  0  0  0  0  0  0  0  0  0  0
   11.7998  -14.4236   21.0541 O   0  0  0  0  0  0  0  0  0  0  0  0
    8.4248  -11.9480   18.7483 N   0  0  0  0  0  0  0  0  0  0  0  0
    8.2662  -13.2226   18.1254 C   0  0  0  0  0  0  0  0  0  0  0  0
    8.7525  -13.4684   16.9551 N   0  0  0  0  0  0  0  0  0  0  0  0
    7.5627  -14.2827   18.7606 N   0  0  0  0  0  0  0  0  0  0  0  0
    7.0187  -14.1449   20.0873 C   0  0  0  0  0  0  0  0  0  0  0  0
    8.0192  -13.7322   21.1297 C   0  0  0  0  0  0  0  0  0  0  0  0
    8.1836  -14.7783   22.2084 C   0  0  0  0  0  0  0  0  0  0  0  0
    9.6054  -15.0118   22.5810 C   0  0  2  0  0  0  0  0  0  0  0  0
   10.2044  -15.9496   21.6632 N   0  0  0  0  0  0  0  0  0  0  0  0
    9.7572  -15.4608   23.9951 C   0  0  0  0  0  0  0  0  0  0  0  0
    9.1283  -14.9876   24.9458 O   0  0  0  0  0  0  0  0  0  0  0  0
    8.6056  -14.3786   16.4955 N   0  0  0  0  0  0  0  0  0  0  0  0
   10.6904  -16.5051   24.2646 C   0  0  0  0  0  0  0  0  0  0  0  0
   10.8941  -17.0234   25.6038 C   0  0  0  0  0  0  0  0  0  0  0  0
   11.9161  -18.0801   25.6489 O   0  0  0  0  0  0  0  0  0  0  0  0
   12.5006  -18.3860   24.5812 O   0  0  0  0  0  0  0  0  0  0  0  0
  1  2  1  0
  2  3  2  0
  4  2  1  0
  5  4  1  0
  5  6  1  6
  7  5  1  0
  7  8  2  0
  9 10  1  0
 10 12  1  0
 11 10  2  0
 12 13  1  0
 13 14  1  0
 15 14  1  0
 16 15  1  6
 16 17  1  0
 17  7  1  0
 18 20  1  0
 18 16  1  0
 19 18  2  0
 21 22  1  0
 21 20  1  0
 22 24  1  0
 23 22  2  0
M  END
$$$$
