NRG.pdb
     RDKit          3D

 24 23  0  0  1  0  0  0  0  0999 V2000
   15.1767  -14.1629   18.3700 N   0  0  0  0  0  0  0  0  0  0  0  0
   14.0730  -15.0651   18.3489 C   0  0  0  0  0  0  0  0  0  0  0  0
   14.0947  -16.0524   17.5933 O   0  0  0  0  0  0  0  0  0  0  0  0
   12.9125  -14.8287   19.2177 C   0  0  0  0  0  0  0  0  0  0  0  0
   12.8299  -15.8141   20.3558 C   0  0  2  0  0  0  0  0  0  0  0  0
   12.3947  -17.1234   19.8800 N   0  0  0  0  0  0  0  0  0  0  0  0
   11.9142  -15.2991   21.3949 C   0  0  0  0  0  0  0  0  0  0  0  0
   12.1069  -14.1951   21.9423 O   0  0  0  0  0  0  0  0  0  0  0  0
    8.5684  -11.1721   19.3422 N   0  0  0  0  0  0  0  0  0  0  0  0
    8.3084  -12.4510   18.7637 C   0  0  0  0  0  0  0  0  0  0  0  0
    8.9416  -12.8603   17.7158 N   0  0  0  0  0  0  0  0  0  0  0  0
    7.3379  -13.3353   19.3099 N   0  0  0  0  0  0  0  0  0  0  0  0
    7.4535  -13.8564   20.6478 C   0  0  0  0  0  0  0  0  0  0  0  0
    8.3316  -15.0699   20.7686 C   0  0  0  0  0  0  0  0  0  0  0  0
    8.4340  -15.5602   22.1947 C   0  0  0  0  0  0  0  0  0  0  0  0
    9.8110  -15.4543   22.7493 C   0  0  2  0  0  0  0  0  0  0  0  0
   10.7554  -16.0405   21.8302 N   0  0  0  0  0  0  0  0  0  0  0  0
    9.9259  -16.0587   24.1080 C   0  0  0  0  0  0  0  0  0  0  0  0
    9.1790  -15.7908   25.0532 O   0  0  0  0  0  0  0  0  0  0  0  0
    8.7811  -13.8010   17.3277 N   0  0  0  0  0  0  0  0  0  0  0  0
   10.9674  -17.0081   24.3273 C   0  0  0  0  0  0  0  0  0  0  0  0
   11.1823  -17.6234   25.6230 C   0  0  0  0  0  0  0  0  0  0  0  0
   12.3139  -18.5628   25.6192 O   0  0  0  0  0  0  0  0  0  0  0  0
   12.8717  -18.8150   24.5236 O   0  0  0  0  0  0  0  0  0  0  0  0
  1  2  1  0
  2  3  2  0
  4  2  1  0
  5  4  1  0
  5  6  1  6
  7  5  1  0
  7  8  2  0
  9 10  1  0
 10 12  1  0
 11 10  2  0
 12 13  1  0
 13 14  1  0
 15 14  1  0
 16 15  1  6
 16 17  1  0
 17  7  1  0
 18 20  1  0
 18 16  1  0
 19 18  2  0
 21 22  1  0
 21 20  1  0
 22 24  1  0
 23 22  2  0
M  END
$$$$
