NRG.pdb
     RDKit          3D

 24 23  0  0  1  0  0  0  0  0999 V2000
   16.3648  -21.0354   29.4132 N   0  0  0  0  0  0  0  0  0  0  0  0
   16.6306  -21.0045   30.8136 C   0  0  0  0  0  0  0  0  0  0  0  0
   17.7890  -20.8064   31.2197 O   0  0  0  0  0  0  0  0  0  0  0  0
   15.5383  -21.2067   31.7745 C   0  0  0  0  0  0  0  0  0  0  0  0
   14.2097  -21.4405   31.1013 C   0  0  2  0  0  0  0  0  0  0  0  0
   13.5663  -20.1743   30.7657 N   0  0  0  0  0  0  0  0  0  0  0  0
   13.3439  -22.2562   31.9781 C   0  0  0  0  0  0  0  0  0  0  0  0
   12.1980  -21.8783   32.2941 O   0  0  0  0  0  0  0  0  0  0  0  0
    7.0997  -26.8793   30.9486 N   0  0  0  0  0  0  0  0  0  0  0  0
    7.4765  -27.3929   32.2261 C   0  0  0  0  0  0  0  0  0  0  0  0
    6.7875  -28.3119   32.8153 N   0  0  0  0  0  0  0  0  0  0  0  0
    8.6262  -26.9161   32.9141 N   0  0  0  0  0  0  0  0  0  0  0  0
    9.5422  -25.9848   32.3069 C   0  0  0  0  0  0  0  0  0  0  0  0
   10.7219  -25.6243   33.1649 C   0  0  0  0  0  0  0  0  0  0  0  0
   11.6947  -24.7180   32.4456 C   0  0  0  0  0  0  0  0  0  0  0  0
   12.8683  -24.3440   33.2806 C   0  0  2  0  0  0  0  0  0  0  0  0
   13.7743  -23.5252   32.5131 N   0  0  0  0  0  0  0  0  0  0  0  0
   13.5617  -25.5336   33.8540 C   0  0  0  0  0  0  0  0  0  0  0  0
   13.9926  -26.4765   33.1844 O   0  0  0  0  0  0  0  0  0  0  0  0
    7.0512  -28.6630   33.7472 N   0  0  0  0  0  0  0  0  0  0  0  0
   13.7375  -25.5829   35.2685 C   0  0  0  0  0  0  0  0  0  0  0  0
   14.3817  -26.7065   35.9214 C   0  0  0  0  0  0  0  0  0  0  0  0
   13.4914  -27.8704   36.0471 O   0  0  0  0  0  0  0  0  0  0  0  0
   12.3220  -27.7734   35.6021 O   0  0  0  0  0  0  0  0  0  0  0  0
  1  2  1  0
  2  3  2  0
  4  2  1  0
  5  4  1  0
  5  6  1  1
  7  5  1  0
  7  8  2  0
  9 10  1  0
 10 12  1  0
 11 10  2  0
 12 13  1  0
 13 14  1  0
 15 14  1  0
 16 15  1  6
 16 17  1  0
 17  7  1  0
 18 20  1  0
 18 16  1  0
 19 18  2  0
 21 22  1  0
 21 20  1  0
 22 24  1  0
 23 22  2  0
M  END
$$$$
