NRG.pdb
     RDKit          3D

 24 23  0  0  1  0  0  0  0  0999 V2000
    6.5728  -12.8061   18.1744 N   0  0  0  0  0  0  0  0  0  0  0  0
    7.0959  -13.6972   17.1922 C   0  0  0  0  0  0  0  0  0  0  0  0
    6.4285  -13.9601   16.1765 O   0  0  0  0  0  0  0  0  0  0  0  0
    8.4204  -14.3039   17.3799 C   0  0  0  0  0  0  0  0  0  0  0  0
    9.0258  -13.9711   18.7199 C   0  0  2  0  0  0  0  0  0  0  0  0
    9.2322  -12.5327   18.8551 N   0  0  0  0  0  0  0  0  0  0  0  0
   10.2975  -14.7047   18.8877 C   0  0  0  0  0  0  0  0  0  0  0  0
   10.3414  -15.9502   18.8369 O   0  0  0  0  0  0  0  0  0  0  0  0
   16.9740  -17.4462   18.0785 N   0  0  0  0  0  0  0  0  0  0  0  0
   16.5975  -16.9087   16.8108 C   0  0  0  0  0  0  0  0  0  0  0  0
   16.5317  -17.6488   15.7552 N   0  0  0  0  0  0  0  0  0  0  0  0
   16.2798  -15.5322   16.6469 N   0  0  0  0  0  0  0  0  0  0  0  0
   16.2082  -14.6311   17.7685 C   0  0  0  0  0  0  0  0  0  0  0  0
   15.1691  -14.9934   18.7917 C   0  0  0  0  0  0  0  0  0  0  0  0
   13.8794  -14.2316   18.5893 C   0  0  0  0  0  0  0  0  0  0  0  0
   12.7511  -14.7727   19.3949 C   0  0  2  0  0  0  0  0  0  0  0  0
   11.5491  -14.0249   19.1183 N   0  0  0  0  0  0  0  0  0  0  0  0
   13.0540  -14.7966   20.8551 C   0  0  0  0  0  0  0  0  0  0  0  0
   13.1182  -13.7913   21.5682 O   0  0  0  0  0  0  0  0  0  0  0  0
   16.1966  -17.2709   14.8573 N   0  0  0  0  0  0  0  0  0  0  0  0
   13.2840  -16.0649   21.4657 C   0  0  0  0  0  0  0  0  0  0  0  0
   13.4246  -16.2091   22.9020 C   0  0  0  0  0  0  0  0  0  0  0  0
   13.7929  -17.5772   23.2969 O   0  0  0  0  0  0  0  0  0  0  0  0
   13.8607  -18.4548   22.4023 O   0  0  0  0  0  0  0  0  0  0  0  0
  1  2  1  0
  2  3  2  0
  4  2  1  0
  5  4  1  0
  5  6  1  6
  7  5  1  0
  7  8  2  0
  9 10  1  0
 10 12  1  0
 11 10  2  0
 12 13  1  0
 13 14  1  0
 15 14  1  0
 16 15  1  6
 16 17  1  0
 17  7  1  0
 18 20  1  0
 18 16  1  0
 19 18  2  0
 21 22  1  0
 21 20  1  0
 22 24  1  0
 23 22  2  0
M  END
$$$$
