NRG.pdb
     RDKit          3D

 24 23  0  0  1  0  0  0  0  0999 V2000
   14.9190  -16.1092   17.2109 N   0  0  0  0  0  0  0  0  0  0  0  0
   14.7031  -14.7552   17.6015 C   0  0  0  0  0  0  0  0  0  0  0  0
   15.1593  -13.8301   16.9070 O   0  0  0  0  0  0  0  0  0  0  0  0
   13.9438  -14.4536   18.8222 C   0  0  0  0  0  0  0  0  0  0  0  0
   13.6148  -15.6896   19.6204 C   0  0  2  0  0  0  0  0  0  0  0  0
   12.8663  -16.6470   18.8124 N   0  0  0  0  0  0  0  0  0  0  0  0
   12.8553  -15.3130   20.8308 C   0  0  0  0  0  0  0  0  0  0  0  0
   13.2500  -14.4055   21.5900 O   0  0  0  0  0  0  0  0  0  0  0  0
    8.3572  -13.6882   17.2442 N   0  0  0  0  0  0  0  0  0  0  0  0
    8.0413  -13.0111   18.4605 C   0  0  0  0  0  0  0  0  0  0  0  0
    8.3349  -11.7665   18.6374 N   0  0  0  0  0  0  0  0  0  0  0  0
    7.3914  -13.6738   19.5380 N   0  0  0  0  0  0  0  0  0  0  0  0
    7.9852  -14.8062   20.2014 C   0  0  0  0  0  0  0  0  0  0  0  0
    8.7838  -14.4605   21.4265 C   0  0  0  0  0  0  0  0  0  0  0  0
    9.4068  -15.6810   22.0645 C   0  0  0  0  0  0  0  0  0  0  0  0
   10.8611  -15.5181   22.3351 C   0  0  2  0  0  0  0  0  0  0  0  0
   11.6244  -15.9703   21.1979 N   0  0  0  0  0  0  0  0  0  0  0  0
   11.2882  -16.2074   23.5869 C   0  0  0  0  0  0  0  0  0  0  0  0
   10.7875  -16.0058   24.6968 O   0  0  0  0  0  0  0  0  0  0  0  0
    8.1228  -11.2881   19.5248 N   0  0  0  0  0  0  0  0  0  0  0  0
   12.3441  -17.1616   23.4934 C   0  0  0  0  0  0  0  0  0  0  0  0
   12.7990  -17.9158   24.6457 C   0  0  0  0  0  0  0  0  0  0  0  0
   12.1939  -19.2545   24.7168 O   0  0  0  0  0  0  0  0  0  0  0  0
   11.3049  -19.5486   23.8812 O   0  0  0  0  0  0  0  0  0  0  0  0
  1  2  1  0
  2  3  2  0
  4  2  1  0
  5  4  1  0
  5  6  1  6
  7  5  1  0
  7  8  2  0
  9 10  1  0
 10 12  1  0
 11 10  2  0
 12 13  1  0
 13 14  1  0
 15 14  1  0
 16 15  1  6
 16 17  1  0
 17  7  1  0
 18 20  1  0
 18 16  1  0
 19 18  2  0
 21 22  1  0
 21 20  1  0
 22 24  1  0
 23 22  2  0
M  END
$$$$
