NRG.pdb
     RDKit          3D

 24 23  0  0  1  0  0  0  0  0999 V2000
    8.3012  -11.8271   18.0861 N   0  0  0  0  0  0  0  0  0  0  0  0
    7.9377  -13.2018   18.1893 C   0  0  0  0  0  0  0  0  0  0  0  0
    7.9431  -13.9214   17.1752 O   0  0  0  0  0  0  0  0  0  0  0  0
    7.5574  -13.7668   19.4906 C   0  0  0  0  0  0  0  0  0  0  0  0
    8.7203  -14.4037   20.2083 C   0  0  2  0  0  0  0  0  0  0  0  0
    9.2897  -15.4890   19.4160 N   0  0  0  0  0  0  0  0  0  0  0  0
    8.2817  -14.8910   21.5326 C   0  0  0  0  0  0  0  0  0  0  0  0
    7.8346  -14.1110   22.3972 O   0  0  0  0  0  0  0  0  0  0  0  0
    3.3009  -21.1751   22.1207 N   0  0  0  0  0  0  0  0  0  0  0  0
    3.0965  -19.9313   21.4508 C   0  0  0  0  0  0  0  0  0  0  0  0
    2.0763  -19.7358   20.6844 N   0  0  0  0  0  0  0  0  0  0  0  0
    4.0072  -18.8481   21.5912 N   0  0  0  0  0  0  0  0  0  0  0  0
    5.2013  -18.9589   22.3893 C   0  0  0  0  0  0  0  0  0  0  0  0
    6.0165  -17.6990   22.4666 C   0  0  0  0  0  0  0  0  0  0  0  0
    7.2494  -17.8692   23.3244 C   0  0  0  0  0  0  0  0  0  0  0  0
    8.1656  -16.6978   23.2657 C   0  0  2  0  0  0  0  0  0  0  0  0
    8.3466  -16.2860   21.8953 N   0  0  0  0  0  0  0  0  0  0  0  0
    9.4733  -16.9636   23.9320 C   0  0  0  0  0  0  0  0  0  0  0  0
   10.5720  -16.8193   23.3888 O   0  0  0  0  0  0  0  0  0  0  0  0
    1.9156  -18.8253   20.2301 N   0  0  0  0  0  0  0  0  0  0  0  0
    9.4506  -17.4135   25.2852 C   0  0  0  0  0  0  0  0  0  0  0  0
   10.6428  -17.4163   26.1113 C   0  0  0  0  0  0  0  0  0  0  0  0
   10.4175  -18.0438   27.4223 O   0  0  0  0  0  0  0  0  0  0  0  0
   11.4054  -18.2084   28.1787 O   0  0  0  0  0  0  0  0  0  0  0  0
  1  2  1  0
  2  3  2  0
  4  2  1  0
  5  4  1  0
  5  6  1  6
  7  5  1  0
  7  8  2  0
  9 10  1  0
 10 12  1  0
 11 10  2  0
 12 13  1  0
 13 14  1  0
 15 14  1  0
 16 15  1  6
 16 17  1  0
 17  7  1  0
 18 20  1  0
 18 16  1  0
 19 18  2  0
 21 22  1  0
 21 20  1  0
 22 24  1  0
 23 22  2  0
M  END
$$$$
