AFT.pdb
     RDKit          3D

 24 24  0  0  1  0  0  0  0  0999 V2000
   25.5646  -20.9584  -16.3959 C   0  0  0  0  0  0  0  0  0  0  0  0
   26.6416  -21.7436  -15.6754 C   0  0  2  0  0  0  0  0  0  0  0  0
   26.8152  -23.0585  -16.2242 N   0  0  0  0  0  0  0  0  0  0  0  0
   26.2570  -21.8624  -14.2511 C   0  0  0  0  0  0  0  0  0  0  0  0
   25.7095  -22.9280  -13.8727 O   0  0  0  0  0  0  0  0  0  0  0  0
   26.4940  -20.8139  -13.3345 N   0  0  0  0  0  0  0  0  0  0  0  0
   26.1048  -20.9925  -11.9087 C   0  0  1  0  0  0  0  0  0  0  0  0
   27.0231  -20.0554  -11.1729 C   0  0  0  0  0  0  0  0  0  0  0  0
   27.0263  -20.1294   -9.7268 C   0  0  0  0  0  0  0  0  0  0  0  0
   27.4909  -21.2065   -9.0294 C   0  0  0  0  0  0  0  0  0  0  0  0
   27.4536  -21.1991   -7.6353 C   0  0  0  0  0  0  0  0  0  0  0  0
   26.9591  -20.1310   -6.9382 C   0  0  0  0  0  0  0  0  0  0  0  0
   26.4907  -19.0450   -7.6343 C   0  0  0  0  0  0  0  0  0  0  0  0
   26.5255  -19.0480   -9.0130 C   0  0  0  0  0  0  0  0  0  0  0  0
   24.6869  -20.6329  -11.8227 C   0  0  0  0  0  0  0  0  0  0  0  0
   24.1844  -20.5080  -10.6542 O   0  0  0  0  0  0  0  0  0  0  0  0
   20.3221  -19.0914  -13.6308 C   0  0  0  0  0  0  0  0  0  0  0  0
   21.7084  -19.5744  -13.8879 C   0  0  1  0  0  0  0  0  0  0  0  0
   22.4766  -18.5938  -14.5124 O   0  0  0  0  0  0  0  0  0  0  0  0
   22.4342  -20.0005  -12.6188 C   0  0  2  0  0  0  0  0  0  0  0  0
   23.7959  -20.3973  -12.9045 N   0  0  0  0  0  0  0  0  0  0  0  0
   21.6873  -21.1502  -12.0894 C   0  0  0  0  0  0  0  0  0  0  0  0
   22.1180  -22.3373  -12.1801 O   0  0  0  0  0  0  0  0  0  0  0  0
   20.4710  -20.9572  -11.4652 O   0  0  0  0  0  0  0  0  0  0  0  0
  2  1  1  6
  3  2  1  0
  4  5  2  0
  4  2  1  0
  6  4  1  0
  7  6  1  0
  7  8  1  1
  8  9  1  0
  9 14  2  0
 10 11  2  0
 10  9  1  0
 11 12  1  0
 12 13  2  0
 14 13  1  0
 15  7  1  0
 16 15  2  0
 18 17  1  1
 18 20  1  0
 19 18  1  0
 20 22  1  0
 20 21  1  6
 21 15  1  0
 22 24  1  0
 23 22  2  0
M  END
$$$$
