AFT.pdb
     RDKit          3D

 24 24  0  0  1  0  0  0  0  0999 V2000
   27.0277  -21.1709  -17.6595 C   0  0  0  0  0  0  0  0  0  0  0  0
   27.7868  -21.8007  -16.5095 C   0  0  2  0  0  0  0  0  0  0  0  0
   28.3354  -23.0810  -16.8561 N   0  0  0  0  0  0  0  0  0  0  0  0
   26.8544  -21.9676  -15.3721 C   0  0  0  0  0  0  0  0  0  0  0  0
   26.1843  -23.0284  -15.3067 O   0  0  0  0  0  0  0  0  0  0  0  0
   26.7138  -20.9693  -14.3825 N   0  0  0  0  0  0  0  0  0  0  0  0
   25.8258  -21.2226  -13.2148 C   0  0  1  0  0  0  0  0  0  0  0  0
   26.4836  -20.4571  -12.0995 C   0  0  0  0  0  0  0  0  0  0  0  0
   25.8438  -20.4958  -10.8012 C   0  0  0  0  0  0  0  0  0  0  0  0
   26.4629  -20.9429   -9.6701 C   0  0  0  0  0  0  0  0  0  0  0  0
   25.7725  -20.9515   -8.4583 C   0  0  0  0  0  0  0  0  0  0  0  0
   24.4776  -20.5197   -8.3694 C   0  0  0  0  0  0  0  0  0  0  0  0
   23.8500  -20.0689   -9.5035 C   0  0  0  0  0  0  0  0  0  0  0  0
   24.5288  -20.0586  -10.7039 C   0  0  0  0  0  0  0  0  0  0  0  0
   24.5022  -20.7177  -13.5893 C   0  0  0  0  0  0  0  0  0  0  0  0
   24.4464  -19.5526  -14.1118 O   0  0  0  0  0  0  0  0  0  0  0  0
   21.1605  -22.8130  -14.8984 C   0  0  0  0  0  0  0  0  0  0  0  0
   21.4377  -21.3603  -15.0825 C   0  0  1  0  0  0  0  0  0  0  0  0
   20.2764  -20.6624  -15.4082 O   0  0  0  0  0  0  0  0  0  0  0  0
   22.0442  -20.7096  -13.8465 C   0  0  2  0  0  0  0  0  0  0  0  0
   23.2571  -21.3867  -13.4421 N   0  0  0  0  0  0  0  0  0  0  0  0
   21.0348  -20.8322  -12.7853 C   0  0  0  0  0  0  0  0  0  0  0  0
   21.2329  -21.5159  -11.7382 O   0  0  0  0  0  0  0  0  0  0  0  0
   19.8197  -20.1885  -12.9083 O   0  0  0  0  0  0  0  0  0  0  0  0
  2  1  1  6
  3  2  1  0
  4  5  2  0
  4  2  1  0
  6  4  1  0
  7  6  1  0
  7  8  1  1
  8  9  1  0
  9 14  2  0
 10 11  2  0
 10  9  1  0
 11 12  1  0
 12 13  2  0
 14 13  1  0
 15  7  1  0
 16 15  2  0
 18 17  1  1
 18 20  1  0
 19 18  1  0
 20 22  1  0
 20 21  1  1
 21 15  1  0
 22 24  1  0
 23 22  2  0
M  END
$$$$
