AFT.pdb
     RDKit          3D

 24 24  0  0  1  0  0  0  0  0999 V2000
   18.1603  -10.0095  -18.5555 C   0  0  0  0  0  0  0  0  0  0  0  0
   19.5272  -10.0330  -17.9024 C   0  0  2  0  0  0  0  0  0  0  0  0
   19.8240  -11.3053  -17.3077 N   0  0  0  0  0  0  0  0  0  0  0  0
   19.5594   -8.9906  -16.8522 C   0  0  0  0  0  0  0  0  0  0  0  0
   18.8597   -9.1649  -15.8234 O   0  0  0  0  0  0  0  0  0  0  0  0
   20.3507   -7.8286  -16.9921 N   0  0  0  0  0  0  0  0  0  0  0  0
   20.3552   -6.8161  -15.9007 C   0  0  1  0  0  0  0  0  0  0  0  0
   21.7609   -6.8780  -15.3687 C   0  0  0  0  0  0  0  0  0  0  0  0
   22.0470   -7.8831  -14.3665 C   0  0  0  0  0  0  0  0  0  0  0  0
   22.9309   -8.9053  -14.5567 C   0  0  0  0  0  0  0  0  0  0  0  0
   23.1454   -9.8355  -13.5400 C   0  0  0  0  0  0  0  0  0  0  0  0
   22.4878   -9.7521  -12.3433 C   0  0  0  0  0  0  0  0  0  0  0  0
   21.5979   -8.7262  -12.1464 C   0  0  0  0  0  0  0  0  0  0  0  0
   21.3826   -7.8041  -13.1491 C   0  0  0  0  0  0  0  0  0  0  0  0
   20.0067   -5.5376  -16.5263 C   0  0  0  0  0  0  0  0  0  0  0  0
   20.7777   -5.1089  -17.4511 O   0  0  0  0  0  0  0  0  0  0  0  0
   17.2053   -4.4212  -18.8293 C   0  0  0  0  0  0  0  0  0  0  0  0
   17.2914   -3.5198  -17.6454 C   0  0  1  0  0  0  0  0  0  0  0  0
   16.3655   -3.8804  -16.6684 O   0  0  0  0  0  0  0  0  0  0  0  0
   18.6719   -3.5129  -17.0028 C   0  0  2  0  0  0  0  0  0  0  0  0
   18.8907   -4.7117  -16.2230 N   0  0  0  0  0  0  0  0  0  0  0  0
   18.7039   -2.3385  -16.1198 C   0  0  0  0  0  0  0  0  0  0  0  0
   18.7017   -2.4401  -14.8578 O   0  0  0  0  0  0  0  0  0  0  0  0
   18.7394   -1.0680  -16.6590 O   0  0  0  0  0  0  0  0  0  0  0  0
  2  1  1  1
  3  2  1  0
  4  5  2  0
  4  2  1  0
  6  4  1  0
  7  6  1  0
  7  8  1  6
  8  9  1  0
  9 14  2  0
 10 11  2  0
 10  9  1  0
 11 12  1  0
 12 13  2  0
 14 13  1  0
 15  7  1  0
 16 15  2  0
 18 17  1  6
 18 20  1  0
 19 18  1  0
 20 22  1  0
 20 21  1  1
 21 15  1  0
 22 24  1  0
 23 22  2  0
M  END
$$$$
