AFT.pdb
     RDKit          3D

 24 24  0  0  1  0  0  0  0  0999 V2000
   27.0427  -21.6640  -18.0520 C   0  0  0  0  0  0  0  0  0  0  0  0
   27.9245  -21.6522  -16.8201 C   0  0  2  0  0  0  0  0  0  0  0  0
   28.8922  -22.7124  -16.8336 N   0  0  0  0  0  0  0  0  0  0  0  0
   27.0607  -21.8031  -15.6277 C   0  0  0  0  0  0  0  0  0  0  0  0
   26.9374  -22.9488  -15.1272 O   0  0  0  0  0  0  0  0  0  0  0  0
   26.3893  -20.6972  -15.0602 N   0  0  0  0  0  0  0  0  0  0  0  0
   25.7179  -20.8530  -13.7407 C   0  0  1  0  0  0  0  0  0  0  0  0
   26.4705  -19.9041  -12.8484 C   0  0  0  0  0  0  0  0  0  0  0  0
   27.6890  -20.3933  -12.2380 C   0  0  0  0  0  0  0  0  0  0  0  0
   28.9353  -20.1219  -12.7233 C   0  0  0  0  0  0  0  0  0  0  0  0
   30.0589  -20.6369  -12.0772 C   0  0  0  0  0  0  0  0  0  0  0  0
   29.9468  -21.4151  -10.9578 C   0  0  0  0  0  0  0  0  0  0  0  0
   28.6960  -21.6912  -10.4652 C   0  0  0  0  0  0  0  0  0  0  0  0
   27.5821  -21.1841  -11.1010 C   0  0  0  0  0  0  0  0  0  0  0  0
   24.3133  -20.4921  -13.9504 C   0  0  0  0  0  0  0  0  0  0  0  0
   24.0753  -19.3788  -14.5312 O   0  0  0  0  0  0  0  0  0  0  0  0
   21.5844  -22.3813  -15.9133 C   0  0  0  0  0  0  0  0  0  0  0  0
   21.0450  -21.9203  -14.6027 C   0  0  1  0  0  0  0  0  0  0  0  0
   20.9981  -22.9644  -13.6811 O   0  0  0  0  0  0  0  0  0  0  0  0
   21.8601  -20.7899  -13.9890 C   0  0  2  0  0  0  0  0  0  0  0  0
   23.1697  -21.2515  -13.5828 N   0  0  0  0  0  0  0  0  0  0  0  0
   21.1086  -20.3406  -12.8086 C   0  0  0  0  0  0  0  0  0  0  0  0
   21.5507  -20.4814  -11.6305 O   0  0  0  0  0  0  0  0  0  0  0  0
   19.8750  -19.7396  -12.9611 O   0  0  0  0  0  0  0  0  0  0  0  0
  2  1  1  6
  3  2  1  0
  4  5  2  0
  4  2  1  0
  6  4  1  0
  7  6  1  0
  7  8  1  1
  8  9  1  0
  9 14  2  0
 10 11  2  0
 10  9  1  0
 11 12  1  0
 12 13  2  0
 14 13  1  0
 15  7  1  0
 16 15  2  0
 18 17  1  6
 18 20  1  0
 19 18  1  0
 20 22  1  0
 20 21  1  1
 21 15  1  0
 22 24  1  0
 23 22  2  0
M  END
$$$$
