AFT.pdb
     RDKit          3D

 24 24  0  0  1  0  0  0  0  0999 V2000
   29.2636  -20.0069  -13.6626 C   0  0  0  0  0  0  0  0  0  0  0  0
   29.9528  -21.1326  -12.9188 C   0  0  2  0  0  0  0  0  0  0  0  0
   29.9972  -22.3447  -13.6864 N   0  0  0  0  0  0  0  0  0  0  0  0
   29.2107  -21.3839  -11.6631 C   0  0  0  0  0  0  0  0  0  0  0  0
   28.3521  -22.3011  -11.6564 O   0  0  0  0  0  0  0  0  0  0  0  0
   29.4527  -20.6204  -10.4994 N   0  0  0  0  0  0  0  0  0  0  0  0
   28.6769  -20.9135   -9.2630 C   0  0  1  0  0  0  0  0  0  0  0  0
   29.4818  -20.2527   -8.1774 C   0  0  0  0  0  0  0  0  0  0  0  0
   28.8396  -20.0723   -6.8922 C   0  0  0  0  0  0  0  0  0  0  0  0
   28.2198  -18.9161   -6.5163 C   0  0  0  0  0  0  0  0  0  0  0  0
   27.6289  -18.8234   -5.2564 C   0  0  0  0  0  0  0  0  0  0  0  0
   27.6526  -19.8701   -4.3761 C   0  0  0  0  0  0  0  0  0  0  0  0
   28.2743  -21.0354   -4.7488 C   0  0  0  0  0  0  0  0  0  0  0  0
   28.8600  -21.1315   -5.9936 C   0  0  0  0  0  0  0  0  0  0  0  0
   27.3484  -20.3291   -9.4645 C   0  0  0  0  0  0  0  0  0  0  0  0
   27.2965  -19.1068   -9.8343 O   0  0  0  0  0  0  0  0  0  0  0  0
   24.6036  -22.1655  -11.4954 C   0  0  0  0  0  0  0  0  0  0  0  0
   24.6541  -20.6944  -11.2618 C   0  0  1  0  0  0  0  0  0  0  0  0
   23.4699  -20.0789  -11.6624 O   0  0  0  0  0  0  0  0  0  0  0  0
   24.9003  -20.3323   -9.8033 C   0  0  2  0  0  0  0  0  0  0  0  0
   26.0940  -20.9763   -9.2999 N   0  0  0  0  0  0  0  0  0  0  0  0
   23.7287  -20.8173   -9.0603 C   0  0  0  0  0  0  0  0  0  0  0  0
   23.8286  -21.6271   -8.0922 O   0  0  0  0  0  0  0  0  0  0  0  0
   22.4629  -20.3898   -9.4084 O   0  0  0  0  0  0  0  0  0  0  0  0
  2  1  1  6
  3  2  1  0
  4  5  2  0
  4  2  1  0
  6  4  1  0
  7  6  1  0
  7  8  1  1
  8  9  1  0
  9 14  2  0
 10 11  2  0
 10  9  1  0
 11 12  1  0
 12 13  2  0
 14 13  1  0
 15  7  1  0
 16 15  2  0
 18 17  1  1
 18 20  1  0
 19 18  1  0
 20 22  1  0
 20 21  1  1
 21 15  1  0
 22 24  1  0
 23 22  2  0
M  END
$$$$
