AFT.pdb
     RDKit          3D

 24 24  0  0  1  0  0  0  0  0999 V2000
   17.8352   -9.7467  -17.6819 C   0  0  0  0  0  0  0  0  0  0  0  0
   19.2372  -10.3127  -17.7783 C   0  0  2  0  0  0  0  0  0  0  0  0
   19.2431  -11.7476  -17.8175 N   0  0  0  0  0  0  0  0  0  0  0  0
   20.0045   -9.8595  -16.5966 C   0  0  0  0  0  0  0  0  0  0  0  0
   19.5899  -10.1924  -15.4583 O   0  0  0  0  0  0  0  0  0  0  0  0
   21.1713   -9.0747  -16.7328 N   0  0  0  0  0  0  0  0  0  0  0  0
   21.9170   -8.6623  -15.5121 C   0  0  1  0  0  0  0  0  0  0  0  0
   23.3048   -9.1908  -15.7519 C   0  0  0  0  0  0  0  0  0  0  0  0
   23.5052  -10.6175  -15.6071 C   0  0  0  0  0  0  0  0  0  0  0  0
   23.5486  -11.2527  -14.4000 C   0  0  0  0  0  0  0  0  0  0  0  0
   23.7508  -12.6316  -14.3483 C   0  0  0  0  0  0  0  0  0  0  0  0
   23.9086  -13.3749  -15.4857 C   0  0  0  0  0  0  0  0  0  0  0  0
   23.8658  -12.7416  -16.7024 C   0  0  0  0  0  0  0  0  0  0  0  0
   23.6661  -11.3781  -16.7583 C   0  0  0  0  0  0  0  0  0  0  0  0
   21.8338   -7.2004  -15.4553 C   0  0  0  0  0  0  0  0  0  0  0  0
   22.1949   -6.5526  -16.4962 O   0  0  0  0  0  0  0  0  0  0  0  0
   18.9783   -4.7686  -15.4382 C   0  0  0  0  0  0  0  0  0  0  0  0
   19.8881   -4.4718  -14.2956 C   0  0  1  0  0  0  0  0  0  0  0  0
   19.4152   -5.0385  -13.1137 O   0  0  0  0  0  0  0  0  0  0  0  0
   21.3081   -4.9738  -14.5205 C   0  0  2  0  0  0  0  0  0  0  0  0
   21.3852   -6.4098  -14.3629 N   0  0  0  0  0  0  0  0  0  0  0  0
   22.1373   -4.3210  -13.4977 C   0  0  0  0  0  0  0  0  0  0  0  0
   22.6427   -4.9588  -12.5276 O   0  0  0  0  0  0  0  0  0  0  0  0
   22.3911   -2.9661  -13.5737 O   0  0  0  0  0  0  0  0  0  0  0  0
  2  1  1  1
  3  2  1  0
  4  5  2  0
  4  2  1  0
  6  4  1  0
  7  6  1  0
  7  8  1  6
  8  9  1  0
  9 14  2  0
 10 11  2  0
 10  9  1  0
 11 12  1  0
 12 13  2  0
 14 13  1  0
 15  7  1  0
 16 15  2  0
 18 17  1  6
 18 20  1  0
 19 18  1  0
 20 22  1  0
 20 21  1  1
 21 15  1  0
 22 24  1  0
 23 22  2  0
M  END
$$$$
