AFT.pdb
     RDKit          3D

 24 24  0  0  1  0  0  0  0  0999 V2000
   11.9066  -19.4750    4.3826 C   0  0  0  0  0  0  0  0  0  0  0  0
   12.3233  -18.7302    3.1307 C   0  0  2  0  0  0  0  0  0  0  0  0
   12.2989  -19.5683    1.9657 N   0  0  0  0  0  0  0  0  0  0  0  0
   13.6983  -18.2196    3.3287 C   0  0  0  0  0  0  0  0  0  0  0  0
   14.6511  -18.8832    2.8487 O   0  0  0  0  0  0  0  0  0  0  0  0
   13.9442  -17.0214    4.0356 N   0  0  0  0  0  0  0  0  0  0  0  0
   15.3477  -16.5594    4.2177 C   0  0  1  0  0  0  0  0  0  0  0  0
   15.3045  -15.1209    3.7798 C   0  0  0  0  0  0  0  0  0  0  0  0
   16.5272  -14.3545    3.8991 C   0  0  0  0  0  0  0  0  0  0  0  0
   16.6761  -13.3038    4.7572 C   0  0  0  0  0  0  0  0  0  0  0  0
   17.8876  -12.6146    4.8067 C   0  0  0  0  0  0  0  0  0  0  0  0
   18.9434  -12.9652    4.0109 C   0  0  0  0  0  0  0  0  0  0  0  0
   18.7995  -14.0211    3.1461 C   0  0  0  0  0  0  0  0  0  0  0  0
   17.6033  -14.7055    3.0938 C   0  0  0  0  0  0  0  0  0  0  0  0
   15.6593  -16.7448    5.6375 C   0  0  0  0  0  0  0  0  0  0  0  0
   14.7816  -16.3626    6.4842 O   0  0  0  0  0  0  0  0  0  0  0  0
   16.3820  -19.7656    8.1661 C   0  0  0  0  0  0  0  0  0  0  0  0
   17.4749  -18.7575    8.0632 C   0  0  1  0  0  0  0  0  0  0  0  0
   18.4551  -19.1663    7.1611 O   0  0  0  0  0  0  0  0  0  0  0  0
   16.9789  -17.3856    7.6264 C   0  0  2  0  0  0  0  0  0  0  0  0
   16.8388  -17.3148    6.1882 N   0  0  0  0  0  0  0  0  0  0  0  0
   17.9983  -16.4243    8.0697 C   0  0  0  0  0  0  0  0  0  0  0  0
   18.7618  -15.8241    7.2572 O   0  0  0  0  0  0  0  0  0  0  0  0
   18.1494  -16.1461    9.4136 O   0  0  0  0  0  0  0  0  0  0  0  0
  2  1  1  1
  3  2  1  0
  4  5  2  0
  4  2  1  0
  6  4  1  0
  7  6  1  0
  7  8  1  1
  8  9  1  0
  9 14  2  0
 10 11  2  0
 10  9  1  0
 11 12  1  0
 12 13  2  0
 14 13  1  0
 15  7  1  0
 16 15  2  0
 18 17  1  6
 18 20  1  0
 19 18  1  0
 20 22  1  0
 20 21  1  6
 21 15  1  0
 22 24  1  0
 23 22  2  0
M  END
$$$$
