AFT.pdb
     RDKit          3D

 24 24  0  0  1  0  0  0  0  0999 V2000
   26.6607  -20.3138  -17.8327 C   0  0  0  0  0  0  0  0  0  0  0  0
   27.5834  -20.9685  -16.8250 C   0  0  2  0  0  0  0  0  0  0  0  0
   28.2483  -22.1206  -17.3645 N   0  0  0  0  0  0  0  0  0  0  0  0
   26.7767  -21.3814  -15.6547 C   0  0  0  0  0  0  0  0  0  0  0  0
   26.4901  -22.5986  -15.5330 O   0  0  0  0  0  0  0  0  0  0  0  0
   26.3363  -20.4423  -14.6956 N   0  0  0  0  0  0  0  0  0  0  0  0
   25.5933  -20.9204  -13.4974 C   0  0  1  0  0  0  0  0  0  0  0  0
   26.2216  -20.1551  -12.3650 C   0  0  0  0  0  0  0  0  0  0  0  0
   25.6533  -20.3372  -11.0457 C   0  0  0  0  0  0  0  0  0  0  0  0
   24.4749  -19.7742  -10.6496 C   0  0  0  0  0  0  0  0  0  0  0  0
   23.9995  -19.9964   -9.3574 C   0  0  0  0  0  0  0  0  0  0  0  0
   24.6879  -20.7715   -8.4650 C   0  0  0  0  0  0  0  0  0  0  0  0
   25.8734  -21.3403   -8.8578 C   0  0  0  0  0  0  0  0  0  0  0  0
   26.3474  -21.1233  -10.1346 C   0  0  0  0  0  0  0  0  0  0  0  0
   24.1841  -20.5946  -13.7320 C   0  0  0  0  0  0  0  0  0  0  0  0
   23.9305  -19.5114  -14.3612 O   0  0  0  0  0  0  0  0  0  0  0  0
   22.0849  -21.2986  -16.1538 C   0  0  0  0  0  0  0  0  0  0  0  0
   21.2304  -21.5763  -14.9646 C   0  0  1  0  0  0  0  0  0  0  0  0
   21.1513  -22.9437  -14.7086 O   0  0  0  0  0  0  0  0  0  0  0  0
   21.7307  -20.8910  -13.7001 C   0  0  2  0  0  0  0  0  0  0  0  0
   23.0516  -21.3588  -13.3406 N   0  0  0  0  0  0  0  0  0  0  0  0
   20.7770  -21.2467  -12.6400 C   0  0  0  0  0  0  0  0  0  0  0  0
   19.5849  -20.8202  -12.6307 O   0  0  0  0  0  0  0  0  0  0  0  0
   21.1680  -22.0745  -11.6066 O   0  0  0  0  0  0  0  0  0  0  0  0
  2  1  1  6
  3  2  1  0
  4  5  2  0
  4  2  1  0
  6  4  1  0
  7  6  1  0
  7  8  1  1
  8  9  1  0
  9 14  2  0
 10 11  2  0
 10  9  1  0
 11 12  1  0
 12 13  2  0
 14 13  1  0
 15  7  1  0
 16 15  2  0
 18 17  1  6
 18 20  1  0
 19 18  1  0
 20 22  1  0
 20 21  1  1
 21 15  1  0
 22 24  1  0
 23 22  2  0
M  END
$$$$
