AFT.pdb
     RDKit          3D

 24 24  0  0  1  0  0  0  0  0999 V2000
   12.3835  -19.7617    4.0298 C   0  0  0  0  0  0  0  0  0  0  0  0
   12.9971  -19.1898    2.7682 C   0  0  2  0  0  0  0  0  0  0  0  0
   13.1677  -20.1842    1.7471 N   0  0  0  0  0  0  0  0  0  0  0  0
   14.3190  -18.6188    3.1107 C   0  0  0  0  0  0  0  0  0  0  0  0
   15.3291  -19.3581    3.0029 O   0  0  0  0  0  0  0  0  0  0  0  0
   14.4529  -17.2820    3.5475 N   0  0  0  0  0  0  0  0  0  0  0  0
   15.8099  -16.7460    3.8434 C   0  0  1  0  0  0  0  0  0  0  0  0
   15.7501  -15.3332    3.3304 C   0  0  0  0  0  0  0  0  0  0  0  0
   16.9183  -14.5029    3.5362 C   0  0  0  0  0  0  0  0  0  0  0  0
   18.0835  -14.6580    2.8428 C   0  0  0  0  0  0  0  0  0  0  0  0
   19.1648  -13.8176    3.1061 C   0  0  0  0  0  0  0  0  0  0  0  0
   19.0908  -12.8305    4.0502 C   0  0  0  0  0  0  0  0  0  0  0  0
   17.9216  -12.6698    4.7506 C   0  0  0  0  0  0  0  0  0  0  0  0
   16.8497  -13.4987    4.4936 C   0  0  0  0  0  0  0  0  0  0  0  0
   15.9842  -16.8500    5.2946 C   0  0  0  0  0  0  0  0  0  0  0  0
   14.9973  -16.5036    6.0291 O   0  0  0  0  0  0  0  0  0  0  0  0
   16.2407  -19.6530    7.9020 C   0  0  0  0  0  0  0  0  0  0  0  0
   17.4224  -18.7460    7.9485 C   0  0  1  0  0  0  0  0  0  0  0  0
   18.4804  -19.2569    7.1992 O   0  0  0  0  0  0  0  0  0  0  0  0
   17.1174  -17.3455    7.4343 C   0  0  2  0  0  0  0  0  0  0  0  0
   17.1383  -17.3043    5.9883 N   0  0  0  0  0  0  0  0  0  0  0  0
   18.1765  -16.4768    7.9669 C   0  0  0  0  0  0  0  0  0  0  0  0
   18.2391  -16.1579    9.1907 O   0  0  0  0  0  0  0  0  0  0  0  0
   19.1508  -15.9780    7.1255 O   0  0  0  0  0  0  0  0  0  0  0  0
  2  1  1  1
  3  2  1  0
  4  5  2  0
  4  2  1  0
  6  4  1  0
  7  6  1  0
  7  8  1  1
  8  9  1  0
  9 14  2  0
 10 11  2  0
 10  9  1  0
 11 12  1  0
 12 13  2  0
 14 13  1  0
 15  7  1  0
 16 15  2  0
 18 17  1  6
 18 20  1  0
 19 18  1  0
 20 22  1  0
 20 21  1  6
 21 15  1  0
 22 24  1  0
 23 22  2  0
M  END
$$$$
