NPQ.pdb
     RDKit          3D

 25 25  0  0  1  0  0  0  0  0999 V2000
   23.0569  -13.8852  -20.6446 N   0  0  0  0  0  0  0  0  0  0  0  0
   22.9145  -12.4853  -20.8157 C   0  0  0  0  0  0  0  0  0  0  0  0
   23.3405  -11.9501  -21.8539 O   0  0  0  0  0  0  0  0  0  0  0  0
   22.2682  -11.6405  -19.7842 C   0  0  0  0  0  0  0  0  0  0  0  0
   21.7597  -12.4993  -18.6405 C   0  0  2  0  0  0  0  0  0  0  0  0
   20.5438  -13.1063  -19.0529 N   0  0  0  0  0  0  0  0  0  0  0  0
   21.6703  -11.7710  -17.3859 C   0  0  0  0  0  0  0  0  0  0  0  0
   20.5056  -11.3284  -17.0740 O   0  0  0  0  0  0  0  0  0  0  0  0
   22.7197  -11.5090  -16.4967 N   0  0  0  0  0  0  0  0  0  0  0  0
   24.1157  -11.8561  -16.4834 C   0  0  0  0  0  0  0  0  0  0  0  0
   24.2525  -12.4174  -15.0529 C   0  0  0  0  0  0  0  0  0  0  0  0
   23.5739  -11.3218  -14.2717 C   0  0  0  0  0  0  0  0  0  0  0  0
   22.5880  -10.7168  -15.2413 C   0  0  1  0  0  0  0  0  0  0  0  0
   23.0103   -9.3247  -15.5406 C   0  0  0  0  0  0  0  0  0  0  0  0
   23.6959   -9.0258  -16.5521 O   0  0  0  0  0  0  0  0  0  0  0  0
   20.6836   -5.3700  -19.1566 N   0  0  0  0  0  0  0  0  0  0  0  0
   21.4828   -5.4208  -17.9799 C   0  0  0  0  0  0  0  0  0  0  0  0
   22.7129   -5.2273  -18.0537 O   0  0  0  0  0  0  0  0  0  0  0  0
   20.8418   -5.7032  -16.6834 C   0  0  0  0  0  0  0  0  0  0  0  0
   21.2903   -7.0470  -16.1894 C   0  0  0  0  0  0  0  0  0  0  0  0
   22.3872   -6.9521  -15.1517 C   0  0  2  0  0  0  0  0  0  0  0  0
   22.6287   -8.2919  -14.6566 N   0  0  0  0  0  0  0  0  0  0  0  0
   22.0186   -6.0847  -14.0225 C   0  0  0  0  0  0  0  0  0  0  0  0
   21.3073   -6.5169  -13.1005 O   0  0  0  0  0  0  0  0  0  0  0  0
   22.4660   -4.7848  -13.9886 O   0  0  0  0  0  0  0  0  0  0  0  0
  1  2  1  0
  2  3  2  0
  4  2  1  0
  5  4  1  0
  5  6  1  6
  7  5  1  0
  7  8  2  0
  9  7  1  0
 10  9  1  0
 11 10  1  0
 11 12  1  0
 12 13  1  0
 13  9  1  0
 13 14  1  6
 15 14  2  0
 16 17  1  0
 17 19  1  0
 18 17  2  0
 19 20  1  0
 21 20  1  6
 21 22  1  0
 21 23  1  0
 22 14  1  0
 23 25  1  0
 24 23  2  0
M  END
$$$$
