NPQ.pdb
     RDKit          3D

 25 25  0  0  1  0  0  0  0  0999 V2000
   15.7013   -9.1730  -16.5376 N   0  0  0  0  0  0  0  0  0  0  0  0
   16.9412   -8.9355  -15.8931 C   0  0  0  0  0  0  0  0  0  0  0  0
   17.9999   -9.2040  -16.4870 O   0  0  0  0  0  0  0  0  0  0  0  0
   17.0074   -8.3729  -14.5240 C   0  0  0  0  0  0  0  0  0  0  0  0
   18.0440   -9.1128  -13.6982 C   0  0  2  0  0  0  0  0  0  0  0  0
   17.6054  -10.4544  -13.5408 N   0  0  0  0  0  0  0  0  0  0  0  0
   18.3591   -8.4354  -12.4515 C   0  0  0  0  0  0  0  0  0  0  0  0
   17.7134   -8.8346  -11.4155 O   0  0  0  0  0  0  0  0  0  0  0  0
   19.2873   -7.4020  -12.2750 N   0  0  0  0  0  0  0  0  0  0  0  0
   20.2380   -6.7659  -13.1472 C   0  0  0  0  0  0  0  0  0  0  0  0
   21.5076   -6.8280  -12.2728 C   0  0  0  0  0  0  0  0  0  0  0  0
   20.9606   -6.2980  -10.9724 C   0  0  0  0  0  0  0  0  0  0  0  0
   19.4953   -6.6594  -10.9997 C   0  0  1  0  0  0  0  0  0  0  0  0
   18.6992   -5.4078  -11.0721 C   0  0  0  0  0  0  0  0  0  0  0  0
   17.9467   -5.1370  -12.0432 O   0  0  0  0  0  0  0  0  0  0  0  0
   15.4718   -7.0860   -7.6954 N   0  0  0  0  0  0  0  0  0  0  0  0
   14.8255   -6.4311   -8.7812 C   0  0  0  0  0  0  0  0  0  0  0  0
   13.6888   -6.7969   -9.1416 O   0  0  0  0  0  0  0  0  0  0  0  0
   15.5128   -5.3233   -9.4684 C   0  0  0  0  0  0  0  0  0  0  0  0
   16.8208   -5.0503   -8.7859 C   0  0  0  0  0  0  0  0  0  0  0  0
   17.5887   -3.9151   -9.4267 C   0  0  2  0  0  0  0  0  0  0  0  0
   18.7876   -4.4815  -10.0101 N   0  0  0  0  0  0  0  0  0  0  0  0
   17.9732   -2.8788   -8.4562 C   0  0  0  0  0  0  0  0  0  0  0  0
   19.0115   -2.9969   -7.7850 O   0  0  0  0  0  0  0  0  0  0  0  0
   17.1756   -1.7708   -8.2920 O   0  0  0  0  0  0  0  0  0  0  0  0
  1  2  1  0
  2  3  2  0
  4  2  1  0
  5  4  1  0
  5  6  1  1
  7  5  1  0
  7  8  2  0
  9  7  1  0
 10  9  1  0
 11 10  1  0
 11 12  1  0
 12 13  1  0
 13  9  1  0
 13 14  1  6
 15 14  2  0
 16 17  1  0
 17 19  1  0
 18 17  2  0
 19 20  1  0
 21 20  1  1
 21 22  1  0
 21 23  1  0
 22 14  1  0
 23 25  1  0
 24 23  2  0
M  END
$$$$
