NPQ.pdb
     RDKit          3D

 25 25  0  0  1  0  0  0  0  0999 V2000
   27.9671  -24.7945  -17.6638 N   0  0  0  0  0  0  0  0  0  0  0  0
   26.8946  -25.1944  -16.8278 C   0  0  0  0  0  0  0  0  0  0  0  0
   26.5793  -26.3957  -16.7706 O   0  0  0  0  0  0  0  0  0  0  0  0
   26.1368  -24.2127  -16.0170 C   0  0  0  0  0  0  0  0  0  0  0  0
   26.6895  -22.8147  -16.2276 C   0  0  2  0  0  0  0  0  0  0  0  0
   28.0467  -22.8103  -15.8092 N   0  0  0  0  0  0  0  0  0  0  0  0
   25.8690  -21.7859  -15.6104 C   0  0  0  0  0  0  0  0  0  0  0  0
   26.1507  -21.4981  -14.3908 O   0  0  0  0  0  0  0  0  0  0  0  0
   24.8141  -21.0880  -16.2112 N   0  0  0  0  0  0  0  0  0  0  0  0
   24.1770  -21.1731  -17.4981 C   0  0  0  0  0  0  0  0  0  0  0  0
   24.1965  -19.6894  -17.9203 C   0  0  0  0  0  0  0  0  0  0  0  0
   23.6514  -19.0500  -16.6693 C   0  0  0  0  0  0  0  0  0  0  0  0
   24.0422  -19.9934  -15.5577 C   0  0  1  0  0  0  0  0  0  0  0  0
   22.8083  -20.5911  -14.9869 C   0  0  0  0  0  0  0  0  0  0  0  0
   22.2393  -21.5905  -15.4966 O   0  0  0  0  0  0  0  0  0  0  0  0
   20.6281  -21.5906   -8.1331 N   0  0  0  0  0  0  0  0  0  0  0  0
   21.1187  -20.8102   -9.2176 C   0  0  0  0  0  0  0  0  0  0  0  0
   21.8568  -19.8295   -8.9952 O   0  0  0  0  0  0  0  0  0  0  0  0
   20.7456  -21.1743  -10.5959 C   0  0  0  0  0  0  0  0  0  0  0  0
   21.6642  -20.4814  -11.5589 C   0  0  0  0  0  0  0  0  0  0  0  0
   21.3237  -20.7727  -13.0039 C   0  0  2  0  0  0  0  0  0  0  0  0
   22.2478  -20.0171  -13.8249 N   0  0  0  0  0  0  0  0  0  0  0  0
   19.9484  -20.3797  -13.3472 C   0  0  0  0  0  0  0  0  0  0  0  0
   19.7175  -19.2709  -13.8571 O   0  0  0  0  0  0  0  0  0  0  0  0
   18.9110  -21.2481  -13.1010 O   0  0  0  0  0  0  0  0  0  0  0  0
  1  2  1  0
  2  3  2  0
  4  2  1  0
  5  4  1  0
  5  6  1  1
  7  5  1  0
  7  8  2  0
  9  7  1  0
 10  9  1  0
 11 10  1  0
 11 12  1  0
 12 13  1  0
 13  9  1  0
 13 14  1  6
 15 14  2  0
 16 17  1  0
 17 19  1  0
 18 17  2  0
 19 20  1  0
 21 20  1  1
 21 22  1  0
 21 23  1  0
 22 14  1  0
 23 25  1  0
 24 23  2  0
M  END
$$$$
