NPQ.pdb
     RDKit          3D

 25 25  0  0  1  0  0  0  0  0999 V2000
   19.0811   -9.3514  -17.2447 N   0  0  0  0  0  0  0  0  0  0  0  0
   17.9527   -8.6139  -16.8066 C   0  0  0  0  0  0  0  0  0  0  0  0
   17.2171   -8.0663  -17.6462 O   0  0  0  0  0  0  0  0  0  0  0  0
   17.6266   -8.4788  -15.3677 C   0  0  0  0  0  0  0  0  0  0  0  0
   18.6695   -9.1855  -14.5209 C   0  0  2  0  0  0  0  0  0  0  0  0
   18.4922  -10.5854  -14.6821 N   0  0  0  0  0  0  0  0  0  0  0  0
   18.6704   -8.7371  -13.1383 C   0  0  0  0  0  0  0  0  0  0  0  0
   18.0685   -9.5004  -12.2989 O   0  0  0  0  0  0  0  0  0  0  0  0
   19.2573   -7.5670  -12.6411 N   0  0  0  0  0  0  0  0  0  0  0  0
   20.0289   -6.5134  -13.2443 C   0  0  0  0  0  0  0  0  0  0  0  0
   21.2202   -6.4421  -12.2666 C   0  0  0  0  0  0  0  0  0  0  0  0
   20.4835   -6.4005  -10.9527 C   0  0  0  0  0  0  0  0  0  0  0  0
   19.1843   -7.1205  -11.2212 C   0  0  1  0  0  0  0  0  0  0  0  0
   18.0698   -6.1449  -11.1124 C   0  0  0  0  0  0  0  0  0  0  0  0
   17.4281   -5.7328  -12.1128 O   0  0  0  0  0  0  0  0  0  0  0  0
   12.3505   -7.9528   -9.8102 N   0  0  0  0  0  0  0  0  0  0  0  0
   13.6347   -8.0894   -9.2119 C   0  0  0  0  0  0  0  0  0  0  0  0
   14.1435   -9.2208   -9.0806 O   0  0  0  0  0  0  0  0  0  0  0  0
   14.3493   -6.8850   -8.7532 C   0  0  0  0  0  0  0  0  0  0  0  0
   15.7459   -6.8968   -9.3015 C   0  0  0  0  0  0  0  0  0  0  0  0
   16.3195   -5.5070   -9.4698 C   0  0  2  0  0  0  0  0  0  0  0  0
   17.7130   -5.6576   -9.8361 N   0  0  0  0  0  0  0  0  0  0  0  0
   16.2332   -4.7105   -8.2362 C   0  0  0  0  0  0  0  0  0  0  0  0
   17.0546   -4.8759   -7.3194 O   0  0  0  0  0  0  0  0  0  0  0  0
   15.2343   -3.7754   -8.0984 O   0  0  0  0  0  0  0  0  0  0  0  0
  1  2  1  0
  2  3  2  0
  4  2  1  0
  5  4  1  0
  5  6  1  1
  7  5  1  0
  7  8  2  0
  9  7  1  0
 10  9  1  0
 11 10  1  0
 11 12  1  0
 12 13  1  0
 13  9  1  0
 13 14  1  6
 15 14  2  0
 16 17  1  0
 17 19  1  0
 18 17  2  0
 19 20  1  0
 21 20  1  1
 21 22  1  0
 21 23  1  0
 22 14  1  0
 23 25  1  0
 24 23  2  0
M  END
$$$$
