NPQ.pdb
     RDKit          3D

 25 25  0  0  1  0  0  0  0  0999 V2000
   29.7059  -23.2996  -20.1397 N   0  0  0  0  0  0  0  0  0  0  0  0
   28.3007  -23.3089  -19.9540 C   0  0  0  0  0  0  0  0  0  0  0  0
   27.5600  -23.5988  -20.9096 O   0  0  0  0  0  0  0  0  0  0  0  0
   27.6901  -22.9805  -18.6446 C   0  0  0  0  0  0  0  0  0  0  0  0
   28.7680  -22.6696  -17.6221 C   0  0  2  0  0  0  0  0  0  0  0  0
   29.4537  -23.8772  -17.3244 N   0  0  0  0  0  0  0  0  0  0  0  0
   28.2535  -21.9699  -16.4566 C   0  0  0  0  0  0  0  0  0  0  0  0
   28.3428  -22.5967  -15.3392 O   0  0  0  0  0  0  0  0  0  0  0  0
   27.6770  -20.6939  -16.4367 N   0  0  0  0  0  0  0  0  0  0  0  0
   27.3386  -19.7446  -17.4632 C   0  0  0  0  0  0  0  0  0  0  0  0
   27.9855  -18.4670  -16.8891 C   0  0  0  0  0  0  0  0  0  0  0  0
   27.4607  -18.5150  -15.4773 C   0  0  0  0  0  0  0  0  0  0  0  0
   27.2379  -19.9824  -15.2030 C   0  0  1  0  0  0  0  0  0  0  0  0
   25.7806  -20.2189  -15.0412 C   0  0  0  0  0  0  0  0  0  0  0  0
   25.0229  -20.4781  -16.0114 O   0  0  0  0  0  0  0  0  0  0  0  0
   23.4764  -21.5819   -9.4712 N   0  0  0  0  0  0  0  0  0  0  0  0
   24.1386  -20.3513   -9.7415 C   0  0  0  0  0  0  0  0  0  0  0  0
   24.5721  -19.6574   -8.8000 O   0  0  0  0  0  0  0  0  0  0  0  0
   24.3035  -19.9119  -11.1384 C   0  0  0  0  0  0  0  0  0  0  0  0
   23.7398  -20.9554  -12.0575 C   0  0  0  0  0  0  0  0  0  0  0  0
   23.8518  -20.5713  -13.5165 C   0  0  2  0  0  0  0  0  0  0  0  0
   25.2188  -20.1510  -13.7475 N   0  0  0  0  0  0  0  0  0  0  0  0
   22.9459  -19.4706  -13.8788 C   0  0  0  0  0  0  0  0  0  0  0  0
   23.3906  -18.3298  -14.0871 O   0  0  0  0  0  0  0  0  0  0  0  0
   21.5958  -19.7082  -13.9875 O   0  0  0  0  0  0  0  0  0  0  0  0
  1  2  1  0
  2  3  2  0
  4  2  1  0
  5  4  1  0
  5  6  1  1
  7  5  1  0
  7  8  2  0
  9  7  1  0
 10  9  1  0
 11 10  1  0
 11 12  1  0
 12 13  1  0
 13  9  1  0
 13 14  1  6
 15 14  2  0
 16 17  1  0
 17 19  1  0
 18 17  2  0
 19 20  1  0
 21 20  1  1
 21 22  1  0
 21 23  1  0
 22 14  1  0
 23 25  1  0
 24 23  2  0
M  END
$$$$
