NPQ.pdb
     RDKit          3D

 25 25  0  0  1  0  0  0  0  0999 V2000
   17.9254  -10.4360  -17.1508 N   0  0  0  0  0  0  0  0  0  0  0  0
   16.9553  -10.7185  -16.1567 C   0  0  0  0  0  0  0  0  0  0  0  0
   16.0917  -11.5859  -16.3746 O   0  0  0  0  0  0  0  0  0  0  0  0
   16.9447  -10.0031  -14.8592 C   0  0  0  0  0  0  0  0  0  0  0  0
   18.1178  -10.4445  -14.0029 C   0  0  2  0  0  0  0  0  0  0  0  0
   18.0186  -11.8481  -13.8105 N   0  0  0  0  0  0  0  0  0  0  0  0
   18.2374   -9.6783  -12.7736 C   0  0  0  0  0  0  0  0  0  0  0  0
   17.7084  -10.2051  -11.7285 O   0  0  0  0  0  0  0  0  0  0  0  0
   18.8661   -8.4362  -12.6225 N   0  0  0  0  0  0  0  0  0  0  0  0
   19.4719   -7.5147  -13.5462 C   0  0  0  0  0  0  0  0  0  0  0  0
   20.8235   -7.2626  -12.8464 C   0  0  0  0  0  0  0  0  0  0  0  0
   20.3479   -6.9752  -11.4457 C   0  0  0  0  0  0  0  0  0  0  0  0
   19.0476   -7.7318  -11.3218 C   0  0  1  0  0  0  0  0  0  0  0  0
   17.9402   -6.7521  -11.1817 C   0  0  0  0  0  0  0  0  0  0  0  0
   17.3630   -6.2336  -12.1719 O   0  0  0  0  0  0  0  0  0  0  0  0
   14.0246   -8.6102   -8.2546 N   0  0  0  0  0  0  0  0  0  0  0  0
   13.4749   -7.3482   -7.8930 C   0  0  0  0  0  0  0  0  0  0  0  0
   12.2777   -7.2647   -7.5528 O   0  0  0  0  0  0  0  0  0  0  0  0
   14.3332   -6.1508   -7.9258 C   0  0  0  0  0  0  0  0  0  0  0  0
   15.7263   -6.5484   -8.3161 C   0  0  0  0  0  0  0  0  0  0  0  0
   16.1461   -5.9731   -9.6509 C   0  0  2  0  0  0  0  0  0  0  0  0
   17.5149   -6.3853   -9.8862 N   0  0  0  0  0  0  0  0  0  0  0  0
   16.0786   -4.5040   -9.6756 C   0  0  0  0  0  0  0  0  0  0  0  0
   14.9911   -3.9247   -9.8313 O   0  0  0  0  0  0  0  0  0  0  0  0
   17.2300   -3.7673   -9.5250 O   0  0  0  0  0  0  0  0  0  0  0  0
  1  2  1  0
  2  3  2  0
  4  2  1  0
  5  4  1  0
  5  6  1  1
  7  5  1  0
  7  8  2  0
  9  7  1  0
 10  9  1  0
 11 10  1  0
 11 12  1  0
 12 13  1  0
 13  9  1  0
 13 14  1  6
 15 14  2  0
 16 17  1  0
 17 19  1  0
 18 17  2  0
 19 20  1  0
 21 20  1  1
 21 22  1  0
 21 23  1  0
 22 14  1  0
 23 25  1  0
 24 23  2  0
M  END
$$$$
