NPQ.pdb
     RDKit          3D

 25 25  0  0  1  0  0  0  0  0999 V2000
   26.1347  -16.9103  -16.7683 N   0  0  0  0  0  0  0  0  0  0  0  0
   24.9313  -16.2137  -17.0442 C   0  0  0  0  0  0  0  0  0  0  0  0
   24.0149  -16.7940  -17.6518 O   0  0  0  0  0  0  0  0  0  0  0  0
   24.7375  -14.8060  -16.6248 C   0  0  0  0  0  0  0  0  0  0  0  0
   25.9715  -14.2949  -15.9034 C   0  0  2  0  0  0  0  0  0  0  0  0
   26.2473  -15.1766  -14.8247 N   0  0  0  0  0  0  0  0  0  0  0  0
   25.8618  -12.8969  -15.5213 C   0  0  0  0  0  0  0  0  0  0  0  0
   25.4205  -12.6703  -14.3367 O   0  0  0  0  0  0  0  0  0  0  0  0
   26.1871  -11.7879  -16.3120 N   0  0  0  0  0  0  0  0  0  0  0  0
   26.7422  -11.6415  -17.6311 C   0  0  0  0  0  0  0  0  0  0  0  0
   27.8715  -10.6286  -17.3503 C   0  0  0  0  0  0  0  0  0  0  0  0
   27.1117   -9.5969  -16.5569 C   0  0  0  0  0  0  0  0  0  0  0  0
   25.9925  -10.3687  -15.9011 C   0  0  1  0  0  0  0  0  0  0  0  0
   24.7008   -9.9078  -16.4711 C   0  0  0  0  0  0  0  0  0  0  0  0
   24.2203  -10.3802  -17.5334 O   0  0  0  0  0  0  0  0  0  0  0  0
   20.4265  -12.1244  -15.2451 N   0  0  0  0  0  0  0  0  0  0  0  0
   19.6475  -10.9705  -15.5411 C   0  0  0  0  0  0  0  0  0  0  0  0
   18.4026  -11.0475  -15.5594 O   0  0  0  0  0  0  0  0  0  0  0  0
   20.3269   -9.6937  -15.8234 C   0  0  0  0  0  0  0  0  0  0  0  0
   21.8120   -9.8929  -15.7448 C   0  0  0  0  0  0  0  0  0  0  0  0
   22.5891   -8.6493  -16.1167 C   0  0  2  0  0  0  0  0  0  0  0  0
   23.9798   -8.8985  -15.7964 N   0  0  0  0  0  0  0  0  0  0  0  0
   22.1344   -7.4610  -15.3786 C   0  0  0  0  0  0  0  0  0  0  0  0
   21.0834   -6.8823  -15.6998 O   0  0  0  0  0  0  0  0  0  0  0  0
   22.8801   -6.9882  -14.3244 O   0  0  0  0  0  0  0  0  0  0  0  0
  1  2  1  0
  2  3  2  0
  4  2  1  0
  5  4  1  0
  5  6  1  1
  7  5  1  0
  7  8  2  0
  9  7  1  0
 10  9  1  0
 11 10  1  0
 11 12  1  0
 12 13  1  0
 13  9  1  0
 13 14  1  6
 15 14  2  0
 16 17  1  0
 17 19  1  0
 18 17  2  0
 19 20  1  0
 21 20  1  1
 21 22  1  0
 21 23  1  0
 22 14  1  0
 23 25  1  0
 24 23  2  0
M  END
$$$$
