DEE.pdb
     RDKit          3D

 27 26  0  0  1  0  0  0  0  0999 V2000
   19.2684  -11.1882  -16.4692 N   0  0  0  0  0  0  0  0  0  0  0  0
   17.9698  -10.6573  -16.1504 C   0  0  1  0  0  0  0  0  0  0  0  0
   17.3795  -11.4870  -15.0275 C   0  0  0  0  0  0  0  0  0  0  0  0
   17.1625  -12.8859  -15.4627 C   0  0  0  0  0  0  0  0  0  0  0  0
   16.1672  -13.1713  -16.1468 O   0  0  0  0  0  0  0  0  0  0  0  0
   18.0793   -9.2590  -15.6740 C   0  0  0  0  0  0  0  0  0  0  0  0
   17.0390   -8.6701  -15.2790 O   0  0  0  0  0  0  0  0  0  0  0  0
   18.0739  -13.8553  -15.0993 O   0  0  0  0  0  0  0  0  0  0  0  0
   19.3362   -8.6488  -15.6825 N   0  0  0  0  0  0  0  0  0  0  0  0
   19.4605   -7.2485  -15.2640 C   0  0  1  0  0  0  0  0  0  0  0  0
   20.6970   -7.0879  -14.4308 C   0  0  0  0  0  0  0  0  0  0  0  0
   20.9736   -5.6920  -13.9652 C   0  0  0  0  0  0  0  0  0  0  0  0
   22.1801   -5.5595  -13.1217 C   0  0  0  0  0  0  0  0  0  0  0  0
   23.0975   -4.7339  -13.2689 O   0  0  0  0  0  0  0  0  0  0  0  0
   19.4257   -6.3537  -16.4555 C   0  0  0  0  0  0  0  0  0  0  0  0
   20.1067   -6.6832  -17.4567 O   0  0  0  0  0  0  0  0  0  0  0  0
   22.3227   -6.4453  -12.0414 O   0  0  0  0  0  0  0  0  0  0  0  0
   18.6655   -5.1652  -16.4989 N   0  0  0  0  0  0  0  0  0  0  0  0
   18.7360   -4.3229  -17.7039 C   0  0  1  0  0  0  0  0  0  0  0  0
   17.3967   -3.7327  -18.0016 C   0  0  0  0  0  0  0  0  0  0  0  0
   17.4729   -2.9210  -19.2644 C   0  0  0  0  0  0  0  0  0  0  0  0
   16.1828   -2.2609  -19.5819 C   0  0  0  0  0  0  0  0  0  0  0  0
   16.1682   -1.1202  -20.0643 O   0  0  0  0  0  0  0  0  0  0  0  0
   19.8120   -3.3418  -17.5188 C   0  0  0  0  0  0  0  0  0  0  0  0
   19.8808   -2.7068  -16.4244 O   0  0  0  0  0  0  0  0  0  0  0  0
   15.0157   -2.9326  -19.3330 O   0  0  0  0  0  0  0  0  0  0  0  0
   20.7624   -3.0660  -18.4637 O   0  0  0  0  0  0  0  0  0  0  0  0
  2  6  1  0
  2  1  1  1
  3  2  1  0
  4  3  1  0
  5  4  2  0
  6  7  2  0
  8  4  1  0
  9  6  1  0
 10  9  1  0
 10 11  1  6
 11 12  1  0
 13 17  1  0
 13 12  1  0
 14 13  2  0
 15 10  1  0
 16 15  2  0
 18 15  1  0
 19 20  1  1
 19 18  1  0
 20 21  1  0
 21 22  1  0
 22 26  1  0
 23 22  2  0
 24 19  1  0
 25 24  2  0
 27 24  1  0
M  END
$$$$
