DEE.pdb
     RDKit          3D

 27 26  0  0  1  0  0  0  0  0999 V2000
   17.6592  -11.7225  -16.1544 N   0  0  0  0  0  0  0  0  0  0  0  0
   18.0910  -10.4470  -16.6610 C   0  0  1  0  0  0  0  0  0  0  0  0
   17.0421   -9.4132  -16.3025 C   0  0  0  0  0  0  0  0  0  0  0  0
   15.7486   -9.7263  -16.9522 C   0  0  0  0  0  0  0  0  0  0  0  0
   14.7469   -9.9506  -16.2550 O   0  0  0  0  0  0  0  0  0  0  0  0
   19.3671  -10.0386  -16.0292 C   0  0  0  0  0  0  0  0  0  0  0  0
   19.4152   -9.9297  -14.7758 O   0  0  0  0  0  0  0  0  0  0  0  0
   15.6762   -9.7642  -18.3291 O   0  0  0  0  0  0  0  0  0  0  0  0
   20.4686   -9.7903  -16.8523 N   0  0  0  0  0  0  0  0  0  0  0  0
   21.7262   -9.3302  -16.2540 C   0  0  1  0  0  0  0  0  0  0  0  0
   22.8795   -9.8968  -17.0271 C   0  0  0  0  0  0  0  0  0  0  0  0
   23.0980  -11.3683  -16.8570 C   0  0  0  0  0  0  0  0  0  0  0  0
   24.0825  -11.9498  -17.7936 C   0  0  0  0  0  0  0  0  0  0  0  0
   24.3193  -13.1586  -17.9601 O   0  0  0  0  0  0  0  0  0  0  0  0
   21.7391   -7.8420  -16.1719 C   0  0  0  0  0  0  0  0  0  0  0  0
   21.4601   -7.1947  -17.2101 O   0  0  0  0  0  0  0  0  0  0  0  0
   24.8352  -11.0653  -18.5829 O   0  0  0  0  0  0  0  0  0  0  0  0
   22.0495   -7.1431  -14.9855 N   0  0  0  0  0  0  0  0  0  0  0  0
   21.8410   -5.6866  -14.9463 C   0  0  1  0  0  0  0  0  0  0  0  0
   20.4273   -5.3566  -15.2975 C   0  0  0  0  0  0  0  0  0  0  0  0
   20.1759   -3.8945  -15.0560 C   0  0  0  0  0  0  0  0  0  0  0  0
   18.7728   -3.5137  -15.3512 C   0  0  0  0  0  0  0  0  0  0  0  0
   17.8439   -3.9917  -14.6859 O   0  0  0  0  0  0  0  0  0  0  0  0
   22.2793   -5.1927  -13.6353 C   0  0  0  0  0  0  0  0  0  0  0  0
   22.4071   -3.9439  -13.4623 O   0  0  0  0  0  0  0  0  0  0  0  0
   18.5258   -2.6290  -16.3669 O   0  0  0  0  0  0  0  0  0  0  0  0
   22.5602   -6.0045  -12.5704 O   0  0  0  0  0  0  0  0  0  0  0  0
  2  6  1  0
  2  1  1  1
  3  2  1  0
  4  3  1  0
  5  4  2  0
  6  7  2  0
  8  4  1  0
  9  6  1  0
 10  9  1  0
 10 11  1  6
 11 12  1  0
 13 17  1  0
 13 12  1  0
 14 13  2  0
 15 10  1  0
 16 15  2  0
 18 15  1  0
 19 20  1  1
 19 18  1  0
 20 21  1  0
 21 22  1  0
 22 26  1  0
 23 22  2  0
 24 19  1  0
 25 24  2  0
 27 24  1  0
M  END
$$$$
