DEE.pdb
     RDKit          3D

 27 26  0  0  1  0  0  0  0  0999 V2000
   18.9057  -12.6423  -16.9632 N   0  0  0  0  0  0  0  0  0  0  0  0
   19.1932  -11.3585  -17.5456 C   0  0  1  0  0  0  0  0  0  0  0  0
   17.8834  -10.6215  -17.7422 C   0  0  0  0  0  0  0  0  0  0  0  0
   17.0461  -11.2956  -18.7610 C   0  0  0  0  0  0  0  0  0  0  0  0
   17.5635  -11.7025  -19.8130 O   0  0  0  0  0  0  0  0  0  0  0  0
   20.0384  -10.5499  -16.6368 C   0  0  0  0  0  0  0  0  0  0  0  0
   19.5559  -10.1708  -15.5374 O   0  0  0  0  0  0  0  0  0  0  0  0
   15.6975  -11.4620  -18.5243 O   0  0  0  0  0  0  0  0  0  0  0  0
   21.3406  -10.2399  -17.0376 N   0  0  0  0  0  0  0  0  0  0  0  0
   22.2242   -9.5145  -16.1187 C   0  0  1  0  0  0  0  0  0  0  0  0
   23.6361   -9.9786  -16.3186 C   0  0  0  0  0  0  0  0  0  0  0  0
   24.6610   -9.2772  -15.4822 C   0  0  0  0  0  0  0  0  0  0  0  0
   26.0431   -9.7622  -15.6792 C   0  0  0  0  0  0  0  0  0  0  0  0
   26.8525   -9.3604  -16.5326 O   0  0  0  0  0  0  0  0  0  0  0  0
   22.0506   -8.0448  -16.2958 C   0  0  0  0  0  0  0  0  0  0  0  0
   22.1483   -7.5782  -17.4567 O   0  0  0  0  0  0  0  0  0  0  0  0
   26.5069  -10.7780  -14.8277 O   0  0  0  0  0  0  0  0  0  0  0  0
   21.7839   -7.1700  -15.2207 N   0  0  0  0  0  0  0  0  0  0  0  0
   21.5313   -5.7490  -15.5096 C   0  0  1  0  0  0  0  0  0  0  0  0
   20.0943   -5.4199  -15.2706 C   0  0  0  0  0  0  0  0  0  0  0  0
   19.8739   -3.9470  -15.4733 C   0  0  0  0  0  0  0  0  0  0  0  0
   18.4597   -3.5586  -15.2498 C   0  0  0  0  0  0  0  0  0  0  0  0
   18.1431   -2.9088  -14.2440 O   0  0  0  0  0  0  0  0  0  0  0  0
   22.4829   -4.9442  -14.7341 C   0  0  0  0  0  0  0  0  0  0  0  0
   23.0776   -5.4775  -13.7504 O   0  0  0  0  0  0  0  0  0  0  0  0
   17.5167   -3.9300  -16.1708 O   0  0  0  0  0  0  0  0  0  0  0  0
   22.7770   -3.6367  -15.0097 O   0  0  0  0  0  0  0  0  0  0  0  0
  2  6  1  0
  2  1  1  1
  3  2  1  0
  4  3  1  0
  5  4  2  0
  6  7  2  0
  8  4  1  0
  9  6  1  0
 10  9  1  0
 10 11  1  6
 11 12  1  0
 13 17  1  0
 13 12  1  0
 14 13  2  0
 15 10  1  0
 16 15  2  0
 18 15  1  0
 19 20  1  1
 19 18  1  0
 20 21  1  0
 21 22  1  0
 22 26  1  0
 23 22  2  0
 24 19  1  0
 25 24  2  0
 27 24  1  0
M  END
$$$$
