DEE.pdb
     RDKit          3D

 27 26  0  0  1  0  0  0  0  0999 V2000
   18.0788  -12.4496  -16.2178 N   0  0  0  0  0  0  0  0  0  0  0  0
   17.6963  -11.0718  -16.0585 C   0  0  1  0  0  0  0  0  0  0  0  0
   16.4142  -11.0246  -15.2513 C   0  0  0  0  0  0  0  0  0  0  0  0
   15.2415  -11.3231  -16.1051 C   0  0  0  0  0  0  0  0  0  0  0  0
   15.3711  -11.3620  -17.3387 O   0  0  0  0  0  0  0  0  0  0  0  0
   18.7333  -10.3248  -15.3097 C   0  0  0  0  0  0  0  0  0  0  0  0
   18.7095  -10.3514  -14.0512 O   0  0  0  0  0  0  0  0  0  0  0  0
   14.0170  -11.5544  -15.5139 O   0  0  0  0  0  0  0  0  0  0  0  0
   19.6985   -9.6190  -16.0326 N   0  0  0  0  0  0  0  0  0  0  0  0
   20.8164   -8.9911  -15.3201 C   0  0  1  0  0  0  0  0  0  0  0  0
   22.0998   -9.6457  -15.7363 C   0  0  0  0  0  0  0  0  0  0  0  0
   22.3729   -9.6321  -17.2084 C   0  0  0  0  0  0  0  0  0  0  0  0
   23.6955  -10.1723  -17.5872 C   0  0  0  0  0  0  0  0  0  0  0  0
   24.5539  -10.6333  -16.8155 O   0  0  0  0  0  0  0  0  0  0  0  0
   20.8011   -7.5173  -15.5423 C   0  0  0  0  0  0  0  0  0  0  0  0
   20.5549   -7.1011  -16.7003 O   0  0  0  0  0  0  0  0  0  0  0  0
   24.0351  -10.1738  -18.9498 O   0  0  0  0  0  0  0  0  0  0  0  0
   21.0501   -6.5849  -14.5122 N   0  0  0  0  0  0  0  0  0  0  0  0
   20.9479   -5.1486  -14.8171 C   0  0  1  0  0  0  0  0  0  0  0  0
   19.6145   -4.6238  -14.3960 C   0  0  0  0  0  0  0  0  0  0  0  0
   19.5025   -3.1726  -14.7709 C   0  0  0  0  0  0  0  0  0  0  0  0
   18.1946   -2.5940  -14.3765 C   0  0  0  0  0  0  0  0  0  0  0  0
   18.1490   -1.5322  -13.7404 O   0  0  0  0  0  0  0  0  0  0  0  0
   22.0964   -4.4652  -14.2102 C   0  0  0  0  0  0  0  0  0  0  0  0
   22.6671   -4.9955  -13.2108 O   0  0  0  0  0  0  0  0  0  0  0  0
   17.0460   -3.2521  -14.7270 O   0  0  0  0  0  0  0  0  0  0  0  0
   22.6014   -3.2764  -14.6617 O   0  0  0  0  0  0  0  0  0  0  0  0
  2  6  1  0
  2  1  1  1
  3  2  1  0
  4  3  1  0
  5  4  2  0
  6  7  2  0
  8  4  1  0
  9  6  1  0
 10  9  1  0
 10 11  1  6
 11 12  1  0
 13 17  1  0
 13 12  1  0
 14 13  2  0
 15 10  1  0
 16 15  2  0
 18 15  1  0
 19 20  1  1
 19 18  1  0
 20 21  1  0
 21 22  1  0
 22 26  1  0
 23 22  2  0
 24 19  1  0
 25 24  2  0
 27 24  1  0
M  END
$$$$
