DEE.pdb
     RDKit          3D

 27 26  0  0  1  0  0  0  0  0999 V2000
   18.9905  -10.9869  -18.8636 N   0  0  0  0  0  0  0  0  0  0  0  0
   19.0511   -9.6301  -19.3386 C   0  0  1  0  0  0  0  0  0  0  0  0
   17.9070   -9.4147  -20.3093 C   0  0  0  0  0  0  0  0  0  0  0  0
   18.1970  -10.0486  -21.6160 C   0  0  0  0  0  0  0  0  0  0  0  0
   19.3738  -10.2264  -21.9672 O   0  0  0  0  0  0  0  0  0  0  0  0
   18.8830   -8.6761  -18.2180 C   0  0  0  0  0  0  0  0  0  0  0  0
   17.8040   -8.6871  -17.5693 O   0  0  0  0  0  0  0  0  0  0  0  0
   17.1498  -10.4336  -22.4269 O   0  0  0  0  0  0  0  0  0  0  0  0
   19.9317   -7.8003  -17.9255 N   0  0  0  0  0  0  0  0  0  0  0  0
   19.7913   -6.8533  -16.8143 C   0  0  1  0  0  0  0  0  0  0  0  0
   20.8481   -7.1333  -15.7878 C   0  0  0  0  0  0  0  0  0  0  0  0
   20.4390   -8.0681  -14.6919 C   0  0  0  0  0  0  0  0  0  0  0  0
   21.4614   -8.2595  -13.6418 C   0  0  0  0  0  0  0  0  0  0  0  0
   22.6733   -8.4699  -13.8202 O   0  0  0  0  0  0  0  0  0  0  0  0
   19.8171   -5.4545  -17.3282 C   0  0  0  0  0  0  0  0  0  0  0  0
   20.5486   -5.2062  -18.3171 O   0  0  0  0  0  0  0  0  0  0  0  0
   21.0418   -8.2014  -12.3029 O   0  0  0  0  0  0  0  0  0  0  0  0
   19.0595   -4.4125  -16.7514 N   0  0  0  0  0  0  0  0  0  0  0  0
   19.0784   -3.0862  -17.3892 C   0  0  1  0  0  0  0  0  0  0  0  0
   17.6909   -2.6633  -17.7451 C   0  0  0  0  0  0  0  0  0  0  0  0
   17.7286   -1.3125  -18.4032 C   0  0  0  0  0  0  0  0  0  0  0  0
   16.3699   -0.8081  -18.7196 C   0  0  0  0  0  0  0  0  0  0  0  0
   15.8092   -1.1445  -19.7716 O   0  0  0  0  0  0  0  0  0  0  0  0
   19.7952   -2.1591  -16.5052 C   0  0  0  0  0  0  0  0  0  0  0  0
   19.9500   -2.4706  -15.2867 O   0  0  0  0  0  0  0  0  0  0  0  0
   15.7511    0.0314  -17.8320 O   0  0  0  0  0  0  0  0  0  0  0  0
   20.3181   -0.9639  -16.9174 O   0  0  0  0  0  0  0  0  0  0  0  0
  2  6  1  0
  2  1  1  1
  3  2  1  0
  4  3  1  0
  5  4  2  0
  6  7  2  0
  8  4  1  0
  9  6  1  0
 10  9  1  0
 10 11  1  1
 11 12  1  0
 13 17  1  0
 13 12  1  0
 14 13  2  0
 15 10  1  0
 16 15  2  0
 18 15  1  0
 19 20  1  1
 19 18  1  0
 20 21  1  0
 21 22  1  0
 22 26  1  0
 23 22  2  0
 24 19  1  0
 25 24  2  0
 27 24  1  0
M  END
$$$$
