DEE.pdb
     RDKit          3D

 27 26  0  0  1  0  0  0  0  0999 V2000
   16.6522  -10.9904  -16.3744 N   0  0  0  0  0  0  0  0  0  0  0  0
   17.8596  -11.0012  -15.5920 C   0  0  1  0  0  0  0  0  0  0  0  0
   18.3797  -12.4240  -15.5399 C   0  0  0  0  0  0  0  0  0  0  0  0
   17.4074  -13.3172  -14.8689 C   0  0  0  0  0  0  0  0  0  0  0  0
   17.1063  -14.4027  -15.3896 O   0  0  0  0  0  0  0  0  0  0  0  0
   18.9005  -10.1590  -16.2255 C   0  0  0  0  0  0  0  0  0  0  0  0
   19.4642  -10.5764  -17.2711 O   0  0  0  0  0  0  0  0  0  0  0  0
   16.8483  -12.9277  -13.6697 O   0  0  0  0  0  0  0  0  0  0  0  0
   19.2153   -8.9322  -15.6354 N   0  0  0  0  0  0  0  0  0  0  0  0
   20.0919   -7.9947  -16.3454 C   0  0  1  0  0  0  0  0  0  0  0  0
   19.4218   -7.5514  -17.6116 C   0  0  0  0  0  0  0  0  0  0  0  0
   20.1764   -6.5322  -18.4077 C   0  0  0  0  0  0  0  0  0  0  0  0
   19.5665   -6.2067  -19.7140 C   0  0  0  0  0  0  0  0  0  0  0  0
   18.6143   -5.4329  -19.9126 O   0  0  0  0  0  0  0  0  0  0  0  0
   20.4700   -6.8676  -15.4464 C   0  0  0  0  0  0  0  0  0  0  0  0
   19.5538   -6.2895  -14.8131 O   0  0  0  0  0  0  0  0  0  0  0  0
   20.1018   -6.8228  -20.8568 O   0  0  0  0  0  0  0  0  0  0  0  0
   21.8027   -6.4319  -15.2833 N   0  0  0  0  0  0  0  0  0  0  0  0
   22.0772   -5.3254  -14.3523 C   0  0  1  0  0  0  0  0  0  0  0  0
   21.3658   -4.0888  -14.7943 C   0  0  0  0  0  0  0  0  0  0  0  0
   21.9903   -3.5731  -16.0605 C   0  0  0  0  0  0  0  0  0  0  0  0
   21.3787   -2.2965  -16.5042 C   0  0  0  0  0  0  0  0  0  0  0  0
   21.9066   -1.6329  -17.4071 O   0  0  0  0  0  0  0  0  0  0  0  0
   21.7458   -5.7722  -12.9939 C   0  0  0  0  0  0  0  0  0  0  0  0
   22.1314   -5.0752  -12.0084 O   0  0  0  0  0  0  0  0  0  0  0  0
   20.2267   -1.8681  -15.9003 O   0  0  0  0  0  0  0  0  0  0  0  0
   21.0341   -6.9076  -12.7177 O   0  0  0  0  0  0  0  0  0  0  0  0
  2  6  1  0
  2  1  1  6
  3  2  1  0
  4  3  1  0
  5  4  2  0
  6  7  2  0
  8  4  1  0
  9  6  1  0
 10  9  1  0
 10 11  1  6
 11 12  1  0
 13 17  1  0
 13 12  1  0
 14 13  2  0
 15 10  1  0
 16 15  2  0
 18 15  1  0
 19 20  1  6
 19 18  1  0
 20 21  1  0
 21 22  1  0
 22 26  1  0
 23 22  2  0
 24 19  1  0
 25 24  2  0
 27 24  1  0
M  END
$$$$
