GTK.pdb
     RDKit          3D

 21 20  0  0  1  0  0  0  0  0999 V2000
   24.7179  -20.6877  -15.3884 N   0  0  0  0  0  0  0  0  0  0  0  0
   24.5520  -19.7164  -16.4456 C   0  0  0  0  0  0  0  0  0  0  0  0
   24.1136  -18.4445  -15.8131 C   0  0  0  0  0  0  0  0  0  0  0  0
   23.4086  -18.4157  -14.7589 O   0  0  0  0  0  0  0  0  0  0  0  0
   26.2306  -15.6411  -14.6758 C   0  0  0  0  0  0  0  0  0  0  0  0
   25.2590  -15.0262  -15.6601 C   0  0  1  0  0  0  0  0  0  0  0  0
   25.8933  -14.8869  -16.8806 O   0  0  0  0  0  0  0  0  0  0  0  0
   24.0249  -15.9296  -15.7884 C   0  0  2  0  0  0  0  0  0  0  0  0
   24.4613  -17.1638  -16.3571 N   0  0  0  0  0  0  0  0  0  0  0  0
   22.9927  -15.2396  -16.5945 C   0  0  0  0  0  0  0  0  0  0  0  0
   22.9232  -15.4531  -17.8276 O   0  0  0  0  0  0  0  0  0  0  0  0
   22.0831  -14.3445  -16.0044 N   0  0  0  0  0  0  0  0  0  0  0  0
   21.0995  -13.5733  -16.7831 C   0  0  1  0  0  0  0  0  0  0  0  0
   20.0521  -13.1612  -15.8114 C   0  0  0  0  0  0  0  0  0  0  0  0
   18.9538  -12.3027  -16.3221 C   0  0  0  0  0  0  0  0  0  0  0  0
   18.0122  -12.0724  -15.1291 C   0  0  0  0  0  0  0  0  0  0  0  0
   16.8551  -11.1895  -15.5224 C   0  0  0  0  0  0  0  0  0  0  0  0
   16.0802  -10.9467  -14.3194 N   0  0  0  0  0  0  0  0  0  0  0  0
   21.7292  -12.3583  -17.3560 C   0  0  0  0  0  0  0  0  0  0  0  0
   21.0899  -11.7261  -18.2340 O   0  0  0  0  0  0  0  0  0  0  0  0
   22.9619  -11.8742  -16.9950 O   0  0  0  0  0  0  0  0  0  0  0  0
  1  2  1  0
  2  3  1  0
  3  4  2  0
  6  5  1  1
  6  8  1  0
  7  6  1  0
  8 10  1  0
  9  3  1  0
  8  9  1  6
 10 12  1  0
 10 11  2  0
 12 13  1  0
 13 19  1  0
 13 14  1  1
 14 15  1  0
 15 16  1  0
 16 17  1  0
 17 18  1  0
 19 21  1  0
 20 19  2  0
M  END
$$$$
