GTK.pdb
     RDKit          3D

 21 20  0  0  1  0  0  0  0  0999 V2000
   20.1841  -13.8409  -17.5390 N   0  0  0  0  0  0  0  0  0  0  0  0
   20.6298  -12.5405  -17.9851 C   0  0  0  0  0  0  0  0  0  0  0  0
   20.9752  -11.7515  -16.7734 C   0  0  0  0  0  0  0  0  0  0  0  0
   20.3190  -11.8424  -15.6915 O   0  0  0  0  0  0  0  0  0  0  0  0
   24.0269  -11.6525  -14.8663 C   0  0  0  0  0  0  0  0  0  0  0  0
   23.8267  -10.2037  -15.2562 C   0  0  1  0  0  0  0  0  0  0  0  0
   24.6629   -9.9107  -16.3175 O   0  0  0  0  0  0  0  0  0  0  0  0
   22.3583   -9.9792  -15.6425 C   0  0  2  0  0  0  0  0  0  0  0  0
   22.0770  -10.8336  -16.7506 N   0  0  0  0  0  0  0  0  0  0  0  0
   22.1407   -8.5440  -15.9325 C   0  0  0  0  0  0  0  0  0  0  0  0
   21.9131   -8.1764  -17.1090 O   0  0  0  0  0  0  0  0  0  0  0  0
   22.1840   -7.5781  -14.9118 N   0  0  0  0  0  0  0  0  0  0  0  0
   21.9189   -6.1492  -15.1501 C   0  0  1  0  0  0  0  0  0  0  0  0
   20.4606   -6.0516  -15.4241 C   0  0  0  0  0  0  0  0  0  0  0  0
   19.8868   -4.6894  -15.5634 C   0  0  0  0  0  0  0  0  0  0  0  0
   18.3683   -4.8859  -15.6987 C   0  0  0  0  0  0  0  0  0  0  0  0
   17.6782   -3.5698  -15.9533 C   0  0  0  0  0  0  0  0  0  0  0  0
   16.2503   -3.8284  -15.9262 N   0  0  0  0  0  0  0  0  0  0  0  0
   22.2350   -5.3539  -13.9383 C   0  0  0  0  0  0  0  0  0  0  0  0
   22.1887   -5.9375  -12.8264 O   0  0  0  0  0  0  0  0  0  0  0  0
   22.5755   -4.0241  -13.9447 O   0  0  0  0  0  0  0  0  0  0  0  0
  1  2  1  0
  2  3  1  0
  3  4  2  0
  6  5  1  6
  6  8  1  0
  7  6  1  0
  8 10  1  0
  9  3  1  0
  8  9  1  6
 10 12  1  0
 10 11  2  0
 12 13  1  0
 13 19  1  0
 13 14  1  1
 14 15  1  0
 15 16  1  0
 16 17  1  0
 17 18  1  0
 19 21  1  0
 20 19  2  0
M  END
$$$$
