GTK.pdb
     RDKit          3D

 21 20  0  0  1  0  0  0  0  0999 V2000
   22.1834  -13.8993  -17.4252 N   0  0  0  0  0  0  0  0  0  0  0  0
   22.6205  -12.6421  -17.9883 C   0  0  0  0  0  0  0  0  0  0  0  0
   22.7558  -11.6774  -16.8653 C   0  0  0  0  0  0  0  0  0  0  0  0
   21.9863  -11.6938  -15.8569 O   0  0  0  0  0  0  0  0  0  0  0  0
   25.8673  -10.9092  -14.9282 C   0  0  0  0  0  0  0  0  0  0  0  0
   25.3761   -9.5796  -15.4592 C   0  0  1  0  0  0  0  0  0  0  0  0
   26.1200   -9.2461  -16.5758 O   0  0  0  0  0  0  0  0  0  0  0  0
   23.8865   -9.6915  -15.8115 C   0  0  2  0  0  0  0  0  0  0  0  0
   23.7694  -10.6628  -16.8507 N   0  0  0  0  0  0  0  0  0  0  0  0
   23.3694   -8.3568  -16.1889 C   0  0  0  0  0  0  0  0  0  0  0  0
   23.3434   -8.0201  -17.3959 O   0  0  0  0  0  0  0  0  0  0  0  0
   22.9039   -7.4528  -15.2178 N   0  0  0  0  0  0  0  0  0  0  0  0
   22.3742   -6.1203  -15.5532 C   0  0  1  0  0  0  0  0  0  0  0  0
   20.9028   -6.2932  -15.6799 C   0  0  0  0  0  0  0  0  0  0  0  0
   20.0887   -5.0645  -15.8579 C   0  0  0  0  0  0  0  0  0  0  0  0
   18.9222   -5.4637  -16.7760 C   0  0  0  0  0  0  0  0  0  0  0  0
   18.0600   -4.2693  -17.0969 C   0  0  0  0  0  0  0  0  0  0  0  0
   16.9467   -4.7526  -17.8928 N   0  0  0  0  0  0  0  0  0  0  0  0
   22.6533   -5.1602  -14.4572 C   0  0  0  0  0  0  0  0  0  0  0  0
   22.8426   -5.6256  -13.3053 O   0  0  0  0  0  0  0  0  0  0  0  0
   22.7200   -3.7979  -14.6114 O   0  0  0  0  0  0  0  0  0  0  0  0
  1  2  1  0
  2  3  1  0
  3  4  2  0
  6  5  1  6
  6  8  1  0
  7  6  1  0
  8 10  1  0
  9  3  1  0
  8  9  1  6
 10 12  1  0
 10 11  2  0
 12 13  1  0
 13 19  1  0
 13 14  1  1
 14 15  1  0
 15 16  1  0
 16 17  1  0
 17 18  1  0
 19 21  1  0
 20 19  2  0
M  END
$$$$
