GTK.pdb
     RDKit          3D

 21 20  0  0  1  0  0  0  0  0999 V2000
   24.5831  -20.6517   -8.8202 N   0  0  0  0  0  0  0  0  0  0  0  0
   24.9611  -21.4316   -9.9768 C   0  0  0  0  0  0  0  0  0  0  0  0
   25.1450  -20.4847  -11.1080 C   0  0  0  0  0  0  0  0  0  0  0  0
   24.8885  -19.2464  -11.0082 O   0  0  0  0  0  0  0  0  0  0  0  0
   28.2874  -20.3467  -13.2041 C   0  0  0  0  0  0  0  0  0  0  0  0
   27.1346  -20.4525  -14.1793 C   0  0  1  0  0  0  0  0  0  0  0  0
   27.0429  -21.7608  -14.6168 O   0  0  0  0  0  0  0  0  0  0  0  0
   25.8374  -20.0199  -13.4823 C   0  0  2  0  0  0  0  0  0  0  0  0
   25.6262  -20.9131  -12.3893 N   0  0  0  0  0  0  0  0  0  0  0  0
   24.7300  -20.0154  -14.4646 C   0  0  0  0  0  0  0  0  0  0  0  0
   23.9666  -21.0064  -14.5434 O   0  0  0  0  0  0  0  0  0  0  0  0
   24.5140  -18.9178  -15.3163 N   0  0  0  0  0  0  0  0  0  0  0  0
   23.3965  -18.8552  -16.2734 C   0  0  1  0  0  0  0  0  0  0  0  0
   23.3438  -17.4433  -16.7373 C   0  0  0  0  0  0  0  0  0  0  0  0
   22.3567  -17.1142  -17.7962 C   0  0  0  0  0  0  0  0  0  0  0  0
   21.4403  -16.0365  -17.1949 C   0  0  0  0  0  0  0  0  0  0  0  0
   20.3337  -15.6779  -18.1540 C   0  0  0  0  0  0  0  0  0  0  0  0
   19.4620  -14.7444  -17.4646 N   0  0  0  0  0  0  0  0  0  0  0  0
   23.6613  -19.7348  -17.4383 C   0  0  0  0  0  0  0  0  0  0  0  0
   24.8591  -19.9970  -17.7137 O   0  0  0  0  0  0  0  0  0  0  0  0
   22.6902  -20.2840  -18.2379 O   0  0  0  0  0  0  0  0  0  0  0  0
  1  2  1  0
  2  3  1  0
  3  4  2  0
  6  5  1  1
  6  8  1  0
  7  6  1  0
  8 10  1  0
  9  3  1  0
  8  9  1  1
 10 12  1  0
 10 11  2  0
 12 13  1  0
 13 19  1  0
 13 14  1  6
 14 15  1  0
 15 16  1  0
 16 17  1  0
 17 18  1  0
 19 21  1  0
 20 19  2  0
M  END
$$$$
