GTK.pdb
     RDKit          3D

 21 20  0  0  1  0  0  0  0  0999 V2000
   30.1747  -20.3991  -11.6185 N   0  0  0  0  0  0  0  0  0  0  0  0
   29.2605  -21.2473  -12.3489 C   0  0  0  0  0  0  0  0  0  0  0  0
   28.0667  -20.4269  -12.6829 C   0  0  0  0  0  0  0  0  0  0  0  0
   27.9946  -19.1888  -12.4158 O   0  0  0  0  0  0  0  0  0  0  0  0
   27.6791  -18.6156  -14.4984 C   0  0  0  0  0  0  0  0  0  0  0  0
   26.4559  -19.3491  -15.0052 C   0  0  1  0  0  0  0  0  0  0  0  0
   26.8294  -20.1538  -16.0656 O   0  0  0  0  0  0  0  0  0  0  0  0
   25.8594  -20.1898  -13.8681 C   0  0  2  0  0  0  0  0  0  0  0  0
   26.9157  -20.9854  -13.3312 N   0  0  0  0  0  0  0  0  0  0  0  0
   24.7255  -20.9862  -14.3888 C   0  0  0  0  0  0  0  0  0  0  0  0
   24.9224  -22.1569  -14.7909 O   0  0  0  0  0  0  0  0  0  0  0  0
   23.4245  -20.4557  -14.4427 N   0  0  0  0  0  0  0  0  0  0  0  0
   22.2782  -21.2009  -14.9900 C   0  0  1  0  0  0  0  0  0  0  0  0
   21.4938  -21.6540  -13.8108 C   0  0  0  0  0  0  0  0  0  0  0  0
   20.2390  -22.4010  -14.0777 C   0  0  0  0  0  0  0  0  0  0  0  0
   19.6578  -22.7511  -12.6984 C   0  0  0  0  0  0  0  0  0  0  0  0
   18.4510  -23.6443  -12.8364 C   0  0  0  0  0  0  0  0  0  0  0  0
   17.9028  -23.8236  -11.5046 N   0  0  0  0  0  0  0  0  0  0  0  0
   21.4293  -20.3109  -15.8195 C   0  0  0  0  0  0  0  0  0  0  0  0
   21.5419  -19.0707  -15.6512 O   0  0  0  0  0  0  0  0  0  0  0  0
   20.5284  -20.7458  -16.7595 O   0  0  0  0  0  0  0  0  0  0  0  0
  1  2  1  0
  2  3  1  0
  3  4  2  0
  6  5  1  1
  6  8  1  0
  7  6  1  0
  8 10  1  0
  9  3  1  0
  8  9  1  6
 10 12  1  0
 10 11  2  0
 12 13  1  0
 13 19  1  0
 13 14  1  1
 14 15  1  0
 15 16  1  0
 16 17  1  0
 17 18  1  0
 19 21  1  0
 20 19  2  0
M  END
$$$$
