GTK.pdb
     RDKit          3D

 21 20  0  0  1  0  0  0  0  0999 V2000
   23.6375  -13.9295  -18.2965 N   0  0  0  0  0  0  0  0  0  0  0  0
   23.6848  -12.5635  -18.7659 C   0  0  0  0  0  0  0  0  0  0  0  0
   23.5979  -11.6821  -17.5719 C   0  0  0  0  0  0  0  0  0  0  0  0
   22.6448  -11.7568  -16.7381 O   0  0  0  0  0  0  0  0  0  0  0  0
   26.6777  -10.6564  -15.3688 C   0  0  0  0  0  0  0  0  0  0  0  0
   25.9278   -9.4077  -15.7805 C   0  0  1  0  0  0  0  0  0  0  0  0
   26.5959   -8.8177  -16.8374 O   0  0  0  0  0  0  0  0  0  0  0  0
   24.4957   -9.7843  -16.1844 C   0  0  2  0  0  0  0  0  0  0  0  0
   24.5904  -10.6871  -17.2859 N   0  0  0  0  0  0  0  0  0  0  0  0
   23.7327   -8.5539  -16.4924 C   0  0  0  0  0  0  0  0  0  0  0  0
   23.6134   -8.1795  -17.6826 O   0  0  0  0  0  0  0  0  0  0  0  0
   23.1350   -7.7911  -15.4737 N   0  0  0  0  0  0  0  0  0  0  0  0
   22.4237   -6.5278  -15.7322 C   0  0  1  0  0  0  0  0  0  0  0  0
   20.9779   -6.8753  -15.7396 C   0  0  0  0  0  0  0  0  0  0  0  0
   20.0104   -5.7498  -15.7752 C   0  0  0  0  0  0  0  0  0  0  0  0
   19.2063   -5.9288  -17.0729 C   0  0  0  0  0  0  0  0  0  0  0  0
   18.2115   -4.8092  -17.2458 C   0  0  0  0  0  0  0  0  0  0  0  0
   17.5420   -5.0300  -18.5145 N   0  0  0  0  0  0  0  0  0  0  0  0
   22.6794   -5.5559  -14.6409 C   0  0  0  0  0  0  0  0  0  0  0  0
   22.5669   -4.3330  -14.9076 O   0  0  0  0  0  0  0  0  0  0  0  0
   23.0301   -5.8972  -13.3584 O   0  0  0  0  0  0  0  0  0  0  0  0
  1  2  1  0
  2  3  1  0
  3  4  2  0
  6  5  1  6
  6  8  1  0
  7  6  1  0
  8 10  1  0
  9  3  1  0
  8  9  1  6
 10 12  1  0
 10 11  2  0
 12 13  1  0
 13 19  1  0
 13 14  1  1
 14 15  1  0
 15 16  1  0
 16 17  1  0
 17 18  1  0
 19 21  1  0
 20 19  2  0
M  END
$$$$
