GTK.pdb
     RDKit          3D

 21 20  0  0  1  0  0  0  0  0999 V2000
   29.0114  -20.0865  -15.4909 N   0  0  0  0  0  0  0  0  0  0  0  0
   28.1508  -19.3689  -14.5782 C   0  0  0  0  0  0  0  0  0  0  0  0
   26.9506  -20.2144  -14.3444 C   0  0  0  0  0  0  0  0  0  0  0  0
   26.6754  -21.2208  -15.0661 O   0  0  0  0  0  0  0  0  0  0  0  0
   26.1905  -21.8027  -11.2769 C   0  0  0  0  0  0  0  0  0  0  0  0
   24.8573  -21.1603  -11.5943 C   0  0  1  0  0  0  0  0  0  0  0  0
   24.6756  -20.0777  -10.7538 O   0  0  0  0  0  0  0  0  0  0  0  0
   24.8434  -20.7165  -13.0636 C   0  0  2  0  0  0  0  0  0  0  0  0
   26.0239  -19.9449  -13.2836 N   0  0  0  0  0  0  0  0  0  0  0  0
   23.5925  -19.9753  -13.3410 C   0  0  0  0  0  0  0  0  0  0  0  0
   23.5065  -18.7645  -13.0286 O   0  0  0  0  0  0  0  0  0  0  0  0
   22.4919  -20.6027  -13.9508 N   0  0  0  0  0  0  0  0  0  0  0  0
   21.2094  -19.9183  -14.1859 C   0  0  1  0  0  0  0  0  0  0  0  0
   20.9054  -20.1192  -15.6275 C   0  0  0  0  0  0  0  0  0  0  0  0
   19.7087  -19.4285  -16.1706 C   0  0  0  0  0  0  0  0  0  0  0  0
   19.6021  -19.8670  -17.6400 C   0  0  0  0  0  0  0  0  0  0  0  0
   18.5321  -19.0832  -18.3569 C   0  0  0  0  0  0  0  0  0  0  0  0
   18.5717  -19.4891  -19.7498 N   0  0  0  0  0  0  0  0  0  0  0  0
   20.1333  -20.5405  -13.3760 C   0  0  0  0  0  0  0  0  0  0  0  0
   20.3330  -21.6969  -12.9266 O   0  0  0  0  0  0  0  0  0  0  0  0
   18.9334  -19.9424  -13.0815 O   0  0  0  0  0  0  0  0  0  0  0  0
  1  2  1  0
  2  3  1  0
  3  4  2  0
  6  5  1  1
  6  8  1  0
  7  6  1  0
  8 10  1  0
  9  3  1  0
  8  9  1  1
 10 12  1  0
 10 11  2  0
 12 13  1  0
 13 19  1  0
 13 14  1  6
 14 15  1  0
 15 16  1  0
 16 17  1  0
 17 18  1  0
 19 21  1  0
 20 19  2  0
M  END
$$$$
