GTK.pdb
     RDKit          3D

 21 20  0  0  1  0  0  0  0  0999 V2000
   14.2597  -10.2338  -15.8257 N   0  0  0  0  0  0  0  0  0  0  0  0
   14.8990   -9.6711  -14.6580 C   0  0  0  0  0  0  0  0  0  0  0  0
   15.9823   -8.7725  -15.1365 C   0  0  0  0  0  0  0  0  0  0  0  0
   16.7803   -9.1026  -16.0658 O   0  0  0  0  0  0  0  0  0  0  0  0
   15.5687   -4.8865  -15.5750 C   0  0  0  0  0  0  0  0  0  0  0  0
   16.7973   -5.1671  -14.7366 C   0  0  1  0  0  0  0  0  0  0  0  0
   16.4795   -4.9720  -13.4054 O   0  0  0  0  0  0  0  0  0  0  0  0
   17.2601   -6.6102  -14.9796 C   0  0  2  0  0  0  0  0  0  0  0  0
   16.1948   -7.4699  -14.5754 N   0  0  0  0  0  0  0  0  0  0  0  0
   18.5239   -6.8506  -14.2472 C   0  0  0  0  0  0  0  0  0  0  0  0
   18.4874   -7.2999  -13.0777 O   0  0  0  0  0  0  0  0  0  0  0  0
   19.7719   -6.5846  -14.8377 N   0  0  0  0  0  0  0  0  0  0  0  0
   21.0512   -6.8347  -14.1525 C   0  0  1  0  0  0  0  0  0  0  0  0
   21.7272   -7.8994  -14.9402 C   0  0  0  0  0  0  0  0  0  0  0  0
   23.0678   -8.3377  -14.4769 C   0  0  0  0  0  0  0  0  0  0  0  0
   23.4431   -9.5407  -15.3571 C   0  0  0  0  0  0  0  0  0  0  0  0
   24.7709  -10.1184  -14.9372 C   0  0  0  0  0  0  0  0  0  0  0  0
   24.9935  -11.3011  -15.7486 N   0  0  0  0  0  0  0  0  0  0  0  0
   21.8953   -5.6149  -14.1685 C   0  0  0  0  0  0  0  0  0  0  0  0
   21.6904   -4.7730  -15.0787 O   0  0  0  0  0  0  0  0  0  0  0  0
   22.8856   -5.3393  -13.2588 O   0  0  0  0  0  0  0  0  0  0  0  0
  1  2  1  0
  2  3  1  0
  3  4  2  0
  6  5  1  6
  6  8  1  0
  7  6  1  0
  8 10  1  0
  9  3  1  0
  8  9  1  1
 10 12  1  0
 10 11  2  0
 12 13  1  0
 13 19  1  0
 13 14  1  6
 14 15  1  0
 15 16  1  0
 16 17  1  0
 17 18  1  0
 19 21  1  0
 20 19  2  0
M  END
$$$$
