GTK.pdb
     RDKit          3D

 21 20  0  0  1  0  0  0  0  0999 V2000
   16.5772  -22.9252    3.4694 N   0  0  0  0  0  0  0  0  0  0  0  0
   17.8660  -22.2753    3.5415 C   0  0  0  0  0  0  0  0  0  0  0  0
   17.7509  -21.1730    4.5323 C   0  0  0  0  0  0  0  0  0  0  0  0
   16.6337  -20.7799    4.9870 O   0  0  0  0  0  0  0  0  0  0  0  0
   21.3127  -19.4011    6.0985 C   0  0  0  0  0  0  0  0  0  0  0  0
   20.0812  -19.6562    6.9408 C   0  0  1  0  0  0  0  0  0  0  0  0
   20.0672  -18.7555    7.9896 O   0  0  0  0  0  0  0  0  0  0  0  0
   18.8274  -19.4969    6.0701 C   0  0  2  0  0  0  0  0  0  0  0  0
   18.9004  -20.4811    5.0390 N   0  0  0  0  0  0  0  0  0  0  0  0
   18.7574  -18.1094    5.5589 C   0  0  0  0  0  0  0  0  0  0  0  0
   19.4547  -17.7759    4.5722 O   0  0  0  0  0  0  0  0  0  0  0  0
   17.9214  -17.1515    6.1590 N   0  0  0  0  0  0  0  0  0  0  0  0
   17.8552  -15.7514    5.7073 C   0  0  1  0  0  0  0  0  0  0  0  0
   16.4069  -15.4320    5.6002 C   0  0  0  0  0  0  0  0  0  0  0  0
   16.0447  -14.1088    5.0328 C   0  0  0  0  0  0  0  0  0  0  0  0
   14.5082  -14.0681    5.0111 C   0  0  0  0  0  0  0  0  0  0  0  0
   14.0147  -12.7647    4.4361 C   0  0  0  0  0  0  0  0  0  0  0  0
   12.5646  -12.8032    4.4837 N   0  0  0  0  0  0  0  0  0  0  0  0
   18.4731  -14.8523    6.7126 C   0  0  0  0  0  0  0  0  0  0  0  0
   18.6469  -15.3029    7.8728 O   0  0  0  0  0  0  0  0  0  0  0  0
   18.8696  -13.5615    6.4658 O   0  0  0  0  0  0  0  0  0  0  0  0
  1  2  1  0
  2  3  1  0
  3  4  2  0
  6  5  1  6
  6  8  1  0
  7  6  1  0
  8 10  1  0
  9  3  1  0
  8  9  1  6
 10 12  1  0
 10 11  2  0
 12 13  1  0
 13 19  1  0
 13 14  1  1
 14 15  1  0
 15 16  1  0
 16 17  1  0
 17 18  1  0
 19 21  1  0
 20 19  2  0
M  END
$$$$
