GTK.pdb
     RDKit          3D

 21 20  0  0  1  0  0  0  0  0999 V2000
   20.0577  -14.7483  -16.1807 N   0  0  0  0  0  0  0  0  0  0  0  0
   20.4195  -13.6425  -17.0381 C   0  0  0  0  0  0  0  0  0  0  0  0
   20.7750  -12.4983  -16.1580 C   0  0  0  0  0  0  0  0  0  0  0  0
   20.1594  -12.2544  -15.0759 O   0  0  0  0  0  0  0  0  0  0  0  0
   24.1852  -11.4601  -14.8845 C   0  0  0  0  0  0  0  0  0  0  0  0
   23.6262  -10.2625  -15.6223 C   0  0  1  0  0  0  0  0  0  0  0  0
   24.2086  -10.2022  -16.8748 O   0  0  0  0  0  0  0  0  0  0  0  0
   22.1021  -10.4019  -15.7373 C   0  0  2  0  0  0  0  0  0  0  0  0
   21.8409  -11.5937  -16.4780 N   0  0  0  0  0  0  0  0  0  0  0  0
   21.5432   -9.1825  -16.3633 C   0  0  0  0  0  0  0  0  0  0  0  0
   21.1775   -9.2122  -17.5618 O   0  0  0  0  0  0  0  0  0  0  0  0
   21.4126   -7.9843  -15.6393 N   0  0  0  0  0  0  0  0  0  0  0  0
   20.7857   -6.7750  -16.1992 C   0  0  1  0  0  0  0  0  0  0  0  0
   19.3478   -7.1118  -16.3729 C   0  0  0  0  0  0  0  0  0  0  0  0
   18.4410   -6.0149  -16.7952 C   0  0  0  0  0  0  0  0  0  0  0  0
   17.0386   -6.6388  -16.8786 C   0  0  0  0  0  0  0  0  0  0  0  0
   16.0127   -5.6021  -17.2608 C   0  0  0  0  0  0  0  0  0  0  0  0
   15.1325   -6.2176  -18.2369 N   0  0  0  0  0  0  0  0  0  0  0  0
   20.9032   -5.6423  -15.2484 C   0  0  0  0  0  0  0  0  0  0  0  0
   21.2078   -5.9062  -14.0581 O   0  0  0  0  0  0  0  0  0  0  0  0
   20.7029   -4.3245  -15.5762 O   0  0  0  0  0  0  0  0  0  0  0  0
  1  2  1  0
  2  3  1  0
  3  4  2  0
  6  5  1  6
  6  8  1  0
  7  6  1  0
  8 10  1  0
  9  3  1  0
  8  9  1  6
 10 12  1  0
 10 11  2  0
 12 13  1  0
 13 19  1  0
 13 14  1  1
 14 15  1  0
 15 16  1  0
 16 17  1  0
 17 18  1  0
 19 21  1  0
 20 19  2  0
M  END
$$$$
