QKL.pdb
     RDKit          3D

 27 26  0  0  1  0  0  0  0  0999 V2000
   23.4876  -30.4677  -16.1018 N   0  0  0  0  0  0  0  0  0  0  0  0
   22.0840  -30.2174  -15.9119 C   0  0  0  0  0  0  0  0  0  0  0  0
   21.5572  -29.3592  -16.6270 O   0  0  0  0  0  0  0  0  0  0  0  0
   21.3289  -30.9569  -14.9032 C   0  0  0  0  0  0  0  0  0  0  0  0
   22.0992  -31.9504  -14.1327 C   0  0  0  0  0  0  0  0  0  0  0  0
   22.6077  -33.1208  -14.8924 C   0  0  2  0  0  0  0  0  0  0  0  0
   21.5776  -34.0822  -15.1585 N   0  0  0  0  0  0  0  0  0  0  0  0
   23.7548  -33.7442  -14.1654 C   0  0  0  0  0  0  0  0  0  0  0  0
   23.4715  -34.6602  -13.3447 O   0  0  0  0  0  0  0  0  0  0  0  0
   25.0954  -33.3888  -14.3279 N   0  0  0  0  0  0  0  0  0  0  0  0
   26.1981  -34.0943  -13.5597 C   0  0  1  0  0  0  0  0  0  0  0  0
   27.3113  -34.0773  -14.5036 C   0  0  0  0  0  0  0  0  0  0  0  0
   28.0785  -35.2087  -14.9736 C   0  0  0  0  0  0  0  0  0  0  0  0
   27.6807  -35.9166  -16.2246 C   0  0  0  0  0  0  0  0  0  0  0  0
   28.5806  -37.0948  -16.5376 C   0  0  0  0  0  0  0  0  0  0  0  0
   28.1827  -37.7445  -17.7762 N   0  0  0  0  0  0  0  0  0  0  0  0
   26.2535  -33.3679  -12.3063 C   0  0  0  0  0  0  0  0  0  0  0  0
   26.2543  -32.1264  -12.2570 O   0  0  0  0  0  0  0  0  0  0  0  0
   23.8863  -33.4857   -6.7840 C   0  0  0  0  0  0  0  0  0  0  0  0
   24.9460  -32.9696   -7.6705 C   0  0  2  0  0  0  0  0  0  0  0  0
   24.7913  -31.4210   -7.7168 C   0  0  0  0  0  0  0  0  0  0  0  0
   25.0972  -33.4757   -9.0366 C   0  0  0  0  0  0  0  0  0  0  0  0
   26.3362  -33.2251   -9.7717 C   0  0  2  0  0  0  0  0  0  0  0  0
   26.3107  -34.0244  -11.0476 N   0  0  0  0  0  0  0  0  0  0  0  0
   27.5871  -33.5445   -9.0840 C   0  0  0  0  0  0  0  0  0  0  0  0
   28.3365  -34.7061   -9.4594 O   0  0  0  0  0  0  0  0  0  0  0  0
   28.1315  -32.9100   -8.1571 O   0  0  0  0  0  0  0  0  0  0  0  0
  1  2  1  0
  2  4  1  0
  2  3  2  0
  4  5  1  0
  5  6  1  0
  6  7  1  1
  6  8  1  0
  8  9  2  0
 10  8  1  0
 10 11  1  0
 11 12  1  6
 13 12  1  0
 14 15  1  0
 14 13  1  0
 16 15  1  0
 17 24  1  0
 17 11  1  0
 18 17  2  0
 20 19  1  6
 20 22  1  0
 21 20  1  0
 23 22  1  1
 23 25  1  0
 23 24  1  0
 25 26  1  0
 27 25  2  0
M  END
$$$$
