QKL.pdb
     RDKit          3D

 27 26  0  0  1  0  0  0  0  0999 V2000
   15.1572   -8.1756  -19.8016 N   0  0  0  0  0  0  0  0  0  0  0  0
   14.6045   -9.0579  -18.8093 C   0  0  0  0  0  0  0  0  0  0  0  0
   13.3787   -9.2081  -18.8008 O   0  0  0  0  0  0  0  0  0  0  0  0
   15.4761   -9.7374  -17.8535 C   0  0  0  0  0  0  0  0  0  0  0  0
   16.9050   -9.3822  -17.9307 C   0  0  0  0  0  0  0  0  0  0  0  0
   17.8702  -10.4940  -17.7356 C   0  0  2  0  0  0  0  0  0  0  0  0
   17.2478  -11.6589  -17.1771 N   0  0  0  0  0  0  0  0  0  0  0  0
   19.0156  -10.0357  -16.8926 C   0  0  0  0  0  0  0  0  0  0  0  0
   18.8482  -10.0779  -15.6424 O   0  0  0  0  0  0  0  0  0  0  0  0
   20.2374   -9.5711  -17.3841 N   0  0  0  0  0  0  0  0  0  0  0  0
   21.3927   -9.2510  -16.4532 C   0  0  1  0  0  0  0  0  0  0  0  0
   22.4505  -10.1335  -16.9356 C   0  0  0  0  0  0  0  0  0  0  0  0
   23.2395  -11.0618  -16.1576 C   0  0  0  0  0  0  0  0  0  0  0  0
   24.1977  -11.9825  -16.8347 C   0  0  0  0  0  0  0  0  0  0  0  0
   24.8454  -12.9580  -15.8730 C   0  0  0  0  0  0  0  0  0  0  0  0
   25.8361  -13.7808  -16.5482 N   0  0  0  0  0  0  0  0  0  0  0  0
   21.5073   -7.8086  -16.5420 C   0  0  0  0  0  0  0  0  0  0  0  0
   21.3708   -7.1956  -17.6140 O   0  0  0  0  0  0  0  0  0  0  0  0
   18.9990   -3.0441  -16.2097 C   0  0  0  0  0  0  0  0  0  0  0  0
   20.3698   -3.5836  -16.2799 C   0  0  2  0  0  0  0  0  0  0  0  0
   20.9996   -3.0643  -17.6057 C   0  0  0  0  0  0  0  0  0  0  0  0
   20.6194   -5.0221  -16.1637 C   0  0  0  0  0  0  0  0  0  0  0  0
   21.8571   -5.4978  -15.5473 C   0  0  2  0  0  0  0  0  0  0  0  0
   21.7835   -6.9955  -15.4100 N   0  0  0  0  0  0  0  0  0  0  0  0
   22.1877   -4.9565  -14.2291 C   0  0  0  0  0  0  0  0  0  0  0  0
   22.8421   -3.6873  -14.1177 O   0  0  0  0  0  0  0  0  0  0  0  0
   21.9675   -5.4743  -13.1149 O   0  0  0  0  0  0  0  0  0  0  0  0
  1  2  1  0
  2  4  1  0
  2  3  2  0
  4  5  1  0
  5  6  1  0
  6  7  1  1
  6  8  1  0
  8  9  2  0
 10  8  1  0
 10 11  1  0
 11 12  1  6
 13 12  1  0
 14 15  1  0
 14 13  1  0
 16 15  1  0
 17 24  1  0
 17 11  1  0
 18 17  2  0
 20 19  1  6
 20 22  1  0
 21 20  1  0
 23 22  1  1
 23 25  1  0
 23 24  1  0
 25 26  1  0
 27 25  2  0
M  END
$$$$
