QKL.pdb
     RDKit          3D

 27 26  0  0  1  0  0  0  0  0999 V2000
   29.4129  -19.4608  -17.4206 N   0  0  0  0  0  0  0  0  0  0  0  0
   29.2123  -18.0392  -17.3334 C   0  0  0  0  0  0  0  0  0  0  0  0
   29.6685  -17.3431  -18.2459 O   0  0  0  0  0  0  0  0  0  0  0  0
   28.4980  -17.4595  -16.1983 C   0  0  0  0  0  0  0  0  0  0  0  0
   28.0932  -18.4114  -15.1475 C   0  0  0  0  0  0  0  0  0  0  0  0
   26.8084  -19.1237  -15.3654 C   0  0  2  0  0  0  0  0  0  0  0  0
   26.0401  -18.5413  -16.4269 N   0  0  0  0  0  0  0  0  0  0  0  0
   26.0259  -19.1693  -14.0932 C   0  0  0  0  0  0  0  0  0  0  0  0
   25.6447  -18.0608  -13.6255 O   0  0  0  0  0  0  0  0  0  0  0  0
   25.6937  -20.3336  -13.3975 N   0  0  0  0  0  0  0  0  0  0  0  0
   24.7884  -20.2949  -12.1798 C   0  0  1  0  0  0  0  0  0  0  0  0
   23.6609  -21.1266  -12.5888 C   0  0  0  0  0  0  0  0  0  0  0  0
   22.2607  -20.7673  -12.5851 C   0  0  0  0  0  0  0  0  0  0  0  0
   21.2193  -21.8067  -12.8291 C   0  0  0  0  0  0  0  0  0  0  0  0
   19.8154  -21.2365  -12.8218 C   0  0  0  0  0  0  0  0  0  0  0  0
   18.8209  -22.2890  -12.9549 N   0  0  0  0  0  0  0  0  0  0  0  0
   25.6664  -20.6856  -11.0945 C   0  0  0  0  0  0  0  0  0  0  0  0
   26.4500  -21.6455  -11.1861 O   0  0  0  0  0  0  0  0  0  0  0  0
   28.1877  -18.9735   -5.7844 C   0  0  0  0  0  0  0  0  0  0  0  0
   27.9498  -20.0156   -6.8006 C   0  0  2  0  0  0  0  0  0  0  0  0
   29.3232  -20.6842   -7.1020 C   0  0  0  0  0  0  0  0  0  0  0  0
   27.2864  -19.6951   -8.0664 C   0  0  0  0  0  0  0  0  0  0  0  0
   26.3256  -20.6351   -8.6421 C   0  0  2  0  0  0  0  0  0  0  0  0
   25.6924  -19.9988   -9.8510 N   0  0  0  0  0  0  0  0  0  0  0  0
   25.2409  -21.0860   -7.7703 C   0  0  0  0  0  0  0  0  0  0  0  0
   25.4888  -22.0839   -6.7732 O   0  0  0  0  0  0  0  0  0  0  0  0
   24.0532  -20.7019   -7.7696 O   0  0  0  0  0  0  0  0  0  0  0  0
  1  2  1  0
  2  4  1  0
  2  3  2  0
  4  5  1  0
  5  6  1  0
  6  7  1  6
  6  8  1  0
  8  9  2  0
 10  8  1  0
 10 11  1  0
 11 12  1  6
 13 12  1  0
 14 15  1  0
 14 13  1  0
 16 15  1  0
 17 24  1  0
 17 11  1  0
 18 17  2  0
 20 19  1  6
 20 22  1  0
 21 20  1  0
 23 22  1  1
 23 25  1  0
 23 24  1  0
 25 26  1  0
 27 25  2  0
M  END
$$$$
