QKL.pdb
     RDKit          3D

 27 26  0  0  1  0  0  0  0  0999 V2000
   27.3595  -22.8889  -16.3778 N   0  0  0  0  0  0  0  0  0  0  0  0
   28.7025  -22.3745  -16.3540 C   0  0  0  0  0  0  0  0  0  0  0  0
   29.6067  -23.1266  -16.7308 O   0  0  0  0  0  0  0  0  0  0  0  0
   28.9669  -21.0133  -15.8936 C   0  0  0  0  0  0  0  0  0  0  0  0
   27.7790  -20.2293  -15.5087 C   0  0  0  0  0  0  0  0  0  0  0  0
   26.9621  -19.6839  -16.6227 C   0  0  2  0  0  0  0  0  0  0  0  0
   27.6235  -18.6081  -17.3021 N   0  0  0  0  0  0  0  0  0  0  0  0
   25.6219  -19.2606  -16.1154 C   0  0  0  0  0  0  0  0  0  0  0  0
   25.5599  -18.1275  -15.5631 O   0  0  0  0  0  0  0  0  0  0  0  0
   24.4533  -20.0196  -16.2079 N   0  0  0  0  0  0  0  0  0  0  0  0
   23.1576  -19.5556  -15.5678 C   0  0  1  0  0  0  0  0  0  0  0  0
   22.2232  -19.5612  -16.6891 C   0  0  0  0  0  0  0  0  0  0  0  0
   21.5384  -18.4255  -17.2642 C   0  0  0  0  0  0  0  0  0  0  0  0
   22.2736  -17.1507  -17.5067 C   0  0  0  0  0  0  0  0  0  0  0  0
   21.3740  -16.0517  -18.0348 C   0  0  0  0  0  0  0  0  0  0  0  0
   22.1055  -14.8048  -18.1916 N   0  0  0  0  0  0  0  0  0  0  0  0
   22.9978  -20.4537  -14.4411 C   0  0  0  0  0  0  0  0  0  0  0  0
   23.0854  -21.6876  -14.5570 O   0  0  0  0  0  0  0  0  0  0  0  0
   25.4204  -21.9486  -10.8590 C   0  0  0  0  0  0  0  0  0  0  0  0
   24.7998  -20.6117  -10.8075 C   0  0  2  0  0  0  0  0  0  0  0  0
   25.3577  -19.8955   -9.5427 C   0  0  0  0  0  0  0  0  0  0  0  0
   23.3439  -20.4560  -10.8417 C   0  0  0  0  0  0  0  0  0  0  0  0
   22.5855  -20.9589  -11.9863 C   0  0  2  0  0  0  0  0  0  0  0  0
   22.7302  -19.9860  -13.1264 N   0  0  0  0  0  0  0  0  0  0  0  0
   21.1539  -21.1801  -11.7830 C   0  0  0  0  0  0  0  0  0  0  0  0
   20.1972  -20.3486  -12.4501 O   0  0  0  0  0  0  0  0  0  0  0  0
   20.6100  -22.0448  -11.0658 O   0  0  0  0  0  0  0  0  0  0  0  0
  1  2  1  0
  2  4  1  0
  2  3  2  0
  4  5  1  0
  5  6  1  0
  6  7  1  1
  6  8  1  0
  8  9  2  0
 10  8  1  0
 10 11  1  0
 11 12  1  6
 13 12  1  0
 14 15  1  0
 14 13  1  0
 16 15  1  0
 17 24  1  0
 17 11  1  0
 18 17  2  0
 20 19  1  1
 20 22  1  0
 21 20  1  0
 23 22  1  1
 23 25  1  0
 23 24  1  0
 25 26  1  0
 27 25  2  0
M  END
$$$$
