QKL.pdb
     RDKit          3D

 27 26  0  0  1  0  0  0  0  0999 V2000
   19.0429  -21.4132  -10.6235 N   0  0  0  0  0  0  0  0  0  0  0  0
   19.1851  -20.9019  -11.9604 C   0  0  0  0  0  0  0  0  0  0  0  0
   18.2931  -20.1602  -12.3839 O   0  0  0  0  0  0  0  0  0  0  0  0
   20.3454  -21.2618  -12.7722 C   0  0  0  0  0  0  0  0  0  0  0  0
   21.6117  -21.4267  -12.0351 C   0  0  0  0  0  0  0  0  0  0  0  0
   22.4886  -20.2305  -11.9593 C   0  0  2  0  0  0  0  0  0  0  0  0
   22.5824  -19.5478  -13.2168 N   0  0  0  0  0  0  0  0  0  0  0  0
   23.8398  -20.6174  -11.4517 C   0  0  0  0  0  0  0  0  0  0  0  0
   23.8736  -21.5167  -10.5668 O   0  0  0  0  0  0  0  0  0  0  0  0
   25.0469  -20.0617  -11.8809 N   0  0  0  0  0  0  0  0  0  0  0  0
   26.3784  -20.5568  -11.3464 C   0  0  1  0  0  0  0  0  0  0  0  0
   27.3223  -20.1096  -12.3660 C   0  0  0  0  0  0  0  0  0  0  0  0
   28.5063  -20.7993  -12.8263 C   0  0  0  0  0  0  0  0  0  0  0  0
   28.4010  -21.8454  -13.8842 C   0  0  0  0  0  0  0  0  0  0  0  0
   29.7483  -22.4235  -14.2668 C   0  0  0  0  0  0  0  0  0  0  0  0
   29.5945  -23.6422  -15.0450 N   0  0  0  0  0  0  0  0  0  0  0  0
   26.4149  -20.0330   -9.9952 C   0  0  0  0  0  0  0  0  0  0  0  0
   25.9112  -18.9382   -9.6928 O   0  0  0  0  0  0  0  0  0  0  0  0
   28.8361  -19.9587   -4.8280 C   0  0  0  0  0  0  0  0  0  0  0  0
   27.4690  -20.3967   -5.1663 C   0  0  2  0  0  0  0  0  0  0  0  0
   27.0742  -21.5003   -4.1415 C   0  0  0  0  0  0  0  0  0  0  0  0
   27.1392  -20.8584   -6.5165 C   0  0  0  0  0  0  0  0  0  0  0  0
   27.4325  -20.0064   -7.6682 C   0  0  2  0  0  0  0  0  0  0  0  0
   27.0287  -20.7344   -8.9228 N   0  0  0  0  0  0  0  0  0  0  0  0
   28.8227  -19.5845   -7.8392 C   0  0  0  0  0  0  0  0  0  0  0  0
   29.2723  -18.3473   -7.2742 O   0  0  0  0  0  0  0  0  0  0  0  0
   29.7332  -20.1857   -8.4456 O   0  0  0  0  0  0  0  0  0  0  0  0
  1  2  1  0
  2  4  1  0
  2  3  2  0
  4  5  1  0
  5  6  1  0
  6  7  1  6
  6  8  1  0
  8  9  2  0
 10  8  1  0
 10 11  1  0
 11 12  1  6
 13 12  1  0
 14 15  1  0
 14 13  1  0
 16 15  1  0
 17 24  1  0
 17 11  1  0
 18 17  2  0
 20 19  1  6
 20 22  1  0
 21 20  1  0
 23 22  1  1
 23 25  1  0
 23 24  1  0
 25 26  1  0
 27 25  2  0
M  END
$$$$
