QKL.pdb
     RDKit          3D

 27 26  0  0  1  0  0  0  0  0999 V2000
   22.1259  -15.3243  -18.6078 N   0  0  0  0  0  0  0  0  0  0  0  0
   23.4575  -15.0311  -18.1500 C   0  0  0  0  0  0  0  0  0  0  0  0
   23.9519  -13.9520  -18.4910 O   0  0  0  0  0  0  0  0  0  0  0  0
   24.1831  -15.9885  -17.3182 C   0  0  0  0  0  0  0  0  0  0  0  0
   23.4628  -17.2374  -17.0091 C   0  0  0  0  0  0  0  0  0  0  0  0
   24.2912  -18.4657  -16.9059 C   0  0  2  0  0  0  0  0  0  0  0  0
   25.1156  -18.6609  -18.0628 N   0  0  0  0  0  0  0  0  0  0  0  0
   23.4183  -19.6527  -16.6571 C   0  0  0  0  0  0  0  0  0  0  0  0
   22.3740  -19.7421  -17.3602 O   0  0  0  0  0  0  0  0  0  0  0  0
   23.6734  -20.6523  -15.7160 N   0  0  0  0  0  0  0  0  0  0  0  0
   22.7507  -21.8479  -15.5641 C   0  0  1  0  0  0  0  0  0  0  0  0
   23.6718  -22.9780  -15.6354 C   0  0  0  0  0  0  0  0  0  0  0  0
   23.3379  -24.3677  -15.8514 C   0  0  0  0  0  0  0  0  0  0  0  0
   24.3983  -25.4139  -15.7769 C   0  0  0  0  0  0  0  0  0  0  0  0
   23.8945  -26.7830  -16.1866 C   0  0  0  0  0  0  0  0  0  0  0  0
   24.9780  -27.7522  -16.2206 N   0  0  0  0  0  0  0  0  0  0  0  0
   22.0074  -21.5487  -14.3560 C   0  0  0  0  0  0  0  0  0  0  0  0
   22.5671  -21.2414  -13.2901 O   0  0  0  0  0  0  0  0  0  0  0  0
   20.9430  -18.8277  -11.4123 C   0  0  0  0  0  0  0  0  0  0  0  0
   20.1887  -18.8808  -12.6786 C   0  0  2  0  0  0  0  0  0  0  0  0
   19.3629  -17.5646  -12.7762 C   0  0  0  0  0  0  0  0  0  0  0  0
   19.3166  -20.0161  -12.9881 C   0  0  0  0  0  0  0  0  0  0  0  0
   19.8652  -21.3715  -13.0028 C   0  0  2  0  0  0  0  0  0  0  0  0
   20.5879  -21.5857  -14.3063 N   0  0  0  0  0  0  0  0  0  0  0  0
   18.9120  -22.4704  -12.8490 C   0  0  0  0  0  0  0  0  0  0  0  0
   18.2962  -22.7141  -11.5789 O   0  0  0  0  0  0  0  0  0  0  0  0
   18.5329  -23.2789  -13.7210 O   0  0  0  0  0  0  0  0  0  0  0  0
  1  2  1  0
  2  4  1  0
  2  3  2  0
  4  5  1  0
  5  6  1  0
  6  7  1  6
  6  8  1  0
  8  9  2  0
 10  8  1  0
 10 11  1  0
 11 12  1  1
 13 12  1  0
 14 15  1  0
 14 13  1  0
 16 15  1  0
 17 24  1  0
 17 11  1  0
 18 17  2  0
 20 19  1  1
 20 22  1  0
 21 20  1  0
 23 22  1  6
 23 25  1  0
 23 24  1  0
 25 26  1  0
 27 25  2  0
M  END
$$$$
