QKL.pdb
     RDKit          3D

 27 26  0  0  1  0  0  0  0  0999 V2000
   30.0683  -20.7302  -19.5142 N   0  0  0  0  0  0  0  0  0  0  0  0
   29.0879  -21.1679  -20.4713 C   0  0  0  0  0  0  0  0  0  0  0  0
   29.3668  -21.0453  -21.6682 O   0  0  0  0  0  0  0  0  0  0  0  0
   27.8147  -21.7286  -20.0249 C   0  0  0  0  0  0  0  0  0  0  0  0
   27.6177  -21.7774  -18.5645 C   0  0  0  0  0  0  0  0  0  0  0  0
   26.9534  -20.5992  -17.9511 C   0  0  2  0  0  0  0  0  0  0  0  0
   27.7211  -19.3992  -18.1147 N   0  0  0  0  0  0  0  0  0  0  0  0
   26.6671  -20.8659  -16.5090 C   0  0  0  0  0  0  0  0  0  0  0  0
   25.9330  -21.8605  -16.2542 O   0  0  0  0  0  0  0  0  0  0  0  0
   27.1467  -20.1033  -15.4419 N   0  0  0  0  0  0  0  0  0  0  0  0
   26.8048  -20.4528  -14.0050 C   0  0  1  0  0  0  0  0  0  0  0  0
   27.9098  -19.8612  -13.2569 C   0  0  0  0  0  0  0  0  0  0  0  0
   28.3402  -20.1968  -11.9184 C   0  0  0  0  0  0  0  0  0  0  0  0
   29.4607  -21.1589  -11.7101 C   0  0  0  0  0  0  0  0  0  0  0  0
   29.7717  -21.3811  -10.2439 C   0  0  0  0  0  0  0  0  0  0  0  0
   30.9101  -22.2705  -10.0779 N   0  0  0  0  0  0  0  0  0  0  0  0
   25.4445  -19.9745  -13.8563 C   0  0  0  0  0  0  0  0  0  0  0  0
   25.0215  -18.9750  -14.4611 O   0  0  0  0  0  0  0  0  0  0  0  0
   20.6342  -20.9634  -16.0730 C   0  0  0  0  0  0  0  0  0  0  0  0
   21.1965  -20.3395  -14.8607 C   0  0  2  0  0  0  0  0  0  0  0  0
   20.9103  -18.8121  -14.9560 C   0  0  0  0  0  0  0  0  0  0  0  0
   22.5998  -20.5406  -14.4925 C   0  0  0  0  0  0  0  0  0  0  0  0
   23.0343  -20.2893  -13.1191 C   0  0  2  0  0  0  0  0  0  0  0  0
   24.5004  -20.6148  -13.0093 N   0  0  0  0  0  0  0  0  0  0  0  0
   22.3446  -21.0304  -12.0632 C   0  0  0  0  0  0  0  0  0  0  0  0
   22.6430  -22.4143  -11.8450 O   0  0  0  0  0  0  0  0  0  0  0  0
   21.4773  -20.6036  -11.2735 O   0  0  0  0  0  0  0  0  0  0  0  0
  1  2  1  0
  2  4  1  0
  2  3  2  0
  4  5  1  0
  5  6  1  0
  6  7  1  1
  6  8  1  0
  8  9  2  0
 10  8  1  0
 10 11  1  0
 11 12  1  1
 13 12  1  0
 14 15  1  0
 14 13  1  0
 16 15  1  0
 17 24  1  0
 17 11  1  0
 18 17  2  0
 20 19  1  6
 20 22  1  0
 21 20  1  0
 23 22  1  6
 23 25  1  0
 23 24  1  0
 25 26  1  0
 27 25  2  0
M  END
$$$$
