QKL.pdb
     RDKit          3D

 27 26  0  0  1  0  0  0  0  0999 V2000
   21.9941  -28.4299  -14.7638 N   0  0  0  0  0  0  0  0  0  0  0  0
   20.7906  -28.1195  -15.4877 C   0  0  0  0  0  0  0  0  0  0  0  0
   20.0677  -27.2269  -15.0336 O   0  0  0  0  0  0  0  0  0  0  0  0
   20.4513  -28.8468  -16.7085 C   0  0  0  0  0  0  0  0  0  0  0  0
   21.4508  -29.8315  -17.1616 C   0  0  0  0  0  0  0  0  0  0  0  0
   22.6259  -29.2880  -17.8893 C   0  0  2  0  0  0  0  0  0  0  0  0
   22.3050  -28.9214  -19.2379 N   0  0  0  0  0  0  0  0  0  0  0  0
   23.7521  -30.2693  -17.8487 C   0  0  0  0  0  0  0  0  0  0  0  0
   23.5840  -31.3473  -18.4832 O   0  0  0  0  0  0  0  0  0  0  0  0
   24.9567  -30.0797  -17.1682 N   0  0  0  0  0  0  0  0  0  0  0  0
   26.0327  -31.1501  -17.1543 C   0  0  1  0  0  0  0  0  0  0  0  0
   27.2509  -30.3806  -16.9210 C   0  0  0  0  0  0  0  0  0  0  0  0
   28.6138  -30.8586  -16.9808 C   0  0  0  0  0  0  0  0  0  0  0  0
   29.2461  -31.1584  -18.2980 C   0  0  0  0  0  0  0  0  0  0  0  0
   30.6345  -31.7484  -18.1559 C   0  0  0  0  0  0  0  0  0  0  0  0
   31.1654  -32.1573  -19.4464 N   0  0  0  0  0  0  0  0  0  0  0  0
   25.5420  -32.1086  -16.1837 C   0  0  0  0  0  0  0  0  0  0  0  0
   25.0620  -31.7621  -15.0914 O   0  0  0  0  0  0  0  0  0  0  0  0
   22.6957  -36.7482  -14.9979 C   0  0  0  0  0  0  0  0  0  0  0  0
   22.7151  -35.3070  -14.6853 C   0  0  2  0  0  0  0  0  0  0  0  0
   21.2378  -34.8155  -14.6960 C   0  0  0  0  0  0  0  0  0  0  0  0
   23.5334  -34.3780  -15.4679 C   0  0  0  0  0  0  0  0  0  0  0  0
   24.9918  -34.4624  -15.4036 C   0  0  2  0  0  0  0  0  0  0  0  0
   25.5756  -33.5103  -16.4136 N   0  0  0  0  0  0  0  0  0  0  0  0
   25.5879  -35.7755  -15.6493 C   0  0  0  0  0  0  0  0  0  0  0  0
   25.7790  -36.6914  -14.5648 O   0  0  0  0  0  0  0  0  0  0  0  0
   25.9795  -36.2437  -16.7381 O   0  0  0  0  0  0  0  0  0  0  0  0
  1  2  1  0
  2  4  1  0
  2  3  2  0
  4  5  1  0
  5  6  1  0
  6  7  1  6
  6  8  1  0
  8  9  2  0
 10  8  1  0
 10 11  1  0
 11 12  1  1
 13 12  1  0
 14 15  1  0
 14 13  1  0
 16 15  1  0
 17 24  1  0
 17 11  1  0
 18 17  2  0
 20 19  1  6
 20 22  1  0
 21 20  1  0
 23 22  1  6
 23 25  1  0
 23 24  1  0
 25 26  1  0
 27 25  2  0
M  END
$$$$
