RII.pdb
     RDKit          3D

 28 27  0  0  1  0  0  0  0  0999 V2000
   14.6933  -20.8195   19.4437 N   0  0  0  0  0  0  0  0  0  0  0  0
   15.0129  -21.3350   20.7266 C   0  0  0  0  0  0  0  0  0  0  0  0
   16.1777  -21.7435   21.0481 N   0  0  0  0  0  0  0  0  0  0  0  0
   13.9526  -21.3821   21.6775 N   0  0  0  0  0  0  0  0  0  0  0  0
   12.6628  -20.8271   21.3762 C   0  0  0  0  0  0  0  0  0  0  0  0
   12.7604  -19.3767   20.9001 C   0  0  0  0  0  0  0  0  0  0  0  0
   11.3486  -18.9424   20.5929 C   0  0  0  0  0  0  0  0  0  0  0  0
   11.3107  -17.5083   20.0604 C   0  0  2  0  0  0  0  0  0  0  0  0
   12.6981  -17.1793   19.7620 N   0  0  0  0  0  0  0  0  0  0  0  0
   10.8123  -16.6337   21.1472 C   0  0  0  0  0  0  0  0  0  0  0  0
   11.6246  -16.0919   21.9166 O   0  0  0  0  0  0  0  0  0  0  0  0
   16.4635  -22.0122   22.0038 C   0  0  0  0  0  0  0  0  0  0  0  0
    6.4870  -13.2514   20.4696 C   0  0  0  0  0  0  0  0  0  0  0  0
    7.8238  -13.8673   20.8166 C   0  0  2  0  0  0  0  0  0  0  0  0
    7.7535  -14.7090   22.0766 C   0  0  0  0  0  0  0  0  0  0  0  0
    7.2704  -13.8744   23.2287 C   0  0  2  0  0  0  0  0  0  0  0  0
    9.0339  -15.4363   22.3609 N   0  0  0  0  0  0  0  0  0  0  0  0
    9.4506  -16.3640   21.3793 C   0  0  0  0  0  0  0  0  0  0  0  0
    8.9159  -16.0359   23.7075 O   0  0  0  0  0  0  0  0  0  0  0  0
    8.5951  -17.2322   23.8117 C   0  0  0  0  0  0  0  0  0  0  0  0
    9.7677  -12.4928   27.9578 C   0  0  0  0  0  0  0  0  0  0  0  0
    9.9889  -13.5790   26.9582 C   0  0  2  0  0  0  0  0  0  0  0  0
    9.3176  -14.8742   27.1758 C   0  0  0  0  0  0  0  0  0  0  0  0
    9.6273  -15.4044   28.5966 C   0  0  2  0  0  0  0  0  0  0  0  0
    9.4122  -15.9391   26.1711 N   0  0  0  0  0  0  0  0  0  0  0  0
    9.1594  -15.2769   24.8596 C   0  0  0  0  0  0  0  0  0  0  0  0
    8.6031  -17.1399   26.2666 O   0  0  0  0  0  0  0  0  0  0  0  0
    7.3957  -17.2566   25.9864 O   0  0  0  0  0  0  0  0  0  0  0  0
  2  4  1  0
  2  1  1  0
  3  2  2  0
  5  4  1  0
  6  5  1  0
  7  6  1  0
  8 10  1  0
  8  7  1  0
  8  9  1  1
 10 11  2  0
 13 12  1  0
 14 13  1  0
 14 16  1  0
 14 15  1  6
 16 18  1  0
 17 10  1  0
 16 17  1  1
 18 19  2  0
 20 21  1  0
 21 22  1  0
 22 24  1  0
 22 23  1  6
 24 26  1  0
 25 18  1  0
 24 25  1  6
 26 27  2  0
 26 28  1  0
M  END
$$$$
