RII.pdb
     RDKit          3D

 28 27  0  0  1  0  0  0  0  0999 V2000
    8.3580  -15.2289   16.1801 N   0  0  0  0  0  0  0  0  0  0  0  0
    8.4222  -13.8795   16.6147 C   0  0  0  0  0  0  0  0  0  0  0  0
    8.6258  -12.8976   15.8265 N   0  0  0  0  0  0  0  0  0  0  0  0
    8.2443  -13.6495   18.0098 N   0  0  0  0  0  0  0  0  0  0  0  0
    8.1395  -14.7444   18.9332 C   0  0  0  0  0  0  0  0  0  0  0  0
    7.4297  -15.9498   18.3140 C   0  0  0  0  0  0  0  0  0  0  0  0
    6.4425  -16.4296   19.3491 C   0  0  0  0  0  0  0  0  0  0  0  0
    6.9244  -17.7157   20.0239 C   0  0  2  0  0  0  0  0  0  0  0  0
    6.0570  -18.7637   19.5028 N   0  0  0  0  0  0  0  0  0  0  0  0
    6.7114  -17.5701   21.4826 C   0  0  0  0  0  0  0  0  0  0  0  0
    5.5836  -17.2665   21.9082 O   0  0  0  0  0  0  0  0  0  0  0  0
    8.6473  -11.9060   16.1157 C   0  0  0  0  0  0  0  0  0  0  0  0
    7.5550  -21.1902   25.1815 C   0  0  0  0  0  0  0  0  0  0  0  0
    7.1306  -20.0239   24.3175 C   0  0  2  0  0  0  0  0  0  0  0  0
    7.8310  -18.7377   24.7123 C   0  0  0  0  0  0  0  0  0  0  0  0
    7.6199  -18.4626   26.1742 C   0  0  2  0  0  0  0  0  0  0  0  0
    7.4657  -17.5828   23.8279 N   0  0  0  0  0  0  0  0  0  0  0  0
    7.7188  -17.7549   22.4480 C   0  0  0  0  0  0  0  0  0  0  0  0
    8.1092  -16.3739   24.3857 O   0  0  0  0  0  0  0  0  0  0  0  0
    9.3114  -16.1641   24.1494 C   0  0  0  0  0  0  0  0  0  0  0  0
    6.5010  -10.7399   26.0352 C   0  0  0  0  0  0  0  0  0  0  0  0
    7.5166  -11.8303   26.1220 C   0  0  2  0  0  0  0  0  0  0  0  0
    7.1224  -13.1860   25.6953 C   0  0  0  0  0  0  0  0  0  0  0  0
    5.7317  -13.5445   26.2727 C   0  0  2  0  0  0  0  0  0  0  0  0
    8.0614  -14.3067   25.8172 N   0  0  0  0  0  0  0  0  0  0  0  0
    7.3854  -15.4683   25.1722 C   0  0  0  0  0  0  0  0  0  0  0  0
    8.5874  -14.7129   27.1072 O   0  0  0  0  0  0  0  0  0  0  0  0
    8.1271  -15.5868   27.8649 O   0  0  0  0  0  0  0  0  0  0  0  0
  2  4  1  0
  2  1  1  0
  3  2  2  0
  5  4  1  0
  6  5  1  0
  7  6  1  0
  8 10  1  0
  8  7  1  0
  8  9  1  6
 10 11  2  0
 13 12  1  0
 14 13  1  0
 14 16  1  0
 14 15  1  6
 16 18  1  0
 17 10  1  0
 16 17  1  1
 18 19  2  0
 20 21  1  0
 21 22  1  0
 22 24  1  0
 22 23  1  6
 24 26  1  0
 25 18  1  0
 24 25  1  1
 26 27  2  0
 26 28  1  0
M  END
$$$$
