RII.pdb
     RDKit          3D

 28 27  0  0  1  0  0  0  0  0999 V2000
    8.7180  -16.9935   16.0065 N   0  0  0  0  0  0  0  0  0  0  0  0
    7.4104  -16.5176   16.2845 C   0  0  0  0  0  0  0  0  0  0  0  0
    6.7886  -15.6956   15.5330 N   0  0  0  0  0  0  0  0  0  0  0  0
    6.7927  -17.0064   17.4721 N   0  0  0  0  0  0  0  0  0  0  0  0
    7.1881  -16.5226   18.7651 C   0  0  0  0  0  0  0  0  0  0  0  0
    8.7075  -16.3957   18.8890 C   0  0  0  0  0  0  0  0  0  0  0  0
    8.9851  -16.1101   20.3442 C   0  0  0  0  0  0  0  0  0  0  0  0
    8.5464  -14.6951   20.7274 C   0  0  2  0  0  0  0  0  0  0  0  0
    9.3587  -13.8112   19.9021 N   0  0  0  0  0  0  0  0  0  0  0  0
    8.8775  -14.4887   22.1565 C   0  0  0  0  0  0  0  0  0  0  0  0
   10.0517  -14.2432   22.4825 O   0  0  0  0  0  0  0  0  0  0  0  0
    5.8662  -15.2834   15.7491 C   0  0  0  0  0  0  0  0  0  0  0  0
    5.3701  -11.8607   25.5081 C   0  0  0  0  0  0  0  0  0  0  0  0
    6.5996  -12.3344   24.7659 C   0  0  2  0  0  0  0  0  0  0  0  0
    7.1603  -13.6163   25.3518 C   0  0  0  0  0  0  0  0  0  0  0  0
    7.5322  -13.4062   26.7922 C   0  0  2  0  0  0  0  0  0  0  0  0
    8.2707  -14.1948   24.5260 N   0  0  0  0  0  0  0  0  0  0  0  0
    7.9354  -14.5520   23.2002 C   0  0  0  0  0  0  0  0  0  0  0  0
    8.8597  -15.3134   25.2931 O   0  0  0  0  0  0  0  0  0  0  0  0
    8.6735  -16.4790   24.9035 C   0  0  0  0  0  0  0  0  0  0  0  0
   10.9773  -13.5189   29.7990 C   0  0  0  0  0  0  0  0  0  0  0  0
   11.2479  -14.2596   28.5317 C   0  0  2  0  0  0  0  0  0  0  0  0
   10.7695  -15.6503   28.4211 C   0  0  0  0  0  0  0  0  0  0  0  0
   11.7463  -16.6103   29.1425 C   0  0  2  0  0  0  0  0  0  0  0  0
   10.3434  -16.1896   27.1249 N   0  0  0  0  0  0  0  0  0  0  0  0
    9.6197  -15.0771   26.4460 C   0  0  0  0  0  0  0  0  0  0  0  0
    9.5514  -17.4023   27.0363 O   0  0  0  0  0  0  0  0  0  0  0  0
    8.3275  -17.5164   27.2331 O   0  0  0  0  0  0  0  0  0  0  0  0
  2  4  1  0
  2  1  1  0
  3  2  2  0
  5  4  1  0
  6  5  1  0
  7  6  1  0
  8 10  1  0
  8  7  1  0
  8  9  1  6
 10 11  2  0
 13 12  1  0
 14 13  1  0
 14 16  1  0
 14 15  1  6
 16 18  1  0
 17 10  1  0
 16 17  1  6
 18 19  2  0
 20 21  1  0
 21 22  1  0
 22 24  1  0
 22 23  1  6
 24 26  1  0
 25 18  1  0
 24 25  1  6
 26 27  2  0
 26 28  1  0
M  END
$$$$
