RII.pdb
     RDKit          3D

 28 27  0  0  1  0  0  0  0  0999 V2000
   10.3098  -15.2165   14.5948 N   0  0  0  0  0  0  0  0  0  0  0  0
    9.1118  -14.8733   15.2734 C   0  0  0  0  0  0  0  0  0  0  0  0
    8.0107  -14.6341   14.6754 N   0  0  0  0  0  0  0  0  0  0  0  0
    9.1815  -14.8031   16.6950 N   0  0  0  0  0  0  0  0  0  0  0  0
   10.4306  -14.9680   17.3840 C   0  0  0  0  0  0  0  0  0  0  0  0
   10.7459  -16.4404   17.6537 C   0  0  0  0  0  0  0  0  0  0  0  0
   11.7461  -16.4529   18.7831 C   0  0  0  0  0  0  0  0  0  0  0  0
   11.2343  -17.2707   19.9709 C   0  0  2  0  0  0  0  0  0  0  0  0
   10.0859  -18.0051   19.4571 N   0  0  0  0  0  0  0  0  0  0  0  0
   10.7925  -16.3215   21.0188 C   0  0  0  0  0  0  0  0  0  0  0  0
   11.6295  -15.5846   21.5680 O   0  0  0  0  0  0  0  0  0  0  0  0
    7.1070  -14.4731   15.1494 C   0  0  0  0  0  0  0  0  0  0  0  0
    6.4465  -13.0718   20.8788 C   0  0  0  0  0  0  0  0  0  0  0  0
    7.7941  -13.7223   21.0970 C   0  0  2  0  0  0  0  0  0  0  0  0
    7.8187  -14.5757   22.3507 C   0  0  0  0  0  0  0  0  0  0  0  0
    7.4550  -13.7446   23.5483 C   0  0  2  0  0  0  0  0  0  0  0  0
    9.1049  -15.3295   22.5146 N   0  0  0  0  0  0  0  0  0  0  0  0
    9.4593  -16.1890   21.4500 C   0  0  0  0  0  0  0  0  0  0  0  0
    9.0525  -16.0209   23.8207 O   0  0  0  0  0  0  0  0  0  0  0  0
    8.9791  -17.2615   23.8466 C   0  0  0  0  0  0  0  0  0  0  0  0
   10.3192  -12.6567   28.0797 C   0  0  0  0  0  0  0  0  0  0  0  0
   10.3219  -13.7661   27.0810 C   0  0  2  0  0  0  0  0  0  0  0  0
    9.4371  -14.9217   27.3200 C   0  0  0  0  0  0  0  0  0  0  0  0
    9.6767  -15.4936   28.7383 C   0  0  2  0  0  0  0  0  0  0  0  0
    9.3223  -15.9899   26.3209 N   0  0  0  0  0  0  0  0  0  0  0  0
    9.0841  -15.2996   25.0213 C   0  0  0  0  0  0  0  0  0  0  0  0
    8.3624  -17.0671   26.4756 O   0  0  0  0  0  0  0  0  0  0  0  0
    7.1572  -17.0499   26.1641 O   0  0  0  0  0  0  0  0  0  0  0  0
  2  4  1  0
  2  1  1  0
  3  2  2  0
  5  4  1  0
  6  5  1  0
  7  6  1  0
  8 10  1  0
  8  7  1  0
  8  9  1  6
 10 11  2  0
 13 12  1  0
 14 13  1  0
 14 16  1  0
 14 15  1  6
 16 18  1  0
 17 10  1  0
 16 17  1  1
 18 19  2  0
 20 21  1  0
 21 22  1  0
 22 24  1  0
 22 23  1  6
 24 26  1  0
 25 18  1  0
 24 25  1  6
 26 27  2  0
 26 28  1  0
M  END
$$$$
