RII.pdb
     RDKit          3D

 28 27  0  0  1  0  0  0  0  0999 V2000
    7.6151  -18.2107   16.0276 N   0  0  0  0  0  0  0  0  0  0  0  0
    7.8941  -19.3119   16.8779 C   0  0  0  0  0  0  0  0  0  0  0  0
    7.2633  -20.4192   16.8215 N   0  0  0  0  0  0  0  0  0  0  0  0
    8.9398  -19.1342   17.8297 N   0  0  0  0  0  0  0  0  0  0  0  0
    8.9606  -17.9939   18.7023 C   0  0  0  0  0  0  0  0  0  0  0  0
    7.9805  -18.1461   19.8669 C   0  0  0  0  0  0  0  0  0  0  0  0
    8.6320  -17.4754   21.0510 C   0  0  0  0  0  0  0  0  0  0  0  0
    8.3013  -15.9820   21.0964 C   0  0  2  0  0  0  0  0  0  0  0  0
    9.0587  -15.3937   19.9999 N   0  0  0  0  0  0  0  0  0  0  0  0
    8.7934  -15.4473   22.3872 C   0  0  0  0  0  0  0  0  0  0  0  0
    9.9819  -15.0977   22.4906 O   0  0  0  0  0  0  0  0  0  0  0  0
    7.4493  -21.2335   17.4295 C   0  0  0  0  0  0  0  0  0  0  0  0
    5.7310  -12.1847   25.5664 C   0  0  0  0  0  0  0  0  0  0  0  0
    6.8561  -12.8250   24.7848 C   0  0  2  0  0  0  0  0  0  0  0  0
    7.5105  -13.9580   25.5523 C   0  0  0  0  0  0  0  0  0  0  0  0
    8.0831  -13.4443   26.8428 C   0  0  2  0  0  0  0  0  0  0  0  0
    8.4973  -14.7261   24.7242 N   0  0  0  0  0  0  0  0  0  0  0  0
    7.9933  -15.3022   23.5361 C   0  0  0  0  0  0  0  0  0  0  0  0
    9.1506  -15.7125   25.6113 O   0  0  0  0  0  0  0  0  0  0  0  0
    8.7047  -16.8717   25.6601 C   0  0  0  0  0  0  0  0  0  0  0  0
   10.8309  -14.4742   30.7264 C   0  0  0  0  0  0  0  0  0  0  0  0
   10.3423  -15.2302   29.5357 C   0  0  2  0  0  0  0  0  0  0  0  0
   11.3163  -15.5828   28.4858 C   0  0  0  0  0  0  0  0  0  0  0  0
   12.1470  -14.3387   28.0881 C   0  0  1  0  0  0  0  0  0  0  0  0
   10.8952  -16.3485   27.3073 N   0  0  0  0  0  0  0  0  0  0  0  0
   10.2584  -15.3586   26.3925 C   0  0  0  0  0  0  0  0  0  0  0  0
   10.0352  -17.5107   27.4309 O   0  0  0  0  0  0  0  0  0  0  0  0
    8.7904  -17.5269   27.4387 O   0  0  0  0  0  0  0  0  0  0  0  0
  2  4  1  0
  2  1  1  0
  3  2  2  0
  5  4  1  0
  6  5  1  0
  7  6  1  0
  8 10  1  0
  8  7  1  0
  8  9  1  6
 10 11  2  0
 13 12  1  0
 14 13  1  0
 14 16  1  0
 14 15  1  1
 16 18  1  0
 17 10  1  0
 16 17  1  6
 18 19  2  0
 20 21  1  0
 21 22  1  0
 22 24  1  0
 22 23  1  1
 24 26  1  0
 25 18  1  0
 24 25  1  6
 26 27  2  0
 26 28  1  0
M  END
$$$$
