HFV.pdb
     RDKit          3D

 29 30  0  0  1  0  0  0  0  0999 V2000
   26.7175  -22.8195  -17.4462 N   0  0  0  0  0  0  0  0  0  0  0  0
   26.0561  -21.6182  -17.0234 C   0  0  1  0  0  0  0  0  0  0  0  0
   24.7254  -21.4178  -17.7203 C   0  0  0  0  0  0  0  0  0  0  0  0
   24.8800  -21.0625  -19.1479 C   0  0  0  0  0  0  0  0  0  0  0  0
   24.7250  -21.9794  -20.1794 C   0  0  0  0  0  0  0  0  0  0  0  0
   24.9361  -21.3090  -21.3150 N   0  0  0  0  0  0  0  0  0  0  0  0
   25.2116  -20.0260  -21.0037 C   0  0  0  0  0  0  0  0  0  0  0  0
   25.1798  -19.8599  -19.6592 N   0  0  0  0  0  0  0  0  0  0  0  0
   25.7653  -21.7175  -15.5716 C   0  0  0  0  0  0  0  0  0  0  0  0
   25.3443  -22.7913  -15.0988 O   0  0  0  0  0  0  0  0  0  0  0  0
   25.9485  -20.6238  -14.6805 N   0  0  0  0  0  0  0  0  0  0  0  0
   25.6753  -20.8101  -13.2702 C   0  0  1  0  0  0  0  0  0  0  0  0
   26.5384  -19.9224  -12.4088 C   0  0  0  0  0  0  0  0  0  0  0  0
   26.3205  -20.1034  -10.9714 C   0  0  0  0  0  0  0  0  0  0  0  0
   26.9080  -21.1580  -10.3133 C   0  0  0  0  0  0  0  0  0  0  0  0
   26.7304  -21.3665   -8.9625 C   0  0  0  0  0  0  0  0  0  0  0  0
   25.9486  -20.5122   -8.2245 C   0  0  0  0  0  0  0  0  0  0  0  0
   25.3516  -19.4495   -8.8664 C   0  0  0  0  0  0  0  0  0  0  0  0
   25.5339  -19.2403  -10.2392 C   0  0  0  0  0  0  0  0  0  0  0  0
   24.2557  -20.4735  -12.9518 C   0  0  0  0  0  0  0  0  0  0  0  0
   23.7764  -19.3680  -13.3010 O   0  0  0  0  0  0  0  0  0  0  0  0
   19.8640  -22.0599  -11.2175 C   0  0  0  0  0  0  0  0  0  0  0  0
   21.3584  -22.2406  -11.2297 C   0  0  2  0  0  0  0  0  0  0  0  0
   21.9318  -22.4610   -9.8582 C   0  0  0  0  0  0  0  0  0  0  0  0
   22.0370  -21.0843  -11.9455 C   0  0  2  0  0  0  0  0  0  0  0  0
   23.4046  -21.3706  -12.2551 N   0  0  0  0  0  0  0  0  0  0  0  0
   21.8540  -19.8527  -11.1542 C   0  0  0  0  0  0  0  0  0  0  0  0
   21.0460  -18.9963  -11.5944 O   0  0  0  0  0  0  0  0  0  0  0  0
   22.5160  -19.5949   -9.9698 O   0  0  0  0  0  0  0  0  0  0  0  0
  2  1  1  6
  2  3  1  0
  4  8  1  0
  4  3  1  0
  5  4  2  0
  6  5  1  0
  6  7  1  0
  7  8  2  0
  9  2  1  0
 10  9  2  0
 11  9  1  0
 12 11  1  0
 12 13  1  1
 13 14  1  0
 14 15  2  0
 15 16  1  0
 17 16  2  0
 18 17  1  0
 19 14  1  0
 19 18  2  0
 20 12  1  0
 21 20  2  0
 23 22  1  1
 23 24  1  0
 23 25  1  0
 25 27  1  0
 25 26  1  1
 26 20  1  0
 27 29  1  0
 28 27  2  0
M  END
$$$$
