HFV.pdb
     RDKit          3D

 29 30  0  0  1  0  0  0  0  0999 V2000
   12.6570  -20.1070    1.7751 N   0  0  0  0  0  0  0  0  0  0  0  0
   13.1801  -19.1116    2.6667 C   0  0  1  0  0  0  0  0  0  0  0  0
   12.7861  -19.3654    4.1079 C   0  0  0  0  0  0  0  0  0  0  0  0
   11.3623  -19.0612    4.3693 C   0  0  0  0  0  0  0  0  0  0  0  0
   10.3518  -20.0077    4.2619 C   0  0  0  0  0  0  0  0  0  0  0  0
    9.2131  -19.3803    4.5676 N   0  0  0  0  0  0  0  0  0  0  0  0
    9.5025  -18.0946    4.8541 C   0  0  0  0  0  0  0  0  0  0  0  0
   10.8357  -17.8835    4.7343 N   0  0  0  0  0  0  0  0  0  0  0  0
   14.6626  -19.1559    2.6168 C   0  0  0  0  0  0  0  0  0  0  0  0
   15.2422  -20.2487    2.4638 O   0  0  0  0  0  0  0  0  0  0  0  0
   15.4649  -17.9875    2.7378 N   0  0  0  0  0  0  0  0  0  0  0  0
   16.9066  -18.1124    2.6718 C   0  0  1  0  0  0  0  0  0  0  0  0
   17.5419  -16.9304    1.9831 C   0  0  0  0  0  0  0  0  0  0  0  0
   18.9772  -17.0919    1.7384 C   0  0  0  0  0  0  0  0  0  0  0  0
   19.8726  -16.1982    2.2770 C   0  0  0  0  0  0  0  0  0  0  0  0
   21.2309  -16.3117    2.0727 C   0  0  0  0  0  0  0  0  0  0  0  0
   21.7357  -17.3380    1.3127 C   0  0  0  0  0  0  0  0  0  0  0  0
   20.8543  -18.2436    0.7646 C   0  0  0  0  0  0  0  0  0  0  0  0
   19.4744  -18.1255    0.9740 C   0  0  0  0  0  0  0  0  0  0  0  0
   17.4998  -18.1857    4.0402 C   0  0  0  0  0  0  0  0  0  0  0  0
   17.2766  -17.2751    4.8737 O   0  0  0  0  0  0  0  0  0  0  0  0
   20.1664  -21.4797    5.3611 C   0  0  0  0  0  0  0  0  0  0  0  0
   19.0878  -20.8215    6.1792 C   0  0  2  0  0  0  0  0  0  0  0  0
   17.7929  -21.5839    6.1611 C   0  0  0  0  0  0  0  0  0  0  0  0
   18.8961  -19.3742    5.7568 C   0  0  2  0  0  0  0  0  0  0  0  0
   18.3246  -19.2660    4.4491 N   0  0  0  0  0  0  0  0  0  0  0  0
   20.1752  -18.6545    5.9057 C   0  0  0  0  0  0  0  0  0  0  0  0
   20.9110  -18.5654    4.8904 O   0  0  0  0  0  0  0  0  0  0  0  0
   20.6011  -18.0807    7.0875 O   0  0  0  0  0  0  0  0  0  0  0  0
  2  1  1  6
  2  3  1  0
  4  8  1  0
  4  3  1  0
  5  4  2  0
  6  5  1  0
  6  7  1  0
  7  8  2  0
  9  2  1  0
 10  9  2  0
 11  9  1  0
 12 11  1  0
 12 13  1  1
 13 14  1  0
 14 15  2  0
 15 16  1  0
 17 16  2  0
 18 17  1  0
 19 14  1  0
 19 18  2  0
 20 12  1  0
 21 20  2  0
 23 22  1  6
 23 24  1  0
 23 25  1  0
 25 27  1  0
 25 26  1  6
 26 20  1  0
 27 29  1  0
 28 27  2  0
M  END
$$$$
