HFV.pdb
     RDKit          3D

 29 30  0  0  1  0  0  0  0  0999 V2000
   27.5498  -23.6298  -17.3540 N   0  0  0  0  0  0  0  0  0  0  0  0
   27.5739  -22.2686  -16.9002 C   0  0  1  0  0  0  0  0  0  0  0  0
   26.9459  -21.3175  -17.8990 C   0  0  0  0  0  0  0  0  0  0  0  0
   27.7900  -21.1130  -19.0964 C   0  0  0  0  0  0  0  0  0  0  0  0
   27.4973  -21.6683  -20.3352 C   0  0  0  0  0  0  0  0  0  0  0  0
   28.4670  -21.2733  -21.1643 N   0  0  0  0  0  0  0  0  0  0  0  0
   29.3292  -20.5029  -20.4701 C   0  0  0  0  0  0  0  0  0  0  0  0
   28.9192  -20.3955  -19.1829 N   0  0  0  0  0  0  0  0  0  0  0  0
   26.7749  -22.1653  -15.6539 C   0  0  0  0  0  0  0  0  0  0  0  0
   25.7993  -22.9219  -15.4823 O   0  0  0  0  0  0  0  0  0  0  0  0
   27.0776  -21.2259  -14.6295 N   0  0  0  0  0  0  0  0  0  0  0  0
   26.3279  -21.2676  -13.3907 C   0  0  1  0  0  0  0  0  0  0  0  0
   27.1055  -20.6729  -12.2433 C   0  0  0  0  0  0  0  0  0  0  0  0
   26.3555  -20.6227  -10.9859 C   0  0  0  0  0  0  0  0  0  0  0  0
   25.9558  -21.7882  -10.3755 C   0  0  0  0  0  0  0  0  0  0  0  0
   25.2486  -21.7880   -9.1924 C   0  0  0  0  0  0  0  0  0  0  0  0
   24.9184  -20.6039   -8.5806 C   0  0  0  0  0  0  0  0  0  0  0  0
   25.3101  -19.4256   -9.1771 C   0  0  0  0  0  0  0  0  0  0  0  0
   26.0287  -19.4290  -10.3794 C   0  0  0  0  0  0  0  0  0  0  0  0
   25.0612  -20.4853  -13.5062 C   0  0  0  0  0  0  0  0  0  0  0  0
   25.0965  -19.2711  -13.8195 O   0  0  0  0  0  0  0  0  0  0  0  0
   21.2951  -22.0756  -14.5617 C   0  0  0  0  0  0  0  0  0  0  0  0
   21.7507  -20.6408  -14.5590 C   0  0  2  0  0  0  0  0  0  0  0  0
   22.4886  -20.2595  -15.8113 C   0  0  0  0  0  0  0  0  0  0  0  0
   22.5617  -20.3336  -13.3109 C   0  0  2  0  0  0  0  0  0  0  0  0
   23.7889  -21.0690  -13.2714 N   0  0  0  0  0  0  0  0  0  0  0  0
   21.7122  -20.5346  -12.1217 C   0  0  0  0  0  0  0  0  0  0  0  0
   21.9912  -21.5006  -11.3673 O   0  0  0  0  0  0  0  0  0  0  0  0
   20.6397  -19.7268  -11.7980 O   0  0  0  0  0  0  0  0  0  0  0  0
  2  1  1  6
  2  3  1  0
  4  8  1  0
  4  3  1  0
  5  4  2  0
  6  5  1  0
  6  7  1  0
  7  8  2  0
  9  2  1  0
 10  9  2  0
 11  9  1  0
 12 11  1  0
 12 13  1  1
 13 14  1  0
 14 15  2  0
 15 16  1  0
 17 16  2  0
 18 17  1  0
 19 14  1  0
 19 18  2  0
 20 12  1  0
 21 20  2  0
 23 22  1  6
 23 24  1  0
 23 25  1  0
 25 27  1  0
 25 26  1  1
 26 20  1  0
 27 29  1  0
 28 27  2  0
M  END
$$$$
