HFV.pdb
     RDKit          3D

 29 30  0  0  1  0  0  0  0  0999 V2000
   28.5797  -20.7729  -14.8171 N   0  0  0  0  0  0  0  0  0  0  0  0
   27.7306  -19.8268  -14.1513 C   0  0  1  0  0  0  0  0  0  0  0  0
   27.0050  -18.9197  -15.1247 C   0  0  0  0  0  0  0  0  0  0  0  0
   27.9294  -18.0649  -15.9011 C   0  0  0  0  0  0  0  0  0  0  0  0
   28.1733  -18.2461  -17.2562 C   0  0  0  0  0  0  0  0  0  0  0  0
   29.0488  -17.3022  -17.6115 N   0  0  0  0  0  0  0  0  0  0  0  0
   29.3388  -16.5626  -16.5217 C   0  0  0  0  0  0  0  0  0  0  0  0
   28.6491  -17.0269  -15.4516 N   0  0  0  0  0  0  0  0  0  0  0  0
   26.6864  -20.5666  -13.4000 C   0  0  0  0  0  0  0  0  0  0  0  0
   26.2533  -21.6467  -13.8469 O   0  0  0  0  0  0  0  0  0  0  0  0
   26.1486  -20.0905  -12.1721 N   0  0  0  0  0  0  0  0  0  0  0  0
   25.0953  -20.8448  -11.5241 C   0  0  1  0  0  0  0  0  0  0  0  0
   24.9729  -20.4963  -10.0617 C   0  0  0  0  0  0  0  0  0  0  0  0
   26.2214  -20.6533   -9.3115 C   0  0  0  0  0  0  0  0  0  0  0  0
   26.4768  -19.8519   -8.2239 C   0  0  0  0  0  0  0  0  0  0  0  0
   27.6377  -19.9649   -7.4895 C   0  0  0  0  0  0  0  0  0  0  0  0
   28.5870  -20.8968   -7.8298 C   0  0  0  0  0  0  0  0  0  0  0  0
   28.3491  -21.7091   -8.9166 C   0  0  0  0  0  0  0  0  0  0  0  0
   27.1684  -21.5919   -9.6609 C   0  0  0  0  0  0  0  0  0  0  0  0
   23.7700  -20.5577  -12.1495 C   0  0  0  0  0  0  0  0  0  0  0  0
   23.4189  -19.3732  -12.3668 O   0  0  0  0  0  0  0  0  0  0  0  0
   21.4299  -23.7317  -13.9251 C   0  0  0  0  0  0  0  0  0  0  0  0
   21.4486  -22.2976  -14.3825 C   0  0  2  0  0  0  0  0  0  0  0  0
   22.4593  -22.0424  -15.4649 C   0  0  0  0  0  0  0  0  0  0  0  0
   21.6348  -21.3566  -13.2038 C   0  0  2  0  0  0  0  0  0  0  0  0
   22.8688  -21.5906  -12.5175 N   0  0  0  0  0  0  0  0  0  0  0  0
   20.4477  -21.4349  -12.3314 C   0  0  0  0  0  0  0  0  0  0  0  0
   20.6076  -21.9056  -11.1768 O   0  0  0  0  0  0  0  0  0  0  0  0
   19.1857  -21.0232  -12.7123 O   0  0  0  0  0  0  0  0  0  0  0  0
  2  1  1  6
  2  3  1  0
  4  8  1  0
  4  3  1  0
  5  4  2  0
  6  5  1  0
  6  7  1  0
  7  8  2  0
  9  2  1  0
 10  9  2  0
 11  9  1  0
 12 11  1  0
 12 13  1  1
 13 14  1  0
 14 15  2  0
 15 16  1  0
 17 16  2  0
 18 17  1  0
 19 14  1  0
 19 18  2  0
 20 12  1  0
 21 20  2  0
 23 22  1  1
 23 24  1  0
 23 25  1  0
 25 27  1  0
 25 26  1  1
 26 20  1  0
 27 29  1  0
 28 27  2  0
M  END
$$$$
