HFV.pdb
     RDKit          3D

 29 30  0  0  1  0  0  0  0  0999 V2000
   27.8406  -24.0838  -17.1500 N   0  0  0  0  0  0  0  0  0  0  0  0
   27.5804  -22.6877  -16.9432 C   0  0  1  0  0  0  0  0  0  0  0  0
   26.9175  -22.0417  -18.1431 C   0  0  0  0  0  0  0  0  0  0  0  0
   27.8438  -21.8803  -19.2850 C   0  0  0  0  0  0  0  0  0  0  0  0
   27.7623  -22.6438  -20.4423 C   0  0  0  0  0  0  0  0  0  0  0  0
   28.7472  -22.2246  -21.2409 N   0  0  0  0  0  0  0  0  0  0  0  0
   29.4155  -21.2395  -20.6069 C   0  0  0  0  0  0  0  0  0  0  0  0
   28.8634  -21.0160  -19.3898 N   0  0  0  0  0  0  0  0  0  0  0  0
   26.6387  -22.5397  -15.8059 C   0  0  0  0  0  0  0  0  0  0  0  0
   25.7606  -23.4037  -15.6157 O   0  0  0  0  0  0  0  0  0  0  0  0
   26.6943  -21.4376  -14.9082 N   0  0  0  0  0  0  0  0  0  0  0  0
   25.8019  -21.4118  -13.7674 C   0  0  1  0  0  0  0  0  0  0  0  0
   26.3114  -20.5038  -12.6761 C   0  0  0  0  0  0  0  0  0  0  0  0
   25.4848  -20.5140  -11.4667 C   0  0  0  0  0  0  0  0  0  0  0  0
   25.8533  -21.2817  -10.3871 C   0  0  0  0  0  0  0  0  0  0  0  0
   25.1060  -21.3215   -9.2297 C   0  0  0  0  0  0  0  0  0  0  0  0
   23.9534  -20.5830   -9.1212 C   0  0  0  0  0  0  0  0  0  0  0  0
   23.5677  -19.8076  -10.1924 C   0  0  0  0  0  0  0  0  0  0  0  0
   24.3293  -19.7692  -11.3674 C   0  0  0  0  0  0  0  0  0  0  0  0
   24.4519  -20.9055  -14.1562 C   0  0  0  0  0  0  0  0  0  0  0  0
   24.3384  -19.8088  -14.7546 O   0  0  0  0  0  0  0  0  0  0  0  0
   21.0451  -23.3283  -14.7903 C   0  0  0  0  0  0  0  0  0  0  0  0
   21.2136  -21.8856  -15.1856 C   0  0  2  0  0  0  0  0  0  0  0  0
   21.8637  -21.7202  -16.5303 C   0  0  0  0  0  0  0  0  0  0  0  0
   21.9492  -21.1113  -14.1045 C   0  0  2  0  0  0  0  0  0  0  0  0
   23.2636  -21.6276  -13.8718 N   0  0  0  0  0  0  0  0  0  0  0  0
   21.1101  -21.0593  -12.8922 C   0  0  0  0  0  0  0  0  0  0  0  0
   21.4768  -21.7445  -11.9043 O   0  0  0  0  0  0  0  0  0  0  0  0
   19.9569  -20.3065  -12.7876 O   0  0  0  0  0  0  0  0  0  0  0  0
  2  1  1  6
  2  3  1  0
  4  8  1  0
  4  3  1  0
  5  4  2  0
  6  5  1  0
  6  7  1  0
  7  8  2  0
  9  2  1  0
 10  9  2  0
 11  9  1  0
 12 11  1  0
 12 13  1  1
 13 14  1  0
 14 15  2  0
 15 16  1  0
 17 16  2  0
 18 17  1  0
 19 14  1  0
 19 18  2  0
 20 12  1  0
 21 20  2  0
 23 22  1  1
 23 24  1  0
 23 25  1  0
 25 27  1  0
 25 26  1  1
 26 20  1  0
 27 29  1  0
 28 27  2  0
M  END
$$$$
