HFV.pdb
     RDKit          3D

 29 30  0  0  1  0  0  0  0  0999 V2000
   25.8739  -22.0664  -12.6756 N   0  0  0  0  0  0  0  0  0  0  0  0
   25.6286  -20.8585  -11.9405 C   0  0  1  0  0  0  0  0  0  0  0  0
   24.1546  -20.5122  -11.8775 C   0  0  0  0  0  0  0  0  0  0  0  0
   23.6158  -20.0830  -13.1865 C   0  0  0  0  0  0  0  0  0  0  0  0
   22.8399  -20.9042  -13.9942 C   0  0  0  0  0  0  0  0  0  0  0  0
   22.5390  -20.1890  -15.0811 N   0  0  0  0  0  0  0  0  0  0  0  0
   23.1046  -18.9711  -14.9559 C   0  0  0  0  0  0  0  0  0  0  0  0
   23.7770  -18.8927  -13.7820 N   0  0  0  0  0  0  0  0  0  0  0  0
   26.0808  -21.0502  -10.5401 C   0  0  0  0  0  0  0  0  0  0  0  0
   25.8756  -22.1391   -9.9693 O   0  0  0  0  0  0  0  0  0  0  0  0
   26.7491  -20.0300   -9.8081 N   0  0  0  0  0  0  0  0  0  0  0  0
   27.1491  -20.2904   -8.4403 C   0  0  1  0  0  0  0  0  0  0  0  0
   28.2621  -19.3743   -7.9965 C   0  0  0  0  0  0  0  0  0  0  0  0
   28.6281  -19.5311   -6.5866 C   0  0  0  0  0  0  0  0  0  0  0  0
   29.2988  -20.6569   -6.1703 C   0  0  0  0  0  0  0  0  0  0  0  0
   29.6626  -20.8459   -4.8544 C   0  0  0  0  0  0  0  0  0  0  0  0
   29.3599  -19.8992   -3.9071 C   0  0  0  0  0  0  0  0  0  0  0  0
   28.6881  -18.7643   -4.3049 C   0  0  0  0  0  0  0  0  0  0  0  0
   28.3198  -18.5750   -5.6430 C   0  0  0  0  0  0  0  0  0  0  0  0
   26.0096  -20.0736   -7.4999 C   0  0  0  0  0  0  0  0  0  0  0  0
   25.2971  -19.0458   -7.5992 O   0  0  0  0  0  0  0  0  0  0  0  0
   23.9136  -23.1625   -5.4374 C   0  0  0  0  0  0  0  0  0  0  0  0
   23.4895  -21.7414   -5.6955 C   0  0  2  0  0  0  0  0  0  0  0  0
   22.8322  -21.5616   -7.0348 C   0  0  0  0  0  0  0  0  0  0  0  0
   24.6566  -20.7863   -5.5074 C   0  0  2  0  0  0  0  0  0  0  0  0
   25.6896  -21.0011   -6.4743 N   0  0  0  0  0  0  0  0  0  0  0  0
   25.1260  -20.8669   -4.1111 C   0  0  0  0  0  0  0  0  0  0  0  0
   26.3186  -21.2156   -3.9204 O   0  0  0  0  0  0  0  0  0  0  0  0
   24.3335  -20.5827   -3.0163 O   0  0  0  0  0  0  0  0  0  0  0  0
  2  1  1  6
  2  3  1  0
  4  8  1  0
  4  3  1  0
  5  4  2  0
  6  5  1  0
  6  7  1  0
  7  8  2  0
  9  2  1  0
 10  9  2  0
 11  9  1  0
 12 11  1  0
 12 13  1  1
 13 14  1  0
 14 15  2  0
 15 16  1  0
 17 16  2  0
 18 17  1  0
 19 14  1  0
 19 18  2  0
 20 12  1  0
 21 20  2  0
 23 22  1  6
 23 24  1  0
 23 25  1  0
 25 27  1  0
 25 26  1  6
 26 20  1  0
 27 29  1  0
 28 27  2  0
M  END
$$$$
