HFV.pdb
     RDKit          3D

 29 30  0  0  1  0  0  0  0  0999 V2000
   28.5594  -22.6626  -18.5630 N   0  0  0  0  0  0  0  0  0  0  0  0
   28.4792  -21.3575  -17.9715 C   0  0  1  0  0  0  0  0  0  0  0  0
   27.7574  -20.3655  -18.8612 C   0  0  0  0  0  0  0  0  0  0  0  0
   27.7023  -19.0098  -18.2721 C   0  0  0  0  0  0  0  0  0  0  0  0
   28.6828  -18.0495  -18.4844 C   0  0  0  0  0  0  0  0  0  0  0  0
   28.3019  -16.9647  -17.8050 N   0  0  0  0  0  0  0  0  0  0  0  0
   27.1311  -17.2380  -17.1938 C   0  0  0  0  0  0  0  0  0  0  0  0
   26.7477  -18.5066  -17.4765 N   0  0  0  0  0  0  0  0  0  0  0  0
   27.6966  -21.4491  -16.7140 C   0  0  0  0  0  0  0  0  0  0  0  0
   26.7323  -22.2359  -16.6436 O   0  0  0  0  0  0  0  0  0  0  0  0
   28.0027  -20.6663  -15.5664 N   0  0  0  0  0  0  0  0  0  0  0  0
   27.1858  -20.8072  -14.3785 C   0  0  1  0  0  0  0  0  0  0  0  0
   27.8866  -20.2840  -13.1496 C   0  0  0  0  0  0  0  0  0  0  0  0
   27.1206  -20.4616  -11.9135 C   0  0  0  0  0  0  0  0  0  0  0  0
   26.5246  -19.3788  -11.3111 C   0  0  0  0  0  0  0  0  0  0  0  0
   25.7950  -19.4996  -10.1480 C   0  0  0  0  0  0  0  0  0  0  0  0
   25.6409  -20.7255   -9.5487 C   0  0  0  0  0  0  0  0  0  0  0  0
   26.2307  -21.8223  -10.1374 C   0  0  0  0  0  0  0  0  0  0  0  0
   26.9715  -21.6964  -11.3195 C   0  0  0  0  0  0  0  0  0  0  0  0
   25.9129  -20.0378  -14.5110 C   0  0  0  0  0  0  0  0  0  0  0  0
   25.9410  -18.8186  -14.8054 O   0  0  0  0  0  0  0  0  0  0  0  0
   21.3780  -19.4137  -15.7408 C   0  0  0  0  0  0  0  0  0  0  0  0
   22.6637  -20.1945  -15.6855 C   0  0  2  0  0  0  0  0  0  0  0  0
   22.4641  -21.6663  -15.9142 C   0  0  0  0  0  0  0  0  0  0  0  0
   23.4069  -19.9211  -14.3884 C   0  0  2  0  0  0  0  0  0  0  0  0
   24.6425  -20.6393  -14.3138 N   0  0  0  0  0  0  0  0  0  0  0  0
   22.5031  -20.1776  -13.2510 C   0  0  0  0  0  0  0  0  0  0  0  0
   21.5541  -19.3728  -13.0725 O   0  0  0  0  0  0  0  0  0  0  0  0
   22.6436  -21.2426  -12.3829 O   0  0  0  0  0  0  0  0  0  0  0  0
  2  1  1  6
  2  3  1  0
  4  8  1  0
  4  3  1  0
  5  4  2  0
  6  5  1  0
  6  7  1  0
  7  8  2  0
  9  2  1  0
 10  9  2  0
 11  9  1  0
 12 11  1  0
 12 13  1  1
 13 14  1  0
 14 15  2  0
 15 16  1  0
 17 16  2  0
 18 17  1  0
 19 14  1  0
 19 18  2  0
 20 12  1  0
 21 20  2  0
 23 22  1  1
 23 24  1  0
 23 25  1  0
 25 27  1  0
 25 26  1  1
 26 20  1  0
 27 29  1  0
 28 27  2  0
M  END
$$$$
