HSS.pdb
     RDKit          3D

 23 23  0  0  1  0  0  0  0  0999 V2000
   19.6958  -13.1742  -17.5048 N   0  0  0  0  0  0  0  0  0  0  0  0
   19.9568  -11.8339  -17.9611 C   0  0  1  0  0  0  0  0  0  0  0  0
   19.1071  -11.5291  -19.1532 C   0  0  0  0  0  0  0  0  0  0  0  0
   19.5265  -12.4460  -20.2522 C   0  0  0  0  0  0  0  0  0  0  0  0
   18.8119  -13.4527  -20.8665 C   0  0  0  0  0  0  0  0  0  0  0  0
   19.5561  -14.0506  -21.8203 N   0  0  0  0  0  0  0  0  0  0  0  0
   20.7353  -13.4176  -21.8019 C   0  0  0  0  0  0  0  0  0  0  0  0
   20.7433  -12.4531  -20.8723 N   0  0  0  0  0  0  0  0  0  0  0  0
   19.8487  -10.8314  -16.8808 C   0  0  0  0  0  0  0  0  0  0  0  0
   18.7633  -10.7841  -16.2457 O   0  0  0  0  0  0  0  0  0  0  0  0
   21.4458   -7.9852  -13.5056 O   0  0  0  0  0  0  0  0  0  0  0  0
   21.8336   -8.8614  -14.5221 C   0  0  0  0  0  0  0  0  0  0  0  0
   20.6758   -8.9407  -15.4951 C   0  0  2  0  0  0  0  0  0  0  0  0
   20.8655   -9.9326  -16.5143 N   0  0  0  0  0  0  0  0  0  0  0  0
   20.3547   -7.6016  -16.0673 C   0  0  0  0  0  0  0  0  0  0  0  0
   21.0275   -7.1668  -17.0190 O   0  0  0  0  0  0  0  0  0  0  0  0
   16.6942   -6.0117  -15.9459 O   0  0  0  0  0  0  0  0  0  0  0  0
   17.6305   -5.1206  -15.4176 C   0  0  0  0  0  0  0  0  0  0  0  0
   19.0080   -5.4730  -15.9775 C   0  0  2  0  0  0  0  0  0  0  0  0
   19.2945   -6.8250  -15.5377 N   0  0  0  0  0  0  0  0  0  0  0  0
   19.9973   -4.5061  -15.4776 C   0  0  0  0  0  0  0  0  0  0  0  0
   20.9405   -4.8366  -14.7225 O   0  0  0  0  0  0  0  0  0  0  0  0
   19.8843   -3.1816  -15.8536 O   0  0  0  0  0  0  0  0  0  0  0  0
  2  1  1  1
  3  2  1  0
  3  4  1  0
  4  8  1  0
  5  4  2  0
  5  6  1  0
  6  7  1  0
  8  7  2  0
  9  2  1  0
  9 14  1  0
 10  9  2  0
 11 12  1  0
 13 15  1  0
 13 14  1  0
 13 12  1  6
 15 20  1  0
 16 15  2  0
 17 18  1  0
 19 18  1  1
 19 21  1  0
 20 19  1  0
 21 22  2  0
 21 23  1  0
M  END
$$$$
