HSS.pdb
     RDKit          3D

 23 23  0  0  1  0  0  0  0  0999 V2000
   17.4431  -10.6629  -17.2782 N   0  0  0  0  0  0  0  0  0  0  0  0
   17.5271  -10.0016  -16.0022 C   0  0  1  0  0  0  0  0  0  0  0  0
   18.2371  -10.8792  -15.0214 C   0  0  0  0  0  0  0  0  0  0  0  0
   17.4468  -12.1369  -14.8872 C   0  0  0  0  0  0  0  0  0  0  0  0
   16.2151  -12.3325  -14.2988 C   0  0  0  0  0  0  0  0  0  0  0  0
   15.8456  -13.6273  -14.3880 N   0  0  0  0  0  0  0  0  0  0  0  0
   16.8462  -14.2405  -15.0319 C   0  0  0  0  0  0  0  0  0  0  0  0
   17.8166  -13.3705  -15.3416 N   0  0  0  0  0  0  0  0  0  0  0  0
   18.0922   -8.6398  -16.1007 C   0  0  0  0  0  0  0  0  0  0  0  0
   19.2260   -8.5241  -16.6345 O   0  0  0  0  0  0  0  0  0  0  0  0
   17.6669   -3.9430  -16.4682 O   0  0  0  0  0  0  0  0  0  0  0  0
   16.9770   -5.1053  -16.1154 C   0  0  0  0  0  0  0  0  0  0  0  0
   18.0218   -6.1681  -15.8461 C   0  0  2  0  0  0  0  0  0  0  0  0
   17.4577   -7.4717  -15.6435 N   0  0  0  0  0  0  0  0  0  0  0  0
   18.9278   -5.7686  -14.7310 C   0  0  0  0  0  0  0  0  0  0  0  0
   18.5632   -5.9448  -13.5548 O   0  0  0  0  0  0  0  0  0  0  0  0
   22.5595   -6.6676  -14.3212 O   0  0  0  0  0  0  0  0  0  0  0  0
   22.5058   -5.2757  -14.4185 C   0  0  0  0  0  0  0  0  0  0  0  0
   21.1259   -4.8082  -13.9574 C   0  0  2  0  0  0  0  0  0  0  0  0
   20.1943   -5.1930  -15.0002 N   0  0  0  0  0  0  0  0  0  0  0  0
   21.1517   -3.3528  -13.7464 C   0  0  0  0  0  0  0  0  0  0  0  0
   20.5869   -2.5492  -14.5238 O   0  0  0  0  0  0  0  0  0  0  0  0
   21.8240   -2.8498  -12.6494 O   0  0  0  0  0  0  0  0  0  0  0  0
  2  1  1  6
  3  2  1  0
  3  4  1  0
  4  8  1  0
  5  4  2  0
  5  6  1  0
  6  7  1  0
  8  7  2  0
  9  2  1  0
  9 14  1  0
 10  9  2  0
 11 12  1  0
 13 15  1  0
 13 14  1  0
 13 12  1  1
 15 20  1  0
 16 15  2  0
 17 18  1  0
 19 18  1  6
 19 21  1  0
 20 19  1  0
 21 22  2  0
 21 23  1  0
M  END
$$$$
