HSS.pdb
     RDKit          3D

 23 23  0  0  1  0  0  0  0  0999 V2000
   30.8094  -23.8127  -18.0872 N   0  0  0  0  0  0  0  0  0  0  0  0
   29.4369  -23.3832  -18.0202 C   0  0  1  0  0  0  0  0  0  0  0  0
   28.9303  -23.0864  -19.3955 C   0  0  0  0  0  0  0  0  0  0  0  0
   29.6937  -21.9148  -19.9141 C   0  0  0  0  0  0  0  0  0  0  0  0
   29.3118  -20.5920  -19.9916 C   0  0  0  0  0  0  0  0  0  0  0  0
   30.2982  -19.8427  -20.5267 N   0  0  0  0  0  0  0  0  0  0  0  0
   31.2962  -20.6970  -20.7835 C   0  0  0  0  0  0  0  0  0  0  0  0
   30.9595  -21.9434  -20.4260 N   0  0  0  0  0  0  0  0  0  0  0  0
   28.5821  -24.3185  -17.2598 C   0  0  0  0  0  0  0  0  0  0  0  0
   28.9858  -25.5051  -17.1463 O   0  0  0  0  0  0  0  0  0  0  0  0
   25.6853  -22.9052  -15.1503 O   0  0  0  0  0  0  0  0  0  0  0  0
   25.7042  -24.2714  -14.8596 C   0  0  0  0  0  0  0  0  0  0  0  0
   26.5952  -24.9254  -15.8949 C   0  0  2  0  0  0  0  0  0  0  0  0
   27.3579  -23.9794  -16.6578 N   0  0  0  0  0  0  0  0  0  0  0  0
   25.8223  -25.8568  -16.7661 C   0  0  0  0  0  0  0  0  0  0  0  0
   25.4192  -25.4628  -17.8751 O   0  0  0  0  0  0  0  0  0  0  0  0
   24.1297  -30.4051  -17.1403 O   0  0  0  0  0  0  0  0  0  0  0  0
   24.8179  -29.4510  -16.3879 C   0  0  0  0  0  0  0  0  0  0  0  0
   24.7654  -28.1158  -17.1294 C   0  0  2  0  0  0  0  0  0  0  0  0
   25.5453  -27.1801  -16.3422 N   0  0  0  0  0  0  0  0  0  0  0  0
   23.3638  -27.6915  -17.2666 C   0  0  0  0  0  0  0  0  0  0  0  0
   22.7355  -27.1312  -16.3390 O   0  0  0  0  0  0  0  0  0  0  0  0
   22.7125  -27.9182  -18.4636 O   0  0  0  0  0  0  0  0  0  0  0  0
  2  1  1  6
  3  2  1  0
  3  4  1  0
  4  8  1  0
  5  4  2  0
  5  6  1  0
  6  7  1  0
  8  7  2  0
  9  2  1  0
  9 14  1  0
 10  9  2  0
 11 12  1  0
 13 15  1  0
 13 14  1  0
 13 12  1  1
 15 20  1  0
 16 15  2  0
 17 18  1  0
 19 18  1  1
 19 21  1  0
 20 19  1  0
 21 22  2  0
 21 23  1  0
M  END
$$$$
