HSS.pdb
     RDKit          3D

 23 23  0  0  1  0  0  0  0  0999 V2000
   12.5204  -23.1732    0.8673 N   0  0  0  0  0  0  0  0  0  0  0  0
   12.6960  -21.8567    1.4231 C   0  0  1  0  0  0  0  0  0  0  0  0
   11.4103  -21.3831    2.0221 C   0  0  0  0  0  0  0  0  0  0  0  0
   10.4158  -21.2616    0.9173 C   0  0  0  0  0  0  0  0  0  0  0  0
    9.4164  -22.1359    0.5455 C   0  0  0  0  0  0  0  0  0  0  0  0
    8.7310  -21.6530   -0.5119 N   0  0  0  0  0  0  0  0  0  0  0  0
    9.3021  -20.4773   -0.8006 C   0  0  0  0  0  0  0  0  0  0  0  0
   10.3128  -20.2200    0.0400 N   0  0  0  0  0  0  0  0  0  0  0  0
   13.8481  -21.7748    2.3447 C   0  0  0  0  0  0  0  0  0  0  0  0
   14.0091  -22.7272    3.1515 O   0  0  0  0  0  0  0  0  0  0  0  0
   16.3472  -18.5276    2.5619 O   0  0  0  0  0  0  0  0  0  0  0  0
   16.9586  -19.7289    2.9288 C   0  0  0  0  0  0  0  0  0  0  0  0
   15.8491  -20.6780    3.3308 C   0  0  2  0  0  0  0  0  0  0  0  0
   14.7714  -20.7155    2.3843 N   0  0  0  0  0  0  0  0  0  0  0  0
   15.3709  -20.3991    4.7155 C   0  0  0  0  0  0  0  0  0  0  0  0
   14.3996  -19.6406    4.8851 O   0  0  0  0  0  0  0  0  0  0  0  0
   15.6586  -21.7168    9.3486 O   0  0  0  0  0  0  0  0  0  0  0  0
   16.1466  -21.8627    8.0483 C   0  0  0  0  0  0  0  0  0  0  0  0
   15.6398  -20.6941    7.2041 C   0  0  2  0  0  0  0  0  0  0  0  0
   16.0115  -20.9885    5.8335 N   0  0  0  0  0  0  0  0  0  0  0  0
   16.2488  -19.4457    7.6877 C   0  0  0  0  0  0  0  0  0  0  0  0
   15.8296  -18.8398    8.7007 O   0  0  0  0  0  0  0  0  0  0  0  0
   17.3251  -18.9187    7.0003 O   0  0  0  0  0  0  0  0  0  0  0  0
  2  1  1  1
  3  2  1  0
  3  4  1  0
  4  8  1  0
  5  4  2  0
  5  6  1  0
  6  7  1  0
  8  7  2  0
  9  2  1  0
  9 14  1  0
 10  9  2  0
 11 12  1  0
 13 15  1  0
 13 14  1  0
 13 12  1  6
 15 20  1  0
 16 15  2  0
 17 18  1  0
 19 18  1  1
 19 21  1  0
 20 19  1  0
 21 22  2  0
 21 23  1  0
M  END
$$$$
