HSS.pdb
     RDKit          3D

 23 23  0  0  1  0  0  0  0  0999 V2000
   34.3035  -37.1439   -5.9596 N   0  0  0  0  0  0  0  0  0  0  0  0
   33.7541  -36.1275   -5.1007 C   0  0  1  0  0  0  0  0  0  0  0  0
   32.7243  -35.3375   -5.8434 C   0  0  0  0  0  0  0  0  0  0  0  0
   33.4302  -34.5587   -6.9015 C   0  0  0  0  0  0  0  0  0  0  0  0
   33.9230  -33.2717   -6.8526 C   0  0  0  0  0  0  0  0  0  0  0  0
   34.4963  -32.9369   -8.0274 N   0  0  0  0  0  0  0  0  0  0  0  0
   34.3617  -34.0144   -8.8101 C   0  0  0  0  0  0  0  0  0  0  0  0
   33.7271  -34.9987   -8.1598 N   0  0  0  0  0  0  0  0  0  0  0  0
   33.2747  -36.6672   -3.8113 C   0  0  0  0  0  0  0  0  0  0  0  0
   32.3299  -37.4976   -3.8502 O   0  0  0  0  0  0  0  0  0  0  0  0
   34.4460  -35.2908   -0.1074 O   0  0  0  0  0  0  0  0  0  0  0  0
   34.2416  -36.6718   -0.1581 C   0  0  0  0  0  0  0  0  0  0  0  0
   33.3330  -36.9353   -1.3407 C   0  0  2  0  0  0  0  0  0  0  0  0
   33.7956  -36.3214   -2.5522 N   0  0  0  0  0  0  0  0  0  0  0  0
   31.9200  -36.5725   -1.0312 C   0  0  0  0  0  0  0  0  0  0  0  0
   31.4443  -35.5201   -1.4935 O   0  0  0  0  0  0  0  0  0  0  0  0
   30.0202  -38.6173    1.9497 O   0  0  0  0  0  0  0  0  0  0  0  0
   29.1974  -38.3238    0.8603 C   0  0  0  0  0  0  0  0  0  0  0  0
   29.7539  -37.0916    0.1480 C   0  0  2  0  0  0  0  0  0  0  0  0
   31.1196  -37.4133   -0.2189 N   0  0  0  0  0  0  0  0  0  0  0  0
   29.6809  -35.9338    1.0523 C   0  0  0  0  0  0  0  0  0  0  0  0
   30.7020  -35.3555    1.4904 O   0  0  0  0  0  0  0  0  0  0  0  0
   28.4394  -35.4637    1.4349 O   0  0  0  0  0  0  0  0  0  0  0  0
  2  1  1  6
  3  2  1  0
  3  4  1  0
  4  8  1  0
  5  4  2  0
  5  6  1  0
  6  7  1  0
  8  7  2  0
  9  2  1  0
  9 14  1  0
 10  9  2  0
 11 12  1  0
 13 15  1  0
 13 14  1  0
 13 12  1  1
 15 20  1  0
 16 15  2  0
 17 18  1  0
 19 18  1  1
 19 21  1  0
 20 19  1  0
 21 22  2  0
 21 23  1  0
M  END
$$$$
