HSS.pdb
     RDKit          3D

 23 23  0  0  1  0  0  0  0  0999 V2000
   18.6267  -10.0252  -14.8985 N   0  0  0  0  0  0  0  0  0  0  0  0
   19.7963   -9.4962  -15.5503 C   0  0  1  0  0  0  0  0  0  0  0  0
   19.8080   -9.9110  -16.9870 C   0  0  0  0  0  0  0  0  0  0  0  0
   19.8054  -11.4020  -17.0258 C   0  0  0  0  0  0  0  0  0  0  0  0
   18.8588  -12.2576  -17.5486 C   0  0  0  0  0  0  0  0  0  0  0  0
   19.2352  -13.5427  -17.3816 N   0  0  0  0  0  0  0  0  0  0  0  0
   20.4167  -13.4899  -16.7547 C   0  0  0  0  0  0  0  0  0  0  0  0
   20.7801  -12.2203  -16.5303 N   0  0  0  0  0  0  0  0  0  0  0  0
   19.9530   -8.0406  -15.3496 C   0  0  0  0  0  0  0  0  0  0  0  0
   18.9419   -7.3192  -15.5522 O   0  0  0  0  0  0  0  0  0  0  0  0
   22.2426   -6.0493  -12.6674 O   0  0  0  0  0  0  0  0  0  0  0  0
   22.4366   -5.5631  -13.9625 C   0  0  0  0  0  0  0  0  0  0  0  0
   21.2296   -5.9871  -14.7730 C   0  0  2  0  0  0  0  0  0  0  0  0
   21.1435   -7.4082  -14.9509 N   0  0  0  0  0  0  0  0  0  0  0  0
   21.1612   -5.2535  -16.0696 C   0  0  0  0  0  0  0  0  0  0  0  0
   21.7718   -5.7003  -17.0570 O   0  0  0  0  0  0  0  0  0  0  0  0
   18.7621   -2.6369  -19.0672 O   0  0  0  0  0  0  0  0  0  0  0  0
   18.8936   -3.3958  -17.9023 C   0  0  0  0  0  0  0  0  0  0  0  0
   20.3357   -3.2847  -17.4091 C   0  0  2  0  0  0  0  0  0  0  0  0
   20.4097   -4.0578  -16.1843 N   0  0  0  0  0  0  0  0  0  0  0  0
   20.6666   -1.8682  -17.1914 C   0  0  0  0  0  0  0  0  0  0  0  0
   20.6077   -1.3283  -16.0626 O   0  0  0  0  0  0  0  0  0  0  0  0
   21.0578   -1.1009  -18.2716 O   0  0  0  0  0  0  0  0  0  0  0  0
  2  1  1  6
  3  2  1  0
  3  4  1  0
  4  8  1  0
  5  4  2  0
  5  6  1  0
  6  7  1  0
  8  7  2  0
  9  2  1  0
  9 14  1  0
 10  9  2  0
 11 12  1  0
 13 15  1  0
 13 14  1  0
 13 12  1  6
 15 20  1  0
 16 15  2  0
 17 18  1  0
 19 18  1  1
 19 21  1  0
 20 19  1  0
 21 22  2  0
 21 23  1  0
M  END
$$$$
