HSS.pdb
     RDKit          3D

 23 23  0  0  1  0  0  0  0  0999 V2000
   14.7769  -19.5738    3.6455 N   0  0  0  0  0  0  0  0  0  0  0  0
   15.9615  -20.1774    4.1979 C   0  0  1  0  0  0  0  0  0  0  0  0
   17.0011  -20.3226    3.1329 C   0  0  0  0  0  0  0  0  0  0  0  0
   16.4909  -21.3079    2.1362 C   0  0  0  0  0  0  0  0  0  0  0  0
   15.8605  -21.0803    0.9311 C   0  0  0  0  0  0  0  0  0  0  0  0
   15.5561  -22.2472    0.3257 N   0  0  0  0  0  0  0  0  0  0  0  0
   15.9962  -23.2036    1.1523 C   0  0  0  0  0  0  0  0  0  0  0  0
   16.5596  -22.6677    2.2430 N   0  0  0  0  0  0  0  0  0  0  0  0
   16.4438  -19.4836    5.4102 C   0  0  0  0  0  0  0  0  0  0  0  0
   15.9896  -18.3314    5.6334 O   0  0  0  0  0  0  0  0  0  0  0  0
   18.3839  -21.3060    8.5897 O   0  0  0  0  0  0  0  0  0  0  0  0
   17.5747  -20.1821    8.7722 C   0  0  0  0  0  0  0  0  0  0  0  0
   17.7296  -19.3270    7.5319 C   0  0  2  0  0  0  0  0  0  0  0  0
   17.3681  -20.0156    6.3261 N   0  0  0  0  0  0  0  0  0  0  0  0
   19.0939  -18.7303    7.4505 C   0  0  0  0  0  0  0  0  0  0  0  0
   19.9638  -19.2875    6.7574 O   0  0  0  0  0  0  0  0  0  0  0  0
   21.8721  -15.0331    8.9668 O   0  0  0  0  0  0  0  0  0  0  0  0
   20.6261  -15.6634    8.9749 C   0  0  0  0  0  0  0  0  0  0  0  0
   20.7417  -16.9805    8.2086 C   0  0  2  0  0  0  0  0  0  0  0  0
   19.4047  -17.5398    8.1531 N   0  0  0  0  0  0  0  0  0  0  0  0
   21.6850  -17.8671    8.9067 C   0  0  0  0  0  0  0  0  0  0  0  0
   21.3182  -18.6901    9.7768 O   0  0  0  0  0  0  0  0  0  0  0  0
   23.0283  -17.7915    8.5927 O   0  0  0  0  0  0  0  0  0  0  0  0
  2  1  1  6
  3  2  1  0
  3  4  1  0
  4  8  1  0
  5  4  2  0
  5  6  1  0
  6  7  1  0
  8  7  2  0
  9  2  1  0
  9 14  1  0
 10  9  2  0
 11 12  1  0
 13 15  1  0
 13 14  1  0
 13 12  1  1
 15 20  1  0
 16 15  2  0
 17 18  1  0
 19 18  1  1
 19 21  1  0
 20 19  1  0
 21 22  2  0
 21 23  1  0
M  END
$$$$
