NNE.pdb
     RDKit          3D

 26 25  0  0  1  0  0  0  0  0999 V2000
   22.8459  -17.8204  -19.0912 N   0  0  0  0  0  0  0  0  0  0  0  0
   22.0837  -16.9526  -18.2874 C   0  0  0  0  0  0  0  0  0  0  0  0
   20.8368  -17.1010  -18.2550 O   0  0  0  0  0  0  0  0  0  0  0  0
   22.7159  -15.8750  -17.4878 C   0  0  0  0  0  0  0  0  0  0  0  0
   22.8095  -14.5685  -18.2401 C   0  0  2  0  0  0  0  0  0  0  0  0
   23.5392  -14.6889  -19.4615 N   0  0  0  0  0  0  0  0  0  0  0  0
   23.3277  -13.5097  -17.3529 C   0  0  0  0  0  0  0  0  0  0  0  0
   22.6872  -13.1489  -16.3045 O   0  0  0  0  0  0  0  0  0  0  0  0
   26.0551   -9.8947  -15.0345 N   0  0  0  0  0  0  0  0  0  0  0  0
   26.9386  -10.2722  -16.0933 C   0  0  0  0  0  0  0  0  0  0  0  0
   28.0581   -9.7106  -16.1483 O   0  0  0  0  0  0  0  0  0  0  0  0
   26.4488  -11.2934  -17.0296 C   0  0  0  0  0  0  0  0  0  0  0  0
   24.9906  -11.6898  -16.7799 C   0  0  2  0  0  0  0  0  0  0  0  0
   24.5424  -12.7960  -17.5465 N   0  0  0  0  0  0  0  0  0  0  0  0
   24.1883  -10.4682  -16.8520 C   0  0  0  0  0  0  0  0  0  0  0  0
   24.2273   -9.8555  -17.9694 O   0  0  0  0  0  0  0  0  0  0  0  0
   23.4067   -9.9339  -15.8296 N   0  0  0  0  0  0  0  0  0  0  0  0
   22.5882   -8.7379  -16.1181 C   0  0  1  0  0  0  0  0  0  0  0  0
   21.1427   -9.0882  -16.1314 C   0  0  0  0  0  0  0  0  0  0  0  0
   20.2922   -7.9058  -16.4264 C   0  0  0  0  0  0  0  0  0  0  0  0
   18.8324   -8.2646  -16.4498 C   0  0  0  0  0  0  0  0  0  0  0  0
   18.0388   -7.3223  -16.6829 O   0  0  0  0  0  0  0  0  0  0  0  0
   22.8683   -7.7417  -15.0671 C   0  0  0  0  0  0  0  0  0  0  0  0
   23.6891   -8.0607  -13.9616 O   0  0  0  0  0  0  0  0  0  0  0  0
   18.3399   -9.5216  -16.2376 O   0  0  0  0  0  0  0  0  0  0  0  0
   22.4245   -6.5760  -15.0590 O   0  0  0  0  0  0  0  0  0  0  0  0
  2  1  1  0
  2  4  1  0
  3  2  2  0
  5  4  1  0
  5  6  1  6
  7  5  1  0
  8  7  2  0
  9 10  1  0
 10 12  1  0
 11 10  2  0
 13 12  1  6
 13 14  1  0
 14  7  1  0
 15 13  1  0
 15 16  2  0
 17 15  1  0
 18 17  1  0
 19 20  1  0
 18 19  1  1
 20 21  1  0
 21 25  1  0
 21 22  2  0
 23 18  1  0
 24 23  1  0
 26 23  2  0
M  END
$$$$
