NNE.pdb
     RDKit          3D

 26 25  0  0  1  0  0  0  0  0999 V2000
   17.9882  -14.9116  -18.7180 N   0  0  0  0  0  0  0  0  0  0  0  0
   18.8789  -13.8364  -18.8933 C   0  0  0  0  0  0  0  0  0  0  0  0
   19.9522  -14.0384  -19.5137 O   0  0  0  0  0  0  0  0  0  0  0  0
   18.5807  -12.4836  -18.3630 C   0  0  0  0  0  0  0  0  0  0  0  0
   19.7373  -11.8904  -17.5935 C   0  0  2  0  0  0  0  0  0  0  0  0
   20.1647  -12.7235  -16.5155 N   0  0  0  0  0  0  0  0  0  0  0  0
   19.4129  -10.5138  -17.1737 C   0  0  0  0  0  0  0  0  0  0  0  0
   19.0738   -9.6214  -18.0272 O   0  0  0  0  0  0  0  0  0  0  0  0
   16.5298   -9.5921  -15.8400 N   0  0  0  0  0  0  0  0  0  0  0  0
   16.7896   -9.2022  -14.4892 C   0  0  0  0  0  0  0  0  0  0  0  0
   15.8571   -9.3151  -13.6589 O   0  0  0  0  0  0  0  0  0  0  0  0
   18.1388   -8.6997  -14.1947 C   0  0  0  0  0  0  0  0  0  0  0  0
   19.0719   -8.7321  -15.4088 C   0  0  2  0  0  0  0  0  0  0  0  0
   19.4374  -10.0348  -15.8350 N   0  0  0  0  0  0  0  0  0  0  0  0
   20.1631   -7.7935  -15.1451 C   0  0  0  0  0  0  0  0  0  0  0  0
   21.1692   -8.2846  -14.5349 O   0  0  0  0  0  0  0  0  0  0  0  0
   20.1935   -6.4453  -15.4958 N   0  0  0  0  0  0  0  0  0  0  0  0
   21.3966   -5.6555  -15.1607 C   0  0  1  0  0  0  0  0  0  0  0  0
   21.4448   -4.4113  -15.9743 C   0  0  0  0  0  0  0  0  0  0  0  0
   22.6584   -3.6063  -15.6783 C   0  0  0  0  0  0  0  0  0  0  0  0
   22.6734   -2.3192  -16.4549 C   0  0  0  0  0  0  0  0  0  0  0  0
   21.7328   -2.1572  -17.2680 O   0  0  0  0  0  0  0  0  0  0  0  0
   21.3306   -5.3303  -13.7236 C   0  0  0  0  0  0  0  0  0  0  0  0
   22.4967   -4.9961  -12.9983 O   0  0  0  0  0  0  0  0  0  0  0  0
   23.6260   -1.3477  -16.3266 O   0  0  0  0  0  0  0  0  0  0  0  0
   20.2832   -5.3211  -13.0464 O   0  0  0  0  0  0  0  0  0  0  0  0
  2  1  1  0
  2  4  1  0
  3  2  2  0
  5  4  1  0
  5  6  1  1
  7  5  1  0
  8  7  2  0
  9 10  1  0
 10 12  1  0
 11 10  2  0
 13 12  1  1
 13 14  1  0
 14  7  1  0
 15 13  1  0
 15 16  2  0
 17 15  1  0
 18 17  1  0
 19 20  1  0
 18 19  1  6
 20 21  1  0
 21 25  1  0
 21 22  2  0
 23 18  1  0
 24 23  1  0
 26 23  2  0
M  END
$$$$
