NNE.pdb
     RDKit          3D

 26 25  0  0  1  0  0  0  0  0999 V2000
   15.6453  -10.4167  -19.9649 N   0  0  0  0  0  0  0  0  0  0  0  0
   16.8312  -10.6965  -19.2610 C   0  0  0  0  0  0  0  0  0  0  0  0
   17.6861  -11.4460  -19.7951 O   0  0  0  0  0  0  0  0  0  0  0  0
   17.0885  -10.1327  -17.9134 C   0  0  0  0  0  0  0  0  0  0  0  0
   18.5430  -10.2150  -17.5143 C   0  0  2  0  0  0  0  0  0  0  0  0
   18.9994  -11.5609  -17.3760 N   0  0  0  0  0  0  0  0  0  0  0  0
   18.7862   -9.3905  -16.3153 C   0  0  0  0  0  0  0  0  0  0  0  0
   18.6167   -9.8641  -15.1377 O   0  0  0  0  0  0  0  0  0  0  0  0
   22.2634   -6.5667  -13.0349 N   0  0  0  0  0  0  0  0  0  0  0  0
   20.9529   -7.1354  -13.0930 C   0  0  0  0  0  0  0  0  0  0  0  0
   20.1783   -6.9177  -12.1316 O   0  0  0  0  0  0  0  0  0  0  0  0
   20.6306   -7.9310  -14.2858 C   0  0  0  0  0  0  0  0  0  0  0  0
   19.5817   -7.2702  -15.1852 C   0  0  2  0  0  0  0  0  0  0  0  0
   19.2166   -8.0351  -16.3227 N   0  0  0  0  0  0  0  0  0  0  0  0
   20.0191   -5.8949  -15.4273 C   0  0  0  0  0  0  0  0  0  0  0  0
   21.1264   -5.7762  -16.0480 O   0  0  0  0  0  0  0  0  0  0  0  0
   19.3448   -4.7365  -15.0466 N   0  0  0  0  0  0  0  0  0  0  0  0
   19.7988   -3.4423  -15.5966 C   0  0  1  0  0  0  0  0  0  0  0  0
   18.7285   -2.4177  -15.4655 C   0  0  0  0  0  0  0  0  0  0  0  0
   19.1470   -1.1087  -16.0309 C   0  0  0  0  0  0  0  0  0  0  0  0
   18.0662   -0.0731  -15.8911 C   0  0  0  0  0  0  0  0  0  0  0  0
   16.9995   -0.4607  -15.3582 O   0  0  0  0  0  0  0  0  0  0  0  0
   20.9992   -3.0340  -14.8430 C   0  0  0  0  0  0  0  0  0  0  0  0
   21.9481   -2.1516  -15.4075 O   0  0  0  0  0  0  0  0  0  0  0  0
   18.1800    1.2258  -16.3004 O   0  0  0  0  0  0  0  0  0  0  0  0
   21.2742   -3.4147  -13.6875 O   0  0  0  0  0  0  0  0  0  0  0  0
  2  1  1  0
  2  4  1  0
  3  2  2  0
  5  4  1  0
  5  6  1  1
  7  5  1  0
  8  7  2  0
  9 10  1  0
 10 12  1  0
 11 10  2  0
 13 12  1  6
 13 14  1  0
 14  7  1  0
 15 13  1  0
 15 16  2  0
 17 15  1  0
 18 17  1  0
 19 20  1  0
 18 19  1  1
 20 21  1  0
 21 25  1  0
 21 22  2  0
 23 18  1  0
 24 23  1  0
 26 23  2  0
M  END
$$$$
