NNE.pdb
     RDKit          3D

 26 25  0  0  1  0  0  0  0  0999 V2000
   26.8777  -18.3091  -16.2666 N   0  0  0  0  0  0  0  0  0  0  0  0
   28.2408  -18.1925  -15.9372 C   0  0  0  0  0  0  0  0  0  0  0  0
   28.7722  -17.0547  -15.9661 O   0  0  0  0  0  0  0  0  0  0  0  0
   29.0557  -19.3743  -15.5635 C   0  0  0  0  0  0  0  0  0  0  0  0
   28.2500  -20.6515  -15.5293 C   0  0  2  0  0  0  0  0  0  0  0  0
   27.3139  -20.7394  -16.6039 N   0  0  0  0  0  0  0  0  0  0  0  0
   27.6313  -20.8240  -14.2011 C   0  0  0  0  0  0  0  0  0  0  0  0
   28.3101  -21.2491  -13.2020 O   0  0  0  0  0  0  0  0  0  0  0  0
   24.5632  -21.5433  -10.2538 N   0  0  0  0  0  0  0  0  0  0  0  0
   25.6996  -20.6812  -10.1565 C   0  0  0  0  0  0  0  0  0  0  0  0
   26.0578  -20.3135   -9.0126 O   0  0  0  0  0  0  0  0  0  0  0  0
   26.3501  -20.3009  -11.4181 C   0  0  0  0  0  0  0  0  0  0  0  0
   25.6272  -20.8417  -12.6554 C   0  0  2  0  0  0  0  0  0  0  0  0
   26.2713  -20.5528  -13.8858 N   0  0  0  0  0  0  0  0  0  0  0  0
   24.2199  -20.4574  -12.5408 C   0  0  0  0  0  0  0  0  0  0  0  0
   23.9944  -19.2026  -12.5565 O   0  0  0  0  0  0  0  0  0  0  0  0
   23.1360  -21.3246  -12.4197 N   0  0  0  0  0  0  0  0  0  0  0  0
   21.8443  -20.9280  -13.0178 C   0  0  1  0  0  0  0  0  0  0  0  0
   21.4093  -21.9304  -14.0270 C   0  0  0  0  0  0  0  0  0  0  0  0
   20.1342  -21.5362  -14.6806 C   0  0  0  0  0  0  0  0  0  0  0  0
   19.6484  -22.5940  -15.6320 C   0  0  0  0  0  0  0  0  0  0  0  0
   18.5276  -22.3893  -16.1555 O   0  0  0  0  0  0  0  0  0  0  0  0
   20.8574  -20.8335  -11.9257 C   0  0  0  0  0  0  0  0  0  0  0  0
   20.9801  -21.6273  -10.7628 O   0  0  0  0  0  0  0  0  0  0  0  0
   20.3401  -23.7299  -15.9468 O   0  0  0  0  0  0  0  0  0  0  0  0
   19.8665  -20.0760  -11.9293 O   0  0  0  0  0  0  0  0  0  0  0  0
  2  1  1  0
  2  4  1  0
  3  2  2  0
  5  4  1  0
  5  6  1  6
  7  5  1  0
  8  7  2  0
  9 10  1  0
 10 12  1  0
 11 10  2  0
 13 12  1  1
 13 14  1  0
 14  7  1  0
 15 13  1  0
 15 16  2  0
 17 15  1  0
 18 17  1  0
 19 20  1  0
 18 19  1  6
 20 21  1  0
 21 25  1  0
 21 22  2  0
 23 18  1  0
 24 23  1  0
 26 23  2  0
M  END
$$$$
