NNE.pdb
     RDKit          3D

 26 25  0  0  1  0  0  0  0  0999 V2000
   19.6099  -21.2433  -15.0279 N   0  0  0  0  0  0  0  0  0  0  0  0
   20.9372  -21.3774  -15.4756 C   0  0  0  0  0  0  0  0  0  0  0  0
   21.4101  -22.5319  -15.6212 O   0  0  0  0  0  0  0  0  0  0  0  0
   21.7820  -20.1950  -15.7731 C   0  0  0  0  0  0  0  0  0  0  0  0
   21.1037  -18.8909  -15.4256 C   0  0  2  0  0  0  0  0  0  0  0  0
   19.7389  -18.8530  -15.8436 N   0  0  0  0  0  0  0  0  0  0  0  0
   21.9001  -17.7561  -15.9303 C   0  0  0  0  0  0  0  0  0  0  0  0
   23.1583  -17.8686  -16.1401 O   0  0  0  0  0  0  0  0  0  0  0  0
   24.9175  -14.6165  -18.6821 N   0  0  0  0  0  0  0  0  0  0  0  0
   23.4965  -14.6964  -18.8176 C   0  0  0  0  0  0  0  0  0  0  0  0
   22.9231  -13.8093  -19.4930 O   0  0  0  0  0  0  0  0  0  0  0  0
   22.8313  -15.8216  -18.1460 C   0  0  0  0  0  0  0  0  0  0  0  0
   22.1035  -15.4118  -16.8622 C   0  0  2  0  0  0  0  0  0  0  0  0
   21.3909  -16.4624  -16.2293 N   0  0  0  0  0  0  0  0  0  0  0  0
   21.3544  -14.1898  -17.1568 C   0  0  0  0  0  0  0  0  0  0  0  0
   20.2617  -14.3599  -17.7915 O   0  0  0  0  0  0  0  0  0  0  0  0
   21.7252  -12.8920  -16.8108 N   0  0  0  0  0  0  0  0  0  0  0  0
   20.7160  -11.8177  -16.9152 C   0  0  1  0  0  0  0  0  0  0  0  0
   20.8538  -10.8633  -15.7827 C   0  0  0  0  0  0  0  0  0  0  0  0
   19.8513   -9.7690  -15.8597 C   0  0  0  0  0  0  0  0  0  0  0  0
   19.9168   -8.8710  -14.6557 C   0  0  0  0  0  0  0  0  0  0  0  0
   20.4632   -7.7562  -14.8309 O   0  0  0  0  0  0  0  0  0  0  0  0
   20.9307  -11.1275  -18.2009 C   0  0  0  0  0  0  0  0  0  0  0  0
   19.9723  -10.2223  -18.7103 O   0  0  0  0  0  0  0  0  0  0  0  0
   19.4289   -9.1939  -13.4207 O   0  0  0  0  0  0  0  0  0  0  0  0
   21.9357  -11.2742  -18.9250 O   0  0  0  0  0  0  0  0  0  0  0  0
  2  1  1  0
  2  4  1  0
  3  2  2  0
  5  4  1  0
  5  6  1  6
  7  5  1  0
  8  7  2  0
  9 10  1  0
 10 12  1  0
 11 10  2  0
 13 12  1  6
 13 14  1  0
 14  7  1  0
 15 13  1  0
 15 16  2  0
 17 15  1  0
 18 17  1  0
 19 20  1  0
 18 19  1  1
 20 21  1  0
 21 25  1  0
 21 22  2  0
 23 18  1  0
 24 23  1  0
 26 23  2  0
M  END
$$$$
