NNE.pdb
     RDKit          3D

 26 25  0  0  1  0  0  0  0  0999 V2000
   20.2065  -13.4397  -19.1498 N   0  0  0  0  0  0  0  0  0  0  0  0
   20.2790  -13.0768  -17.7921 C   0  0  0  0  0  0  0  0  0  0  0  0
   20.7469  -13.9047  -16.9715 O   0  0  0  0  0  0  0  0  0  0  0  0
   19.8158  -11.7510  -17.3145 C   0  0  0  0  0  0  0  0  0  0  0  0
   19.2070  -11.8084  -15.9334 C   0  0  2  0  0  0  0  0  0  0  0  0
   18.0274  -12.6116  -15.8860 N   0  0  0  0  0  0  0  0  0  0  0  0
   19.0043  -10.4430  -15.4125 C   0  0  0  0  0  0  0  0  0  0  0  0
   18.5093   -9.5184  -16.1472 O   0  0  0  0  0  0  0  0  0  0  0  0
   16.5491   -8.8396  -12.9293 N   0  0  0  0  0  0  0  0  0  0  0  0
   17.4391   -8.8127  -11.8107 C   0  0  0  0  0  0  0  0  0  0  0  0
   16.9470   -8.9707  -10.6685 O   0  0  0  0  0  0  0  0  0  0  0  0
   18.8631   -8.5998  -12.1048 C   0  0  0  0  0  0  0  0  0  0  0  0
   19.1893   -8.6876  -13.5987 C   0  0  2  0  0  0  0  0  0  0  0  0
   19.3201  -10.0099  -14.0953 N   0  0  0  0  0  0  0  0  0  0  0  0
   20.3017   -7.7725  -13.8566 C   0  0  0  0  0  0  0  0  0  0  0  0
   21.4503   -8.1970  -13.5014 O   0  0  0  0  0  0  0  0  0  0  0  0
   20.2127   -6.5112  -14.4419 N   0  0  0  0  0  0  0  0  0  0  0  0
   21.4623   -5.7791  -14.7351 C   0  0  1  0  0  0  0  0  0  0  0  0
   21.7544   -5.8127  -16.1932 C   0  0  0  0  0  0  0  0  0  0  0  0
   22.9843   -5.0478  -16.5262 C   0  0  0  0  0  0  0  0  0  0  0  0
   23.2766   -5.0820  -18.0005 C   0  0  0  0  0  0  0  0  0  0  0  0
   24.0621   -5.9809  -18.3841 O   0  0  0  0  0  0  0  0  0  0  0  0
   21.2828   -4.3888  -14.2765 C   0  0  0  0  0  0  0  0  0  0  0  0
   22.3960   -3.5731  -13.9718 O   0  0  0  0  0  0  0  0  0  0  0  0
   22.7495   -4.2144  -18.9153 O   0  0  0  0  0  0  0  0  0  0  0  0
   20.1782   -3.8303  -14.1226 O   0  0  0  0  0  0  0  0  0  0  0  0
  2  1  1  0
  2  4  1  0
  3  2  2  0
  5  4  1  0
  5  6  1  6
  7  5  1  0
  8  7  2  0
  9 10  1  0
 10 12  1  0
 11 10  2  0
 13 12  1  1
 13 14  1  0
 14  7  1  0
 15 13  1  0
 15 16  2  0
 17 15  1  0
 18 17  1  0
 19 20  1  0
 18 19  1  6
 20 21  1  0
 21 25  1  0
 21 22  2  0
 23 18  1  0
 24 23  1  0
 26 23  2  0
M  END
$$$$
