VVT.pdb
     RDKit          3D

 22 21  0  0  1  0  0  0  0  0999 V2000
   16.4139  -14.0710  -18.7952 C   0  0  0  0  0  0  0  0  0  0  0  0
   17.3618  -14.7181  -17.8440 C   0  0  2  0  0  0  0  0  0  0  0  0
   16.7148  -15.9501  -17.2010 C   0  0  0  0  0  0  0  0  0  0  0  0
   17.8155  -13.8102  -16.7266 C   0  0  2  0  0  0  0  0  0  0  0  0
   16.7589  -13.6822  -15.7839 N   0  0  0  0  0  0  0  0  0  0  0  0
   18.3750  -12.5442  -17.2030 C   0  0  0  0  0  0  0  0  0  0  0  0
   19.3270  -12.5892  -18.0250 O   0  0  0  0  0  0  0  0  0  0  0  0
   16.9153   -8.1240  -16.9202 C   0  0  0  0  0  0  0  0  0  0  0  0
   17.5009   -9.1000  -17.8913 C   0  0  2  0  0  0  0  0  0  0  0  0
   16.4800   -9.9226  -18.6181 C   0  0  0  0  0  0  0  0  0  0  0  0
   18.5173  -10.0216  -17.2579 C   0  0  2  0  0  0  0  0  0  0  0  0
   17.9265  -11.2596  -16.8092 N   0  0  0  0  0  0  0  0  0  0  0  0
   19.0776   -9.3278  -16.0675 C   0  0  0  0  0  0  0  0  0  0  0  0
   18.4391   -9.2489  -14.9713 O   0  0  0  0  0  0  0  0  0  0  0  0
   22.3282  -10.0457  -14.3343 C   0  0  0  0  0  0  0  0  0  0  0  0
   22.3771   -8.5949  -14.7488 C   0  0  1  0  0  0  0  0  0  0  0  0
   23.1108   -8.4506  -15.8995 O   0  0  0  0  0  0  0  0  0  0  0  0
   20.9475   -8.0891  -14.9122 C   0  0  2  0  0  0  0  0  0  0  0  0
   20.3684   -8.7089  -16.0875 N   0  0  0  0  0  0  0  0  0  0  0  0
   20.9462   -6.6190  -14.9988 C   0  0  0  0  0  0  0  0  0  0  0  0
   20.6039   -5.9775  -16.1781 O   0  0  0  0  0  0  0  0  0  0  0  0
   21.2540   -5.9180  -14.0101 O   0  0  0  0  0  0  0  0  0  0  0  0
  2  1  1  6
  2  3  1  0
  4  2  1  0
  4  6  1  0
  4  5  1  1
  6  7  2  0
  6 12  1  0
  9 11  1  0
  9  8  1  1
 10  9  1  0
 11 13  1  0
 11 12  1  1
 13 19  1  0
 13 14  2  0
 16 15  1  6
 16 18  1  0
 17 16  1  0
 18 20  1  0
 18 19  1  6
 20 21  1  0
 22 20  2  0
M  END
$$$$
