VVT.pdb
     RDKit          3D

 22 21  0  0  1  0  0  0  0  0999 V2000
   17.6864   -8.4141  -18.6549 C   0  0  0  0  0  0  0  0  0  0  0  0
   18.8184   -9.2112  -19.2075 C   0  0  2  0  0  0  0  0  0  0  0  0
   18.4576   -9.7621  -20.5918 C   0  0  0  0  0  0  0  0  0  0  0  0
   19.2149  -10.3836  -18.3432 C   0  0  2  0  0  0  0  0  0  0  0  0
   18.1821  -11.3594  -18.3947 N   0  0  0  0  0  0  0  0  0  0  0  0
   19.6283   -9.9924  -16.9945 C   0  0  0  0  0  0  0  0  0  0  0  0
   18.7723  -10.0464  -16.0734 O   0  0  0  0  0  0  0  0  0  0  0  0
   22.9757   -9.5784  -13.4580 C   0  0  0  0  0  0  0  0  0  0  0  0
   22.4729  -10.0258  -14.7944 C   0  0  2  0  0  0  0  0  0  0  0  0
   23.5327  -10.0916  -15.8527 C   0  0  0  0  0  0  0  0  0  0  0  0
   21.3218   -9.1876  -15.3002 C   0  0  2  0  0  0  0  0  0  0  0  0
   20.9274   -9.5535  -16.6395 N   0  0  0  0  0  0  0  0  0  0  0  0
   21.7728   -7.7705  -15.3306 C   0  0  0  0  0  0  0  0  0  0  0  0
   22.7090   -7.3778  -16.0952 O   0  0  0  0  0  0  0  0  0  0  0  0
   19.9006   -4.7563  -16.2308 C   0  0  0  0  0  0  0  0  0  0  0  0
   20.3618   -4.5141  -14.8138 C   0  0  1  0  0  0  0  0  0  0  0  0
   19.3463   -4.7759  -13.9287 O   0  0  0  0  0  0  0  0  0  0  0  0
   21.5906   -5.3783  -14.5498 C   0  0  2  0  0  0  0  0  0  0  0  0
   21.1784   -6.7669  -14.5005 N   0  0  0  0  0  0  0  0  0  0  0  0
   22.2449   -4.9460  -13.3033 C   0  0  0  0  0  0  0  0  0  0  0  0
   22.9237   -3.7400  -13.2391 O   0  0  0  0  0  0  0  0  0  0  0  0
   22.2021   -5.6578  -12.2762 O   0  0  0  0  0  0  0  0  0  0  0  0
  2  1  1  1
  2  3  1  0
  4  2  1  0
  4  6  1  0
  4  5  1  1
  6  7  2  0
  6 12  1  0
  9 11  1  0
  9  8  1  1
 10  9  1  0
 11 13  1  0
 11 12  1  6
 13 19  1  0
 13 14  2  0
 16 15  1  6
 16 18  1  0
 17 16  1  0
 18 20  1  0
 18 19  1  1
 20 21  1  0
 22 20  2  0
M  END
$$$$
