VVT.pdb
     RDKit          3D

 22 21  0  0  1  0  0  0  0  0999 V2000
   19.7551  -15.8174  -16.9831 C   0  0  0  0  0  0  0  0  0  0  0  0
   19.2119  -14.9329  -18.0530 C   0  0  2  0  0  0  0  0  0  0  0  0
   19.0402  -15.7179  -19.3585 C   0  0  0  0  0  0  0  0  0  0  0  0
   20.0842  -13.7384  -18.3547 C   0  0  2  0  0  0  0  0  0  0  0  0
   21.2662  -14.1879  -19.0044 N   0  0  0  0  0  0  0  0  0  0  0  0
   20.3076  -12.8786  -17.1912 C   0  0  0  0  0  0  0  0  0  0  0  0
   19.3071  -12.5271  -16.5134 O   0  0  0  0  0  0  0  0  0  0  0  0
   23.4296  -10.7696  -13.9035 C   0  0  0  0  0  0  0  0  0  0  0  0
   23.1357  -11.7585  -14.9871 C   0  0  2  0  0  0  0  0  0  0  0  0
   24.1698  -11.7986  -16.0717 C   0  0  0  0  0  0  0  0  0  0  0  0
   21.7737  -11.5597  -15.6110 C   0  0  2  0  0  0  0  0  0  0  0  0
   21.5722  -12.4057  -16.7627 N   0  0  0  0  0  0  0  0  0  0  0  0
   21.6858  -10.1459  -16.0649 C   0  0  0  0  0  0  0  0  0  0  0  0
   22.3901   -9.7016  -17.0252 O   0  0  0  0  0  0  0  0  0  0  0  0
   18.9678   -8.3757  -17.5564 C   0  0  0  0  0  0  0  0  0  0  0  0
   19.2624   -7.5599  -16.3207 C   0  0  1  0  0  0  0  0  0  0  0  0
   18.3648   -7.8570  -15.3260 O   0  0  0  0  0  0  0  0  0  0  0  0
   20.7018   -7.8290  -15.8942 C   0  0  2  0  0  0  0  0  0  0  0  0
   20.8030   -9.2037  -15.4464 N   0  0  0  0  0  0  0  0  0  0  0  0
   21.0987   -6.8710  -14.8485 C   0  0  0  0  0  0  0  0  0  0  0  0
   21.2025   -5.5180  -15.1275 O   0  0  0  0  0  0  0  0  0  0  0  0
   21.3505   -7.2579  -13.6864 O   0  0  0  0  0  0  0  0  0  0  0  0
  2  1  1  1
  2  3  1  0
  4  2  1  0
  4  6  1  0
  4  5  1  1
  6  7  2  0
  6 12  1  0
  9 11  1  0
  9  8  1  1
 10  9  1  0
 11 13  1  0
 11 12  1  6
 13 19  1  0
 13 14  2  0
 16 15  1  6
 16 18  1  0
 17 16  1  0
 18 20  1  0
 18 19  1  1
 20 21  1  0
 22 20  2  0
M  END
$$$$
