VVT.pdb
     RDKit          3D

 22 21  0  0  1  0  0  0  0  0999 V2000
   21.9461  -11.3141  -21.8327 C   0  0  0  0  0  0  0  0  0  0  0  0
   21.3636  -10.8377  -20.5460 C   0  0  2  0  0  0  0  0  0  0  0  0
   21.6852   -9.3542  -20.3314 C   0  0  0  0  0  0  0  0  0  0  0  0
   21.8654  -11.5891  -19.3367 C   0  0  2  0  0  0  0  0  0  0  0  0
   21.5406  -12.9651  -19.4863 N   0  0  0  0  0  0  0  0  0  0  0  0
   21.4448  -10.9893  -18.0694 C   0  0  0  0  0  0  0  0  0  0  0  0
   20.2146  -10.9662  -17.8043 O   0  0  0  0  0  0  0  0  0  0  0  0
   23.8967  -10.8001  -14.6127 C   0  0  0  0  0  0  0  0  0  0  0  0
   22.4029  -10.7442  -14.6769 C   0  0  2  0  0  0  0  0  0  0  0  0
   21.7446  -12.0904  -14.7200 C   0  0  0  0  0  0  0  0  0  0  0  0
   21.8948   -9.9093  -15.8294 C   0  0  2  0  0  0  0  0  0  0  0  0
   22.3199  -10.4273  -17.1077 N   0  0  0  0  0  0  0  0  0  0  0  0
   22.4616   -8.5419  -15.6822 C   0  0  0  0  0  0  0  0  0  0  0  0
   23.6760   -8.2832  -15.9537 O   0  0  0  0  0  0  0  0  0  0  0  0
   21.4990   -5.6263  -17.4998 C   0  0  0  0  0  0  0  0  0  0  0  0
   21.3154   -5.1995  -16.0634 C   0  0  1  0  0  0  0  0  0  0  0  0
   19.9907   -5.2634  -15.7108 O   0  0  0  0  0  0  0  0  0  0  0  0
   22.1881   -6.0847  -15.1796 C   0  0  2  0  0  0  0  0  0  0  0  0
   21.6720   -7.4382  -15.2261 N   0  0  0  0  0  0  0  0  0  0  0  0
   22.2176   -5.5456  -13.8094 C   0  0  0  0  0  0  0  0  0  0  0  0
   22.7651   -4.3001  -13.5481 O   0  0  0  0  0  0  0  0  0  0  0  0
   21.7492   -6.2002  -12.8525 O   0  0  0  0  0  0  0  0  0  0  0  0
  2  1  1  6
  2  3  1  0
  4  2  1  0
  4  6  1  0
  4  5  1  6
  6  7  2  0
  6 12  1  0
  9 11  1  0
  9  8  1  6
 10  9  1  0
 11 13  1  0
 11 12  1  6
 13 19  1  0
 13 14  2  0
 16 15  1  6
 16 18  1  0
 17 16  1  0
 18 20  1  0
 18 19  1  1
 20 21  1  0
 22 20  2  0
M  END
$$$$
