VVT.pdb
     RDKit          3D

 22 21  0  0  1  0  0  0  0  0999 V2000
   26.1403  -18.6781  -17.0931 C   0  0  0  0  0  0  0  0  0  0  0  0
   27.0784  -18.2249  -16.0270 C   0  0  2  0  0  0  0  0  0  0  0  0
   28.1587  -17.3126  -16.6191 C   0  0  0  0  0  0  0  0  0  0  0  0
   27.7813  -19.3556  -15.3154 C   0  0  2  0  0  0  0  0  0  0  0  0
   28.6556  -19.9999  -16.2330 N   0  0  0  0  0  0  0  0  0  0  0  0
   26.8645  -20.2486  -14.6049 C   0  0  0  0  0  0  0  0  0  0  0  0
   26.2670  -21.1350  -15.2692 O   0  0  0  0  0  0  0  0  0  0  0  0
   24.8160  -21.8569  -10.3157 C   0  0  0  0  0  0  0  0  0  0  0  0
   25.8006  -20.9899  -11.0350 C   0  0  2  0  0  0  0  0  0  0  0  0
   25.7722  -19.5530  -10.6083 C   0  0  0  0  0  0  0  0  0  0  0  0
   25.6590  -21.0612  -12.5378 C   0  0  2  0  0  0  0  0  0  0  0  0
   26.5930  -20.1946  -13.2157 N   0  0  0  0  0  0  0  0  0  0  0  0
   24.2852  -20.6087  -12.8850 C   0  0  0  0  0  0  0  0  0  0  0  0
   23.9457  -19.3850  -12.8328 O   0  0  0  0  0  0  0  0  0  0  0  0
   19.9116  -21.6182  -14.9378 C   0  0  0  0  0  0  0  0  0  0  0  0
   21.3478  -22.0093  -14.6858 C   0  0  1  0  0  0  0  0  0  0  0  0
   22.0719  -21.9473  -15.8499 O   0  0  0  0  0  0  0  0  0  0  0  0
   21.9168  -21.0946  -13.6062 C   0  0  2  0  0  0  0  0  0  0  0  0
   23.2660  -21.5253  -13.2979 N   0  0  0  0  0  0  0  0  0  0  0  0
   21.0404  -21.1157  -12.4228 C   0  0  0  0  0  0  0  0  0  0  0  0
   20.0704  -20.1436  -12.2403 O   0  0  0  0  0  0  0  0  0  0  0  0
   21.1528  -22.0112  -11.5574 O   0  0  0  0  0  0  0  0  0  0  0  0
  2  1  1  6
  2  3  1  0
  4  2  1  0
  4  6  1  0
  4  5  1  6
  6  7  2  0
  6 12  1  0
  9 11  1  0
  9  8  1  1
 10  9  1  0
 11 13  1  0
 11 12  1  6
 13 19  1  0
 13 14  2  0
 16 15  1  6
 16 18  1  0
 17 16  1  0
 18 20  1  0
 18 19  1  1
 20 21  1  0
 22 20  2  0
M  END
$$$$
