VVT.pdb
     RDKit          3D

 22 21  0  0  1  0  0  0  0  0999 V2000
   21.2246  -19.8977  -17.3753 C   0  0  0  0  0  0  0  0  0  0  0  0
   21.8157  -19.7425  -16.0157 C   0  0  2  0  0  0  0  0  0  0  0  0
   22.2493  -18.2904  -15.7847 C   0  0  0  0  0  0  0  0  0  0  0  0
   23.0210  -20.6186  -15.7736 C   0  0  2  0  0  0  0  0  0  0  0  0
   24.0533  -20.2344  -16.6726 N   0  0  0  0  0  0  0  0  0  0  0  0
   22.7043  -22.0477  -15.7712 C   0  0  0  0  0  0  0  0  0  0  0  0
   22.0743  -22.5167  -16.7546 O   0  0  0  0  0  0  0  0  0  0  0  0
   25.2608  -24.4573  -14.4814 C   0  0  0  0  0  0  0  0  0  0  0  0
   24.0310  -25.1981  -14.9027 C   0  0  2  0  0  0  0  0  0  0  0  0
   24.1066  -25.7650  -16.2884 C   0  0  0  0  0  0  0  0  0  0  0  0
   22.7735  -24.3698  -14.7762 C   0  0  2  0  0  0  0  0  0  0  0  0
   23.0535  -22.9544  -14.7404 N   0  0  0  0  0  0  0  0  0  0  0  0
   22.1176  -24.7358  -13.4923 C   0  0  0  0  0  0  0  0  0  0  0  0
   22.5605  -24.3336  -12.3709 O   0  0  0  0  0  0  0  0  0  0  0  0
   18.3802  -24.3415  -12.5437 C   0  0  0  0  0  0  0  0  0  0  0  0
   18.7690  -25.7958  -12.4299 C   0  0  1  0  0  0  0  0  0  0  0  0
   18.3774  -26.4848  -13.5502 O   0  0  0  0  0  0  0  0  0  0  0  0
   20.2749  -25.8784  -12.2022 C   0  0  2  0  0  0  0  0  0  0  0  0
   20.9495  -25.5622  -13.4454 N   0  0  0  0  0  0  0  0  0  0  0  0
   20.6299  -27.2163  -11.6995 C   0  0  0  0  0  0  0  0  0  0  0  0
   20.1979  -27.6448  -10.4549 O   0  0  0  0  0  0  0  0  0  0  0  0
   21.3287  -27.9943  -12.3849 O   0  0  0  0  0  0  0  0  0  0  0  0
  2  1  1  6
  2  3  1  0
  4  2  1  0
  4  6  1  0
  4  5  1  6
  6  7  2  0
  6 12  1  0
  9 11  1  0
  9  8  1  6
 10  9  1  0
 11 13  1  0
 11 12  1  1
 13 19  1  0
 13 14  2  0
 16 15  1  6
 16 18  1  0
 17 16  1  0
 18 20  1  0
 18 19  1  6
 20 21  1  0
 22 20  2  0
M  END
$$$$
