VVT.pdb
     RDKit          3D

 22 21  0  0  1  0  0  0  0  0999 V2000
   16.4351  -13.1625  -17.2333 C   0  0  0  0  0  0  0  0  0  0  0  0
   17.7981  -12.7454  -16.7971 C   0  0  2  0  0  0  0  0  0  0  0  0
   18.5894  -13.9558  -16.2883 C   0  0  0  0  0  0  0  0  0  0  0  0
   17.7941  -11.7123  -15.6964 C   0  0  2  0  0  0  0  0  0  0  0  0
   16.5467  -11.7728  -15.0171 N   0  0  0  0  0  0  0  0  0  0  0  0
   18.1830  -10.3780  -16.1562 C   0  0  0  0  0  0  0  0  0  0  0  0
   18.6625  -10.2669  -17.3146 O   0  0  0  0  0  0  0  0  0  0  0  0
   16.8245   -6.2880  -14.7721 C   0  0  0  0  0  0  0  0  0  0  0  0
   17.2091   -6.9827  -16.0402 C   0  0  2  0  0  0  0  0  0  0  0  0
   16.0968   -7.7702  -16.6646 C   0  0  0  0  0  0  0  0  0  0  0  0
   18.4163   -7.8771  -15.8778 C   0  0  2  0  0  0  0  0  0  0  0  0
   18.0616   -9.1900  -15.3945 N   0  0  0  0  0  0  0  0  0  0  0  0
   19.3127   -7.2491  -14.8706 C   0  0  0  0  0  0  0  0  0  0  0  0
   19.1482   -7.4210  -13.6220 O   0  0  0  0  0  0  0  0  0  0  0  0
   22.8343   -7.9038  -14.4527 C   0  0  0  0  0  0  0  0  0  0  0  0
   22.7642   -6.4149  -14.6922 C   0  0  1  0  0  0  0  0  0  0  0  0
   23.0511   -6.1272  -16.0030 O   0  0  0  0  0  0  0  0  0  0  0  0
   21.3785   -5.9236  -14.2865 C   0  0  2  0  0  0  0  0  0  0  0  0
   20.4127   -6.4146  -15.2492 N   0  0  0  0  0  0  0  0  0  0  0  0
   21.3781   -4.4537  -14.1959 C   0  0  0  0  0  0  0  0  0  0  0  0
   22.1320   -3.8014  -13.2339 O   0  0  0  0  0  0  0  0  0  0  0  0
   20.6975   -3.7627  -14.9851 O   0  0  0  0  0  0  0  0  0  0  0  0
  2  1  1  1
  2  3  1  0
  4  2  1  0
  4  6  1  0
  4  5  1  6
  6  7  2  0
  6 12  1  0
  9 11  1  0
  9  8  1  1
 10  9  1  0
 11 13  1  0
 11 12  1  1
 13 19  1  0
 13 14  2  0
 16 15  1  6
 16 18  1  0
 17 16  1  0
 18 20  1  0
 18 19  1  6
 20 21  1  0
 22 20  2  0
M  END
$$$$
