VVT.pdb
     RDKit          3D

 22 21  0  0  1  0  0  0  0  0999 V2000
   17.8878  -11.2641  -19.5327 C   0  0  0  0  0  0  0  0  0  0  0  0
   18.3037  -10.7121  -18.2120 C   0  0  2  0  0  0  0  0  0  0  0  0
   18.8393   -9.2849  -18.3747 C   0  0  0  0  0  0  0  0  0  0  0  0
   19.3765  -11.5224  -17.5254 C   0  0  2  0  0  0  0  0  0  0  0  0
   18.8740  -12.8290  -17.2774 N   0  0  0  0  0  0  0  0  0  0  0  0
   19.9501  -10.8494  -16.3588 C   0  0  0  0  0  0  0  0  0  0  0  0
   19.2120  -10.6718  -15.3549 O   0  0  0  0  0  0  0  0  0  0  0  0
   24.1813  -10.3342  -15.8305 C   0  0  0  0  0  0  0  0  0  0  0  0
   23.1830  -10.4012  -14.7180 C   0  0  2  0  0  0  0  0  0  0  0  0
   22.9513  -11.7852  -14.1905 C   0  0  0  0  0  0  0  0  0  0  0  0
   21.8533   -9.7832  -15.0832 C   0  0  2  0  0  0  0  0  0  0  0  0
   21.2824  -10.3773  -16.2682 N   0  0  0  0  0  0  0  0  0  0  0  0
   22.0864   -8.3414  -15.3649 C   0  0  0  0  0  0  0  0  0  0  0  0
   22.7478   -7.9513  -16.3778 O   0  0  0  0  0  0  0  0  0  0  0  0
   19.9074   -5.8038  -16.3605 C   0  0  0  0  0  0  0  0  0  0  0  0
   20.4508   -5.2462  -15.0671 C   0  0  1  0  0  0  0  0  0  0  0  0
   19.5550   -5.4446  -14.0467 O   0  0  0  0  0  0  0  0  0  0  0  0
   21.7980   -5.9031  -14.7843 C   0  0  2  0  0  0  0  0  0  0  0  0
   21.5793   -7.3097  -14.5116 N   0  0  0  0  0  0  0  0  0  0  0  0
   22.4626   -5.2146  -13.6649 C   0  0  0  0  0  0  0  0  0  0  0  0
   22.9025   -3.9075  -13.7959 O   0  0  0  0  0  0  0  0  0  0  0  0
   22.6441   -5.7947  -12.5721 O   0  0  0  0  0  0  0  0  0  0  0  0
  2  1  1  6
  2  3  1  0
  4  2  1  0
  4  6  1  0
  4  5  1  1
  6  7  2  0
  6 12  1  0
  9 11  1  0
  9  8  1  6
 10  9  1  0
 11 13  1  0
 11 12  1  6
 13 19  1  0
 13 14  2  0
 16 15  1  6
 16 18  1  0
 17 16  1  0
 18 20  1  0
 18 19  1  1
 20 21  1  0
 22 20  2  0
M  END
$$$$
