VVT.pdb
     RDKit          3D

 22 21  0  0  1  0  0  0  0  0999 V2000
   16.9390   -8.6177  -17.4386 C   0  0  0  0  0  0  0  0  0  0  0  0
   17.6923   -9.7580  -18.0339 C   0  0  2  0  0  0  0  0  0  0  0  0
   16.8334  -10.4765  -19.0809 C   0  0  0  0  0  0  0  0  0  0  0  0
   18.1311  -10.7899  -17.0233 C   0  0  2  0  0  0  0  0  0  0  0  0
   16.9827  -11.4773  -16.5436 N   0  0  0  0  0  0  0  0  0  0  0  0
   19.0035  -10.2434  -15.9824 C   0  0  0  0  0  0  0  0  0  0  0  0
   18.4975   -9.9897  -14.8583 O   0  0  0  0  0  0  0  0  0  0  0  0
   23.4738   -9.8627  -13.9548 C   0  0  0  0  0  0  0  0  0  0  0  0
   22.5362  -10.3383  -15.0194 C   0  0  2  0  0  0  0  0  0  0  0  0
   23.1430  -10.3825  -16.3896 C   0  0  0  0  0  0  0  0  0  0  0  0
   21.2540   -9.5404  -15.0730 C   0  0  2  0  0  0  0  0  0  0  0  0
   20.3852   -9.9747  -16.1405 N   0  0  0  0  0  0  0  0  0  0  0  0
   21.6150   -8.1205  -15.3302 C   0  0  0  0  0  0  0  0  0  0  0  0
   22.2309   -7.7620  -16.3827 O   0  0  0  0  0  0  0  0  0  0  0  0
   19.7596   -5.3003  -16.1289 C   0  0  0  0  0  0  0  0  0  0  0  0
   20.4141   -4.8650  -14.8399 C   0  0  1  0  0  0  0  0  0  0  0  0
   19.5362   -4.9876  -13.7923 O   0  0  0  0  0  0  0  0  0  0  0  0
   21.6756   -5.6968  -14.6321 C   0  0  2  0  0  0  0  0  0  0  0  0
   21.2896   -7.0756  -14.4072 N   0  0  0  0  0  0  0  0  0  0  0  0
   22.4561   -5.1461  -13.5112 C   0  0  0  0  0  0  0  0  0  0  0  0
   23.0851   -3.9165  -13.6204 O   0  0  0  0  0  0  0  0  0  0  0  0
   22.5680   -5.7761  -12.4370 O   0  0  0  0  0  0  0  0  0  0  0  0
  2  1  1  1
  2  3  1  0
  4  2  1  0
  4  6  1  0
  4  5  1  1
  6  7  2  0
  6 12  1  0
  9 11  1  0
  9  8  1  1
 10  9  1  0
 11 13  1  0
 11 12  1  6
 13 19  1  0
 13 14  2  0
 16 15  1  6
 16 18  1  0
 17 16  1  0
 18 20  1  0
 18 19  1  1
 20 21  1  0
 22 20  2  0
M  END
$$$$
