CPY.pdb
     RDKit          3D

 26 27  0  0  1  0  0  0  0  0999 V2000
   14.7402  -12.2308    3.7101 N   0  0  0  0  0  0  0  0  0  0  0  0
   15.3542  -12.1196    5.0025 C   0  0  1  0  0  0  0  0  0  0  0  0
   14.2705  -12.1009    6.0999 C   0  0  0  0  0  0  0  0  0  0  0  0
   15.1696  -11.8966    7.6697 S   0  0  0  0  0  0  0  0  0  0  0  0
   16.3412  -13.1459    5.3267 C   0  0  0  0  0  0  0  0  0  0  0  0
   16.0833  -14.3555    5.1283 O   0  0  0  0  0  0  0  0  0  0  0  0
   17.6239  -12.8075    5.8771 N   0  0  0  0  0  0  0  0  0  0  0  0
   18.0652  -11.4666    6.0709 C   0  0  0  0  0  0  0  0  0  0  0  0
   19.5043  -11.5459    6.4870 C   0  0  0  0  0  0  0  0  0  0  0  0
   19.6318  -12.9448    7.0461 C   0  0  0  0  0  0  0  0  0  0  0  0
   18.6174  -13.7512    6.2865 C   0  0  1  0  0  0  0  0  0  0  0  0
   18.0724  -14.7428    7.2750 C   0  0  0  0  0  0  0  0  0  0  0  0
   17.2147  -14.3594    8.0912 O   0  0  0  0  0  0  0  0  0  0  0  0
   16.3519  -20.0168    2.7650 O   0  0  0  0  0  0  0  0  0  0  0  0
   16.4045  -19.3983    4.0152 C   0  0  0  0  0  0  0  0  0  0  0  0
   16.1827  -18.0421    4.1429 C   0  0  0  0  0  0  0  0  0  0  0  0
   16.2273  -17.4087    5.3525 C   0  0  0  0  0  0  0  0  0  0  0  0
   16.5029  -18.1122    6.5323 C   0  0  0  0  0  0  0  0  0  0  0  0
   16.5584  -17.4014    7.8309 C   0  0  0  0  0  0  0  0  0  0  0  0
   17.9588  -17.0545    8.2733 C   0  0  2  0  0  0  0  0  0  0  0  0
   18.5005  -16.0873    7.3063 N   0  0  0  0  0  0  0  0  0  0  0  0
   18.7746  -18.2860    8.2743 C   0  0  0  0  0  0  0  0  0  0  0  0
   18.5427  -19.2452    9.2479 O   0  0  0  0  0  0  0  0  0  0  0  0
   16.7231  -19.4666    6.3913 C   0  0  0  0  0  0  0  0  0  0  0  0
   16.6777  -20.1106    5.1622 C   0  0  0  0  0  0  0  0  0  0  0  0
   19.6758  -18.5141    7.4332 O   0  0  0  0  0  0  0  0  0  0  0  0
  2  1  1  6
  2  5  1  0
  3  2  1  0
  4  3  1  0
  5  6  2  0
  7  5  1  0
  7 11  1  0
  8  9  1  0
  8  7  1  0
  9 10  1  0
 10 11  1  0
 11 12  1  1
 12 21  1  0
 13 12  2  0
 15 14  1  0
 16 15  2  0
 17 16  1  0
 18 24  1  0
 18 17  2  0
 19 18  1  0
 20 21  1  0
 20 19  1  6
 22 20  1  0
 22 23  1  0
 24 25  2  0
 25 15  1  0
 26 22  2  0
M  END
$$$$
