CPY.pdb
     RDKit          3D

 26 27  0  0  1  0  0  0  0  0999 V2000
   23.5468  -21.9088  -15.8416 N   0  0  0  0  0  0  0  0  0  0  0  0
   23.8149  -20.9798  -14.7810 C   0  0  1  0  0  0  0  0  0  0  0  0
   22.5314  -20.7311  -13.9626 C   0  0  0  0  0  0  0  0  0  0  0  0
   22.8925  -19.2852  -12.9169 S   0  0  0  0  0  0  0  0  0  0  0  0
   24.8947  -21.3505  -13.8706 C   0  0  0  0  0  0  0  0  0  0  0  0
   24.7975  -22.3774  -13.1600 O   0  0  0  0  0  0  0  0  0  0  0  0
   26.0890  -20.5603  -13.7601 N   0  0  0  0  0  0  0  0  0  0  0  0
   26.3624  -19.4326  -14.5870 C   0  0  0  0  0  0  0  0  0  0  0  0
   27.7680  -19.0078  -14.2798 C   0  0  0  0  0  0  0  0  0  0  0  0
   28.0111  -19.5708  -12.8978 C   0  0  0  0  0  0  0  0  0  0  0  0
   27.1500  -20.7999  -12.8317 C   0  0  1  0  0  0  0  0  0  0  0  0
   26.6503  -20.8631  -11.4162 C   0  0  0  0  0  0  0  0  0  0  0  0
   25.6104  -20.2449  -11.1241 O   0  0  0  0  0  0  0  0  0  0  0  0
   28.5020  -19.1482   -3.0228 O   0  0  0  0  0  0  0  0  0  0  0  0
   28.4915  -19.5230   -4.3674 C   0  0  0  0  0  0  0  0  0  0  0  0
   28.8545  -20.7988   -4.7485 C   0  0  0  0  0  0  0  0  0  0  0  0
   28.8540  -21.1950   -6.0560 C   0  0  0  0  0  0  0  0  0  0  0  0
   28.4815  -20.3168   -7.0820 C   0  0  0  0  0  0  0  0  0  0  0  0
   28.5009  -20.7655   -8.4937 C   0  0  0  0  0  0  0  0  0  0  0  0
   27.1701  -21.2798   -8.9852 C   0  0  2  0  0  0  0  0  0  0  0  0
   27.3196  -21.5973  -10.4138 N   0  0  0  0  0  0  0  0  0  0  0  0
   26.1556  -20.2218   -8.8015 C   0  0  0  0  0  0  0  0  0  0  0  0
   26.2982  -19.0269   -9.4898 O   0  0  0  0  0  0  0  0  0  0  0  0
   28.1213  -19.0448   -6.6882 C   0  0  0  0  0  0  0  0  0  0  0  0
   28.1215  -18.6420   -5.3596 C   0  0  0  0  0  0  0  0  0  0  0  0
   25.1610  -20.3465   -8.0485 O   0  0  0  0  0  0  0  0  0  0  0  0
  2  1  1  6
  2  5  1  0
  3  2  1  0
  4  3  1  0
  5  6  2  0
  7  5  1  0
  7 11  1  0
  8  9  1  0
  8  7  1  0
  9 10  1  0
 10 11  1  0
 11 12  1  1
 12 21  1  0
 13 12  2  0
 15 14  1  0
 16 15  2  0
 17 16  1  0
 18 24  1  0
 18 17  2  0
 19 18  1  0
 20 21  1  0
 20 19  1  6
 22 20  1  0
 22 23  1  0
 24 25  2  0
 25 15  1  0
 26 22  2  0
M  END
$$$$
