CPY.pdb
     RDKit          3D

 26 27  0  0  1  0  0  0  0  0999 V2000
   20.9896  -20.6138  -17.5492 N   0  0  0  0  0  0  0  0  0  0  0  0
   22.4162  -20.7223  -17.4363 C   0  0  1  0  0  0  0  0  0  0  0  0
   23.0663  -19.3376  -17.6341 C   0  0  0  0  0  0  0  0  0  0  0  0
   23.2785  -19.1510  -19.4326 S   0  0  0  0  0  0  0  0  0  0  0  0
   22.9118  -21.3068  -16.1933 C   0  0  0  0  0  0  0  0  0  0  0  0
   22.4275  -20.9557  -15.0928 O   0  0  0  0  0  0  0  0  0  0  0  0
   23.9581  -22.2908  -16.1905 N   0  0  0  0  0  0  0  0  0  0  0  0
   24.4358  -22.9309  -17.3705 C   0  0  0  0  0  0  0  0  0  0  0  0
   25.3832  -24.0038  -16.9214 C   0  0  0  0  0  0  0  0  0  0  0  0
   25.8142  -23.5397  -15.5484 C   0  0  0  0  0  0  0  0  0  0  0  0
   24.6410  -22.7610  -15.0253 C   0  0  1  0  0  0  0  0  0  0  0  0
   25.2324  -21.6315  -14.2304 C   0  0  0  0  0  0  0  0  0  0  0  0
   25.7503  -20.6800  -14.8430 O   0  0  0  0  0  0  0  0  0  0  0  0
   20.6331  -21.4938   -8.5285 O   0  0  0  0  0  0  0  0  0  0  0  0
   21.7037  -21.0303   -9.2950 C   0  0  0  0  0  0  0  0  0  0  0  0
   22.8306  -20.5087   -8.6929 C   0  0  0  0  0  0  0  0  0  0  0  0
   23.8940  -20.0476   -9.4160 C   0  0  0  0  0  0  0  0  0  0  0  0
   23.8913  -20.0824  -10.8165 C   0  0  0  0  0  0  0  0  0  0  0  0
   25.0510  -19.5649  -11.5794 C   0  0  0  0  0  0  0  0  0  0  0  0
   26.0010  -20.6415  -12.0435 C   0  0  2  0  0  0  0  0  0  0  0  0
   25.2188  -21.6164  -12.8192 N   0  0  0  0  0  0  0  0  0  0  0  0
   26.5958  -21.2924  -10.8583 C   0  0  0  0  0  0  0  0  0  0  0  0
   27.4699  -20.5690  -10.0618 O   0  0  0  0  0  0  0  0  0  0  0  0
   22.7593  -20.6055  -11.4062 C   0  0  0  0  0  0  0  0  0  0  0  0
   21.6785  -21.0743  -10.6715 C   0  0  0  0  0  0  0  0  0  0  0  0
   26.3507  -22.4770  -10.5291 O   0  0  0  0  0  0  0  0  0  0  0  0
  2  1  1  1
  2  5  1  0
  3  2  1  0
  4  3  1  0
  5  6  2  0
  7  5  1  0
  7 11  1  0
  8  9  1  0
  8  7  1  0
  9 10  1  0
 10 11  1  0
 11 12  1  1
 12 21  1  0
 13 12  2  0
 15 14  1  0
 16 15  2  0
 17 16  1  0
 18 24  1  0
 18 17  2  0
 19 18  1  0
 20 21  1  0
 20 19  1  1
 22 20  1  0
 22 23  1  0
 24 25  2  0
 25 15  1  0
 26 22  2  0
M  END
$$$$
