CPY.pdb
     RDKit          3D

 26 27  0  0  1  0  0  0  0  0999 V2000
   24.2658  -15.7204  -16.9568 N   0  0  0  0  0  0  0  0  0  0  0  0
   25.4405  -16.0261  -16.1910 C   0  0  1  0  0  0  0  0  0  0  0  0
   25.6358  -14.9706  -15.0834 C   0  0  0  0  0  0  0  0  0  0  0  0
   26.9326  -13.8512  -15.6998 S   0  0  0  0  0  0  0  0  0  0  0  0
   25.4784  -17.3570  -15.5913 C   0  0  0  0  0  0  0  0  0  0  0  0
   24.5885  -17.7120  -14.7844 O   0  0  0  0  0  0  0  0  0  0  0  0
   26.5240  -18.2915  -15.9017 N   0  0  0  0  0  0  0  0  0  0  0  0
   27.5219  -18.0519  -16.8902 C   0  0  0  0  0  0  0  0  0  0  0  0
   28.2992  -19.3272  -17.0310 C   0  0  0  0  0  0  0  0  0  0  0  0
   28.0559  -20.0340  -15.7167 C   0  0  0  0  0  0  0  0  0  0  0  0
   26.6956  -19.5687  -15.2816 C   0  0  1  0  0  0  0  0  0  0  0  0
   26.7699  -19.4578  -13.7851 C   0  0  0  0  0  0  0  0  0  0  0  0
   27.5731  -18.6477  -13.2876 O   0  0  0  0  0  0  0  0  0  0  0  0
   27.4795  -19.8570   -5.2401 O   0  0  0  0  0  0  0  0  0  0  0  0
   26.9929  -19.8712   -6.5483 C   0  0  0  0  0  0  0  0  0  0  0  0
   27.3811  -18.9081   -7.4574 C   0  0  0  0  0  0  0  0  0  0  0  0
   26.9224  -18.8958   -8.7442 C   0  0  0  0  0  0  0  0  0  0  0  0
   26.0275  -19.8694   -9.2068 C   0  0  0  0  0  0  0  0  0  0  0  0
   25.5340  -19.8282  -10.6030 C   0  0  0  0  0  0  0  0  0  0  0  0
   26.3912  -20.6043  -11.5725 C   0  0  2  0  0  0  0  0  0  0  0  0
   25.9621  -20.2392  -12.9314 N   0  0  0  0  0  0  0  0  0  0  0  0
   26.1799  -22.0480  -11.3418 C   0  0  0  0  0  0  0  0  0  0  0  0
   27.1042  -22.7500  -10.5837 O   0  0  0  0  0  0  0  0  0  0  0  0
   25.6469  -20.8260   -8.2886 C   0  0  0  0  0  0  0  0  0  0  0  0
   26.1131  -20.8388   -6.9809 C   0  0  0  0  0  0  0  0  0  0  0  0
   25.1991  -22.6810  -11.7992 O   0  0  0  0  0  0  0  0  0  0  0  0
  2  1  1  1
  2  5  1  0
  3  2  1  0
  4  3  1  0
  5  6  2  0
  7  5  1  0
  7 11  1  0
  8  9  1  0
  8  7  1  0
  9 10  1  0
 10 11  1  0
 11 12  1  1
 12 21  1  0
 13 12  2  0
 15 14  1  0
 16 15  2  0
 17 16  1  0
 18 24  1  0
 18 17  2  0
 19 18  1  0
 20 21  1  0
 20 19  1  1
 22 20  1  0
 22 23  1  0
 24 25  2  0
 25 15  1  0
 26 22  2  0
M  END
$$$$
