CPY.pdb
     RDKit          3D

 26 27  0  0  1  0  0  0  0  0999 V2000
   24.5529  -19.6305   -9.0419 N   0  0  0  0  0  0  0  0  0  0  0  0
   24.7841  -20.6572  -10.0176 C   0  0  1  0  0  0  0  0  0  0  0  0
   23.6737  -21.7243   -9.9315 C   0  0  0  0  0  0  0  0  0  0  0  0
   23.7696  -22.3925   -8.2407 S   0  0  0  0  0  0  0  0  0  0  0  0
   24.9011  -20.2036  -11.4007 C   0  0  0  0  0  0  0  0  0  0  0  0
   24.0425  -19.4324  -11.8875 O   0  0  0  0  0  0  0  0  0  0  0  0
   25.9901  -20.6212  -12.2388 N   0  0  0  0  0  0  0  0  0  0  0  0
   27.0902  -21.3948  -11.7679 C   0  0  0  0  0  0  0  0  0  0  0  0
   28.0806  -21.4590  -12.8928 C   0  0  0  0  0  0  0  0  0  0  0  0
   27.2371  -21.1929  -14.1191 C   0  0  0  0  0  0  0  0  0  0  0  0
   26.1218  -20.3140  -13.6293 C   0  0  1  0  0  0  0  0  0  0  0  0
   24.9091  -20.7326  -14.4113 C   0  0  0  0  0  0  0  0  0  0  0  0
   24.4298  -21.8627  -14.2063 O   0  0  0  0  0  0  0  0  0  0  0  0
   19.4665  -19.6726  -10.8735 O   0  0  0  0  0  0  0  0  0  0  0  0
   20.1049  -19.5497  -12.1088 C   0  0  0  0  0  0  0  0  0  0  0  0
   20.0385  -20.5635  -13.0428 C   0  0  0  0  0  0  0  0  0  0  0  0
   20.6523  -20.4724  -14.2598 C   0  0  0  0  0  0  0  0  0  0  0  0
   21.3856  -19.3347  -14.6213 C   0  0  0  0  0  0  0  0  0  0  0  0
   22.0531  -19.2640  -15.9419 C   0  0  0  0  0  0  0  0  0  0  0  0
   23.1221  -20.3108  -16.1382 C   0  0  2  0  0  0  0  0  0  0  0  0
   24.3004  -19.8890  -15.3651 N   0  0  0  0  0  0  0  0  0  0  0  0
   23.4550  -20.3850  -17.5754 C   0  0  0  0  0  0  0  0  0  0  0  0
   22.5922  -21.0512  -18.4319 O   0  0  0  0  0  0  0  0  0  0  0  0
   21.4448  -18.3288  -13.6792 C   0  0  0  0  0  0  0  0  0  0  0  0
   20.8208  -18.4212  -12.4424 C   0  0  0  0  0  0  0  0  0  0  0  0
   24.4872  -19.8727  -18.0693 O   0  0  0  0  0  0  0  0  0  0  0  0
  2  1  1  1
  2  5  1  0
  3  2  1  0
  4  3  1  0
  5  6  2  0
  7  5  1  0
  7 11  1  0
  8  9  1  0
  8  7  1  0
  9 10  1  0
 10 11  1  0
 11 12  1  6
 12 21  1  0
 13 12  2  0
 15 14  1  0
 16 15  2  0
 17 16  1  0
 18 24  1  0
 18 17  2  0
 19 18  1  0
 20 21  1  0
 20 19  1  6
 22 20  1  0
 22 23  1  0
 24 25  2  0
 25 15  1  0
 26 22  2  0
M  END
$$$$
