CPY.pdb
     RDKit          3D

 26 27  0  0  1  0  0  0  0  0999 V2000
   25.6151  -11.9373  -18.2395 N   0  0  0  0  0  0  0  0  0  0  0  0
   24.2972  -12.0832  -17.6905 C   0  0  1  0  0  0  0  0  0  0  0  0
   24.3622  -12.8796  -16.3712 C   0  0  0  0  0  0  0  0  0  0  0  0
   25.1066  -14.4831  -16.8057 S   0  0  0  0  0  0  0  0  0  0  0  0
   23.5645  -10.8412  -17.4603 C   0  0  0  0  0  0  0  0  0  0  0  0
   24.1243   -9.8724  -16.8973 O   0  0  0  0  0  0  0  0  0  0  0  0
   22.1949  -10.6905  -17.8659 N   0  0  0  0  0  0  0  0  0  0  0  0
   21.4963  -11.6588  -18.6436 C   0  0  0  0  0  0  0  0  0  0  0  0
   20.1736  -11.0474  -19.0001 C   0  0  0  0  0  0  0  0  0  0  0  0
   19.9757   -9.9925  -17.9352 C   0  0  0  0  0  0  0  0  0  0  0  0
   21.3663   -9.5657  -17.5605 C   0  0  1  0  0  0  0  0  0  0  0  0
   21.3172   -9.2924  -16.0839 C   0  0  0  0  0  0  0  0  0  0  0  0
   21.3042  -10.2590  -15.3000 O   0  0  0  0  0  0  0  0  0  0  0  0
   23.5792   -2.2133  -16.5927 O   0  0  0  0  0  0  0  0  0  0  0  0
   23.3337   -3.3917  -15.8859 C   0  0  0  0  0  0  0  0  0  0  0  0
   23.8417   -4.5977  -16.3241 C   0  0  0  0  0  0  0  0  0  0  0  0
   23.6187   -5.7672  -15.6541 C   0  0  0  0  0  0  0  0  0  0  0  0
   22.8566   -5.7984  -14.4790 C   0  0  0  0  0  0  0  0  0  0  0  0
   22.6179   -7.0807  -13.7766 C   0  0  0  0  0  0  0  0  0  0  0  0
   21.2933   -7.7199  -14.1141 C   0  0  2  0  0  0  0  0  0  0  0  0
   21.2855   -7.9816  -15.5617 N   0  0  0  0  0  0  0  0  0  0  0  0
   20.2095   -6.7809  -13.7598 C   0  0  0  0  0  0  0  0  0  0  0  0
   19.5179   -6.1385  -14.7751 O   0  0  0  0  0  0  0  0  0  0  0  0
   22.3542   -4.5868  -14.0517 C   0  0  0  0  0  0  0  0  0  0  0  0
   22.5808   -3.3982  -14.7324 C   0  0  0  0  0  0  0  0  0  0  0  0
   19.8767   -6.5298  -12.5775 O   0  0  0  0  0  0  0  0  0  0  0  0
  2  1  1  1
  2  5  1  0
  3  2  1  0
  4  3  1  0
  5  6  2  0
  7  5  1  0
  7 11  1  0
  8  9  1  0
  8  7  1  0
  9 10  1  0
 10 11  1  0
 11 12  1  1
 12 21  1  0
 13 12  2  0
 15 14  1  0
 16 15  2  0
 17 16  1  0
 18 24  1  0
 18 17  2  0
 19 18  1  0
 20 21  1  0
 20 19  1  6
 22 20  1  0
 22 23  1  0
 24 25  2  0
 25 15  1  0
 26 22  2  0
M  END
$$$$
