CPY.pdb
     RDKit          3D

 26 27  0  0  1  0  0  0  0  0999 V2000
   26.2450  -22.5008  -15.4208 N   0  0  0  0  0  0  0  0  0  0  0  0
   24.9020  -22.2823  -15.8771 C   0  0  1  0  0  0  0  0  0  0  0  0
   24.3243  -23.5895  -16.4572 C   0  0  0  0  0  0  0  0  0  0  0  0
   22.7873  -23.1087  -17.3063 S   0  0  0  0  0  0  0  0  0  0  0  0
   23.9726  -21.7518  -14.8835 C   0  0  0  0  0  0  0  0  0  0  0  0
   23.7351  -22.3935  -13.8344 O   0  0  0  0  0  0  0  0  0  0  0  0
   23.3078  -20.4929  -15.0733 N   0  0  0  0  0  0  0  0  0  0  0  0
   23.5346  -19.6479  -16.1980 C   0  0  0  0  0  0  0  0  0  0  0  0
   22.7974  -18.3696  -15.9282 C   0  0  0  0  0  0  0  0  0  0  0  0
   21.7410  -18.7780  -14.9266 C   0  0  0  0  0  0  0  0  0  0  0  0
   22.3556  -19.9222  -14.1718 C   0  0  1  0  0  0  0  0  0  0  0  0
   21.2229  -20.8665  -13.8840 C   0  0  0  0  0  0  0  0  0  0  0  0
   20.8365  -21.6262  -14.7909 O   0  0  0  0  0  0  0  0  0  0  0  0
   15.4481  -25.7860   -9.1773 O   0  0  0  0  0  0  0  0  0  0  0  0
   16.3965  -24.8487   -9.5903 C   0  0  0  0  0  0  0  0  0  0  0  0
   17.7016  -25.2245   -9.8355 C   0  0  0  0  0  0  0  0  0  0  0  0
   18.6518  -24.3306  -10.2407 C   0  0  0  0  0  0  0  0  0  0  0  0
   18.3440  -22.9768  -10.4285 C   0  0  0  0  0  0  0  0  0  0  0  0
   19.3943  -22.0237  -10.8563 C   0  0  0  0  0  0  0  0  0  0  0  0
   19.4741  -21.8400  -12.3519 C   0  0  2  0  0  0  0  0  0  0  0  0
   20.5876  -20.9182  -12.6248 N   0  0  0  0  0  0  0  0  0  0  0  0
   18.2022  -21.2578  -12.8268 C   0  0  0  0  0  0  0  0  0  0  0  0
   18.0145  -19.8874  -12.7352 O   0  0  0  0  0  0  0  0  0  0  0  0
   17.0366  -22.6138  -10.1799 C   0  0  0  0  0  0  0  0  0  0  0  0
   16.0707  -23.5222   -9.7682 C   0  0  0  0  0  0  0  0  0  0  0  0
   17.2721  -21.9430  -13.3139 O   0  0  0  0  0  0  0  0  0  0  0  0
  2  1  1  1
  2  5  1  0
  3  2  1  0
  4  3  1  0
  5  6  2  0
  7  5  1  0
  7 11  1  0
  8  9  1  0
  8  7  1  0
  9 10  1  0
 10 11  1  0
 11 12  1  6
 12 21  1  0
 13 12  2  0
 15 14  1  0
 16 15  2  0
 17 16  1  0
 18 24  1  0
 18 17  2  0
 19 18  1  0
 20 21  1  0
 20 19  1  1
 22 20  1  0
 22 23  1  0
 24 25  2  0
 25 15  1  0
 26 22  2  0
M  END
$$$$
