CPY.pdb
     RDKit          3D

 26 27  0  0  1  0  0  0  0  0999 V2000
   18.9918  -11.6660  -16.9492 N   0  0  0  0  0  0  0  0  0  0  0  0
   18.6556  -10.3179  -17.3089 C   0  0  1  0  0  0  0  0  0  0  0  0
   17.4244   -9.8507  -16.5059 C   0  0  0  0  0  0  0  0  0  0  0  0
   16.9800   -8.2257  -17.1962 S   0  0  0  0  0  0  0  0  0  0  0  0
   19.7244   -9.3348  -17.1550 C   0  0  0  0  0  0  0  0  0  0  0  0
   20.2162   -9.1078  -16.0256 O   0  0  0  0  0  0  0  0  0  0  0  0
   20.2406   -8.6041  -18.2786 N   0  0  0  0  0  0  0  0  0  0  0  0
   19.8638   -8.8696  -19.6269 C   0  0  0  0  0  0  0  0  0  0  0  0
   20.7513   -8.0255  -20.4931 C   0  0  0  0  0  0  0  0  0  0  0  0
   21.1949   -6.9163  -19.5662 C   0  0  0  0  0  0  0  0  0  0  0  0
   21.1927   -7.5399  -18.1997 C   0  0  1  0  0  0  0  0  0  0  0  0
   20.7408   -6.4541  -17.2647 C   0  0  0  0  0  0  0  0  0  0  0  0
   19.5264   -6.1883  -17.2042 O   0  0  0  0  0  0  0  0  0  0  0  0
   18.8583   -9.1278  -11.4794 O   0  0  0  0  0  0  0  0  0  0  0  0
   19.5381   -8.1024  -12.1391 C   0  0  0  0  0  0  0  0  0  0  0  0
   20.8346   -8.2811  -12.5768 C   0  0  0  0  0  0  0  0  0  0  0  0
   21.5254   -7.2969  -13.2252 C   0  0  0  0  0  0  0  0  0  0  0  0
   20.9451   -6.0473  -13.4792 C   0  0  0  0  0  0  0  0  0  0  0  0
   21.7184   -4.9912  -14.1730 C   0  0  0  0  0  0  0  0  0  0  0  0
   21.1969   -4.6633  -15.5505 C   0  0  2  0  0  0  0  0  0  0  0  0
   21.6452   -5.7308  -16.4581 N   0  0  0  0  0  0  0  0  0  0  0  0
   21.7592   -3.3646  -15.9738 C   0  0  0  0  0  0  0  0  0  0  0  0
   21.2453   -2.1991  -15.4268 O   0  0  0  0  0  0  0  0  0  0  0  0
   19.6492   -5.8812  -13.0366 C   0  0  0  0  0  0  0  0  0  0  0  0
   18.9470   -6.8813  -12.3778 C   0  0  0  0  0  0  0  0  0  0  0  0
   22.6867   -3.2571  -16.8105 O   0  0  0  0  0  0  0  0  0  0  0  0
  2  1  1  1
  2  5  1  0
  3  2  1  0
  4  3  1  0
  5  6  2  0
  7  5  1  0
  7 11  1  0
  8  9  1  0
  8  7  1  0
  9 10  1  0
 10 11  1  0
 11 12  1  1
 12 21  1  0
 13 12  2  0
 15 14  1  0
 16 15  2  0
 17 16  1  0
 18 24  1  0
 18 17  2  0
 19 18  1  0
 20 21  1  0
 20 19  1  1
 22 20  1  0
 22 23  1  0
 24 25  2  0
 25 15  1  0
 26 22  2  0
M  END
$$$$
