CPY.pdb
     RDKit          3D

 26 27  0  0  1  0  0  0  0  0999 V2000
   22.0265  -35.0505  -14.1229 N   0  0  0  0  0  0  0  0  0  0  0  0
   22.8450  -33.9607  -13.6733 C   0  0  1  0  0  0  0  0  0  0  0  0
   21.9545  -32.8125  -13.1562 C   0  0  0  0  0  0  0  0  0  0  0  0
   21.3396  -31.9640  -14.6450 S   0  0  0  0  0  0  0  0  0  0  0  0
   23.8358  -34.2904  -12.6525 C   0  0  0  0  0  0  0  0  0  0  0  0
   23.5192  -35.0009  -11.6707 O   0  0  0  0  0  0  0  0  0  0  0  0
   25.1891  -33.8168  -12.7382 N   0  0  0  0  0  0  0  0  0  0  0  0
   25.6939  -33.0820  -13.8497 C   0  0  0  0  0  0  0  0  0  0  0  0
   27.1715  -32.9402  -13.6332 C   0  0  0  0  0  0  0  0  0  0  0  0
   27.3261  -33.1156  -12.1394 C   0  0  0  0  0  0  0  0  0  0  0  0
   26.1969  -34.0243  -11.7450 C   0  0  1  0  0  0  0  0  0  0  0  0
   25.7535  -33.5475  -10.3909 C   0  0  0  0  0  0  0  0  0  0  0  0
   25.0162  -32.5471  -10.3244 O   0  0  0  0  0  0  0  0  0  0  0  0
   21.7583  -33.6338   -2.6984 O   0  0  0  0  0  0  0  0  0  0  0  0
   22.3462  -33.7817   -3.9557 C   0  0  0  0  0  0  0  0  0  0  0  0
   22.8280  -35.0064   -4.3712 C   0  0  0  0  0  0  0  0  0  0  0  0
   23.4081  -35.1823   -5.5955 C   0  0  0  0  0  0  0  0  0  0  0  0
   23.5428  -34.1178   -6.4963 C   0  0  0  0  0  0  0  0  0  0  0  0
   24.1866  -34.3301   -7.8135 C   0  0  0  0  0  0  0  0  0  0  0  0
   25.6007  -33.8088   -7.8886 C   0  0  2  0  0  0  0  0  0  0  0  0
   26.1448  -34.1952   -9.1996 N   0  0  0  0  0  0  0  0  0  0  0  0
   26.3924  -34.4273   -6.8056 C   0  0  0  0  0  0  0  0  0  0  0  0
   26.5490  -33.7412   -5.6113 O   0  0  0  0  0  0  0  0  0  0  0  0
   23.0577  -32.8992   -6.0692 C   0  0  0  0  0  0  0  0  0  0  0  0
   22.4680  -32.7202   -4.8251 C   0  0  0  0  0  0  0  0  0  0  0  0
   26.9369  -35.5519   -6.9084 O   0  0  0  0  0  0  0  0  0  0  0  0
  2  1  1  1
  2  5  1  0
  3  2  1  0
  4  3  1  0
  5  6  2  0
  7  5  1  0
  7 11  1  0
  8  9  1  0
  8  7  1  0
  9 10  1  0
 10 11  1  0
 11 12  1  1
 12 21  1  0
 13 12  2  0
 15 14  1  0
 16 15  2  0
 17 16  1  0
 18 24  1  0
 18 17  2  0
 19 18  1  0
 20 21  1  0
 20 19  1  6
 22 20  1  0
 22 23  1  0
 24 25  2  0
 25 15  1  0
 26 22  2  0
M  END
$$$$
