PRN.pdb
     RDKit          3D

 27 27  0  0  1  0  0  0  0  0999 V2000
   26.2969  -16.5082  -17.1920 N   0  0  0  0  0  0  0  0  0  0  0  0
   27.1172  -15.5147  -16.5287 C   0  0  0  0  0  0  0  0  0  0  0  0
   27.8455  -16.3846  -15.4974 C   0  0  0  0  0  0  0  0  0  0  0  0
   28.2820  -17.5453  -16.4004 C   0  0  0  0  0  0  0  0  0  0  0  0
   27.0215  -17.7338  -17.2284 C   0  0  1  0  0  0  0  0  0  0  0  0
   26.2311  -18.7982  -16.5657 C   0  0  0  0  0  0  0  0  0  0  0  0
   26.5361  -19.9941  -16.7932 O   0  0  0  0  0  0  0  0  0  0  0  0
   27.0628  -20.8393  -10.0078 N   0  0  0  0  0  0  0  0  0  0  0  0
   25.6372  -20.7773  -10.0430 C   0  0  0  0  0  0  0  0  0  0  0  0
   24.9538  -20.5037   -8.9644 N   0  0  0  0  0  0  0  0  0  0  0  0
   25.0069  -21.0266  -11.3007 N   0  0  0  0  0  0  0  0  0  0  0  0
   25.8544  -21.3852  -12.4150 C   0  0  0  0  0  0  0  0  0  0  0  0
   26.0466  -20.1906  -13.3407 C   0  0  0  0  0  0  0  0  0  0  0  0
   24.6915  -19.6512  -13.6667 C   0  0  0  0  0  0  0  0  0  0  0  0
   24.4014  -19.6397  -15.1484 C   0  0  2  0  0  0  0  0  0  0  0  0
   25.1560  -18.5335  -15.6944 N   0  0  0  0  0  0  0  0  0  0  0  0
   22.9751  -19.5619  -15.4920 C   0  0  0  0  0  0  0  0  0  0  0  0
   22.3543  -18.4755  -15.4726 O   0  0  0  0  0  0  0  0  0  0  0  0
   23.9219  -20.3817   -9.0024 N   0  0  0  0  0  0  0  0  0  0  0  0
   18.1965  -20.8539  -17.1176 C   0  0  0  0  0  0  0  0  0  0  0  0
   19.1007  -21.9225  -17.4638 O   0  0  0  0  0  0  0  0  0  0  0  0
   18.7119  -22.8960  -18.1473 C   0  0  0  0  0  0  0  0  0  0  0  0
   20.4919  -21.8451  -16.9965 C   0  0  2  0  0  0  0  0  0  0  0  0
   20.8256  -20.5874  -16.2407 N   0  0  0  0  0  0  0  0  0  0  0  0
   22.2401  -20.7186  -15.8612 C   0  0  0  0  0  0  0  0  0  0  0  0
   20.0850  -20.5291  -14.9571 O   0  0  0  0  0  0  0  0  0  0  0  0
   20.5500  -21.0812  -13.9224 O   0  0  0  0  0  0  0  0  0  0  0  0
  1  5  1  0
  1  2  1  0
  2  3  1  0
  4  3  1  0
  5  4  1  0
  6  7  2  0
  5  6  1  1
  8  9  1  0
  9 10  2  0
 11 12  1  0
 11  9  1  0
 13 12  1  0
 13 14  1  0
 15 14  1  1
 15 16  1  0
 16  6  1  0
 17 15  1  0
 18 17  2  0
 19 20  1  0
 20 21  2  0
 23 22  1  6
 22 20  1  0
 23 24  1  0
 24 17  1  0
 25 27  1  0
 25 23  1  0
 26 25  2  0
M  END
$$$$
