PRN.pdb
     RDKit          3D

 27 27  0  0  1  0  0  0  0  0999 V2000
   26.8460  -15.4738  -18.5671 N   0  0  0  0  0  0  0  0  0  0  0  0
   27.9516  -14.5375  -18.5402 C   0  0  0  0  0  0  0  0  0  0  0  0
   29.0474  -15.4039  -17.9083 C   0  0  0  0  0  0  0  0  0  0  0  0
   28.8858  -16.6778  -18.7474 C   0  0  0  0  0  0  0  0  0  0  0  0
   27.3701  -16.7774  -18.8003 C   0  0  1  0  0  0  0  0  0  0  0  0
   26.9634  -17.6811  -17.6983 C   0  0  0  0  0  0  0  0  0  0  0  0
   27.3556  -18.8728  -17.7311 O   0  0  0  0  0  0  0  0  0  0  0  0
   26.2780  -21.2449  -11.1107 N   0  0  0  0  0  0  0  0  0  0  0  0
   26.3954  -21.7802  -12.4287 C   0  0  0  0  0  0  0  0  0  0  0  0
   25.8975  -22.9517  -12.7205 N   0  0  0  0  0  0  0  0  0  0  0  0
   27.0757  -20.9796  -13.3970 N   0  0  0  0  0  0  0  0  0  0  0  0
   27.4564  -19.6403  -13.0101 C   0  0  0  0  0  0  0  0  0  0  0  0
   26.2805  -18.6861  -13.1767 C   0  0  0  0  0  0  0  0  0  0  0  0
   26.5700  -17.8169  -14.3575 C   0  0  0  0  0  0  0  0  0  0  0  0
   25.8066  -18.2272  -15.5938 C   0  0  2  0  0  0  0  0  0  0  0  0
   26.1592  -17.2684  -16.6174 N   0  0  0  0  0  0  0  0  0  0  0  0
   24.3529  -18.3320  -15.4087 C   0  0  0  0  0  0  0  0  0  0  0  0
   23.6580  -17.3382  -15.0995 O   0  0  0  0  0  0  0  0  0  0  0  0
   25.9678  -23.3372  -13.6836 N   0  0  0  0  0  0  0  0  0  0  0  0
   20.8527  -21.5348  -13.7777 C   0  0  0  0  0  0  0  0  0  0  0  0
   21.3386  -20.3767  -13.0693 O   0  0  0  0  0  0  0  0  0  0  0  0
   21.1194  -20.2343  -11.8455 C   0  0  0  0  0  0  0  0  0  0  0  0
   22.0988  -19.3642  -13.8154 C   0  0  2  0  0  0  0  0  0  0  0  0
   22.2344  -19.6471  -15.2872 N   0  0  0  0  0  0  0  0  0  0  0  0
   23.6745  -19.5678  -15.5732 C   0  0  0  0  0  0  0  0  0  0  0  0
   21.6203  -18.5640  -16.0930 O   0  0  0  0  0  0  0  0  0  0  0  0
   22.3396  -17.6796  -16.6334 O   0  0  0  0  0  0  0  0  0  0  0  0
  1  5  1  0
  1  2  1  0
  2  3  1  0
  4  3  1  0
  5  4  1  0
  6  7  2  0
  5  6  1  1
  8  9  1  0
  9 10  2  0
 11 12  1  0
 11  9  1  0
 13 12  1  0
 13 14  1  0
 15 14  1  1
 15 16  1  0
 16  6  1  0
 17 15  1  0
 18 17  2  0
 19 20  1  0
 20 21  2  0
 23 22  1  1
 22 20  1  0
 23 24  1  0
 24 17  1  0
 25 27  1  0
 25 23  1  0
 26 25  2  0
M  END
$$$$
