PRN.pdb
     RDKit          3D

 27 27  0  0  1  0  0  0  0  0999 V2000
   25.3373  -21.6144  -16.3763 N   0  0  0  0  0  0  0  0  0  0  0  0
   26.7442  -21.9010  -16.1804 C   0  0  0  0  0  0  0  0  0  0  0  0
   26.6827  -22.8215  -14.9558 C   0  0  0  0  0  0  0  0  0  0  0  0
   25.5610  -23.7686  -15.4003 C   0  0  0  0  0  0  0  0  0  0  0  0
   24.5908  -22.7717  -16.0126 C   0  0  1  0  0  0  0  0  0  0  0  0
   23.6148  -22.4210  -14.9539 C   0  0  0  0  0  0  0  0  0  0  0  0
   23.9673  -21.6068  -14.0662 O   0  0  0  0  0  0  0  0  0  0  0  0
   19.7535  -16.0776  -14.7539 N   0  0  0  0  0  0  0  0  0  0  0  0
   19.6666  -16.6495  -13.4489 C   0  0  0  0  0  0  0  0  0  0  0  0
   19.7688  -15.9011  -12.3837 N   0  0  0  0  0  0  0  0  0  0  0  0
   19.4651  -18.0618  -13.3705 N   0  0  0  0  0  0  0  0  0  0  0  0
   20.5469  -18.9174  -13.8021 C   0  0  0  0  0  0  0  0  0  0  0  0
   20.0156  -20.0380  -14.6870 C   0  0  0  0  0  0  0  0  0  0  0  0
   21.1776  -20.8931  -15.0767 C   0  0  0  0  0  0  0  0  0  0  0  0
   21.2566  -22.1775  -14.2870 C   0  0  2  0  0  0  0  0  0  0  0  0
   22.3127  -22.9560  -14.8953 N   0  0  0  0  0  0  0  0  0  0  0  0
   19.9938  -22.9239  -14.2049 C   0  0  0  0  0  0  0  0  0  0  0  0
   19.3695  -23.2713  -15.2324 O   0  0  0  0  0  0  0  0  0  0  0  0
   19.6710  -16.3095  -11.4324 N   0  0  0  0  0  0  0  0  0  0  0  0
   19.6903  -26.0057  -10.0007 C   0  0  0  0  0  0  0  0  0  0  0  0
   19.1725  -25.7989  -11.3305 O   0  0  0  0  0  0  0  0  0  0  0  0
   19.5508  -26.5145  -12.2849 C   0  0  0  0  0  0  0  0  0  0  0  0
   18.1887  -24.7280  -11.5430 C   0  0  2  0  0  0  0  0  0  0  0  0
   18.2190  -24.1191  -12.9189 N   0  0  0  0  0  0  0  0  0  0  0  0
   19.4279  -23.2829  -12.9538 C   0  0  0  0  0  0  0  0  0  0  0  0
   17.0905  -23.1748  -13.1045 O   0  0  0  0  0  0  0  0  0  0  0  0
   17.2600  -21.9342  -12.9505 O   0  0  0  0  0  0  0  0  0  0  0  0
  1  5  1  0
  1  2  1  0
  2  3  1  0
  4  3  1  0
  5  4  1  0
  6  7  2  0
  5  6  1  1
  8  9  1  0
  9 10  2  0
 11 12  1  0
 11  9  1  0
 13 12  1  0
 13 14  1  0
 15 14  1  6
 15 16  1  0
 16  6  1  0
 17 15  1  0
 18 17  2  0
 19 20  1  0
 20 21  2  0
 23 22  1  6
 22 20  1  0
 23 24  1  0
 24 17  1  0
 25 27  1  0
 25 23  1  0
 26 25  2  0
M  END
$$$$
