PRN.pdb
     RDKit          3D

 27 27  0  0  1  0  0  0  0  0999 V2000
   14.9403  -10.3416  -15.3375 N   0  0  0  0  0  0  0  0  0  0  0  0
   14.1751  -11.4946  -15.7679 C   0  0  0  0  0  0  0  0  0  0  0  0
   15.2100  -12.6112  -15.5860 C   0  0  0  0  0  0  0  0  0  0  0  0
   15.7198  -12.2648  -14.1813 C   0  0  0  0  0  0  0  0  0  0  0  0
   15.8178  -10.7522  -14.2935 C   0  0  1  0  0  0  0  0  0  0  0  0
   17.2173  -10.4422  -14.6699 C   0  0  0  0  0  0  0  0  0  0  0  0
   18.1296  -10.7333  -13.8587 O   0  0  0  0  0  0  0  0  0  0  0  0
   22.6107  -13.3648  -19.4114 N   0  0  0  0  0  0  0  0  0  0  0  0
   23.1047  -12.0589  -19.7085 C   0  0  0  0  0  0  0  0  0  0  0  0
   24.0528  -11.8882  -20.5901 N   0  0  0  0  0  0  0  0  0  0  0  0
   22.5165  -10.9654  -19.0017 N   0  0  0  0  0  0  0  0  0  0  0  0
   21.1564  -11.1214  -18.5387 C   0  0  0  0  0  0  0  0  0  0  0  0
   20.6062   -9.7870  -18.0512 C   0  0  0  0  0  0  0  0  0  0  0  0
   19.2037  -10.0199  -17.5904 C   0  0  0  0  0  0  0  0  0  0  0  0
   18.9675   -9.5718  -16.1680 C   0  0  2  0  0  0  0  0  0  0  0  0
   17.5731   -9.8377  -15.8919 N   0  0  0  0  0  0  0  0  0  0  0  0
   19.3298   -8.1737  -15.8989 C   0  0  0  0  0  0  0  0  0  0  0  0
   18.5594   -7.2300  -16.1851 O   0  0  0  0  0  0  0  0  0  0  0  0
   24.4935  -10.9563  -20.7270 N   0  0  0  0  0  0  0  0  0  0  0  0
   20.8001   -4.2125  -12.5197 C   0  0  0  0  0  0  0  0  0  0  0  0
   21.7852   -5.1056  -13.0774 O   0  0  0  0  0  0  0  0  0  0  0  0
   22.9890   -4.7709  -13.1462 C   0  0  0  0  0  0  0  0  0  0  0  0
   21.3459   -6.4207  -13.5646 C   0  0  1  0  0  0  0  0  0  0  0  0
   20.8656   -6.4274  -14.9908 N   0  0  0  0  0  0  0  0  0  0  0  0
   20.5718   -7.8343  -15.3015 C   0  0  0  0  0  0  0  0  0  0  0  0
   21.9579   -6.0468  -15.9188 O   0  0  0  0  0  0  0  0  0  0  0  0
   22.6723   -6.9310  -16.4660 O   0  0  0  0  0  0  0  0  0  0  0  0
  1  5  1  0
  1  2  1  0
  2  3  1  0
  4  3  1  0
  5  4  1  0
  6  7  2  0
  5  6  1  6
  8  9  1  0
  9 10  2  0
 11 12  1  0
 11  9  1  0
 13 12  1  0
 13 14  1  0
 15 14  1  6
 15 16  1  0
 16  6  1  0
 17 15  1  0
 18 17  2  0
 19 20  1  0
 20 21  2  0
 23 22  1  1
 22 20  1  0
 23 24  1  0
 24 17  1  0
 25 27  1  0
 25 23  1  0
 26 25  2  0
M  END
$$$$
