PRN.pdb
     RDKit          3D

 27 27  0  0  1  0  0  0  0  0999 V2000
   28.1751  -21.4861   -8.4261 N   0  0  0  0  0  0  0  0  0  0  0  0
   29.0828  -20.8459   -7.4954 C   0  0  0  0  0  0  0  0  0  0  0  0
   28.4412  -19.4585   -7.3757 C   0  0  0  0  0  0  0  0  0  0  0  0
   26.9780  -19.8676   -7.1649 C   0  0  0  0  0  0  0  0  0  0  0  0
   26.8619  -20.9927   -8.1802 C   0  0  1  0  0  0  0  0  0  0  0  0
   26.3159  -20.3931   -9.4208 C   0  0  0  0  0  0  0  0  0  0  0  0
   25.2984  -19.6640   -9.3309 O   0  0  0  0  0  0  0  0  0  0  0  0
   27.1073  -18.6325  -17.4779 N   0  0  0  0  0  0  0  0  0  0  0  0
   27.7184  -19.8800  -17.1498 C   0  0  0  0  0  0  0  0  0  0  0  0
   27.7426  -20.8593  -18.0132 N   0  0  0  0  0  0  0  0  0  0  0  0
   28.2933  -19.9992  -15.8472 N   0  0  0  0  0  0  0  0  0  0  0  0
   28.1839  -18.8632  -14.9605 C   0  0  0  0  0  0  0  0  0  0  0  0
   26.9659  -19.0112  -14.0574 C   0  0  0  0  0  0  0  0  0  0  0  0
   27.3936  -19.7760  -12.8467 C   0  0  0  0  0  0  0  0  0  0  0  0
   26.2792  -19.9695  -11.8465 C   0  0  2  0  0  0  0  0  0  0  0  0
   26.8824  -20.6013  -10.6939 N   0  0  0  0  0  0  0  0  0  0  0  0
   25.1262  -20.7256  -12.3539 C   0  0  0  0  0  0  0  0  0  0  0  0
   25.0722  -21.9731  -12.2706 O   0  0  0  0  0  0  0  0  0  0  0  0
   28.0727  -21.8062  -17.7379 N   0  0  0  0  0  0  0  0  0  0  0  0
   20.2899  -21.9353  -13.6896 C   0  0  0  0  0  0  0  0  0  0  0  0
   20.3905  -20.8607  -12.7334 O   0  0  0  0  0  0  0  0  0  0  0  0
   19.3792  -20.4491  -12.1218 C   0  0  0  0  0  0  0  0  0  0  0  0
   21.7082  -20.2568  -12.4907 C   0  0  1  0  0  0  0  0  0  0  0  0
   22.8236  -20.8465  -13.3109 N   0  0  0  0  0  0  0  0  0  0  0  0
   24.0229  -20.0710  -12.9612 C   0  0  0  0  0  0  0  0  0  0  0  0
   22.6081  -20.5940  -14.7563 O   0  0  0  0  0  0  0  0  0  0  0  0
   23.1707  -19.6204  -15.3284 O   0  0  0  0  0  0  0  0  0  0  0  0
  1  5  1  0
  1  2  1  0
  2  3  1  0
  4  3  1  0
  5  4  1  0
  6  7  2  0
  5  6  1  6
  8  9  1  0
  9 10  2  0
 11 12  1  0
 11  9  1  0
 13 12  1  0
 13 14  1  0
 15 14  1  6
 15 16  1  0
 16  6  1  0
 17 15  1  0
 18 17  2  0
 19 20  1  0
 20 21  2  0
 23 22  1  1
 22 20  1  0
 23 24  1  0
 24 17  1  0
 25 27  1  0
 25 23  1  0
 26 25  2  0
M  END
$$$$
