PRN.pdb
     RDKit          3D

 27 27  0  0  1  0  0  0  0  0999 V2000
   27.9156  -21.6718  -14.2617 N   0  0  0  0  0  0  0  0  0  0  0  0
   29.1371  -21.0237  -14.6955 C   0  0  0  0  0  0  0  0  0  0  0  0
   28.9373  -19.6172  -14.1186 C   0  0  0  0  0  0  0  0  0  0  0  0
   28.4946  -19.9817  -12.6959 C   0  0  0  0  0  0  0  0  0  0  0  0
   27.5528  -21.1372  -12.9924 C   0  0  1  0  0  0  0  0  0  0  0  0
   26.1871  -20.5662  -13.0657 C   0  0  0  0  0  0  0  0  0  0  0  0
   25.7415  -19.9598  -12.0613 O   0  0  0  0  0  0  0  0  0  0  0  0
   19.8396  -17.8198  -16.5665 N   0  0  0  0  0  0  0  0  0  0  0  0
   20.5533  -16.7363  -17.1616 C   0  0  0  0  0  0  0  0  0  0  0  0
   19.9157  -15.7242  -17.6852 N   0  0  0  0  0  0  0  0  0  0  0  0
   21.9798  -16.8162  -17.1546 N   0  0  0  0  0  0  0  0  0  0  0  0
   22.5767  -18.1323  -17.1513 C   0  0  0  0  0  0  0  0  0  0  0  0
   22.6059  -18.6975  -15.7368 C   0  0  0  0  0  0  0  0  0  0  0  0
   23.9438  -19.3315  -15.5329 C   0  0  0  0  0  0  0  0  0  0  0  0
   24.0681  -20.0328  -14.2016 C   0  0  2  0  0  0  0  0  0  0  0  0
   25.3659  -20.6706  -14.2059 N   0  0  0  0  0  0  0  0  0  0  0  0
   22.9850  -20.9803  -13.9058 C   0  0  0  0  0  0  0  0  0  0  0  0
   22.9180  -22.0961  -14.4684 O   0  0  0  0  0  0  0  0  0  0  0  0
   20.4317  -14.9509  -18.1510 N   0  0  0  0  0  0  0  0  0  0  0  0
   19.7408  -22.9800   -9.4712 C   0  0  0  0  0  0  0  0  0  0  0  0
   19.4821  -22.2508  -10.6880 O   0  0  0  0  0  0  0  0  0  0  0  0
   18.3875  -22.3643  -11.2838 C   0  0  0  0  0  0  0  0  0  0  0  0
   20.5327  -21.3691  -11.2158 C   0  0  1  0  0  0  0  0  0  0  0  0
   20.9637  -21.6870  -12.6222 N   0  0  0  0  0  0  0  0  0  0  0  0
   21.9669  -20.6689  -12.9671 C   0  0  0  0  0  0  0  0  0  0  0  0
   19.8505  -21.4720  -13.5781 O   0  0  0  0  0  0  0  0  0  0  0  0
   19.6050  -20.3194  -14.0285 O   0  0  0  0  0  0  0  0  0  0  0  0
  1  5  1  0
  1  2  1  0
  2  3  1  0
  4  3  1  0
  5  4  1  0
  6  7  2  0
  5  6  1  6
  8  9  1  0
  9 10  2  0
 11 12  1  0
 11  9  1  0
 13 12  1  0
 13 14  1  0
 15 14  1  6
 15 16  1  0
 16  6  1  0
 17 15  1  0
 18 17  2  0
 19 20  1  0
 20 21  2  0
 23 22  1  1
 22 20  1  0
 23 24  1  0
 24 17  1  0
 25 27  1  0
 25 23  1  0
 26 25  2  0
M  END
$$$$
