PRN.pdb
     RDKit          3D

 27 27  0  0  1  0  0  0  0  0999 V2000
   18.6091  -13.0417  -16.2321 N   0  0  0  0  0  0  0  0  0  0  0  0
   17.1805  -12.8232  -16.1257 C   0  0  0  0  0  0  0  0  0  0  0  0
   17.1205  -11.2914  -16.1552 C   0  0  0  0  0  0  0  0  0  0  0  0
   18.0492  -11.0192  -17.3453 C   0  0  0  0  0  0  0  0  0  0  0  0
   19.1569  -12.0201  -17.0596 C   0  0  1  0  0  0  0  0  0  0  0  0
   20.2103  -11.2896  -16.3159 C   0  0  0  0  0  0  0  0  0  0  0  0
   20.0525  -11.1101  -15.0838 O   0  0  0  0  0  0  0  0  0  0  0  0
   28.3448  -12.3205  -16.6292 N   0  0  0  0  0  0  0  0  0  0  0  0
   27.2254  -12.9791  -16.0369 C   0  0  0  0  0  0  0  0  0  0  0  0
   27.2726  -14.2533  -15.7555 N   0  0  0  0  0  0  0  0  0  0  0  0
   26.0687  -12.1833  -15.7723 N   0  0  0  0  0  0  0  0  0  0  0  0
   26.1045  -10.7955  -16.1740 C   0  0  0  0  0  0  0  0  0  0  0  0
   24.8334  -10.0824  -15.7304 C   0  0  0  0  0  0  0  0  0  0  0  0
   23.7032  -10.6327  -16.5387 C   0  0  0  0  0  0  0  0  0  0  0  0
   22.3569  -10.1000  -16.1104 C   0  0  2  0  0  0  0  0  0  0  0  0
   21.3783  -10.7877  -16.9234 N   0  0  0  0  0  0  0  0  0  0  0  0
   22.2215   -8.6396  -16.1955 C   0  0  0  0  0  0  0  0  0  0  0  0
   22.0137   -8.0628  -17.2865 O   0  0  0  0  0  0  0  0  0  0  0  0
   26.4275  -14.7580  -15.4202 N   0  0  0  0  0  0  0  0  0  0  0  0
   18.6276   -4.6971  -15.5567 C   0  0  0  0  0  0  0  0  0  0  0  0
   20.0490   -4.8971  -15.4195 O   0  0  0  0  0  0  0  0  0  0  0  0
   20.8253   -3.9231  -15.2978 C   0  0  0  0  0  0  0  0  0  0  0  0
   20.5693   -6.2716  -15.4254 C   0  0  1  0  0  0  0  0  0  0  0  0
   22.0446   -6.3799  -15.1492 N   0  0  0  0  0  0  0  0  0  0  0  0
   22.3211   -7.8199  -15.0411 C   0  0  0  0  0  0  0  0  0  0  0  0
   22.3756   -5.8217  -13.8156 O   0  0  0  0  0  0  0  0  0  0  0  0
   22.2908   -6.5386  -12.7810 O   0  0  0  0  0  0  0  0  0  0  0  0
  1  5  1  0
  1  2  1  0
  2  3  1  0
  4  3  1  0
  5  4  1  0
  6  7  2  0
  5  6  1  1
  8  9  1  0
  9 10  2  0
 11 12  1  0
 11  9  1  0
 13 12  1  0
 13 14  1  0
 15 14  1  6
 15 16  1  0
 16  6  1  0
 17 15  1  0
 18 17  2  0
 19 20  1  0
 20 21  2  0
 23 22  1  6
 22 20  1  0
 23 24  1  0
 24 17  1  0
 25 27  1  0
 25 23  1  0
 26 25  2  0
M  END
$$$$
