PRN.pdb
     RDKit          3D

 27 27  0  0  1  0  0  0  0  0999 V2000
   27.6594  -20.2906  -16.1260 N   0  0  0  0  0  0  0  0  0  0  0  0
   27.8552  -19.3972  -17.2501 C   0  0  0  0  0  0  0  0  0  0  0  0
   26.6732  -18.4382  -17.0650 C   0  0  0  0  0  0  0  0  0  0  0  0
   26.8120  -18.1431  -15.5662 C   0  0  0  0  0  0  0  0  0  0  0  0
   27.1246  -19.5355  -15.0432 C   0  0  1  0  0  0  0  0  0  0  0  0
   25.8364  -20.1285  -14.6124 C   0  0  0  0  0  0  0  0  0  0  0  0
   25.2449  -20.9038  -15.4025 O   0  0  0  0  0  0  0  0  0  0  0  0
   24.9802  -21.2169   -7.1913 N   0  0  0  0  0  0  0  0  0  0  0  0
   26.3041  -20.8425   -7.5716 C   0  0  0  0  0  0  0  0  0  0  0  0
   27.3122  -21.0433   -6.7663 N   0  0  0  0  0  0  0  0  0  0  0  0
   26.4658  -20.2457   -8.8597 N   0  0  0  0  0  0  0  0  0  0  0  0
   25.2692  -19.8899   -9.5878 C   0  0  0  0  0  0  0  0  0  0  0  0
   25.0489  -20.8524  -10.7479 C   0  0  0  0  0  0  0  0  0  0  0  0
   23.8610  -20.3683  -11.5149 C   0  0  0  0  0  0  0  0  0  0  0  0
   24.0134  -20.5364  -13.0076 C   0  0  2  0  0  0  0  0  0  0  0  0
   25.2443  -19.8647  -13.3613 N   0  0  0  0  0  0  0  0  0  0  0  0
   22.8718  -20.0551  -13.7972 C   0  0  0  0  0  0  0  0  0  0  0  0
   22.7435  -18.8464  -14.0949 O   0  0  0  0  0  0  0  0  0  0  0  0
   28.2784  -20.7764   -7.0430 N   0  0  0  0  0  0  0  0  0  0  0  0
   18.5036  -19.9689  -16.6389 C   0  0  0  0  0  0  0  0  0  0  0  0
   19.2600  -21.1668  -16.9076 O   0  0  0  0  0  0  0  0  0  0  0  0
   18.9203  -21.9482  -17.8241 C   0  0  0  0  0  0  0  0  0  0  0  0
   20.4414  -21.4522  -16.0813 C   0  0  1  0  0  0  0  0  0  0  0  0
   20.7310  -20.4151  -15.0300 N   0  0  0  0  0  0  0  0  0  0  0  0
   21.8644  -20.9433  -14.2565 C   0  0  0  0  0  0  0  0  0  0  0  0
   19.6131  -20.3182  -14.0603 O   0  0  0  0  0  0  0  0  0  0  0  0
   19.6031  -21.0307  -13.0193 O   0  0  0  0  0  0  0  0  0  0  0  0
  1  5  1  0
  1  2  1  0
  2  3  1  0
  4  3  1  0
  5  4  1  0
  6  7  2  0
  5  6  1  6
  8  9  1  0
  9 10  2  0
 11 12  1  0
 11  9  1  0
 13 12  1  0
 13 14  1  0
 15 14  1  1
 15 16  1  0
 16  6  1  0
 17 15  1  0
 18 17  2  0
 19 20  1  0
 20 21  2  0
 23 22  1  6
 22 20  1  0
 23 24  1  0
 24 17  1  0
 25 27  1  0
 25 23  1  0
 26 25  2  0
M  END
$$$$
