PRN.pdb
     RDKit          3D

 27 27  0  0  1  0  0  0  0  0999 V2000
   18.0323  -16.6574    2.3160 N   0  0  0  0  0  0  0  0  0  0  0  0
   17.0647  -17.1596    1.3613 C   0  0  0  0  0  0  0  0  0  0  0  0
   16.0186  -16.0392    1.3950 C   0  0  0  0  0  0  0  0  0  0  0  0
   16.9419  -14.8198    1.2780 C   0  0  0  0  0  0  0  0  0  0  0  0
   18.0625  -15.2369    2.2162 C   0  0  1  0  0  0  0  0  0  0  0  0
   17.7571  -14.6393    3.5376 C   0  0  0  0  0  0  0  0  0  0  0  0
   17.7045  -13.3885    3.6266 O   0  0  0  0  0  0  0  0  0  0  0  0
   13.3192  -17.5087    4.9049 N   0  0  0  0  0  0  0  0  0  0  0  0
   13.8505  -18.6250    5.6186 C   0  0  0  0  0  0  0  0  0  0  0  0
   13.6695  -19.8429    5.1838 N   0  0  0  0  0  0  0  0  0  0  0  0
   14.5793  -18.3441    6.8150 N   0  0  0  0  0  0  0  0  0  0  0  0
   14.5427  -16.9902    7.3190 C   0  0  0  0  0  0  0  0  0  0  0  0
   15.1890  -16.0360    6.3226 C   0  0  0  0  0  0  0  0  0  0  0  0
   16.5578  -15.7151    6.8295 C   0  0  0  0  0  0  0  0  0  0  0  0
   17.2953  -14.7298    5.9549 C   0  0  2  0  0  0  0  0  0  0  0  0
   17.5234  -15.4053    4.6968 N   0  0  0  0  0  0  0  0  0  0  0  0
   18.5385  -14.2061    6.5370 C   0  0  0  0  0  0  0  0  0  0  0  0
   19.5331  -14.9409    6.7286 O   0  0  0  0  0  0  0  0  0  0  0  0
   13.9999  -20.6611    5.7340 N   0  0  0  0  0  0  0  0  0  0  0  0
   22.4599  -10.8875    7.5667 C   0  0  0  0  0  0  0  0  0  0  0  0
   21.1948  -10.1959    7.5882 O   0  0  0  0  0  0  0  0  0  0  0  0
   21.1108   -9.0252    8.0222 C   0  0  0  0  0  0  0  0  0  0  0  0
   20.0028  -10.8956    7.0887 C   0  0  1  0  0  0  0  0  0  0  0  0
   19.9374  -12.3536    7.4554 N   0  0  0  0  0  0  0  0  0  0  0  0
   18.6633  -12.8416    6.9072 C   0  0  0  0  0  0  0  0  0  0  0  0
   19.8171  -12.5250    8.9236 O   0  0  0  0  0  0  0  0  0  0  0  0
   18.6845  -12.6544    9.4639 O   0  0  0  0  0  0  0  0  0  0  0  0
  1  5  1  0
  1  2  1  0
  2  3  1  0
  4  3  1  0
  5  4  1  0
  6  7  2  0
  5  6  1  1
  8  9  1  0
  9 10  2  0
 11 12  1  0
 11  9  1  0
 13 12  1  0
 13 14  1  0
 15 14  1  1
 15 16  1  0
 16  6  1  0
 17 15  1  0
 18 17  2  0
 19 20  1  0
 20 21  2  0
 23 22  1  6
 22 20  1  0
 23 24  1  0
 24 17  1  0
 25 27  1  0
 25 23  1  0
 26 25  2  0
M  END
$$$$
