SPN.pdb
     RDKit          3D

 22 22  0  0  1  0  0  0  0  0999 V2000
   19.1130  -10.0375  -15.3346 O   0  0  0  0  0  0  0  0  0  0  0  0
   19.6840   -8.7819  -15.1434 C   0  0  0  0  0  0  0  0  0  0  0  0
   20.9565   -8.8783  -14.3383 C   0  0  2  0  0  0  0  0  0  0  0  0
   20.6751   -9.5793  -13.1131 N   0  0  0  0  0  0  0  0  0  0  0  0
   21.5139   -7.5217  -14.1085 C   0  0  0  0  0  0  0  0  0  0  0  0
   21.2762   -7.0325  -12.9440 O   0  0  0  0  0  0  0  0  0  0  0  0
   22.2527   -6.7897  -15.0645 N   0  0  0  0  0  0  0  0  0  0  0  0
   22.6115   -7.2521  -16.3807 C   0  0  0  0  0  0  0  0  0  0  0  0
   23.4285   -6.1810  -17.0434 C   0  0  0  0  0  0  0  0  0  0  0  0
   23.9599   -5.3811  -15.8761 C   0  0  0  0  0  0  0  0  0  0  0  0
   22.7750   -5.4683  -14.9044 C   0  0  1  0  0  0  0  0  0  0  0  0
   21.8076   -4.4157  -15.3183 C   0  0  0  0  0  0  0  0  0  0  0  0
   20.9446   -4.6597  -16.1905 O   0  0  0  0  0  0  0  0  0  0  0  0
   18.7914   -0.4093  -14.4851 N   0  0  0  0  0  0  0  0  0  0  0  0
   18.8287   -1.3914  -13.4518 C   0  0  0  0  0  0  0  0  0  0  0  0
   17.9466   -1.3433  -12.5798 O   0  0  0  0  0  0  0  0  0  0  0  0
   19.9056   -2.4022  -13.4768 C   0  0  0  0  0  0  0  0  0  0  0  0
   20.7839   -2.2143  -14.6664 C   0  0  2  0  0  0  0  0  0  0  0  0
   21.8810   -3.1544  -14.7172 N   0  0  0  0  0  0  0  0  0  0  0  0
   21.2222   -0.8013  -14.8892 C   0  0  0  0  0  0  0  0  0  0  0  0
   22.3652   -0.3036  -14.3006 O   0  0  0  0  0  0  0  0  0  0  0  0
   20.5709   -0.0136  -15.6207 O   0  0  0  0  0  0  0  0  0  0  0  0
  1  2  1  0
  2  3  1  0
  3  4  1  1
  5  3  1  0
  6  5  2  0
  7 11  1  0
  7  5  1  0
  8  7  1  0
  9 10  1  0
  9  8  1  0
 10 11  1  0
 11 12  1  6
 12 13  2  0
 12 19  1  0
 15 14  1  0
 15 17  1  0
 16 15  2  0
 18 17  1  1
 18 20  1  0
 19 18  1  0
 20 21  1  0
 22 20  2  0
M  END
$$$$
