SPN.pdb
     RDKit          3D

 22 22  0  0  1  0  0  0  0  0999 V2000
   20.4927  -13.0014  -18.8931 O   0  0  0  0  0  0  0  0  0  0  0  0
   20.1759  -11.9538  -18.0321 C   0  0  0  0  0  0  0  0  0  0  0  0
   19.9061  -12.4580  -16.6357 C   0  0  2  0  0  0  0  0  0  0  0  0
   18.5719  -12.9961  -16.5896 N   0  0  0  0  0  0  0  0  0  0  0  0
   20.1189  -11.3657  -15.6533 C   0  0  0  0  0  0  0  0  0  0  0  0
   19.0622  -10.6982  -15.3536 O   0  0  0  0  0  0  0  0  0  0  0  0
   21.3653  -11.0493  -15.0687 N   0  0  0  0  0  0  0  0  0  0  0  0
   22.6250  -11.6682  -15.3929 C   0  0  0  0  0  0  0  0  0  0  0  0
   23.6798  -11.0668  -14.5099 C   0  0  0  0  0  0  0  0  0  0  0  0
   22.8849  -10.5230  -13.3448 C   0  0  0  0  0  0  0  0  0  0  0  0
   21.6048  -10.0665  -14.0582 C   0  0  1  0  0  0  0  0  0  0  0  0
   21.8909   -8.7202  -14.6244 C   0  0  0  0  0  0  0  0  0  0  0  0
   22.6313   -8.6013  -15.6258 O   0  0  0  0  0  0  0  0  0  0  0  0
   18.1172   -6.5786  -15.8590 N   0  0  0  0  0  0  0  0  0  0  0  0
   19.5080   -6.2824  -15.9667 C   0  0  0  0  0  0  0  0  0  0  0  0
   20.0901   -6.6233  -17.0086 O   0  0  0  0  0  0  0  0  0  0  0  0
   20.1722   -5.5924  -14.8420 C   0  0  0  0  0  0  0  0  0  0  0  0
   21.4709   -6.2444  -14.5104 C   0  0  2  0  0  0  0  0  0  0  0  0
   21.3197   -7.5955  -14.0191 N   0  0  0  0  0  0  0  0  0  0  0  0
   22.3735   -5.4147  -13.6528 C   0  0  0  0  0  0  0  0  0  0  0  0
   22.7905   -5.8549  -12.4147 O   0  0  0  0  0  0  0  0  0  0  0  0
   22.7889   -4.2882  -14.0247 O   0  0  0  0  0  0  0  0  0  0  0  0
  1  2  1  0
  2  3  1  0
  3  4  1  6
  5  3  1  0
  6  5  2  0
  7 11  1  0
  7  5  1  0
  8  7  1  0
  9 10  1  0
  9  8  1  0
 10 11  1  0
 11 12  1  6
 12 13  2  0
 12 19  1  0
 15 14  1  0
 15 17  1  0
 16 15  2  0
 18 17  1  1
 18 20  1  0
 19 18  1  0
 20 21  1  0
 22 20  2  0
M  END
$$$$
