SPN.pdb
     RDKit          3D

 22 22  0  0  1  0  0  0  0  0999 V2000
   23.3147  -12.9338  -20.4266 O   0  0  0  0  0  0  0  0  0  0  0  0
   23.1482  -12.1356  -19.2979 C   0  0  0  0  0  0  0  0  0  0  0  0
   23.6853  -12.8174  -18.0636 C   0  0  2  0  0  0  0  0  0  0  0  0
   22.9426  -14.0312  -17.8471 N   0  0  0  0  0  0  0  0  0  0  0  0
   23.6215  -11.8911  -16.9054 C   0  0  0  0  0  0  0  0  0  0  0  0
   22.5154  -11.9226  -16.2515 O   0  0  0  0  0  0  0  0  0  0  0  0
   24.6683  -11.0261  -16.5162 N   0  0  0  0  0  0  0  0  0  0  0  0
   25.9929  -11.0049  -17.0820 C   0  0  0  0  0  0  0  0  0  0  0  0
   26.7950   -9.9684  -16.3497 C   0  0  0  0  0  0  0  0  0  0  0  0
   26.0578   -9.8257  -15.0378 C   0  0  0  0  0  0  0  0  0  0  0  0
   24.6074  -10.0221  -15.5000 C   0  0  1  0  0  0  0  0  0  0  0  0
   24.1455   -8.7067  -16.0209 C   0  0  0  0  0  0  0  0  0  0  0  0
   24.3569   -8.3906  -17.2127 O   0  0  0  0  0  0  0  0  0  0  0  0
   20.5970   -5.6075  -17.9869 N   0  0  0  0  0  0  0  0  0  0  0  0
   20.5770   -5.9518  -16.6032 C   0  0  0  0  0  0  0  0  0  0  0  0
   19.9047   -5.2381  -15.8422 O   0  0  0  0  0  0  0  0  0  0  0  0
   21.3507   -7.1285  -16.1570 C   0  0  0  0  0  0  0  0  0  0  0  0
   22.6692   -6.7167  -15.5969 C   0  0  2  0  0  0  0  0  0  0  0  0
   23.4741   -7.8343  -15.1573 N   0  0  0  0  0  0  0  0  0  0  0  0
   22.5895   -5.6248  -14.5772 C   0  0  0  0  0  0  0  0  0  0  0  0
   22.6481   -4.2967  -14.9425 O   0  0  0  0  0  0  0  0  0  0  0  0
   22.4641   -5.8716  -13.3512 O   0  0  0  0  0  0  0  0  0  0  0  0
  1  2  1  0
  2  3  1  0
  3  4  1  1
  5  3  1  0
  6  5  2  0
  7 11  1  0
  7  5  1  0
  8  7  1  0
  9 10  1  0
  9  8  1  0
 10 11  1  0
 11 12  1  6
 12 13  2  0
 12 19  1  0
 15 14  1  0
 15 17  1  0
 16 15  2  0
 18 17  1  1
 18 20  1  0
 19 18  1  0
 20 21  1  0
 22 20  2  0
M  END
$$$$
