SPN.pdb
     RDKit          3D

 22 22  0  0  1  0  0  0  0  0999 V2000
   19.4767  -12.2082  -19.0540 O   0  0  0  0  0  0  0  0  0  0  0  0
   19.5322  -11.2949  -18.0044 C   0  0  0  0  0  0  0  0  0  0  0  0
   19.6342  -11.9988  -16.6736 C   0  0  2  0  0  0  0  0  0  0  0  0
   18.4229  -12.7440  -16.4521 N   0  0  0  0  0  0  0  0  0  0  0  0
   19.9058  -11.0119  -15.5986 C   0  0  0  0  0  0  0  0  0  0  0  0
   18.8571  -10.5324  -15.0309 O   0  0  0  0  0  0  0  0  0  0  0  0
   21.1972  -10.6026  -15.1981 N   0  0  0  0  0  0  0  0  0  0  0  0
   22.4386  -11.1234  -15.7106 C   0  0  0  0  0  0  0  0  0  0  0  0
   23.5633  -10.4450  -14.9833 C   0  0  0  0  0  0  0  0  0  0  0  0
   22.9091   -9.9652  -13.7079 C   0  0  0  0  0  0  0  0  0  0  0  0
   21.5077   -9.6061  -14.2208 C   0  0  1  0  0  0  0  0  0  0  0  0
   21.6061   -8.2410  -14.8055 C   0  0  0  0  0  0  0  0  0  0  0  0
   21.9988   -8.0859  -15.9831 O   0  0  0  0  0  0  0  0  0  0  0  0
   18.7892   -3.5687  -15.8620 N   0  0  0  0  0  0  0  0  0  0  0  0
   19.6833   -3.8262  -14.7814 C   0  0  0  0  0  0  0  0  0  0  0  0
   20.3450   -2.8724  -14.3420 O   0  0  0  0  0  0  0  0  0  0  0  0
   19.7712   -5.2018  -14.2500 C   0  0  0  0  0  0  0  0  0  0  0  0
   21.1123   -5.7925  -14.5225 C   0  0  2  0  0  0  0  0  0  0  0  0
   21.2532   -7.1399  -14.0178 N   0  0  0  0  0  0  0  0  0  0  0  0
   22.2603   -4.9104  -14.1450 C   0  0  0  0  0  0  0  0  0  0  0  0
   22.8890   -4.1132  -15.0776 O   0  0  0  0  0  0  0  0  0  0  0  0
   22.6956   -4.8581  -12.9671 O   0  0  0  0  0  0  0  0  0  0  0  0
  1  2  1  0
  2  3  1  0
  3  4  1  1
  5  3  1  0
  6  5  2  0
  7 11  1  0
  7  5  1  0
  8  7  1  0
  9 10  1  0
  9  8  1  0
 10 11  1  0
 11 12  1  6
 12 13  2  0
 12 19  1  0
 15 14  1  0
 15 17  1  0
 16 15  2  0
 18 17  1  1
 18 20  1  0
 19 18  1  0
 20 21  1  0
 22 20  2  0
M  END
$$$$
