SPN.pdb
     RDKit          3D

 22 22  0  0  1  0  0  0  0  0999 V2000
   20.6993  -14.0998  -18.7048 O   0  0  0  0  0  0  0  0  0  0  0  0
   21.0894  -12.8668  -18.1884 C   0  0  0  0  0  0  0  0  0  0  0  0
   22.5781  -12.6638  -18.3270 C   0  0  2  0  0  0  0  0  0  0  0  0
   23.2545  -13.7707  -17.7034 N   0  0  0  0  0  0  0  0  0  0  0  0
   22.9663  -11.3535  -17.7472 C   0  0  0  0  0  0  0  0  0  0  0  0
   23.2868  -11.3895  -16.5030 O   0  0  0  0  0  0  0  0  0  0  0  0
   22.9956  -10.1388  -18.4677 N   0  0  0  0  0  0  0  0  0  0  0  0
   22.6099   -9.9714  -19.8455 C   0  0  0  0  0  0  0  0  0  0  0  0
   22.8370   -8.5356  -20.2210 C   0  0  0  0  0  0  0  0  0  0  0  0
   23.8536   -8.0701  -19.2038 C   0  0  0  0  0  0  0  0  0  0  0  0
   23.4086   -8.8644  -17.9681 C   0  0  1  0  0  0  0  0  0  0  0  0
   22.2897   -8.1003  -17.3521 C   0  0  0  0  0  0  0  0  0  0  0  0
   21.1504   -8.1235  -17.8684 O   0  0  0  0  0  0  0  0  0  0  0  0
   20.2809   -8.8700  -14.6900 N   0  0  0  0  0  0  0  0  0  0  0  0
   20.8725   -8.0974  -13.6475 C   0  0  0  0  0  0  0  0  0  0  0  0
   20.7781   -8.5281  -12.4873 O   0  0  0  0  0  0  0  0  0  0  0  0
   21.5585   -6.8385  -14.0038 C   0  0  0  0  0  0  0  0  0  0  0  0
   21.5234   -6.6121  -15.4767 C   0  0  2  0  0  0  0  0  0  0  0  0
   22.5343   -7.3591  -16.1909 N   0  0  0  0  0  0  0  0  0  0  0  0
   21.4793   -5.1708  -15.8757 C   0  0  0  0  0  0  0  0  0  0  0  0
   22.5373   -4.5747  -16.5284 O   0  0  0  0  0  0  0  0  0  0  0  0
   20.4798   -4.4476  -15.6357 O   0  0  0  0  0  0  0  0  0  0  0  0
  1  2  1  0
  2  3  1  0
  3  4  1  1
  5  3  1  0
  6  5  2  0
  7 11  1  0
  7  5  1  0
  8  7  1  0
  9 10  1  0
  9  8  1  0
 10 11  1  0
 11 12  1  6
 12 13  2  0
 12 19  1  0
 15 14  1  0
 15 17  1  0
 16 15  2  0
 18 17  1  1
 18 20  1  0
 19 18  1  0
 20 21  1  0
 22 20  2  0
M  END
$$$$
