SPN.pdb
     RDKit          3D

 22 22  0  0  1  0  0  0  0  0999 V2000
   15.8498   -9.8959  -12.4916 O   0  0  0  0  0  0  0  0  0  0  0  0
   16.4383   -8.7854  -11.8920 C   0  0  0  0  0  0  0  0  0  0  0  0
   17.7382   -9.1533  -11.2197 C   0  0  2  0  0  0  0  0  0  0  0  0
   17.4637  -10.1031  -10.1737 N   0  0  0  0  0  0  0  0  0  0  0  0
   18.4141   -7.9293  -10.7210 C   0  0  0  0  0  0  0  0  0  0  0  0
   18.2508   -7.6974   -9.4674 O   0  0  0  0  0  0  0  0  0  0  0  0
   19.1852   -7.0596  -11.5239 N   0  0  0  0  0  0  0  0  0  0  0  0
   19.4555   -7.2333  -12.9280 C   0  0  0  0  0  0  0  0  0  0  0  0
   20.3455   -6.1091  -13.3730 C   0  0  0  0  0  0  0  0  0  0  0  0
   20.9874   -5.6472  -12.0847 C   0  0  0  0  0  0  0  0  0  0  0  0
   19.8326   -5.8587  -11.0960 C   0  0  1  0  0  0  0  0  0  0  0  0
   18.9536   -4.6629  -11.2073 C   0  0  0  0  0  0  0  0  0  0  0  0
   18.1769   -4.5390  -12.1802 O   0  0  0  0  0  0  0  0  0  0  0  0
   17.2543    0.0322   -7.8488 N   0  0  0  0  0  0  0  0  0  0  0  0
   16.8279   -1.1225   -8.5689 C   0  0  0  0  0  0  0  0  0  0  0  0
   15.7021   -1.0921   -9.0908 O   0  0  0  0  0  0  0  0  0  0  0  0
   17.7418   -2.2801   -8.6526 C   0  0  0  0  0  0  0  0  0  0  0  0
   18.0581   -2.6064  -10.0722 C   0  0  2  0  0  0  0  0  0  0  0  0
   19.0117   -3.6844  -10.2088 N   0  0  0  0  0  0  0  0  0  0  0  0
   18.4039   -1.4183  -10.9132 C   0  0  0  0  0  0  0  0  0  0  0  0
   17.4250   -0.6525  -11.5098 O   0  0  0  0  0  0  0  0  0  0  0  0
   19.5955   -1.0692  -11.1080 O   0  0  0  0  0  0  0  0  0  0  0  0
  1  2  1  0
  2  3  1  0
  3  4  1  1
  5  3  1  0
  6  5  2  0
  7 11  1  0
  7  5  1  0
  8  7  1  0
  9 10  1  0
  9  8  1  0
 10 11  1  0
 11 12  1  6
 12 13  2  0
 12 19  1  0
 15 14  1  0
 15 17  1  0
 16 15  2  0
 18 17  1  1
 18 20  1  0
 19 18  1  0
 20 21  1  0
 22 20  2  0
M  END
$$$$
