SPN.pdb
     RDKit          3D

 22 22  0  0  1  0  0  0  0  0999 V2000
   18.2574  -11.7825  -18.6056 O   0  0  0  0  0  0  0  0  0  0  0  0
   18.5166  -10.8603  -17.5949 C   0  0  0  0  0  0  0  0  0  0  0  0
   18.9348  -11.5512  -16.3203 C   0  0  2  0  0  0  0  0  0  0  0  0
   17.8132  -12.2945  -15.8093 N   0  0  0  0  0  0  0  0  0  0  0  0
   19.4524  -10.5537  -15.3504 C   0  0  0  0  0  0  0  0  0  0  0  0
   18.5576  -10.0219  -14.5964 O   0  0  0  0  0  0  0  0  0  0  0  0
   20.8114  -10.1872  -15.2305 N   0  0  0  0  0  0  0  0  0  0  0  0
   21.8848  -10.6615  -16.0659 C   0  0  0  0  0  0  0  0  0  0  0  0
   23.1650  -10.0571  -15.5663 C   0  0  0  0  0  0  0  0  0  0  0  0
   22.8402   -9.6964  -14.1347 C   0  0  0  0  0  0  0  0  0  0  0  0
   21.3669   -9.2870  -14.2685 C   0  0  1  0  0  0  0  0  0  0  0  0
   21.3592   -7.8737  -14.7348 C   0  0  0  0  0  0  0  0  0  0  0  0
   21.5801   -7.6045  -15.9363 O   0  0  0  0  0  0  0  0  0  0  0  0
   17.5103   -5.9814  -13.9421 N   0  0  0  0  0  0  0  0  0  0  0  0
   18.6238   -5.3820  -14.6013 C   0  0  0  0  0  0  0  0  0  0  0  0
   18.6115   -5.3542  -15.8421 O   0  0  0  0  0  0  0  0  0  0  0  0
   19.7201   -4.8326  -13.7776 C   0  0  0  0  0  0  0  0  0  0  0  0
   21.0245   -5.4528  -14.1460 C   0  0  2  0  0  0  0  0  0  0  0  0
   21.1018   -6.8566  -13.8090 N   0  0  0  0  0  0  0  0  0  0  0  0
   22.2222   -4.6815  -13.6889 C   0  0  0  0  0  0  0  0  0  0  0  0
   23.1383   -5.2298  -12.8166 O   0  0  0  0  0  0  0  0  0  0  0  0
   22.4433   -3.5081  -14.0812 O   0  0  0  0  0  0  0  0  0  0  0  0
  1  2  1  0
  2  3  1  0
  3  4  1  1
  5  3  1  0
  6  5  2  0
  7 11  1  0
  7  5  1  0
  8  7  1  0
  9 10  1  0
  9  8  1  0
 10 11  1  0
 11 12  1  6
 12 13  2  0
 12 19  1  0
 15 14  1  0
 15 17  1  0
 16 15  2  0
 18 17  1  1
 18 20  1  0
 19 18  1  0
 20 21  1  0
 22 20  2  0
M  END
$$$$
