VHK.pdb
     RDKit          3D

 27 27  0  0  1  0  0  0  0  0999 V2000
   23.7100  -21.1991   -9.3675 C   0  0  0  0  0  0  0  0  0  0  0  0
   24.6206  -20.4016   -8.4462 C   0  0  1  0  0  0  0  0  0  0  0  0
   24.3441  -20.7585   -6.9958 C   0  0  0  0  0  0  0  0  0  0  0  0
   26.0617  -20.6489   -8.8125 C   0  0  2  0  0  0  0  0  0  0  0  0
   26.9624  -19.8376   -8.0204 N   0  0  0  0  0  0  0  0  0  0  0  0
   26.2191  -20.3599  -10.2716 C   0  0  0  0  0  0  0  0  0  0  0  0
   26.4387  -19.1915  -10.6797 O   0  0  0  0  0  0  0  0  0  0  0  0
   26.1295  -21.3809  -11.2608 N   0  0  0  0  0  0  0  0  0  0  0  0
   26.2793  -21.1199  -12.6818 C   0  0  1  0  0  0  0  0  0  0  0  0
   27.2584  -22.0517  -13.3266 C   0  0  0  0  0  0  0  0  0  0  0  0
   27.3871  -21.7941  -14.7617 C   0  0  0  0  0  0  0  0  0  0  0  0
   26.7144  -20.7835  -15.4398 C   0  0  0  0  0  0  0  0  0  0  0  0
   27.0621  -20.8331  -16.7370 N   0  0  0  0  0  0  0  0  0  0  0  0
   27.9287  -21.8396  -16.8931 C   0  0  0  0  0  0  0  0  0  0  0  0
   28.1231  -22.4133  -15.7153 N   0  0  0  0  0  0  0  0  0  0  0  0
   24.9626  -21.0556  -13.3645 C   0  0  0  0  0  0  0  0  0  0  0  0
   24.1303  -21.9737  -13.2126 O   0  0  0  0  0  0  0  0  0  0  0  0
   24.6020  -19.9741  -14.1988 N   0  0  0  0  0  0  0  0  0  0  0  0
   23.3345  -19.7773  -14.8160 C   0  0  1  0  0  0  0  0  0  0  0  0
   23.2591  -18.4381  -15.5562 C   0  0  0  0  0  0  0  0  0  0  0  0
   21.8556  -18.2035  -16.0780 C   0  0  0  0  0  0  0  0  0  0  0  0
   21.8212  -16.9113  -16.8463 C   0  0  0  0  0  0  0  0  0  0  0  0
   20.4339  -16.5540  -17.3097 C   0  0  0  0  0  0  0  0  0  0  0  0
   20.4326  -15.3725  -18.1254 N   0  0  0  0  0  0  0  0  0  0  0  0
   22.8853  -20.8611  -15.6749 C   0  0  0  0  0  0  0  0  0  0  0  0
   23.6248  -21.2976  -16.5799 O   0  0  0  0  0  0  0  0  0  0  0  0
   21.6393  -21.4248  -15.5067 O   0  0  0  0  0  0  0  0  0  0  0  0
  2  1  1  6
  2  4  1  0
  2  3  1  0
  4  5  1  1
  6  4  1  0
  6  7  2  0
  8  6  1  0
  9  8  1  0
  9 10  1  6
 11 10  1  0
 11 15  1  0
 12 13  1  0
 12 11  2  0
 13 14  1  0
 14 15  2  0
 16  9  1  0
 17 16  2  0
 18 16  1  0
 19 18  1  0
 19 25  1  0
 19 20  1  6
 21 20  1  0
 21 22  1  0
 23 24  1  0
 23 22  1  0
 25 27  1  0
 26 25  2  0
M  END
$$$$
