VHK.pdb
     RDKit          3D

 27 27  0  0  1  0  0  0  0  0999 V2000
   24.6978  -20.9379   -7.7819 C   0  0  0  0  0  0  0  0  0  0  0  0
   25.5671  -20.4038   -8.9102 C   0  0  1  0  0  0  0  0  0  0  0  0
   26.9052  -21.1227   -8.9284 C   0  0  0  0  0  0  0  0  0  0  0  0
   24.8435  -20.5467  -10.2247 C   0  0  2  0  0  0  0  0  0  0  0  0
   24.4465  -21.9173  -10.4711 N   0  0  0  0  0  0  0  0  0  0  0  0
   25.7512  -20.0469  -11.3034 C   0  0  0  0  0  0  0  0  0  0  0  0
   26.2321  -18.8865  -11.2583 O   0  0  0  0  0  0  0  0  0  0  0  0
   26.1125  -20.8502  -12.4229 N   0  0  0  0  0  0  0  0  0  0  0  0
   26.9385  -20.3609  -13.5130 C   0  0  1  0  0  0  0  0  0  0  0  0
   28.0711  -21.2900  -13.8237 C   0  0  0  0  0  0  0  0  0  0  0  0
   29.1079  -21.2445  -12.7916 C   0  0  0  0  0  0  0  0  0  0  0  0
   29.0564  -20.4317  -11.6645 C   0  0  0  0  0  0  0  0  0  0  0  0
   30.1657  -20.6402  -10.9350 N   0  0  0  0  0  0  0  0  0  0  0  0
   30.9086  -21.5549  -11.5671 C   0  0  0  0  0  0  0  0  0  0  0  0
   30.2784  -21.9159  -12.6747 N   0  0  0  0  0  0  0  0  0  0  0  0
   26.1175  -19.9889  -14.6926 C   0  0  0  0  0  0  0  0  0  0  0  0
   25.2367  -20.7660  -15.1157 O   0  0  0  0  0  0  0  0  0  0  0  0
   26.2941  -18.7638  -15.3734 N   0  0  0  0  0  0  0  0  0  0  0  0
   25.5863  -18.3392  -16.5331 C   0  0  1  0  0  0  0  0  0  0  0  0
   25.8616  -16.8694  -16.8666 C   0  0  0  0  0  0  0  0  0  0  0  0
   25.1679  -16.4839  -18.1579 C   0  0  0  0  0  0  0  0  0  0  0  0
   25.4938  -15.0535  -18.4885 C   0  0  0  0  0  0  0  0  0  0  0  0
   24.8678  -14.6051  -19.7823 C   0  0  0  0  0  0  0  0  0  0  0  0
   25.3248  -13.3006  -20.1710 N   0  0  0  0  0  0  0  0  0  0  0  0
   25.7652  -19.1719  -17.7114 C   0  0  0  0  0  0  0  0  0  0  0  0
   26.9081  -19.5186  -18.0722 O   0  0  0  0  0  0  0  0  0  0  0  0
   24.6804  -19.5927  -18.4497 O   0  0  0  0  0  0  0  0  0  0  0  0
  2  1  1  1
  2  4  1  0
  2  3  1  0
  4  5  1  6
  6  4  1  0
  6  7  2  0
  8  6  1  0
  9  8  1  0
  9 10  1  6
 11 10  1  0
 11 15  1  0
 12 13  1  0
 12 11  2  0
 13 14  1  0
 14 15  2  0
 16  9  1  0
 17 16  2  0
 18 16  1  0
 19 18  1  0
 19 25  1  0
 19 20  1  6
 21 20  1  0
 21 22  1  0
 23 24  1  0
 23 22  1  0
 25 27  1  0
 26 25  2  0
M  END
$$$$
