VHK.pdb
     RDKit          3D

 27 27  0  0  1  0  0  0  0  0999 V2000
   22.8996  -13.0477  -22.0814 C   0  0  0  0  0  0  0  0  0  0  0  0
   22.6372  -13.4012  -20.6253 C   0  0  1  0  0  0  0  0  0  0  0  0
   23.0725  -14.8292  -20.3443 C   0  0  0  0  0  0  0  0  0  0  0  0
   23.3436  -12.4196  -19.7257 C   0  0  2  0  0  0  0  0  0  0  0  0
   24.1638  -13.0914  -18.7394 N   0  0  0  0  0  0  0  0  0  0  0  0
   22.3028  -11.5683  -19.0705 C   0  0  0  0  0  0  0  0  0  0  0  0
   21.4823  -10.9072  -19.7559 O   0  0  0  0  0  0  0  0  0  0  0  0
   22.1895  -11.4644  -17.6544 N   0  0  0  0  0  0  0  0  0  0  0  0
   21.1415  -10.7013  -16.9993 C   0  0  1  0  0  0  0  0  0  0  0  0
   20.4300  -11.5025  -15.9530 C   0  0  0  0  0  0  0  0  0  0  0  0
   19.4846  -12.4496  -16.5459 C   0  0  0  0  0  0  0  0  0  0  0  0
   19.6628  -13.8287  -16.5614 C   0  0  0  0  0  0  0  0  0  0  0  0
   18.6110  -14.3894  -17.1823 N   0  0  0  0  0  0  0  0  0  0  0  0
   17.7819  -13.4089  -17.5553 C   0  0  0  0  0  0  0  0  0  0  0  0
   18.3022  -12.2514  -17.1761 N   0  0  0  0  0  0  0  0  0  0  0  0
   21.6428   -9.3882  -16.5215 C   0  0  0  0  0  0  0  0  0  0  0  0
   22.6898   -9.3235  -15.8446 O   0  0  0  0  0  0  0  0  0  0  0  0
   20.9699   -8.1793  -16.8068 N   0  0  0  0  0  0  0  0  0  0  0  0
   21.3694   -6.8783  -16.3894 C   0  0  1  0  0  0  0  0  0  0  0  0
   20.8553   -5.7893  -17.3365 C   0  0  0  0  0  0  0  0  0  0  0  0
   21.3570   -4.4288  -16.8956 C   0  0  0  0  0  0  0  0  0  0  0  0
   20.8403   -3.3792  -17.8406 C   0  0  0  0  0  0  0  0  0  0  0  0
   21.3894   -2.0106  -17.5363 C   0  0  0  0  0  0  0  0  0  0  0  0
   20.7571   -0.9947  -18.3298 N   0  0  0  0  0  0  0  0  0  0  0  0
   21.0567   -6.5438  -15.0095 C   0  0  0  0  0  0  0  0  0  0  0  0
   20.0232   -6.9886  -14.4705 O   0  0  0  0  0  0  0  0  0  0  0  0
   21.8923   -5.7324  -14.2731 O   0  0  0  0  0  0  0  0  0  0  0  0
  2  1  1  6
  2  4  1  0
  2  3  1  0
  4  5  1  1
  6  4  1  0
  6  7  2  0
  8  6  1  0
  9  8  1  0
  9 10  1  1
 11 10  1  0
 11 15  1  0
 12 13  1  0
 12 11  2  0
 13 14  1  0
 14 15  2  0
 16  9  1  0
 17 16  2  0
 18 16  1  0
 19 18  1  0
 19 25  1  0
 19 20  1  6
 21 20  1  0
 21 22  1  0
 23 24  1  0
 23 22  1  0
 25 27  1  0
 26 25  2  0
M  END
$$$$
