VHK.pdb
     RDKit          3D

 27 27  0  0  1  0  0  0  0  0999 V2000
   17.8509  -29.1320  -10.1378 C   0  0  0  0  0  0  0  0  0  0  0  0
   19.2551  -29.0264  -10.7131 C   0  0  1  0  0  0  0  0  0  0  0  0
   19.4134  -29.9728  -11.8908 C   0  0  0  0  0  0  0  0  0  0  0  0
   19.5403  -27.5996  -11.1068 C   0  0  2  0  0  0  0  0  0  0  0  0
   20.8928  -27.4400  -11.5988 N   0  0  0  0  0  0  0  0  0  0  0  0
   19.2979  -26.7372   -9.9089 C   0  0  0  0  0  0  0  0  0  0  0  0
   20.0939  -26.7425   -8.9361 O   0  0  0  0  0  0  0  0  0  0  0  0
   18.1670  -25.8767   -9.8105 N   0  0  0  0  0  0  0  0  0  0  0  0
   17.9564  -24.9731   -8.6929 C   0  0  1  0  0  0  0  0  0  0  0  0
   17.3019  -23.6945   -9.1165 C   0  0  0  0  0  0  0  0  0  0  0  0
   18.2283  -22.8277   -9.8464 C   0  0  0  0  0  0  0  0  0  0  0  0
   18.6353  -23.0443  -11.1584 C   0  0  0  0  0  0  0  0  0  0  0  0
   19.4834  -22.0632  -11.5112 N   0  0  0  0  0  0  0  0  0  0  0  0
   19.6204  -21.2412  -10.4655 C   0  0  0  0  0  0  0  0  0  0  0  0
   18.8721  -21.6965   -9.4720 N   0  0  0  0  0  0  0  0  0  0  0  0
   17.2792  -25.6559   -7.5619 C   0  0  0  0  0  0  0  0  0  0  0  0
   16.2467  -26.3289   -7.7614 O   0  0  0  0  0  0  0  0  0  0  0  0
   17.7644  -25.5752   -6.2377 N   0  0  0  0  0  0  0  0  0  0  0  0
   17.1671  -26.1649   -5.0881 C   0  0  1  0  0  0  0  0  0  0  0  0
   18.1666  -26.3174   -3.9371 C   0  0  0  0  0  0  0  0  0  0  0  0
   17.5153  -27.0230   -2.7645 C   0  0  0  0  0  0  0  0  0  0  0  0
   18.4928  -27.0963   -1.6241 C   0  0  0  0  0  0  0  0  0  0  0  0
   17.9556  -27.8786   -0.4552 C   0  0  0  0  0  0  0  0  0  0  0  0
   18.8243  -27.7964    0.6851 N   0  0  0  0  0  0  0  0  0  0  0  0
   15.9470  -25.5253   -4.6231 C   0  0  0  0  0  0  0  0  0  0  0  0
   15.8453  -24.2818   -4.6258 O   0  0  0  0  0  0  0  0  0  0  0  0
   14.8838  -26.2768   -4.1721 O   0  0  0  0  0  0  0  0  0  0  0  0
  2  1  1  6
  2  4  1  0
  2  3  1  0
  4  5  1  1
  6  4  1  0
  6  7  2  0
  8  6  1  0
  9  8  1  0
  9 10  1  6
 11 10  1  0
 11 15  1  0
 12 13  1  0
 12 11  2  0
 13 14  1  0
 14 15  2  0
 16  9  1  0
 17 16  2  0
 18 16  1  0
 19 18  1  0
 19 25  1  0
 19 20  1  1
 21 20  1  0
 21 22  1  0
 23 24  1  0
 23 22  1  0
 25 27  1  0
 26 25  2  0
M  END
$$$$
