VHK.pdb
     RDKit          3D

 27 27  0  0  1  0  0  0  0  0999 V2000
   22.6691  -16.0295  -15.7306 C   0  0  0  0  0  0  0  0  0  0  0  0
   23.4327  -14.7583  -15.3914 C   0  0  1  0  0  0  0  0  0  0  0  0
   24.9156  -14.9482  -15.6608 C   0  0  0  0  0  0  0  0  0  0  0  0
   22.8711  -13.5999  -16.1753 C   0  0  2  0  0  0  0  0  0  0  0  0
   23.0143  -13.7995  -17.6024 N   0  0  0  0  0  0  0  0  0  0  0  0
   23.5803  -12.3601  -15.7313 C   0  0  0  0  0  0  0  0  0  0  0  0
   23.6168  -12.0351  -14.5176 O   0  0  0  0  0  0  0  0  0  0  0  0
   24.2423  -11.4952  -16.6494 N   0  0  0  0  0  0  0  0  0  0  0  0
   24.8253  -10.2239  -16.2574 C   0  0  1  0  0  0  0  0  0  0  0  0
   26.2133  -10.0508  -16.7924 C   0  0  0  0  0  0  0  0  0  0  0  0
   27.0923  -11.1472  -16.3832 C   0  0  0  0  0  0  0  0  0  0  0  0
   27.1601  -11.6566  -15.0910 C   0  0  0  0  0  0  0  0  0  0  0  0
   28.0656  -12.6494  -15.0689 N   0  0  0  0  0  0  0  0  0  0  0  0
   28.5661  -12.7781  -16.3023 C   0  0  0  0  0  0  0  0  0  0  0  0
   27.9860  -11.8824  -17.0869 N   0  0  0  0  0  0  0  0  0  0  0  0
   23.9133   -9.0918  -16.5582 C   0  0  0  0  0  0  0  0  0  0  0  0
   23.7556   -8.7074  -17.7355 O   0  0  0  0  0  0  0  0  0  0  0  0
   23.1989   -8.4143  -15.5452 N   0  0  0  0  0  0  0  0  0  0  0  0
   22.0917   -7.5413  -15.7404 C   0  0  1  0  0  0  0  0  0  0  0  0
   20.9841   -8.1971  -16.5713 C   0  0  0  0  0  0  0  0  0  0  0  0
   19.8109   -7.2499  -16.7253 C   0  0  0  0  0  0  0  0  0  0  0  0
   18.7499   -7.9063  -17.5649 C   0  0  0  0  0  0  0  0  0  0  0  0
   17.5668   -7.0064  -17.8039 C   0  0  0  0  0  0  0  0  0  0  0  0
   16.6082   -7.6100  -18.6861 N   0  0  0  0  0  0  0  0  0  0  0  0
   21.5413   -6.9535  -14.5297 C   0  0  0  0  0  0  0  0  0  0  0  0
   21.2173   -5.7490  -14.5034 O   0  0  0  0  0  0  0  0  0  0  0  0
   21.3677   -7.7122  -13.3926 O   0  0  0  0  0  0  0  0  0  0  0  0
  2  1  1  6
  2  4  1  0
  2  3  1  0
  4  5  1  6
  6  4  1  0
  6  7  2  0
  8  6  1  0
  9  8  1  0
  9 10  1  6
 11 10  1  0
 11 15  1  0
 12 13  1  0
 12 11  2  0
 13 14  1  0
 14 15  2  0
 16  9  1  0
 17 16  2  0
 18 16  1  0
 19 18  1  0
 19 25  1  0
 19 20  1  1
 21 20  1  0
 21 22  1  0
 23 24  1  0
 23 22  1  0
 25 27  1  0
 26 25  2  0
M  END
$$$$
