VHK.pdb
     RDKit          3D

 27 27  0  0  1  0  0  0  0  0999 V2000
   22.7242  -14.8330  -21.0659 C   0  0  0  0  0  0  0  0  0  0  0  0
   22.2431  -14.0865  -19.8308 C   0  0  1  0  0  0  0  0  0  0  0  0
   23.3941  -13.8765  -18.8619 C   0  0  0  0  0  0  0  0  0  0  0  0
   21.6150  -12.7778  -20.2367 C   0  0  2  0  0  0  0  0  0  0  0  0
   22.5086  -11.9863  -21.0563 N   0  0  0  0  0  0  0  0  0  0  0  0
   21.2379  -12.0446  -18.9887 C   0  0  0  0  0  0  0  0  0  0  0  0
   20.4616  -12.5599  -18.1451 O   0  0  0  0  0  0  0  0  0  0  0  0
   21.7329  -10.7414  -18.6960 N   0  0  0  0  0  0  0  0  0  0  0  0
   21.3865  -10.0180  -17.4850 C   0  0  1  0  0  0  0  0  0  0  0  0
   22.3647  -10.2678  -16.3790 C   0  0  0  0  0  0  0  0  0  0  0  0
   21.8960   -9.7171  -15.1065 C   0  0  0  0  0  0  0  0  0  0  0  0
   20.6750   -9.0747  -14.9330 C   0  0  0  0  0  0  0  0  0  0  0  0
   20.5686   -8.6968  -13.6477 N   0  0  0  0  0  0  0  0  0  0  0  0
   21.6807   -9.0807  -13.0120 C   0  0  0  0  0  0  0  0  0  0  0  0
   22.4730   -9.6895  -13.8815 N   0  0  0  0  0  0  0  0  0  0  0  0
   21.1381   -8.5809  -17.7625 C   0  0  0  0  0  0  0  0  0  0  0  0
   21.9942   -7.8997  -18.3640 O   0  0  0  0  0  0  0  0  0  0  0  0
   19.9459   -7.9353  -17.3658 N   0  0  0  0  0  0  0  0  0  0  0  0
   19.6553   -6.5491  -17.5085 C   0  0  1  0  0  0  0  0  0  0  0  0
   18.1515   -6.2898  -17.6449 C   0  0  0  0  0  0  0  0  0  0  0  0
   17.8886   -4.8105  -17.8442 C   0  0  0  0  0  0  0  0  0  0  0  0
   16.4071   -4.5811  -17.9624 C   0  0  0  0  0  0  0  0  0  0  0  0
   16.0607   -3.1237  -18.1139 C   0  0  0  0  0  0  0  0  0  0  0  0
   14.6406   -2.9144  -18.1460 N   0  0  0  0  0  0  0  0  0  0  0  0
   20.2322   -5.6842  -16.4921 C   0  0  0  0  0  0  0  0  0  0  0  0
   20.1355   -5.9784  -15.2836 O   0  0  0  0  0  0  0  0  0  0  0  0
   20.8941   -4.5276  -16.8424 O   0  0  0  0  0  0  0  0  0  0  0  0
  2  1  1  6
  2  4  1  0
  2  3  1  0
  4  5  1  1
  6  4  1  0
  6  7  2  0
  8  6  1  0
  9  8  1  0
  9 10  1  1
 11 10  1  0
 11 15  1  0
 12 13  1  0
 12 11  2  0
 13 14  1  0
 14 15  2  0
 16  9  1  0
 17 16  2  0
 18 16  1  0
 19 18  1  0
 19 25  1  0
 19 20  1  1
 21 20  1  0
 21 22  1  0
 23 24  1  0
 23 22  1  0
 25 27  1  0
 26 25  2  0
M  END
$$$$
