VHK.pdb
     RDKit          3D

 27 27  0  0  1  0  0  0  0  0999 V2000
   13.4182   -6.0702  -14.9964 C   0  0  0  0  0  0  0  0  0  0  0  0
   12.9125   -7.3784  -15.5854 C   0  0  1  0  0  0  0  0  0  0  0  0
   12.1344   -7.1138  -16.8630 C   0  0  0  0  0  0  0  0  0  0  0  0
   14.0709   -8.3124  -15.8258 C   0  0  2  0  0  0  0  0  0  0  0  0
   13.6250   -9.6123  -16.2820 N   0  0  0  0  0  0  0  0  0  0  0  0
   14.8405   -8.4252  -14.5481 C   0  0  0  0  0  0  0  0  0  0  0  0
   14.3813   -9.0686  -13.5709 O   0  0  0  0  0  0  0  0  0  0  0  0
   16.1170   -7.8169  -14.3757 N   0  0  0  0  0  0  0  0  0  0  0  0
   16.8323   -7.8257  -13.1115 C   0  0  1  0  0  0  0  0  0  0  0  0
   18.3069   -8.0073  -13.2988 C   0  0  0  0  0  0  0  0  0  0  0  0
   18.6298   -9.3489  -13.7869 C   0  0  0  0  0  0  0  0  0  0  0  0
   17.6962  -10.3640  -13.9644 C   0  0  0  0  0  0  0  0  0  0  0  0
   18.3325  -11.4561  -14.4212 N   0  0  0  0  0  0  0  0  0  0  0  0
   19.6312  -11.1587  -14.5353 C   0  0  0  0  0  0  0  0  0  0  0  0
   19.8095   -9.9019  -14.1572 N   0  0  0  0  0  0  0  0  0  0  0  0
   16.4664   -6.6575  -12.2717 C   0  0  0  0  0  0  0  0  0  0  0  0
   16.5627   -5.4998  -12.7290 O   0  0  0  0  0  0  0  0  0  0  0  0
   16.0026   -6.8028  -10.9453 N   0  0  0  0  0  0  0  0  0  0  0  0
   15.6662   -5.7453  -10.0538 C   0  0  1  0  0  0  0  0  0  0  0  0
   14.4367   -6.0813   -9.2038 C   0  0  0  0  0  0  0  0  0  0  0  0
   14.0458   -4.8913   -8.3504 C   0  0  0  0  0  0  0  0  0  0  0  0
   12.8798   -5.2675   -7.4784 C   0  0  0  0  0  0  0  0  0  0  0  0
   12.3909   -4.1146   -6.6425 C   0  0  0  0  0  0  0  0  0  0  0  0
   11.2664   -4.4850   -5.8302 N   0  0  0  0  0  0  0  0  0  0  0  0
   16.7533   -5.2701   -9.2133 C   0  0  0  0  0  0  0  0  0  0  0  0
   17.5652   -6.0760   -8.7153 O   0  0  0  0  0  0  0  0  0  0  0  0
   16.9073   -3.9261   -8.9513 O   0  0  0  0  0  0  0  0  0  0  0  0
  2  1  1  6
  2  4  1  0
  2  3  1  0
  4  5  1  1
  6  4  1  0
  6  7  2  0
  8  6  1  0
  9  8  1  0
  9 10  1  6
 11 10  1  0
 11 15  1  0
 12 13  1  0
 12 11  2  0
 13 14  1  0
 14 15  2  0
 16  9  1  0
 17 16  2  0
 18 16  1  0
 19 18  1  0
 19 25  1  0
 19 20  1  1
 21 20  1  0
 21 22  1  0
 23 24  1  0
 23 22  1  0
 25 27  1  0
 26 25  2  0
M  END
$$$$
