VHK.pdb
     RDKit          3D

 27 27  0  0  1  0  0  0  0  0999 V2000
   16.5804  -15.5787  -18.1215 C   0  0  0  0  0  0  0  0  0  0  0  0
   17.1653  -14.2936  -17.5555 C   0  0  1  0  0  0  0  0  0  0  0  0
   16.1230  -13.5617  -16.7274 C   0  0  0  0  0  0  0  0  0  0  0  0
   18.3971  -14.6060  -16.7450 C   0  0  2  0  0  0  0  0  0  0  0  0
   18.1334  -15.6093  -15.7349 N   0  0  0  0  0  0  0  0  0  0  0  0
   18.8730  -13.3304  -16.1255 C   0  0  0  0  0  0  0  0  0  0  0  0
   18.4223  -12.9412  -15.0185 O   0  0  0  0  0  0  0  0  0  0  0  0
   19.8488  -12.5018  -16.7503 N   0  0  0  0  0  0  0  0  0  0  0  0
   20.2288  -11.1994  -16.2314 C   0  0  1  0  0  0  0  0  0  0  0  0
   21.6349  -10.8351  -16.5959 C   0  0  0  0  0  0  0  0  0  0  0  0
   22.0253   -9.5448  -16.0257 C   0  0  0  0  0  0  0  0  0  0  0  0
   22.4032   -9.3558  -14.7009 C   0  0  0  0  0  0  0  0  0  0  0  0
   22.6935   -8.0561  -14.5196 N   0  0  0  0  0  0  0  0  0  0  0  0
   22.5102   -7.4265  -15.6850 C   0  0  0  0  0  0  0  0  0  0  0  0
   22.1116   -8.3138  -16.5840 N   0  0  0  0  0  0  0  0  0  0  0  0
   19.2242  -10.1624  -16.5766 C   0  0  0  0  0  0  0  0  0  0  0  0
   18.6865  -10.1586  -17.7034 O   0  0  0  0  0  0  0  0  0  0  0  0
   18.8409   -9.1554  -15.6631 N   0  0  0  0  0  0  0  0  0  0  0  0
   17.9830   -8.0539  -15.9402 C   0  0  1  0  0  0  0  0  0  0  0  0
   16.5693   -8.2765  -15.3932 C   0  0  0  0  0  0  0  0  0  0  0  0
   15.6752   -7.1072  -15.7544 C   0  0  0  0  0  0  0  0  0  0  0  0
   14.2824   -7.3743  -15.2541 C   0  0  0  0  0  0  0  0  0  0  0  0
   13.3176   -6.2800  -15.6264 C   0  0  0  0  0  0  0  0  0  0  0  0
   11.9787   -6.5853  -15.2074 N   0  0  0  0  0  0  0  0  0  0  0  0
   18.4888   -6.7530  -15.5330 C   0  0  0  0  0  0  0  0  0  0  0  0
   17.9589   -5.7074  -15.9602 O   0  0  0  0  0  0  0  0  0  0  0  0
   19.5588   -6.6500  -14.6709 O   0  0  0  0  0  0  0  0  0  0  0  0
  2  1  1  1
  2  4  1  0
  2  3  1  0
  4  5  1  1
  6  4  1  0
  6  7  2  0
  8  6  1  0
  9  8  1  0
  9 10  1  6
 11 10  1  0
 11 15  1  0
 12 13  1  0
 12 11  2  0
 13 14  1  0
 14 15  2  0
 16  9  1  0
 17 16  2  0
 18 16  1  0
 19 18  1  0
 19 25  1  0
 19 20  1  1
 21 20  1  0
 21 22  1  0
 23 24  1  0
 23 22  1  0
 25 27  1  0
 26 25  2  0
M  END
$$$$
