SPF.pdb
     RDKit          3D

 25 26  0  0  1  0  0  0  0  0999 V2000
   10.4175  -15.0839   19.0702 O   0  0  0  0  0  0  0  0  0  0  0  0
    9.9221  -13.8865   18.5343 C   0  0  0  0  0  0  0  0  0  0  0  0
    8.3960  -13.9503   18.5252 C   0  0  2  0  0  0  0  0  0  0  0  0
    7.8854  -12.8451   17.8486 N   0  0  0  0  0  0  0  0  0  0  0  0
    7.9224  -14.1721   19.9075 C   0  0  0  0  0  0  0  0  0  0  0  0
    7.7019  -13.1345   20.5823 O   0  0  0  0  0  0  0  0  0  0  0  0
    7.7119  -15.4282   20.4900 N   0  0  0  0  0  0  0  0  0  0  0  0
    7.9765  -16.7562   19.9499 C   0  0  0  0  0  0  0  0  0  0  0  0
    7.1413  -17.7146   20.7348 C   0  0  0  0  0  0  0  0  0  0  0  0
    6.2093  -16.8128   21.5462 C   0  0  0  0  0  0  0  0  0  0  0  0
    7.1610  -15.6549   21.8122 C   0  0  1  0  0  0  0  0  0  0  0  0
    8.2275  -16.0314   22.7713 C   0  0  0  0  0  0  0  0  0  0  0  0
    9.1660  -16.7969   22.4482 O   0  0  0  0  0  0  0  0  0  0  0  0
    8.1784  -15.5129   24.0746 N   0  0  0  0  0  0  0  0  0  0  0  0
    9.2550  -15.5908   25.0278 C   0  0  1  0  0  0  0  0  0  0  0  0
    9.4840  -14.1746   25.5266 C   0  0  0  0  0  0  0  0  0  0  0  0
    8.2455  -13.5245   25.9755 C   0  0  0  0  0  0  0  0  0  0  0  0
    7.9648  -13.4408   27.3265 C   0  0  0  0  0  0  0  0  0  0  0  0
    6.8110  -12.8321   27.7731 C   0  0  0  0  0  0  0  0  0  0  0  0
    5.9363  -12.3052   26.8471 C   0  0  0  0  0  0  0  0  0  0  0  0
    6.2205  -12.3906   25.4890 C   0  0  0  0  0  0  0  0  0  0  0  0
    7.3712  -12.9983   25.0570 C   0  0  0  0  0  0  0  0  0  0  0  0
    8.8763  -16.5335   26.0987 C   0  0  0  0  0  0  0  0  0  0  0  0
    7.6471  -17.1745   26.1533 O   0  0  0  0  0  0  0  0  0  0  0  0
    9.6988  -16.7755   27.0125 O   0  0  0  0  0  0  0  0  0  0  0  0
  2  3  1  0
  2  1  1  0
  3  4  1  1
  5  3  1  0
  6  5  2  0
  7  5  1  0
  7 11  1  0
  8  9  1  0
  8  7  1  0
  9 10  1  0
 10 11  1  0
 11 12  1  1
 12 14  1  0
 13 12  2  0
 15 14  1  0
 15 16  1  1
 17 16  1  0
 17 22  1  0
 18 17  2  0
 19 18  1  0
 19 20  2  0
 20 21  1  0
 21 22  2  0
 23 15  1  0
 24 23  1  0
 25 23  2  0
M  END
$$$$
