SPF.pdb
     RDKit          3D

 25 26  0  0  1  0  0  0  0  0999 V2000
    6.2849  -18.6011   24.1086 O   0  0  0  0  0  0  0  0  0  0  0  0
    5.4835  -17.8619   23.2266 C   0  0  0  0  0  0  0  0  0  0  0  0
    6.0851  -17.9554   21.8257 C   0  0  2  0  0  0  0  0  0  0  0  0
    5.9707  -19.2608   21.3535 N   0  0  0  0  0  0  0  0  0  0  0  0
    7.4393  -17.3642   21.8507 C   0  0  0  0  0  0  0  0  0  0  0  0
    8.3894  -18.1675   21.6699 O   0  0  0  0  0  0  0  0  0  0  0  0
    7.7168  -16.0070   22.0570 N   0  0  0  0  0  0  0  0  0  0  0  0
    6.8516  -14.9518   22.5698 C   0  0  0  0  0  0  0  0  0  0  0  0
    7.4496  -13.6541   22.1331 C   0  0  0  0  0  0  0  0  0  0  0  0
    8.5308  -14.0649   21.1318 C   0  0  0  0  0  0  0  0  0  0  0  0
    8.9870  -15.3625   21.7840 C   0  0  1  0  0  0  0  0  0  0  0  0
    9.7328  -15.1114   23.0410 C   0  0  0  0  0  0  0  0  0  0  0  0
   10.8369  -14.5179   23.0464 O   0  0  0  0  0  0  0  0  0  0  0  0
    9.1814  -15.5529   24.2538 N   0  0  0  0  0  0  0  0  0  0  0  0
    9.9150  -15.6874   25.4856 C   0  0  1  0  0  0  0  0  0  0  0  0
    9.6676  -14.4099   26.2689 C   0  0  0  0  0  0  0  0  0  0  0  0
    8.2749  -13.9512   26.1802 C   0  0  0  0  0  0  0  0  0  0  0  0
    7.2539  -14.7640   26.6364 C   0  0  0  0  0  0  0  0  0  0  0  0
    5.9391  -14.3546   26.5676 C   0  0  0  0  0  0  0  0  0  0  0  0
    5.6559  -13.1155   26.0340 C   0  0  0  0  0  0  0  0  0  0  0  0
    6.6841  -12.2998   25.5757 C   0  0  0  0  0  0  0  0  0  0  0  0
    7.9878  -12.7180   25.6494 C   0  0  0  0  0  0  0  0  0  0  0  0
    9.4519  -16.9014   26.1862 C   0  0  0  0  0  0  0  0  0  0  0  0
    8.4281  -17.7114   25.7163 O   0  0  0  0  0  0  0  0  0  0  0  0
   10.0035  -17.2281   27.2627 O   0  0  0  0  0  0  0  0  0  0  0  0
  2  3  1  0
  2  1  1  0
  3  4  1  1
  5  3  1  0
  6  5  2  0
  7  5  1  0
  7 11  1  0
  8  9  1  0
  8  7  1  0
  9 10  1  0
 10 11  1  0
 11 12  1  1
 12 14  1  0
 13 12  2  0
 15 14  1  0
 15 16  1  1
 17 16  1  0
 17 22  1  0
 18 17  2  0
 19 18  1  0
 19 20  2  0
 20 21  1  0
 21 22  2  0
 23 15  1  0
 24 23  1  0
 25 23  2  0
M  END
$$$$
