SPF.pdb
     RDKit          3D

 25 26  0  0  1  0  0  0  0  0999 V2000
    6.6176  -17.9772   22.7728 O   0  0  0  0  0  0  0  0  0  0  0  0
    5.6560  -18.1038   21.7601 C   0  0  0  0  0  0  0  0  0  0  0  0
    6.2387  -17.5487   20.4618 C   0  0  2  0  0  0  0  0  0  0  0  0
    6.2572  -18.5484   19.4921 N   0  0  0  0  0  0  0  0  0  0  0  0
    7.5215  -16.8805   20.7652 C   0  0  0  0  0  0  0  0  0  0  0  0
    8.5568  -17.5548   20.5328 O   0  0  0  0  0  0  0  0  0  0  0  0
    7.6469  -15.5838   21.2792 N   0  0  0  0  0  0  0  0  0  0  0  0
    6.6300  -14.7134   21.8566 C   0  0  0  0  0  0  0  0  0  0  0  0
    7.1642  -13.3200   21.7845 C   0  0  0  0  0  0  0  0  0  0  0  0
    8.4033  -13.4456   20.8962 C   0  0  0  0  0  0  0  0  0  0  0  0
    8.8801  -14.8227   21.3361 C   0  0  1  0  0  0  0  0  0  0  0  0
    9.4233  -14.7997   22.7158 C   0  0  0  0  0  0  0  0  0  0  0  0
   10.4922  -14.2074   22.9948 O   0  0  0  0  0  0  0  0  0  0  0  0
    8.7162  -15.4611   23.7318 N   0  0  0  0  0  0  0  0  0  0  0  0
    9.1407  -15.5420   25.1054 C   0  0  1  0  0  0  0  0  0  0  0  0
    7.8853  -15.3934   25.9473 C   0  0  0  0  0  0  0  0  0  0  0  0
    7.4830  -13.9915   26.1229 C   0  0  0  0  0  0  0  0  0  0  0  0
    6.1617  -13.6284   25.9405 C   0  0  0  0  0  0  0  0  0  0  0  0
    5.7585  -12.3199   26.1032 C   0  0  0  0  0  0  0  0  0  0  0  0
    6.6980  -11.3735   26.4525 C   0  0  0  0  0  0  0  0  0  0  0  0
    8.0262  -11.7409   26.6353 C   0  0  0  0  0  0  0  0  0  0  0  0
    8.4151  -13.0453   26.4707 C   0  0  0  0  0  0  0  0  0  0  0  0
    9.8358  -16.8274   25.3147 C   0  0  0  0  0  0  0  0  0  0  0  0
    9.9417  -17.8069   24.3379 O   0  0  0  0  0  0  0  0  0  0  0  0
   10.3615  -17.0582   26.4284 O   0  0  0  0  0  0  0  0  0  0  0  0
  2  3  1  0
  2  1  1  0
  3  4  1  6
  5  3  1  0
  6  5  2  0
  7  5  1  0
  7 11  1  0
  8  9  1  0
  8  7  1  0
  9 10  1  0
 10 11  1  0
 11 12  1  1
 12 14  1  0
 13 12  2  0
 15 14  1  0
 15 16  1  1
 17 16  1  0
 17 22  1  0
 18 17  2  0
 19 18  1  0
 19 20  2  0
 20 21  1  0
 21 22  2  0
 23 15  1  0
 24 23  1  0
 25 23  2  0
M  END
$$$$
