SPF.pdb
     RDKit          3D

 25 26  0  0  1  0  0  0  0  0999 V2000
    6.1280  -17.4853   22.6666 O   0  0  0  0  0  0  0  0  0  0  0  0
    5.9157  -18.2632   21.5193 C   0  0  0  0  0  0  0  0  0  0  0  0
    6.3288  -17.4493   20.2946 C   0  0  2  0  0  0  0  0  0  0  0  0
    6.2379  -18.2424   19.1532 N   0  0  0  0  0  0  0  0  0  0  0  0
    7.6325  -16.8092   20.5681 C   0  0  0  0  0  0  0  0  0  0  0  0
    8.6474  -17.5042   20.3084 O   0  0  0  0  0  0  0  0  0  0  0  0
    7.7979  -15.5171   21.0825 N   0  0  0  0  0  0  0  0  0  0  0  0
    6.7993  -14.5938   21.6075 C   0  0  0  0  0  0  0  0  0  0  0  0
    7.4050  -13.2290   21.5555 C   0  0  0  0  0  0  0  0  0  0  0  0
    8.6770  -13.4214   20.7277 C   0  0  0  0  0  0  0  0  0  0  0  0
    9.0633  -14.8176   21.1950 C   0  0  1  0  0  0  0  0  0  0  0  0
    9.5411  -14.8129   22.5989 C   0  0  0  0  0  0  0  0  0  0  0  0
   10.6024  -14.2359   22.9333 O   0  0  0  0  0  0  0  0  0  0  0  0
    8.7792  -15.4746   23.5744 N   0  0  0  0  0  0  0  0  0  0  0  0
    9.0979  -15.5081   24.9784 C   0  0  1  0  0  0  0  0  0  0  0  0
    7.7699  -15.5101   25.7154 C   0  0  0  0  0  0  0  0  0  0  0  0
    7.2355  -14.1578   25.9243 C   0  0  0  0  0  0  0  0  0  0  0  0
    5.8768  -13.9310   25.8077 C   0  0  0  0  0  0  0  0  0  0  0  0
    5.3503  -12.6716   26.0029 C   0  0  0  0  0  0  0  0  0  0  0  0
    6.2038  -11.6359   26.3176 C   0  0  0  0  0  0  0  0  0  0  0  0
    7.5698  -11.8662   26.4342 C   0  0  0  0  0  0  0  0  0  0  0  0
    8.0816  -13.1230   26.2379 C   0  0  0  0  0  0  0  0  0  0  0  0
    9.9199  -16.7033   25.2522 C   0  0  0  0  0  0  0  0  0  0  0  0
   10.1391  -17.7096   24.3225 O   0  0  0  0  0  0  0  0  0  0  0  0
   10.4527  -16.8277   26.3794 O   0  0  0  0  0  0  0  0  0  0  0  0
  2  3  1  0
  2  1  1  0
  3  4  1  6
  5  3  1  0
  6  5  2  0
  7  5  1  0
  7 11  1  0
  8  9  1  0
  8  7  1  0
  9 10  1  0
 10 11  1  0
 11 12  1  1
 12 14  1  0
 13 12  2  0
 15 14  1  0
 15 16  1  1
 17 16  1  0
 17 22  1  0
 18 17  2  0
 19 18  1  0
 19 20  2  0
 20 21  1  0
 21 22  2  0
 23 15  1  0
 24 23  1  0
 25 23  2  0
M  END
$$$$
