SPF.pdb
     RDKit          3D

 25 26  0  0  1  0  0  0  0  0999 V2000
    5.9620  -18.5098   23.1857 O   0  0  0  0  0  0  0  0  0  0  0  0
    5.1692  -17.6758   22.3842 C   0  0  0  0  0  0  0  0  0  0  0  0
    5.8086  -17.5772   21.0005 C   0  0  2  0  0  0  0  0  0  0  0  0
    5.6734  -18.7932   20.3348 N   0  0  0  0  0  0  0  0  0  0  0  0
    7.1768  -17.0381   21.1476 C   0  0  0  0  0  0  0  0  0  0  0  0
    8.1104  -17.8582   20.9570 O   0  0  0  0  0  0  0  0  0  0  0  0
    7.4837  -15.7116   21.4758 N   0  0  0  0  0  0  0  0  0  0  0  0
    6.5997  -14.6349   21.9053 C   0  0  0  0  0  0  0  0  0  0  0  0
    7.3243  -13.3540   21.6476 C   0  0  0  0  0  0  0  0  0  0  0  0
    8.5326  -13.7760   20.8096 C   0  0  0  0  0  0  0  0  0  0  0  0
    8.8116  -15.1293   21.4482 C   0  0  1  0  0  0  0  0  0  0  0  0
    9.3542  -14.9861   22.8209 C   0  0  0  0  0  0  0  0  0  0  0  0
   10.3432  -14.2565   23.0672 O   0  0  0  0  0  0  0  0  0  0  0  0
    8.7385  -15.6894   23.8679 N   0  0  0  0  0  0  0  0  0  0  0  0
    9.3684  -16.0048   25.1238 C   0  0  1  0  0  0  0  0  0  0  0  0
    9.6728  -14.6752   25.7920 C   0  0  0  0  0  0  0  0  0  0  0  0
    8.4641  -13.8827   26.0542 C   0  0  0  0  0  0  0  0  0  0  0  0
    7.2539  -14.2773   25.5149 C   0  0  0  0  0  0  0  0  0  0  0  0
    6.1047  -13.5525   25.7496 C   0  0  0  0  0  0  0  0  0  0  0  0
    6.1807  -12.4218   26.5344 C   0  0  0  0  0  0  0  0  0  0  0  0
    7.3987  -12.0267   27.0756 C   0  0  0  0  0  0  0  0  0  0  0  0
    8.5348  -12.7557   26.8352 C   0  0  0  0  0  0  0  0  0  0  0  0
    8.4591  -16.8601   25.9117 C   0  0  0  0  0  0  0  0  0  0  0  0
    8.8273  -17.4774   27.0984 O   0  0  0  0  0  0  0  0  0  0  0  0
    7.2913  -17.0467   25.4977 O   0  0  0  0  0  0  0  0  0  0  0  0
  2  3  1  0
  2  1  1  0
  3  4  1  1
  5  3  1  0
  6  5  2  0
  7  5  1  0
  7 11  1  0
  8  9  1  0
  8  7  1  0
  9 10  1  0
 10 11  1  0
 11 12  1  1
 12 14  1  0
 13 12  2  0
 15 14  1  0
 15 16  1  1
 17 16  1  0
 17 22  1  0
 18 17  2  0
 19 18  1  0
 19 20  2  0
 20 21  1  0
 21 22  2  0
 23 15  1  0
 24 23  1  0
 25 23  2  0
M  END
$$$$
