SPF.pdb
     RDKit          3D

 25 26  0  0  1  0  0  0  0  0999 V2000
   11.3879  -15.5610   16.0358 O   0  0  0  0  0  0  0  0  0  0  0  0
   11.1778  -16.8759   15.5959 C   0  0  0  0  0  0  0  0  0  0  0  0
    9.6755  -17.1515   15.5811 C   0  0  2  0  0  0  0  0  0  0  0  0
    9.0505  -16.2899   14.6828 N   0  0  0  0  0  0  0  0  0  0  0  0
    9.1792  -17.1492   16.9732 C   0  0  0  0  0  0  0  0  0  0  0  0
    8.2420  -16.3477   17.2176 O   0  0  0  0  0  0  0  0  0  0  0  0
    9.6754  -17.9604   18.0015 N   0  0  0  0  0  0  0  0  0  0  0  0
   10.7835  -18.9074   17.9819 C   0  0  0  0  0  0  0  0  0  0  0  0
   10.5791  -19.8335   19.1364 C   0  0  0  0  0  0  0  0  0  0  0  0
    9.1648  -19.5106   19.6222 C   0  0  0  0  0  0  0  0  0  0  0  0
    9.1503  -18.0126   19.3524 C   0  0  1  0  0  0  0  0  0  0  0  0
   10.0331  -17.2782   20.2908 C   0  0  0  0  0  0  0  0  0  0  0  0
   11.2677  -17.1812   20.0971 O   0  0  0  0  0  0  0  0  0  0  0  0
    9.4638  -16.6779   21.4246 N   0  0  0  0  0  0  0  0  0  0  0  0
   10.1333  -15.7215   22.2677 C   0  0  1  0  0  0  0  0  0  0  0  0
    9.0858  -14.6938   22.6591 C   0  0  0  0  0  0  0  0  0  0  0  0
    8.5192  -13.9919   21.4997 C   0  0  0  0  0  0  0  0  0  0  0  0
    7.2250  -14.2644   21.0974 C   0  0  0  0  0  0  0  0  0  0  0  0
    6.6693  -13.6160   20.0147 C   0  0  0  0  0  0  0  0  0  0  0  0
    7.4277  -12.6868   19.3354 C   0  0  0  0  0  0  0  0  0  0  0  0
    8.7290  -12.4145   19.7417 C   0  0  0  0  0  0  0  0  0  0  0  0
    9.2707  -13.0656   20.8199 C   0  0  0  0  0  0  0  0  0  0  0  0
   10.7165  -16.4309   23.4236 C   0  0  0  0  0  0  0  0  0  0  0  0
   10.4537  -17.7615   23.7156 O   0  0  0  0  0  0  0  0  0  0  0  0
   11.4903  -15.8100   24.1888 O   0  0  0  0  0  0  0  0  0  0  0  0
  2  3  1  0
  2  1  1  0
  3  4  1  6
  5  3  1  0
  6  5  2  0
  7  5  1  0
  7 11  1  0
  8  9  1  0
  8  7  1  0
  9 10  1  0
 10 11  1  0
 11 12  1  1
 12 14  1  0
 13 12  2  0
 15 14  1  0
 15 16  1  1
 17 16  1  0
 17 22  1  0
 18 17  2  0
 19 18  1  0
 19 20  2  0
 20 21  1  0
 21 22  2  0
 23 15  1  0
 24 23  1  0
 25 23  2  0
M  END
$$$$
