SPF.pdb
     RDKit          3D

 25 26  0  0  1  0  0  0  0  0999 V2000
    6.9867  -18.8775   23.1903 O   0  0  0  0  0  0  0  0  0  0  0  0
    5.9994  -18.2839   22.3907 C   0  0  0  0  0  0  0  0  0  0  0  0
    6.5986  -17.9835   21.0182 C   0  0  2  0  0  0  0  0  0  0  0  0
    6.7797  -19.1727   20.3161 N   0  0  0  0  0  0  0  0  0  0  0  0
    7.7843  -17.1195   21.1971 C   0  0  0  0  0  0  0  0  0  0  0  0
    8.8896  -17.6412   20.9030 O   0  0  0  0  0  0  0  0  0  0  0  0
    7.7496  -15.7980   21.6598 N   0  0  0  0  0  0  0  0  0  0  0  0
    6.6062  -14.9832   22.0520 C   0  0  0  0  0  0  0  0  0  0  0  0
    7.0496  -13.5580   21.9849 C   0  0  0  0  0  0  0  0  0  0  0  0
    8.4049  -13.6264   21.2788 C   0  0  0  0  0  0  0  0  0  0  0  0
    8.9087  -14.9464   21.8452 C   0  0  1  0  0  0  0  0  0  0  0  0
    9.2538  -14.8298   23.2827 C   0  0  0  0  0  0  0  0  0  0  0  0
    9.7685  -13.7894   23.7560 O   0  0  0  0  0  0  0  0  0  0  0  0
    8.9944  -15.9178   24.1305 N   0  0  0  0  0  0  0  0  0  0  0  0
    9.1411  -15.8926   25.5629 C   0  0  1  0  0  0  0  0  0  0  0  0
    7.7400  -15.7471   26.1308 C   0  0  0  0  0  0  0  0  0  0  0  0
    7.3147  -14.3452   26.2386 C   0  0  0  0  0  0  0  0  0  0  0  0
    8.1864  -13.4005   26.7471 C   0  0  0  0  0  0  0  0  0  0  0  0
    7.8122  -12.0777   26.8548 C   0  0  0  0  0  0  0  0  0  0  0  0
    6.5485  -11.7091   26.4456 C   0  0  0  0  0  0  0  0  0  0  0  0
    5.6735  -12.6609   25.9347 C   0  0  0  0  0  0  0  0  0  0  0  0
    6.0571  -13.9732   25.8325 C   0  0  0  0  0  0  0  0  0  0  0  0
    9.8210  -17.1299   25.9943 C   0  0  0  0  0  0  0  0  0  0  0  0
   10.1946  -18.1410   25.1209 O   0  0  0  0  0  0  0  0  0  0  0  0
   10.0793  -17.2875   27.2102 O   0  0  0  0  0  0  0  0  0  0  0  0
  2  3  1  0
  2  1  1  0
  3  4  1  1
  5  3  1  0
  6  5  2  0
  7  5  1  0
  7 11  1  0
  8  9  1  0
  8  7  1  0
  9 10  1  0
 10 11  1  0
 11 12  1  1
 12 14  1  0
 13 12  2  0
 15 14  1  0
 15 16  1  1
 17 16  1  0
 17 22  1  0
 18 17  2  0
 19 18  1  0
 19 20  2  0
 20 21  1  0
 21 22  2  0
 23 15  1  0
 24 23  1  0
 25 23  2  0
M  END
$$$$
