AKI.pdb
     RDKit          3D

 23 22  0  0  1  0  0  0  0  0999 V2000
   25.3181  -21.0905  -11.1429 C   0  0  0  0  0  0  0  0  0  0  0  0
   24.0095  -20.6738  -11.7820 C   0  0  2  0  0  0  0  0  0  0  0  0
   23.0386  -21.7088  -11.5949 N   0  0  0  0  0  0  0  0  0  0  0  0
   24.1708  -20.3413  -13.2192 C   0  0  0  0  0  0  0  0  0  0  0  0
   24.1985  -21.2876  -14.0427 O   0  0  0  0  0  0  0  0  0  0  0  0
   24.2932  -19.0090  -13.6870 N   0  0  0  0  0  0  0  0  0  0  0  0
   24.3907  -18.6982  -15.1101 C   0  0  1  0  0  0  0  0  0  0  0  0
   23.8108  -17.3236  -15.3214 C   0  0  0  0  0  0  0  0  0  0  0  0
   23.1326  -17.1232  -16.6297 C   0  0  0  0  0  0  0  0  0  0  0  0
   21.7196  -17.6656  -16.6092 C   0  0  0  0  0  0  0  0  0  0  0  0
   21.0868  -17.5644  -17.9988 C   0  0  0  0  0  0  0  0  0  0  0  0
   19.7563  -18.1280  -17.9883 N   0  0  0  0  0  0  0  0  0  0  0  0
   25.7722  -18.8233  -15.6025 C   0  0  0  0  0  0  0  0  0  0  0  0
   26.6990  -18.3253  -14.9268 O   0  0  0  0  0  0  0  0  0  0  0  0
   28.3283  -23.1599  -16.2929 C   0  0  0  0  0  0  0  0  0  0  0  0
   27.8372  -21.7428  -16.0980 C   0  0  0  0  0  0  0  0  0  0  0  0
   28.0248  -20.9298  -17.3516 C   0  0  2  0  0  0  0  0  0  0  0  0
   29.4345  -20.9994  -17.8316 C   0  0  0  0  0  0  0  0  0  0  0  0
   27.4889  -19.5294  -17.2082 C   0  0  2  0  0  0  0  0  0  0  0  0
   26.1182  -19.4830  -16.8122 N   0  0  0  0  0  0  0  0  0  0  0  0
   27.6702  -18.8762  -18.5540 C   0  0  0  0  0  0  0  0  0  0  0  0
   28.8407  -18.2722  -18.9397 O   0  0  0  0  0  0  0  0  0  0  0  0
   26.7056  -18.8877  -19.3543 O   0  0  0  0  0  0  0  0  0  0  0  0
  2  1  1  6
  2  3  1  0
  4  5  2  0
  4  2  1  0
  6  4  1  0
  7  6  1  0
  7  8  1  1
  9 10  1  0
  9  8  1  0
 10 11  1  0
 11 12  1  0
 13  7  1  0
 13 20  1  0
 14 13  2  0
 16 15  1  0
 17 16  1  0
 17 19  1  0
 17 18  1  1
 19 20  1  6
 19 21  1  0
 21 22  1  0
 23 21  2  0
M  END
$$$$
