AKI.pdb
     RDKit          3D

 23 22  0  0  1  0  0  0  0  0999 V2000
   15.7776  -13.0041  -14.7345 C   0  0  0  0  0  0  0  0  0  0  0  0
   14.9104  -12.2367  -13.7578 C   0  0  2  0  0  0  0  0  0  0  0  0
   13.8883  -11.5389  -14.4768 N   0  0  0  0  0  0  0  0  0  0  0  0
   15.7048  -11.3084  -12.9157 C   0  0  0  0  0  0  0  0  0  0  0  0
   15.8861  -11.6144  -11.7124 O   0  0  0  0  0  0  0  0  0  0  0  0
   16.2583  -10.1040  -13.4176 N   0  0  0  0  0  0  0  0  0  0  0  0
   17.0984   -9.2401  -12.5933 C   0  0  1  0  0  0  0  0  0  0  0  0
   18.1702   -8.6600  -13.4794 C   0  0  0  0  0  0  0  0  0  0  0  0
   19.0471   -7.6523  -12.8256 C   0  0  0  0  0  0  0  0  0  0  0  0
   20.0329   -7.0564  -13.8077 C   0  0  0  0  0  0  0  0  0  0  0  0
   21.0581   -6.1868  -13.0766 C   0  0  0  0  0  0  0  0  0  0  0  0
   21.9837   -5.6004  -14.0186 N   0  0  0  0  0  0  0  0  0  0  0  0
   16.3071   -8.2128  -11.8969 C   0  0  0  0  0  0  0  0  0  0  0  0
   15.4419   -7.5806  -12.5414 O   0  0  0  0  0  0  0  0  0  0  0  0
   13.0811   -8.1802   -9.1437 C   0  0  0  0  0  0  0  0  0  0  0  0
   14.3888   -8.3714   -8.4083 C   0  0  0  0  0  0  0  0  0  0  0  0
   15.2571   -7.1465   -8.5247 C   0  0  2  0  0  0  0  0  0  0  0  0
   14.6425   -5.9832   -7.8235 C   0  0  0  0  0  0  0  0  0  0  0  0
   15.6606   -6.8672   -9.9488 C   0  0  2  0  0  0  0  0  0  0  0  0
   16.4699   -7.8939  -10.5222 N   0  0  0  0  0  0  0  0  0  0  0  0
   16.4112   -5.5609   -9.9184 C   0  0  0  0  0  0  0  0  0  0  0  0
   15.8072   -4.3470  -10.1313 O   0  0  0  0  0  0  0  0  0  0  0  0
   17.6429   -5.5892   -9.6879 O   0  0  0  0  0  0  0  0  0  0  0  0
  2  1  1  6
  2  3  1  0
  4  5  2  0
  4  2  1  0
  6  4  1  0
  7  6  1  0
  7  8  1  6
  9 10  1  0
  9  8  1  0
 10 11  1  0
 11 12  1  0
 13  7  1  0
 13 20  1  0
 14 13  2  0
 16 15  1  0
 17 16  1  0
 17 19  1  0
 17 18  1  6
 19 20  1  1
 19 21  1  0
 21 22  1  0
 23 21  2  0
M  END
$$$$
