AKI.pdb
     RDKit          3D

 23 22  0  0  1  0  0  0  0  0999 V2000
   29.4844  -19.9435  -13.4593 C   0  0  0  0  0  0  0  0  0  0  0  0
   28.0186  -20.1217  -13.7973 C   0  0  2  0  0  0  0  0  0  0  0  0
   27.6999  -19.3427  -14.9550 N   0  0  0  0  0  0  0  0  0  0  0  0
   27.1360  -19.7745  -12.6560 C   0  0  0  0  0  0  0  0  0  0  0  0
   26.9675  -18.5598  -12.3907 O   0  0  0  0  0  0  0  0  0  0  0  0
   26.4858  -20.7552  -11.8659 N   0  0  0  0  0  0  0  0  0  0  0  0
   25.6288  -20.3937  -10.7407 C   0  0  1  0  0  0  0  0  0  0  0  0
   24.2381  -20.8877  -11.0446 C   0  0  0  0  0  0  0  0  0  0  0  0
   23.4976  -20.0921  -12.0597 C   0  0  0  0  0  0  0  0  0  0  0  0
   22.1043  -20.6399  -12.2833 C   0  0  0  0  0  0  0  0  0  0  0  0
   21.3638  -19.8082  -13.3328 C   0  0  0  0  0  0  0  0  0  0  0  0
   20.1460  -19.2645  -12.7766 N   0  0  0  0  0  0  0  0  0  0  0  0
   26.1570  -20.9058   -9.4657 C   0  0  0  0  0  0  0  0  0  0  0  0
   26.4750  -22.1126   -9.3878 O   0  0  0  0  0  0  0  0  0  0  0  0
   29.1149  -18.0603   -5.7663 C   0  0  0  0  0  0  0  0  0  0  0  0
   28.5611  -19.1073   -6.7068 C   0  0  0  0  0  0  0  0  0  0  0  0
   27.3642  -19.7944   -6.1043 C   0  0  2  0  0  0  0  0  0  0  0  0
   27.7054  -20.4180   -4.7938 C   0  0  0  0  0  0  0  0  0  0  0  0
   26.6934  -20.7283   -7.0773 C   0  0  2  0  0  0  0  0  0  0  0  0
   26.3287  -20.1018   -8.3071 N   0  0  0  0  0  0  0  0  0  0  0  0
   25.4702  -21.2538   -6.3714 C   0  0  0  0  0  0  0  0  0  0  0  0
   24.1917  -20.9275   -6.7491 O   0  0  0  0  0  0  0  0  0  0  0  0
   25.6326  -22.0237   -5.3957 O   0  0  0  0  0  0  0  0  0  0  0  0
  2  1  1  1
  2  3  1  0
  4  5  2  0
  4  2  1  0
  6  4  1  0
  7  6  1  0
  7  8  1  6
  9 10  1  0
  9  8  1  0
 10 11  1  0
 11 12  1  0
 13  7  1  0
 13 20  1  0
 14 13  2  0
 16 15  1  0
 17 16  1  0
 17 19  1  0
 17 18  1  1
 19 20  1  6
 19 21  1  0
 21 22  1  0
 23 21  2  0
M  END
$$$$
