AKI.pdb
     RDKit          3D

 23 22  0  0  1  0  0  0  0  0999 V2000
   19.3569  -18.2829  -13.3098 C   0  0  0  0  0  0  0  0  0  0  0  0
   18.9643  -19.7449  -13.3660 C   0  0  2  0  0  0  0  0  0  0  0  0
   17.9534  -20.0034  -12.3863 N   0  0  0  0  0  0  0  0  0  0  0  0
   20.1310  -20.6439  -13.1851 C   0  0  0  0  0  0  0  0  0  0  0  0
   20.3668  -21.0769  -12.0312 O   0  0  0  0  0  0  0  0  0  0  0  0
   20.9766  -21.0249  -14.2567 N   0  0  0  0  0  0  0  0  0  0  0  0
   22.1374  -21.8866  -14.0532 C   0  0  1  0  0  0  0  0  0  0  0  0
   22.3621  -22.6633  -15.3247 C   0  0  0  0  0  0  0  0  0  0  0  0
   23.5674  -23.5345  -15.3229 C   0  0  0  0  0  0  0  0  0  0  0  0
   23.6679  -24.3425  -16.5989 C   0  0  0  0  0  0  0  0  0  0  0  0
   24.8286  -25.3360  -16.5138 C   0  0  0  0  0  0  0  0  0  0  0  0
   24.5606  -26.3383  -15.5081 N   0  0  0  0  0  0  0  0  0  0  0  0
   23.3196  -21.1186  -13.6298 C   0  0  0  0  0  0  0  0  0  0  0  0
   23.4607  -19.9502  -14.0523 O   0  0  0  0  0  0  0  0  0  0  0  0
   25.0632  -20.7308   -8.5641 C   0  0  0  0  0  0  0  0  0  0  0  0
   24.6866  -20.4894  -10.0088 C   0  0  0  0  0  0  0  0  0  0  0  0
   25.7942  -20.9193  -10.9340 C   0  0  2  0  0  0  0  0  0  0  0  0
   27.0796  -20.2520  -10.5803 C   0  0  0  0  0  0  0  0  0  0  0  0
   25.4085  -20.7887  -12.3842 C   0  0  2  0  0  0  0  0  0  0  0  0
   24.3196  -21.6316  -12.7609 N   0  0  0  0  0  0  0  0  0  0  0  0
   26.6427  -21.1388  -13.1747 C   0  0  0  0  0  0  0  0  0  0  0  0
   27.6382  -20.2335  -13.4455 O   0  0  0  0  0  0  0  0  0  0  0  0
   26.7613  -22.3110  -13.6021 O   0  0  0  0  0  0  0  0  0  0  0  0
  2  1  1  1
  2  3  1  0
  4  5  2  0
  4  2  1  0
  6  4  1  0
  7  6  1  0
  7  8  1  6
  9 10  1  0
  9  8  1  0
 10 11  1  0
 11 12  1  0
 13  7  1  0
 13 20  1  0
 14 13  2  0
 16 15  1  0
 17 16  1  0
 17 19  1  0
 17 18  1  6
 19 20  1  6
 19 21  1  0
 21 22  1  0
 23 21  2  0
M  END
$$$$
