AKI.pdb
     RDKit          3D

 23 22  0  0  1  0  0  0  0  0999 V2000
   16.1371  -14.2055  -17.3386 C   0  0  0  0  0  0  0  0  0  0  0  0
   16.3983  -13.4735  -16.0384 C   0  0  2  0  0  0  0  0  0  0  0  0
   15.1509  -13.1673  -15.4067 N   0  0  0  0  0  0  0  0  0  0  0  0
   17.2134  -12.2500  -16.2403 C   0  0  0  0  0  0  0  0  0  0  0  0
   18.3759  -12.3855  -16.6927 O   0  0  0  0  0  0  0  0  0  0  0  0
   16.7300  -10.9512  -15.9435 N   0  0  0  0  0  0  0  0  0  0  0  0
   17.4943   -9.7513  -16.2712 C   0  0  1  0  0  0  0  0  0  0  0  0
   16.5265   -8.5999  -16.3611 C   0  0  0  0  0  0  0  0  0  0  0  0
   15.6303   -8.6249  -17.5476 C   0  0  0  0  0  0  0  0  0  0  0  0
   14.2949   -7.9792  -17.2460 C   0  0  0  0  0  0  0  0  0  0  0  0
   13.4075   -7.9763  -18.4926 C   0  0  0  0  0  0  0  0  0  0  0  0
   12.1649   -7.2892  -18.2244 N   0  0  0  0  0  0  0  0  0  0  0  0
   18.5819   -9.5167  -15.3074 C   0  0  0  0  0  0  0  0  0  0  0  0
   18.3714   -9.7445  -14.0960 O   0  0  0  0  0  0  0  0  0  0  0  0
   22.9942  -11.9675  -15.2655 C   0  0  0  0  0  0  0  0  0  0  0  0
   21.7443  -11.1488  -15.0312 C   0  0  0  0  0  0  0  0  0  0  0  0
   22.0811   -9.6938  -14.8377 C   0  0  2  0  0  0  0  0  0  0  0  0
   23.1079   -9.5168  -13.7714 C   0  0  0  0  0  0  0  0  0  0  0  0
   20.8511   -8.8430  -14.6590 C   0  0  2  0  0  0  0  0  0  0  0  0
   19.8692   -9.0423  -15.6759 N   0  0  0  0  0  0  0  0  0  0  0  0
   21.3309   -7.4145  -14.6636 C   0  0  0  0  0  0  0  0  0  0  0  0
   21.8452   -6.7955  -13.5518 O   0  0  0  0  0  0  0  0  0  0  0  0
   21.2548   -6.7661  -15.7336 O   0  0  0  0  0  0  0  0  0  0  0  0
  2  1  1  6
  2  3  1  0
  4  5  2  0
  4  2  1  0
  6  4  1  0
  7  6  1  0
  7  8  1  1
  9 10  1  0
  9  8  1  0
 10 11  1  0
 11 12  1  0
 13  7  1  0
 13 20  1  0
 14 13  2  0
 16 15  1  0
 17 16  1  0
 17 19  1  0
 17 18  1  1
 19 20  1  6
 19 21  1  0
 21 22  1  0
 23 21  2  0
M  END
$$$$
