AKI.pdb
     RDKit          3D

 23 22  0  0  1  0  0  0  0  0999 V2000
   25.6190  -20.6444   -8.8612 C   0  0  0  0  0  0  0  0  0  0  0  0
   24.4615  -20.3430   -9.7908 C   0  0  2  0  0  0  0  0  0  0  0  0
   23.3685  -21.2158   -9.4869 N   0  0  0  0  0  0  0  0  0  0  0  0
   24.8508  -20.4458  -11.2190 C   0  0  0  0  0  0  0  0  0  0  0  0
   25.8314  -19.7687  -11.6119 O   0  0  0  0  0  0  0  0  0  0  0  0
   24.1619  -21.2717  -12.1421 N   0  0  0  0  0  0  0  0  0  0  0  0
   24.6277  -21.4484  -13.5144 C   0  0  1  0  0  0  0  0  0  0  0  0
   24.0957  -22.7665  -14.0145 C   0  0  0  0  0  0  0  0  0  0  0  0
   24.6323  -23.2004  -15.3319 C   0  0  0  0  0  0  0  0  0  0  0  0
   25.5393  -24.4040  -15.1906 C   0  0  0  0  0  0  0  0  0  0  0  0
   26.1315  -24.7907  -16.5476 C   0  0  0  0  0  0  0  0  0  0  0  0
   26.9598  -25.9675  -16.4184 N   0  0  0  0  0  0  0  0  0  0  0  0
   24.2494  -20.3118  -14.3697 C   0  0  0  0  0  0  0  0  0  0  0  0
   23.1985  -19.6864  -14.1088 O   0  0  0  0  0  0  0  0  0  0  0  0
   27.4501  -16.3582  -15.1424 C   0  0  0  0  0  0  0  0  0  0  0  0
   26.2288  -17.2354  -14.9806 C   0  0  0  0  0  0  0  0  0  0  0  0
   25.7001  -17.6760  -16.3201 C   0  0  2  0  0  0  0  0  0  0  0  0
   25.3375  -16.5039  -17.1670 C   0  0  0  0  0  0  0  0  0  0  0  0
   24.6093  -18.7067  -16.1913 C   0  0  2  0  0  0  0  0  0  0  0  0
   25.0154  -19.8791  -15.4852 N   0  0  0  0  0  0  0  0  0  0  0  0
   24.2001  -19.0556  -17.5990 C   0  0  0  0  0  0  0  0  0  0  0  0
   23.1368  -18.4661  -18.2358 O   0  0  0  0  0  0  0  0  0  0  0  0
   24.8641  -19.9240  -18.2122 O   0  0  0  0  0  0  0  0  0  0  0  0
  2  1  1  1
  2  3  1  0
  4  5  2  0
  4  2  1  0
  6  4  1  0
  7  6  1  0
  7  8  1  6
  9 10  1  0
  9  8  1  0
 10 11  1  0
 11 12  1  0
 13  7  1  0
 13 20  1  0
 14 13  2  0
 16 15  1  0
 17 16  1  0
 17 19  1  0
 17 18  1  1
 19 20  1  6
 19 21  1  0
 21 22  1  0
 23 21  2  0
M  END
$$$$
