AKI.pdb
     RDKit          3D

 23 22  0  0  1  0  0  0  0  0999 V2000
   22.9044  -11.4631  -20.9237 C   0  0  0  0  0  0  0  0  0  0  0  0
   23.1066  -11.3458  -19.4270 C   0  0  2  0  0  0  0  0  0  0  0  0
   23.2406  -12.6539  -18.8618 N   0  0  0  0  0  0  0  0  0  0  0  0
   22.0117  -10.5871  -18.7733 C   0  0  0  0  0  0  0  0  0  0  0  0
   21.8750   -9.3761  -19.0720 O   0  0  0  0  0  0  0  0  0  0  0  0
   21.1269  -11.1759  -17.8355 N   0  0  0  0  0  0  0  0  0  0  0  0
   20.1127  -10.3924  -17.1363 C   0  0  1  0  0  0  0  0  0  0  0  0
   19.0430  -11.3425  -16.6633 C   0  0  0  0  0  0  0  0  0  0  0  0
   17.9368  -10.7101  -15.8964 C   0  0  0  0  0  0  0  0  0  0  0  0
   16.9644  -11.7452  -15.3727 C   0  0  0  0  0  0  0  0  0  0  0  0
   15.8761  -11.0788  -14.5282 C   0  0  0  0  0  0  0  0  0  0  0  0
   15.1167  -12.0753  -13.8084 N   0  0  0  0  0  0  0  0  0  0  0  0
   20.6960   -9.5921  -16.0474 C   0  0  0  0  0  0  0  0  0  0  0  0
   21.5973  -10.0993  -15.3445 O   0  0  0  0  0  0  0  0  0  0  0  0
   23.2583   -4.4078  -14.8961 C   0  0  0  0  0  0  0  0  0  0  0  0
   22.5323   -5.5882  -14.2904 C   0  0  0  0  0  0  0  0  0  0  0  0
   21.7174   -6.3114  -15.3300 C   0  0  2  0  0  0  0  0  0  0  0  0
   20.8166   -5.3715  -16.0565 C   0  0  0  0  0  0  0  0  0  0  0  0
   21.0222   -7.5234  -14.7675 C   0  0  2  0  0  0  0  0  0  0  0  0
   20.2915   -8.2643  -15.7448 N   0  0  0  0  0  0  0  0  0  0  0  0
   20.0958   -7.0099  -13.6956 C   0  0  0  0  0  0  0  0  0  0  0  0
   20.4986   -6.7913  -12.4019 O   0  0  0  0  0  0  0  0  0  0  0  0
   18.9043   -6.7729  -14.0043 O   0  0  0  0  0  0  0  0  0  0  0  0
  2  1  1  6
  2  3  1  0
  4  5  2  0
  4  2  1  0
  6  4  1  0
  7  6  1  0
  7  8  1  1
  9 10  1  0
  9  8  1  0
 10 11  1  0
 11 12  1  0
 13  7  1  0
 13 20  1  0
 14 13  2  0
 16 15  1  0
 17 16  1  0
 17 19  1  0
 17 18  1  1
 19 20  1  6
 19 21  1  0
 21 22  1  0
 23 21  2  0
M  END
$$$$
