AKI.pdb
     RDKit          3D

 23 22  0  0  1  0  0  0  0  0999 V2000
   18.2502  -14.8898  -15.6840 C   0  0  0  0  0  0  0  0  0  0  0  0
   17.9484  -13.5466  -16.3160 C   0  0  2  0  0  0  0  0  0  0  0  0
   17.6009  -13.7361  -17.6915 N   0  0  0  0  0  0  0  0  0  0  0  0
   19.0784  -12.5955  -16.1729 C   0  0  0  0  0  0  0  0  0  0  0  0
   19.4033  -12.2376  -15.0150 O   0  0  0  0  0  0  0  0  0  0  0  0
   19.7936  -12.0846  -17.2848 N   0  0  0  0  0  0  0  0  0  0  0  0
   20.9058  -11.1527  -17.1231 C   0  0  1  0  0  0  0  0  0  0  0  0
   21.7246  -11.1901  -18.3874 C   0  0  0  0  0  0  0  0  0  0  0  0
   22.8851  -10.2604  -18.4110 C   0  0  0  0  0  0  0  0  0  0  0  0
   23.6426  -10.3541  -19.7181 C   0  0  0  0  0  0  0  0  0  0  0  0
   24.8520   -9.4167  -19.7048 C   0  0  0  0  0  0  0  0  0  0  0  0
   25.5653   -9.4972  -20.9588 N   0  0  0  0  0  0  0  0  0  0  0  0
   20.4387   -9.8001  -16.7781 C   0  0  0  0  0  0  0  0  0  0  0  0
   19.6232   -9.2334  -17.5381 O   0  0  0  0  0  0  0  0  0  0  0  0
   16.8076   -6.5849  -14.3796 C   0  0  0  0  0  0  0  0  0  0  0  0
   18.2776   -6.4900  -14.7224 C   0  0  0  0  0  0  0  0  0  0  0  0
   18.8941   -7.8592  -14.8367 C   0  0  2  0  0  0  0  0  0  0  0  0
   18.7336   -8.6286  -13.5698 C   0  0  0  0  0  0  0  0  0  0  0  0
   20.3081   -7.8062  -15.3529 C   0  0  2  0  0  0  0  0  0  0  0  0
   20.8638   -9.0935  -15.6214 N   0  0  0  0  0  0  0  0  0  0  0  0
   21.1104   -7.0975  -14.2924 C   0  0  0  0  0  0  0  0  0  0  0  0
   22.0521   -7.7305  -13.5201 O   0  0  0  0  0  0  0  0  0  0  0  0
   20.9051   -5.8744  -14.1108 O   0  0  0  0  0  0  0  0  0  0  0  0
  2  1  1  6
  2  3  1  0
  4  5  2  0
  4  2  1  0
  6  4  1  0
  7  6  1  0
  7  8  1  6
  9 10  1  0
  9  8  1  0
 10 11  1  0
 11 12  1  0
 13  7  1  0
 13 20  1  0
 14 13  2  0
 16 15  1  0
 17 16  1  0
 17 19  1  0
 17 18  1  1
 19 20  1  1
 19 21  1  0
 21 22  1  0
 23 21  2  0
M  END
$$$$
