AKI.pdb
     RDKit          3D

 23 22  0  0  1  0  0  0  0  0999 V2000
   28.4441  -25.7033  -16.0578 C   0  0  0  0  0  0  0  0  0  0  0  0
   27.6092  -25.6373  -17.3201 C   0  0  2  0  0  0  0  0  0  0  0  0
   26.5726  -24.6644  -17.1537 N   0  0  0  0  0  0  0  0  0  0  0  0
   27.0499  -26.9612  -17.6896 C   0  0  0  0  0  0  0  0  0  0  0  0
   25.8421  -27.1827  -17.4312 O   0  0  0  0  0  0  0  0  0  0  0  0
   27.8231  -27.9704  -18.3159 N   0  0  0  0  0  0  0  0  0  0  0  0
   27.2357  -29.2367  -18.7437 C   0  0  1  0  0  0  0  0  0  0  0  0
   27.8876  -29.6298  -20.0441 C   0  0  0  0  0  0  0  0  0  0  0  0
   27.4737  -28.8224  -21.2225 C   0  0  0  0  0  0  0  0  0  0  0  0
   28.1953  -29.2650  -22.4774 C   0  0  0  0  0  0  0  0  0  0  0  0
   27.7728  -28.4043  -23.6701 C   0  0  0  0  0  0  0  0  0  0  0  0
   28.5275  -28.7695  -24.8468 N   0  0  0  0  0  0  0  0  0  0  0  0
   27.3529  -30.2717  -17.7038 C   0  0  0  0  0  0  0  0  0  0  0  0
   28.3798  -30.2941  -16.9906 O   0  0  0  0  0  0  0  0  0  0  0  0
   23.1370  -31.7750  -14.6563 C   0  0  0  0  0  0  0  0  0  0  0  0
   24.4287  -31.3566  -15.3225 C   0  0  0  0  0  0  0  0  0  0  0  0
   25.2566  -32.5578  -15.6960 C   0  0  2  0  0  0  0  0  0  0  0  0
   25.4337  -33.4719  -14.5316 C   0  0  0  0  0  0  0  0  0  0  0  0
   26.5416  -32.1735  -16.3814 C   0  0  2  0  0  0  0  0  0  0  0  0
   26.3584  -31.2564  -17.4600 N   0  0  0  0  0  0  0  0  0  0  0  0
   27.1456  -33.4603  -16.8817 C   0  0  0  0  0  0  0  0  0  0  0  0
   27.6926  -34.4029  -16.0475 O   0  0  0  0  0  0  0  0  0  0  0  0
   27.1460  -33.6751  -18.1166 O   0  0  0  0  0  0  0  0  0  0  0  0
  2  1  1  1
  2  3  1  0
  4  5  2  0
  4  2  1  0
  6  4  1  0
  7  6  1  0
  7  8  1  6
  9 10  1  0
  9  8  1  0
 10 11  1  0
 11 12  1  0
 13  7  1  0
 13 20  1  0
 14 13  2  0
 16 15  1  0
 17 16  1  0
 17 19  1  0
 17 18  1  1
 19 20  1  6
 19 21  1  0
 21 22  1  0
 23 21  2  0
M  END
$$$$
