AKI.pdb
     RDKit          3D

 23 22  0  0  1  0  0  0  0  0999 V2000
   31.9543  -23.0869  -14.9350 C   0  0  0  0  0  0  0  0  0  0  0  0
   30.5145  -23.5579  -14.9397 C   0  0  2  0  0  0  0  0  0  0  0  0
   30.2556  -24.2823  -16.1467 N   0  0  0  0  0  0  0  0  0  0  0  0
   29.5591  -22.4351  -14.7709 C   0  0  0  0  0  0  0  0  0  0  0  0
   29.5826  -21.8000  -13.6890 O   0  0  0  0  0  0  0  0  0  0  0  0
   28.6332  -22.0609  -15.7766 N   0  0  0  0  0  0  0  0  0  0  0  0
   27.6526  -21.0003  -15.5646 C   0  0  1  0  0  0  0  0  0  0  0  0
   27.0784  -20.6297  -16.9076 C   0  0  0  0  0  0  0  0  0  0  0  0
   26.0303  -19.5752  -16.8724 C   0  0  0  0  0  0  0  0  0  0  0  0
   25.5058  -19.2701  -18.2592 C   0  0  0  0  0  0  0  0  0  0  0  0
   24.5036  -18.1147  -18.2106 C   0  0  0  0  0  0  0  0  0  0  0  0
   23.9461  -17.8764  -19.5222 N   0  0  0  0  0  0  0  0  0  0  0  0
   26.6251  -21.3943  -14.5870 C   0  0  0  0  0  0  0  0  0  0  0  0
   26.1989  -22.5697  -14.6032 O   0  0  0  0  0  0  0  0  0  0  0  0
   26.0448  -21.0922   -8.7124 C   0  0  0  0  0  0  0  0  0  0  0  0
   25.3173  -21.3569  -10.0117 C   0  0  0  0  0  0  0  0  0  0  0  0
   26.0434  -20.7316  -11.1734 C   0  0  2  0  0  0  0  0  0  0  0  0
   26.2736  -19.2767  -10.9433 C   0  0  0  0  0  0  0  0  0  0  0  0
   25.3916  -21.0533  -12.4927 C   0  0  2  0  0  0  0  0  0  0  0  0
   26.0840  -20.5093  -13.6164 N   0  0  0  0  0  0  0  0  0  0  0  0
   23.9953  -20.4924  -12.4130 C   0  0  0  0  0  0  0  0  0  0  0  0
   23.5714  -19.4322  -13.1747 O   0  0  0  0  0  0  0  0  0  0  0  0
   23.1878  -21.0213  -11.6135 O   0  0  0  0  0  0  0  0  0  0  0  0
  2  1  1  6
  2  3  1  0
  4  5  2  0
  4  2  1  0
  6  4  1  0
  7  6  1  0
  7  8  1  6
  9 10  1  0
  9  8  1  0
 10 11  1  0
 11 12  1  0
 13  7  1  0
 13 20  1  0
 14 13  2  0
 16 15  1  0
 17 16  1  0
 17 19  1  0
 17 18  1  1
 19 20  1  6
 19 21  1  0
 21 22  1  0
 23 21  2  0
M  END
$$$$
