ESC.pdb
     RDKit          3D

 22 21  0  0  1  0  0  0  0  0999 V2000
    9.8774  -17.8096   20.0947 N   0  0  0  0  0  0  0  0  0  0  0  0
   10.8030  -17.7283   21.2095 C   0  0  1  0  0  0  0  0  0  0  0  0
   12.0581  -17.0749   20.7393 C   0  0  0  0  0  0  0  0  0  0  0  0
   13.1777  -18.0186   20.4356 C   0  0  0  0  0  0  0  0  0  0  0  0
   14.2014  -17.2754   19.6735 C   0  0  0  0  0  0  0  0  0  0  0  0
   13.8665  -16.6671   18.6384 O   0  0  0  0  0  0  0  0  0  0  0  0
   10.1373  -17.0528   22.3251 C   0  0  0  0  0  0  0  0  0  0  0  0
    9.7331  -15.8463   22.2428 O   0  0  0  0  0  0  0  0  0  0  0  0
   15.5149  -17.2413   20.0828 O   0  0  0  0  0  0  0  0  0  0  0  0
    8.4618  -19.0452   25.7797 O   0  0  0  0  0  0  0  0  0  0  0  0
    8.0637  -17.8259   25.2317 C   0  0  0  0  0  0  0  0  0  0  0  0
    9.2222  -17.0502   24.6804 C   0  0  2  0  0  0  0  0  0  0  0  0
    9.8851  -17.6722   23.5827 N   0  0  0  0  0  0  0  0  0  0  0  0
   10.1316  -16.6776   25.7864 C   0  0  0  0  0  0  0  0  0  0  0  0
   11.2088  -17.3075   25.8953 O   0  0  0  0  0  0  0  0  0  0  0  0
    9.8509  -15.6526   26.7231 N   0  0  0  0  0  0  0  0  0  0  0  0
   10.6823  -15.3290   27.8432 C   0  0  1  0  0  0  0  0  0  0  0  0
   10.1954  -14.1216   28.6053 C   0  0  0  0  0  0  0  0  0  0  0  0
    9.6979  -12.7828   27.5074 S   0  0  0  0  0  0  0  0  0  0  0  0
   10.6666  -16.4754   28.8119 C   0  0  0  0  0  0  0  0  0  0  0  0
   11.4804  -16.4544   29.9278 O   0  0  0  0  0  0  0  0  0  0  0  0
    9.9273  -17.4713   28.6420 O   0  0  0  0  0  0  0  0  0  0  0  0
  2  1  1  6
  2  7  1  0
  3  2  1  0
  4  5  1  0
  4  3  1  0
  5  9  1  0
  6  5  2  0
  7 13  1  0
  7  8  2  0
 10 11  1  0
 12 11  1  1
 12 14  1  0
 13 12  1  0
 14 15  2  0
 14 16  1  0
 16 17  1  0
 17 18  1  1
 18 19  1  0
 20 17  1  0
 20 21  1  0
 22 20  2  0
M  END
$$$$
