ESC.pdb
     RDKit          3D

 22 21  0  0  1  0  0  0  0  0999 V2000
   12.0284  -19.4990   21.6898 N   0  0  0  0  0  0  0  0  0  0  0  0
   12.6998  -18.2136   21.6351 C   0  0  1  0  0  0  0  0  0  0  0  0
   12.9647  -17.8754   20.2072 C   0  0  0  0  0  0  0  0  0  0  0  0
   11.7672  -17.9513   19.3147 C   0  0  0  0  0  0  0  0  0  0  0  0
   12.2158  -17.6876   17.9326 C   0  0  0  0  0  0  0  0  0  0  0  0
   11.4200  -17.1734   17.1226 O   0  0  0  0  0  0  0  0  0  0  0  0
   11.8936  -17.2307   22.3618 C   0  0  0  0  0  0  0  0  0  0  0  0
   12.3126  -16.0490   22.5939 O   0  0  0  0  0  0  0  0  0  0  0  0
   13.4922  -17.9978   17.5223 O   0  0  0  0  0  0  0  0  0  0  0  0
    8.1890  -18.2090   24.3484 O   0  0  0  0  0  0  0  0  0  0  0  0
    8.3536  -16.9624   23.7446 C   0  0  0  0  0  0  0  0  0  0  0  0
    9.7986  -16.5835   23.6177 C   0  0  2  0  0  0  0  0  0  0  0  0
   10.5896  -17.5012   22.8669 N   0  0  0  0  0  0  0  0  0  0  0  0
   10.3471  -16.2908   24.9603 C   0  0  0  0  0  0  0  0  0  0  0  0
   11.1993  -17.0803   25.4289 O   0  0  0  0  0  0  0  0  0  0  0  0
    9.9623  -15.1720   25.7394 N   0  0  0  0  0  0  0  0  0  0  0  0
   10.4209  -14.9165   27.0717 C   0  0  1  0  0  0  0  0  0  0  0  0
    9.7306  -13.7387   27.7136 C   0  0  0  0  0  0  0  0  0  0  0  0
   10.5226  -13.2470   29.2551 S   0  0  0  0  0  0  0  0  0  0  0  0
   10.1137  -16.1074   27.9321 C   0  0  0  0  0  0  0  0  0  0  0  0
   11.0075  -16.5123   28.9042 O   0  0  0  0  0  0  0  0  0  0  0  0
    9.0546  -16.7612   27.7982 O   0  0  0  0  0  0  0  0  0  0  0  0
  2  1  1  6
  2  7  1  0
  3  2  1  0
  4  5  1  0
  4  3  1  0
  5  9  1  0
  6  5  2  0
  7 13  1  0
  7  8  2  0
 10 11  1  0
 12 11  1  1
 12 14  1  0
 13 12  1  0
 14 15  2  0
 14 16  1  0
 16 17  1  0
 17 18  1  1
 18 19  1  0
 20 17  1  0
 20 21  1  0
 22 20  2  0
M  END
$$$$
