ESC.pdb
     RDKit          3D

 22 21  0  0  1  0  0  0  0  0999 V2000
   10.7236  -19.6492   21.8962 N   0  0  0  0  0  0  0  0  0  0  0  0
   11.9342  -18.9825   22.3390 C   0  0  1  0  0  0  0  0  0  0  0  0
   12.7537  -18.6396   21.1415 C   0  0  0  0  0  0  0  0  0  0  0  0
   12.2344  -17.4908   20.3372 C   0  0  0  0  0  0  0  0  0  0  0  0
   13.2010  -17.2243   19.2528 C   0  0  0  0  0  0  0  0  0  0  0  0
   13.0241  -17.7517   18.1373 O   0  0  0  0  0  0  0  0  0  0  0  0
   11.5626  -17.8419   23.1785 C   0  0  0  0  0  0  0  0  0  0  0  0
   12.4343  -17.0651   23.6910 O   0  0  0  0  0  0  0  0  0  0  0  0
   14.2906  -16.4070   19.4492 O   0  0  0  0  0  0  0  0  0  0  0  0
    7.6718  -17.4130   24.8502 O   0  0  0  0  0  0  0  0  0  0  0  0
    8.3425  -16.2469   24.4814 C   0  0  0  0  0  0  0  0  0  0  0  0
    9.8235  -16.4564   24.3790 C   0  0  2  0  0  0  0  0  0  0  0  0
   10.2157  -17.5024   23.4938 N   0  0  0  0  0  0  0  0  0  0  0  0
   10.3940  -16.5868   25.7379 C   0  0  0  0  0  0  0  0  0  0  0  0
   10.9333  -17.6752   26.0439 O   0  0  0  0  0  0  0  0  0  0  0  0
   10.3630  -15.5527   26.7056 N   0  0  0  0  0  0  0  0  0  0  0  0
   10.9062  -15.6625   28.0261 C   0  0  1  0  0  0  0  0  0  0  0  0
   10.6748  -14.4268   28.8598 C   0  0  0  0  0  0  0  0  0  0  0  0
   11.1204  -12.9209   27.9771 S   0  0  0  0  0  0  0  0  0  0  0  0
   10.2243  -16.7908   28.7437 C   0  0  0  0  0  0  0  0  0  0  0  0
   10.6961  -17.2228   29.9678 O   0  0  0  0  0  0  0  0  0  0  0  0
    9.2221  -17.3671   28.2632 O   0  0  0  0  0  0  0  0  0  0  0  0
  2  1  1  6
  2  7  1  0
  3  2  1  0
  4  5  1  0
  4  3  1  0
  5  9  1  0
  6  5  2  0
  7 13  1  0
  7  8  2  0
 10 11  1  0
 12 11  1  1
 12 14  1  0
 13 12  1  0
 14 15  2  0
 14 16  1  0
 16 17  1  0
 17 18  1  1
 18 19  1  0
 20 17  1  0
 20 21  1  0
 22 20  2  0
M  END
$$$$
