ESC.pdb
     RDKit          3D

 22 21  0  0  1  0  0  0  0  0999 V2000
    9.9427  -17.9670   16.0160 N   0  0  0  0  0  0  0  0  0  0  0  0
    9.0433  -18.1562   17.1391 C   0  0  1  0  0  0  0  0  0  0  0  0
    8.9531  -19.6145   17.4361 C   0  0  0  0  0  0  0  0  0  0  0  0
   10.2235  -20.3748   17.2254 C   0  0  0  0  0  0  0  0  0  0  0  0
    9.9662  -21.7887   17.5655 C   0  0  0  0  0  0  0  0  0  0  0  0
   10.4129  -22.6840   16.8221 O   0  0  0  0  0  0  0  0  0  0  0  0
    9.5037  -17.3274   18.2550 C   0  0  0  0  0  0  0  0  0  0  0  0
   10.7173  -16.9520   18.3647 O   0  0  0  0  0  0  0  0  0  0  0  0
    9.2446  -22.1365   18.6845 O   0  0  0  0  0  0  0  0  0  0  0  0
    7.1250  -16.6059   21.7402 O   0  0  0  0  0  0  0  0  0  0  0  0
    7.9667  -15.5897   21.2880 C   0  0  0  0  0  0  0  0  0  0  0  0
    9.0789  -16.1176   20.4323 C   0  0  2  0  0  0  0  0  0  0  0  0
    8.6514  -16.8730   19.3018 N   0  0  0  0  0  0  0  0  0  0  0  0
   10.0555  -16.8307   21.2849 C   0  0  0  0  0  0  0  0  0  0  0  0
    9.9606  -18.0770   21.3664 O   0  0  0  0  0  0  0  0  0  0  0  0
   11.0860  -16.1829   22.0097 N   0  0  0  0  0  0  0  0  0  0  0  0
   11.9503  -16.8351   22.9469 C   0  0  1  0  0  0  0  0  0  0  0  0
   13.0825  -15.9535   23.4122 C   0  0  0  0  0  0  0  0  0  0  0  0
   14.2422  -16.8406   24.4674 S   0  0  0  0  0  0  0  0  0  0  0  0
   11.1618  -17.1935   24.1728 C   0  0  0  0  0  0  0  0  0  0  0  0
   10.0101  -16.4988   24.4868 O   0  0  0  0  0  0  0  0  0  0  0  0
   11.5172  -18.1189   24.9374 O   0  0  0  0  0  0  0  0  0  0  0  0
  2  1  1  6
  2  7  1  0
  3  2  1  0
  4  5  1  0
  4  3  1  0
  5  9  1  0
  6  5  2  0
  7 13  1  0
  7  8  2  0
 10 11  1  0
 12 11  1  1
 12 14  1  0
 13 12  1  0
 14 15  2  0
 14 16  1  0
 16 17  1  0
 17 18  1  1
 18 19  1  0
 20 17  1  0
 20 21  1  0
 22 20  2  0
M  END
$$$$
