ESC.pdb
     RDKit          3D

 22 21  0  0  1  0  0  0  0  0999 V2000
   11.4670  -19.2897   21.7317 N   0  0  0  0  0  0  0  0  0  0  0  0
   12.3460  -18.1420   21.8588 C   0  0  1  0  0  0  0  0  0  0  0  0
   12.7674  -17.7119   20.4947 C   0  0  0  0  0  0  0  0  0  0  0  0
   11.8194  -18.0872   19.4007 C   0  0  0  0  0  0  0  0  0  0  0  0
   12.3796  -17.5918   18.1272 C   0  0  0  0  0  0  0  0  0  0  0  0
   12.1443  -18.2175   17.0752 O   0  0  0  0  0  0  0  0  0  0  0  0
   11.6646  -17.1127   22.6464 C   0  0  0  0  0  0  0  0  0  0  0  0
   12.1961  -15.9783   22.8836 O   0  0  0  0  0  0  0  0  0  0  0  0
   13.1544  -16.4555   18.0793 O   0  0  0  0  0  0  0  0  0  0  0  0
    8.0170  -17.8545   24.8471 O   0  0  0  0  0  0  0  0  0  0  0  0
    8.2635  -16.5997   24.2900 C   0  0  0  0  0  0  0  0  0  0  0  0
    9.7275  -16.3535   24.0803 C   0  0  2  0  0  0  0  0  0  0  0  0
   10.3675  -17.2829   23.2097 N   0  0  0  0  0  0  0  0  0  0  0  0
   10.3938  -16.2187   25.3944 C   0  0  0  0  0  0  0  0  0  0  0  0
   11.2404  -17.0853   25.7126 O   0  0  0  0  0  0  0  0  0  0  0  0
   10.1269  -15.1682   26.3066 N   0  0  0  0  0  0  0  0  0  0  0  0
   10.7689  -15.0164   27.5776 C   0  0  1  0  0  0  0  0  0  0  0  0
   10.3498  -13.7601   28.2999 C   0  0  0  0  0  0  0  0  0  0  0  0
    8.8392  -13.0570   27.6151 S   0  0  0  0  0  0  0  0  0  0  0  0
   10.3788  -16.1638   28.4632 C   0  0  0  0  0  0  0  0  0  0  0  0
   11.0550  -16.3908   29.6460 O   0  0  0  0  0  0  0  0  0  0  0  0
    9.4429  -16.9392   28.1628 O   0  0  0  0  0  0  0  0  0  0  0  0
  2  1  1  6
  2  7  1  0
  3  2  1  0
  4  5  1  0
  4  3  1  0
  5  9  1  0
  6  5  2  0
  7 13  1  0
  7  8  2  0
 10 11  1  0
 12 11  1  1
 12 14  1  0
 13 12  1  0
 14 15  2  0
 14 16  1  0
 16 17  1  0
 17 18  1  1
 18 19  1  0
 20 17  1  0
 20 21  1  0
 22 20  2  0
M  END
$$$$
