ESC.pdb
     RDKit          3D

 22 21  0  0  1  0  0  0  0  0999 V2000
   10.7709  -18.9845   21.4198 N   0  0  0  0  0  0  0  0  0  0  0  0
   10.9263  -17.5884   21.0555 C   0  0  1  0  0  0  0  0  0  0  0  0
   10.8611  -17.4741   19.5702 C   0  0  0  0  0  0  0  0  0  0  0  0
    9.5305  -17.8092   18.9757 C   0  0  0  0  0  0  0  0  0  0  0  0
    9.5754  -17.4609   17.5412 C   0  0  0  0  0  0  0  0  0  0  0  0
    8.5800  -17.6927   16.8277 O   0  0  0  0  0  0  0  0  0  0  0  0
    9.9268  -16.7996   21.7786 C   0  0  0  0  0  0  0  0  0  0  0  0
    9.9319  -15.5246   21.7672 O   0  0  0  0  0  0  0  0  0  0  0  0
   10.6921  -16.8868   16.9781 O   0  0  0  0  0  0  0  0  0  0  0  0
    7.2232  -18.5087   24.6570 O   0  0  0  0  0  0  0  0  0  0  0  0
    6.7927  -17.4495   23.8580 C   0  0  0  0  0  0  0  0  0  0  0  0
    7.9384  -16.6396   23.3296 C   0  0  2  0  0  0  0  0  0  0  0  0
    8.8756  -17.3758   22.5478 N   0  0  0  0  0  0  0  0  0  0  0  0
    8.5586  -15.8863   24.4418 C   0  0  0  0  0  0  0  0  0  0  0  0
    9.7128  -16.2163   24.7998 O   0  0  0  0  0  0  0  0  0  0  0  0
    7.9207  -14.8183   25.1194 N   0  0  0  0  0  0  0  0  0  0  0  0
    8.4530  -14.1580   26.2732 C   0  0  1  0  0  0  0  0  0  0  0  0
    7.5066  -13.1362   26.8527 C   0  0  0  0  0  0  0  0  0  0  0  0
    6.9532  -11.9479   25.6170 S   0  0  0  0  0  0  0  0  0  0  0  0
    8.6913  -15.1739   27.3522 C   0  0  0  0  0  0  0  0  0  0  0  0
    9.3607  -14.8183   28.5068 O   0  0  0  0  0  0  0  0  0  0  0  0
    8.2972  -16.3570   27.2417 O   0  0  0  0  0  0  0  0  0  0  0  0
  2  1  1  6
  2  7  1  0
  3  2  1  0
  4  5  1  0
  4  3  1  0
  5  9  1  0
  6  5  2  0
  7 13  1  0
  7  8  2  0
 10 11  1  0
 12 11  1  1
 12 14  1  0
 13 12  1  0
 14 15  2  0
 14 16  1  0
 16 17  1  0
 17 18  1  1
 18 19  1  0
 20 17  1  0
 20 21  1  0
 22 20  2  0
M  END
$$$$
