ESC.pdb
     RDKit          3D

 22 21  0  0  1  0  0  0  0  0999 V2000
   10.4782  -16.2997   18.1505 N   0  0  0  0  0  0  0  0  0  0  0  0
   11.0475  -16.8394   19.3715 C   0  0  1  0  0  0  0  0  0  0  0  0
   12.4352  -16.3152   19.5217 C   0  0  0  0  0  0  0  0  0  0  0  0
   12.5711  -14.8398   19.3189 C   0  0  0  0  0  0  0  0  0  0  0  0
   13.9958  -14.4894   19.4880 C   0  0  0  0  0  0  0  0  0  0  0  0
   14.3197  -13.6681   20.3679 O   0  0  0  0  0  0  0  0  0  0  0  0
   10.1486  -16.5316   20.4856 C   0  0  0  0  0  0  0  0  0  0  0  0
    9.3761  -15.5173   20.4727 O   0  0  0  0  0  0  0  0  0  0  0  0
   14.9705  -15.0504   18.6949 O   0  0  0  0  0  0  0  0  0  0  0  0
    9.9359  -18.8442   24.1691 O   0  0  0  0  0  0  0  0  0  0  0  0
    8.8037  -18.3605   23.5135 C   0  0  0  0  0  0  0  0  0  0  0  0
    9.1012  -17.1335   22.7050 C   0  0  2  0  0  0  0  0  0  0  0  0
   10.0573  -17.3245   21.6653 N   0  0  0  0  0  0  0  0  0  0  0  0
    9.4338  -16.0163   23.6162 C   0  0  0  0  0  0  0  0  0  0  0  0
   10.6402  -15.7039   23.7427 O   0  0  0  0  0  0  0  0  0  0  0  0
    8.4664  -15.2855   24.3489 N   0  0  0  0  0  0  0  0  0  0  0  0
    8.7751  -14.3373   25.3767 C   0  0  1  0  0  0  0  0  0  0  0  0
    7.5646  -13.5727   25.8518 C   0  0  0  0  0  0  0  0  0  0  0  0
    7.9699  -12.4134   27.1698 S   0  0  0  0  0  0  0  0  0  0  0  0
    9.3097  -15.0690   26.5733 C   0  0  0  0  0  0  0  0  0  0  0  0
   10.1935  -14.4455   27.4323 O   0  0  0  0  0  0  0  0  0  0  0  0
    8.9769  -16.2490   26.8267 O   0  0  0  0  0  0  0  0  0  0  0  0
  2  1  1  6
  2  7  1  0
  3  2  1  0
  4  5  1  0
  4  3  1  0
  5  9  1  0
  6  5  2  0
  7 13  1  0
  7  8  2  0
 10 11  1  0
 12 11  1  1
 12 14  1  0
 13 12  1  0
 14 15  2  0
 14 16  1  0
 16 17  1  0
 17 18  1  1
 18 19  1  0
 20 17  1  0
 20 21  1  0
 22 20  2  0
M  END
$$$$
