FKH.pdb
     RDKit          3D

 31 32  0  0  1  0  0  0  0  0999 V2000
   26.9068  -21.7211  -10.7391 N   0  0  0  0  0  0  0  0  0  0  0  0
   25.7666  -20.9975  -11.2092 C   0  0  1  0  0  0  0  0  0  0  0  0
   25.1768  -20.0397  -10.2421 C   0  0  0  0  0  0  0  0  0  0  0  0
   24.5754  -20.6390   -9.0509 C   0  0  0  0  0  0  0  0  0  0  0  0
   25.2329  -20.7976   -7.8482 C   0  0  0  0  0  0  0  0  0  0  0  0
   24.5923  -21.3779   -6.7711 C   0  0  0  0  0  0  0  0  0  0  0  0
   23.2906  -21.8152   -6.8527 C   0  0  0  0  0  0  0  0  0  0  0  0
   22.6240  -21.6606   -8.0521 C   0  0  0  0  0  0  0  0  0  0  0  0
   23.2680  -21.0802   -9.1256 C   0  0  0  0  0  0  0  0  0  0  0  0
   26.1927  -20.2347  -12.4201 C   0  0  0  0  0  0  0  0  0  0  0  0
   27.2912  -19.6176  -12.3649 O   0  0  0  0  0  0  0  0  0  0  0  0
   25.4410  -20.1724  -13.5984 N   0  0  0  0  0  0  0  0  0  0  0  0
   25.9586  -19.4307  -14.7544 C   0  0  1  0  0  0  0  0  0  0  0  0
   26.0679  -20.3899  -15.9262 C   0  0  0  0  0  0  0  0  0  0  0  0
   27.3534  -21.1500  -15.8569 C   0  0  0  0  0  0  0  0  0  0  0  0
   27.5117  -22.0249  -17.1146 C   0  0  0  0  0  0  0  0  0  0  0  0
   28.8336  -22.7101  -17.0838 C   0  0  0  0  0  0  0  0  0  0  0  0
   28.9056  -23.5596  -18.2737 N   0  0  0  0  0  0  0  0  0  0  0  0
   25.0527  -18.3053  -15.0183 C   0  0  0  0  0  0  0  0  0  0  0  0
   23.8082  -18.5488  -15.1356 O   0  0  0  0  0  0  0  0  0  0  0  0
   25.4482  -16.9564  -15.1488 N   0  0  0  0  0  0  0  0  0  0  0  0
   24.4410  -15.9401  -15.4152 C   0  0  1  0  0  0  0  0  0  0  0  0
   25.0250  -14.5586  -15.2189 C   0  0  0  0  0  0  0  0  0  0  0  0
   23.9968  -13.5461  -15.5187 C   0  0  0  0  0  0  0  0  0  0  0  0
   22.8901  -13.2959  -14.7301 C   0  0  0  0  0  0  0  0  0  0  0  0
   22.1410  -12.3432  -15.2899 N   0  0  0  0  0  0  0  0  0  0  0  0
   22.7782  -12.0035  -16.4201 C   0  0  0  0  0  0  0  0  0  0  0  0
   23.8949  -12.7155  -16.5737 N   0  0  0  0  0  0  0  0  0  0  0  0
   23.8501  -16.1200  -16.7491 C   0  0  0  0  0  0  0  0  0  0  0  0
   24.5996  -16.4442  -17.7056 O   0  0  0  0  0  0  0  0  0  0  0  0
   22.5152  -15.9619  -17.0395 O   0  0  0  0  0  0  0  0  0  0  0  0
  2  1  1  1
  3  2  1  0
  3  4  1  0
  4  5  2  0
  5  6  1  0
  7  6  2  0
  8  7  1  0
  9  4  1  0
  9  8  2  0
 10 11  2  0
 10  2  1  0
 12 10  1  0
 13 12  1  0
 13 14  1  6
 14 15  1  0
 15 16  1  0
 16 17  1  0
 17 18  1  0
 19 13  1  0
 20 19  2  0
 21 19  1  0
 22 21  1  0
 22 23  1  6
 24 23  1  0
 24 25  2  0
 26 25  1  0
 27 26  1  0
 28 27  2  0
 28 24  1  0
 29 22  1  0
 30 29  2  0
 31 29  1  0
M  END
$$$$
