FKH.pdb
     RDKit          3D

 31 32  0  0  1  0  0  0  0  0999 V2000
   24.1543  -16.8996  -18.8507 N   0  0  0  0  0  0  0  0  0  0  0  0
   24.0632  -16.5177  -17.4756 C   0  0  1  0  0  0  0  0  0  0  0  0
   22.7944  -15.8586  -17.0804 C   0  0  0  0  0  0  0  0  0  0  0  0
   22.5033  -14.5963  -17.7598 C   0  0  0  0  0  0  0  0  0  0  0  0
   21.5239  -14.4417  -18.7195 C   0  0  0  0  0  0  0  0  0  0  0  0
   21.3158  -13.2138  -19.3162 C   0  0  0  0  0  0  0  0  0  0  0  0
   22.0661  -12.1103  -18.9824 C   0  0  0  0  0  0  0  0  0  0  0  0
   23.0485  -12.2547  -18.0228 C   0  0  0  0  0  0  0  0  0  0  0  0
   23.2529  -13.4836  -17.4292 C   0  0  0  0  0  0  0  0  0  0  0  0
   24.2186  -17.7580  -16.6588 C   0  0  0  0  0  0  0  0  0  0  0  0
   23.5312  -18.7632  -16.9868 O   0  0  0  0  0  0  0  0  0  0  0  0
   25.0795  -17.8572  -15.5605 N   0  0  0  0  0  0  0  0  0  0  0  0
   25.1710  -19.1202  -14.8183 C   0  0  1  0  0  0  0  0  0  0  0  0
   26.4373  -19.0905  -13.9812 C   0  0  0  0  0  0  0  0  0  0  0  0
   27.0990  -20.4311  -13.9928 C   0  0  0  0  0  0  0  0  0  0  0  0
   27.8956  -20.6095  -15.2988 C   0  0  0  0  0  0  0  0  0  0  0  0
   28.5153  -21.9635  -15.3255 C   0  0  0  0  0  0  0  0  0  0  0  0
   29.1428  -22.1236  -16.6382 N   0  0  0  0  0  0  0  0  0  0  0  0
   23.9535  -19.2646  -14.0098 C   0  0  0  0  0  0  0  0  0  0  0  0
   23.3594  -18.2071  -13.6219 O   0  0  0  0  0  0  0  0  0  0  0  0
   23.3735  -20.4929  -13.6255 N   0  0  0  0  0  0  0  0  0  0  0  0
   21.9295  -20.5817  -13.4672 C   0  0  1  0  0  0  0  0  0  0  0  0
   21.2364  -19.6656  -14.4514 C   0  0  0  0  0  0  0  0  0  0  0  0
   19.7772  -19.7694  -14.2717 C   0  0  0  0  0  0  0  0  0  0  0  0
   19.1519  -20.0138  -13.0641 C   0  0  0  0  0  0  0  0  0  0  0  0
   17.8305  -20.0770  -13.2429 N   0  0  0  0  0  0  0  0  0  0  0  0
   17.6356  -19.8736  -14.5541 C   0  0  0  0  0  0  0  0  0  0  0  0
   18.7937  -19.6867  -15.1878 N   0  0  0  0  0  0  0  0  0  0  0  0
   21.4721  -21.9748  -13.5725 C   0  0  0  0  0  0  0  0  0  0  0  0
   20.6172  -22.3960  -12.7520 O   0  0  0  0  0  0  0  0  0  0  0  0
   21.9114  -22.8714  -14.5184 O   0  0  0  0  0  0  0  0  0  0  0  0
  2  1  1  6
  3  2  1  0
  3  4  1  0
  4  5  2  0
  5  6  1  0
  7  6  2  0
  8  7  1  0
  9  4  1  0
  9  8  2  0
 10 11  2  0
 10  2  1  0
 12 10  1  0
 13 12  1  0
 13 14  1  1
 14 15  1  0
 15 16  1  0
 16 17  1  0
 17 18  1  0
 19 13  1  0
 20 19  2  0
 21 19  1  0
 22 21  1  0
 22 23  1  6
 24 23  1  0
 24 25  2  0
 26 25  1  0
 27 26  1  0
 28 27  2  0
 28 24  1  0
 29 22  1  0
 30 29  2  0
 31 29  1  0
M  END
$$$$
