FKH.pdb
     RDKit          3D

 31 32  0  0  1  0  0  0  0  0999 V2000
   20.8125  -30.8633  -12.2071 N   0  0  0  0  0  0  0  0  0  0  0  0
   21.6587  -30.1999  -11.2644 C   0  0  1  0  0  0  0  0  0  0  0  0
   21.0003  -29.1549  -10.4427 C   0  0  0  0  0  0  0  0  0  0  0  0
   20.5432  -27.9742  -11.1754 C   0  0  0  0  0  0  0  0  0  0  0  0
   21.3672  -27.1645  -11.9300 C   0  0  0  0  0  0  0  0  0  0  0  0
   20.8551  -26.0641  -12.5889 C   0  0  0  0  0  0  0  0  0  0  0  0
   19.5211  -25.7354  -12.5204 C   0  0  0  0  0  0  0  0  0  0  0  0
   18.6883  -26.5398  -11.7679 C   0  0  0  0  0  0  0  0  0  0  0  0
   19.2044  -27.6383  -11.1113 C   0  0  0  0  0  0  0  0  0  0  0  0
   22.2024  -31.2428  -10.3444 C   0  0  0  0  0  0  0  0  0  0  0  0
   21.4574  -32.2217  -10.0661 O   0  0  0  0  0  0  0  0  0  0  0  0
   23.4826  -31.1868   -9.7831 N   0  0  0  0  0  0  0  0  0  0  0  0
   23.9649  -32.2995   -8.9562 C   0  0  1  0  0  0  0  0  0  0  0  0
   25.4530  -32.1096   -8.7225 C   0  0  0  0  0  0  0  0  0  0  0  0
   25.9987  -33.2376   -7.9070 C   0  0  0  0  0  0  0  0  0  0  0  0
   26.6008  -34.3096   -8.8346 C   0  0  0  0  0  0  0  0  0  0  0  0
   27.0456  -35.4781   -8.0255 C   0  0  0  0  0  0  0  0  0  0  0  0
   27.5410  -36.4871   -8.9632 N   0  0  0  0  0  0  0  0  0  0  0  0
   23.1870  -32.3140   -7.7107 C   0  0  0  0  0  0  0  0  0  0  0  0
   23.0876  -31.2297   -7.0502 O   0  0  0  0  0  0  0  0  0  0  0  0
   22.5254  -33.4417   -7.1782 N   0  0  0  0  0  0  0  0  0  0  0  0
   21.8675  -33.3380   -5.8842 C   0  0  1  0  0  0  0  0  0  0  0  0
   20.6508  -34.2358   -5.8407 C   0  0  0  0  0  0  0  0  0  0  0  0
   19.5455  -33.5972   -6.5773 C   0  0  0  0  0  0  0  0  0  0  0  0
   19.5684  -32.3012   -7.0559 C   0  0  0  0  0  0  0  0  0  0  0  0
   18.4073  -32.0171   -7.6501 N   0  0  0  0  0  0  0  0  0  0  0  0
   17.6667  -33.1300   -7.5412 C   0  0  0  0  0  0  0  0  0  0  0  0
   18.3343  -34.0895   -6.9000 N   0  0  0  0  0  0  0  0  0  0  0  0
   22.8105  -33.6101   -4.7898 C   0  0  0  0  0  0  0  0  0  0  0  0
   23.5714  -34.6075   -4.8789 O   0  0  0  0  0  0  0  0  0  0  0  0
   22.9315  -32.8432   -3.6546 O   0  0  0  0  0  0  0  0  0  0  0  0
  2  1  1  6
  3  2  1  0
  3  4  1  0
  4  5  2  0
  5  6  1  0
  7  6  2  0
  8  7  1  0
  9  4  1  0
  9  8  2  0
 10 11  2  0
 10  2  1  0
 12 10  1  0
 13 12  1  0
 13 14  1  1
 14 15  1  0
 15 16  1  0
 16 17  1  0
 17 18  1  0
 19 13  1  0
 20 19  2  0
 21 19  1  0
 22 21  1  0
 22 23  1  6
 24 23  1  0
 24 25  2  0
 26 25  1  0
 27 26  1  0
 28 27  2  0
 28 24  1  0
 29 22  1  0
 30 29  2  0
 31 29  1  0
M  END
$$$$
