FKH.pdb
     RDKit          3D

 31 32  0  0  1  0  0  0  0  0999 V2000
   27.4984  -21.5804   -8.7124 N   0  0  0  0  0  0  0  0  0  0  0  0
   26.4665  -20.5956   -8.6121 C   0  0  1  0  0  0  0  0  0  0  0  0
   26.8372  -19.3563   -7.8860 C   0  0  0  0  0  0  0  0  0  0  0  0
   27.4704  -19.5566   -6.5827 C   0  0  0  0  0  0  0  0  0  0  0  0
   26.7972  -19.5060   -5.3792 C   0  0  0  0  0  0  0  0  0  0  0  0
   27.4721  -19.7029   -4.1905 C   0  0  0  0  0  0  0  0  0  0  0  0
   28.8243  -19.9541   -4.1588 C   0  0  0  0  0  0  0  0  0  0  0  0
   29.5068  -20.0069   -5.3581 C   0  0  0  0  0  0  0  0  0  0  0  0
   28.8282  -19.8096   -6.5434 C   0  0  0  0  0  0  0  0  0  0  0  0
   26.0728  -20.2212  -10.0030 C   0  0  0  0  0  0  0  0  0  0  0  0
   25.4041  -19.1628  -10.1557 O   0  0  0  0  0  0  0  0  0  0  0  0
   26.4060  -20.9788  -11.1309 N   0  0  0  0  0  0  0  0  0  0  0  0
   26.1604  -20.4354  -12.4721 C   0  0  1  0  0  0  0  0  0  0  0  0
   27.2959  -20.8740  -13.3794 C   0  0  0  0  0  0  0  0  0  0  0  0
   27.0618  -20.3912  -14.7748 C   0  0  0  0  0  0  0  0  0  0  0  0
   28.1918  -20.8876  -15.6961 C   0  0  0  0  0  0  0  0  0  0  0  0
   28.0023  -20.3307  -17.0644 C   0  0  0  0  0  0  0  0  0  0  0  0
   29.0542  -20.8985  -17.9093 N   0  0  0  0  0  0  0  0  0  0  0  0
   24.8479  -20.9132  -12.9256 C   0  0  0  0  0  0  0  0  0  0  0  0
   24.6096  -22.1630  -12.8689 O   0  0  0  0  0  0  0  0  0  0  0  0
   23.8105  -20.0936  -13.4205 N   0  0  0  0  0  0  0  0  0  0  0  0
   22.5542  -20.7026  -13.8315 C   0  0  1  0  0  0  0  0  0  0  0  0
   21.4172  -19.7175  -13.6739 C   0  0  0  0  0  0  0  0  0  0  0  0
   20.8306  -19.8591  -12.3292 C   0  0  0  0  0  0  0  0  0  0  0  0
   21.2390  -20.7865  -11.3899 C   0  0  0  0  0  0  0  0  0  0  0  0
   20.4915  -20.6759  -10.2894 N   0  0  0  0  0  0  0  0  0  0  0  0
   19.6232  -19.6858  -10.5434 C   0  0  0  0  0  0  0  0  0  0  0  0
   19.8124  -19.1832  -11.7637 N   0  0  0  0  0  0  0  0  0  0  0  0
   22.6508  -21.2412  -15.1959 C   0  0  0  0  0  0  0  0  0  0  0  0
   22.0075  -22.2829  -15.4836 O   0  0  0  0  0  0  0  0  0  0  0  0
   23.4015  -20.6834  -16.2042 O   0  0  0  0  0  0  0  0  0  0  0  0
  2  1  1  6
  3  2  1  0
  3  4  1  0
  4  5  2  0
  5  6  1  0
  7  6  2  0
  8  7  1  0
  9  4  1  0
  9  8  2  0
 10 11  2  0
 10  2  1  0
 12 10  1  0
 13 12  1  0
 13 14  1  6
 14 15  1  0
 15 16  1  0
 16 17  1  0
 17 18  1  0
 19 13  1  0
 20 19  2  0
 21 19  1  0
 22 21  1  0
 22 23  1  6
 24 23  1  0
 24 25  2  0
 26 25  1  0
 27 26  1  0
 28 27  2  0
 28 24  1  0
 29 22  1  0
 30 29  2  0
 31 29  1  0
M  END
$$$$
