FKH.pdb
     RDKit          3D

 31 32  0  0  1  0  0  0  0  0999 V2000
   26.1152  -21.9698  -14.3518 N   0  0  0  0  0  0  0  0  0  0  0  0
   24.9662  -21.2985  -13.8283 C   0  0  1  0  0  0  0  0  0  0  0  0
   25.2487  -20.0797  -13.0314 C   0  0  0  0  0  0  0  0  0  0  0  0
   25.2711  -20.2679  -11.5809 C   0  0  0  0  0  0  0  0  0  0  0  0
   26.3845  -20.6651  -10.8691 C   0  0  0  0  0  0  0  0  0  0  0  0
   26.3197  -20.8233   -9.4987 C   0  0  0  0  0  0  0  0  0  0  0  0
   25.1585  -20.5943   -8.7976 C   0  0  0  0  0  0  0  0  0  0  0  0
   24.0389  -20.1962   -9.5010 C   0  0  0  0  0  0  0  0  0  0  0  0
   24.1083  -20.0394  -10.8703 C   0  0  0  0  0  0  0  0  0  0  0  0
   24.1118  -20.9090  -14.9893 C   0  0  0  0  0  0  0  0  0  0  0  0
   24.6882  -20.4304  -16.0039 O   0  0  0  0  0  0  0  0  0  0  0  0
   22.7198  -21.0476  -15.0054 N   0  0  0  0  0  0  0  0  0  0  0  0
   21.9746  -20.7739  -16.2400 C   0  0  1  0  0  0  0  0  0  0  0  0
   21.1076  -21.9809  -16.5510 C   0  0  0  0  0  0  0  0  0  0  0  0
   20.3266  -21.7501  -17.8048 C   0  0  0  0  0  0  0  0  0  0  0  0
   21.1142  -22.2824  -19.0166 C   0  0  0  0  0  0  0  0  0  0  0  0
   20.3625  -21.9906  -20.2687 C   0  0  0  0  0  0  0  0  0  0  0  0
   21.1497  -22.5302  -21.3786 N   0  0  0  0  0  0  0  0  0  0  0  0
   21.1953  -19.5452  -16.0407 C   0  0  0  0  0  0  0  0  0  0  0  0
   20.7132  -19.3190  -14.8838 O   0  0  0  0  0  0  0  0  0  0  0  0
   20.9360  -18.5765  -17.0343 N   0  0  0  0  0  0  0  0  0  0  0  0
   20.0389  -17.4701  -16.7354 C   0  0  1  0  0  0  0  0  0  0  0  0
   20.4502  -16.2373  -17.5095 C   0  0  0  0  0  0  0  0  0  0  0  0
   19.5023  -15.1444  -17.2278 C   0  0  0  0  0  0  0  0  0  0  0  0
   19.5944  -14.2860  -16.1489 C   0  0  0  0  0  0  0  0  0  0  0  0
   18.5705  -13.4295  -16.1629 N   0  0  0  0  0  0  0  0  0  0  0  0
   17.8459  -13.7539  -17.2438 C   0  0  0  0  0  0  0  0  0  0  0  0
   18.3908  -14.7815  -17.8957 N   0  0  0  0  0  0  0  0  0  0  0  0
   18.6384  -17.8472  -16.9748 C   0  0  0  0  0  0  0  0  0  0  0  0
   18.3606  -18.5342  -17.9909 O   0  0  0  0  0  0  0  0  0  0  0  0
   17.5868  -17.5042  -16.1575 O   0  0  0  0  0  0  0  0  0  0  0  0
  2  1  1  6
  3  2  1  0
  3  4  1  0
  4  5  2  0
  5  6  1  0
  7  6  2  0
  8  7  1  0
  9  4  1  0
  9  8  2  0
 10 11  2  0
 10  2  1  0
 12 10  1  0
 13 12  1  0
 13 14  1  1
 14 15  1  0
 15 16  1  0
 16 17  1  0
 17 18  1  0
 19 13  1  0
 20 19  2  0
 21 19  1  0
 22 21  1  0
 22 23  1  6
 24 23  1  0
 24 25  2  0
 26 25  1  0
 27 26  1  0
 28 27  2  0
 28 24  1  0
 29 22  1  0
 30 29  2  0
 31 29  1  0
M  END
$$$$
