FKH.pdb
     RDKit          3D

 31 32  0  0  1  0  0  0  0  0999 V2000
   28.7651  -21.1571   -9.1892 N   0  0  0  0  0  0  0  0  0  0  0  0
   27.4003  -20.8671   -8.8757 C   0  0  1  0  0  0  0  0  0  0  0  0
   27.1793  -19.6481   -8.0600 C   0  0  0  0  0  0  0  0  0  0  0  0
   27.8728  -19.6188   -6.7724 C   0  0  0  0  0  0  0  0  0  0  0  0
   29.0226  -18.8957   -6.5288 C   0  0  0  0  0  0  0  0  0  0  0  0
   29.6179  -18.9256   -5.2831 C   0  0  0  0  0  0  0  0  0  0  0  0
   29.0957  -19.6672   -4.2488 C   0  0  0  0  0  0  0  0  0  0  0  0
   27.9451  -20.3940   -4.4826 C   0  0  0  0  0  0  0  0  0  0  0  0
   27.3537  -20.3611   -5.7290 C   0  0  0  0  0  0  0  0  0  0  0  0
   26.6729  -20.7010  -10.1692 C   0  0  0  0  0  0  0  0  0  0  0  0
   27.1649  -19.9088  -11.0182 O   0  0  0  0  0  0  0  0  0  0  0  0
   25.4864  -21.3738  -10.4805 N   0  0  0  0  0  0  0  0  0  0  0  0
   24.9285  -21.2782  -11.8347 C   0  0  1  0  0  0  0  0  0  0  0  0
   25.1330  -22.6124  -12.5298 C   0  0  0  0  0  0  0  0  0  0  0  0
   24.6525  -22.5404  -13.9437 C   0  0  0  0  0  0  0  0  0  0  0  0
   24.9073  -23.8844  -14.6514 C   0  0  0  0  0  0  0  0  0  0  0  0
   24.3802  -23.8245  -16.0430 C   0  0  0  0  0  0  0  0  0  0  0  0
   24.7220  -25.0936  -16.6874 N   0  0  0  0  0  0  0  0  0  0  0  0
   23.5133  -20.9030  -11.7207 C   0  0  0  0  0  0  0  0  0  0  0  0
   23.1272  -20.3271  -10.6523 O   0  0  0  0  0  0  0  0  0  0  0  0
   22.5311  -21.1235  -12.7104 N   0  0  0  0  0  0  0  0  0  0  0  0
   21.4364  -20.1752  -12.8533 C   0  0  1  0  0  0  0  0  0  0  0  0
   21.9766  -18.7777  -13.0618 C   0  0  0  0  0  0  0  0  0  0  0  0
   20.8536  -17.8444  -13.2617 C   0  0  0  0  0  0  0  0  0  0  0  0
   19.5200  -18.1862  -13.1431 C   0  0  0  0  0  0  0  0  0  0  0  0
   18.7549  -17.1261  -13.4134 N   0  0  0  0  0  0  0  0  0  0  0  0
   19.6080  -16.1313  -13.6988 C   0  0  0  0  0  0  0  0  0  0  0  0
   20.8727  -16.5443  -13.6124 N   0  0  0  0  0  0  0  0  0  0  0  0
   20.5149  -20.5904  -13.9208 C   0  0  0  0  0  0  0  0  0  0  0  0
   19.3161  -20.8316  -13.6271 O   0  0  0  0  0  0  0  0  0  0  0  0
   20.8661  -20.7360  -15.2425 O   0  0  0  0  0  0  0  0  0  0  0  0
  2  1  1  6
  3  2  1  0
  3  4  1  0
  4  5  2  0
  5  6  1  0
  7  6  2  0
  8  7  1  0
  9  4  1  0
  9  8  2  0
 10 11  2  0
 10  2  1  0
 12 10  1  0
 13 12  1  0
 13 14  1  1
 14 15  1  0
 15 16  1  0
 16 17  1  0
 17 18  1  0
 19 13  1  0
 20 19  2  0
 21 19  1  0
 22 21  1  0
 22 23  1  6
 24 23  1  0
 24 25  2  0
 26 25  1  0
 27 26  1  0
 28 27  2  0
 28 24  1  0
 29 22  1  0
 30 29  2  0
 31 29  1  0
M  END
$$$$
