FKH.pdb
     RDKit          3D

 31 32  0  0  1  0  0  0  0  0999 V2000
   28.2319  -20.8871   -9.0561 N   0  0  0  0  0  0  0  0  0  0  0  0
   26.8146  -21.0138   -8.9148 C   0  0  1  0  0  0  0  0  0  0  0  0
   26.2108  -20.2219   -7.8153 C   0  0  0  0  0  0  0  0  0  0  0  0
   27.0570  -20.0351   -6.6368 C   0  0  0  0  0  0  0  0  0  0  0  0
   28.0304  -19.0630   -6.5291 C   0  0  0  0  0  0  0  0  0  0  0  0
   28.7898  -18.9567   -5.3805 C   0  0  0  0  0  0  0  0  0  0  0  0
   28.6088  -19.8041   -4.3120 C   0  0  0  0  0  0  0  0  0  0  0  0
   27.6369  -20.7800   -4.4101 C   0  0  0  0  0  0  0  0  0  0  0  0
   26.8805  -20.8825   -5.5597 C   0  0  0  0  0  0  0  0  0  0  0  0
   26.1984  -20.5714  -10.2010 C   0  0  0  0  0  0  0  0  0  0  0  0
   26.1673  -19.3330  -10.4381 O   0  0  0  0  0  0  0  0  0  0  0  0
   25.6606  -21.4538  -11.1441 N   0  0  0  0  0  0  0  0  0  0  0  0
   25.0392  -20.9257  -12.3645 C   0  0  1  0  0  0  0  0  0  0  0  0
   25.4597  -21.8018  -13.5310 C   0  0  0  0  0  0  0  0  0  0  0  0
   26.8989  -21.5695  -13.8625 C   0  0  0  0  0  0  0  0  0  0  0  0
   27.3349  -22.5206  -14.9927 C   0  0  0  0  0  0  0  0  0  0  0  0
   28.7425  -22.2254  -15.3794 C   0  0  0  0  0  0  0  0  0  0  0  0
   29.0984  -23.1563  -16.4515 N   0  0  0  0  0  0  0  0  0  0  0  0
   23.5848  -20.9003  -12.1627 C   0  0  0  0  0  0  0  0  0  0  0  0
   23.1439  -20.7566  -10.9765 O   0  0  0  0  0  0  0  0  0  0  0  0
   22.6195  -21.0170  -13.1862 N   0  0  0  0  0  0  0  0  0  0  0  0
   21.4176  -20.1981  -13.1305 C   0  0  1  0  0  0  0  0  0  0  0  0
   21.7779  -18.7313  -13.2121 C   0  0  0  0  0  0  0  0  0  0  0  0
   20.5502  -17.9207  -13.1224 C   0  0  0  0  0  0  0  0  0  0  0  0
   19.2807  -18.4379  -12.9483 C   0  0  0  0  0  0  0  0  0  0  0  0
   18.3858  -17.4475  -12.9362 N   0  0  0  0  0  0  0  0  0  0  0  0
   19.0947  -16.3212  -13.1023 C   0  0  0  0  0  0  0  0  0  0  0  0
   20.3965  -16.5861  -13.2156 N   0  0  0  0  0  0  0  0  0  0  0  0
   20.4554  -20.6026  -14.1656 C   0  0  0  0  0  0  0  0  0  0  0  0
   20.8836  -20.8884  -15.3130 O   0  0  0  0  0  0  0  0  0  0  0  0
   19.0969  -20.6985  -13.9741 O   0  0  0  0  0  0  0  0  0  0  0  0
  2  1  1  6
  3  2  1  0
  3  4  1  0
  4  5  2  0
  5  6  1  0
  7  6  2  0
  8  7  1  0
  9  4  1  0
  9  8  2  0
 10 11  2  0
 10  2  1  0
 12 10  1  0
 13 12  1  0
 13 14  1  6
 14 15  1  0
 15 16  1  0
 16 17  1  0
 17 18  1  0
 19 13  1  0
 20 19  2  0
 21 19  1  0
 22 21  1  0
 22 23  1  6
 24 23  1  0
 24 25  2  0
 26 25  1  0
 27 26  1  0
 28 27  2  0
 28 24  1  0
 29 22  1  0
 30 29  2  0
 31 29  1  0
M  END
$$$$
