FKH.pdb
     RDKit          3D

 31 32  0  0  1  0  0  0  0  0999 V2000
   12.1356   -4.9642  -13.8385 N   0  0  0  0  0  0  0  0  0  0  0  0
   13.3573   -4.7607  -14.5533 C   0  0  1  0  0  0  0  0  0  0  0  0
   14.0838   -3.5087  -14.2293 C   0  0  0  0  0  0  0  0  0  0  0  0
   13.4670   -2.2778  -14.7235 C   0  0  0  0  0  0  0  0  0  0  0  0
   12.5081   -1.5624  -14.0358 C   0  0  0  0  0  0  0  0  0  0  0  0
   11.9728   -0.4097  -14.5762 C   0  0  0  0  0  0  0  0  0  0  0  0
   12.3687    0.0654  -15.8050 C   0  0  0  0  0  0  0  0  0  0  0  0
   13.3281   -0.6434  -16.5008 C   0  0  0  0  0  0  0  0  0  0  0  0
   13.8601   -1.7946  -15.9569 C   0  0  0  0  0  0  0  0  0  0  0  0
   14.2527   -5.9139  -14.2403 C   0  0  0  0  0  0  0  0  0  0  0  0
   14.2735   -6.3307  -13.0501 O   0  0  0  0  0  0  0  0  0  0  0  0
   15.0598   -6.5463  -15.1921 N   0  0  0  0  0  0  0  0  0  0  0  0
   15.8463   -7.7259  -14.8122 C   0  0  1  0  0  0  0  0  0  0  0  0
   16.2072   -8.4854  -16.0763 C   0  0  0  0  0  0  0  0  0  0  0  0
   17.0284   -9.6892  -15.7423 C   0  0  0  0  0  0  0  0  0  0  0  0
   16.1959  -10.9666  -15.9598 C   0  0  0  0  0  0  0  0  0  0  0  0
   17.0205  -12.1627  -15.6319 C   0  0  0  0  0  0  0  0  0  0  0  0
   16.2386  -13.3410  -16.0102 N   0  0  0  0  0  0  0  0  0  0  0  0
   17.0237   -7.2685  -14.0632 C   0  0  0  0  0  0  0  0  0  0  0  0
   17.5679   -6.1702  -14.4088 O   0  0  0  0  0  0  0  0  0  0  0  0
   17.6089   -7.9486  -12.9733 N   0  0  0  0  0  0  0  0  0  0  0  0
   18.7540   -7.3588  -12.2957 C   0  0  1  0  0  0  0  0  0  0  0  0
   18.9674   -8.0213  -10.9527 C   0  0  0  0  0  0  0  0  0  0  0  0
   20.0458   -7.3239  -10.2295 C   0  0  0  0  0  0  0  0  0  0  0  0
   21.3827   -7.3778  -10.5742 C   0  0  0  0  0  0  0  0  0  0  0  0
   22.1034   -6.6637   -9.7065 N   0  0  0  0  0  0  0  0  0  0  0  0
   21.2196   -6.1692   -8.8273 C   0  0  0  0  0  0  0  0  0  0  0  0
   19.9788   -6.5551   -9.1259 N   0  0  0  0  0  0  0  0  0  0  0  0
   19.9520   -7.4061  -13.1464 C   0  0  0  0  0  0  0  0  0  0  0  0
   20.1462   -8.4201  -13.8644 O   0  0  0  0  0  0  0  0  0  0  0  0
   20.8948   -6.4078  -13.2233 O   0  0  0  0  0  0  0  0  0  0  0  0
  2  1  1  1
  3  2  1  0
  3  4  1  0
  4  5  2  0
  5  6  1  0
  7  6  2  0
  8  7  1  0
  9  4  1  0
  9  8  2  0
 10 11  2  0
 10  2  1  0
 12 10  1  0
 13 12  1  0
 13 14  1  6
 14 15  1  0
 15 16  1  0
 16 17  1  0
 17 18  1  0
 19 13  1  0
 20 19  2  0
 21 19  1  0
 22 21  1  0
 22 23  1  1
 24 23  1  0
 24 25  2  0
 26 25  1  0
 27 26  1  0
 28 27  2  0
 28 24  1  0
 29 22  1  0
 30 29  2  0
 31 29  1  0
M  END
$$$$
