FGF.pdb
     RDKit          3D

 27 28  0  0  1  0  0  0  0  0999 V2000
   23.4327  -21.9320  -14.1988 N   0  0  0  0  0  0  0  0  0  0  0  0
   23.5354  -20.5753  -13.7089 C   0  0  1  0  0  0  0  0  0  0  0  0
   22.3578  -20.2228  -12.8213 C   0  0  0  0  0  0  0  0  0  0  0  0
   21.1253  -20.3180  -13.6657 C   0  0  0  0  0  0  0  0  0  0  0  0
   20.7454  -19.3034  -14.5198 C   0  0  0  0  0  0  0  0  0  0  0  0
   19.6019  -19.4309  -15.2811 C   0  0  0  0  0  0  0  0  0  0  0  0
   18.8226  -20.5665  -15.2033 C   0  0  0  0  0  0  0  0  0  0  0  0
   19.1944  -21.6004  -14.3441 C   0  0  0  0  0  0  0  0  0  0  0  0
   20.3392  -21.4506  -13.5946 C   0  0  0  0  0  0  0  0  0  0  0  0
   24.8220  -20.4366  -12.9972 C   0  0  0  0  0  0  0  0  0  0  0  0
   25.1367  -19.3203  -12.5264 O   0  0  0  0  0  0  0  0  0  0  0  0
   25.7416  -21.5092  -12.8097 N   0  0  0  0  0  0  0  0  0  0  0  0
   27.0211  -21.3693  -12.1960 C   0  0  0  0  0  0  0  0  0  0  0  0
   26.9367  -21.4745  -10.6952 C   0  0  0  0  0  0  0  0  0  0  0  0
   26.3104  -22.4085  -10.1317 O   0  0  0  0  0  0  0  0  0  0  0  0
   27.5685  -20.5119   -9.8660 N   0  0  0  0  0  0  0  0  0  0  0  0
   27.5454  -20.5681   -8.4084 C   0  0  1  0  0  0  0  0  0  0  0  0
   28.5467  -19.6518   -7.8064 C   0  0  0  0  0  0  0  0  0  0  0  0
   28.4921  -19.7001   -6.3334 C   0  0  0  0  0  0  0  0  0  0  0  0
   28.7965  -20.8361   -5.5894 C   0  0  0  0  0  0  0  0  0  0  0  0
   28.7329  -20.8124   -4.2143 C   0  0  0  0  0  0  0  0  0  0  0  0
   28.3666  -19.6668   -3.5261 C   0  0  0  0  0  0  0  0  0  0  0  0
   28.0644  -18.5406   -4.2600 C   0  0  0  0  0  0  0  0  0  0  0  0
   28.1238  -18.5514   -5.6237 C   0  0  0  0  0  0  0  0  0  0  0  0
   26.1884  -20.2375   -7.9505 C   0  0  0  0  0  0  0  0  0  0  0  0
   25.6499  -20.9725   -6.8746 O   0  0  0  0  0  0  0  0  0  0  0  0
   25.4938  -19.3209   -8.4878 O   0  0  0  0  0  0  0  0  0  0  0  0
  2  1  1  1
  2 10  1  0
  3  2  1  0
  4  9  1  0
  4  3  1  0
  5  4  2  0
  6  7  2  0
  6  5  1  0
  7  8  1  0
  8  9  2  0
 10 12  1  0
 10 11  2  0
 12 13  1  0
 14 15  2  0
 14 13  1  0
 16 14  1  0
 17 25  1  0
 17 16  1  0
 17 18  1  1
 19 18  1  0
 20 19  2  0
 21 20  1  0
 22 21  2  0
 23 22  1  0
 23 24  2  0
 24 19  1  0
 25 26  1  0
 27 25  2  0
M  END
$$$$
