FGF.pdb
     RDKit          3D

 27 28  0  0  1  0  0  0  0  0999 V2000
   22.7003  -10.9895  -20.3966 N   0  0  0  0  0  0  0  0  0  0  0  0
   21.7061   -9.9458  -20.5121 C   0  0  1  0  0  0  0  0  0  0  0  0
   20.3283  -10.4581  -20.1405 C   0  0  0  0  0  0  0  0  0  0  0  0
   19.9431  -11.4740  -21.1705 C   0  0  0  0  0  0  0  0  0  0  0  0
   19.9946  -12.8286  -20.9148 C   0  0  0  0  0  0  0  0  0  0  0  0
   19.6307  -13.7320  -21.8919 C   0  0  0  0  0  0  0  0  0  0  0  0
   19.2117  -13.3014  -23.1337 C   0  0  0  0  0  0  0  0  0  0  0  0
   19.1546  -11.9347  -23.4064 C   0  0  0  0  0  0  0  0  0  0  0  0
   19.5225  -11.0524  -22.4160 C   0  0  0  0  0  0  0  0  0  0  0  0
   22.1214   -8.8147  -19.6583 C   0  0  0  0  0  0  0  0  0  0  0  0
   22.8888   -9.0332  -18.6939 O   0  0  0  0  0  0  0  0  0  0  0  0
   21.6973   -7.4699  -19.8659 N   0  0  0  0  0  0  0  0  0  0  0  0
   22.1242   -6.3639  -19.0735 C   0  0  0  0  0  0  0  0  0  0  0  0
   21.4719   -6.3636  -17.7151 C   0  0  0  0  0  0  0  0  0  0  0  0
   20.5490   -7.1673  -17.4242 O   0  0  0  0  0  0  0  0  0  0  0  0
   21.8851   -5.4463  -16.7145 N   0  0  0  0  0  0  0  0  0  0  0  0
   21.3682   -5.4586  -15.3504 C   0  0  1  0  0  0  0  0  0  0  0  0
   22.4477   -5.6773  -14.3547 C   0  0  0  0  0  0  0  0  0  0  0  0
   23.1144   -6.9749  -14.5712 C   0  0  0  0  0  0  0  0  0  0  0  0
   24.1952   -7.1505  -15.4301 C   0  0  0  0  0  0  0  0  0  0  0  0
   24.7775   -8.3888  -15.5815 C   0  0  0  0  0  0  0  0  0  0  0  0
   24.3131   -9.4966  -14.8907 C   0  0  0  0  0  0  0  0  0  0  0  0
   23.2430   -9.3260  -14.0397 C   0  0  0  0  0  0  0  0  0  0  0  0
   22.6571   -8.1033  -13.8809 C   0  0  0  0  0  0  0  0  0  0  0  0
   20.6750   -4.1864  -15.1030 C   0  0  0  0  0  0  0  0  0  0  0  0
   19.8697   -4.0786  -13.9508 O   0  0  0  0  0  0  0  0  0  0  0  0
   20.7776   -3.1926  -15.8860 O   0  0  0  0  0  0  0  0  0  0  0  0
  2  1  1  1
  2 10  1  0
  3  2  1  0
  4  9  1  0
  4  3  1  0
  5  4  2  0
  6  7  2  0
  6  5  1  0
  7  8  1  0
  8  9  2  0
 10 12  1  0
 10 11  2  0
 12 13  1  0
 14 15  2  0
 14 13  1  0
 16 14  1  0
 17 25  1  0
 17 16  1  0
 17 18  1  1
 19 18  1  0
 20 19  2  0
 21 20  1  0
 22 21  2  0
 23 22  1  0
 23 24  2  0
 24 19  1  0
 25 26  1  0
 27 25  2  0
M  END
$$$$
