FGF.pdb
     RDKit          3D

 27 28  0  0  1  0  0  0  0  0999 V2000
   26.5410  -19.1215  -21.1551 N   0  0  0  0  0  0  0  0  0  0  0  0
   27.1708  -20.0479  -20.2408 C   0  0  1  0  0  0  0  0  0  0  0  0
   28.6418  -19.7266  -20.0619 C   0  0  0  0  0  0  0  0  0  0  0  0
   29.3203  -20.0294  -21.3616 C   0  0  0  0  0  0  0  0  0  0  0  0
   29.2571  -21.2781  -21.9444 C   0  0  0  0  0  0  0  0  0  0  0  0
   29.8968  -21.5158  -23.1435 C   0  0  0  0  0  0  0  0  0  0  0  0
   30.6063  -20.5169  -23.7776 C   0  0  0  0  0  0  0  0  0  0  0  0
   30.6787  -19.2495  -23.2000 C   0  0  0  0  0  0  0  0  0  0  0  0
   30.0325  -19.0361  -22.0034 C   0  0  0  0  0  0  0  0  0  0  0  0
   26.4380  -20.0035  -18.9593 C   0  0  0  0  0  0  0  0  0  0  0  0
   26.4736  -18.9547  -18.2770 O   0  0  0  0  0  0  0  0  0  0  0  0
   25.6817  -21.0954  -18.4426 N   0  0  0  0  0  0  0  0  0  0  0  0
   24.8915  -21.0328  -17.2573 C   0  0  0  0  0  0  0  0  0  0  0  0
   25.4580  -21.8971  -16.1606 C   0  0  0  0  0  0  0  0  0  0  0  0
   25.8728  -23.0632  -16.3848 O   0  0  0  0  0  0  0  0  0  0  0  0
   25.5403  -21.4143  -14.8288 N   0  0  0  0  0  0  0  0  0  0  0  0
   26.0249  -22.2175  -13.7116 C   0  0  1  0  0  0  0  0  0  0  0  0
   26.2071  -21.4010  -12.4850 C   0  0  0  0  0  0  0  0  0  0  0  0
   24.9104  -20.9303  -11.9634 C   0  0  0  0  0  0  0  0  0  0  0  0
   24.3248  -21.4222  -10.8008 C   0  0  0  0  0  0  0  0  0  0  0  0
   23.1140  -20.9338  -10.3638 C   0  0  0  0  0  0  0  0  0  0  0  0
   22.4393  -19.9432  -11.0594 C   0  0  0  0  0  0  0  0  0  0  0  0
   23.0165  -19.4544  -12.2110 C   0  0  0  0  0  0  0  0  0  0  0  0
   24.2166  -19.9303  -12.6545 C   0  0  0  0  0  0  0  0  0  0  0  0
   25.0730  -23.3127  -13.4772 C   0  0  0  0  0  0  0  0  0  0  0  0
   23.7758  -23.1960  -14.0170 O   0  0  0  0  0  0  0  0  0  0  0  0
   25.3792  -24.3489  -12.8111 O   0  0  0  0  0  0  0  0  0  0  0  0
  2  1  1  6
  2 10  1  0
  3  2  1  0
  4  9  1  0
  4  3  1  0
  5  4  2  0
  6  7  2  0
  6  5  1  0
  7  8  1  0
  8  9  2  0
 10 12  1  0
 10 11  2  0
 12 13  1  0
 14 15  2  0
 14 13  1  0
 16 14  1  0
 17 25  1  0
 17 16  1  0
 17 18  1  1
 19 18  1  0
 20 19  2  0
 21 20  1  0
 22 21  2  0
 23 22  1  0
 23 24  2  0
 24 19  1  0
 25 26  1  0
 27 25  2  0
M  END
$$$$
