FGF.pdb
     RDKit          3D

 27 28  0  0  1  0  0  0  0  0999 V2000
   23.9982  -17.7623  -15.5380 N   0  0  0  0  0  0  0  0  0  0  0  0
   24.1334  -19.1532  -15.1665 C   0  0  1  0  0  0  0  0  0  0  0  0
   24.3393  -20.0288  -16.3872 C   0  0  0  0  0  0  0  0  0  0  0  0
   23.1044  -19.9135  -17.2257 C   0  0  0  0  0  0  0  0  0  0  0  0
   23.0981  -19.2344  -18.4265 C   0  0  0  0  0  0  0  0  0  0  0  0
   21.9384  -19.1517  -19.1692 C   0  0  0  0  0  0  0  0  0  0  0  0
   20.7719  -19.7419  -18.7286 C   0  0  0  0  0  0  0  0  0  0  0  0
   20.7634  -20.4317  -17.5164 C   0  0  0  0  0  0  0  0  0  0  0  0
   21.9324  -20.5009  -16.7929 C   0  0  0  0  0  0  0  0  0  0  0  0
   25.2528  -19.2701  -14.2104 C   0  0  0  0  0  0  0  0  0  0  0  0
   26.3646  -18.7835  -14.5166 O   0  0  0  0  0  0  0  0  0  0  0  0
   25.1457  -19.9114  -12.9421 N   0  0  0  0  0  0  0  0  0  0  0  0
   26.1389  -19.8392  -11.9215 C   0  0  0  0  0  0  0  0  0  0  0  0
   25.7254  -20.5924  -10.6836 C   0  0  0  0  0  0  0  0  0  0  0  0
   24.5713  -21.0768  -10.5585 O   0  0  0  0  0  0  0  0  0  0  0  0
   26.6367  -20.7787   -9.6120 N   0  0  0  0  0  0  0  0  0  0  0  0
   26.3173  -21.5389   -8.4086 C   0  0  1  0  0  0  0  0  0  0  0  0
   27.5314  -21.8379   -7.6081 C   0  0  0  0  0  0  0  0  0  0  0  0
   27.8942  -20.6963   -6.7477 C   0  0  0  0  0  0  0  0  0  0  0  0
   27.3219  -20.4600   -5.5014 C   0  0  0  0  0  0  0  0  0  0  0  0
   27.7111  -19.3783   -4.7439 C   0  0  0  0  0  0  0  0  0  0  0  0
   28.6786  -18.4923   -5.1904 C   0  0  0  0  0  0  0  0  0  0  0  0
   29.2469  -18.7234   -6.4240 C   0  0  0  0  0  0  0  0  0  0  0  0
   28.8695  -19.7924   -7.1845 C   0  0  0  0  0  0  0  0  0  0  0  0
   25.3423  -20.7735   -7.6186 C   0  0  0  0  0  0  0  0  0  0  0  0
   24.5829  -21.4602   -6.6494 O   0  0  0  0  0  0  0  0  0  0  0  0
   25.1648  -19.5270   -7.7802 O   0  0  0  0  0  0  0  0  0  0  0  0
  2  1  1  6
  2 10  1  0
  3  2  1  0
  4  9  1  0
  4  3  1  0
  5  4  2  0
  6  7  2  0
  6  5  1  0
  7  8  1  0
  8  9  2  0
 10 12  1  0
 10 11  2  0
 12 13  1  0
 14 15  2  0
 14 13  1  0
 16 14  1  0
 17 25  1  0
 17 16  1  0
 17 18  1  1
 19 18  1  0
 20 19  2  0
 21 20  1  0
 22 21  2  0
 23 22  1  0
 23 24  2  0
 24 19  1  0
 25 26  1  0
 27 25  2  0
M  END
$$$$
