FGF.pdb
     RDKit          3D

 27 28  0  0  1  0  0  0  0  0999 V2000
   27.2368  -20.2545  -15.0339 N   0  0  0  0  0  0  0  0  0  0  0  0
   27.9135  -19.5765  -13.9506 C   0  0  1  0  0  0  0  0  0  0  0  0
   27.0472  -18.4782  -13.3656 C   0  0  0  0  0  0  0  0  0  0  0  0
   25.6296  -18.9562  -13.4249 C   0  0  0  0  0  0  0  0  0  0  0  0
   25.0170  -19.5596  -12.3462 C   0  0  0  0  0  0  0  0  0  0  0  0
   23.7084  -19.9859  -12.4424 C   0  0  0  0  0  0  0  0  0  0  0  0
   22.9931  -19.8181  -13.6099 C   0  0  0  0  0  0  0  0  0  0  0  0
   23.5996  -19.2096  -14.7087 C   0  0  0  0  0  0  0  0  0  0  0  0
   24.9060  -18.7925  -14.5891 C   0  0  0  0  0  0  0  0  0  0  0  0
   28.2860  -20.5828  -12.9360 C   0  0  0  0  0  0  0  0  0  0  0  0
   27.7450  -21.7109  -12.9741 O   0  0  0  0  0  0  0  0  0  0  0  0
   29.2369  -20.3474  -11.9007 N   0  0  0  0  0  0  0  0  0  0  0  0
   29.6509  -21.3305  -10.9545 C   0  0  0  0  0  0  0  0  0  0  0  0
   28.7083  -21.4108   -9.7817 C   0  0  0  0  0  0  0  0  0  0  0  0
   28.8821  -22.2360   -8.8484 O   0  0  0  0  0  0  0  0  0  0  0  0
   27.5851  -20.5478   -9.6960 N   0  0  0  0  0  0  0  0  0  0  0  0
   26.6213  -20.5898   -8.6017 C   0  0  1  0  0  0  0  0  0  0  0  0
   26.7046  -19.3778   -7.7481 C   0  0  0  0  0  0  0  0  0  0  0  0
   27.5942  -19.6022   -6.5934 C   0  0  0  0  0  0  0  0  0  0  0  0
   28.4425  -18.6282   -6.0753 C   0  0  0  0  0  0  0  0  0  0  0  0
   29.2433  -18.9006   -4.9890 C   0  0  0  0  0  0  0  0  0  0  0  0
   29.2348  -20.1437   -4.3768 C   0  0  0  0  0  0  0  0  0  0  0  0
   28.3962  -21.1102   -4.8876 C   0  0  0  0  0  0  0  0  0  0  0  0
   27.5973  -20.8524   -5.9641 C   0  0  0  0  0  0  0  0  0  0  0  0
   25.2748  -20.7394   -9.1719 C   0  0  0  0  0  0  0  0  0  0  0  0
   24.2007  -20.9819   -8.2914 O   0  0  0  0  0  0  0  0  0  0  0  0
   25.0514  -20.6580  -10.4188 O   0  0  0  0  0  0  0  0  0  0  0  0
  2  1  1  6
  2 10  1  0
  3  2  1  0
  4  9  1  0
  4  3  1  0
  5  4  2  0
  6  7  2  0
  6  5  1  0
  7  8  1  0
  8  9  2  0
 10 12  1  0
 10 11  2  0
 12 13  1  0
 14 15  2  0
 14 13  1  0
 16 14  1  0
 17 25  1  0
 17 16  1  0
 17 18  1  6
 19 18  1  0
 20 19  2  0
 21 20  1  0
 22 21  2  0
 23 22  1  0
 23 24  2  0
 24 19  1  0
 25 26  1  0
 27 25  2  0
M  END
$$$$
