FGF.pdb
     RDKit          3D

 27 28  0  0  1  0  0  0  0  0999 V2000
   17.9261  -12.0270  -18.7360 N   0  0  0  0  0  0  0  0  0  0  0  0
   19.2438  -11.4335  -18.6852 C   0  0  1  0  0  0  0  0  0  0  0  0
   19.9318  -11.5107  -20.0341 C   0  0  0  0  0  0  0  0  0  0  0  0
   20.0766  -12.9618  -20.3727 C   0  0  0  0  0  0  0  0  0  0  0  0
   19.3257  -13.5584  -21.3643 C   0  0  0  0  0  0  0  0  0  0  0  0
   19.4900  -14.8992  -21.6452 C   0  0  0  0  0  0  0  0  0  0  0  0
   20.4013  -15.6627  -20.9454 C   0  0  0  0  0  0  0  0  0  0  0  0
   21.1674  -15.0728  -19.9402 C   0  0  0  0  0  0  0  0  0  0  0  0
   20.9860  -13.7337  -19.6778 C   0  0  0  0  0  0  0  0  0  0  0  0
   19.1057  -10.0398  -18.2168 C   0  0  0  0  0  0  0  0  0  0  0  0
   18.1118   -9.3730  -18.5832 O   0  0  0  0  0  0  0  0  0  0  0  0
   20.0465   -9.3963  -17.3611 N   0  0  0  0  0  0  0  0  0  0  0  0
   19.9147   -8.0574  -16.8887 C   0  0  0  0  0  0  0  0  0  0  0  0
   21.0519   -7.6702  -15.9791 C   0  0  0  0  0  0  0  0  0  0  0  0
   21.9234   -8.5024  -15.6183 O   0  0  0  0  0  0  0  0  0  0  0  0
   21.1730   -6.3406  -15.4982 N   0  0  0  0  0  0  0  0  0  0  0  0
   22.2624   -5.8939  -14.6369 C   0  0  1  0  0  0  0  0  0  0  0  0
   22.8811   -4.6405  -15.1373 C   0  0  0  0  0  0  0  0  0  0  0  0
   21.8687   -3.5825  -15.3135 C   0  0  0  0  0  0  0  0  0  0  0  0
   21.6087   -2.6007  -14.3622 C   0  0  0  0  0  0  0  0  0  0  0  0
   20.6540   -1.6358  -14.5921 C   0  0  0  0  0  0  0  0  0  0  0  0
   19.9229   -1.6066  -15.7689 C   0  0  0  0  0  0  0  0  0  0  0  0
   20.1779   -2.5775  -16.7127 C   0  0  0  0  0  0  0  0  0  0  0  0
   21.1220   -3.5395  -16.4965 C   0  0  0  0  0  0  0  0  0  0  0  0
   21.7368   -5.7136  -13.2761 C   0  0  0  0  0  0  0  0  0  0  0  0
   20.3507   -5.8685  -13.0704 O   0  0  0  0  0  0  0  0  0  0  0  0
   22.4841   -5.4257  -12.2911 O   0  0  0  0  0  0  0  0  0  0  0  0
  2  1  1  6
  2 10  1  0
  3  2  1  0
  4  9  1  0
  4  3  1  0
  5  4  2  0
  6  7  2  0
  6  5  1  0
  7  8  1  0
  8  9  2  0
 10 12  1  0
 10 11  2  0
 12 13  1  0
 14 15  2  0
 14 13  1  0
 16 14  1  0
 17 25  1  0
 17 16  1  0
 17 18  1  6
 19 18  1  0
 20 19  2  0
 21 20  1  0
 22 21  2  0
 23 22  1  0
 23 24  2  0
 24 19  1  0
 25 26  1  0
 27 25  2  0
M  END
$$$$
