FGF.pdb
     RDKit          3D

 27 28  0  0  1  0  0  0  0  0999 V2000
   25.7777  -19.2216  -15.3416 N   0  0  0  0  0  0  0  0  0  0  0  0
   27.1979  -19.0916  -15.1030 C   0  0  1  0  0  0  0  0  0  0  0  0
   27.7171  -17.7567  -15.6005 C   0  0  0  0  0  0  0  0  0  0  0  0
   27.6561  -17.7896  -17.0960 C   0  0  0  0  0  0  0  0  0  0  0  0
   28.5289  -18.5508  -17.8455 C   0  0  0  0  0  0  0  0  0  0  0  0
   28.4389  -18.5533  -19.2222 C   0  0  0  0  0  0  0  0  0  0  0  0
   27.4818  -17.8005  -19.8705 C   0  0  0  0  0  0  0  0  0  0  0  0
   26.5927  -17.0260  -19.1255 C   0  0  0  0  0  0  0  0  0  0  0  0
   26.7017  -17.0395  -17.7534 C   0  0  0  0  0  0  0  0  0  0  0  0
   27.4428  -19.2734  -13.6580 C   0  0  0  0  0  0  0  0  0  0  0  0
   26.9288  -18.4674  -12.8502 O   0  0  0  0  0  0  0  0  0  0  0  0
   28.2394  -20.3243  -13.1171 N   0  0  0  0  0  0  0  0  0  0  0  0
   28.6260  -20.4128  -11.7475 C   0  0  0  0  0  0  0  0  0  0  0  0
   27.4963  -20.8996  -10.8772 C   0  0  0  0  0  0  0  0  0  0  0  0
   26.3680  -21.1837  -11.3552 O   0  0  0  0  0  0  0  0  0  0  0  0
   27.6755  -21.0530   -9.4780 N   0  0  0  0  0  0  0  0  0  0  0  0
   26.6149  -21.4862   -8.5748 C   0  0  1  0  0  0  0  0  0  0  0  0
   27.1462  -21.8536   -7.2380 C   0  0  0  0  0  0  0  0  0  0  0  0
   27.8350  -20.7115   -6.6084 C   0  0  0  0  0  0  0  0  0  0  0  0
   29.1830  -20.4247   -6.8018 C   0  0  0  0  0  0  0  0  0  0  0  0
   29.7640  -19.3371   -6.1895 C   0  0  0  0  0  0  0  0  0  0  0  0
   29.0348  -18.4952   -5.3650 C   0  0  0  0  0  0  0  0  0  0  0  0
   27.7001  -18.7768   -5.1715 C   0  0  0  0  0  0  0  0  0  0  0  0
   27.1124  -19.8520   -5.7730 C   0  0  0  0  0  0  0  0  0  0  0  0
   25.6238  -20.4060   -8.4676 C   0  0  0  0  0  0  0  0  0  0  0  0
   24.3437  -20.7224   -7.9686 O   0  0  0  0  0  0  0  0  0  0  0  0
   25.8817  -19.2103   -8.8067 O   0  0  0  0  0  0  0  0  0  0  0  0
  2  1  1  1
  2 10  1  0
  3  2  1  0
  4  9  1  0
  4  3  1  0
  5  4  2  0
  6  7  2  0
  6  5  1  0
  7  8  1  0
  8  9  2  0
 10 12  1  0
 10 11  2  0
 12 13  1  0
 14 15  2  0
 14 13  1  0
 16 14  1  0
 17 25  1  0
 17 16  1  0
 17 18  1  1
 19 18  1  0
 20 19  2  0
 21 20  1  0
 22 21  2  0
 23 22  1  0
 23 24  2  0
 24 19  1  0
 25 26  1  0
 27 25  2  0
M  END
$$$$
