FGF.pdb
     RDKit          3D

 27 28  0  0  1  0  0  0  0  0999 V2000
   23.0205   -6.4209  -21.8409 N   0  0  0  0  0  0  0  0  0  0  0  0
   21.7201   -6.0127  -21.3579 C   0  0  1  0  0  0  0  0  0  0  0  0
   20.6871   -7.1002  -21.5800 C   0  0  0  0  0  0  0  0  0  0  0  0
   20.4509   -7.1890  -23.0557 C   0  0  0  0  0  0  0  0  0  0  0  0
   19.4819   -6.4364  -23.6863 C   0  0  0  0  0  0  0  0  0  0  0  0
   19.2963   -6.5480  -25.0489 C   0  0  0  0  0  0  0  0  0  0  0  0
   20.0703   -7.4074  -25.8009 C   0  0  0  0  0  0  0  0  0  0  0  0
   21.0538   -8.1745  -25.1767 C   0  0  0  0  0  0  0  0  0  0  0  0
   21.2205   -8.0463  -23.8163 C   0  0  0  0  0  0  0  0  0  0  0  0
   21.8473   -5.6580  -19.9300 C   0  0  0  0  0  0  0  0  0  0  0  0
   22.7943   -6.1392  -19.2680 O   0  0  0  0  0  0  0  0  0  0  0  0
   20.9465   -4.7893  -19.2477 N   0  0  0  0  0  0  0  0  0  0  0  0
   21.0477   -4.4559  -17.8651 C   0  0  0  0  0  0  0  0  0  0  0  0
   20.8279   -5.6569  -16.9820 C   0  0  0  0  0  0  0  0  0  0  0  0
   20.3567   -6.7324  -17.4332 O   0  0  0  0  0  0  0  0  0  0  0  0
   21.1498   -5.6080  -15.6009 N   0  0  0  0  0  0  0  0  0  0  0  0
   20.9785   -6.7389  -14.6955 C   0  0  1  0  0  0  0  0  0  0  0  0
   22.1897   -6.9700  -13.8683 C   0  0  0  0  0  0  0  0  0  0  0  0
   23.2902   -7.5209  -14.6811 C   0  0  0  0  0  0  0  0  0  0  0  0
   23.6481   -8.8657  -14.6804 C   0  0  0  0  0  0  0  0  0  0  0  0
   24.6822   -9.3173  -15.4692 C   0  0  0  0  0  0  0  0  0  0  0  0
   25.3988   -8.4571  -16.2858 C   0  0  0  0  0  0  0  0  0  0  0  0
   25.0469   -7.1250  -16.2885 C   0  0  0  0  0  0  0  0  0  0  0  0
   24.0235   -6.6651  -15.5110 C   0  0  0  0  0  0  0  0  0  0  0  0
   19.8045   -6.4844  -13.8485 C   0  0  0  0  0  0  0  0  0  0  0  0
   19.2349   -7.5711  -13.1540 O   0  0  0  0  0  0  0  0  0  0  0  0
   19.2931   -5.3293  -13.7243 O   0  0  0  0  0  0  0  0  0  0  0  0
  2  1  1  1
  2 10  1  0
  3  2  1  0
  4  9  1  0
  4  3  1  0
  5  4  2  0
  6  7  2  0
  6  5  1  0
  7  8  1  0
  8  9  2  0
 10 12  1  0
 10 11  2  0
 12 13  1  0
 14 15  2  0
 14 13  1  0
 16 14  1  0
 17 25  1  0
 17 16  1  0
 17 18  1  1
 19 18  1  0
 20 19  2  0
 21 20  1  0
 22 21  2  0
 23 22  1  0
 23 24  2  0
 24 19  1  0
 25 26  1  0
 27 25  2  0
M  END
$$$$
