FGF.pdb
     RDKit          3D

 27 28  0  0  1  0  0  0  0  0999 V2000
   30.3171  -22.6296  -12.9364 N   0  0  0  0  0  0  0  0  0  0  0  0
   30.5700  -22.2410  -11.5667 C   0  0  1  0  0  0  0  0  0  0  0  0
   31.9395  -21.6067  -11.4212 C   0  0  0  0  0  0  0  0  0  0  0  0
   32.9517  -22.6814  -11.6693 C   0  0  0  0  0  0  0  0  0  0  0  0
   33.3338  -23.5661  -10.6822 C   0  0  0  0  0  0  0  0  0  0  0  0
   34.2703  -24.5426  -10.9523 C   0  0  0  0  0  0  0  0  0  0  0  0
   34.8381  -24.6521  -12.2048 C   0  0  0  0  0  0  0  0  0  0  0  0
   34.4613  -23.7644  -13.2125 C   0  0  0  0  0  0  0  0  0  0  0  0
   33.5252  -22.7986  -12.9195 C   0  0  0  0  0  0  0  0  0  0  0  0
   29.4919  -21.3271  -11.1384 C   0  0  0  0  0  0  0  0  0  0  0  0
   29.5143  -20.8668   -9.9747 O   0  0  0  0  0  0  0  0  0  0  0  0
   28.4114  -20.9301  -11.9789 N   0  0  0  0  0  0  0  0  0  0  0  0
   27.3653  -20.0488  -11.5762 C   0  0  0  0  0  0  0  0  0  0  0  0
   26.4519  -20.6899  -10.5636 C   0  0  0  0  0  0  0  0  0  0  0  0
   26.0397  -21.8706  -10.6984 O   0  0  0  0  0  0  0  0  0  0  0  0
   26.0263  -19.9715   -9.4163 N   0  0  0  0  0  0  0  0  0  0  0  0
   25.2098  -20.5572   -8.3587 C   0  0  1  0  0  0  0  0  0  0  0  0
   25.2477  -19.7416   -7.1187 C   0  0  0  0  0  0  0  0  0  0  0  0
   26.5925  -19.7583   -6.5133 C   0  0  0  0  0  0  0  0  0  0  0  0
   27.4804  -18.6890   -6.5826 C   0  0  0  0  0  0  0  0  0  0  0  0
   28.7201  -18.7664   -5.9888 C   0  0  0  0  0  0  0  0  0  0  0  0
   29.1263  -19.9020   -5.3063 C   0  0  0  0  0  0  0  0  0  0  0  0
   28.2495  -20.9624   -5.2363 C   0  0  0  0  0  0  0  0  0  0  0  0
   27.0175  -20.8978   -5.8208 C   0  0  0  0  0  0  0  0  0  0  0  0
   23.8332  -20.6954   -8.8549 C   0  0  0  0  0  0  0  0  0  0  0  0
   23.5206  -20.1486  -10.1163 O   0  0  0  0  0  0  0  0  0  0  0  0
   22.9268  -21.2854   -8.1902 O   0  0  0  0  0  0  0  0  0  0  0  0
  2  1  1  6
  2 10  1  0
  3  2  1  0
  4  9  1  0
  4  3  1  0
  5  4  2  0
  6  7  2  0
  6  5  1  0
  7  8  1  0
  8  9  2  0
 10 12  1  0
 10 11  2  0
 12 13  1  0
 14 15  2  0
 14 13  1  0
 16 14  1  0
 17 25  1  0
 17 16  1  0
 17 18  1  1
 19 18  1  0
 20 19  2  0
 21 20  1  0
 22 21  2  0
 23 22  1  0
 23 24  2  0
 24 19  1  0
 25 26  1  0
 27 25  2  0
M  END
$$$$
