YKA.pdb
     RDKit          3D

 27 27  0  0  1  0  0  0  0  0999 V2000
    2.8148  -25.8774   31.9076 O   0  0  0  0  0  0  0  0  0  0  0  0
    3.4376  -25.1504   30.8974 C   0  0  0  0  0  0  0  0  0  0  0  0
    2.6975  -24.4234   29.9873 C   0  0  0  0  0  0  0  0  0  0  0  0
    3.3032  -23.6963   28.9784 C   0  0  0  0  0  0  0  0  0  0  0  0
    4.6752  -23.6676   28.8397 C   0  0  0  0  0  0  0  0  0  0  0  0
    5.3313  -22.8854   27.7543 C   0  0  0  0  0  0  0  0  0  0  0  0
    5.0887  -23.4959   26.3895 C   0  0  2  0  0  0  0  0  0  0  0  0
    5.1949  -24.9458   26.4609 N   0  0  0  0  0  0  0  0  0  0  0  0
    6.0902  -22.9139   25.4818 C   0  0  0  0  0  0  0  0  0  0  0  0
    7.2449  -23.3673   25.4784 O   0  0  0  0  0  0  0  0  0  0  0  0
    5.4122  -24.3954   29.7510 C   0  0  0  0  0  0  0  0  0  0  0  0
    4.8100  -25.1228   30.7602 C   0  0  0  0  0  0  0  0  0  0  0  0
    5.7291  -21.8617   24.6382 N   0  0  0  0  0  0  0  0  0  0  0  0
    6.6738  -21.3918   23.6116 C   0  0  1  0  0  0  0  0  0  0  0  0
    5.8265  -20.8072   22.5112 C   0  0  0  0  0  0  0  0  0  0  0  0
    6.6440  -20.4440   21.3224 C   0  0  0  0  0  0  0  0  0  0  0  0
    5.6544  -19.9222   20.2678 C   0  0  0  0  0  0  0  0  0  0  0  0
    6.4607  -19.6611   19.0119 C   0  0  0  0  0  0  0  0  0  0  0  0
    5.5263  -19.2508   17.9781 N   0  0  0  0  0  0  0  0  0  0  0  0
    7.4381  -20.3087   24.2646 C   0  0  0  0  0  0  0  0  0  0  0  0
    8.3366  -19.7313   23.6117 O   0  0  0  0  0  0  0  0  0  0  0  0
    7.0737  -17.7961   26.8656 C   0  0  0  0  0  0  0  0  0  0  0  0
    7.9645  -18.7357   26.1151 C   0  0  2  0  0  0  0  0  0  0  0  0
    7.2271  -19.8647   25.6020 N   0  0  0  0  0  0  0  0  0  0  0  0
    9.0904  -19.1575   26.9895 C   0  0  0  0  0  0  0  0  0  0  0  0
    9.8613  -18.3336   27.5411 O   0  0  0  0  0  0  0  0  0  0  0  0
    9.3074  -20.5043   27.2117 O   0  0  0  0  0  0  0  0  0  0  0  0
  2  1  1  0
  3  2  2  0
  4  3  1  0
  5  4  2  0
  5 11  1  0
  6  5  1  0
  7  6  1  0
  7  9  1  0
  7  8  1  1
  9 13  1  0
 10  9  2  0
 11 12  2  0
 12  2  1  0
 13 14  1  0
 14 20  1  0
 14 15  1  6
 16 15  1  0
 17 18  1  0
 17 16  1  0
 19 18  1  0
 20 24  1  0
 21 20  2  0
 23 22  1  1
 23 25  1  0
 24 23  1  0
 25 26  2  0
 25 27  1  0
M  END
$$$$
