YKA.pdb
     RDKit          3D

 27 27  0  0  1  0  0  0  0  0999 V2000
    8.0465  -13.3703   15.7041 O   0  0  0  0  0  0  0  0  0  0  0  0
    7.8220  -13.6627   17.0461 C   0  0  0  0  0  0  0  0  0  0  0  0
    8.2965  -12.8329   18.0417 C   0  0  0  0  0  0  0  0  0  0  0  0
    8.0809  -13.1112   19.3794 C   0  0  0  0  0  0  0  0  0  0  0  0
    7.3811  -14.2321   19.7749 C   0  0  0  0  0  0  0  0  0  0  0  0
    7.1466  -14.5351   21.2149 C   0  0  0  0  0  0  0  0  0  0  0  0
    8.4309  -14.8874   21.9364 C   0  0  2  0  0  0  0  0  0  0  0  0
    9.1575  -15.9108   21.1994 N   0  0  0  0  0  0  0  0  0  0  0  0
    8.0483  -15.3441   23.2821 C   0  0  0  0  0  0  0  0  0  0  0  0
    7.1898  -14.7133   23.9177 O   0  0  0  0  0  0  0  0  0  0  0  0
    6.9082  -15.0595   18.7773 C   0  0  0  0  0  0  0  0  0  0  0  0
    7.1219  -14.7842   17.4399 C   0  0  0  0  0  0  0  0  0  0  0  0
    8.6549  -16.4784   23.8249 N   0  0  0  0  0  0  0  0  0  0  0  0
    8.3344  -16.8894   25.2017 C   0  0  1  0  0  0  0  0  0  0  0  0
    8.8663  -18.2919   25.3454 C   0  0  0  0  0  0  0  0  0  0  0  0
    7.8905  -19.3024   24.8554 C   0  0  0  0  0  0  0  0  0  0  0  0
    8.5435  -20.6745   25.0901 C   0  0  0  0  0  0  0  0  0  0  0  0
    7.5786  -21.7094   24.5483 C   0  0  0  0  0  0  0  0  0  0  0  0
    8.2283  -23.0038   24.6605 N   0  0  0  0  0  0  0  0  0  0  0  0
    9.1196  -15.9808   26.0630 C   0  0  0  0  0  0  0  0  0  0  0  0
   10.3481  -15.8667   25.8511 O   0  0  0  0  0  0  0  0  0  0  0  0
    8.7539  -13.1026   28.3224 C   0  0  0  0  0  0  0  0  0  0  0  0
    9.4369  -14.3761   27.9338 C   0  0  2  0  0  0  0  0  0  0  0  0
    8.5764  -15.2129   27.1332 N   0  0  0  0  0  0  0  0  0  0  0  0
    9.9141  -15.0764   29.1553 C   0  0  0  0  0  0  0  0  0  0  0  0
    9.5084  -16.2200   29.4791 O   0  0  0  0  0  0  0  0  0  0  0  0
   10.8391  -14.4560   29.9737 O   0  0  0  0  0  0  0  0  0  0  0  0
  2  1  1  0
  3  2  2  0
  4  3  1  0
  5  4  2  0
  5 11  1  0
  6  5  1  0
  7  6  1  0
  7  9  1  0
  7  8  1  6
  9 13  1  0
 10  9  2  0
 11 12  2  0
 12  2  1  0
 13 14  1  0
 14 20  1  0
 14 15  1  6
 16 15  1  0
 17 18  1  0
 17 16  1  0
 19 18  1  0
 20 24  1  0
 21 20  2  0
 23 22  1  1
 23 25  1  0
 24 23  1  0
 25 26  2  0
 25 27  1  0
M  END
$$$$
