YKA.pdb
     RDKit          3D

 27 27  0  0  1  0  0  0  0  0999 V2000
    8.7008  -13.3200   16.1063 O   0  0  0  0  0  0  0  0  0  0  0  0
    8.4980  -13.6200   17.4501 C   0  0  0  0  0  0  0  0  0  0  0  0
    9.0117  -14.7749   18.0042 C   0  0  0  0  0  0  0  0  0  0  0  0
    8.8179  -15.0856   19.3381 C   0  0  0  0  0  0  0  0  0  0  0  0
    8.1016  -14.2523   20.1718 C   0  0  0  0  0  0  0  0  0  0  0  0
    7.8909  -14.5835   21.6092 C   0  0  0  0  0  0  0  0  0  0  0  0
    7.4172  -16.0096   21.7988 C   0  0  2  0  0  0  0  0  0  0  0  0
    6.0231  -16.1339   21.3993 N   0  0  0  0  0  0  0  0  0  0  0  0
    7.6144  -16.3353   23.2204 C   0  0  0  0  0  0  0  0  0  0  0  0
    6.7082  -16.0922   24.0318 O   0  0  0  0  0  0  0  0  0  0  0  0
    7.5895  -13.0987   19.6148 C   0  0  0  0  0  0  0  0  0  0  0  0
    7.7814  -12.7854   18.2824 C   0  0  0  0  0  0  0  0  0  0  0  0
    8.8157  -16.9123   23.6365 N   0  0  0  0  0  0  0  0  0  0  0  0
    9.0018  -17.2702   25.0523 C   0  0  1  0  0  0  0  0  0  0  0  0
   10.0196  -18.3812   25.0642 C   0  0  0  0  0  0  0  0  0  0  0  0
   10.3363  -18.8214   26.4496 C   0  0  0  0  0  0  0  0  0  0  0  0
   11.4228  -19.9010   26.3161 C   0  0  0  0  0  0  0  0  0  0  0  0
   11.7089  -20.4004   27.7176 C   0  0  0  0  0  0  0  0  0  0  0  0
   12.6285  -21.5184   27.5969 N   0  0  0  0  0  0  0  0  0  0  0  0
    9.5889  -16.0659   25.6756 C   0  0  0  0  0  0  0  0  0  0  0  0
   10.6629  -15.6162   25.2161 O   0  0  0  0  0  0  0  0  0  0  0  0
    8.7973  -13.0824   27.5732 C   0  0  0  0  0  0  0  0  0  0  0  0
    9.7126  -14.2480   27.3656 C   0  0  2  0  0  0  0  0  0  0  0  0
    9.0167  -15.3667   26.7775 N   0  0  0  0  0  0  0  0  0  0  0  0
   10.3569  -14.6094   28.6557 C   0  0  0  0  0  0  0  0  0  0  0  0
   10.1900  -15.7274   29.2030 O   0  0  0  0  0  0  0  0  0  0  0  0
   11.1726  -13.6890   29.2865 O   0  0  0  0  0  0  0  0  0  0  0  0
  2  1  1  0
  3  2  2  0
  4  3  1  0
  5  4  2  0
  5 11  1  0
  6  5  1  0
  7  6  1  0
  7  9  1  0
  7  8  1  1
  9 13  1  0
 10  9  2  0
 11 12  2  0
 12  2  1  0
 13 14  1  0
 14 20  1  0
 14 15  1  6
 16 15  1  0
 17 18  1  0
 17 16  1  0
 19 18  1  0
 20 24  1  0
 21 20  2  0
 23 22  1  1
 23 25  1  0
 24 23  1  0
 25 26  2  0
 25 27  1  0
M  END
$$$$
