YKA.pdb
     RDKit          3D

 27 27  0  0  1  0  0  0  0  0999 V2000
  -12.1067  -23.6211   30.3727 O   0  0  0  0  0  0  0  0  0  0  0  0
  -10.8093  -23.3301   29.9617 C   0  0  0  0  0  0  0  0  0  0  0  0
  -10.2018  -24.0606   28.9608 C   0  0  0  0  0  0  0  0  0  0  0  0
   -8.9130  -23.7824   28.5424 C   0  0  0  0  0  0  0  0  0  0  0  0
   -8.1798  -22.7610   29.1095 C   0  0  0  0  0  0  0  0  0  0  0  0
   -6.7913  -22.4581   28.6613 C   0  0  0  0  0  0  0  0  0  0  0  0
   -5.7863  -23.4399   29.2272 C   0  0  2  0  0  0  0  0  0  0  0  0
   -5.6871  -23.2824   30.6707 N   0  0  0  0  0  0  0  0  0  0  0  0
   -4.5059  -23.1695   28.5539 C   0  0  0  0  0  0  0  0  0  0  0  0
   -3.6382  -22.5048   29.1406 O   0  0  0  0  0  0  0  0  0  0  0  0
   -8.7899  -22.0326   30.1098 C   0  0  0  0  0  0  0  0  0  0  0  0
  -10.0775  -22.3081   30.5301 C   0  0  0  0  0  0  0  0  0  0  0  0
   -4.2845  -23.6633   27.2669 N   0  0  0  0  0  0  0  0  0  0  0  0
   -2.9488  -23.5450   26.6593 C   0  0  1  0  0  0  0  0  0  0  0  0
   -2.4842  -24.9568   26.4117 C   0  0  0  0  0  0  0  0  0  0  0  0
   -1.1406  -24.9891   25.7736 C   0  0  0  0  0  0  0  0  0  0  0  0
   -0.7461  -26.4725   25.6854 C   0  0  0  0  0  0  0  0  0  0  0  0
    0.6456  -26.5137   25.0879 C   0  0  0  0  0  0  0  0  0  0  0  0
    1.0527  -27.9073   25.0408 N   0  0  0  0  0  0  0  0  0  0  0  0
   -3.1783  -22.8740   25.3628 C   0  0  0  0  0  0  0  0  0  0  0  0
   -4.1434  -23.2463   24.6578 O   0  0  0  0  0  0  0  0  0  0  0  0
   -1.9005  -20.0194   23.2844 C   0  0  0  0  0  0  0  0  0  0  0  0
   -2.5945  -21.3262   23.5082 C   0  0  2  0  0  0  0  0  0  0  0  0
   -2.3719  -21.8191   24.8458 N   0  0  0  0  0  0  0  0  0  0  0  0
   -2.1589  -22.3030   22.4756 C   0  0  0  0  0  0  0  0  0  0  0  0
   -2.4839  -22.1970   21.2672 O   0  0  0  0  0  0  0  0  0  0  0  0
   -1.3661  -23.3725   22.8470 O   0  0  0  0  0  0  0  0  0  0  0  0
  2  1  1  0
  3  2  2  0
  4  3  1  0
  5  4  2  0
  5 11  1  0
  6  5  1  0
  7  6  1  0
  7  9  1  0
  7  8  1  1
  9 13  1  0
 10  9  2  0
 11 12  2  0
 12  2  1  0
 13 14  1  0
 14 20  1  0
 14 15  1  6
 16 15  1  0
 17 18  1  0
 17 16  1  0
 19 18  1  0
 20 24  1  0
 21 20  2  0
 23 22  1  6
 23 25  1  0
 24 23  1  0
 25 26  2  0
 25 27  1  0
M  END
$$$$
