YKA.pdb
     RDKit          3D

 27 27  0  0  1  0  0  0  0  0999 V2000
   10.8475  -14.1880   30.9460 O   0  0  0  0  0  0  0  0  0  0  0  0
   10.5547  -14.5840   29.6443 C   0  0  0  0  0  0  0  0  0  0  0  0
   10.6180  -15.9125   29.2761 C   0  0  0  0  0  0  0  0  0  0  0  0
   10.3296  -16.3203   27.9861 C   0  0  0  0  0  0  0  0  0  0  0  0
    9.9659  -15.4139   27.0120 C   0  0  0  0  0  0  0  0  0  0  0  0
    9.6544  -15.8493   25.6214 C   0  0  0  0  0  0  0  0  0  0  0  0
    8.1679  -15.8067   25.3338 C   0  0  2  0  0  0  0  0  0  0  0  0
    7.4541  -16.6917   26.2424 N   0  0  0  0  0  0  0  0  0  0  0  0
    7.9976  -16.2065   23.9277 C   0  0  0  0  0  0  0  0  0  0  0  0
    7.7348  -17.3886   23.6586 O   0  0  0  0  0  0  0  0  0  0  0  0
    9.9036  -14.0867   27.3833 C   0  0  0  0  0  0  0  0  0  0  0  0
   10.1911  -13.6761   28.6713 C   0  0  0  0  0  0  0  0  0  0  0  0
    8.1336  -15.2528   22.9171 N   0  0  0  0  0  0  0  0  0  0  0  0
    8.0250  -15.6625   21.5073 C   0  0  1  0  0  0  0  0  0  0  0  0
    7.9082  -14.3850   20.7168 C   0  0  0  0  0  0  0  0  0  0  0  0
    7.9212  -14.6425   19.2515 C   0  0  0  0  0  0  0  0  0  0  0  0
    7.7373  -13.2735   18.5764 C   0  0  0  0  0  0  0  0  0  0  0  0
    7.5993  -13.5402   17.0914 C   0  0  0  0  0  0  0  0  0  0  0  0
    7.3900  -12.2581   16.4414 N   0  0  0  0  0  0  0  0  0  0  0  0
    9.3170  -16.3095   21.1980 C   0  0  0  0  0  0  0  0  0  0  0  0
   10.3672  -15.7948   21.6445 O   0  0  0  0  0  0  0  0  0  0  0  0
   10.6855  -19.3601   19.4619 C   0  0  0  0  0  0  0  0  0  0  0  0
   10.7701  -18.0538   20.1871 C   0  0  2  0  0  0  0  0  0  0  0  0
    9.4609  -17.4931   20.4178 N   0  0  0  0  0  0  0  0  0  0  0  0
   11.6490  -17.1225   19.4319 C   0  0  0  0  0  0  0  0  0  0  0  0
   11.2377  -16.4512   18.4534 O   0  0  0  0  0  0  0  0  0  0  0  0
   12.9706  -16.9815   19.8109 O   0  0  0  0  0  0  0  0  0  0  0  0
  2  1  1  0
  3  2  2  0
  4  3  1  0
  5  4  2  0
  5 11  1  0
  6  5  1  0
  7  6  1  0
  7  9  1  0
  7  8  1  1
  9 13  1  0
 10  9  2  0
 11 12  2  0
 12  2  1  0
 13 14  1  0
 14 20  1  0
 14 15  1  6
 16 15  1  0
 17 18  1  0
 17 16  1  0
 19 18  1  0
 20 24  1  0
 21 20  2  0
 23 22  1  6
 23 25  1  0
 24 23  1  0
 25 26  2  0
 25 27  1  0
M  END
$$$$
