YKA.pdb
     RDKit          3D

 27 27  0  0  1  0  0  0  0  0999 V2000
    7.9518  -12.0214   16.9300 O   0  0  0  0  0  0  0  0  0  0  0  0
    7.9195  -12.6349   18.1787 C   0  0  0  0  0  0  0  0  0  0  0  0
    6.7273  -13.0577   18.7306 C   0  0  0  0  0  0  0  0  0  0  0  0
    6.6805  -13.6688   19.9707 C   0  0  0  0  0  0  0  0  0  0  0  0
    7.8261  -13.8815   20.7090 C   0  0  0  0  0  0  0  0  0  0  0  0
    7.7797  -14.5397   22.0450 C   0  0  0  0  0  0  0  0  0  0  0  0
    8.1120  -16.0150   21.9619 C   0  0  2  0  0  0  0  0  0  0  0  0
    7.0420  -16.7345   21.2868 N   0  0  0  0  0  0  0  0  0  0  0  0
    8.3050  -16.4835   23.3437 C   0  0  0  0  0  0  0  0  0  0  0  0
    7.3148  -16.6668   24.0680 O   0  0  0  0  0  0  0  0  0  0  0  0
    9.0162  -13.4577   20.1545 C   0  0  0  0  0  0  0  0  0  0  0  0
    9.0663  -12.8468   18.9158 C   0  0  0  0  0  0  0  0  0  0  0  0
    9.5966  -16.7151   23.8204 N   0  0  0  0  0  0  0  0  0  0  0  0
    9.7878  -17.2748   25.1685 C   0  0  1  0  0  0  0  0  0  0  0  0
   10.9502  -18.2270   25.0563 C   0  0  0  0  0  0  0  0  0  0  0  0
   10.5890  -19.4464   24.2842 C   0  0  0  0  0  0  0  0  0  0  0  0
   11.8107  -20.3767   24.3602 C   0  0  0  0  0  0  0  0  0  0  0  0
   11.4914  -21.5792   23.4956 C   0  0  0  0  0  0  0  0  0  0  0  0
   12.6213  -22.4875   23.5874 N   0  0  0  0  0  0  0  0  0  0  0  0
   10.1816  -16.1232   26.0066 C   0  0  0  0  0  0  0  0  0  0  0  0
   11.1944  -15.4635   25.6811 O   0  0  0  0  0  0  0  0  0  0  0  0
    9.0299  -13.5978   28.3036 C   0  0  0  0  0  0  0  0  0  0  0  0
   10.0392  -14.6639   28.0131 C   0  0  2  0  0  0  0  0  0  0  0  0
    9.4854  -15.7000   27.1756 N   0  0  0  0  0  0  0  0  0  0  0  0
   10.5704  -15.2063   29.2913 C   0  0  0  0  0  0  0  0  0  0  0  0
   10.5073  -16.4258   29.5845 O   0  0  0  0  0  0  0  0  0  0  0  0
   11.1582  -14.3462   30.1996 O   0  0  0  0  0  0  0  0  0  0  0  0
  2  1  1  0
  3  2  2  0
  4  3  1  0
  5  4  2  0
  5 11  1  0
  6  5  1  0
  7  6  1  0
  7  9  1  0
  7  8  1  1
  9 13  1  0
 10  9  2  0
 11 12  2  0
 12  2  1  0
 13 14  1  0
 14 20  1  0
 14 15  1  6
 16 15  1  0
 17 18  1  0
 17 16  1  0
 19 18  1  0
 20 24  1  0
 21 20  2  0
 23 22  1  1
 23 25  1  0
 24 23  1  0
 25 26  2  0
 25 27  1  0
M  END
$$$$
