YKA.pdb
     RDKit          3D

 27 27  0  0  1  0  0  0  0  0999 V2000
    5.6395  -10.5309   27.8681 O   0  0  0  0  0  0  0  0  0  0  0  0
    6.2147  -11.6153   27.2125 C   0  0  0  0  0  0  0  0  0  0  0  0
    6.3100  -11.6427   25.8359 C   0  0  0  0  0  0  0  0  0  0  0  0
    6.8792  -12.7139   25.1713 C   0  0  0  0  0  0  0  0  0  0  0  0
    7.3764  -13.8019   25.8581 C   0  0  0  0  0  0  0  0  0  0  0  0
    7.9904  -14.9576   25.1457 C   0  0  0  0  0  0  0  0  0  0  0  0
    6.9475  -15.8363   24.4867 C   0  0  2  0  0  0  0  0  0  0  0  0
    6.5901  -16.9392   25.3668 N   0  0  0  0  0  0  0  0  0  0  0  0
    7.5308  -16.3081   23.2206 C   0  0  0  0  0  0  0  0  0  0  0  0
    7.6813  -17.5256   23.0363 O   0  0  0  0  0  0  0  0  0  0  0  0
    7.2796  -13.7715   27.2340 C   0  0  0  0  0  0  0  0  0  0  0  0
    6.7114  -12.7026   27.9011 C   0  0  0  0  0  0  0  0  0  0  0  0
    7.9062  -15.3821   22.2456 N   0  0  0  0  0  0  0  0  0  0  0  0
    8.2926  -15.8501   20.9044 C   0  0  1  0  0  0  0  0  0  0  0  0
    8.1412  -14.6585   19.9947 C   0  0  0  0  0  0  0  0  0  0  0  0
    8.4536  -15.0030   18.5815 C   0  0  0  0  0  0  0  0  0  0  0  0
    8.1465  -13.7419   17.7574 C   0  0  0  0  0  0  0  0  0  0  0  0
    8.3366  -14.1206   16.3027 C   0  0  0  0  0  0  0  0  0  0  0  0
    7.9678  -12.9639   15.5051 N   0  0  0  0  0  0  0  0  0  0  0  0
    9.7248  -16.1954   21.0195 C   0  0  0  0  0  0  0  0  0  0  0  0
   10.3254  -16.6086   20.0019 O   0  0  0  0  0  0  0  0  0  0  0  0
   12.6917  -15.6742   23.1468 C   0  0  0  0  0  0  0  0  0  0  0  0
   11.8602  -16.5319   22.2455 C   0  0  2  0  0  0  0  0  0  0  0  0
   10.4862  -16.0925   22.2195 N   0  0  0  0  0  0  0  0  0  0  0  0
   11.9818  -17.9539   22.6620 C   0  0  0  0  0  0  0  0  0  0  0  0
   10.9880  -18.6474   22.9917 O   0  0  0  0  0  0  0  0  0  0  0  0
   13.2301  -18.5464   22.6915 O   0  0  0  0  0  0  0  0  0  0  0  0
  2  1  1  0
  3  2  2  0
  4  3  1  0
  5  4  2  0
  5 11  1  0
  6  5  1  0
  7  6  1  0
  7  9  1  0
  7  8  1  1
  9 13  1  0
 10  9  2  0
 11 12  2  0
 12  2  1  0
 13 14  1  0
 14 20  1  0
 14 15  1  6
 16 15  1  0
 17 18  1  0
 17 16  1  0
 19 18  1  0
 20 24  1  0
 21 20  2  0
 23 22  1  1
 23 25  1  0
 24 23  1  0
 25 26  2  0
 25 27  1  0
M  END
$$$$
