YKA.pdb
     RDKit          3D

 27 27  0  0  1  0  0  0  0  0999 V2000
    8.3871  -13.2870   16.3282 O   0  0  0  0  0  0  0  0  0  0  0  0
    8.1880  -13.6200   17.6647 C   0  0  0  0  0  0  0  0  0  0  0  0
    8.8879  -14.6559   18.2493 C   0  0  0  0  0  0  0  0  0  0  0  0
    8.7001  -14.9977   19.5765 C   0  0  0  0  0  0  0  0  0  0  0  0
    7.8035  -14.3160   20.3726 C   0  0  0  0  0  0  0  0  0  0  0  0
    7.5987  -14.6811   21.8027 C   0  0  0  0  0  0  0  0  0  0  0  0
    7.1042  -16.1042   21.9590 C   0  0  2  0  0  0  0  0  0  0  0  0
    5.7330  -16.2154   21.4838 N   0  0  0  0  0  0  0  0  0  0  0  0
    7.2213  -16.4380   23.3876 C   0  0  0  0  0  0  0  0  0  0  0  0
    6.2453  -16.2682   24.1342 O   0  0  0  0  0  0  0  0  0  0  0  0
    7.1055  -13.2810   19.7852 C   0  0  0  0  0  0  0  0  0  0  0  0
    7.2908  -12.9370   18.4595 C   0  0  0  0  0  0  0  0  0  0  0  0
    8.4261  -16.9401   23.8830 N   0  0  0  0  0  0  0  0  0  0  0  0
    8.5689  -17.2055   25.3240 C   0  0  1  0  0  0  0  0  0  0  0  0
    9.4941  -18.3898   25.4333 C   0  0  0  0  0  0  0  0  0  0  0  0
    9.7833  -18.7319   26.8520 C   0  0  0  0  0  0  0  0  0  0  0  0
   10.6989  -19.9666   26.8147 C   0  0  0  0  0  0  0  0  0  0  0  0
   10.9265  -20.3781   28.2549 C   0  0  0  0  0  0  0  0  0  0  0  0
   11.8589  -21.4920   28.2420 N   0  0  0  0  0  0  0  0  0  0  0  0
    9.2448  -16.0086   25.8665 C   0  0  0  0  0  0  0  0  0  0  0  0
   10.3156  -15.6335   25.3378 O   0  0  0  0  0  0  0  0  0  0  0  0
    8.6008  -12.8955   27.5884 C   0  0  0  0  0  0  0  0  0  0  0  0
    9.4983  -14.0801   27.4133 C   0  0  2  0  0  0  0  0  0  0  0  0
    8.7629  -15.2369   26.9632 N   0  0  0  0  0  0  0  0  0  0  0  0
   10.2267  -14.3431   28.6824 C   0  0  0  0  0  0  0  0  0  0  0  0
   10.9294  -13.4706   29.2500 O   0  0  0  0  0  0  0  0  0  0  0  0
   10.1349  -15.5909   29.2697 O   0  0  0  0  0  0  0  0  0  0  0  0
  2  1  1  0
  3  2  2  0
  4  3  1  0
  5  4  2  0
  5 11  1  0
  6  5  1  0
  7  6  1  0
  7  9  1  0
  7  8  1  1
  9 13  1  0
 10  9  2  0
 11 12  2  0
 12  2  1  0
 13 14  1  0
 14 20  1  0
 14 15  1  6
 16 15  1  0
 17 18  1  0
 17 16  1  0
 19 18  1  0
 20 24  1  0
 21 20  2  0
 23 22  1  1
 23 25  1  0
 24 23  1  0
 25 26  2  0
 25 27  1  0
M  END
$$$$
