YKA.pdb
     RDKit          3D

 27 27  0  0  1  0  0  0  0  0999 V2000
    5.5644  -10.4495   28.0393 O   0  0  0  0  0  0  0  0  0  0  0  0
    6.1464  -11.5419   27.4031 C   0  0  0  0  0  0  0  0  0  0  0  0
    5.8769  -11.8172   26.0779 C   0  0  0  0  0  0  0  0  0  0  0  0
    6.4483  -12.8994   25.4331 C   0  0  0  0  0  0  0  0  0  0  0  0
    7.3131  -13.7504   26.0892 C   0  0  0  0  0  0  0  0  0  0  0  0
    7.9307  -14.9170   25.3979 C   0  0  0  0  0  0  0  0  0  0  0  0
    6.8902  -15.8127   24.7583 C   0  0  2  0  0  0  0  0  0  0  0  0
    6.5316  -16.8939   25.6643 N   0  0  0  0  0  0  0  0  0  0  0  0
    7.4771  -16.3150   23.5056 C   0  0  0  0  0  0  0  0  0  0  0  0
    7.6839  -17.5312   23.3752 O   0  0  0  0  0  0  0  0  0  0  0  0
    7.5804  -13.4724   27.4139 C   0  0  0  0  0  0  0  0  0  0  0  0
    7.0111  -12.3920   28.0610 C   0  0  0  0  0  0  0  0  0  0  0  0
    7.7929  -15.4189   22.4827 N   0  0  0  0  0  0  0  0  0  0  0  0
    8.2091  -15.9304   21.1666 C   0  0  1  0  0  0  0  0  0  0  0  0
    8.0691  -14.7721   20.2132 C   0  0  0  0  0  0  0  0  0  0  0  0
    8.5536  -15.1205   18.8504 C   0  0  0  0  0  0  0  0  0  0  0  0
    8.2068  -13.9199   17.9547 C   0  0  0  0  0  0  0  0  0  0  0  0
    8.6330  -14.2931   16.5495 C   0  0  0  0  0  0  0  0  0  0  0  0
    8.2083  -13.2171   15.6709 N   0  0  0  0  0  0  0  0  0  0  0  0
    9.6407  -16.2620   21.3222 C   0  0  0  0  0  0  0  0  0  0  0  0
   10.3780  -15.4603   21.9392 O   0  0  0  0  0  0  0  0  0  0  0  0
   12.0019  -19.1231   20.9801 C   0  0  0  0  0  0  0  0  0  0  0  0
   11.6681  -17.6646   21.0087 C   0  0  2  0  0  0  0  0  0  0  0  0
   10.2556  -17.4432   20.8153 N   0  0  0  0  0  0  0  0  0  0  0  0
   12.4874  -16.9478   19.9962 C   0  0  0  0  0  0  0  0  0  0  0  0
   12.0621  -16.6925   18.8425 O   0  0  0  0  0  0  0  0  0  0  0  0
   13.7670  -16.5417   20.3249 O   0  0  0  0  0  0  0  0  0  0  0  0
  2  1  1  0
  3  2  2  0
  4  3  1  0
  5  4  2  0
  5 11  1  0
  6  5  1  0
  7  6  1  0
  7  9  1  0
  7  8  1  1
  9 13  1  0
 10  9  2  0
 11 12  2  0
 12  2  1  0
 13 14  1  0
 14 20  1  0
 14 15  1  6
 16 15  1  0
 17 18  1  0
 17 16  1  0
 19 18  1  0
 20 24  1  0
 21 20  2  0
 23 22  1  6
 23 25  1  0
 24 23  1  0
 25 26  2  0
 25 27  1  0
M  END
$$$$
