NHL.pdb
     RDKit          3D

 27 27  0  0  1  0  0  0  0  0999 V2000
    8.5219  -14.1278   11.9175 N   0  0  0  0  0  0  0  0  0  0  0  0
    7.5137  -15.0183   12.3376 C   0  0  0  0  0  0  0  0  0  0  0  0
    6.5487  -15.3044   11.5764 O   0  0  0  0  0  0  0  0  0  0  0  0
    7.5726  -15.6291   13.6749 C   0  0  0  0  0  0  0  0  0  0  0  0
    8.7138  -15.0557   14.4453 C   0  0  2  0  0  0  0  0  0  0  0  0
    9.9094  -15.0301   13.6260 N   0  0  0  0  0  0  0  0  0  0  0  0
    8.9856  -15.9500   15.6161 C   0  0  0  0  0  0  0  0  0  0  0  0
    8.0592  -16.3041   16.4018 O   0  0  0  0  0  0  0  0  0  0  0  0
   10.2934  -16.4360   15.8909 N   0  0  0  0  0  0  0  0  0  0  0  0
   10.5407  -17.2012   17.1025 C   0  0  1  0  0  0  0  0  0  0  0  0
   11.8437  -17.9465   17.0245 C   0  0  0  0  0  0  0  0  0  0  0  0
   12.0393  -18.9595   18.0598 C   0  0  0  0  0  0  0  0  0  0  0  0
   11.2405  -19.3003   19.1300 C   0  0  0  0  0  0  0  0  0  0  0  0
   11.8005  -20.2863   19.8601 N   0  0  0  0  0  0  0  0  0  0  0  0
   12.9503  -20.5664   19.2514 C   0  0  0  0  0  0  0  0  0  0  0  0
   13.1193  -19.7871   18.1704 N   0  0  0  0  0  0  0  0  0  0  0  0
   10.6026  -16.2447   18.2222 C   0  0  0  0  0  0  0  0  0  0  0  0
   11.5313  -15.4065   18.2520 O   0  0  0  0  0  0  0  0  0  0  0  0
    8.3035  -12.8783   19.1924 C   0  0  0  0  0  0  0  0  0  0  0  0
    7.6008  -14.1736   19.6210 C   0  0  2  0  0  0  0  0  0  0  0  0
    6.1798  -13.8609   19.9535 C   0  0  0  0  0  0  0  0  0  0  0  0
    8.3718  -14.8337   20.7056 C   0  0  0  0  0  0  0  0  0  0  0  0
    9.7575  -15.2024   20.2932 C   0  0  2  0  0  0  0  0  0  0  0  0
    9.6491  -16.2397   19.2662 N   0  0  0  0  0  0  0  0  0  0  0  0
   10.5194  -15.7697   21.4160 C   0  0  0  0  0  0  0  0  0  0  0  0
   10.5844  -16.9915   21.6084 O   0  0  0  0  0  0  0  0  0  0  0  0
   11.1848  -14.9265   22.2862 O   0  0  0  0  0  0  0  0  0  0  0  0
  1  2  1  0
  2  3  2  0
  4  2  1  0
  5  4  1  0
  5  6  1  6
  7  5  1  0
  7  8  2  0
  9  7  1  0
 10  9  1  0
 10 11  1  6
 11 12  1  0
 12 16  1  0
 13 12  2  0
 13 14  1  0
 14 15  1  0
 16 15  2  0
 17 10  1  0
 18 17  2  0
 20 19  1  1
 21 20  1  0
 22 20  1  0
 23 22  1  1
 23 24  1  0
 24 17  1  0
 25 23  1  0
 26 25  2  0
 27 25  1  0
M  END
$$$$
