NHL.pdb
     RDKit          3D

 27 27  0  0  1  0  0  0  0  0999 V2000
    6.1799  -20.5032   20.5089 N   0  0  0  0  0  0  0  0  0  0  0  0
    7.1615  -20.0616   19.5994 C   0  0  0  0  0  0  0  0  0  0  0  0
    7.2648  -20.5878   18.4571 O   0  0  0  0  0  0  0  0  0  0  0  0
    8.0832  -18.9765   19.9708 C   0  0  0  0  0  0  0  0  0  0  0  0
    7.7412  -18.4620   21.3283 C   0  0  2  0  0  0  0  0  0  0  0  0
    6.3267  -18.1546   21.4063 N   0  0  0  0  0  0  0  0  0  0  0  0
    8.4952  -17.1865   21.5500 C   0  0  0  0  0  0  0  0  0  0  0  0
    9.7505  -17.1306   21.4015 O   0  0  0  0  0  0  0  0  0  0  0  0
    7.8315  -15.9894   21.9355 N   0  0  0  0  0  0  0  0  0  0  0  0
    8.5941  -14.7636   22.1095 C   0  0  1  0  0  0  0  0  0  0  0  0
    7.9613  -13.6146   21.3756 C   0  0  0  0  0  0  0  0  0  0  0  0
    8.0510  -13.6873   19.9186 C   0  0  0  0  0  0  0  0  0  0  0  0
    8.8338  -12.9689   19.0407 C   0  0  0  0  0  0  0  0  0  0  0  0
    8.5969  -13.3369   17.7651 N   0  0  0  0  0  0  0  0  0  0  0  0
    7.6664  -14.2854   17.8386 C   0  0  0  0  0  0  0  0  0  0  0  0
    7.3207  -14.5156   19.1160 N   0  0  0  0  0  0  0  0  0  0  0  0
    8.6134  -14.4582   23.5514 C   0  0  0  0  0  0  0  0  0  0  0  0
    8.5778  -13.2622   23.9176 O   0  0  0  0  0  0  0  0  0  0  0  0
    8.2105  -12.3995   26.9993 C   0  0  0  0  0  0  0  0  0  0  0  0
    7.1771  -13.0238   26.0520 C   0  0  2  0  0  0  0  0  0  0  0  0
    5.8456  -12.4048   26.3196 C   0  0  0  0  0  0  0  0  0  0  0  0
    7.2178  -14.5047   26.1622 C   0  0  0  0  0  0  0  0  0  0  0  0
    8.5821  -15.0673   25.9425 C   0  0  2  0  0  0  0  0  0  0  0  0
    8.6707  -15.4694   24.5380 N   0  0  0  0  0  0  0  0  0  0  0  0
    8.8064  -16.2682   26.7614 C   0  0  0  0  0  0  0  0  0  0  0  0
    8.4334  -17.3893   26.3901 O   0  0  0  0  0  0  0  0  0  0  0  0
    9.4498  -16.1547   27.9797 O   0  0  0  0  0  0  0  0  0  0  0  0
  1  2  1  0
  2  3  2  0
  4  2  1  0
  5  4  1  0
  5  6  1  6
  7  5  1  0
  7  8  2  0
  9  7  1  0
 10  9  1  0
 10 11  1  6
 11 12  1  0
 12 16  1  0
 13 12  2  0
 13 14  1  0
 14 15  1  0
 16 15  2  0
 17 10  1  0
 18 17  2  0
 20 19  1  1
 21 20  1  0
 22 20  1  0
 23 22  1  6
 23 24  1  0
 24 17  1  0
 25 23  1  0
 26 25  2  0
 27 25  1  0
M  END
$$$$
