NHL.pdb
     RDKit          3D

 27 27  0  0  1  0  0  0  0  0999 V2000
    8.5055  -19.3443   17.2484 N   0  0  0  0  0  0  0  0  0  0  0  0
    7.8711  -18.2328   17.8380 C   0  0  0  0  0  0  0  0  0  0  0  0
    7.4002  -17.3056   17.1232 O   0  0  0  0  0  0  0  0  0  0  0  0
    7.7484  -18.1377   19.3012 C   0  0  0  0  0  0  0  0  0  0  0  0
    8.4205  -16.8984   19.7878 C   0  0  2  0  0  0  0  0  0  0  0  0
    9.7868  -16.8469   19.3062 N   0  0  0  0  0  0  0  0  0  0  0  0
    8.4689  -16.9479   21.2843 C   0  0  0  0  0  0  0  0  0  0  0  0
    7.4109  -17.0226   21.9741 O   0  0  0  0  0  0  0  0  0  0  0  0
    9.7039  -16.9131   21.9885 N   0  0  0  0  0  0  0  0  0  0  0  0
    9.7188  -17.0920   23.4315 C   0  0  1  0  0  0  0  0  0  0  0  0
   11.0180  -17.6873   23.8973 C   0  0  0  0  0  0  0  0  0  0  0  0
   11.0971  -19.1441   23.8096 C   0  0  0  0  0  0  0  0  0  0  0  0
   10.2045  -20.1080   24.2264 C   0  0  0  0  0  0  0  0  0  0  0  0
   10.6721  -21.3468   23.9703 N   0  0  0  0  0  0  0  0  0  0  0  0
   11.8574  -21.1642   23.3934 C   0  0  0  0  0  0  0  0  0  0  0  0
   12.1375  -19.8550   23.2845 N   0  0  0  0  0  0  0  0  0  0  0  0
    9.5563  -15.7603   24.0419 C   0  0  0  0  0  0  0  0  0  0  0  0
   10.2214  -14.8016   23.5897 O   0  0  0  0  0  0  0  0  0  0  0  0
    5.5617  -12.1462   26.6175 C   0  0  0  0  0  0  0  0  0  0  0  0
    7.0564  -12.4138   26.3956 C   0  0  2  0  0  0  0  0  0  0  0  0
    7.6591  -11.2315   25.7126 C   0  0  0  0  0  0  0  0  0  0  0  0
    7.2407  -13.7098   25.6932 C   0  0  0  0  0  0  0  0  0  0  0  0
    8.6537  -14.1884   25.7164 C   0  0  2  0  0  0  0  0  0  0  0  0
    8.6745  -15.5258   25.1220 N   0  0  0  0  0  0  0  0  0  0  0  0
    9.1580  -14.3083   27.0928 C   0  0  0  0  0  0  0  0  0  0  0  0
    9.3083  -13.3175   27.8205 O   0  0  0  0  0  0  0  0  0  0  0  0
    9.4758  -15.5551   27.5984 O   0  0  0  0  0  0  0  0  0  0  0  0
  1  2  1  0
  2  3  2  0
  4  2  1  0
  5  4  1  0
  5  6  1  6
  7  5  1  0
  7  8  2  0
  9  7  1  0
 10  9  1  0
 10 11  1  1
 11 12  1  0
 12 16  1  0
 13 12  2  0
 13 14  1  0
 14 15  1  0
 16 15  2  0
 17 10  1  0
 18 17  2  0
 20 19  1  6
 21 20  1  0
 22 20  1  0
 23 22  1  1
 23 24  1  0
 24 17  1  0
 25 23  1  0
 26 25  2  0
 27 25  1  0
M  END
$$$$
