NHL.pdb
     RDKit          3D

 27 27  0  0  1  0  0  0  0  0999 V2000
   15.9757  -18.1057   21.8110 N   0  0  0  0  0  0  0  0  0  0  0  0
   15.2811  -17.6304   20.6808 C   0  0  0  0  0  0  0  0  0  0  0  0
   15.8458  -17.5754   19.5536 O   0  0  0  0  0  0  0  0  0  0  0  0
   13.8822  -17.1900   20.8000 C   0  0  0  0  0  0  0  0  0  0  0  0
   13.4550  -17.2370   22.2282 C   0  0  2  0  0  0  0  0  0  0  0  0
   13.1646  -18.6021   22.6201 N   0  0  0  0  0  0  0  0  0  0  0  0
   12.1894  -16.4470   22.3653 C   0  0  0  0  0  0  0  0  0  0  0  0
   12.1797  -15.1904   22.2177 O   0  0  0  0  0  0  0  0  0  0  0  0
   10.9504  -17.0766   22.6663 N   0  0  0  0  0  0  0  0  0  0  0  0
    9.7364  -16.2806   22.7506 C   0  0  1  0  0  0  0  0  0  0  0  0
    8.5980  -16.9368   22.0208 C   0  0  0  0  0  0  0  0  0  0  0  0
    7.4609  -16.0636   21.7365 C   0  0  0  0  0  0  0  0  0  0  0  0
    7.2447  -14.7471   22.0825 C   0  0  0  0  0  0  0  0  0  0  0  0
    6.0478  -14.3169   21.6340 N   0  0  0  0  0  0  0  0  0  0  0  0
    5.5103  -15.3603   21.0067 C   0  0  0  0  0  0  0  0  0  0  0  0
    6.3346  -16.4200   21.0525 N   0  0  0  0  0  0  0  0  0  0  0  0
    9.3858  -16.1627   24.1774 C   0  0  0  0  0  0  0  0  0  0  0  0
   10.0687  -16.7837   25.0222 O   0  0  0  0  0  0  0  0  0  0  0  0
    8.6304  -12.7567   27.1887 C   0  0  0  0  0  0  0  0  0  0  0  0
    7.5364  -12.9946   26.1391 C   0  0  2  0  0  0  0  0  0  0  0  0
    6.5538  -11.8733   26.2080 C   0  0  0  0  0  0  0  0  0  0  0  0
    6.9573  -14.3520   26.3090 C   0  0  0  0  0  0  0  0  0  0  0  0
    7.9414  -15.4418   26.0438 C   0  0  2  0  0  0  0  0  0  0  0  0
    8.3035  -15.3718   24.6274 N   0  0  0  0  0  0  0  0  0  0  0  0
    7.3526  -16.7678   26.2847 C   0  0  0  0  0  0  0  0  0  0  0  0
    6.6794  -17.3485   25.4224 O   0  0  0  0  0  0  0  0  0  0  0  0
    7.5493  -17.3924   27.5023 O   0  0  0  0  0  0  0  0  0  0  0  0
  1  2  1  0
  2  3  2  0
  4  2  1  0
  5  4  1  0
  5  6  1  6
  7  5  1  0
  7  8  2  0
  9  7  1  0
 10  9  1  0
 10 11  1  6
 11 12  1  0
 12 16  1  0
 13 12  2  0
 13 14  1  0
 14 15  1  0
 16 15  2  0
 17 10  1  0
 18 17  2  0
 20 19  1  1
 21 20  1  0
 22 20  1  0
 23 22  1  6
 23 24  1  0
 24 17  1  0
 25 23  1  0
 26 25  2  0
 27 25  1  0
M  END
$$$$
