NHL.pdb
     RDKit          3D

 27 27  0  0  1  0  0  0  0  0999 V2000
    8.9066  -13.9637   16.9072 N   0  0  0  0  0  0  0  0  0  0  0  0
    8.2563  -13.2347   17.9229 C   0  0  0  0  0  0  0  0  0  0  0  0
    7.8416  -12.0622   17.7096 O   0  0  0  0  0  0  0  0  0  0  0  0
    8.0512  -13.8332   19.2513 C   0  0  0  0  0  0  0  0  0  0  0  0
    8.6194  -15.2119   19.2804 C   0  0  2  0  0  0  0  0  0  0  0  0
    7.8161  -16.1026   18.4662 N   0  0  0  0  0  0  0  0  0  0  0  0
    8.5629  -15.7127   20.6912 C   0  0  0  0  0  0  0  0  0  0  0  0
    7.4582  -15.8900   21.2820 O   0  0  0  0  0  0  0  0  0  0  0  0
    9.7465  -16.0083   21.4219 N   0  0  0  0  0  0  0  0  0  0  0  0
    9.6503  -16.6191   22.7380 C   0  0  1  0  0  0  0  0  0  0  0  0
   10.8338  -17.5014   23.0214 C   0  0  0  0  0  0  0  0  0  0  0  0
   10.7903  -18.8168   22.3859 C   0  0  0  0  0  0  0  0  0  0  0  0
    9.8082  -19.3964   21.6118 C   0  0  0  0  0  0  0  0  0  0  0  0
   10.1596  -20.6421   21.2329 N   0  0  0  0  0  0  0  0  0  0  0  0
   11.3610  -20.8476   21.7674 C   0  0  0  0  0  0  0  0  0  0  0  0
   11.7632  -19.7713   22.4632 N   0  0  0  0  0  0  0  0  0  0  0  0
    9.6187  -15.5279   23.7283 C   0  0  0  0  0  0  0  0  0  0  0  0
   10.2769  -14.4875   23.5043 O   0  0  0  0  0  0  0  0  0  0  0  0
    8.1310  -12.6699   27.6920 C   0  0  0  0  0  0  0  0  0  0  0  0
    7.4984  -12.4309   26.3144 C   0  0  2  0  0  0  0  0  0  0  0  0
    6.0972  -11.9542   26.5063 C   0  0  0  0  0  0  0  0  0  0  0  0
    7.6414  -13.6467   25.4730 C   0  0  0  0  0  0  0  0  0  0  0  0
    8.8527  -14.4495   25.8116 C   0  0  2  0  0  0  0  0  0  0  0  0
    8.8702  -15.6139   24.9249 N   0  0  0  0  0  0  0  0  0  0  0  0
    8.7981  -14.9475   27.1944 C   0  0  0  0  0  0  0  0  0  0  0  0
    7.9759  -15.8041   27.5467 O   0  0  0  0  0  0  0  0  0  0  0  0
    9.6833  -14.4536   28.1344 O   0  0  0  0  0  0  0  0  0  0  0  0
  1  2  1  0
  2  3  2  0
  4  2  1  0
  5  4  1  0
  5  6  1  6
  7  5  1  0
  7  8  2  0
  9  7  1  0
 10  9  1  0
 10 11  1  1
 11 12  1  0
 12 16  1  0
 13 12  2  0
 13 14  1  0
 14 15  1  0
 16 15  2  0
 17 10  1  0
 18 17  2  0
 20 19  1  1
 21 20  1  0
 22 20  1  0
 23 22  1  6
 23 24  1  0
 24 17  1  0
 25 23  1  0
 26 25  2  0
 27 25  1  0
M  END
$$$$
