NHL.pdb
     RDKit          3D

 27 27  0  0  1  0  0  0  0  0999 V2000
    8.8638  -12.5104   17.1967 N   0  0  0  0  0  0  0  0  0  0  0  0
    8.1393  -13.7068   17.0251 C   0  0  0  0  0  0  0  0  0  0  0  0
    7.8388  -14.1181   15.8705 O   0  0  0  0  0  0  0  0  0  0  0  0
    7.7217  -14.4962   18.1945 C   0  0  0  0  0  0  0  0  0  0  0  0
    8.0421  -13.7548   19.4484 C   0  0  2  0  0  0  0  0  0  0  0  0
    9.4229  -13.3137   19.4312 N   0  0  0  0  0  0  0  0  0  0  0  0
    7.8809  -14.6952   20.6034 C   0  0  0  0  0  0  0  0  0  0  0  0
    6.7589  -15.2106   20.8798 O   0  0  0  0  0  0  0  0  0  0  0  0
    8.9806  -15.0458   21.4341 N   0  0  0  0  0  0  0  0  0  0  0  0
    8.7983  -16.0120   22.5055 C   0  0  1  0  0  0  0  0  0  0  0  0
    9.7704  -17.1523   22.3874 C   0  0  0  0  0  0  0  0  0  0  0  0
    9.3888  -18.1937   21.4355 C   0  0  0  0  0  0  0  0  0  0  0  0
    8.1422  -18.5685   20.9827 C   0  0  0  0  0  0  0  0  0  0  0  0
    8.2293  -19.5958   20.1133 N   0  0  0  0  0  0  0  0  0  0  0  0
    9.5285  -19.8684   20.0184 C   0  0  0  0  0  0  0  0  0  0  0  0
   10.2464  -19.0443   20.7994 N   0  0  0  0  0  0  0  0  0  0  0  0
    9.0383  -15.3083   23.7782 C   0  0  0  0  0  0  0  0  0  0  0  0
   10.0792  -14.6256   23.9058 O   0  0  0  0  0  0  0  0  0  0  0  0
    8.0183  -11.8978   25.9343 C   0  0  0  0  0  0  0  0  0  0  0  0
    6.8737  -12.9186   25.9908 C   0  0  2  0  0  0  0  0  0  0  0  0
    5.6607  -12.2488   26.5452 C   0  0  0  0  0  0  0  0  0  0  0  0
    7.3137  -14.1336   26.7235 C   0  0  0  0  0  0  0  0  0  0  0  0
    8.5300  -14.7623   26.1304 C   0  0  2  0  0  0  0  0  0  0  0  0
    8.1333  -15.3765   24.8625 N   0  0  0  0  0  0  0  0  0  0  0  0
    9.0579  -15.8302   26.9930 C   0  0  0  0  0  0  0  0  0  0  0  0
    8.7702  -17.0204   26.8070 O   0  0  0  0  0  0  0  0  0  0  0  0
    9.8985  -15.5087   28.0424 O   0  0  0  0  0  0  0  0  0  0  0  0
  1  2  1  0
  2  3  2  0
  4  2  1  0
  5  4  1  0
  5  6  1  6
  7  5  1  0
  7  8  2  0
  9  7  1  0
 10  9  1  0
 10 11  1  6
 11 12  1  0
 12 16  1  0
 13 12  2  0
 13 14  1  0
 14 15  1  0
 16 15  2  0
 17 10  1  0
 18 17  2  0
 20 19  1  1
 21 20  1  0
 22 20  1  0
 23 22  1  1
 23 24  1  0
 24 17  1  0
 25 23  1  0
 26 25  2  0
 27 25  1  0
M  END
$$$$
