NHL.pdb
     RDKit          3D

 27 27  0  0  1  0  0  0  0  0999 V2000
    7.2957  -12.6923   17.5544 N   0  0  0  0  0  0  0  0  0  0  0  0
    8.3616  -13.1260   18.3678 C   0  0  0  0  0  0  0  0  0  0  0  0
    9.5586  -12.9481   18.0101 O   0  0  0  0  0  0  0  0  0  0  0  0
    8.0922  -13.7948   19.6504 C   0  0  0  0  0  0  0  0  0  0  0  0
    8.4348  -15.2428   19.5498 C   0  0  2  0  0  0  0  0  0  0  0  0
    7.4167  -15.9478   18.7962 N   0  0  0  0  0  0  0  0  0  0  0  0
    8.4540  -15.8173   20.9334 C   0  0  0  0  0  0  0  0  0  0  0  0
    7.3924  -16.2167   21.4940 O   0  0  0  0  0  0  0  0  0  0  0  0
    9.6640  -15.9365   21.6708 N   0  0  0  0  0  0  0  0  0  0  0  0
    9.6739  -16.6602   22.9320 C   0  0  1  0  0  0  0  0  0  0  0  0
   10.8586  -17.5804   23.0275 C   0  0  0  0  0  0  0  0  0  0  0  0
   10.7990  -18.7565   22.1617 C   0  0  0  0  0  0  0  0  0  0  0  0
    9.9519  -19.8430   22.1977 C   0  0  0  0  0  0  0  0  0  0  0  0
   10.2479  -20.7230   21.2195 N   0  0  0  0  0  0  0  0  0  0  0  0
   11.2801  -20.1923   20.5682 C   0  0  0  0  0  0  0  0  0  0  0  0
   11.6312  -19.0147   21.1108 N   0  0  0  0  0  0  0  0  0  0  0  0
    9.7558  -15.6608   24.0123 C   0  0  0  0  0  0  0  0  0  0  0  0
   10.0046  -14.4702   23.7182 O   0  0  0  0  0  0  0  0  0  0  0  0
    5.6188  -13.6106   26.7335 C   0  0  0  0  0  0  0  0  0  0  0  0
    7.1381  -13.6511   26.9464 C   0  0  2  0  0  0  0  0  0  0  0  0
    7.6553  -12.2514   26.9784 C   0  0  0  0  0  0  0  0  0  0  0  0
    7.7689  -14.5335   25.9314 C   0  0  0  0  0  0  0  0  0  0  0  0
    9.1585  -14.9375   26.2947 C   0  0  2  0  0  0  0  0  0  0  0  0
    9.5632  -15.9989   25.3717 N   0  0  0  0  0  0  0  0  0  0  0  0
    9.2191  -15.4891   27.6568 C   0  0  0  0  0  0  0  0  0  0  0  0
    9.5566  -14.7962   28.6262 O   0  0  0  0  0  0  0  0  0  0  0  0
    8.8926  -16.8151   27.8726 O   0  0  0  0  0  0  0  0  0  0  0  0
  1  2  1  0
  2  3  2  0
  4  2  1  0
  5  4  1  0
  5  6  1  6
  7  5  1  0
  7  8  2  0
  9  7  1  0
 10  9  1  0
 10 11  1  6
 11 12  1  0
 12 16  1  0
 13 12  2  0
 13 14  1  0
 14 15  1  0
 16 15  2  0
 17 10  1  0
 18 17  2  0
 20 19  1  6
 21 20  1  0
 22 20  1  0
 23 22  1  6
 23 24  1  0
 24 17  1  0
 25 23  1  0
 26 25  2  0
 27 25  1  0
M  END
$$$$
