NHL.pdb
     RDKit          3D

 27 27  0  0  1  0  0  0  0  0999 V2000
    3.0888  -20.0105   21.9164 N   0  0  0  0  0  0  0  0  0  0  0  0
    4.0320  -19.3989   21.0666 C   0  0  0  0  0  0  0  0  0  0  0  0
    3.7162  -19.0573   19.8936 O   0  0  0  0  0  0  0  0  0  0  0  0
    5.4035  -19.1492   21.5374 C   0  0  0  0  0  0  0  0  0  0  0  0
    5.4710  -17.8288   22.2276 C   0  0  2  0  0  0  0  0  0  0  0  0
    5.1208  -16.7640   21.3084 N   0  0  0  0  0  0  0  0  0  0  0  0
    6.8850  -17.6013   22.6673 C   0  0  0  0  0  0  0  0  0  0  0  0
    7.5354  -18.4977   23.2792 O   0  0  0  0  0  0  0  0  0  0  0  0
    7.5519  -16.3709   22.4150 N   0  0  0  0  0  0  0  0  0  0  0  0
    8.9361  -16.2010   22.8266 C   0  0  1  0  0  0  0  0  0  0  0  0
    9.7594  -15.5724   21.7374 C   0  0  0  0  0  0  0  0  0  0  0  0
    9.7819  -16.3101   20.4758 C   0  0  0  0  0  0  0  0  0  0  0  0
    9.1336  -16.0544   19.2867 C   0  0  0  0  0  0  0  0  0  0  0  0
    9.4144  -16.9999   18.3669 N   0  0  0  0  0  0  0  0  0  0  0  0
   10.2379  -17.8502   18.9751 C   0  0  0  0  0  0  0  0  0  0  0  0
   10.4752  -17.4619   20.2389 N   0  0  0  0  0  0  0  0  0  0  0  0
    8.9397  -15.3125   24.0027 C   0  0  0  0  0  0  0  0  0  0  0  0
    9.5088  -14.2011   23.9202 O   0  0  0  0  0  0  0  0  0  0  0  0
    8.1764  -11.9996   25.9156 C   0  0  0  0  0  0  0  0  0  0  0  0
    7.0940  -13.0873   25.9359 C   0  0  2  0  0  0  0  0  0  0  0  0
    5.7757  -12.4468   26.2180 C   0  0  0  0  0  0  0  0  0  0  0  0
    7.4821  -14.1714   26.8744 C   0  0  0  0  0  0  0  0  0  0  0  0
    8.6904  -14.9236   26.4267 C   0  0  2  0  0  0  0  0  0  0  0  0
    8.3222  -15.6707   25.2232 N   0  0  0  0  0  0  0  0  0  0  0  0
    9.1212  -15.9000   27.4388 C   0  0  0  0  0  0  0  0  0  0  0  0
    9.5438  -15.5458   28.5478 O   0  0  0  0  0  0  0  0  0  0  0  0
    9.0569  -17.2516   27.1559 O   0  0  0  0  0  0  0  0  0  0  0  0
  1  2  1  0
  2  3  2  0
  4  2  1  0
  5  4  1  0
  5  6  1  6
  7  5  1  0
  7  8  2  0
  9  7  1  0
 10  9  1  0
 10 11  1  6
 11 12  1  0
 12 16  1  0
 13 12  2  0
 13 14  1  0
 14 15  1  0
 16 15  2  0
 17 10  1  0
 18 17  2  0
 20 19  1  1
 21 20  1  0
 22 20  1  0
 23 22  1  1
 23 24  1  0
 24 17  1  0
 25 23  1  0
 26 25  2  0
 27 25  1  0
M  END
$$$$
