PRQ.pdb
     RDKit          3D

 28 28  0  0  1  0  0  0  0  0999 V2000
    8.3143  -15.3173   19.3965 N   0  0  0  0  0  0  0  0  0  0  0  0
    7.9544  -14.7250   18.1441 C   0  0  0  0  0  0  0  0  0  0  0  0
    7.7278  -13.2413   18.3911 C   0  0  0  0  0  0  0  0  0  0  0  0
    7.4004  -13.2673   19.8916 C   0  0  0  0  0  0  0  0  0  0  0  0
    8.4007  -14.2694   20.3793 C   0  0  1  0  0  0  0  0  0  0  0  0
    8.1322  -14.7557   21.7536 C   0  0  0  0  0  0  0  0  0  0  0  0
    8.3019  -13.9470   22.7001 O   0  0  0  0  0  0  0  0  0  0  0  0
    8.2093  -21.6139   25.6875 N   0  0  0  0  0  0  0  0  0  0  0  0
    6.8928  -21.5693   26.2290 C   0  0  0  0  0  0  0  0  0  0  0  0
    6.5269  -22.3385   27.1994 N   0  0  0  0  0  0  0  0  0  0  0  0
    5.9978  -20.6333   25.6477 N   0  0  0  0  0  0  0  0  0  0  0  0
    6.2938  -20.0651   24.3533 C   0  0  0  0  0  0  0  0  0  0  0  0
    6.6791  -18.6039   24.5583 C   0  0  0  0  0  0  0  0  0  0  0  0
    6.9955  -17.9345   23.2769 C   0  0  0  0  0  0  0  0  0  0  0  0
    7.4936  -16.5319   23.4502 C   0  0  2  0  0  0  0  0  0  0  0  0
    7.7024  -16.0608   22.0502 N   0  0  0  0  0  0  0  0  0  0  0  0
    8.7910  -16.4268   24.1592 C   0  0  0  0  0  0  0  0  0  0  0  0
    9.7746  -15.8056   23.6304 O   0  0  0  0  0  0  0  0  0  0  0  0
    5.5694  -22.3371   27.5702 N   0  0  0  0  0  0  0  0  0  0  0  0
    7.7157  -12.3851   26.6993 C   0  0  0  0  0  0  0  0  0  0  0  0
    8.6740  -12.6853   27.6947 O   0  0  0  0  0  0  0  0  0  0  0  0
    8.9593  -11.8664   28.6254 C   0  0  0  0  0  0  0  0  0  0  0  0
    9.3691  -13.9741   27.6796 C   0  0  0  0  0  0  0  0  0  0  0  0
    8.9849  -14.9227   26.5978 C   0  0  1  0  0  0  0  0  0  0  0  0
    9.6837  -16.2258   26.5209 N   0  0  0  0  0  0  0  0  0  0  0  0
    9.0364  -16.9788   25.4274 C   0  0  0  0  0  0  0  0  0  0  0  0
    9.8654  -17.0276   27.7049 O   0  0  0  0  0  0  0  0  0  0  0  0
    9.1387  -18.0441   27.9112 O   0  0  0  0  0  0  0  0  0  0  0  0
  1  5  1  0
  1  2  1  0
  2  3  1  0
  4  3  1  0
  5  4  1  0
  5  6  1  1
  7  6  2  0
  9 10  2  0
  9  8  1  0
 11  9  1  0
 12 11  1  0
 13 12  1  0
 15 14  1  6
 14 13  1  0
 15 16  1  0
 16  6  1  0
 17 15  1  0
 18 17  2  0
 19 20  1  0
 20 22  1  0
 21 20  2  0
 22 23  1  0
 24 23  1  6
 24 25  1  0
 25 17  1  0
 26 24  1  0
 26 28  1  0
 27 26  2  0
M  END
$$$$
