PRQ.pdb
     RDKit          3D

 28 28  0  0  1  0  0  0  0  0999 V2000
    8.7076  -12.7667   19.0107 N   0  0  0  0  0  0  0  0  0  0  0  0
    7.5937  -12.2295   18.2899 C   0  0  0  0  0  0  0  0  0  0  0  0
    6.3698  -13.0505   18.6660 C   0  0  0  0  0  0  0  0  0  0  0  0
    7.0491  -14.3549   19.1089 C   0  0  0  0  0  0  0  0  0  0  0  0
    8.2225  -13.8162   19.8677 C   0  0  1  0  0  0  0  0  0  0  0  0
    9.2584  -14.8350   20.1608 C   0  0  0  0  0  0  0  0  0  0  0  0
    8.8781  -15.9251   20.6567 O   0  0  0  0  0  0  0  0  0  0  0  0
   16.4983  -13.5383   17.2219 N   0  0  0  0  0  0  0  0  0  0  0  0
   15.7154  -14.5810   16.6494 C   0  0  0  0  0  0  0  0  0  0  0  0
   15.8122  -14.9022   15.4025 N   0  0  0  0  0  0  0  0  0  0  0  0
   14.8189  -15.2541   17.5202 N   0  0  0  0  0  0  0  0  0  0  0  0
   15.2403  -15.5990   18.8579 C   0  0  0  0  0  0  0  0  0  0  0  0
   14.0242  -16.1247   19.6131 C   0  0  0  0  0  0  0  0  0  0  0  0
   12.8885  -15.1778   19.5522 C   0  0  0  0  0  0  0  0  0  0  0  0
   11.6405  -15.7101   20.1884 C   0  0  2  0  0  0  0  0  0  0  0  0
   10.6298  -14.6473   19.9158 N   0  0  0  0  0  0  0  0  0  0  0  0
   11.7286  -15.8819   21.6580 C   0  0  0  0  0  0  0  0  0  0  0  0
   12.0521  -14.9015   22.4109 O   0  0  0  0  0  0  0  0  0  0  0  0
   15.2563  -15.6579   14.9852 N   0  0  0  0  0  0  0  0  0  0  0  0
    9.9052  -18.3723   26.9930 C   0  0  0  0  0  0  0  0  0  0  0  0
    9.1280  -17.3549   26.3930 O   0  0  0  0  0  0  0  0  0  0  0  0
    8.2513  -16.7027   27.0443 C   0  0  0  0  0  0  0  0  0  0  0  0
    9.3231  -17.0183   24.9812 C   0  0  0  0  0  0  0  0  0  0  0  0
   10.2935  -17.8589   24.2265 C   0  0  2  0  0  0  0  0  0  0  0  0
   11.5669  -17.2444   23.7870 N   0  0  0  0  0  0  0  0  0  0  0  0
   11.4692  -17.0929   22.3209 C   0  0  0  0  0  0  0  0  0  0  0  0
   12.8288  -17.8080   24.1961 O   0  0  0  0  0  0  0  0  0  0  0  0
   13.1538  -17.8374   25.4199 O   0  0  0  0  0  0  0  0  0  0  0  0
  1  5  1  0
  1  2  1  0
  2  3  1  0
  4  3  1  0
  5  4  1  0
  5  6  1  6
  7  6  2  0
  9 10  2  0
  9  8  1  0
 11  9  1  0
 12 11  1  0
 13 12  1  0
 15 14  1  1
 14 13  1  0
 15 16  1  0
 16  6  1  0
 17 15  1  0
 18 17  2  0
 19 20  1  0
 20 22  1  0
 21 20  2  0
 22 23  1  0
 24 23  1  1
 24 25  1  0
 25 17  1  0
 26 24  1  0
 26 28  1  0
 27 26  2  0
M  END
$$$$
