PRQ.pdb
     RDKit          3D

 28 28  0  0  1  0  0  0  0  0999 V2000
    8.6661  -15.2562   18.6851 N   0  0  0  0  0  0  0  0  0  0  0  0
    8.4180  -14.6776   17.3996 C   0  0  0  0  0  0  0  0  0  0  0  0
    7.7399  -13.3354   17.6281 C   0  0  0  0  0  0  0  0  0  0  0  0
    7.1342  -13.5756   19.0190 C   0  0  0  0  0  0  0  0  0  0  0  0
    8.2536  -14.3110   19.6890 C   0  0  1  0  0  0  0  0  0  0  0  0
    7.8577  -14.9663   20.9581 C   0  0  0  0  0  0  0  0  0  0  0  0
    7.4233  -14.2323   21.8808 O   0  0  0  0  0  0  0  0  0  0  0  0
    6.2290  -21.1724   26.0113 N   0  0  0  0  0  0  0  0  0  0  0  0
    7.0765  -21.7622   25.0305 C   0  0  0  0  0  0  0  0  0  0  0  0
    8.1087  -22.4672   25.3543 N   0  0  0  0  0  0  0  0  0  0  0  0
    6.7298  -21.5368   23.6725 N   0  0  0  0  0  0  0  0  0  0  0  0
    6.3059  -20.2230   23.2482 C   0  0  0  0  0  0  0  0  0  0  0  0
    7.4825  -19.2692   23.4255 C   0  0  0  0  0  0  0  0  0  0  0  0
    7.7098  -18.4469   22.2163 C   0  0  0  0  0  0  0  0  0  0  0  0
    7.4439  -16.9885   22.4349 C   0  0  2  0  0  0  0  0  0  0  0  0
    7.9423  -16.3516   21.1813 N   0  0  0  0  0  0  0  0  0  0  0  0
    8.1897  -16.3941   23.5695 C   0  0  0  0  0  0  0  0  0  0  0  0
    9.4481  -16.1885   23.4865 O   0  0  0  0  0  0  0  0  0  0  0  0
    8.6974  -22.9331   24.6539 N   0  0  0  0  0  0  0  0  0  0  0  0
    5.7523  -11.6835   26.3043 C   0  0  0  0  0  0  0  0  0  0  0  0
    6.8559  -11.8418   27.1739 O   0  0  0  0  0  0  0  0  0  0  0  0
    7.0943  -11.0227   28.1175 C   0  0  0  0  0  0  0  0  0  0  0  0
    7.7639  -12.9786   27.0081 C   0  0  0  0  0  0  0  0  0  0  0  0
    7.3922  -13.9790   25.9694 C   0  0  1  0  0  0  0  0  0  0  0  0
    8.2690  -15.1567   25.7781 N   0  0  0  0  0  0  0  0  0  0  0  0
    7.5948  -16.0178   24.7852 C   0  0  0  0  0  0  0  0  0  0  0  0
    8.7476  -15.9028   26.9147 O   0  0  0  0  0  0  0  0  0  0  0  0
    8.1198  -16.9233   27.3250 O   0  0  0  0  0  0  0  0  0  0  0  0
  1  5  1  0
  1  2  1  0
  2  3  1  0
  4  3  1  0
  5  4  1  0
  5  6  1  1
  7  6  2  0
  9 10  2  0
  9  8  1  0
 11  9  1  0
 12 11  1  0
 13 12  1  0
 15 14  1  6
 14 13  1  0
 15 16  1  0
 16  6  1  0
 17 15  1  0
 18 17  2  0
 19 20  1  0
 20 22  1  0
 21 20  2  0
 22 23  1  0
 24 23  1  6
 24 25  1  0
 25 17  1  0
 26 24  1  0
 26 28  1  0
 27 26  2  0
M  END
$$$$
