PRQ.pdb
     RDKit          3D

 28 28  0  0  1  0  0  0  0  0999 V2000
    8.1603  -19.9668   22.6374 N   0  0  0  0  0  0  0  0  0  0  0  0
    6.9562  -20.7222   22.4685 C   0  0  0  0  0  0  0  0  0  0  0  0
    6.7407  -20.9066   20.9742 C   0  0  0  0  0  0  0  0  0  0  0  0
    7.5400  -19.7090   20.4393 C   0  0  0  0  0  0  0  0  0  0  0  0
    8.7378  -19.7479   21.3374 C   0  0  1  0  0  0  0  0  0  0  0  0
    9.5618  -18.5171   21.2816 C   0  0  0  0  0  0  0  0  0  0  0  0
   10.7650  -18.6378   20.9401 O   0  0  0  0  0  0  0  0  0  0  0  0
    7.9977  -14.6386   16.5806 N   0  0  0  0  0  0  0  0  0  0  0  0
    7.7006  -13.4883   17.3659 C   0  0  0  0  0  0  0  0  0  0  0  0
    8.2091  -12.3311   17.1023 N   0  0  0  0  0  0  0  0  0  0  0  0
    6.8134  -13.6761   18.4580 N   0  0  0  0  0  0  0  0  0  0  0  0
    7.3264  -13.6767   19.8080 C   0  0  0  0  0  0  0  0  0  0  0  0
    8.3625  -14.7904   19.9168 C   0  0  0  0  0  0  0  0  0  0  0  0
    8.8954  -14.9122   21.2919 C   0  0  0  0  0  0  0  0  0  0  0  0
    9.9073  -16.0077   21.4387 C   0  0  2  0  0  0  0  0  0  0  0  0
    9.0728  -17.2352   21.5878 N   0  0  0  0  0  0  0  0  0  0  0  0
   10.7611  -15.8941   22.6450 C   0  0  0  0  0  0  0  0  0  0  0  0
   10.2388  -15.8167   23.8086 O   0  0  0  0  0  0  0  0  0  0  0  0
    8.1364  -11.5384   17.7509 N   0  0  0  0  0  0  0  0  0  0  0  0
   12.5597  -20.2670   25.5140 C   0  0  0  0  0  0  0  0  0  0  0  0
   12.5450  -19.0661   26.2601 O   0  0  0  0  0  0  0  0  0  0  0  0
   12.0648  -19.0085   27.4366 C   0  0  0  0  0  0  0  0  0  0  0  0
   13.0989  -17.8382   25.6857 C   0  0  0  0  0  0  0  0  0  0  0  0
   12.4438  -17.3299   24.4486 C   0  0  1  0  0  0  0  0  0  0  0  0
   13.0047  -16.1243   23.7974 N   0  0  0  0  0  0  0  0  0  0  0  0
   12.1651  -15.8666   22.6098 C   0  0  0  0  0  0  0  0  0  0  0  0
   14.4129  -16.0434   23.5002 O   0  0  0  0  0  0  0  0  0  0  0  0
   14.8157  -15.9989   22.3004 O   0  0  0  0  0  0  0  0  0  0  0  0
  1  5  1  0
  1  2  1  0
  2  3  1  0
  4  3  1  0
  5  4  1  0
  5  6  1  1
  7  6  2  0
  9 10  2  0
  9  8  1  0
 11  9  1  0
 12 11  1  0
 13 12  1  0
 15 14  1  1
 14 13  1  0
 15 16  1  0
 16  6  1  0
 17 15  1  0
 18 17  2  0
 19 20  1  0
 20 22  1  0
 21 20  2  0
 22 23  1  0
 24 23  1  1
 24 25  1  0
 25 17  1  0
 26 24  1  0
 26 28  1  0
 27 26  2  0
M  END
$$$$
