PRQ.pdb
     RDKit          3D

 28 28  0  0  1  0  0  0  0  0999 V2000
    8.6517  -14.8888   19.0534 N   0  0  0  0  0  0  0  0  0  0  0  0
    8.4417  -14.2546   17.7874 C   0  0  0  0  0  0  0  0  0  0  0  0
    8.1200  -12.7929   18.0587 C   0  0  0  0  0  0  0  0  0  0  0  0
    7.5916  -12.8983   19.4971 C   0  0  0  0  0  0  0  0  0  0  0  0
    8.5576  -13.8835   20.0791 C   0  0  1  0  0  0  0  0  0  0  0  0
    8.1246  -14.4405   21.3826 C   0  0  0  0  0  0  0  0  0  0  0  0
    8.0821  -13.6575   22.3644 O   0  0  0  0  0  0  0  0  0  0  0  0
    5.9454  -22.4297   22.0595 N   0  0  0  0  0  0  0  0  0  0  0  0
    6.9259  -21.6845   22.7747 C   0  0  0  0  0  0  0  0  0  0  0  0
    8.1899  -21.8320   22.5559 N   0  0  0  0  0  0  0  0  0  0  0  0
    6.4442  -20.7667   23.7446 N   0  0  0  0  0  0  0  0  0  0  0  0
    5.5592  -19.6978   23.3445 C   0  0  0  0  0  0  0  0  0  0  0  0
    6.2117  -18.3761   23.7354 C   0  0  0  0  0  0  0  0  0  0  0  0
    6.6284  -17.5970   22.5482 C   0  0  0  0  0  0  0  0  0  0  0  0
    7.3005  -16.3038   22.8961 C   0  0  2  0  0  0  0  0  0  0  0  0
    7.7629  -15.7851   21.5760 N   0  0  0  0  0  0  0  0  0  0  0  0
    8.4921  -16.4483   23.7658 C   0  0  0  0  0  0  0  0  0  0  0  0
    9.5999  -16.8704   23.2892 O   0  0  0  0  0  0  0  0  0  0  0  0
    8.9016  -21.2903   23.0603 N   0  0  0  0  0  0  0  0  0  0  0  0
    9.8217  -12.8007   28.5783 C   0  0  0  0  0  0  0  0  0  0  0  0
   10.5964  -13.9283   28.9354 O   0  0  0  0  0  0  0  0  0  0  0  0
   11.2575  -13.9764   30.0210 C   0  0  0  0  0  0  0  0  0  0  0  0
   10.6514  -15.0920   28.0480 C   0  0  0  0  0  0  0  0  0  0  0  0
    9.6309  -15.1496   26.9650 C   0  0  1  0  0  0  0  0  0  0  0  0
    9.7123  -16.2487   25.9763 N   0  0  0  0  0  0  0  0  0  0  0  0
    8.5020  -16.1407   25.1364 C   0  0  0  0  0  0  0  0  0  0  0  0
    9.9605  -17.6016   26.4075 O   0  0  0  0  0  0  0  0  0  0  0  0
   11.1458  -18.0283   26.5371 O   0  0  0  0  0  0  0  0  0  0  0  0
  1  5  1  0
  1  2  1  0
  2  3  1  0
  4  3  1  0
  5  4  1  0
  5  6  1  1
  7  6  2  0
  9 10  2  0
  9  8  1  0
 11  9  1  0
 12 11  1  0
 13 12  1  0
 15 14  1  6
 14 13  1  0
 15 16  1  0
 16  6  1  0
 17 15  1  0
 18 17  2  0
 19 20  1  0
 20 22  1  0
 21 20  2  0
 22 23  1  0
 24 23  1  6
 24 25  1  0
 25 17  1  0
 26 24  1  0
 26 28  1  0
 27 26  2  0
M  END
$$$$
