PRQ.pdb
     RDKit          3D

 28 28  0  0  1  0  0  0  0  0999 V2000
    8.0078  -19.6937   20.6590 N   0  0  0  0  0  0  0  0  0  0  0  0
    7.4035  -20.2455   19.4846 C   0  0  0  0  0  0  0  0  0  0  0  0
    8.1425  -19.6771   18.2828 C   0  0  0  0  0  0  0  0  0  0  0  0
    8.7055  -18.3884   18.9004 C   0  0  0  0  0  0  0  0  0  0  0  0
    9.1255  -18.8845   20.2496 C   0  0  1  0  0  0  0  0  0  0  0  0
    9.4252  -17.7998   21.2142 C   0  0  0  0  0  0  0  0  0  0  0  0
   10.6302  -17.6004   21.5092 O   0  0  0  0  0  0  0  0  0  0  0  0
    9.8661  -12.9984   18.2995 N   0  0  0  0  0  0  0  0  0  0  0  0
    8.4663  -12.7497   18.3815 C   0  0  0  0  0  0  0  0  0  0  0  0
    7.8976  -11.8133   17.6980 N   0  0  0  0  0  0  0  0  0  0  0  0
    7.7223  -13.5853   19.2551 N   0  0  0  0  0  0  0  0  0  0  0  0
    8.1801  -13.7980   20.6083 C   0  0  0  0  0  0  0  0  0  0  0  0
    7.1466  -14.6612   21.3241 C   0  0  0  0  0  0  0  0  0  0  0  0
    7.5721  -14.9994   22.7005 C   0  0  0  0  0  0  0  0  0  0  0  0
    8.7839  -15.8797   22.7450 C   0  0  2  0  0  0  0  0  0  0  0  0
    8.4421  -16.9908   21.8101 N   0  0  0  0  0  0  0  0  0  0  0  0
    9.0576  -16.4769   24.0737 C   0  0  0  0  0  0  0  0  0  0  0  0
    8.1931  -17.2266   24.6422 O   0  0  0  0  0  0  0  0  0  0  0  0
    6.8844  -11.6492   17.7281 N   0  0  0  0  0  0  0  0  0  0  0  0
   13.7557  -19.7615   24.7367 C   0  0  0  0  0  0  0  0  0  0  0  0
   13.3131  -19.8353   26.0775 O   0  0  0  0  0  0  0  0  0  0  0  0
   13.8391  -20.6312   26.9189 C   0  0  0  0  0  0  0  0  0  0  0  0
   12.2211  -18.9753   26.5384 C   0  0  0  0  0  0  0  0  0  0  0  0
   11.6494  -18.0338   25.5361 C   0  0  1  0  0  0  0  0  0  0  0  0
   10.6146  -17.0726   25.9805 N   0  0  0  0  0  0  0  0  0  0  0  0
   10.2493  -16.2778   24.7903 C   0  0  0  0  0  0  0  0  0  0  0  0
   10.8345  -16.2488   27.1426 O   0  0  0  0  0  0  0  0  0  0  0  0
   10.9714  -14.9951   27.0259 O   0  0  0  0  0  0  0  0  0  0  0  0
  1  5  1  0
  1  2  1  0
  2  3  1  0
  4  3  1  0
  5  4  1  0
  5  6  1  1
  7  6  2  0
  9 10  2  0
  9  8  1  0
 11  9  1  0
 12 11  1  0
 13 12  1  0
 15 14  1  1
 14 13  1  0
 15 16  1  0
 16  6  1  0
 17 15  1  0
 18 17  2  0
 19 20  1  0
 20 22  1  0
 21 20  2  0
 22 23  1  0
 24 23  1  6
 24 25  1  0
 25 17  1  0
 26 24  1  0
 26 28  1  0
 27 26  2  0
M  END
$$$$
