PRQ.pdb
     RDKit          3D

 28 28  0  0  1  0  0  0  0  0999 V2000
    8.3196  -14.8682   18.8012 N   0  0  0  0  0  0  0  0  0  0  0  0
    7.9477  -14.2414   17.5693 C   0  0  0  0  0  0  0  0  0  0  0  0
    7.6407  -12.7834   17.8753 C   0  0  0  0  0  0  0  0  0  0  0  0
    7.2932  -12.8911   19.3675 C   0  0  0  0  0  0  0  0  0  0  0  0
    8.3370  -13.8608   19.8290 C   0  0  1  0  0  0  0  0  0  0  0  0
    8.0742  -14.4193   21.1766 C   0  0  0  0  0  0  0  0  0  0  0  0
    8.1985  -13.6475   22.1603 O   0  0  0  0  0  0  0  0  0  0  0  0
    5.9313  -19.1521   26.1779 N   0  0  0  0  0  0  0  0  0  0  0  0
    6.7484  -20.2707   25.8475 C   0  0  0  0  0  0  0  0  0  0  0  0
    7.4688  -20.8754   26.7321 N   0  0  0  0  0  0  0  0  0  0  0  0
    6.7323  -20.6912   24.4918 N   0  0  0  0  0  0  0  0  0  0  0  0
    6.1581  -19.8344   23.4809 C   0  0  0  0  0  0  0  0  0  0  0  0
    6.6014  -18.4041   23.7698 C   0  0  0  0  0  0  0  0  0  0  0  0
    7.0060  -17.6948   22.5356 C   0  0  0  0  0  0  0  0  0  0  0  0
    7.4265  -16.2774   22.7796 C   0  0  2  0  0  0  0  0  0  0  0  0
    7.6972  -15.7534   21.4093 N   0  0  0  0  0  0  0  0  0  0  0  0
    8.6724  -16.1364   23.5700 C   0  0  0  0  0  0  0  0  0  0  0  0
    9.7058  -15.5799   23.0648 O   0  0  0  0  0  0  0  0  0  0  0  0
    7.9920  -21.7334   26.5213 N   0  0  0  0  0  0  0  0  0  0  0  0
    6.4083  -12.3270   25.6307 C   0  0  0  0  0  0  0  0  0  0  0  0
    7.2856  -12.3452   26.7395 O   0  0  0  0  0  0  0  0  0  0  0  0
    7.2854  -11.4226   27.6152 C   0  0  0  0  0  0  0  0  0  0  0  0
    8.2289  -13.4520   26.9111 C   0  0  0  0  0  0  0  0  0  0  0  0
    8.1764  -14.5334   25.8885 C   0  0  1  0  0  0  0  0  0  0  0  0
    9.1067  -15.6774   26.0227 N   0  0  0  0  0  0  0  0  0  0  0  0
    8.8136  -16.5840   24.8940 C   0  0  0  0  0  0  0  0  0  0  0  0
    9.2216  -16.3818   27.2751 O   0  0  0  0  0  0  0  0  0  0  0  0
    9.6951  -15.8034   28.2974 O   0  0  0  0  0  0  0  0  0  0  0  0
  1  5  1  0
  1  2  1  0
  2  3  1  0
  4  3  1  0
  5  4  1  0
  5  6  1  1
  7  6  2  0
  9 10  2  0
  9  8  1  0
 11  9  1  0
 12 11  1  0
 13 12  1  0
 15 14  1  6
 14 13  1  0
 15 16  1  0
 16  6  1  0
 17 15  1  0
 18 17  2  0
 19 20  1  0
 20 22  1  0
 21 20  2  0
 22 23  1  0
 24 23  1  6
 24 25  1  0
 25 17  1  0
 26 24  1  0
 26 28  1  0
 27 26  2  0
M  END
$$$$
