PRQ.pdb
     RDKit          3D

 28 28  0  0  1  0  0  0  0  0999 V2000
    9.2678  -13.9464   19.3706 N   0  0  0  0  0  0  0  0  0  0  0  0
    8.8715  -13.0746   18.3067 C   0  0  0  0  0  0  0  0  0  0  0  0
    7.8711  -12.0827   18.8801 C   0  0  0  0  0  0  0  0  0  0  0  0
    7.3557  -12.8879   20.0822 C   0  0  0  0  0  0  0  0  0  0  0  0
    8.6308  -13.4956   20.5799 C   0  0  1  0  0  0  0  0  0  0  0  0
    8.4246  -14.5917   21.5561 C   0  0  0  0  0  0  0  0  0  0  0  0
    7.6918  -14.3558   22.5492 O   0  0  0  0  0  0  0  0  0  0  0  0
    8.2320  -21.8531   18.0638 N   0  0  0  0  0  0  0  0  0  0  0  0
    7.0342  -21.0848   18.1208 C   0  0  0  0  0  0  0  0  0  0  0  0
    6.0094  -21.3616   17.3857 N   0  0  0  0  0  0  0  0  0  0  0  0
    7.0210  -19.9946   19.0298 N   0  0  0  0  0  0  0  0  0  0  0  0
    8.1689  -19.7466   19.8704 C   0  0  0  0  0  0  0  0  0  0  0  0
    7.8682  -18.5215   20.7273 C   0  0  0  0  0  0  0  0  0  0  0  0
    8.9848  -18.2065   21.6460 C   0  0  0  0  0  0  0  0  0  0  0  0
    8.7671  -16.9492   22.4316 C   0  0  2  0  0  0  0  0  0  0  0  0
    9.0003  -15.8680   21.4305 N   0  0  0  0  0  0  0  0  0  0  0  0
    9.7267  -16.7486   23.5432 C   0  0  0  0  0  0  0  0  0  0  0  0
   10.9734  -16.5951   23.3088 O   0  0  0  0  0  0  0  0  0  0  0  0
    5.1793  -20.7583   17.3509 N   0  0  0  0  0  0  0  0  0  0  0  0
    9.3482  -13.0223   28.2296 C   0  0  0  0  0  0  0  0  0  0  0  0
   10.2503  -13.9457   28.8063 O   0  0  0  0  0  0  0  0  0  0  0  0
   10.6988  -13.8027   29.9880 C   0  0  0  0  0  0  0  0  0  0  0  0
   10.6928  -15.1143   28.0427 C   0  0  0  0  0  0  0  0  0  0  0  0
    9.9216  -15.4318   26.8089 C   0  0  1  0  0  0  0  0  0  0  0  0
   10.3385  -16.5973   25.9964 N   0  0  0  0  0  0  0  0  0  0  0  0
    9.3572  -16.7085   24.8979 C   0  0  0  0  0  0  0  0  0  0  0  0
   10.6037  -17.8674   26.6242 O   0  0  0  0  0  0  0  0  0  0  0  0
    9.7273  -18.7817   26.6217 O   0  0  0  0  0  0  0  0  0  0  0  0
  1  5  1  0
  1  2  1  0
  2  3  1  0
  4  3  1  0
  5  4  1  0
  5  6  1  1
  7  6  2  0
  9 10  2  0
  9  8  1  0
 11  9  1  0
 12 11  1  0
 13 12  1  0
 15 14  1  6
 14 13  1  0
 15 16  1  0
 16  6  1  0
 17 15  1  0
 18 17  2  0
 19 20  1  0
 20 22  1  0
 21 20  2  0
 22 23  1  0
 24 23  1  6
 24 25  1  0
 25 17  1  0
 26 24  1  0
 26 28  1  0
 27 26  2  0
M  END
$$$$
