CMD.pdb
     RDKit          3D

 23 22  0  0  1  0  0  0  0  0999 V2000
    6.3575  -17.1707   19.7930 N   0  0  0  0  0  0  0  0  0  0  0  0
    6.1065  -17.5023   21.1880 C   0  0  1  0  0  0  0  0  0  0  0  0
    6.1689  -18.9631   21.4772 C   0  0  0  0  0  0  0  0  0  0  0  0
    5.8864  -19.2743   23.2238 S   0  0  0  0  0  0  0  0  0  0  0  0
    7.0474  -16.6799   22.0020 C   0  0  0  0  0  0  0  0  0  0  0  0
    8.2518  -16.5709   21.6080 O   0  0  0  0  0  0  0  0  0  0  0  0
    7.2605  -10.9261   26.8768 C   0  0  0  0  0  0  0  0  0  0  0  0
    6.6836  -12.6301   26.9633 S   0  0  0  0  0  0  0  0  0  0  0  0
    7.7032  -13.7257   25.9571 C   0  0  0  0  0  0  0  0  0  0  0  0
    6.8081  -14.4924   25.0006 C   0  0  0  0  0  0  0  0  0  0  0  0
    7.6368  -15.3252   24.0488 C   0  0  2  0  0  0  0  0  0  0  0  0
    6.6808  -16.0178   23.1834 N   0  0  0  0  0  0  0  0  0  0  0  0
    8.4066  -16.3126   24.8339 C   0  0  0  0  0  0  0  0  0  0  0  0
    7.7649  -17.1882   25.4794 O   0  0  0  0  0  0  0  0  0  0  0  0
    9.8148  -16.3462   24.9096 N   0  0  0  0  0  0  0  0  0  0  0  0
   10.4648  -17.4638   25.5334 C   0  0  1  0  0  0  0  0  0  0  0  0
   11.7272  -17.8748   24.7749 C   0  0  0  0  0  0  0  0  0  0  0  0
   12.5242  -16.6445   24.5670 C   0  0  0  0  0  0  0  0  0  0  0  0
   12.3155  -15.9808   23.5041 O   0  0  0  0  0  0  0  0  0  0  0  0
   10.7954  -17.1913   26.9548 C   0  0  0  0  0  0  0  0  0  0  0  0
   11.4233  -18.1709   27.7354 O   0  0  0  0  0  0  0  0  0  0  0  0
   13.4785  -16.1684   25.4460 O   0  0  0  0  0  0  0  0  0  0  0  0
   10.5298  -16.0961   27.4978 O   0  0  0  0  0  0  0  0  0  0  0  0
  2  1  1  6
  3  2  1  0
  3  4  1  0
  5  2  1  0
  5 12  1  0
  6  5  2  0
  7  8  1  0
  8  9  1  0
  9 10  1  0
 11 12  1  0
 11 13  1  0
 11 10  1  1
 13 14  2  0
 15 13  1  0
 15 16  1  0
 16 20  1  0
 16 17  1  6
 18 22  1  0
 18 17  1  0
 19 18  2  0
 20 23  2  0
 20 21  1  0
M  END
$$$$
