CMD.pdb
     RDKit          3D

 23 22  0  0  1  0  0  0  0  0999 V2000
    7.9627  -12.5109   19.7645 N   0  0  0  0  0  0  0  0  0  0  0  0
    7.3099  -13.6803   20.3351 C   0  0  1  0  0  0  0  0  0  0  0  0
    7.2828  -14.8570   19.4208 C   0  0  0  0  0  0  0  0  0  0  0  0
    6.4614  -16.2485   20.2057 S   0  0  0  0  0  0  0  0  0  0  0  0
    7.9686  -13.9438   21.6469 C   0  0  0  0  0  0  0  0  0  0  0  0
    9.2271  -13.7831   21.7350 O   0  0  0  0  0  0  0  0  0  0  0  0
    6.9300  -10.6411   26.7414 C   0  0  0  0  0  0  0  0  0  0  0  0
    7.4945  -12.3188   26.4085 S   0  0  0  0  0  0  0  0  0  0  0  0
    6.3665  -13.1894   25.3032 C   0  0  0  0  0  0  0  0  0  0  0  0
    6.8574  -14.6140   25.1193 C   0  0  0  0  0  0  0  0  0  0  0  0
    7.9384  -14.6718   24.0637 C   0  0  2  0  0  0  0  0  0  0  0  0
    7.2783  -14.3622   22.7945 N   0  0  0  0  0  0  0  0  0  0  0  0
    8.4836  -16.0447   24.0217 C   0  0  0  0  0  0  0  0  0  0  0  0
    8.0877  -16.8126   23.1005 O   0  0  0  0  0  0  0  0  0  0  0  0
    9.4219  -16.5574   24.9418 N   0  0  0  0  0  0  0  0  0  0  0  0
   10.5324  -17.3319   24.4648 C   0  0  1  0  0  0  0  0  0  0  0  0
   11.4143  -16.5229   23.5132 C   0  0  0  0  0  0  0  0  0  0  0  0
   12.5528  -17.3919   23.1378 C   0  0  0  0  0  0  0  0  0  0  0  0
   12.9976  -18.1921   24.0185 O   0  0  0  0  0  0  0  0  0  0  0  0
   11.3525  -17.8712   25.5786 C   0  0  0  0  0  0  0  0  0  0  0  0
   11.7698  -17.0322   26.6204 O   0  0  0  0  0  0  0  0  0  0  0  0
   13.1653  -17.3932   21.8989 O   0  0  0  0  0  0  0  0  0  0  0  0
   11.6951  -19.0733   25.6264 O   0  0  0  0  0  0  0  0  0  0  0  0
  2  1  1  6
  3  2  1  0
  3  4  1  0
  5  2  1  0
  5 12  1  0
  6  5  2  0
  7  8  1  0
  8  9  1  0
  9 10  1  0
 11 12  1  0
 11 13  1  0
 11 10  1  1
 13 14  2  0
 15 13  1  0
 15 16  1  0
 16 20  1  0
 16 17  1  6
 18 22  1  0
 18 17  1  0
 19 18  2  0
 20 23  2  0
 20 21  1  0
M  END
$$$$
