CMD.pdb
     RDKit          3D

 23 22  0  0  1  0  0  0  0  0999 V2000
    8.1698  -13.3856   18.7136 N   0  0  0  0  0  0  0  0  0  0  0  0
    7.6529  -14.4654   19.5418 C   0  0  1  0  0  0  0  0  0  0  0  0
    7.8508  -15.8199   18.9524 C   0  0  0  0  0  0  0  0  0  0  0  0
    6.4574  -16.2652   17.9095 S   0  0  0  0  0  0  0  0  0  0  0  0
    8.2562  -14.2965   20.8952 C   0  0  0  0  0  0  0  0  0  0  0  0
    9.5088  -14.0922   20.9780 O   0  0  0  0  0  0  0  0  0  0  0  0
    6.9019  -11.9907   28.2341 C   0  0  0  0  0  0  0  0  0  0  0  0
    6.2557  -12.5101   26.6351 S   0  0  0  0  0  0  0  0  0  0  0  0
    7.4523  -13.5121   25.7316 C   0  0  0  0  0  0  0  0  0  0  0  0
    6.9729  -13.6832   24.3016 C   0  0  0  0  0  0  0  0  0  0  0  0
    8.1092  -14.1299   23.4097 C   0  0  2  0  0  0  0  0  0  0  0  0
    7.5200  -14.3518   22.0882 N   0  0  0  0  0  0  0  0  0  0  0  0
    8.6499  -15.4007   23.9355 C   0  0  0  0  0  0  0  0  0  0  0  0
    8.0151  -16.4639   23.6871 O   0  0  0  0  0  0  0  0  0  0  0  0
    9.8328  -15.5085   24.6964 N   0  0  0  0  0  0  0  0  0  0  0  0
   10.3897  -16.8047   24.9615 C   0  0  1  0  0  0  0  0  0  0  0  0
   11.8522  -16.8883   24.5235 C   0  0  0  0  0  0  0  0  0  0  0  0
   12.3297  -18.2453   24.8740 C   0  0  0  0  0  0  0  0  0  0  0  0
   12.6450  -18.4634   26.0852 O   0  0  0  0  0  0  0  0  0  0  0  0
   10.2686  -17.1789   26.3931 C   0  0  0  0  0  0  0  0  0  0  0  0
    9.5866  -16.3433   27.2874 O   0  0  0  0  0  0  0  0  0  0  0  0
   12.4574  -19.2894   23.9777 O   0  0  0  0  0  0  0  0  0  0  0  0
   10.7628  -18.2355   26.8450 O   0  0  0  0  0  0  0  0  0  0  0  0
  2  1  1  6
  3  2  1  0
  3  4  1  0
  5  2  1  0
  5 12  1  0
  6  5  2  0
  7  8  1  0
  8  9  1  0
  9 10  1  0
 11 12  1  0
 11 13  1  0
 11 10  1  1
 13 14  2  0
 15 13  1  0
 15 16  1  0
 16 20  1  0
 16 17  1  1
 18 22  1  0
 18 17  1  0
 19 18  2  0
 20 23  2  0
 20 21  1  0
M  END
$$$$
