CMD.pdb
     RDKit          3D

 23 22  0  0  1  0  0  0  0  0999 V2000
    8.6689  -15.5296   18.3576 N   0  0  0  0  0  0  0  0  0  0  0  0
    7.7715  -15.9540   19.4224 C   0  0  1  0  0  0  0  0  0  0  0  0
    7.4309  -17.4043   19.3763 C   0  0  0  0  0  0  0  0  0  0  0  0
    6.3017  -17.8309   20.7068 S   0  0  0  0  0  0  0  0  0  0  0  0
    8.3892  -15.5144   20.7067 C   0  0  0  0  0  0  0  0  0  0  0  0
    9.6447  -15.6551   20.8536 O   0  0  0  0  0  0  0  0  0  0  0  0
    7.0372  -11.8601   27.6170 C   0  0  0  0  0  0  0  0  0  0  0  0
    6.4318  -12.5436   26.0644 S   0  0  0  0  0  0  0  0  0  0  0  0
    7.7229  -13.4530   25.1937 C   0  0  0  0  0  0  0  0  0  0  0  0
    7.2007  -13.8670   23.8299 C   0  0  0  0  0  0  0  0  0  0  0  0
    8.2487  -14.6537   23.0756 C   0  0  2  0  0  0  0  0  0  0  0  0
    7.6629  -14.9536   21.7680 N   0  0  0  0  0  0  0  0  0  0  0  0
    8.5109  -15.9113   23.8060 C   0  0  0  0  0  0  0  0  0  0  0  0
    8.1086  -16.9920   23.2908 O   0  0  0  0  0  0  0  0  0  0  0  0
    9.1851  -15.9881   25.0427 N   0  0  0  0  0  0  0  0  0  0  0  0
   10.2657  -16.9191   25.2045 C   0  0  1  0  0  0  0  0  0  0  0  0
   11.4009  -16.6390   24.2191 C   0  0  0  0  0  0  0  0  0  0  0  0
   12.4617  -17.6358   24.4899 C   0  0  0  0  0  0  0  0  0  0  0  0
   13.4982  -17.2388   25.1078 O   0  0  0  0  0  0  0  0  0  0  0  0
   10.7914  -16.9239   26.5929 C   0  0  0  0  0  0  0  0  0  0  0  0
   11.0857  -18.1347   27.2337 O   0  0  0  0  0  0  0  0  0  0  0  0
   12.4044  -18.9654   24.1175 O   0  0  0  0  0  0  0  0  0  0  0  0
   10.9870  -15.8654   27.2301 O   0  0  0  0  0  0  0  0  0  0  0  0
  2  1  1  6
  3  2  1  0
  3  4  1  0
  5  2  1  0
  5 12  1  0
  6  5  2  0
  7  8  1  0
  8  9  1  0
  9 10  1  0
 11 12  1  0
 11 13  1  0
 11 10  1  1
 13 14  2  0
 15 13  1  0
 15 16  1  0
 16 20  1  0
 16 17  1  6
 18 22  1  0
 18 17  1  0
 19 18  2  0
 20 23  2  0
 20 21  1  0
M  END
$$$$
