CMD.pdb
     RDKit          3D

 23 22  0  0  1  0  0  0  0  0999 V2000
    9.0412  -16.4258   19.6040 N   0  0  0  0  0  0  0  0  0  0  0  0
    8.4119  -16.9205   20.8199 C   0  0  1  0  0  0  0  0  0  0  0  0
    8.6344  -18.3744   21.0609 C   0  0  0  0  0  0  0  0  0  0  0  0
    7.3666  -19.3515   20.2453 S   0  0  0  0  0  0  0  0  0  0  0  0
    8.8744  -16.0414   21.9323 C   0  0  0  0  0  0  0  0  0  0  0  0
   10.0564  -15.5742   21.8828 O   0  0  0  0  0  0  0  0  0  0  0  0
    6.1417  -10.9244   26.5205 C   0  0  0  0  0  0  0  0  0  0  0  0
    6.1179  -12.7211   26.6434 S   0  0  0  0  0  0  0  0  0  0  0  0
    7.6334  -13.4491   25.9912 C   0  0  0  0  0  0  0  0  0  0  0  0
    7.2815  -14.3699   24.8370 C   0  0  0  0  0  0  0  0  0  0  0  0
    8.5314  -14.8158   24.1123 C   0  0  2  0  0  0  0  0  0  0  0  0
    8.0792  -15.6993   23.0364 N   0  0  0  0  0  0  0  0  0  0  0  0
    9.3797  -15.5722   25.0568 C   0  0  0  0  0  0  0  0  0  0  0  0
    9.8046  -14.9728   26.0840 O   0  0  0  0  0  0  0  0  0  0  0  0
    9.7463  -16.9243   24.8907 N   0  0  0  0  0  0  0  0  0  0  0  0
   10.6993  -17.5157   25.7866 C   0  0  1  0  0  0  0  0  0  0  0  0
   12.0386  -16.7791   25.7485 C   0  0  0  0  0  0  0  0  0  0  0  0
   12.7292  -17.2051   24.5101 C   0  0  0  0  0  0  0  0  0  0  0  0
   13.9689  -16.9468   24.4091 O   0  0  0  0  0  0  0  0  0  0  0  0
   10.1915  -17.5696   27.1806 C   0  0  0  0  0  0  0  0  0  0  0  0
   10.9404  -18.2014   28.1823 O   0  0  0  0  0  0  0  0  0  0  0  0
   12.1210  -17.8622   23.4574 O   0  0  0  0  0  0  0  0  0  0  0  0
    9.0955  -17.0619   27.5059 O   0  0  0  0  0  0  0  0  0  0  0  0
  2  1  1  6
  3  2  1  0
  3  4  1  0
  5  2  1  0
  5 12  1  0
  6  5  2  0
  7  8  1  0
  8  9  1  0
  9 10  1  0
 11 12  1  0
 11 13  1  0
 11 10  1  1
 13 14  2  0
 15 13  1  0
 15 16  1  0
 16 20  1  0
 16 17  1  1
 18 22  1  0
 18 17  1  0
 19 18  2  0
 20 23  2  0
 20 21  1  0
M  END
$$$$
