CMD.pdb
     RDKit          3D

 23 22  0  0  1  0  0  0  0  0999 V2000
    8.6022  -16.8247   19.2951 N   0  0  0  0  0  0  0  0  0  0  0  0
    7.5842  -16.5058   20.2856 C   0  0  1  0  0  0  0  0  0  0  0  0
    6.7224  -17.6649   20.6534 C   0  0  0  0  0  0  0  0  0  0  0  0
    7.6285  -18.8244   21.6839 S   0  0  0  0  0  0  0  0  0  0  0  0
    8.2891  -15.8805   21.4415 C   0  0  0  0  0  0  0  0  0  0  0  0
    9.5147  -15.5688   21.3060 O   0  0  0  0  0  0  0  0  0  0  0  0
    6.5887  -11.3247   27.6380 C   0  0  0  0  0  0  0  0  0  0  0  0
    6.1103  -12.5443   26.4020 S   0  0  0  0  0  0  0  0  0  0  0  0
    7.5446  -13.1905   25.5202 C   0  0  0  0  0  0  0  0  0  0  0  0
    7.0737  -14.1817   24.4715 C   0  0  0  0  0  0  0  0  0  0  0  0
    8.2463  -14.7172   23.6814 C   0  0  2  0  0  0  0  0  0  0  0  0
    7.6772  -15.6162   22.6761 N   0  0  0  0  0  0  0  0  0  0  0  0
    9.1220  -15.4798   24.5954 C   0  0  0  0  0  0  0  0  0  0  0  0
    9.6980  -14.8517   25.5274 O   0  0  0  0  0  0  0  0  0  0  0  0
    9.3572  -16.8675   24.4997 N   0  0  0  0  0  0  0  0  0  0  0  0
   10.2512  -17.5007   25.4273 C   0  0  1  0  0  0  0  0  0  0  0  0
   11.6697  -16.9418   25.3113 C   0  0  0  0  0  0  0  0  0  0  0  0
   12.2772  -17.5556   24.1086 C   0  0  0  0  0  0  0  0  0  0  0  0
   12.5244  -16.7955   23.1212 O   0  0  0  0  0  0  0  0  0  0  0  0
    9.7739  -17.3812   26.8280 C   0  0  0  0  0  0  0  0  0  0  0  0
   10.5228  -17.9263   27.8794 O   0  0  0  0  0  0  0  0  0  0  0  0
   12.5929  -18.8953   23.9843 O   0  0  0  0  0  0  0  0  0  0  0  0
    8.7043  -16.7998   27.1155 O   0  0  0  0  0  0  0  0  0  0  0  0
  2  1  1  6
  3  2  1  0
  3  4  1  0
  5  2  1  0
  5 12  1  0
  6  5  2  0
  7  8  1  0
  8  9  1  0
  9 10  1  0
 11 12  1  0
 11 13  1  0
 11 10  1  1
 13 14  2  0
 15 13  1  0
 15 16  1  0
 16 20  1  0
 16 17  1  1
 18 22  1  0
 18 17  1  0
 19 18  2  0
 20 23  2  0
 20 21  1  0
M  END
$$$$
