ANA.pdb
     RDKit          3D

 19 18  0  0  1  0  0  0  0  0999 V2000
   15.5606  -13.4348  -15.0289 C   0  0  0  0  0  0  0  0  0  0  0  0
   16.7407  -12.5202  -15.2123 C   0  0  2  0  0  0  0  0  0  0  0  0
   17.8464  -13.0710  -14.4214 N   0  0  0  0  0  0  0  0  0  0  0  0
   16.4226  -11.1773  -14.6601 C   0  0  0  0  0  0  0  0  0  0  0  0
   15.5111  -10.5049  -15.1942 O   0  0  0  0  0  0  0  0  0  0  0  0
   16.5201   -6.8422  -11.6053 N   0  0  0  0  0  0  0  0  0  0  0  0
   16.7994   -8.0294  -10.8893 C   0  0  0  0  0  0  0  0  0  0  0  0
   16.8644   -7.9795   -9.6342 O   0  0  0  0  0  0  0  0  0  0  0  0
   17.0181   -9.3223  -11.5314 C   0  0  0  0  0  0  0  0  0  0  0  0
   16.9290   -9.3359  -13.0226 C   0  0  2  0  0  0  0  0  0  0  0  0
   17.1302  -10.6386  -13.5388 N   0  0  0  0  0  0  0  0  0  0  0  0
   17.7645   -8.2869  -13.6416 C   0  0  0  0  0  0  0  0  0  0  0  0
   18.9920   -8.3083  -13.3451 O   0  0  0  0  0  0  0  0  0  0  0  0
   17.8482   -6.2434  -16.6642 C   0  0  0  0  0  0  0  0  0  0  0  0
   18.1278   -6.3414  -15.2080 C   0  0  2  0  0  0  0  0  0  0  0  0
   17.2803   -7.2925  -14.5192 N   0  0  0  0  0  0  0  0  0  0  0  0
   18.0536   -4.9925  -14.5842 C   0  0  0  0  0  0  0  0  0  0  0  0
   18.8145   -4.1022  -15.0282 O   0  0  0  0  0  0  0  0  0  0  0  0
   17.1974   -4.6983  -13.5604 O   0  0  0  0  0  0  0  0  0  0  0  0
  2  1  1  1
  2  3  1  0
  2  4  1  0
  4  5  2  0
  7  6  1  0
  7  9  1  0
  8  7  2  0
 10  9  1  1
 11  4  1  0
 11 10  1  0
 12 10  1  0
 12 16  1  0
 13 12  2  0
 15 16  1  0
 15 14  1  6
 17 15  1  0
 17 19  1  0
 18 17  2  0
M  END
$$$$
