ANA.pdb
     RDKit          3D

 19 18  0  0  1  0  0  0  0  0999 V2000
   20.8737  -10.6069  -20.4864 C   0  0  0  0  0  0  0  0  0  0  0  0
   21.7885  -10.1367  -19.3889 C   0  0  2  0  0  0  0  0  0  0  0  0
   22.2206  -11.3236  -18.6430 N   0  0  0  0  0  0  0  0  0  0  0  0
   21.0343   -9.2681  -18.4475 C   0  0  0  0  0  0  0  0  0  0  0  0
   20.1785   -8.4784  -18.9081 O   0  0  0  0  0  0  0  0  0  0  0  0
   18.8846  -11.6033  -15.6259 N   0  0  0  0  0  0  0  0  0  0  0  0
   18.8007  -10.1922  -15.5833 C   0  0  0  0  0  0  0  0  0  0  0  0
   17.7538   -9.6341  -16.0010 O   0  0  0  0  0  0  0  0  0  0  0  0
   19.8713   -9.3386  -15.0763 C   0  0  0  0  0  0  0  0  0  0  0  0
   20.5815   -8.5060  -16.0932 C   0  0  2  0  0  0  0  0  0  0  0  0
   21.2628   -9.3135  -17.0355 N   0  0  0  0  0  0  0  0  0  0  0  0
   21.4041   -7.4477  -15.4726 C   0  0  0  0  0  0  0  0  0  0  0  0
   22.4845   -7.8260  -14.9390 O   0  0  0  0  0  0  0  0  0  0  0  0
   21.4588   -3.6610  -15.3139 C   0  0  0  0  0  0  0  0  0  0  0  0
   21.9576   -5.0282  -15.0140 C   0  0  2  0  0  0  0  0  0  0  0  0
   21.0588   -6.0790  -15.4443 N   0  0  0  0  0  0  0  0  0  0  0  0
   22.2806   -5.1454  -13.5662 C   0  0  0  0  0  0  0  0  0  0  0  0
   21.5157   -5.8337  -12.8521 O   0  0  0  0  0  0  0  0  0  0  0  0
   23.3655   -4.5371  -12.9998 O   0  0  0  0  0  0  0  0  0  0  0  0
  2  1  1  6
  2  3  1  0
  2  4  1  0
  4  5  2  0
  7  6  1  0
  7  9  1  0
  8  7  2  0
 10  9  1  1
 11  4  1  0
 11 10  1  0
 12 10  1  0
 12 16  1  0
 13 12  2  0
 15 16  1  0
 15 14  1  1
 17 15  1  0
 17 19  1  0
 18 17  2  0
M  END
$$$$
