ANA.pdb
     RDKit          3D

 19 18  0  0  1  0  0  0  0  0999 V2000
   20.2340  -10.4841  -17.2308 C   0  0  0  0  0  0  0  0  0  0  0  0
   19.8770   -9.1375  -17.7980 C   0  0  2  0  0  0  0  0  0  0  0  0
   20.9730   -8.7335  -18.6853 N   0  0  0  0  0  0  0  0  0  0  0  0
   19.7994   -8.1376  -16.7008 C   0  0  0  0  0  0  0  0  0  0  0  0
   18.8596   -8.2167  -15.8769 O   0  0  0  0  0  0  0  0  0  0  0  0
   20.7965   -4.0434  -13.5275 N   0  0  0  0  0  0  0  0  0  0  0  0
   21.8505   -4.9723  -13.6900 C   0  0  0  0  0  0  0  0  0  0  0  0
   22.8515   -4.8921  -12.9327 O   0  0  0  0  0  0  0  0  0  0  0  0
   21.8416   -6.0296  -14.6969 C   0  0  0  0  0  0  0  0  0  0  0  0
   20.6734   -6.0367  -15.6280 C   0  0  2  0  0  0  0  0  0  0  0  0
   20.7684   -7.0931  -16.5655 N   0  0  0  0  0  0  0  0  0  0  0  0
   20.4197   -4.7057  -16.2160 C   0  0  0  0  0  0  0  0  0  0  0  0
   21.2810   -4.2903  -17.0411 O   0  0  0  0  0  0  0  0  0  0  0  0
   17.5757   -2.2742  -16.5544 C   0  0  0  0  0  0  0  0  0  0  0  0
   19.0165   -2.6377  -16.5692 C   0  0  2  0  0  0  0  0  0  0  0  0
   19.3017   -3.8978  -15.9149 N   0  0  0  0  0  0  0  0  0  0  0  0
   19.8263   -1.5292  -15.9951 C   0  0  0  0  0  0  0  0  0  0  0  0
   20.5451   -1.7861  -15.0021 O   0  0  0  0  0  0  0  0  0  0  0  0
   19.8119   -0.2621  -16.5069 O   0  0  0  0  0  0  0  0  0  0  0  0
  2  1  1  1
  2  3  1  0
  2  4  1  0
  4  5  2  0
  7  6  1  0
  7  9  1  0
  8  7  2  0
 10  9  1  6
 11  4  1  0
 11 10  1  0
 12 10  1  0
 12 16  1  0
 13 12  2  0
 15 16  1  0
 15 14  1  1
 17 15  1  0
 17 19  1  0
 18 17  2  0
M  END
$$$$
