ANA.pdb
     RDKit          3D

 19 18  0  0  1  0  0  0  0  0999 V2000
   24.6872  -13.4314  -17.4472 C   0  0  0  0  0  0  0  0  0  0  0  0
   25.0498  -12.2041  -16.6567 C   0  0  2  0  0  0  0  0  0  0  0  0
   24.7655  -12.4935  -15.2471 N   0  0  0  0  0  0  0  0  0  0  0  0
   24.1777  -11.0714  -17.0644 C   0  0  0  0  0  0  0  0  0  0  0  0
   24.3915  -10.5095  -18.1629 O   0  0  0  0  0  0  0  0  0  0  0  0
   20.3039   -7.4958  -17.2169 N   0  0  0  0  0  0  0  0  0  0  0  0
   19.9089   -8.8321  -16.9753 C   0  0  0  0  0  0  0  0  0  0  0  0
   18.6913   -9.1316  -17.0730 O   0  0  0  0  0  0  0  0  0  0  0  0
   20.8443   -9.8939  -16.6158 C   0  0  0  0  0  0  0  0  0  0  0  0
   22.2837   -9.5006  -16.5414 C   0  0  2  0  0  0  0  0  0  0  0  0
   23.1060  -10.6114  -16.2350 N   0  0  0  0  0  0  0  0  0  0  0  0
   22.4954   -8.3162  -15.6846 C   0  0  0  0  0  0  0  0  0  0  0  0
   22.4182   -8.5114  -14.4392 O   0  0  0  0  0  0  0  0  0  0  0  0
   23.5470   -4.6923  -16.0619 C   0  0  0  0  0  0  0  0  0  0  0  0
   23.0764   -5.8879  -15.3154 C   0  0  2  0  0  0  0  0  0  0  0  0
   22.7705   -7.0182  -16.1674 N   0  0  0  0  0  0  0  0  0  0  0  0
   21.9191   -5.5258  -14.4529 C   0  0  0  0  0  0  0  0  0  0  0  0
   20.7720   -5.8140  -14.8653 O   0  0  0  0  0  0  0  0  0  0  0  0
   22.0641   -4.8998  -13.2467 O   0  0  0  0  0  0  0  0  0  0  0  0
  2  1  1  6
  2  3  1  0
  2  4  1  0
  4  5  2  0
  7  6  1  0
  7  9  1  0
  8  7  2  0
 10  9  1  1
 11  4  1  0
 11 10  1  0
 12 10  1  0
 12 16  1  0
 13 12  2  0
 15 16  1  0
 15 14  1  6
 17 15  1  0
 17 19  1  0
 18 17  2  0
M  END
$$$$
