ANA.pdb
     RDKit          3D

 19 18  0  0  1  0  0  0  0  0999 V2000
   13.2930  -10.6432  -15.7680 C   0  0  0  0  0  0  0  0  0  0  0  0
   14.6602  -11.0471  -16.2477 C   0  0  2  0  0  0  0  0  0  0  0  0
   14.8975  -12.4185  -15.7842 N   0  0  0  0  0  0  0  0  0  0  0  0
   15.6881  -10.1785  -15.6163 C   0  0  0  0  0  0  0  0  0  0  0  0
   15.6241   -9.9648  -14.3840 O   0  0  0  0  0  0  0  0  0  0  0  0
   19.9051  -11.4933  -16.5055 N   0  0  0  0  0  0  0  0  0  0  0  0
   19.5535  -10.3895  -15.6941 C   0  0  0  0  0  0  0  0  0  0  0  0
   19.6379  -10.5044  -14.4445 O   0  0  0  0  0  0  0  0  0  0  0  0
   19.0939   -9.1119  -16.2308 C   0  0  0  0  0  0  0  0  0  0  0  0
   17.7103   -8.7001  -15.8463 C   0  0  2  0  0  0  0  0  0  0  0  0
   16.7425   -9.5846  -16.3801 N   0  0  0  0  0  0  0  0  0  0  0  0
   17.4587   -7.2695  -16.1141 C   0  0  0  0  0  0  0  0  0  0  0  0
   17.2762   -6.9550  -17.3236 O   0  0  0  0  0  0  0  0  0  0  0  0
   16.3037   -4.2062  -14.3789 C   0  0  0  0  0  0  0  0  0  0  0  0
   17.1576   -4.8675  -15.3996 C   0  0  2  0  0  0  0  0  0  0  0  0
   17.4129   -6.2657  -15.1222 N   0  0  0  0  0  0  0  0  0  0  0  0
   18.4239   -4.1057  -15.5739 C   0  0  0  0  0  0  0  0  0  0  0  0
   18.3392   -2.9075  -15.9288 O   0  0  0  0  0  0  0  0  0  0  0  0
   19.6548   -4.6607  -15.3631 O   0  0  0  0  0  0  0  0  0  0  0  0
  2  1  1  1
  2  3  1  0
  2  4  1  0
  4  5  2  0
  7  6  1  0
  7  9  1  0
  8  7  2  0
 10  9  1  6
 11  4  1  0
 11 10  1  0
 12 10  1  0
 12 16  1  0
 13 12  2  0
 15 16  1  0
 15 14  1  1
 17 15  1  0
 17 19  1  0
 18 17  2  0
M  END
$$$$
