ANA.pdb
     RDKit          3D

 19 18  0  0  1  0  0  0  0  0999 V2000
   17.6714  -11.9261  -17.7230 C   0  0  0  0  0  0  0  0  0  0  0  0
   18.4799  -11.5465  -16.5126 C   0  0  2  0  0  0  0  0  0  0  0  0
   17.7191  -11.9661  -15.3308 N   0  0  0  0  0  0  0  0  0  0  0  0
   18.6218  -10.0681  -16.4502 C   0  0  0  0  0  0  0  0  0  0  0  0
   19.2683   -9.4848  -17.3502 O   0  0  0  0  0  0  0  0  0  0  0  0
   15.6964   -5.9939  -16.6865 N   0  0  0  0  0  0  0  0  0  0  0  0
   15.8936   -7.1533  -15.9009 C   0  0  0  0  0  0  0  0  0  0  0  0
   15.1644   -8.1570  -16.1076 O   0  0  0  0  0  0  0  0  0  0  0  0
   16.9063   -7.2516  -14.8538 C   0  0  0  0  0  0  0  0  0  0  0  0
   18.1930   -7.9012  -15.2465 C   0  0  2  0  0  0  0  0  0  0  0  0
   18.0402   -9.3011  -15.3912 N   0  0  0  0  0  0  0  0  0  0  0  0
   19.3154   -7.4853  -14.3811 C   0  0  0  0  0  0  0  0  0  0  0  0
   19.2814   -7.9022  -13.1894 O   0  0  0  0  0  0  0  0  0  0  0  0
   22.7531   -7.0303  -14.2399 C   0  0  0  0  0  0  0  0  0  0  0  0
   21.4970   -6.2924  -13.9469 C   0  0  2  0  0  0  0  0  0  0  0  0
   20.3907   -6.6721  -14.8008 N   0  0  0  0  0  0  0  0  0  0  0  0
   21.7456   -4.8261  -13.9956 C   0  0  0  0  0  0  0  0  0  0  0  0
   21.3173   -4.1949  -14.9890 O   0  0  0  0  0  0  0  0  0  0  0  0
   22.4144   -4.1571  -13.0092 O   0  0  0  0  0  0  0  0  0  0  0  0
  2  1  1  6
  2  3  1  0
  2  4  1  0
  4  5  2  0
  7  6  1  0
  7  9  1  0
  8  7  2  0
 10  9  1  1
 11  4  1  0
 11 10  1  0
 12 10  1  0
 12 16  1  0
 13 12  2  0
 15 16  1  0
 15 14  1  6
 17 15  1  0
 17 19  1  0
 18 17  2  0
M  END
$$$$
