ANA.pdb
     RDKit          3D

 19 18  0  0  1  0  0  0  0  0999 V2000
   19.5029  -11.9658  -18.9697 C   0  0  0  0  0  0  0  0  0  0  0  0
   20.6056  -11.3184  -18.1775 C   0  0  2  0  0  0  0  0  0  0  0  0
   20.9656  -12.2415  -17.0959 N   0  0  0  0  0  0  0  0  0  0  0  0
   20.1022  -10.0690  -17.5489 C   0  0  0  0  0  0  0  0  0  0  0  0
   19.8021   -9.1011  -18.2847 O   0  0  0  0  0  0  0  0  0  0  0  0
   16.1285   -8.6257  -14.7161 N   0  0  0  0  0  0  0  0  0  0  0  0
   17.2635   -9.4679  -14.7707 C   0  0  0  0  0  0  0  0  0  0  0  0
   17.1252  -10.6454  -15.1904 O   0  0  0  0  0  0  0  0  0  0  0  0
   18.5997   -9.0428  -14.3637 C   0  0  0  0  0  0  0  0  0  0  0  0
   19.5616   -8.7585  -15.4708 C   0  0  2  0  0  0  0  0  0  0  0  0
   19.9536   -9.9480  -16.1307 N   0  0  0  0  0  0  0  0  0  0  0  0
   20.6771   -7.8947  -15.0333 C   0  0  0  0  0  0  0  0  0  0  0  0
   21.5075   -8.4200  -14.2399 O   0  0  0  0  0  0  0  0  0  0  0  0
   22.0885   -4.4615  -15.8004 C   0  0  0  0  0  0  0  0  0  0  0  0
   21.9864   -5.7369  -15.0447 C   0  0  2  0  0  0  0  0  0  0  0  0
   20.8594   -6.5553  -15.4412 N   0  0  0  0  0  0  0  0  0  0  0  0
   21.9732   -5.4617  -13.5824 C   0  0  0  0  0  0  0  0  0  0  0  0
   20.8789   -5.5585  -12.9808 O   0  0  0  0  0  0  0  0  0  0  0  0
   23.0964   -5.1128  -12.8863 O   0  0  0  0  0  0  0  0  0  0  0  0
  2  1  1  6
  2  3  1  0
  2  4  1  0
  4  5  2  0
  7  6  1  0
  7  9  1  0
  8  7  2  0
 10  9  1  1
 11  4  1  0
 11 10  1  0
 12 10  1  0
 12 16  1  0
 13 12  2  0
 15 16  1  0
 15 14  1  6
 17 15  1  0
 17 19  1  0
 18 17  2  0
M  END
$$$$
