ANA.pdb
     RDKit          3D

 19 18  0  0  1  0  0  0  0  0999 V2000
   19.2847  -11.9477  -18.0477 C   0  0  0  0  0  0  0  0  0  0  0  0
   20.3830  -10.9908  -17.6727 C   0  0  2  0  0  0  0  0  0  0  0  0
   21.3748  -11.7465  -16.9000 N   0  0  0  0  0  0  0  0  0  0  0  0
   19.8397   -9.9298  -16.7846 C   0  0  0  0  0  0  0  0  0  0  0  0
   18.9976   -9.1269  -17.2480 O   0  0  0  0  0  0  0  0  0  0  0  0
   18.8540   -6.8386  -12.6358 N   0  0  0  0  0  0  0  0  0  0  0  0
   18.8672   -8.2212  -12.3383 C   0  0  0  0  0  0  0  0  0  0  0  0
   18.4640   -8.6024  -11.2096 O   0  0  0  0  0  0  0  0  0  0  0  0
   19.3268   -9.2406  -13.2771 C   0  0  0  0  0  0  0  0  0  0  0  0
   19.8813   -8.7375  -14.5699 C   0  0  2  0  0  0  0  0  0  0  0  0
   20.2546   -9.8056  -15.4206 N   0  0  0  0  0  0  0  0  0  0  0  0
   20.9237   -7.7106  -14.3685 C   0  0  0  0  0  0  0  0  0  0  0  0
   21.9758   -8.0949  -13.7849 O   0  0  0  0  0  0  0  0  0  0  0  0
   22.2355   -4.7449  -15.9510 C   0  0  0  0  0  0  0  0  0  0  0  0
   21.8780   -5.3925  -14.6622 C   0  0  2  0  0  0  0  0  0  0  0  0
   20.8111   -6.3647  -14.7800 N   0  0  0  0  0  0  0  0  0  0  0  0
   21.5613   -4.3557  -13.6429 C   0  0  0  0  0  0  0  0  0  0  0  0
   20.3556   -4.1593  -13.3661 O   0  0  0  0  0  0  0  0  0  0  0  0
   22.5260   -3.6234  -13.0098 O   0  0  0  0  0  0  0  0  0  0  0  0
  2  1  1  1
  2  3  1  0
  2  4  1  0
  4  5  2  0
  7  6  1  0
  7  9  1  0
  8  7  2  0
 10  9  1  1
 11  4  1  0
 11 10  1  0
 12 10  1  0
 12 16  1  0
 13 12  2  0
 15 16  1  0
 15 14  1  6
 17 15  1  0
 17 19  1  0
 18 17  2  0
M  END
$$$$
