ANA.pdb
     RDKit          3D

 19 18  0  0  1  0  0  0  0  0999 V2000
   16.9416  -21.7872  -18.3507 C   0  0  0  0  0  0  0  0  0  0  0  0
   17.9644  -22.2320  -17.3415 C   0  0  2  0  0  0  0  0  0  0  0  0
   17.2342  -22.7267  -16.1694 N   0  0  0  0  0  0  0  0  0  0  0  0
   18.7740  -21.0649  -16.9030 C   0  0  0  0  0  0  0  0  0  0  0  0
   18.1831  -20.0374  -16.4990 O   0  0  0  0  0  0  0  0  0  0  0  0
   22.8676  -18.0814  -15.3810 N   0  0  0  0  0  0  0  0  0  0  0  0
   23.0023  -19.4566  -15.0793 C   0  0  0  0  0  0  0  0  0  0  0  0
   23.8928  -19.8146  -14.2665 O   0  0  0  0  0  0  0  0  0  0  0  0
   22.1571  -20.4939  -15.6637 C   0  0  0  0  0  0  0  0  0  0  0  0
   21.0266  -20.0146  -16.5146 C   0  0  2  0  0  0  0  0  0  0  0  0
   20.2046  -21.0889  -16.9320 N   0  0  0  0  0  0  0  0  0  0  0  0
   21.4838  -19.1242  -17.6009 C   0  0  0  0  0  0  0  0  0  0  0  0
   21.8672  -19.6938  -18.6609 O   0  0  0  0  0  0  0  0  0  0  0  0
   21.7197  -15.4114  -18.3429 C   0  0  0  0  0  0  0  0  0  0  0  0
   21.9672  -16.8549  -18.5945 C   0  0  2  0  0  0  0  0  0  0  0  0
   21.5146  -17.7149  -17.5208 N   0  0  0  0  0  0  0  0  0  0  0  0
   23.4058  -17.0779  -18.9026 C   0  0  0  0  0  0  0  0  0  0  0  0
   24.1101  -17.6328  -18.0280 O   0  0  0  0  0  0  0  0  0  0  0  0
   23.9740  -16.7037  -20.0879 O   0  0  0  0  0  0  0  0  0  0  0  0
  2  1  1  6
  2  3  1  0
  2  4  1  0
  4  5  2  0
  7  6  1  0
  7  9  1  0
  8  7  2  0
 10  9  1  6
 11  4  1  0
 11 10  1  0
 12 10  1  0
 12 16  1  0
 13 12  2  0
 15 16  1  0
 15 14  1  1
 17 15  1  0
 17 19  1  0
 18 17  2  0
M  END
$$$$
