ANA.pdb
     RDKit          3D

 19 18  0  0  1  0  0  0  0  0999 V2000
   15.0613  -12.6346  -13.3333 C   0  0  0  0  0  0  0  0  0  0  0  0
   14.5227  -11.2302  -13.3443 C   0  0  2  0  0  0  0  0  0  0  0  0
   14.7750  -10.6768  -14.6791 N   0  0  0  0  0  0  0  0  0  0  0  0
   15.2741  -10.3992  -12.3674 C   0  0  0  0  0  0  0  0  0  0  0  0
   15.1481  -10.6416  -11.1452 O   0  0  0  0  0  0  0  0  0  0  0  0
   18.6139   -6.7627  -10.3901 N   0  0  0  0  0  0  0  0  0  0  0  0
   18.8568   -6.9983  -11.7633 C   0  0  0  0  0  0  0  0  0  0  0  0
   19.8632   -6.4689  -12.3006 O   0  0  0  0  0  0  0  0  0  0  0  0
   17.9967   -7.8299  -12.6002 C   0  0  0  0  0  0  0  0  0  0  0  0
   16.8556   -8.4983  -11.9051 C   0  0  2  0  0  0  0  0  0  0  0  0
   16.1328   -9.3349  -12.7892 N   0  0  0  0  0  0  0  0  0  0  0  0
   16.0296   -7.5416  -11.1409 C   0  0  0  0  0  0  0  0  0  0  0  0
   15.2656   -6.8010  -11.8212 O   0  0  0  0  0  0  0  0  0  0  0  0
   14.9744   -6.9158   -7.5845 C   0  0  0  0  0  0  0  0  0  0  0  0
   15.1954   -6.5059   -8.9957 C   0  0  2  0  0  0  0  0  0  0  0  0
   16.0476   -7.4140   -9.7348 N   0  0  0  0  0  0  0  0  0  0  0  0
   15.7114   -5.1111   -9.0450 C   0  0  0  0  0  0  0  0  0  0  0  0
   16.8528   -4.9286   -9.5274 O   0  0  0  0  0  0  0  0  0  0  0  0
   14.9934   -4.0413   -8.5893 O   0  0  0  0  0  0  0  0  0  0  0  0
  2  1  1  6
  2  3  1  0
  2  4  1  0
  4  5  2  0
  7  6  1  0
  7  9  1  0
  8  7  2  0
 10  9  1  6
 11  4  1  0
 11 10  1  0
 12 10  1  0
 12 16  1  0
 13 12  2  0
 15 16  1  0
 15 14  1  1
 17 15  1  0
 17 19  1  0
 18 17  2  0
M  END
$$$$
