AMY.pdb
     RDKit          3D

 26 26  0  0  1  0  0  0  0  0999 V2000
    7.5009  -14.5588   18.4388 C   0  0  0  0  0  0  0  0  0  0  0  0
    7.9673  -15.6869   19.3446 C   0  0  2  0  0  0  0  0  0  0  0  0
    6.8506  -16.5529   19.6551 N   0  0  0  0  0  0  0  0  0  0  0  0
    8.5300  -15.1704   20.6176 C   0  0  0  0  0  0  0  0  0  0  0  0
    9.5939  -14.5119   20.5857 O   0  0  0  0  0  0  0  0  0  0  0  0
    5.8746  -11.4388   26.1960 C   0  0  0  0  0  0  0  0  0  0  0  0
    6.6096  -13.0645   26.0287 S   0  0  0  0  0  0  0  0  0  0  0  0
    6.7478  -13.6062   24.3100 C   0  0  0  0  0  0  0  0  0  0  0  0
    7.3538  -14.9827   24.1742 C   0  0  0  0  0  0  0  0  0  0  0  0
    8.4113  -15.0061   23.1267 C   0  0  2  0  0  0  0  0  0  0  0  0
    7.8648  -15.4248   21.8578 N   0  0  0  0  0  0  0  0  0  0  0  0
    9.5165  -15.9665   23.4676 C   0  0  0  0  0  0  0  0  0  0  0  0
    9.3829  -17.2087   23.3153 O   0  0  0  0  0  0  0  0  0  0  0  0
   11.5827  -16.6167   31.7053 O   0  0  0  0  0  0  0  0  0  0  0  0
   11.3014  -16.2727   30.3679 C   0  0  0  0  0  0  0  0  0  0  0  0
   11.2761  -14.9431   29.9976 C   0  0  0  0  0  0  0  0  0  0  0  0
   10.9997  -14.5878   28.6818 C   0  0  0  0  0  0  0  0  0  0  0  0
   10.7446  -15.5415   27.7136 C   0  0  0  0  0  0  0  0  0  0  0  0
   10.4572  -15.1543   26.3311 C   0  0  0  0  0  0  0  0  0  0  0  0
   11.2347  -15.9382   25.3045 C   0  0  2  0  0  0  0  0  0  0  0  0
   10.7771  -15.5274   23.9814 N   0  0  0  0  0  0  0  0  0  0  0  0
   11.2269  -17.3827   25.5061 C   0  0  0  0  0  0  0  0  0  0  0  0
   12.2338  -18.1071   26.1414 O   0  0  0  0  0  0  0  0  0  0  0  0
   10.7773  -16.8590   28.1140 C   0  0  0  0  0  0  0  0  0  0  0  0
   11.0511  -17.2194   29.4189 C   0  0  0  0  0  0  0  0  0  0  0  0
   10.2563  -18.0503   25.0870 O   0  0  0  0  0  0  0  0  0  0  0  0
  2  1  1  6
  2  3  1  0
  4  2  1  0
  5  4  2  0
  7  6  1  0
  7  8  1  0
  9  8  1  0
 10  9  1  1
 10 11  1  0
 11  4  1  0
 12 10  1  0
 12 21  1  0
 13 12  2  0
 15 14  1  0
 16 15  2  0
 17 16  1  0
 18 17  2  0
 18 24  1  0
 19 18  1  0
 20 22  1  0
 20 21  1  0
 20 19  1  1
 22 23  1  0
 24 25  2  0
 25 15  1  0
 26 22  2  0
M  END
$$$$
