AMY.pdb
     RDKit          3D

 26 26  0  0  1  0  0  0  0  0999 V2000
    8.9535  -18.5982   20.1488 C   0  0  0  0  0  0  0  0  0  0  0  0
    8.6335  -17.1860   19.6862 C   0  0  2  0  0  0  0  0  0  0  0  0
    9.3661  -16.8953   18.4729 N   0  0  0  0  0  0  0  0  0  0  0  0
    9.0015  -16.1770   20.7111 C   0  0  0  0  0  0  0  0  0  0  0  0
   10.1505  -15.6814   20.6868 O   0  0  0  0  0  0  0  0  0  0  0  0
    6.2126  -12.0928   26.8204 C   0  0  0  0  0  0  0  0  0  0  0  0
    5.9266  -12.4913   25.0969 S   0  0  0  0  0  0  0  0  0  0  0  0
    7.4049  -13.1035   24.2564 C   0  0  0  0  0  0  0  0  0  0  0  0
    7.1045  -14.1990   23.2614 C   0  0  0  0  0  0  0  0  0  0  0  0
    8.3564  -14.7788   22.7024 C   0  0  2  0  0  0  0  0  0  0  0  0
    8.0560  -15.7820   21.7087 N   0  0  0  0  0  0  0  0  0  0  0  0
    9.1873  -15.4458   23.7629 C   0  0  0  0  0  0  0  0  0  0  0  0
    9.0677  -16.6715   24.0225 O   0  0  0  0  0  0  0  0  0  0  0  0
   11.2876  -17.5172   31.7439 O   0  0  0  0  0  0  0  0  0  0  0  0
   11.0107  -16.8302   30.5449 C   0  0  0  0  0  0  0  0  0  0  0  0
   11.5590  -15.5811   30.3336 C   0  0  0  0  0  0  0  0  0  0  0  0
   11.2948  -14.8905   29.1557 C   0  0  0  0  0  0  0  0  0  0  0  0
   10.4851  -15.4247   28.1703 C   0  0  0  0  0  0  0  0  0  0  0  0
   10.2166  -14.6883   26.9337 C   0  0  0  0  0  0  0  0  0  0  0  0
   10.7883  -15.3397   25.7001 C   0  0  2  0  0  0  0  0  0  0  0  0
   10.1568  -14.7309   24.5343 N   0  0  0  0  0  0  0  0  0  0  0  0
   10.7377  -16.7974   25.7011 C   0  0  0  0  0  0  0  0  0  0  0  0
   11.8327  -17.6356   25.9023 O   0  0  0  0  0  0  0  0  0  0  0  0
    9.9532  -16.6724   28.4106 C   0  0  0  0  0  0  0  0  0  0  0  0
   10.2112  -17.3642   29.5779 C   0  0  0  0  0  0  0  0  0  0  0  0
    9.6421  -17.3682   25.5084 O   0  0  0  0  0  0  0  0  0  0  0  0
  2  1  1  1
  2  3  1  0
  4  2  1  0
  5  4  2  0
  7  6  1  0
  7  8  1  0
  9  8  1  0
 10  9  1  1
 10 11  1  0
 11  4  1  0
 12 10  1  0
 12 21  1  0
 13 12  2  0
 15 14  1  0
 16 15  2  0
 17 16  1  0
 18 17  2  0
 18 24  1  0
 19 18  1  0
 20 22  1  0
 20 21  1  0
 20 19  1  1
 22 23  1  0
 24 25  2  0
 25 15  1  0
 26 22  2  0
M  END
$$$$
