AMY.pdb
     RDKit          3D

 26 26  0  0  1  0  0  0  0  0999 V2000
    6.7874  -18.4677   19.7265 C   0  0  0  0  0  0  0  0  0  0  0  0
    7.7779  -18.3634   20.8748 C   0  0  2  0  0  0  0  0  0  0  0  0
    7.1767  -18.8855   22.0829 N   0  0  0  0  0  0  0  0  0  0  0  0
    8.1847  -16.9571   21.1217 C   0  0  0  0  0  0  0  0  0  0  0  0
    8.8358  -16.3522   20.2405 O   0  0  0  0  0  0  0  0  0  0  0  0
    6.4512  -13.1856   26.7095 C   0  0  0  0  0  0  0  0  0  0  0  0
    6.3168  -12.2495   25.1874 S   0  0  0  0  0  0  0  0  0  0  0  0
    7.3496  -12.9067   23.8577 C   0  0  0  0  0  0  0  0  0  0  0  0
    7.1636  -14.3904   23.6472 C   0  0  0  0  0  0  0  0  0  0  0  0
    8.0465  -14.8965   22.5608 C   0  0  2  0  0  0  0  0  0  0  0  0
    7.8373  -16.3090   22.3483 N   0  0  0  0  0  0  0  0  0  0  0  0
    9.5017  -14.7124   22.8900 C   0  0  0  0  0  0  0  0  0  0  0  0
   10.0468  -13.5783   22.8640 O   0  0  0  0  0  0  0  0  0  0  0  0
   10.9419  -16.0417   31.0559 O   0  0  0  0  0  0  0  0  0  0  0  0
   10.6644  -15.8319   29.6902 C   0  0  0  0  0  0  0  0  0  0  0  0
   10.8596  -16.8599   28.7898 C   0  0  0  0  0  0  0  0  0  0  0  0
   10.5906  -16.6682   27.4389 C   0  0  0  0  0  0  0  0  0  0  0  0
   10.1249  -15.4579   26.9590 C   0  0  0  0  0  0  0  0  0  0  0  0
    9.8434  -15.2697   25.5346 C   0  0  0  0  0  0  0  0  0  0  0  0
   10.8093  -15.9831   24.6230 C   0  0  2  0  0  0  0  0  0  0  0  0
   10.3470  -15.8087   23.2502 N   0  0  0  0  0  0  0  0  0  0  0  0
   11.0737  -17.3719   24.9814 C   0  0  0  0  0  0  0  0  0  0  0  0
   10.2975  -18.4609   24.5894 O   0  0  0  0  0  0  0  0  0  0  0  0
    9.9402  -14.4521   27.8818 C   0  0  0  0  0  0  0  0  0  0  0  0
   10.2052  -14.6352   29.2249 C   0  0  0  0  0  0  0  0  0  0  0  0
   12.0653  -17.6378   25.6952 O   0  0  0  0  0  0  0  0  0  0  0  0
  2  1  1  6
  2  3  1  0
  4  2  1  0
  5  4  2  0
  7  6  1  0
  7  8  1  0
  9  8  1  0
 10  9  1  1
 10 11  1  0
 11  4  1  0
 12 10  1  0
 12 21  1  0
 13 12  2  0
 15 14  1  0
 16 15  2  0
 17 16  1  0
 18 17  2  0
 18 24  1  0
 19 18  1  0
 20 22  1  0
 20 21  1  0
 20 19  1  1
 22 23  1  0
 24 25  2  0
 25 15  1  0
 26 22  2  0
M  END
$$$$
