YVA.pdb
     RDKit          3D

 25 25  0  0  1  0  0  0  0  0999 V2000
   30.0389  -17.7662  -19.7165 O   0  0  0  0  0  0  0  0  0  0  0  0
   29.0412  -17.7117  -18.7367 C   0  0  0  0  0  0  0  0  0  0  0  0
   28.6928  -18.8215  -17.9967 C   0  0  0  0  0  0  0  0  0  0  0  0
   27.7022  -18.7598  -17.0265 C   0  0  0  0  0  0  0  0  0  0  0  0
   27.0234  -17.5825  -16.7619 C   0  0  0  0  0  0  0  0  0  0  0  0
   25.9605  -17.4995  -15.7267 C   0  0  0  0  0  0  0  0  0  0  0  0
   24.6870  -18.1787  -16.1767 C   0  0  2  0  0  0  0  0  0  0  0  0
   23.9765  -17.3671  -17.1139 N   0  0  0  0  0  0  0  0  0  0  0  0
   23.8711  -18.3659  -14.9029 C   0  0  0  0  0  0  0  0  0  0  0  0
   23.1134  -17.4302  -14.5807 O   0  0  0  0  0  0  0  0  0  0  0  0
   27.3847  -16.4796  -17.5125 C   0  0  0  0  0  0  0  0  0  0  0  0
   28.3691  -16.5369  -18.4779 C   0  0  0  0  0  0  0  0  0  0  0  0
   21.4708  -20.5782  -14.4772 C   0  0  0  0  0  0  0  0  0  0  0  0
   22.2914  -21.0029  -13.2550 C   0  0  1  0  0  0  0  0  0  0  0  0
   22.9823  -22.2888  -13.7626 C   0  0  0  0  0  0  0  0  0  0  0  0
   23.3666  -19.9690  -12.9984 C   0  0  2  0  0  0  0  0  0  0  0  0
   24.0322  -19.5540  -14.2044 N   0  0  0  0  0  0  0  0  0  0  0  0
   24.3463  -20.2428  -11.9846 C   0  0  0  0  0  0  0  0  0  0  0  0
   25.2124  -21.1712  -12.2636 O   0  0  0  0  0  0  0  0  0  0  0  0
   25.6572  -19.1519   -8.6078 C   0  0  0  0  0  0  0  0  0  0  0  0
   25.3975  -20.1500   -9.7173 C   0  0  2  0  0  0  0  0  0  0  0  0
   24.5063  -19.6351  -10.7162 N   0  0  0  0  0  0  0  0  0  0  0  0
   24.9588  -21.4537   -9.1624 C   0  0  0  0  0  0  0  0  0  0  0  0
   23.7767  -21.8686   -9.2663 O   0  0  0  0  0  0  0  0  0  0  0  0
   25.8498  -22.2808   -8.4958 O   0  0  0  0  0  0  0  0  0  0  0  0
  2  1  1  0
  3  2  2  0
  4  3  1  0
  5 11  1  0
  5  4  2  0
  6  7  1  0
  6  5  1  0
  7  8  1  6
  9  7  1  0
 10  9  2  0
 11 12  2  0
 12  2  1  0
 14 16  1  0
 14 13  1  6
 15 14  1  0
 16 17  1  6
 17  9  1  0
 18 22  1  0
 18 16  1  0
 19 18  2  0
 21 20  1  1
 21 23  1  0
 21 22  1  0
 23 25  1  0
 24 23  2  0
M  END
$$$$
