YVA.pdb
     RDKit          3D

 25 25  0  0  1  0  0  0  0  0999 V2000
   29.9617  -27.2502  -16.9458 O   0  0  0  0  0  0  0  0  0  0  0  0
   29.3137  -26.0623  -16.5891 C   0  0  0  0  0  0  0  0  0  0  0  0
   27.9464  -26.0061  -16.4224 C   0  0  0  0  0  0  0  0  0  0  0  0
   27.3108  -24.8241  -16.0685 C   0  0  0  0  0  0  0  0  0  0  0  0
   28.0227  -23.6536  -15.8683 C   0  0  0  0  0  0  0  0  0  0  0  0
   27.3576  -22.3800  -15.4891 C   0  0  0  0  0  0  0  0  0  0  0  0
   26.8063  -21.6557  -16.6961 C   0  0  2  0  0  0  0  0  0  0  0  0
   27.8603  -21.1192  -17.4979 N   0  0  0  0  0  0  0  0  0  0  0  0
   25.9459  -20.5359  -16.1225 C   0  0  0  0  0  0  0  0  0  0  0  0
   26.5423  -19.5078  -15.7472 O   0  0  0  0  0  0  0  0  0  0  0  0
   29.3922  -23.7273  -16.0394 C   0  0  0  0  0  0  0  0  0  0  0  0
   30.0279  -24.9005  -16.3912 C   0  0  0  0  0  0  0  0  0  0  0  0
   21.8390  -18.1434  -16.2622 C   0  0  0  0  0  0  0  0  0  0  0  0
   22.8767  -19.1326  -16.8028 C   0  0  1  0  0  0  0  0  0  0  0  0
   23.9068  -18.1888  -17.4637 C   0  0  0  0  0  0  0  0  0  0  0  0
   23.5575  -19.8198  -15.6387 C   0  0  2  0  0  0  0  0  0  0  0  0
   24.5753  -20.7441  -16.0620 N   0  0  0  0  0  0  0  0  0  0  0  0
   22.7347  -20.4430  -14.6402 C   0  0  0  0  0  0  0  0  0  0  0  0
   22.1895  -21.5747  -14.9748 O   0  0  0  0  0  0  0  0  0  0  0  0
   21.6988  -20.2720  -11.0097 C   0  0  0  0  0  0  0  0  0  0  0  0
   21.5524  -20.7093  -12.4526 C   0  0  2  0  0  0  0  0  0  0  0  0
   22.4358  -19.9976  -13.3302 N   0  0  0  0  0  0  0  0  0  0  0  0
   20.1336  -20.6492  -12.8809 C   0  0  0  0  0  0  0  0  0  0  0  0
   19.6758  -19.7030  -13.5704 O   0  0  0  0  0  0  0  0  0  0  0  0
   19.2406  -21.6509  -12.5323 O   0  0  0  0  0  0  0  0  0  0  0  0
  2  1  1  0
  3  2  2  0
  4  3  1  0
  5 11  1  0
  5  4  2  0
  6  7  1  0
  6  5  1  0
  7  8  1  1
  9  7  1  0
 10  9  2  0
 11 12  2  0
 12  2  1  0
 14 16  1  0
 14 13  1  1
 15 14  1  0
 16 17  1  6
 17  9  1  0
 18 22  1  0
 18 16  1  0
 19 18  2  0
 21 20  1  1
 21 23  1  0
 21 22  1  0
 23 25  1  0
 24 23  2  0
M  END
$$$$
