YVA.pdb
     RDKit          3D

 25 25  0  0  1  0  0  0  0  0999 V2000
   29.0401  -20.0264   -3.5647 O   0  0  0  0  0  0  0  0  0  0  0  0
   28.3923  -19.9346   -4.8017 C   0  0  0  0  0  0  0  0  0  0  0  0
   28.5764  -18.8526   -5.6360 C   0  0  0  0  0  0  0  0  0  0  0  0
   27.9303  -18.7684   -6.8615 C   0  0  0  0  0  0  0  0  0  0  0  0
   27.0751  -19.7665   -7.2966 C   0  0  0  0  0  0  0  0  0  0  0  0
   26.3759  -19.6919   -8.6057 C   0  0  0  0  0  0  0  0  0  0  0  0
   26.7083  -20.8753   -9.4859 C   0  0  2  0  0  0  0  0  0  0  0  0
   28.1213  -21.0139   -9.6467 N   0  0  0  0  0  0  0  0  0  0  0  0
   26.0440  -20.5687  -10.8230 C   0  0  0  0  0  0  0  0  0  0  0  0
   26.5607  -19.6671  -11.5112 O   0  0  0  0  0  0  0  0  0  0  0  0
   26.9017  -20.8439   -6.4485 C   0  0  0  0  0  0  0  0  0  0  0  0
   27.5422  -20.9313   -5.2293 C   0  0  0  0  0  0  0  0  0  0  0  0
   23.8082  -22.3337  -14.6306 C   0  0  0  0  0  0  0  0  0  0  0  0
   24.4855  -22.5097  -13.2677 C   0  0  1  0  0  0  0  0  0  0  0  0
   25.9835  -22.4822  -13.6471 C   0  0  0  0  0  0  0  0  0  0  0  0
   24.2010  -21.2929  -12.4138 C   0  0  2  0  0  0  0  0  0  0  0  0
   24.9236  -21.3103  -11.1699 N   0  0  0  0  0  0  0  0  0  0  0  0
   22.8311  -20.9423  -12.1629 C   0  0  0  0  0  0  0  0  0  0  0  0
   22.2178  -21.6470  -11.2589 O   0  0  0  0  0  0  0  0  0  0  0  0
   20.1128  -18.4493  -13.0306 C   0  0  0  0  0  0  0  0  0  0  0  0
   20.6544  -19.7523  -12.4799 C   0  0  2  0  0  0  0  0  0  0  0  0
   22.0499  -19.9255  -12.7625 N   0  0  0  0  0  0  0  0  0  0  0  0
   19.8243  -20.8986  -12.9237 C   0  0  0  0  0  0  0  0  0  0  0  0
   20.1247  -21.6046  -13.9194 O   0  0  0  0  0  0  0  0  0  0  0  0
   18.6643  -21.2430  -12.2467 O   0  0  0  0  0  0  0  0  0  0  0  0
  2  1  1  0
  3  2  2  0
  4  3  1  0
  5 11  1  0
  5  4  2  0
  6  7  1  0
  6  5  1  0
  7  8  1  6
  9  7  1  0
 10  9  2  0
 11 12  2  0
 12  2  1  0
 14 16  1  0
 14 13  1  6
 15 14  1  0
 16 17  1  1
 17  9  1  0
 18 22  1  0
 18 16  1  0
 19 18  2  0
 21 20  1  6
 21 23  1  0
 21 22  1  0
 23 25  1  0
 24 23  2  0
M  END
$$$$
