YVA.pdb
     RDKit          3D

 25 25  0  0  1  0  0  0  0  0999 V2000
   24.9426  -11.4478  -24.2218 O   0  0  0  0  0  0  0  0  0  0  0  0
   24.2163  -11.2350  -23.0447 C   0  0  0  0  0  0  0  0  0  0  0  0
   24.6059  -10.2951  -22.1144 C   0  0  0  0  0  0  0  0  0  0  0  0
   23.8804  -10.0896  -20.9491 C   0  0  0  0  0  0  0  0  0  0  0  0
   22.7366  -10.8193  -20.6729 C   0  0  0  0  0  0  0  0  0  0  0  0
   21.9485  -10.6116  -19.4303 C   0  0  0  0  0  0  0  0  0  0  0  0
   22.5762  -11.3111  -18.2461 C   0  0  2  0  0  0  0  0  0  0  0  0
   22.5705  -12.7287  -18.4259 N   0  0  0  0  0  0  0  0  0  0  0  0
   21.7107  -10.9184  -17.0545 C   0  0  0  0  0  0  0  0  0  0  0  0
   20.7515  -11.6682  -16.7878 O   0  0  0  0  0  0  0  0  0  0  0  0
   22.3601  -11.7572  -21.6156 C   0  0  0  0  0  0  0  0  0  0  0  0
   23.0787  -11.9645  -22.7753 C   0  0  0  0  0  0  0  0  0  0  0  0
   21.5050   -8.7006  -12.7788 C   0  0  0  0  0  0  0  0  0  0  0  0
   22.3063   -9.1967  -13.9869 C   0  0  1  0  0  0  0  0  0  0  0  0
   22.5920  -10.6660  -13.6020 C   0  0  0  0  0  0  0  0  0  0  0  0
   21.4092   -9.2027  -15.2059 C   0  0  2  0  0  0  0  0  0  0  0  0
   22.0535   -9.7654  -16.3625 N   0  0  0  0  0  0  0  0  0  0  0  0
   20.7535   -7.9794  -15.5749 C   0  0  0  0  0  0  0  0  0  0  0  0
   21.5315   -6.9724  -15.8406 O   0  0  0  0  0  0  0  0  0  0  0  0
   17.5923   -6.5387  -16.9069 C   0  0  0  0  0  0  0  0  0  0  0  0
   18.8547   -6.4312  -16.0766 C   0  0  2  0  0  0  0  0  0  0  0  0
   19.3682   -7.7152  -15.6963 N   0  0  0  0  0  0  0  0  0  0  0  0
   18.6519   -5.5207  -14.9233 C   0  0  0  0  0  0  0  0  0  0  0  0
   18.3685   -5.9408  -13.7729 O   0  0  0  0  0  0  0  0  0  0  0  0
   18.7689   -4.1470  -15.0703 O   0  0  0  0  0  0  0  0  0  0  0  0
  2  1  1  0
  3  2  2  0
  4  3  1  0
  5 11  1  0
  5  4  2  0
  6  7  1  0
  6  5  1  0
  7  8  1  6
  9  7  1  0
 10  9  2  0
 11 12  2  0
 12  2  1  0
 14 16  1  0
 14 13  1  1
 15 14  1  0
 16 17  1  6
 17  9  1  0
 18 22  1  0
 18 16  1  0
 19 18  2  0
 21 20  1  1
 21 23  1  0
 21 22  1  0
 23 25  1  0
 24 23  2  0
M  END
$$$$
