YVA.pdb
     RDKit          3D

 25 25  0  0  1  0  0  0  0  0999 V2000
   15.3341  -15.2071  -14.9604 O   0  0  0  0  0  0  0  0  0  0  0  0
   16.3193  -14.2393  -15.1861 C   0  0  0  0  0  0  0  0  0  0  0  0
   17.6606  -14.5267  -15.0481 C   0  0  0  0  0  0  0  0  0  0  0  0
   18.6321  -13.5614  -15.2737 C   0  0  0  0  0  0  0  0  0  0  0  0
   18.2950  -12.2713  -15.6463 C   0  0  0  0  0  0  0  0  0  0  0  0
   19.3226  -11.2264  -15.8918 C   0  0  0  0  0  0  0  0  0  0  0  0
   19.5145  -10.9663  -17.3686 C   0  0  2  0  0  0  0  0  0  0  0  0
   20.1026  -12.0962  -18.0161 N   0  0  0  0  0  0  0  0  0  0  0  0
   20.4479   -9.7633  -17.4371 C   0  0  0  0  0  0  0  0  0  0  0  0
   21.6531  -10.0010  -17.6478 O   0  0  0  0  0  0  0  0  0  0  0  0
   16.9464  -12.0000  -15.7802 C   0  0  0  0  0  0  0  0  0  0  0  0
   15.9775  -12.9568  -15.5569 C   0  0  0  0  0  0  0  0  0  0  0  0
   20.3965   -7.3275  -19.8195 C   0  0  0  0  0  0  0  0  0  0  0  0
   20.1503   -6.4534  -18.5855 C   0  0  1  0  0  0  0  0  0  0  0  0
   18.6107   -6.3177  -18.5895 C   0  0  0  0  0  0  0  0  0  0  0  0
   20.5444   -7.2267  -17.3456 C   0  0  2  0  0  0  0  0  0  0  0  0
   19.8898   -8.5051  -17.2612 N   0  0  0  0  0  0  0  0  0  0  0  0
   20.4596   -6.5643  -16.0743 C   0  0  0  0  0  0  0  0  0  0  0  0
   19.2601   -6.3189  -15.6373 O   0  0  0  0  0  0  0  0  0  0  0  0
   22.2056   -6.1368  -12.8721 C   0  0  0  0  0  0  0  0  0  0  0  0
   21.2693   -5.5779  -13.9235 C   0  0  2  0  0  0  0  0  0  0  0  0
   21.5068   -6.1423  -15.2205 N   0  0  0  0  0  0  0  0  0  0  0  0
   21.2969   -4.0949  -13.9202 C   0  0  0  0  0  0  0  0  0  0  0  0
   20.9491   -3.4151  -12.9217 O   0  0  0  0  0  0  0  0  0  0  0  0
   21.7145   -3.3873  -15.0371 O   0  0  0  0  0  0  0  0  0  0  0  0
  2  1  1  0
  3  2  2  0
  4  3  1  0
  5 11  1  0
  5  4  2  0
  6  7  1  0
  6  5  1  0
  7  8  1  6
  9  7  1  0
 10  9  2  0
 11 12  2  0
 12  2  1  0
 14 16  1  0
 14 13  1  6
 15 14  1  0
 16 17  1  1
 17  9  1  0
 18 22  1  0
 18 16  1  0
 19 18  2  0
 21 20  1  1
 21 23  1  0
 21 22  1  0
 23 25  1  0
 24 23  2  0
M  END
$$$$
