NHP.pdb
     RDKit          3D

 26 27  0  0  1  0  0  0  0  0999 V2000
   14.4311  -15.7162   17.7932 N   0  0  0  0  0  0  0  0  0  0  0  0
   14.2200  -15.2000   19.0812 C   0  0  0  0  0  0  0  0  0  0  0  0
   15.1015  -15.3311   19.9649 O   0  0  0  0  0  0  0  0  0  0  0  0
   12.9652  -14.4962   19.4282 C   0  0  0  0  0  0  0  0  0  0  0  0
   12.3805  -15.2327   20.6267 C   0  0  2  0  0  0  0  0  0  0  0  0
   11.8932  -16.5039   20.1203 N   0  0  0  0  0  0  0  0  0  0  0  0
   11.2692  -14.5087   21.2674 C   0  0  0  0  0  0  0  0  0  0  0  0
   11.4881  -13.3772   21.8172 O   0  0  0  0  0  0  0  0  0  0  0  0
    9.9637  -15.0313   21.2908 N   0  0  0  0  0  0  0  0  0  0  0  0
    8.8482  -14.3107   21.9199 C   0  0  1  0  0  0  0  0  0  0  0  0
    7.5927  -14.5442   21.0640 C   0  0  0  0  0  0  0  0  0  0  0  0
    7.8537  -14.1233   19.6704 C   0  0  0  0  0  0  0  0  0  0  0  0
    7.9793  -12.8496   19.1755 C   0  0  0  0  0  0  0  0  0  0  0  0
    8.2218  -12.9333   17.8538 N   0  0  0  0  0  0  0  0  0  0  0  0
    8.2488  -14.2268   17.5117 C   0  0  0  0  0  0  0  0  0  0  0  0
    8.0243  -14.9556   18.6161 N   0  0  0  0  0  0  0  0  0  0  0  0
    8.5757  -14.9374   23.2331 C   0  0  0  0  0  0  0  0  0  0  0  0
    9.1574  -16.0607   23.4539 O   0  0  0  0  0  0  0  0  0  0  0  0
    7.7314  -14.3531   24.2022 N   0  0  0  0  0  0  0  0  0  0  0  0
    6.9773  -13.1453   24.0247 C   0  0  0  0  0  0  0  0  0  0  0  0
    7.1633  -12.5030   25.4004 C   0  0  0  0  0  0  0  0  0  0  0  0
    6.8584  -13.6785   26.3007 C   0  0  0  0  0  0  0  0  0  0  0  0
    7.4663  -14.8422   25.5321 C   0  0  1  0  0  0  0  0  0  0  0  0
    6.5460  -15.9971   25.5616 C   0  0  0  0  0  0  0  0  0  0  0  0
    5.8414  -16.2399   24.5621 O   0  0  0  0  0  0  0  0  0  0  0  0
    6.4582  -16.8132   26.6843 O   0  0  0  0  0  0  0  0  0  0  0  0
  2  1  1  0
  3  2  2  0
  4  2  1  0
  5  4  1  0
  5  6  1  6
  7  5  1  0
  8  7  2  0
  9  7  1  0
 10  9  1  0
 11 12  1  0
 10 11  1  6
 12 13  2  0
 13 14  1  0
 15 14  1  0
 16 12  1  0
 16 15  2  0
 17 19  1  0
 17 10  1  0
 18 17  2  0
 19 20  1  0
 21 20  1  0
 22 21  1  0
 23 19  1  0
 23 22  1  0
 23 24  1  6
 24 26  1  0
 25 24  2  0
M  END
$$$$
