NHP.pdb
     RDKit          3D

 26 27  0  0  1  0  0  0  0  0999 V2000
    9.0662  -12.7183   16.9911 N   0  0  0  0  0  0  0  0  0  0  0  0
    8.5718  -13.8150   17.7141 C   0  0  0  0  0  0  0  0  0  0  0  0
    8.6274  -14.9692   17.2246 O   0  0  0  0  0  0  0  0  0  0  0  0
    7.9770  -13.6411   19.0580 C   0  0  0  0  0  0  0  0  0  0  0  0
    9.0951  -13.9094   20.0573 C   0  0  2  0  0  0  0  0  0  0  0  0
    9.5173  -15.2807   19.8313 N   0  0  0  0  0  0  0  0  0  0  0  0
    8.6693  -13.7586   21.4594 C   0  0  0  0  0  0  0  0  0  0  0  0
    8.2819  -12.6174   21.8811 O   0  0  0  0  0  0  0  0  0  0  0  0
    8.6765  -14.8439   22.3539 N   0  0  0  0  0  0  0  0  0  0  0  0
    8.1692  -14.7233   23.7277 C   0  0  1  0  0  0  0  0  0  0  0  0
    7.1214  -15.8275   23.9427 C   0  0  0  0  0  0  0  0  0  0  0  0
    6.5406  -15.7070   25.2976 C   0  0  0  0  0  0  0  0  0  0  0  0
    5.5922  -14.8199   25.7411 C   0  0  0  0  0  0  0  0  0  0  0  0
    5.3533  -15.0741   27.0415 N   0  0  0  0  0  0  0  0  0  0  0  0
    6.1299  -16.0959   27.4204 C   0  0  0  0  0  0  0  0  0  0  0  0
    6.8557  -16.4843   26.3604 N   0  0  0  0  0  0  0  0  0  0  0  0
    9.2812  -15.0219   24.6583 C   0  0  0  0  0  0  0  0  0  0  0  0
   10.2310  -15.7472   24.1885 O   0  0  0  0  0  0  0  0  0  0  0  0
    9.3184  -14.5472   25.9875 N   0  0  0  0  0  0  0  0  0  0  0  0
    8.2397  -13.8820   26.6606 C   0  0  0  0  0  0  0  0  0  0  0  0
    9.0158  -12.8058   27.4219 C   0  0  0  0  0  0  0  0  0  0  0  0
   10.1289  -13.6353   28.0203 C   0  0  0  0  0  0  0  0  0  0  0  0
   10.4222  -14.6339   26.9106 C   0  0  1  0  0  0  0  0  0  0  0  0
   10.6038  -15.9823   27.4855 C   0  0  0  0  0  0  0  0  0  0  0  0
    9.7866  -16.8803   27.2021 O   0  0  0  0  0  0  0  0  0  0  0  0
   11.6709  -16.2608   28.3329 O   0  0  0  0  0  0  0  0  0  0  0  0
  2  1  1  0
  3  2  2  0
  4  2  1  0
  5  4  1  0
  5  6  1  1
  7  5  1  0
  8  7  2  0
  9  7  1  0
 10  9  1  0
 11 12  1  0
 10 11  1  6
 12 13  2  0
 13 14  1  0
 15 14  1  0
 16 12  1  0
 16 15  2  0
 17 19  1  0
 17 10  1  0
 18 17  2  0
 19 20  1  0
 21 20  1  0
 22 21  1  0
 23 19  1  0
 23 22  1  0
 23 24  1  1
 24 26  1  0
 25 24  2  0
M  END
$$$$
