NHP.pdb
     RDKit          3D

 26 27  0  0  1  0  0  0  0  0999 V2000
   12.9065  -17.8241   15.3293 N   0  0  0  0  0  0  0  0  0  0  0  0
   11.9215  -18.7284   14.9026 C   0  0  0  0  0  0  0  0  0  0  0  0
   12.0868  -19.9621   15.0630 O   0  0  0  0  0  0  0  0  0  0  0  0
   10.6758  -18.2563   14.2580 C   0  0  0  0  0  0  0  0  0  0  0  0
   10.7850  -16.7389   14.1791 C   0  0  2  0  0  0  0  0  0  0  0  0
   12.0589  -16.4591   13.5397 N   0  0  0  0  0  0  0  0  0  0  0  0
   10.7515  -16.0849   15.4985 C   0  0  0  0  0  0  0  0  0  0  0  0
   11.8458  -15.8463   16.1115 O   0  0  0  0  0  0  0  0  0  0  0  0
    9.5396  -15.7122   16.1072 N   0  0  0  0  0  0  0  0  0  0  0  0
    9.5012  -14.9051   17.3345 C   0  0  1  0  0  0  0  0  0  0  0  0
    8.0307  -14.5721   17.6348 C   0  0  0  0  0  0  0  0  0  0  0  0
    7.9511  -13.6874   18.8174 C   0  0  0  0  0  0  0  0  0  0  0  0
    7.4781  -13.9831   20.0711 C   0  0  0  0  0  0  0  0  0  0  0  0
    7.6019  -12.8836   20.8381 N   0  0  0  0  0  0  0  0  0  0  0  0
    8.1383  -11.9093   20.0940 C   0  0  0  0  0  0  0  0  0  0  0  0
    8.3523  -12.3950   18.8613 N   0  0  0  0  0  0  0  0  0  0  0  0
    9.9714  -15.7486   18.4566 C   0  0  0  0  0  0  0  0  0  0  0  0
    9.6512  -16.9909   18.4015 O   0  0  0  0  0  0  0  0  0  0  0  0
   10.7297  -15.2405   19.5337 N   0  0  0  0  0  0  0  0  0  0  0  0
   11.0692  -13.8602   19.7301 C   0  0  0  0  0  0  0  0  0  0  0  0
   12.5106  -14.0013   20.2223 C   0  0  0  0  0  0  0  0  0  0  0  0
   12.3455  -15.0863   21.2618 C   0  0  0  0  0  0  0  0  0  0  0  0
   11.3010  -15.9904   20.6243 C   0  0  1  0  0  0  0  0  0  0  0  0
   10.3092  -16.4022   21.6384 C   0  0  0  0  0  0  0  0  0  0  0  0
    9.1394  -15.9794   21.5529 O   0  0  0  0  0  0  0  0  0  0  0  0
   10.6626  -17.2529   22.6803 O   0  0  0  0  0  0  0  0  0  0  0  0
  2  1  1  0
  3  2  2  0
  4  2  1  0
  5  4  1  0
  5  6  1  1
  7  5  1  0
  8  7  2  0
  9  7  1  0
 10  9  1  0
 11 12  1  0
 10 11  1  1
 12 13  2  0
 13 14  1  0
 15 14  1  0
 16 12  1  0
 16 15  2  0
 17 19  1  0
 17 10  1  0
 18 17  2  0
 19 20  1  0
 21 20  1  0
 22 21  1  0
 23 19  1  0
 23 22  1  0
 23 24  1  1
 24 26  1  0
 25 24  2  0
M  END
$$$$
