NHP.pdb
     RDKit          3D

 26 27  0  0  1  0  0  0  0  0999 V2000
   13.1118  -18.3415   18.8342 N   0  0  0  0  0  0  0  0  0  0  0  0
   12.9681  -17.7587   20.1030 C   0  0  0  0  0  0  0  0  0  0  0  0
   13.6781  -18.1510   21.0606 O   0  0  0  0  0  0  0  0  0  0  0  0
   11.9851  -16.6787   20.3430 C   0  0  0  0  0  0  0  0  0  0  0  0
   11.4198  -16.9186   21.7371 C   0  0  2  0  0  0  0  0  0  0  0  0
   10.4799  -18.0185   21.6073 N   0  0  0  0  0  0  0  0  0  0  0  0
   10.7197  -15.7461   22.2894 C   0  0  0  0  0  0  0  0  0  0  0  0
   11.3952  -14.7370   22.6840 O   0  0  0  0  0  0  0  0  0  0  0  0
    9.3179  -15.7054   22.3950 N   0  0  0  0  0  0  0  0  0  0  0  0
    8.6176  -14.5789   23.0273 C   0  0  1  0  0  0  0  0  0  0  0  0
    7.2303  -14.4596   22.3757 C   0  0  0  0  0  0  0  0  0  0  0  0
    7.3802  -14.1838   20.9303 C   0  0  0  0  0  0  0  0  0  0  0  0
    7.7308  -13.0055   20.3207 C   0  0  0  0  0  0  0  0  0  0  0  0
    7.7540  -13.2103   18.9902 N   0  0  0  0  0  0  0  0  0  0  0  0
    7.4250  -14.4859   18.7547 C   0  0  0  0  0  0  0  0  0  0  0  0
    7.1958  -15.0827   19.9348 N   0  0  0  0  0  0  0  0  0  0  0  0
    8.3790  -14.9221   24.4475 C   0  0  0  0  0  0  0  0  0  0  0  0
    8.7353  -16.1012   24.8106 O   0  0  0  0  0  0  0  0  0  0  0  0
    7.7974  -14.0228   25.3675 N   0  0  0  0  0  0  0  0  0  0  0  0
    7.2185  -12.7533   25.0325 C   0  0  0  0  0  0  0  0  0  0  0  0
    7.7149  -11.9088   26.2074 C   0  0  0  0  0  0  0  0  0  0  0  0
    7.3794  -12.8190   27.3668 C   0  0  0  0  0  0  0  0  0  0  0  0
    7.6733  -14.1971   26.7931 C   0  0  1  0  0  0  0  0  0  0  0  0
    6.6034  -15.1391   27.1797 C   0  0  0  0  0  0  0  0  0  0  0  0
    5.6612  -15.3477   26.3903 O   0  0  0  0  0  0  0  0  0  0  0  0
    6.6357  -15.7938   28.4063 O   0  0  0  0  0  0  0  0  0  0  0  0
  2  1  1  0
  3  2  2  0
  4  2  1  0
  5  4  1  0
  5  6  1  6
  7  5  1  0
  8  7  2  0
  9  7  1  0
 10  9  1  0
 11 12  1  0
 10 11  1  6
 12 13  2  0
 13 14  1  0
 15 14  1  0
 16 12  1  0
 16 15  2  0
 17 19  1  0
 17 10  1  0
 18 17  2  0
 19 20  1  0
 21 20  1  0
 22 21  1  0
 23 19  1  0
 23 22  1  0
 23 24  1  6
 24 26  1  0
 25 24  2  0
M  END
$$$$
