NHP.pdb
     RDKit          3D

 26 27  0  0  1  0  0  0  0  0999 V2000
   14.3556  -19.0865   21.9363 N   0  0  0  0  0  0  0  0  0  0  0  0
   13.0261  -18.7777   22.2638 C   0  0  0  0  0  0  0  0  0  0  0  0
   12.1376  -19.6609   22.1901 O   0  0  0  0  0  0  0  0  0  0  0  0
   12.6407  -17.4166   22.6986 C   0  0  0  0  0  0  0  0  0  0  0  0
   11.3543  -17.0797   21.9555 C   0  0  2  0  0  0  0  0  0  0  0  0
   11.7376  -16.8362   20.5757 N   0  0  0  0  0  0  0  0  0  0  0  0
   10.6725  -15.8867   22.4863 C   0  0  0  0  0  0  0  0  0  0  0  0
   11.3640  -14.9291   22.9712 O   0  0  0  0  0  0  0  0  0  0  0  0
    9.2709  -15.7707   22.4739 N   0  0  0  0  0  0  0  0  0  0  0  0
    8.5819  -14.6008   23.0361 C   0  0  1  0  0  0  0  0  0  0  0  0
    7.2818  -14.3922   22.2428 C   0  0  0  0  0  0  0  0  0  0  0  0
    7.6019  -14.0958   20.8296 C   0  0  0  0  0  0  0  0  0  0  0  0
    8.1683  -12.9612   20.3052 C   0  0  0  0  0  0  0  0  0  0  0  0
    8.2858  -13.1256   18.9741 N   0  0  0  0  0  0  0  0  0  0  0  0
    7.8054  -14.3332   18.6550 C   0  0  0  0  0  0  0  0  0  0  0  0
    7.3870  -14.9277   19.7831 N   0  0  0  0  0  0  0  0  0  0  0  0
    8.1733  -14.9272   24.4210 C   0  0  0  0  0  0  0  0  0  0  0  0
    8.3034  -16.1551   24.7733 O   0  0  0  0  0  0  0  0  0  0  0  0
    7.6691  -13.9625   25.3203 N   0  0  0  0  0  0  0  0  0  0  0  0
    7.3083  -12.6170   24.9760 C   0  0  0  0  0  0  0  0  0  0  0  0
    7.8423  -11.8700   26.1994 C   0  0  0  0  0  0  0  0  0  0  0  0
    7.2974  -12.7340   27.3137 C   0  0  0  0  0  0  0  0  0  0  0  0
    7.4234  -14.1335   26.7304 C   0  0  1  0  0  0  0  0  0  0  0  0
    6.2021  -14.9104   27.0248 C   0  0  0  0  0  0  0  0  0  0  0  0
    6.0622  -15.4203   28.1539 O   0  0  0  0  0  0  0  0  0  0  0  0
    5.2114  -15.0772   26.0631 O   0  0  0  0  0  0  0  0  0  0  0  0
  2  1  1  0
  3  2  2  0
  4  2  1  0
  5  4  1  0
  5  6  1  6
  7  5  1  0
  8  7  2  0
  9  7  1  0
 10  9  1  0
 11 12  1  0
 10 11  1  6
 12 13  2  0
 13 14  1  0
 15 14  1  0
 16 12  1  0
 16 15  2  0
 17 19  1  0
 17 10  1  0
 18 17  2  0
 19 20  1  0
 21 20  1  0
 22 21  1  0
 23 19  1  0
 23 22  1  0
 23 24  1  6
 24 26  1  0
 25 24  2  0
M  END
$$$$
