NHP.pdb
     RDKit          3D

 26 27  0  0  1  0  0  0  0  0999 V2000
   11.8279  -18.9943   18.9040 N   0  0  0  0  0  0  0  0  0  0  0  0
   11.9335  -17.6537   19.3060 C   0  0  0  0  0  0  0  0  0  0  0  0
   13.0307  -17.0519   19.2113 O   0  0  0  0  0  0  0  0  0  0  0  0
   10.7664  -16.9222   19.8475 C   0  0  0  0  0  0  0  0  0  0  0  0
   11.0858  -16.6314   21.3084 C   0  0  2  0  0  0  0  0  0  0  0  0
   11.0554  -17.9134   21.9907 N   0  0  0  0  0  0  0  0  0  0  0  0
   10.1177  -15.7213   21.9443 C   0  0  0  0  0  0  0  0  0  0  0  0
    9.9073  -14.5694   21.4352 O   0  0  0  0  0  0  0  0  0  0  0  0
    9.4124  -16.0875   23.1047 N   0  0  0  0  0  0  0  0  0  0  0  0
    8.4223  -15.1976   23.7269 C   0  0  1  0  0  0  0  0  0  0  0  0
    7.1091  -15.9829   23.8756 C   0  0  0  0  0  0  0  0  0  0  0  0
    6.5532  -16.2829   22.5383 C   0  0  0  0  0  0  0  0  0  0  0  0
    6.3839  -17.5072   21.9422 C   0  0  0  0  0  0  0  0  0  0  0  0
    5.8357  -17.3123   20.7280 N   0  0  0  0  0  0  0  0  0  0  0  0
    5.6608  -15.9974   20.5512 C   0  0  0  0  0  0  0  0  0  0  0  0
    6.0974  -15.3662   21.6522 N   0  0  0  0  0  0  0  0  0  0  0  0
    8.8778  -14.8896   25.1014 C   0  0  0  0  0  0  0  0  0  0  0  0
    9.9097  -15.5343   25.5117 O   0  0  0  0  0  0  0  0  0  0  0  0
    8.2332  -13.9459   25.9305 N   0  0  0  0  0  0  0  0  0  0  0  0
    7.0381  -13.2265   25.5939 C   0  0  0  0  0  0  0  0  0  0  0  0
    7.3802  -11.8483   26.1627 C   0  0  0  0  0  0  0  0  0  0  0  0
    7.8935  -12.2311   27.5320 C   0  0  0  0  0  0  0  0  0  0  0  0
    8.6388  -13.5268   27.2488 C   0  0  1  0  0  0  0  0  0  0  0  0
    8.3363  -14.5188   28.3005 C   0  0  0  0  0  0  0  0  0  0  0  0
    7.4982  -15.4129   28.0714 O   0  0  0  0  0  0  0  0  0  0  0  0
    8.9734  -14.4683   29.5357 O   0  0  0  0  0  0  0  0  0  0  0  0
  2  1  1  0
  3  2  2  0
  4  2  1  0
  5  4  1  0
  5  6  1  1
  7  5  1  0
  8  7  2  0
  9  7  1  0
 10  9  1  0
 11 12  1  0
 10 11  1  1
 12 13  2  0
 13 14  1  0
 15 14  1  0
 16 12  1  0
 16 15  2  0
 17 19  1  0
 17 10  1  0
 18 17  2  0
 19 20  1  0
 21 20  1  0
 22 21  1  0
 23 19  1  0
 23 22  1  0
 23 24  1  1
 24 26  1  0
 25 24  2  0
M  END
$$$$
