NHP.pdb
     RDKit          3D

 26 27  0  0  1  0  0  0  0  0999 V2000
    8.7697  -12.7750   17.1916 N   0  0  0  0  0  0  0  0  0  0  0  0
    8.2996  -13.9690   17.7602 C   0  0  0  0  0  0  0  0  0  0  0  0
    8.5577  -15.0703   17.2164 O   0  0  0  0  0  0  0  0  0  0  0  0
    7.4947  -13.9612   19.0020 C   0  0  0  0  0  0  0  0  0  0  0  0
    8.4588  -14.2807   20.1373 C   0  0  2  0  0  0  0  0  0  0  0  0
    9.1407  -15.5049   19.7547 N   0  0  0  0  0  0  0  0  0  0  0  0
    7.7849  -14.4858   21.4310 C   0  0  0  0  0  0  0  0  0  0  0  0
    6.6453  -13.9493   21.6399 O   0  0  0  0  0  0  0  0  0  0  0  0
    8.3647  -15.2621   22.4505 N   0  0  0  0  0  0  0  0  0  0  0  0
    7.6812  -15.5038   23.7286 C   0  0  1  0  0  0  0  0  0  0  0  0
    7.5972  -17.0243   23.9390 C   0  0  0  0  0  0  0  0  0  0  0  0
    6.6015  -17.6020   23.0104 C   0  0  0  0  0  0  0  0  0  0  0  0
    5.2333  -17.5919   23.1155 C   0  0  0  0  0  0  0  0  0  0  0  0
    4.7237  -18.2252   22.0423 N   0  0  0  0  0  0  0  0  0  0  0  0
    5.7394  -18.6317   21.2716 C   0  0  0  0  0  0  0  0  0  0  0  0
    6.8859  -18.2543   21.8584 N   0  0  0  0  0  0  0  0  0  0  0  0
    8.5391  -14.9827   24.8167 C   0  0  0  0  0  0  0  0  0  0  0  0
    9.7867  -15.2777   24.7422 O   0  0  0  0  0  0  0  0  0  0  0  0
    8.0388  -14.2041   25.8830 N   0  0  0  0  0  0  0  0  0  0  0  0
    6.7021  -13.6909   25.9786 C   0  0  0  0  0  0  0  0  0  0  0  0
    6.9842  -12.3006   26.5508 C   0  0  0  0  0  0  0  0  0  0  0  0
    7.9406  -12.6478   27.6688 C   0  0  0  0  0  0  0  0  0  0  0  0
    8.7552  -13.7791   27.0595 C   0  0  1  0  0  0  0  0  0  0  0  0
    8.9419  -14.8542   28.0550 C   0  0  0  0  0  0  0  0  0  0  0  0
    8.2450  -15.8850   27.9759 O   0  0  0  0  0  0  0  0  0  0  0  0
    9.8819  -14.7314   29.0725 O   0  0  0  0  0  0  0  0  0  0  0  0
  2  1  1  0
  3  2  2  0
  4  2  1  0
  5  4  1  0
  5  6  1  6
  7  5  1  0
  8  7  2  0
  9  7  1  0
 10  9  1  0
 11 12  1  0
 10 11  1  1
 12 13  2  0
 13 14  1  0
 15 14  1  0
 16 12  1  0
 16 15  2  0
 17 19  1  0
 17 10  1  0
 18 17  2  0
 19 20  1  0
 21 20  1  0
 22 21  1  0
 23 19  1  0
 23 22  1  0
 23 24  1  1
 24 26  1  0
 25 24  2  0
M  END
$$$$
