LYY.pdb
     RDKit          3D

 33 34  0  0  1  0  0  0  0  0999 V2000
   30.0437  -15.8478  -19.9471 C   0  0  0  0  0  0  0  0  0  0  0  0
   29.6555  -17.1725  -19.3419 C   0  0  1  0  0  0  0  0  0  0  0  0
   30.8971  -17.9021  -18.8811 C   0  0  0  0  0  0  0  0  0  0  0  0
   28.7036  -16.9230  -18.1974 C   0  0  0  0  0  0  0  0  0  0  0  0
   28.3866  -18.1848  -17.4192 C   0  0  2  0  0  0  0  0  0  0  0  0
   28.0588  -19.2242  -18.3657 N   0  0  0  0  0  0  0  0  0  0  0  0
   27.1955  -17.9051  -16.5864 C   0  0  0  0  0  0  0  0  0  0  0  0
   27.0832  -16.8363  -15.9351 O   0  0  0  0  0  0  0  0  0  0  0  0
   18.6123  -17.3824  -15.0807 O   0  0  0  0  0  0  0  0  0  0  0  0
   19.9320  -17.5727  -15.5044 C   0  0  0  0  0  0  0  0  0  0  0  0
   20.7704  -16.5071  -15.6197 C   0  0  0  0  0  0  0  0  0  0  0  0
   22.0642  -16.7101  -16.0367 C   0  0  0  0  0  0  0  0  0  0  0  0
   22.5607  -17.9616  -16.3490 C   0  0  0  0  0  0  0  0  0  0  0  0
   23.9466  -18.0656  -16.7857 C   0  0  0  0  0  0  0  0  0  0  0  0
   24.9079  -18.6129  -15.7882 C   0  0  2  0  0  0  0  0  0  0  0  0
   26.1659  -18.8451  -16.5155 N   0  0  0  0  0  0  0  0  0  0  0  0
   24.5170  -19.9390  -15.2582 C   0  0  0  0  0  0  0  0  0  0  0  0
   24.8991  -20.9573  -15.8925 O   0  0  0  0  0  0  0  0  0  0  0  0
   21.6791  -19.0147  -16.2191 C   0  0  0  0  0  0  0  0  0  0  0  0
   20.3879  -18.8591  -15.8089 C   0  0  0  0  0  0  0  0  0  0  0  0
   26.0416  -18.9147   -8.1492 O   0  0  0  0  0  0  0  0  0  0  0  0
   25.7327  -19.6553   -9.2935 C   0  0  0  0  0  0  0  0  0  0  0  0
   24.6325  -20.4916   -9.3049 C   0  0  0  0  0  0  0  0  0  0  0  0
   24.3331  -21.2192  -10.4350 C   0  0  0  0  0  0  0  0  0  0  0  0
   25.0910  -21.1596  -11.5918 C   0  0  0  0  0  0  0  0  0  0  0  0
   24.7559  -21.9506  -12.7960 C   0  0  0  0  0  0  0  0  0  0  0  0
   23.5145  -21.4567  -13.5098 C   0  0  2  0  0  0  0  0  0  0  0  0
   23.7462  -20.1408  -14.0916 N   0  0  0  0  0  0  0  0  0  0  0  0
   22.3459  -21.3967  -12.6256 C   0  0  0  0  0  0  0  0  0  0  0  0
   21.7062  -22.5119  -12.1364 O   0  0  0  0  0  0  0  0  0  0  0  0
   26.1938  -20.3098  -11.5541 C   0  0  0  0  0  0  0  0  0  0  0  0
   26.5045  -19.5745  -10.4264 C   0  0  0  0  0  0  0  0  0  0  0  0
   21.8859  -20.2744  -12.2836 O   0  0  0  0  0  0  0  0  0  0  0  0
  2  1  1  1
  2  3  1  0
  4  2  1  0
  5  6  1  6
  5  4  1  0
  7  5  1  0
  8  7  2  0
  9 10  1  0
 10 11  2  0
 10 20  1  0
 11 12  1  0
 12 13  2  0
 13 14  1  0
 15 14  1  6
 15 16  1  0
 16  7  1  0
 17 15  1  0
 17 28  1  0
 18 17  2  0
 19 13  1  0
 20 19  2  0
 22 21  1  0
 23 22  2  0
 24 23  1  0
 25 24  2  0
 25 31  1  0
 26 25  1  0
 27 26  1  1
 27 28  1  0
 27 29  1  0
 29 30  1  0
 31 32  2  0
 32 22  1  0
 33 29  2  0
M  END
$$$$
