LYY.pdb
     RDKit          3D

 33 34  0  0  1  0  0  0  0  0999 V2000
   25.6865  -33.4793  -19.8563 C   0  0  0  0  0  0  0  0  0  0  0  0
   25.4395  -32.6261  -18.6386 C   0  0  1  0  0  0  0  0  0  0  0  0
   25.1220  -31.2113  -19.0674 C   0  0  0  0  0  0  0  0  0  0  0  0
   24.3077  -33.2306  -17.8437 C   0  0  0  0  0  0  0  0  0  0  0  0
   24.1122  -32.5521  -16.5022 C   0  0  2  0  0  0  0  0  0  0  0  0
   25.4152  -32.2837  -15.9421 N   0  0  0  0  0  0  0  0  0  0  0  0
   23.4019  -33.5064  -15.6217 C   0  0  0  0  0  0  0  0  0  0  0  0
   22.2860  -33.9900  -15.9384 O   0  0  0  0  0  0  0  0  0  0  0  0
   22.1795  -40.7179  -11.1222 O   0  0  0  0  0  0  0  0  0  0  0  0
   22.5267  -39.6045  -11.8949 C   0  0  0  0  0  0  0  0  0  0  0  0
   21.6182  -38.6143  -12.1090 C   0  0  0  0  0  0  0  0  0  0  0  0
   21.9742  -37.5265  -12.8697 C   0  0  0  0  0  0  0  0  0  0  0  0
   23.2277  -37.3887  -13.4356 C   0  0  0  0  0  0  0  0  0  0  0  0
   23.5005  -36.1976  -14.2287 C   0  0  0  0  0  0  0  0  0  0  0  0
   23.3874  -34.8955  -13.5141 C   0  0  2  0  0  0  0  0  0  0  0  0
   23.9766  -33.8852  -14.4072 N   0  0  0  0  0  0  0  0  0  0  0  0
   24.1925  -34.8318  -12.2732 C   0  0  0  0  0  0  0  0  0  0  0  0
   25.4438  -34.9177  -12.3837 O   0  0  0  0  0  0  0  0  0  0  0  0
   24.1188  -38.4140  -13.1949 C   0  0  0  0  0  0  0  0  0  0  0  0
   23.8082  -39.5107  -12.4464 C   0  0  0  0  0  0  0  0  0  0  0  0
   26.9736  -32.9832   -4.0626 O   0  0  0  0  0  0  0  0  0  0  0  0
   26.3645  -33.0504   -5.3187 C   0  0  0  0  0  0  0  0  0  0  0  0
   27.0832  -32.7406   -6.4578 C   0  0  0  0  0  0  0  0  0  0  0  0
   26.4779  -32.8084   -7.6928 C   0  0  0  0  0  0  0  0  0  0  0  0
   25.1552  -33.1789   -7.8639 C   0  0  0  0  0  0  0  0  0  0  0  0
   24.5204  -33.2436   -9.1984 C   0  0  0  0  0  0  0  0  0  0  0  0
   24.4782  -34.6443   -9.7735 C   0  0  2  0  0  0  0  0  0  0  0  0
   23.6550  -34.6811  -10.9755 N   0  0  0  0  0  0  0  0  0  0  0  0
   23.9754  -35.6304   -8.8114 C   0  0  0  0  0  0  0  0  0  0  0  0
   24.7865  -36.5073   -8.1292 O   0  0  0  0  0  0  0  0  0  0  0  0
   24.4535  -33.4857   -6.7006 C   0  0  0  0  0  0  0  0  0  0  0  0
   25.0496  -33.4217   -5.4559 C   0  0  0  0  0  0  0  0  0  0  0  0
   22.7379  -35.6961   -8.5825 O   0  0  0  0  0  0  0  0  0  0  0  0
  2  1  1  6
  2  3  1  0
  4  2  1  0
  5  6  1  1
  5  4  1  0
  7  5  1  0
  8  7  2  0
  9 10  1  0
 10 11  2  0
 10 20  1  0
 11 12  1  0
 12 13  2  0
 13 14  1  0
 15 14  1  6
 15 16  1  0
 16  7  1  0
 17 15  1  0
 17 28  1  0
 18 17  2  0
 19 13  1  0
 20 19  2  0
 22 21  1  0
 23 22  2  0
 24 23  1  0
 25 24  2  0
 25 31  1  0
 26 25  1  0
 27 26  1  1
 27 28  1  0
 27 29  1  0
 29 30  1  0
 31 32  2  0
 32 22  1  0
 33 29  2  0
M  END
$$$$
