LYY.pdb
     RDKit          3D

 33 34  0  0  1  0  0  0  0  0999 V2000
   22.0984   -8.6400  -21.5388 C   0  0  0  0  0  0  0  0  0  0  0  0
   23.5408   -9.0732  -21.5999 C   0  0  1  0  0  0  0  0  0  0  0  0
   24.3854   -8.1413  -20.7606 C   0  0  0  0  0  0  0  0  0  0  0  0
   23.6404  -10.4988  -21.1141 C   0  0  0  0  0  0  0  0  0  0  0  0
   25.0630  -11.0223  -21.1358 C   0  0  2  0  0  0  0  0  0  0  0  0
   25.4740  -11.1450  -22.5141 N   0  0  0  0  0  0  0  0  0  0  0  0
   25.0500  -12.3683  -20.5204 C   0  0  0  0  0  0  0  0  0  0  0  0
   24.7250  -13.3896  -21.1766 O   0  0  0  0  0  0  0  0  0  0  0  0
   27.4230  -18.2363  -14.2326 O   0  0  0  0  0  0  0  0  0  0  0  0
   27.2413  -17.1472  -15.0918 C   0  0  0  0  0  0  0  0  0  0  0  0
   26.7723  -15.9664  -14.6046 C   0  0  0  0  0  0  0  0  0  0  0  0
   26.5996  -14.9054  -15.4610 C   0  0  0  0  0  0  0  0  0  0  0  0
   26.8828  -14.9819  -16.8117 C   0  0  0  0  0  0  0  0  0  0  0  0
   26.6596  -13.7991  -17.6323 C   0  0  0  0  0  0  0  0  0  0  0  0
   25.4441  -13.8195  -18.4931 C   0  0  2  0  0  0  0  0  0  0  0  0
   25.4055  -12.5181  -19.1789 N   0  0  0  0  0  0  0  0  0  0  0  0
   24.1795  -13.8907  -17.7265 C   0  0  0  0  0  0  0  0  0  0  0  0
   23.8015  -12.8509  -17.1254 O   0  0  0  0  0  0  0  0  0  0  0  0
   27.3557  -16.1959  -17.2654 C   0  0  0  0  0  0  0  0  0  0  0  0
   27.5422  -17.2740  -16.4515 C   0  0  0  0  0  0  0  0  0  0  0  0
   20.2584  -19.3889  -21.2242 O   0  0  0  0  0  0  0  0  0  0  0  0
   20.4164  -18.3103  -20.3495 C   0  0  0  0  0  0  0  0  0  0  0  0
   21.1767  -17.2181  -20.7221 C   0  0  0  0  0  0  0  0  0  0  0  0
   21.3291  -16.1583  -19.8561 C   0  0  0  0  0  0  0  0  0  0  0  0
   20.7490  -16.1229  -18.5998 C   0  0  0  0  0  0  0  0  0  0  0  0
   20.9258  -14.9770  -17.6813 C   0  0  0  0  0  0  0  0  0  0  0  0
   22.1597  -15.0933  -16.8103 C   0  0  2  0  0  0  0  0  0  0  0  0
   23.3684  -15.0427  -17.6230 N   0  0  0  0  0  0  0  0  0  0  0  0
   22.1660  -16.3212  -16.0084 C   0  0  0  0  0  0  0  0  0  0  0  0
   21.2726  -16.5687  -14.9922 O   0  0  0  0  0  0  0  0  0  0  0  0
   19.9884  -17.2355  -18.2488 C   0  0  0  0  0  0  0  0  0  0  0  0
   19.8277  -18.3048  -19.1089 C   0  0  0  0  0  0  0  0  0  0  0  0
   23.0275  -17.2100  -16.2448 O   0  0  0  0  0  0  0  0  0  0  0  0
  2  1  1  1
  2  3  1  0
  4  2  1  0
  5  6  1  6
  5  4  1  0
  7  5  1  0
  8  7  2  0
  9 10  1  0
 10 11  2  0
 10 20  1  0
 11 12  1  0
 12 13  2  0
 13 14  1  0
 15 14  1  1
 15 16  1  0
 16  7  1  0
 17 15  1  0
 17 28  1  0
 18 17  2  0
 19 13  1  0
 20 19  2  0
 22 21  1  0
 23 22  2  0
 24 23  1  0
 25 24  2  0
 25 31  1  0
 26 25  1  0
 27 26  1  6
 27 28  1  0
 27 29  1  0
 29 30  1  0
 31 32  2  0
 32 22  1  0
 33 29  2  0
M  END
$$$$
