LYY.pdb
     RDKit          3D

 33 34  0  0  1  0  0  0  0  0999 V2000
   31.2473  -22.7466  -18.9348 C   0  0  0  0  0  0  0  0  0  0  0  0
   30.1284  -21.7586  -18.7256 C   0  0  1  0  0  0  0  0  0  0  0  0
   29.7020  -21.1866  -20.0588 C   0  0  0  0  0  0  0  0  0  0  0  0
   28.9850  -22.4595  -18.0331 C   0  0  0  0  0  0  0  0  0  0  0  0
   27.8452  -21.5187  -17.6957 C   0  0  2  0  0  0  0  0  0  0  0  0
   28.3801  -20.1809  -17.6072 N   0  0  0  0  0  0  0  0  0  0  0  0
   27.3231  -21.9124  -16.3679 C   0  0  0  0  0  0  0  0  0  0  0  0
   27.2148  -23.1191  -16.0339 O   0  0  0  0  0  0  0  0  0  0  0  0
   25.1030  -20.7197   -7.8423 O   0  0  0  0  0  0  0  0  0  0  0  0
   25.5665  -20.6485   -9.1603 C   0  0  0  0  0  0  0  0  0  0  0  0
   26.7330  -21.2580   -9.5058 C   0  0  0  0  0  0  0  0  0  0  0  0
   27.1751  -21.1796  -10.8047 C   0  0  0  0  0  0  0  0  0  0  0  0
   26.4822  -20.5016  -11.7899 C   0  0  0  0  0  0  0  0  0  0  0  0
   27.0415  -20.4761  -13.1348 C   0  0  0  0  0  0  0  0  0  0  0  0
   26.2810  -21.2243  -14.1743 C   0  0  2  0  0  0  0  0  0  0  0  0
   26.9386  -20.9272  -15.4568 N   0  0  0  0  0  0  0  0  0  0  0  0
   24.8862  -20.7550  -14.3368 C   0  0  0  0  0  0  0  0  0  0  0  0
   24.7027  -19.6684  -14.9459 O   0  0  0  0  0  0  0  0  0  0  0  0
   25.3051  -19.8978  -11.3988 C   0  0  0  0  0  0  0  0  0  0  0  0
   24.8294  -19.9503  -10.1218 C   0  0  0  0  0  0  0  0  0  0  0  0
   16.7876  -19.0812  -16.6565 O   0  0  0  0  0  0  0  0  0  0  0  0
   18.0867  -19.5191  -16.3850 C   0  0  0  0  0  0  0  0  0  0  0  0
   19.1035  -18.6031  -16.1921 C   0  0  0  0  0  0  0  0  0  0  0  0
   20.3817  -19.0403  -15.9250 C   0  0  0  0  0  0  0  0  0  0  0  0
   20.7161  -20.3806  -15.8362 C   0  0  0  0  0  0  0  0  0  0  0  0
   22.0954  -20.8322  -15.5512 C   0  0  0  0  0  0  0  0  0  0  0  0
   22.3864  -20.9687  -14.0709 C   0  0  2  0  0  0  0  0  0  0  0  0
   23.7483  -21.4410  -13.8568 N   0  0  0  0  0  0  0  0  0  0  0  0
   21.4485  -21.8720  -13.3962 C   0  0  0  0  0  0  0  0  0  0  0  0
   21.6362  -23.2316  -13.3057 O   0  0  0  0  0  0  0  0  0  0  0  0
   19.6736  -21.2826  -16.0347 C   0  0  0  0  0  0  0  0  0  0  0  0
   18.3871  -20.8565  -16.3031 C   0  0  0  0  0  0  0  0  0  0  0  0
   20.4083  -21.3993  -12.8646 O   0  0  0  0  0  0  0  0  0  0  0  0
  2  1  1  6
  2  3  1  0
  4  2  1  0
  5  6  1  1
  5  4  1  0
  7  5  1  0
  8  7  2  0
  9 10  1  0
 10 11  2  0
 10 20  1  0
 11 12  1  0
 12 13  2  0
 13 14  1  0
 15 14  1  1
 15 16  1  0
 16  7  1  0
 17 15  1  0
 17 28  1  0
 18 17  2  0
 19 13  1  0
 20 19  2  0
 22 21  1  0
 23 22  2  0
 24 23  1  0
 25 24  2  0
 25 31  1  0
 26 25  1  0
 27 26  1  6
 27 28  1  0
 27 29  1  0
 29 30  1  0
 31 32  2  0
 32 22  1  0
 33 29  2  0
M  END
$$$$
