LYY.pdb
     RDKit          3D

 33 34  0  0  1  0  0  0  0  0999 V2000
   29.2976  -30.3679  -19.2650 C   0  0  0  0  0  0  0  0  0  0  0  0
   30.3375  -29.6179  -20.0574 C   0  0  1  0  0  0  0  0  0  0  0  0
   30.0844  -29.8109  -21.5356 C   0  0  0  0  0  0  0  0  0  0  0  0
   30.2826  -28.1595  -19.6725 C   0  0  0  0  0  0  0  0  0  0  0  0
   31.2862  -27.3183  -20.4364 C   0  0  2  0  0  0  0  0  0  0  0  0
   32.5923  -27.5544  -19.8691 N   0  0  0  0  0  0  0  0  0  0  0  0
   30.9251  -25.8983  -20.2278 C   0  0  0  0  0  0  0  0  0  0  0  0
   31.2532  -25.2816  -19.1831 O   0  0  0  0  0  0  0  0  0  0  0  0
   29.4014  -17.6376  -22.9448 O   0  0  0  0  0  0  0  0  0  0  0  0
   29.7107  -18.9875  -22.7459 C   0  0  0  0  0  0  0  0  0  0  0  0
   29.0702  -19.9464  -23.4684 C   0  0  0  0  0  0  0  0  0  0  0  0
   29.3853  -21.2681  -23.2622 C   0  0  0  0  0  0  0  0  0  0  0  0
   30.3340  -21.6752  -22.3431 C   0  0  0  0  0  0  0  0  0  0  0  0
   30.5889  -23.1024  -22.1996 C   0  0  0  0  0  0  0  0  0  0  0  0
   29.8459  -23.7936  -21.1093 C   0  0  2  0  0  0  0  0  0  0  0  0
   30.2022  -25.2178  -21.2092 N   0  0  0  0  0  0  0  0  0  0  0  0
   28.3755  -23.7498  -21.2777 C   0  0  0  0  0  0  0  0  0  0  0  0
   27.8692  -24.4683  -22.1792 O   0  0  0  0  0  0  0  0  0  0  0  0
   30.9598  -20.6727  -21.6315 C   0  0  0  0  0  0  0  0  0  0  0  0
   30.6786  -19.3495  -21.8039 C   0  0  0  0  0  0  0  0  0  0  0  0
   19.6636  -22.3676  -20.2416 O   0  0  0  0  0  0  0  0  0  0  0  0
   21.0452  -22.4607  -20.0525 C   0  0  0  0  0  0  0  0  0  0  0  0
   21.6550  -23.6985  -19.9760 C   0  0  0  0  0  0  0  0  0  0  0  0
   23.0167  -23.7843  -19.7893 C   0  0  0  0  0  0  0  0  0  0  0  0
   23.8320  -22.6720  -19.6706 C   0  0  0  0  0  0  0  0  0  0  0  0
   25.2930  -22.7830  -19.4676 C   0  0  0  0  0  0  0  0  0  0  0  0
   26.0733  -22.8546  -20.7639 C   0  0  2  0  0  0  0  0  0  0  0  0
   27.5023  -22.9591  -20.4978 N   0  0  0  0  0  0  0  0  0  0  0  0
   25.8254  -21.6990  -21.6321 C   0  0  0  0  0  0  0  0  0  0  0  0
   26.5089  -20.5099  -21.5268 O   0  0  0  0  0  0  0  0  0  0  0  0
   23.1929  -21.4372  -19.7510 C   0  0  0  0  0  0  0  0  0  0  0  0
   21.8276  -21.3380  -19.9384 C   0  0  0  0  0  0  0  0  0  0  0  0
   24.9432  -21.7768  -22.5287 O   0  0  0  0  0  0  0  0  0  0  0  0
  2  1  1  1
  2  3  1  0
  4  2  1  0
  5  6  1  1
  5  4  1  0
  7  5  1  0
  8  7  2  0
  9 10  1  0
 10 11  2  0
 10 20  1  0
 11 12  1  0
 12 13  2  0
 13 14  1  0
 15 14  1  6
 15 16  1  0
 16  7  1  0
 17 15  1  0
 17 28  1  0
 18 17  2  0
 19 13  1  0
 20 19  2  0
 22 21  1  0
 23 22  2  0
 24 23  1  0
 25 24  2  0
 25 31  1  0
 26 25  1  0
 27 26  1  1
 27 28  1  0
 27 29  1  0
 29 30  1  0
 31 32  2  0
 32 22  1  0
 33 29  2  0
M  END
$$$$
