VDN.pdb
     RDKit          3D

 24 23  0  0  1  0  0  0  0  0999 V2000
    5.7133  -11.4181   26.6925 C   0  0  0  0  0  0  0  0  0  0  0  0
    6.8670  -12.4142   26.5218 C   0  0  2  0  0  0  0  0  0  0  0  0
    7.9927  -11.7056   25.8549 C   0  0  0  0  0  0  0  0  0  0  0  0
    6.3262  -13.5899   25.7975 C   0  0  2  0  0  0  0  0  0  0  0  0
    5.1762  -14.1085   26.5278 N   0  0  0  0  0  0  0  0  0  0  0  0
    7.2835  -14.6156   25.4321 C   0  0  0  0  0  0  0  0  0  0  0  0
    7.5832  -15.5358   26.2196 O   0  0  0  0  0  0  0  0  0  0  0  0
    7.9099  -14.6045   24.1693 N   0  0  0  0  0  0  0  0  0  0  0  0
    8.8064  -15.6840   23.7131 C   0  0  1  0  0  0  0  0  0  0  0  0
    9.0804  -15.4117   22.2621 C   0  0  0  0  0  0  0  0  0  0  0  0
    9.7832  -16.4997   21.5745 C   0  0  0  0  0  0  0  0  0  0  0  0
   10.0712  -17.5525   22.2076 O   0  0  0  0  0  0  0  0  0  0  0  0
    9.9932  -15.7801   24.5617 C   0  0  0  0  0  0  0  0  0  0  0  0
   10.8458  -14.8701   24.5922 O   0  0  0  0  0  0  0  0  0  0  0  0
   10.1207  -16.3581   20.2406 O   0  0  0  0  0  0  0  0  0  0  0  0
   11.2211  -14.8878   27.8902 N   0  0  0  0  0  0  0  0  0  0  0  0
   11.0675  -16.1834   28.4451 C   0  0  0  0  0  0  0  0  0  0  0  0
   10.9077  -16.3079   29.7012 O   0  0  0  0  0  0  0  0  0  0  0  0
   11.0815  -17.4169   27.6303 C   0  0  0  0  0  0  0  0  0  0  0  0
   11.3909  -17.0953   26.1828 C   0  0  2  0  0  0  0  0  0  0  0  0
   10.2140  -16.9247   25.3843 N   0  0  0  0  0  0  0  0  0  0  0  0
   12.1877  -18.2457   25.6406 C   0  0  0  0  0  0  0  0  0  0  0  0
   11.7247  -18.9405   24.7067 O   0  0  0  0  0  0  0  0  0  0  0  0
   13.4230  -18.5448   26.1593 O   0  0  0  0  0  0  0  0  0  0  0  0
  2  1  1  6
  2  4  1  0
  3  2  1  0
  4  6  1  0
  4  5  1  1
  6  7  2  0
  8  9  1  0
  8  6  1  0
  9 10  1  6
 10 11  1  0
 11 12  2  0
 11 15  1  0
 13 14  2  0
 13  9  1  0
 16 17  1  0
 17 18  2  0
 17 19  1  0
 20 19  1  1
 20 22  1  0
 20 21  1  0
 21 13  1  0
 22 24  1  0
 23 22  2  0
M  END
$$$$
