VDN.pdb
     RDKit          3D

 24 23  0  0  1  0  0  0  0  0999 V2000
    7.7113  -12.6361   27.0313 C   0  0  0  0  0  0  0  0  0  0  0  0
    7.0869  -12.2328   25.6897 C   0  0  2  0  0  0  0  0  0  0  0  0
    6.2845  -10.9987   25.9074 C   0  0  0  0  0  0  0  0  0  0  0  0
    6.3369  -13.4086   25.1853 C   0  0  2  0  0  0  0  0  0  0  0  0
    5.1754  -13.6308   26.0373 N   0  0  0  0  0  0  0  0  0  0  0  0
    7.1116  -14.6107   24.9467 C   0  0  0  0  0  0  0  0  0  0  0  0
    7.1230  -15.5506   25.7672 O   0  0  0  0  0  0  0  0  0  0  0  0
    7.8812  -14.7554   23.7746 N   0  0  0  0  0  0  0  0  0  0  0  0
    8.8015  -15.8881   23.5583 C   0  0  1  0  0  0  0  0  0  0  0  0
    9.1901  -15.8374   22.1088 C   0  0  0  0  0  0  0  0  0  0  0  0
    9.9873  -16.9856   21.6655 C   0  0  0  0  0  0  0  0  0  0  0  0
   10.3154  -17.8743   22.4990 O   0  0  0  0  0  0  0  0  0  0  0  0
    9.9177  -15.8506   24.5020 C   0  0  0  0  0  0  0  0  0  0  0  0
   10.7929  -14.9641   24.4385 O   0  0  0  0  0  0  0  0  0  0  0  0
   10.3686  -17.0801   20.3393 O   0  0  0  0  0  0  0  0  0  0  0  0
   11.5015  -14.8582   29.3884 N   0  0  0  0  0  0  0  0  0  0  0  0
   10.7188  -16.0095   29.1195 C   0  0  0  0  0  0  0  0  0  0  0  0
   10.6983  -16.9600   29.9651 O   0  0  0  0  0  0  0  0  0  0  0  0
    9.9112  -16.1671   27.8913 C   0  0  0  0  0  0  0  0  0  0  0  0
   10.7825  -16.6115   26.7346 C   0  0  2  0  0  0  0  0  0  0  0  0
   10.0409  -16.8330   25.5293 N   0  0  0  0  0  0  0  0  0  0  0  0
   11.4373  -17.8965   27.1496 C   0  0  0  0  0  0  0  0  0  0  0  0
   12.2272  -17.9090   28.1217 O   0  0  0  0  0  0  0  0  0  0  0  0
   11.1779  -19.0622   26.4726 O   0  0  0  0  0  0  0  0  0  0  0  0
  2  1  1  1
  2  4  1  0
  3  2  1  0
  4  6  1  0
  4  5  1  1
  6  7  2  0
  8  9  1  0
  8  6  1  0
  9 10  1  6
 10 11  1  0
 11 12  2  0
 11 15  1  0
 13 14  2  0
 13  9  1  0
 16 17  1  0
 17 18  2  0
 17 19  1  0
 20 19  1  1
 20 22  1  0
 20 21  1  0
 21 13  1  0
 22 24  1  0
 23 22  2  0
M  END
$$$$
