VDN.pdb
     RDKit          3D

 24 23  0  0  1  0  0  0  0  0999 V2000
    7.8785  -12.8025   27.3305 C   0  0  0  0  0  0  0  0  0  0  0  0
    7.2098  -12.3080   26.0419 C   0  0  2  0  0  0  0  0  0  0  0  0
    6.4583  -11.0640   26.3609 C   0  0  0  0  0  0  0  0  0  0  0  0
    6.4007  -13.4313   25.5101 C   0  0  2  0  0  0  0  0  0  0  0  0
    5.2987  -13.6969   26.4265 N   0  0  0  0  0  0  0  0  0  0  0  0
    7.1304  -14.6249   25.1296 C   0  0  0  0  0  0  0  0  0  0  0  0
    7.0332  -15.6830   25.7837 O   0  0  0  0  0  0  0  0  0  0  0  0
    7.9781  -14.6271   24.0032 N   0  0  0  0  0  0  0  0  0  0  0  0
    8.8178  -15.7839   23.6379 C   0  0  1  0  0  0  0  0  0  0  0  0
    9.4159  -15.4578   22.2999 C   0  0  0  0  0  0  0  0  0  0  0  0
   10.0894  -16.5905   21.6567 C   0  0  0  0  0  0  0  0  0  0  0  0
   11.0348  -17.1738   22.2551 O   0  0  0  0  0  0  0  0  0  0  0  0
    9.7839  -16.0902   24.6919 C   0  0  0  0  0  0  0  0  0  0  0  0
   10.0821  -15.2501   25.5643 O   0  0  0  0  0  0  0  0  0  0  0  0
    9.6793  -17.0053   20.4025 O   0  0  0  0  0  0  0  0  0  0  0  0
    7.2711  -18.7647   27.8897 N   0  0  0  0  0  0  0  0  0  0  0  0
    8.6330  -18.8639   27.5083 C   0  0  0  0  0  0  0  0  0  0  0  0
    9.5304  -18.9075   28.4092 O   0  0  0  0  0  0  0  0  0  0  0  0
    9.0738  -18.9221   26.0984 C   0  0  0  0  0  0  0  0  0  0  0  0
   10.3908  -18.1950   25.9218 C   0  0  2  0  0  0  0  0  0  0  0  0
   10.4194  -17.3661   24.7540 N   0  0  0  0  0  0  0  0  0  0  0  0
   11.4567  -19.2448   25.8031 C   0  0  0  0  0  0  0  0  0  0  0  0
   11.4172  -20.0707   24.8621 O   0  0  0  0  0  0  0  0  0  0  0  0
   12.4780  -19.3089   26.7181 O   0  0  0  0  0  0  0  0  0  0  0  0
  2  1  1  1
  2  4  1  0
  3  2  1  0
  4  6  1  0
  4  5  1  1
  6  7  2  0
  8  9  1  0
  8  6  1  0
  9 10  1  6
 10 11  1  0
 11 12  2  0
 11 15  1  0
 13 14  2  0
 13  9  1  0
 16 17  1  0
 17 18  2  0
 17 19  1  0
 20 19  1  6
 20 22  1  0
 20 21  1  0
 21 13  1  0
 22 24  1  0
 23 22  2  0
M  END
$$$$
