VDN.pdb
     RDKit          3D

 24 23  0  0  1  0  0  0  0  0999 V2000
    2.2064  -18.9001   20.8340 C   0  0  0  0  0  0  0  0  0  0  0  0
    3.5321  -19.0765   21.5849 C   0  0  2  0  0  0  0  0  0  0  0  0
    3.7602  -17.8589   22.4092 C   0  0  0  0  0  0  0  0  0  0  0  0
    4.5730  -19.3728   20.5710 C   0  0  2  0  0  0  0  0  0  0  0  0
    4.0393  -20.3296   19.6096 N   0  0  0  0  0  0  0  0  0  0  0  0
    5.8799  -19.7399   21.0802 C   0  0  0  0  0  0  0  0  0  0  0  0
    6.1327  -20.9070   21.4418 O   0  0  0  0  0  0  0  0  0  0  0  0
    6.9109  -18.7843   21.1845 N   0  0  0  0  0  0  0  0  0  0  0  0
    8.2287  -19.0922   21.7723 C   0  0  1  0  0  0  0  0  0  0  0  0
    9.1630  -18.0244   21.2812 C   0  0  0  0  0  0  0  0  0  0  0  0
   10.5447  -18.1821   21.7464 C   0  0  0  0  0  0  0  0  0  0  0  0
   10.8971  -19.2622   22.2952 O   0  0  0  0  0  0  0  0  0  0  0  0
    8.1424  -19.2209   23.2262 C   0  0  0  0  0  0  0  0  0  0  0  0
    7.9473  -20.3262   23.7704 O   0  0  0  0  0  0  0  0  0  0  0  0
   11.4442  -17.1450   21.5769 O   0  0  0  0  0  0  0  0  0  0  0  0
    7.5460  -20.3829   28.2439 N   0  0  0  0  0  0  0  0  0  0  0  0
    7.1733  -19.2720   27.4457 C   0  0  0  0  0  0  0  0  0  0  0  0
    6.7340  -18.2194   28.0096 O   0  0  0  0  0  0  0  0  0  0  0  0
    7.2705  -19.2697   25.9706 C   0  0  0  0  0  0  0  0  0  0  0  0
    8.1740  -18.1494   25.4983 C   0  0  2  0  0  0  0  0  0  0  0  0
    8.2783  -18.0795   24.0714 N   0  0  0  0  0  0  0  0  0  0  0  0
    9.5339  -18.4120   26.0762 C   0  0  0  0  0  0  0  0  0  0  0  0
    9.6757  -18.5143   27.3166 O   0  0  0  0  0  0  0  0  0  0  0  0
   10.6272  -18.5420   25.2564 O   0  0  0  0  0  0  0  0  0  0  0  0
  2  1  1  6
  2  4  1  0
  3  2  1  0
  4  6  1  0
  4  5  1  1
  6  7  2  0
  8  9  1  0
  8  6  1  0
  9 10  1  1
 10 11  1  0
 11 12  2  0
 11 15  1  0
 13 14  2  0
 13  9  1  0
 16 17  1  0
 17 18  2  0
 17 19  1  0
 20 19  1  6
 20 22  1  0
 20 21  1  0
 21 13  1  0
 22 24  1  0
 23 22  2  0
M  END
$$$$
