VDN.pdb
     RDKit          3D

 24 23  0  0  1  0  0  0  0  0999 V2000
    7.2028  -14.0175   19.2051 C   0  0  0  0  0  0  0  0  0  0  0  0
    8.2803  -13.1362   19.8491 C   0  0  2  0  0  0  0  0  0  0  0  0
    8.5091  -11.9647   18.9606 C   0  0  0  0  0  0  0  0  0  0  0  0
    9.4612  -13.9988   20.0953 C   0  0  2  0  0  0  0  0  0  0  0  0
   10.0239  -14.4086   18.8147 N   0  0  0  0  0  0  0  0  0  0  0  0
    9.2704  -15.1015   21.0171 C   0  0  0  0  0  0  0  0  0  0  0  0
    8.7339  -14.9328   22.1309 O   0  0  0  0  0  0  0  0  0  0  0  0
    9.6883  -16.4055   20.6824 N   0  0  0  0  0  0  0  0  0  0  0  0
    9.5307  -17.5536   21.5956 C   0  0  1  0  0  0  0  0  0  0  0  0
    9.2422  -18.7418   20.7241 C   0  0  0  0  0  0  0  0  0  0  0  0
    8.2925  -18.4689   19.6406 C   0  0  0  0  0  0  0  0  0  0  0  0
    7.1554  -17.9954   19.9143 O   0  0  0  0  0  0  0  0  0  0  0  0
   10.6916  -17.6947   22.4733 C   0  0  0  0  0  0  0  0  0  0  0  0
   10.7358  -18.5749   23.3561 O   0  0  0  0  0  0  0  0  0  0  0  0
    8.6558  -18.7332   18.3324 O   0  0  0  0  0  0  0  0  0  0  0  0
   13.0181  -18.9827   25.2101 N   0  0  0  0  0  0  0  0  0  0  0  0
   13.3086  -19.3075   23.8609 C   0  0  0  0  0  0  0  0  0  0  0  0
   13.2210  -20.5180   23.4790 O   0  0  0  0  0  0  0  0  0  0  0  0
   13.7127  -18.2998   22.8576 C   0  0  0  0  0  0  0  0  0  0  0  0
   13.0131  -16.9812   23.1158 C   0  0  2  0  0  0  0  0  0  0  0  0
   11.8150  -16.8243   22.3466 N   0  0  0  0  0  0  0  0  0  0  0  0
   13.9790  -15.8944   22.7443 C   0  0  0  0  0  0  0  0  0  0  0  0
   14.8050  -16.0820   21.8214 O   0  0  0  0  0  0  0  0  0  0  0  0
   13.9661  -14.6926   23.4076 O   0  0  0  0  0  0  0  0  0  0  0  0
  2  1  1  6
  2  4  1  0
  3  2  1  0
  4  6  1  0
  4  5  1  6
  6  7  2  0
  8  9  1  0
  8  6  1  0
  9 10  1  6
 10 11  1  0
 11 12  2  0
 11 15  1  0
 13 14  2  0
 13  9  1  0
 16 17  1  0
 17 18  2  0
 17 19  1  0
 20 19  1  6
 20 22  1  0
 20 21  1  0
 21 13  1  0
 22 24  1  0
 23 22  2  0
M  END
$$$$
