VDN.pdb
     RDKit          3D

 24 23  0  0  1  0  0  0  0  0999 V2000
    8.4206  -13.3493   20.6700 C   0  0  0  0  0  0  0  0  0  0  0  0
    8.7899  -12.6390   19.3617 C   0  0  2  0  0  0  0  0  0  0  0  0
    7.6168  -11.8327   18.9282 C   0  0  0  0  0  0  0  0  0  0  0  0
    9.2419  -13.6826   18.4099 C   0  0  2  0  0  0  0  0  0  0  0  0
    8.0960  -14.4924   18.0155 N   0  0  0  0  0  0  0  0  0  0  0  0
   10.3882  -14.4710   18.8178 C   0  0  0  0  0  0  0  0  0  0  0  0
   10.2515  -15.5982   19.3350 O   0  0  0  0  0  0  0  0  0  0  0  0
   11.7000  -13.9857   18.6429 N   0  0  0  0  0  0  0  0  0  0  0  0
   12.8966  -14.7718   18.9995 C   0  0  1  0  0  0  0  0  0  0  0  0
   14.0242  -14.2051   18.1860 C   0  0  0  0  0  0  0  0  0  0  0  0
   15.3066  -14.8865   18.3899 C   0  0  0  0  0  0  0  0  0  0  0  0
   15.3188  -16.1065   18.7118 O   0  0  0  0  0  0  0  0  0  0  0  0
   13.1151  -14.7765   20.4452 C   0  0  0  0  0  0  0  0  0  0  0  0
   13.2006  -13.7140   21.0930 O   0  0  0  0  0  0  0  0  0  0  0  0
   16.4864  -14.1833   18.2260 O   0  0  0  0  0  0  0  0  0  0  0  0
   13.3418  -16.3155   25.3753 N   0  0  0  0  0  0  0  0  0  0  0  0
   12.4242  -17.1133   24.6461 C   0  0  0  0  0  0  0  0  0  0  0  0
   11.6524  -17.9063   25.2741 O   0  0  0  0  0  0  0  0  0  0  0  0
   12.3128  -17.0720   23.1726 C   0  0  0  0  0  0  0  0  0  0  0  0
   13.2882  -16.0685   22.5928 C   0  0  2  0  0  0  0  0  0  0  0  0
   13.2390  -16.0034   21.1627 N   0  0  0  0  0  0  0  0  0  0  0  0
   14.6618  -16.4997   23.0163 C   0  0  0  0  0  0  0  0  0  0  0  0
   15.0229  -16.3526   24.2067 O   0  0  0  0  0  0  0  0  0  0  0  0
   15.5291  -17.0560   22.1092 O   0  0  0  0  0  0  0  0  0  0  0  0
  2  1  1  1
  2  4  1  0
  3  2  1  0
  4  6  1  0
  4  5  1  1
  6  7  2  0
  8  9  1  0
  8  6  1  0
  9 10  1  6
 10 11  1  0
 11 12  2  0
 11 15  1  0
 13 14  2  0
 13  9  1  0
 16 17  1  0
 17 18  2  0
 17 19  1  0
 20 19  1  6
 20 22  1  0
 20 21  1  0
 21 13  1  0
 22 24  1  0
 23 22  2  0
M  END
$$$$
