VDN.pdb
     RDKit          3D

 24 23  0  0  1  0  0  0  0  0999 V2000
    7.3161  -12.6099   18.8501 C   0  0  0  0  0  0  0  0  0  0  0  0
    7.5050  -13.4987   20.0857 C   0  0  2  0  0  0  0  0  0  0  0  0
    8.3077  -12.7384   21.0817 C   0  0  0  0  0  0  0  0  0  0  0  0
    8.0980  -14.7755   19.6196 C   0  0  2  0  0  0  0  0  0  0  0  0
    7.2234  -15.3646   18.6133 N   0  0  0  0  0  0  0  0  0  0  0  0
    8.4980  -15.7125   20.6511 C   0  0  0  0  0  0  0  0  0  0  0  0
    7.6850  -16.5168   21.1500 O   0  0  0  0  0  0  0  0  0  0  0  0
    9.8249  -15.7436   21.1261 N   0  0  0  0  0  0  0  0  0  0  0  0
   10.2682  -16.6552   22.1981 C   0  0  1  0  0  0  0  0  0  0  0  0
   11.6886  -17.0187   21.8741 C   0  0  0  0  0  0  0  0  0  0  0  0
   12.2992  -17.9463   22.8317 C   0  0  0  0  0  0  0  0  0  0  0  0
   13.4154  -17.6630   23.3473 O   0  0  0  0  0  0  0  0  0  0  0  0
   10.0656  -16.0585   23.5175 C   0  0  0  0  0  0  0  0  0  0  0  0
   10.7772  -15.1169   23.9211 O   0  0  0  0  0  0  0  0  0  0  0  0
   11.6433  -19.1196   23.1581 O   0  0  0  0  0  0  0  0  0  0  0  0
    6.1491  -13.4896   25.7840 N   0  0  0  0  0  0  0  0  0  0  0  0
    7.3784  -14.1665   25.9859 C   0  0  0  0  0  0  0  0  0  0  0  0
    8.4489  -13.4901   26.1096 O   0  0  0  0  0  0  0  0  0  0  0  0
    7.4853  -15.6390   26.0632 C   0  0  0  0  0  0  0  0  0  0  0  0
    8.8955  -16.0882   25.7404 C   0  0  2  0  0  0  0  0  0  0  0  0
    9.0428  -16.5386   24.3886 N   0  0  0  0  0  0  0  0  0  0  0  0
    9.2170  -17.2204   26.6714 C   0  0  0  0  0  0  0  0  0  0  0  0
    9.4997  -18.3491   26.2072 O   0  0  0  0  0  0  0  0  0  0  0  0
    9.2048  -17.0308   28.0309 O   0  0  0  0  0  0  0  0  0  0  0  0
  2  1  1  6
  2  4  1  0
  3  2  1  0
  4  6  1  0
  4  5  1  6
  6  7  2  0
  8  9  1  0
  8  6  1  0
  9 10  1  6
 10 11  1  0
 11 12  2  0
 11 15  1  0
 13 14  2  0
 13  9  1  0
 16 17  1  0
 17 18  2  0
 17 19  1  0
 20 19  1  6
 20 22  1  0
 20 21  1  0
 21 13  1  0
 22 24  1  0
 23 22  2  0
M  END
$$$$
