YRT.pdb
     RDKit          3D

 31 31  0  0  1  0  0  0  0  0999 V2000
    9.9717  -13.9953   30.9334 O   0  0  0  0  0  0  0  0  0  0  0  0
    9.8185  -14.3441   29.5947 C   0  0  0  0  0  0  0  0  0  0  0  0
   10.3581  -15.5426   29.1567 C   0  0  0  0  0  0  0  0  0  0  0  0
   10.2464  -15.9524   27.8503 C   0  0  0  0  0  0  0  0  0  0  0  0
    9.5796  -15.1551   26.9403 C   0  0  0  0  0  0  0  0  0  0  0  0
    9.4269  -15.5390   25.5287 C   0  0  0  0  0  0  0  0  0  0  0  0
    7.9747  -15.9224   25.2436 C   0  0  2  0  0  0  0  0  0  0  0  0
    7.6105  -17.1058   25.9587 N   0  0  0  0  0  0  0  0  0  0  0  0
    7.7697  -16.0875   23.7692 C   0  0  0  0  0  0  0  0  0  0  0  0
    7.7405  -17.2213   23.2300 O   0  0  0  0  0  0  0  0  0  0  0  0
    9.0450  -13.9596   27.3915 C   0  0  0  0  0  0  0  0  0  0  0  0
    9.1566  -13.5495   28.6981 C   0  0  0  0  0  0  0  0  0  0  0  0
    7.1783  -12.4405   16.0568 N   0  0  0  0  0  0  0  0  0  0  0  0
    7.9285  -13.6136   16.2941 C   0  0  0  0  0  0  0  0  0  0  0  0
    9.0375  -13.7752   15.6523 N   0  0  0  0  0  0  0  0  0  0  0  0
    7.5329  -14.6292   17.2004 N   0  0  0  0  0  0  0  0  0  0  0  0
    7.0604  -14.2846   18.5395 C   0  0  0  0  0  0  0  0  0  0  0  0
    8.1821  -13.7603   19.3945 C   0  0  0  0  0  0  0  0  0  0  0  0
    7.7208  -13.7079   20.8343 C   0  0  0  0  0  0  0  0  0  0  0  0
    7.9802  -15.0391   21.5277 C   0  0  2  0  0  0  0  0  0  0  0  0
    7.5992  -14.9640   22.9166 N   0  0  0  0  0  0  0  0  0  0  0  0
    9.3834  -15.4716   21.3510 C   0  0  0  0  0  0  0  0  0  0  0  0
   10.3420  -14.8281   21.8521 O   0  0  0  0  0  0  0  0  0  0  0  0
    9.6959  -14.5566   15.8283 C   0  0  0  0  0  0  0  0  0  0  0  0
   11.2632  -18.5978   22.3512 C   0  0  2  0  0  0  0  0  0  0  0  0
   11.2385  -18.5084   20.8396 O   0  0  0  0  0  0  0  0  0  0  0  0
   10.0843  -19.2152   20.4322 C   0  0  2  0  0  0  0  0  0  0  0  0
   11.0225  -17.0767   20.4094 N   0  0  0  0  0  0  0  0  0  0  0  0
    9.6835  -16.6265   20.6096 C   0  0  0  0  0  0  0  0  0  0  0  0
   11.3639  -16.9849   18.9803 O   0  0  0  0  0  0  0  0  0  0  0  0
   10.4675  -16.7915   18.1359 O   0  0  0  0  0  0  0  0  0  0  0  0
  2 12  2  0
  2  1  1  0
  3  2  1  0
  4  5  1  0
  4  3  2  0
  5 11  2  0
  6  5  1  0
  7  6  1  0
  7  8  1  1
  9 21  1  0
  9  7  1  0
 10  9  2  0
 11 12  1  0
 13 14  1  0
 14 15  2  0
 16 14  1  0
 16 17  1  0
 18 17  1  0
 19 18  1  0
 20 19  1  1
 20 21  1  0
 22 20  1  0
 22 28  1  0
 23 22  2  0
 25 24  1  6
 25 27  1  0
 26 25  1  0
 27 28  1  6
 27 29  1  0
 29 30  2  0
 29 31  1  0
M  END
$$$$
