YRT.pdb
     RDKit          3D

 31 31  0  0  1  0  0  0  0  0999 V2000
    8.4724  -12.7404   16.7496 O   0  0  0  0  0  0  0  0  0  0  0  0
    8.2056  -13.1588   18.0500 C   0  0  0  0  0  0  0  0  0  0  0  0
    9.2035  -13.8149   18.7524 C   0  0  0  0  0  0  0  0  0  0  0  0
    9.0126  -14.2564   20.0392 C   0  0  0  0  0  0  0  0  0  0  0  0
    7.7961  -14.0457   20.6590 C   0  0  0  0  0  0  0  0  0  0  0  0
    7.5310  -14.4947   22.0343 C   0  0  0  0  0  0  0  0  0  0  0  0
    7.4657  -16.0213   22.0842 C   0  0  2  0  0  0  0  0  0  0  0  0
    6.2242  -16.4955   21.5568 N   0  0  0  0  0  0  0  0  0  0  0  0
    7.6827  -16.4965   23.4878 C   0  0  0  0  0  0  0  0  0  0  0  0
    6.7774  -16.4265   24.3554 O   0  0  0  0  0  0  0  0  0  0  0  0
    6.8073  -13.3886   19.9454 C   0  0  0  0  0  0  0  0  0  0  0  0
    6.9980  -12.9468   18.6584 C   0  0  0  0  0  0  0  0  0  0  0  0
   10.6039  -23.8437   24.0739 N   0  0  0  0  0  0  0  0  0  0  0  0
    9.3647  -23.4023   23.5593 C   0  0  0  0  0  0  0  0  0  0  0  0
    8.6663  -24.2232   22.8477 N   0  0  0  0  0  0  0  0  0  0  0  0
    8.8402  -22.1040   23.7797 N   0  0  0  0  0  0  0  0  0  0  0  0
    9.5871  -21.1269   24.5688 C   0  0  0  0  0  0  0  0  0  0  0  0
    8.9086  -19.7839   24.5564 C   0  0  0  0  0  0  0  0  0  0  0  0
    9.7291  -18.8101   25.3733 C   0  0  0  0  0  0  0  0  0  0  0  0
    9.1452  -17.4066   25.2769 C   0  0  2  0  0  0  0  0  0  0  0  0
    8.9262  -17.0481   23.8972 N   0  0  0  0  0  0  0  0  0  0  0  0
    9.9915  -16.4234   25.9870 C   0  0  0  0  0  0  0  0  0  0  0  0
   11.0389  -15.9557   25.4689 O   0  0  0  0  0  0  0  0  0  0  0  0
    7.7583  -23.9782   22.4115 C   0  0  0  0  0  0  0  0  0  0  0  0
    9.5713  -12.9905   26.9502 C   0  0  2  0  0  0  0  0  0  0  0  0
    9.7494  -13.7378   28.2553 O   0  0  0  0  0  0  0  0  0  0  0  0
    8.4451  -14.0612   28.6934 C   0  0  2  0  0  0  0  0  0  0  0  0
   10.4429  -15.0563   28.0061 N   0  0  0  0  0  0  0  0  0  0  0  0
    9.6416  -15.9824   27.2741 C   0  0  0  0  0  0  0  0  0  0  0  0
   10.7880  -15.6324   29.3161 O   0  0  0  0  0  0  0  0  0  0  0  0
   10.3171  -16.7355   29.6562 O   0  0  0  0  0  0  0  0  0  0  0  0
  2 12  2  0
  2  1  1  0
  3  2  1  0
  4  5  1  0
  4  3  2  0
  5 11  2  0
  6  5  1  0
  7  6  1  0
  7  8  1  1
  9 21  1  0
  9  7  1  0
 10  9  2  0
 11 12  1  0
 13 14  1  0
 14 15  2  0
 16 14  1  0
 16 17  1  0
 18 17  1  0
 19 18  1  0
 20 19  1  6
 20 21  1  0
 22 20  1  0
 22 28  1  0
 23 22  2  0
 25 24  1  1
 25 27  1  0
 26 25  1  0
 27 28  1  1
 27 29  1  0
 29 30  2  0
 29 31  1  0
M  END
$$$$
