YRT.pdb
     RDKit          3D

 31 31  0  0  1  0  0  0  0  0999 V2000
    6.4604  -10.1379   27.1237 O   0  0  0  0  0  0  0  0  0  0  0  0
    6.3233  -11.3818   26.5144 C   0  0  0  0  0  0  0  0  0  0  0  0
    6.2464  -12.5078   27.3178 C   0  0  0  0  0  0  0  0  0  0  0  0
    6.1106  -13.7677   26.7875 C   0  0  0  0  0  0  0  0  0  0  0  0
    6.0480  -13.9274   25.4167 C   0  0  0  0  0  0  0  0  0  0  0  0
    5.9030  -15.2497   24.7892 C   0  0  0  0  0  0  0  0  0  0  0  0
    7.2141  -16.0286   24.8985 C   0  0  2  0  0  0  0  0  0  0  0  0
    8.1378  -15.3532   25.7556 N   0  0  0  0  0  0  0  0  0  0  0  0
    7.7922  -16.2499   23.5347 C   0  0  0  0  0  0  0  0  0  0  0  0
    7.2746  -17.0546   22.7213 O   0  0  0  0  0  0  0  0  0  0  0  0
    6.1261  -12.7933   24.6252 C   0  0  0  0  0  0  0  0  0  0  0  0
    6.2619  -11.5330   25.1554 C   0  0  0  0  0  0  0  0  0  0  0  0
    7.6382  -12.6716   16.3957 N   0  0  0  0  0  0  0  0  0  0  0  0
    7.7090  -14.0713   16.5712 C   0  0  0  0  0  0  0  0  0  0  0  0
    7.0959  -14.8296   15.7243 N   0  0  0  0  0  0  0  0  0  0  0  0
    8.4175  -14.6957   17.6283 N   0  0  0  0  0  0  0  0  0  0  0  0
    9.2498  -13.9042   18.5317 C   0  0  0  0  0  0  0  0  0  0  0  0
    9.9309  -14.7778   19.5502 C   0  0  0  0  0  0  0  0  0  0  0  0
    9.2611  -14.5831   20.8926 C   0  0  0  0  0  0  0  0  0  0  0  0
    9.4978  -15.7921   21.7885 C   0  0  2  0  0  0  0  0  0  0  0  0
    8.9545  -15.5560   23.1035 N   0  0  0  0  0  0  0  0  0  0  0  0
   10.9302  -16.1582   21.8281 C   0  0  0  0  0  0  0  0  0  0  0  0
   11.8276  -15.3600   21.4518 O   0  0  0  0  0  0  0  0  0  0  0  0
    7.1889  -15.8620   15.7033 C   0  0  0  0  0  0  0  0  0  0  0  0
   13.2275  -17.0794   24.6235 C   0  0  2  0  0  0  0  0  0  0  0  0
   13.1562  -18.2702   23.6905 O   0  0  0  0  0  0  0  0  0  0  0  0
   12.1273  -19.0951   24.1990 C   0  0  2  0  0  0  0  0  0  0  0  0
   12.6959  -17.8281   22.3215 N   0  0  0  0  0  0  0  0  0  0  0  0
   11.3282  -17.4227   22.2930 C   0  0  0  0  0  0  0  0  0  0  0  0
   12.8934  -18.9581   21.3989 O   0  0  0  0  0  0  0  0  0  0  0  0
   11.9109  -19.4951   20.8507 O   0  0  0  0  0  0  0  0  0  0  0  0
  2 12  2  0
  2  1  1  0
  3  2  1  0
  4  5  1  0
  4  3  2  0
  5 11  2  0
  6  5  1  0
  7  6  1  0
  7  8  1  1
  9 21  1  0
  9  7  1  0
 10  9  2  0
 11 12  1  0
 13 14  1  0
 14 15  2  0
 16 14  1  0
 16 17  1  0
 18 17  1  0
 19 18  1  0
 20 19  1  6
 20 21  1  0
 22 20  1  0
 22 28  1  0
 23 22  2  0
 25 24  1  1
 25 27  1  0
 26 25  1  0
 27 28  1  6
 27 29  1  0
 29 30  2  0
 29 31  1  0
M  END
$$$$
