YRT.pdb
     RDKit          3D

 31 31  0  0  1  0  0  0  0  0999 V2000
   10.2806  -13.7037   29.7975 O   0  0  0  0  0  0  0  0  0  0  0  0
    9.4664  -14.2968   28.8371 C   0  0  0  0  0  0  0  0  0  0  0  0
    8.6914  -13.4798   28.0300 C   0  0  0  0  0  0  0  0  0  0  0  0
    7.8642  -13.9939   27.0611 C   0  0  0  0  0  0  0  0  0  0  0  0
    7.7958  -15.3615   26.8784 C   0  0  0  0  0  0  0  0  0  0  0  0
    6.9296  -15.9718   25.8583 C   0  0  0  0  0  0  0  0  0  0  0  0
    7.7646  -16.8254   24.9037 C   0  0  2  0  0  0  0  0  0  0  0  0
    9.1140  -16.9326   25.3641 N   0  0  0  0  0  0  0  0  0  0  0  0
    7.7008  -16.2557   23.5200 C   0  0  0  0  0  0  0  0  0  0  0  0
    6.8703  -16.6694   22.6738 O   0  0  0  0  0  0  0  0  0  0  0  0
    8.5758  -16.1666   27.6921 C   0  0  0  0  0  0  0  0  0  0  0  0
    9.4032  -15.6527   28.6611 C   0  0  0  0  0  0  0  0  0  0  0  0
    8.5474  -14.9385   17.3803 N   0  0  0  0  0  0  0  0  0  0  0  0
    7.5400  -13.9848   17.1143 C   0  0  0  0  0  0  0  0  0  0  0  0
    6.7929  -14.1525   16.0743 N   0  0  0  0  0  0  0  0  0  0  0  0
    7.3000  -12.8482   17.9267 N   0  0  0  0  0  0  0  0  0  0  0  0
    8.0527  -12.6487   19.1632 C   0  0  0  0  0  0  0  0  0  0  0  0
    7.7948  -13.7612   20.1430 C   0  0  0  0  0  0  0  0  0  0  0  0
    8.9066  -13.7814   21.1689 C   0  0  0  0  0  0  0  0  0  0  0  0
    9.0717  -15.1793   21.7508 C   0  0  2  0  0  0  0  0  0  0  0  0
    8.5806  -15.2198   23.1062 N   0  0  0  0  0  0  0  0  0  0  0  0
   10.4723  -15.6425   21.6450 C   0  0  0  0  0  0  0  0  0  0  0  0
   11.1526  -15.4590   20.6020 O   0  0  0  0  0  0  0  0  0  0  0  0
    6.0607  -13.4812   15.7771 C   0  0  0  0  0  0  0  0  0  0  0  0
   13.3745  -15.8819   24.6083 C   0  0  2  0  0  0  0  0  0  0  0  0
   13.0207  -17.1925   23.9371 O   0  0  0  0  0  0  0  0  0  0  0  0
   12.0276  -17.7843   24.7503 C   0  0  2  0  0  0  0  0  0  0  0  0
   12.3631  -16.9297   22.6030 N   0  0  0  0  0  0  0  0  0  0  0  0
   11.0846  -16.3071   22.7204 C   0  0  0  0  0  0  0  0  0  0  0  0
   12.2191  -18.2231   21.9150 O   0  0  0  0  0  0  0  0  0  0  0  0
   11.0842  -18.6673   21.6525 O   0  0  0  0  0  0  0  0  0  0  0  0
  2 12  2  0
  2  1  1  0
  3  2  1  0
  4  5  1  0
  4  3  2  0
  5 11  2  0
  6  5  1  0
  7  6  1  0
  7  8  1  1
  9 21  1  0
  9  7  1  0
 10  9  2  0
 11 12  1  0
 13 14  1  0
 14 15  2  0
 16 14  1  0
 16 17  1  0
 18 17  1  0
 19 18  1  0
 20 19  1  1
 20 21  1  0
 22 20  1  0
 22 28  1  0
 23 22  2  0
 25 24  1  1
 25 27  1  0
 26 25  1  0
 27 28  1  6
 27 29  1  0
 29 30  2  0
 29 31  1  0
M  END
$$$$
