YRT.pdb
     RDKit          3D

 31 31  0  0  1  0  0  0  0  0999 V2000
    6.0516  -10.5232   28.1060 O   0  0  0  0  0  0  0  0  0  0  0  0
    6.5561  -11.6980   27.5559 C   0  0  0  0  0  0  0  0  0  0  0  0
    5.9089  -12.2480   26.4614 C   0  0  0  0  0  0  0  0  0  0  0  0
    6.3492  -13.4051   25.8661 C   0  0  0  0  0  0  0  0  0  0  0  0
    7.4670  -14.0458   26.3646 C   0  0  0  0  0  0  0  0  0  0  0  0
    7.9868  -15.2870   25.7709 C   0  0  0  0  0  0  0  0  0  0  0  0
    6.8711  -16.0186   25.0243 C   0  0  2  0  0  0  0  0  0  0  0  0
    6.3541  -17.0957   25.8095 N   0  0  0  0  0  0  0  0  0  0  0  0
    7.3735  -16.4988   23.6976 C   0  0  0  0  0  0  0  0  0  0  0  0
    7.6387  -17.7087   23.4911 O   0  0  0  0  0  0  0  0  0  0  0  0
    8.1045  -13.4851   27.4591 C   0  0  0  0  0  0  0  0  0  0  0  0
    7.6643  -12.3278   28.0548 C   0  0  0  0  0  0  0  0  0  0  0  0
    8.1186  -12.9059   17.7655 N   0  0  0  0  0  0  0  0  0  0  0  0
    8.1284  -13.8225   16.6909 C   0  0  0  0  0  0  0  0  0  0  0  0
    8.7967  -13.5182   15.6285 N   0  0  0  0  0  0  0  0  0  0  0  0
    7.4437  -15.0635   16.7106 N   0  0  0  0  0  0  0  0  0  0  0  0
    7.1920  -15.7511   17.9752 C   0  0  0  0  0  0  0  0  0  0  0  0
    8.3456  -15.5812   18.9263 C   0  0  0  0  0  0  0  0  0  0  0  0
    7.8210  -15.0715   20.2506 C   0  0  0  0  0  0  0  0  0  0  0  0
    8.0950  -16.0806   21.3583 C   0  0  2  0  0  0  0  0  0  0  0  0
    7.5716  -15.6017   22.6139 N   0  0  0  0  0  0  0  0  0  0  0  0
    9.5340  -16.4126   21.4376 C   0  0  0  0  0  0  0  0  0  0  0  0
   10.1764  -16.8151   20.4328 O   0  0  0  0  0  0  0  0  0  0  0  0
    8.8261  -14.1099   14.7776 C   0  0  0  0  0  0  0  0  0  0  0  0
   12.1527  -14.7460   24.2842 C   0  0  2  0  0  0  0  0  0  0  0  0
   12.1902  -16.2513   24.1219 O   0  0  0  0  0  0  0  0  0  0  0  0
   11.3091  -16.7648   25.1005 C   0  0  2  0  0  0  0  0  0  0  0  0
   11.6019  -16.6426   22.7869 N   0  0  0  0  0  0  0  0  0  0  0  0
   10.2272  -16.2847   22.6527 C   0  0  0  0  0  0  0  0  0  0  0  0
   11.7465  -18.1009   22.6468 O   0  0  0  0  0  0  0  0  0  0  0  0
   10.7355  -18.8185   22.5158 O   0  0  0  0  0  0  0  0  0  0  0  0
  2 12  2  0
  2  1  1  0
  3  2  1  0
  4  5  1  0
  4  3  2  0
  5 11  2  0
  6  5  1  0
  7  6  1  0
  7  8  1  1
  9 21  1  0
  9  7  1  0
 10  9  2  0
 11 12  1  0
 13 14  1  0
 14 15  2  0
 16 14  1  0
 16 17  1  0
 18 17  1  0
 19 18  1  0
 20 19  1  6
 20 21  1  0
 22 20  1  0
 22 28  1  0
 23 22  2  0
 25 24  1  1
 25 27  1  0
 26 25  1  0
 27 28  1  6
 27 29  1  0
 29 30  2  0
 29 31  1  0
M  END
$$$$
