YRT.pdb
     RDKit          3D

 31 31  0  0  1  0  0  0  0  0999 V2000
    7.0339  -12.1811   17.3951 O   0  0  0  0  0  0  0  0  0  0  0  0
    7.4666  -12.8046   18.5618 C   0  0  0  0  0  0  0  0  0  0  0  0
    6.5165  -13.2449   19.4689 C   0  0  0  0  0  0  0  0  0  0  0  0
    6.8689  -13.8685   20.6411 C   0  0  0  0  0  0  0  0  0  0  0  0
    8.2045  -14.0670   20.9331 C   0  0  0  0  0  0  0  0  0  0  0  0
    8.6445  -14.7279   22.1712 C   0  0  0  0  0  0  0  0  0  0  0  0
    9.0650  -16.1678   21.8761 C   0  0  2  0  0  0  0  0  0  0  0  0
    7.9851  -16.9056   21.2984 N   0  0  0  0  0  0  0  0  0  0  0  0
    9.5676  -16.8201   23.1272 C   0  0  0  0  0  0  0  0  0  0  0  0
    8.7850  -17.2048   24.0308 O   0  0  0  0  0  0  0  0  0  0  0  0
    9.1439  -13.6219   20.0175 C   0  0  0  0  0  0  0  0  0  0  0  0
    8.7917  -12.9982   18.8450 C   0  0  0  0  0  0  0  0  0  0  0  0
   14.3381  -18.1033   20.2782 N   0  0  0  0  0  0  0  0  0  0  0  0
   14.1583  -19.4996   20.1632 C   0  0  0  0  0  0  0  0  0  0  0  0
   14.1695  -20.0266   18.9842 N   0  0  0  0  0  0  0  0  0  0  0  0
   13.9650  -20.3607   21.2725 N   0  0  0  0  0  0  0  0  0  0  0  0
   13.9221  -19.8222   22.6303 C   0  0  0  0  0  0  0  0  0  0  0  0
   12.6890  -18.9871   22.8460 C   0  0  0  0  0  0  0  0  0  0  0  0
   12.6840  -18.4749   24.2695 C   0  0  0  0  0  0  0  0  0  0  0  0
   11.4145  -17.6803   24.5473 C   0  0  2  0  0  0  0  0  0  0  0  0
   10.9557  -17.0311   23.3440 N   0  0  0  0  0  0  0  0  0  0  0  0
   11.6108  -16.7279   25.6616 C   0  0  0  0  0  0  0  0  0  0  0  0
   12.4960  -15.8341   25.6197 O   0  0  0  0  0  0  0  0  0  0  0  0
   13.9795  -21.0290   18.7998 C   0  0  0  0  0  0  0  0  0  0  0  0
   10.0216  -13.9236   26.9753 C   0  0  2  0  0  0  0  0  0  0  0  0
    9.9651  -14.9078   28.1250 O   0  0  0  0  0  0  0  0  0  0  0  0
    8.7234  -15.5716   28.0012 C   0  0  2  0  0  0  0  0  0  0  0  0
   11.0237  -15.9706   27.9489 N   0  0  0  0  0  0  0  0  0  0  0  0
   10.8028  -16.7993   26.8085 C   0  0  0  0  0  0  0  0  0  0  0  0
   11.0295  -16.7994   29.1656 O   0  0  0  0  0  0  0  0  0  0  0  0
   10.7792  -18.0184   29.0913 O   0  0  0  0  0  0  0  0  0  0  0  0
  2 12  2  0
  2  1  1  0
  3  2  1  0
  4  5  1  0
  4  3  2  0
  5 11  2  0
  6  5  1  0
  7  6  1  0
  7  8  1  1
  9 21  1  0
  9  7  1  0
 10  9  2  0
 11 12  1  0
 13 14  1  0
 14 15  2  0
 16 14  1  0
 16 17  1  0
 18 17  1  0
 19 18  1  0
 20 19  1  6
 20 21  1  0
 22 20  1  0
 22 28  1  0
 23 22  2  0
 25 24  1  1
 25 27  1  0
 26 25  1  0
 27 28  1  1
 27 29  1  0
 29 30  2  0
 29 31  1  0
M  END
$$$$
