YRT.pdb
     RDKit          3D

 31 31  0  0  1  0  0  0  0  0999 V2000
   21.2234  -18.5756    8.1016 O   0  0  0  0  0  0  0  0  0  0  0  0
   20.7652  -18.6406    9.4143 C   0  0  0  0  0  0  0  0  0  0  0  0
   21.0007  -17.5625   10.2520 C   0  0  0  0  0  0  0  0  0  0  0  0
   20.5782  -17.5556   11.5591 C   0  0  0  0  0  0  0  0  0  0  0  0
   19.8990  -18.6484   12.0620 C   0  0  0  0  0  0  0  0  0  0  0  0
   19.4216  -18.7005   13.4523 C   0  0  0  0  0  0  0  0  0  0  0  0
   18.0263  -18.0836   13.5511 C   0  0  2  0  0  0  0  0  0  0  0  0
   18.0597  -16.6928   13.2213 N   0  0  0  0  0  0  0  0  0  0  0  0
   17.4636  -18.3093   14.9206 C   0  0  0  0  0  0  0  0  0  0  0  0
   16.3785  -17.7905   15.2818 O   0  0  0  0  0  0  0  0  0  0  0  0
   19.6703  -19.7193   11.2138 C   0  0  0  0  0  0  0  0  0  0  0  0
   20.0928  -19.7265    9.9063 C   0  0  0  0  0  0  0  0  0  0  0  0
   11.3722  -21.9422   17.8731 N   0  0  0  0  0  0  0  0  0  0  0  0
   11.7931  -20.9220   18.7546 C   0  0  0  0  0  0  0  0  0  0  0  0
   10.9157  -20.3788   19.5311 N   0  0  0  0  0  0  0  0  0  0  0  0
   13.1297  -20.4571   18.8371 N   0  0  0  0  0  0  0  0  0  0  0  0
   14.1713  -21.0424   17.9957 C   0  0  0  0  0  0  0  0  0  0  0  0
   15.5049  -20.3933   18.2495 C   0  0  0  0  0  0  0  0  0  0  0  0
   16.1688  -20.0972   16.9227 C   0  0  0  0  0  0  0  0  0  0  0  0
   17.5187  -19.4253   17.1386 C   0  0  2  0  0  0  0  0  0  0  0  0
   18.1368  -19.1227   15.8711 N   0  0  0  0  0  0  0  0  0  0  0  0
   18.3910  -20.2417   18.0102 C   0  0  0  0  0  0  0  0  0  0  0  0
   18.0768  -20.5052   19.2002 O   0  0  0  0  0  0  0  0  0  0  0  0
   11.1358  -19.6298   20.2134 C   0  0  0  0  0  0  0  0  0  0  0  0
   20.3813  -18.3356   19.3218 C   0  0  2  0  0  0  0  0  0  0  0  0
   21.1762  -18.9954   18.2144 O   0  0  0  0  0  0  0  0  0  0  0  0
   22.5305  -18.9069   18.6090 C   0  0  1  0  0  0  0  0  0  0  0  0
   20.8560  -20.4704   18.1559 N   0  0  0  0  0  0  0  0  0  0  0  0
   19.6074  -20.7490   17.5241 C   0  0  0  0  0  0  0  0  0  0  0  0
   20.8315  -20.9759   19.5382 O   0  0  0  0  0  0  0  0  0  0  0  0
   21.8761  -21.4094   20.0626 O   0  0  0  0  0  0  0  0  0  0  0  0
  2 12  2  0
  2  1  1  0
  3  2  1  0
  4  5  1  0
  4  3  2  0
  5 11  2  0
  6  5  1  0
  7  6  1  0
  7  8  1  1
  9 21  1  0
  9  7  1  0
 10  9  2  0
 11 12  1  0
 13 14  1  0
 14 15  2  0
 16 14  1  0
 16 17  1  0
 18 17  1  0
 19 18  1  0
 20 19  1  6
 20 21  1  0
 22 20  1  0
 22 28  1  0
 23 22  2  0
 25 24  1  6
 25 27  1  0
 26 25  1  0
 27 28  1  6
 27 29  1  0
 29 30  2  0
 29 31  1  0
M  END
$$$$
