YRT.pdb
     RDKit          3D

 31 31  0  0  1  0  0  0  0  0999 V2000
    5.8057  -10.1724   27.2904 O   0  0  0  0  0  0  0  0  0  0  0  0
    6.3487  -11.4144   26.9747 C   0  0  0  0  0  0  0  0  0  0  0  0
    6.6542  -12.2856   28.0078 C   0  0  0  0  0  0  0  0  0  0  0  0
    7.1923  -13.5274   27.7724 C   0  0  0  0  0  0  0  0  0  0  0  0
    7.4397  -13.9284   26.4738 C   0  0  0  0  0  0  0  0  0  0  0  0
    8.0143  -15.2449   26.1578 C   0  0  0  0  0  0  0  0  0  0  0  0
    7.0002  -16.0877   25.3840 C   0  0  2  0  0  0  0  0  0  0  0  0
    6.7100  -17.3020   26.0806 N   0  0  0  0  0  0  0  0  0  0  0  0
    7.5085  -16.3566   24.0011 C   0  0  0  0  0  0  0  0  0  0  0  0
    8.2229  -17.3568   23.7436 O   0  0  0  0  0  0  0  0  0  0  0  0
    7.1296  -13.0477   25.4506 C   0  0  0  0  0  0  0  0  0  0  0  0
    6.5914  -11.8056   25.6857 C   0  0  0  0  0  0  0  0  0  0  0  0
    7.7796  -15.7235   16.7422 N   0  0  0  0  0  0  0  0  0  0  0  0
    8.4939  -14.5471   16.4242 C   0  0  0  0  0  0  0  0  0  0  0  0
    9.1110  -14.4891   15.2912 N   0  0  0  0  0  0  0  0  0  0  0  0
    8.5732  -13.4205   17.2808 N   0  0  0  0  0  0  0  0  0  0  0  0
    7.8432  -13.3988   18.5465 C   0  0  0  0  0  0  0  0  0  0  0  0
    8.3955  -14.4133   19.5109 C   0  0  0  0  0  0  0  0  0  0  0  0
    7.5689  -14.3892   20.7778 C   0  0  0  0  0  0  0  0  0  0  0  0
    8.0184  -15.4895   21.7304 C   0  0  2  0  0  0  0  0  0  0  0  0
    7.2022  -15.4880   22.9194 N   0  0  0  0  0  0  0  0  0  0  0  0
    9.4608  -15.3777   22.0369 C   0  0  0  0  0  0  0  0  0  0  0  0
    9.9014  -14.5146   22.8402 O   0  0  0  0  0  0  0  0  0  0  0  0
    9.6254  -13.6529   14.9579 C   0  0  0  0  0  0  0  0  0  0  0  0
   11.7997  -18.8010   21.6773 C   0  0  2  0  0  0  0  0  0  0  0  0
   12.0569  -17.6170   22.5860 O   0  0  0  0  0  0  0  0  0  0  0  0
   13.4515  -17.6048   22.8150 C   0  0  1  0  0  0  0  0  0  0  0  0
   11.7437  -16.3300   21.8601 N   0  0  0  0  0  0  0  0  0  0  0  0
   10.3858  -16.2439   21.4307 C   0  0  0  0  0  0  0  0  0  0  0  0
   12.6353  -16.2497   20.6914 O   0  0  0  0  0  0  0  0  0  0  0  0
   13.8490  -16.0114   20.8477 O   0  0  0  0  0  0  0  0  0  0  0  0
  2 12  2  0
  2  1  1  0
  3  2  1  0
  4  5  1  0
  4  3  2  0
  5 11  2  0
  6  5  1  0
  7  6  1  0
  7  8  1  1
  9 21  1  0
  9  7  1  0
 10  9  2  0
 11 12  1  0
 13 14  1  0
 14 15  2  0
 16 14  1  0
 16 17  1  0
 18 17  1  0
 19 18  1  0
 20 19  1  6
 20 21  1  0
 22 20  1  0
 22 28  1  0
 23 22  2  0
 25 24  1  1
 25 27  1  0
 26 25  1  0
 27 28  1  1
 27 29  1  0
 29 30  2  0
 29 31  1  0
M  END
$$$$
