YRT.pdb
     RDKit          3D

 31 31  0  0  1  0  0  0  0  0999 V2000
   10.7216  -15.3148   30.8555 O   0  0  0  0  0  0  0  0  0  0  0  0
   10.2428  -15.1243   29.5625 C   0  0  0  0  0  0  0  0  0  0  0  0
    9.7643  -13.8724   29.2114 C   0  0  0  0  0  0  0  0  0  0  0  0
    9.2765  -13.6103   27.9542 C   0  0  0  0  0  0  0  0  0  0  0  0
    9.2579  -14.6155   27.0067 C   0  0  0  0  0  0  0  0  0  0  0  0
    8.7482  -14.3968   25.6445 C   0  0  0  0  0  0  0  0  0  0  0  0
    7.4690  -15.2054   25.4271 C   0  0  2  0  0  0  0  0  0  0  0  0
    7.4679  -16.3842   26.2362 N   0  0  0  0  0  0  0  0  0  0  0  0
    7.3145  -15.5367   23.9747 C   0  0  0  0  0  0  0  0  0  0  0  0
    6.1859  -15.5889   23.4263 O   0  0  0  0  0  0  0  0  0  0  0  0
    9.7392  -15.8622   27.3711 C   0  0  0  0  0  0  0  0  0  0  0  0
   10.2272  -16.1246   28.6284 C   0  0  0  0  0  0  0  0  0  0  0  0
    7.6419  -12.8132   16.7819 N   0  0  0  0  0  0  0  0  0  0  0  0
    7.8932  -14.1863   16.9973 C   0  0  0  0  0  0  0  0  0  0  0  0
    8.6695  -14.8067   16.1724 N   0  0  0  0  0  0  0  0  0  0  0  0
    7.3402  -14.9272   18.0719 N   0  0  0  0  0  0  0  0  0  0  0  0
    6.8732  -14.2472   19.2780 C   0  0  0  0  0  0  0  0  0  0  0  0
    8.0255  -13.6921   20.0708 C   0  0  0  0  0  0  0  0  0  0  0  0
    7.8664  -14.0965   21.5199 C   0  0  0  0  0  0  0  0  0  0  0  0
    8.4079  -15.5023   21.7451 C   0  0  2  0  0  0  0  0  0  0  0  0
    8.4426  -15.8067   23.1544 N   0  0  0  0  0  0  0  0  0  0  0  0
    9.7257  -15.6798   21.0978 C   0  0  0  0  0  0  0  0  0  0  0  0
   10.6464  -14.8315   21.2284 O   0  0  0  0  0  0  0  0  0  0  0  0
    8.8867  -15.8185   16.2362 C   0  0  0  0  0  0  0  0  0  0  0  0
   10.9155  -19.5470   21.3704 C   0  0  2  0  0  0  0  0  0  0  0  0
   11.2617  -18.8914   20.0498 O   0  0  0  0  0  0  0  0  0  0  0  0
   10.1793  -19.1735   19.1859 C   0  0  2  0  0  0  0  0  0  0  0  0
   11.2863  -17.3895   20.2085 N   0  0  0  0  0  0  0  0  0  0  0  0
    9.9845  -16.8146   20.3113 C   0  0  0  0  0  0  0  0  0  0  0  0
   11.9803  -16.8294   19.0372 O   0  0  0  0  0  0  0  0  0  0  0  0
   11.3624  -16.1032   18.2341 O   0  0  0  0  0  0  0  0  0  0  0  0
  2 12  2  0
  2  1  1  0
  3  2  1  0
  4  5  1  0
  4  3  2  0
  5 11  2  0
  6  5  1  0
  7  6  1  0
  7  8  1  1
  9 21  1  0
  9  7  1  0
 10  9  2  0
 11 12  1  0
 13 14  1  0
 14 15  2  0
 16 14  1  0
 16 17  1  0
 18 17  1  0
 19 18  1  0
 20 19  1  1
 20 21  1  0
 22 20  1  0
 22 28  1  0
 23 22  2  0
 25 24  1  6
 25 27  1  0
 26 25  1  0
 27 28  1  6
 27 29  1  0
 29 30  2  0
 29 31  1  0
M  END
$$$$
