FWQ.pdb
     RDKit          3D

 35 37  0  0  1  0  0  0  0  0999 V2000
   27.3291  -24.8394  -16.1140 N   0  0  0  0  0  0  0  0  0  0  0  0
   25.9829  -25.3244  -16.3748 C   0  0  1  0  0  0  0  0  0  0  0  0
   25.8221  -26.6219  -15.6361 C   0  0  0  0  0  0  0  0  0  0  0  0
   26.5945  -27.6406  -16.3967 C   0  0  0  0  0  0  0  0  0  0  0  0
   27.8120  -28.0769  -15.8807 C   0  0  0  0  0  0  0  0  0  0  0  0
   28.5982  -29.0182  -16.5035 C   0  0  0  0  0  0  0  0  0  0  0  0
   28.1883  -29.5714  -17.6912 C   0  0  0  0  0  0  0  0  0  0  0  0
   26.9747  -29.1415  -18.2124 C   0  0  0  0  0  0  0  0  0  0  0  0
   26.2011  -28.2026  -17.5820 C   0  0  0  0  0  0  0  0  0  0  0  0
   25.0145  -24.2784  -16.0146 C   0  0  0  0  0  0  0  0  0  0  0  0
   25.1330  -23.6565  -14.9302 O   0  0  0  0  0  0  0  0  0  0  0  0
   23.9295  -23.9460  -16.8897 N   0  0  0  0  0  0  0  0  0  0  0  0
   22.9531  -22.9085  -16.6199 C   0  0  1  0  0  0  0  0  0  0  0  0
   22.8533  -21.9827  -17.7919 C   0  0  0  0  0  0  0  0  0  0  0  0
   21.9235  -20.8673  -17.6057 C   0  0  0  0  0  0  0  0  0  0  0  0
   21.8274  -19.9324  -16.6063 C   0  0  0  0  0  0  0  0  0  0  0  0
   20.8007  -19.1232  -16.8787 N   0  0  0  0  0  0  0  0  0  0  0  0
   20.2112  -19.5041  -18.0449 C   0  0  0  0  0  0  0  0  0  0  0  0
   19.1332  -19.0024  -18.7745 C   0  0  0  0  0  0  0  0  0  0  0  0
   18.7862  -19.6182  -19.9548 C   0  0  0  0  0  0  0  0  0  0  0  0
   19.4439  -20.7147  -20.4712 C   0  0  0  0  0  0  0  0  0  0  0  0
   20.5220  -21.2063  -19.7282 C   0  0  0  0  0  0  0  0  0  0  0  0
   20.8906  -20.5932  -18.5236 C   0  0  0  0  0  0  0  0  0  0  0  0
   21.6962  -23.5088  -16.1573 C   0  0  0  0  0  0  0  0  0  0  0  0
   21.2074  -24.5457  -16.7095 O   0  0  0  0  0  0  0  0  0  0  0  0
   17.2949  -26.0824  -12.6430 N   0  0  0  0  0  0  0  0  0  0  0  0
   18.0806  -25.0377  -12.1347 C   0  0  0  0  0  0  0  0  0  0  0  0
   18.8337  -25.2480  -11.1255 O   0  0  0  0  0  0  0  0  0  0  0  0
   18.0630  -23.7044  -12.7450 C   0  0  0  0  0  0  0  0  0  0  0  0
   19.3561  -23.2103  -13.2849 C   0  0  0  0  0  0  0  0  0  0  0  0
   19.6147  -23.5692  -14.6968 C   0  0  2  0  0  0  0  0  0  0  0  0
   20.9347  -22.9980  -15.0783 N   0  0  0  0  0  0  0  0  0  0  0  0
   18.6482  -23.0844  -15.6560 C   0  0  0  0  0  0  0  0  0  0  0  0
   17.7909  -23.7466  -16.3062 O   0  0  0  0  0  0  0  0  0  0  0  0
   18.6078  -21.6983  -15.9506 O   0  0  0  0  0  0  0  0  0  0  0  0
  2  1  1  1
  2  3  1  0
  4  3  1  0
  5  4  2  0
  6  5  1  0
  7  8  1  0
  7  6  2  0
  8  9  2  0
  9  4  1  0
 10  2  1  0
 11 10  2  0
 12 10  1  0
 13 24  1  0
 13 12  1  0
 13 14  1  6
 15 14  1  0
 16 15  2  0
 17 18  1  0
 17 16  1  0
 18 23  2  0
 19 20  2  0
 19 18  1  0
 20 21  1  0
 21 22  2  0
 23 22  1  0
 23 15  1  0
 24 32  1  0
 25 24  2  0
 26 27  1  0
 27 29  1  0
 28 27  2  0
 30 29  1  0
 31 30  1  1
 31 33  1  0
 32 31  1  0
 33 34  2  0
 33 35  1  0
M  END
$$$$
