FWQ.pdb
     RDKit          3D

 35 37  0  0  1  0  0  0  0  0999 V2000
   28.2310  -21.2946  -15.3701 N   0  0  0  0  0  0  0  0  0  0  0  0
   27.9851  -20.2480  -14.3904 C   0  0  1  0  0  0  0  0  0  0  0  0
   27.3129  -19.1119  -15.1061 C   0  0  0  0  0  0  0  0  0  0  0  0
   28.3423  -18.4988  -15.9878 C   0  0  0  0  0  0  0  0  0  0  0  0
   28.1428  -18.5266  -17.3656 C   0  0  0  0  0  0  0  0  0  0  0  0
   29.0308  -17.9832  -18.2647 C   0  0  0  0  0  0  0  0  0  0  0  0
   30.1764  -17.3779  -17.8109 C   0  0  0  0  0  0  0  0  0  0  0  0
   30.3825  -17.3458  -16.4377 C   0  0  0  0  0  0  0  0  0  0  0  0
   29.4900  -17.8913  -15.5527 C   0  0  0  0  0  0  0  0  0  0  0  0
   27.2265  -20.8102  -13.2634 C   0  0  0  0  0  0  0  0  0  0  0  0
   26.1549  -21.4304  -13.4721 O   0  0  0  0  0  0  0  0  0  0  0  0
   27.6948  -20.6684  -11.9164 N   0  0  0  0  0  0  0  0  0  0  0  0
   26.9169  -21.0137  -10.7425 C   0  0  1  0  0  0  0  0  0  0  0  0
   27.7345  -20.8021   -9.5066 C   0  0  0  0  0  0  0  0  0  0  0  0
   26.9527  -20.6961   -8.2733 C   0  0  0  0  0  0  0  0  0  0  0  0
   25.6395  -20.9942   -8.0115 C   0  0  0  0  0  0  0  0  0  0  0  0
   25.3871  -20.7132   -6.7307 N   0  0  0  0  0  0  0  0  0  0  0  0
   26.5125  -20.2327   -6.1346 C   0  0  0  0  0  0  0  0  0  0  0  0
   26.7951  -19.8112   -4.8351 C   0  0  0  0  0  0  0  0  0  0  0  0
   28.0690  -19.3852   -4.5375 C   0  0  0  0  0  0  0  0  0  0  0  0
   29.0995  -19.3472   -5.4531 C   0  0  0  0  0  0  0  0  0  0  0  0
   28.8005  -19.7723   -6.7516 C   0  0  0  0  0  0  0  0  0  0  0  0
   27.5091  -20.2093   -7.0743 C   0  0  0  0  0  0  0  0  0  0  0  0
   25.6156  -20.3364  -10.7844 C   0  0  0  0  0  0  0  0  0  0  0  0
   25.5192  -19.0860  -11.0001 O   0  0  0  0  0  0  0  0  0  0  0  0
   19.3582  -21.9163  -12.5378 N   0  0  0  0  0  0  0  0  0  0  0  0
   20.5513  -21.7737  -13.2610 C   0  0  0  0  0  0  0  0  0  0  0  0
   20.8309  -22.6063  -14.1876 O   0  0  0  0  0  0  0  0  0  0  0  0
   21.4859  -20.6787  -12.9814 C   0  0  0  0  0  0  0  0  0  0  0  0
   22.7945  -21.0642  -12.3924 C   0  0  0  0  0  0  0  0  0  0  0  0
   23.0919  -20.4403  -11.0843 C   0  0  2  0  0  0  0  0  0  0  0  0
   24.3800  -21.0012  -10.5937 N   0  0  0  0  0  0  0  0  0  0  0  0
   22.1102  -20.6581  -10.0460 C   0  0  0  0  0  0  0  0  0  0  0  0
   22.0937  -21.5599   -9.1613 O   0  0  0  0  0  0  0  0  0  0  0  0
   20.9982  -19.7833   -9.9568 O   0  0  0  0  0  0  0  0  0  0  0  0
  2  1  1  6
  2  3  1  0
  4  3  1  0
  5  4  2  0
  6  5  1  0
  7  8  1  0
  7  6  2  0
  8  9  2  0
  9  4  1  0
 10  2  1  0
 11 10  2  0
 12 10  1  0
 13 24  1  0
 13 12  1  0
 13 14  1  1
 15 14  1  0
 16 15  2  0
 17 18  1  0
 17 16  1  0
 18 23  2  0
 19 20  2  0
 19 18  1  0
 20 21  1  0
 21 22  2  0
 23 22  1  0
 23 15  1  0
 24 32  1  0
 25 24  2  0
 26 27  1  0
 27 29  1  0
 28 27  2  0
 30 29  1  0
 31 30  1  6
 31 33  1  0
 32 31  1  0
 33 34  2  0
 33 35  1  0
M  END
$$$$
