FWQ.pdb
     RDKit          3D

 35 37  0  0  1  0  0  0  0  0999 V2000
   27.3896  -22.3369  -11.3241 N   0  0  0  0  0  0  0  0  0  0  0  0
   26.4728  -21.2173  -11.1780 C   0  0  1  0  0  0  0  0  0  0  0  0
   27.3004  -19.9876  -10.9372 C   0  0  0  0  0  0  0  0  0  0  0  0
   27.3516  -19.7939   -9.4632 C   0  0  0  0  0  0  0  0  0  0  0  0
   28.5955  -19.7489   -8.8390 C   0  0  0  0  0  0  0  0  0  0  0  0
   28.7505  -19.5684   -7.4842 C   0  0  0  0  0  0  0  0  0  0  0  0
   27.6442  -19.4225   -6.6846 C   0  0  0  0  0  0  0  0  0  0  0  0
   26.3996  -19.4659   -7.2998 C   0  0  0  0  0  0  0  0  0  0  0  0
   26.2590  -19.6467   -8.6507 C   0  0  0  0  0  0  0  0  0  0  0  0
   25.5941  -21.1560  -12.3553 C   0  0  0  0  0  0  0  0  0  0  0  0
   26.0356  -20.7264  -13.4494 O   0  0  0  0  0  0  0  0  0  0  0  0
   24.2298  -21.5881  -12.2795 N   0  0  0  0  0  0  0  0  0  0  0  0
   23.3220  -21.6233  -13.4096 C   0  0  1  0  0  0  0  0  0  0  0  0
   23.1066  -23.0380  -13.8488 C   0  0  0  0  0  0  0  0  0  0  0  0
   24.2373  -23.6285  -14.5672 C   0  0  0  0  0  0  0  0  0  0  0  0
   25.2386  -24.4633  -14.1399 C   0  0  0  0  0  0  0  0  0  0  0  0
   26.0485  -24.7178  -15.1706 N   0  0  0  0  0  0  0  0  0  0  0  0
   25.6019  -24.0657  -16.2788 C   0  0  0  0  0  0  0  0  0  0  0  0
   26.0595  -24.0033  -17.5952 C   0  0  0  0  0  0  0  0  0  0  0  0
   25.3579  -23.2486  -18.5069 C   0  0  0  0  0  0  0  0  0  0  0  0
   24.2155  -22.5399  -18.2000 C   0  0  0  0  0  0  0  0  0  0  0  0
   23.7696  -22.6119  -16.8763 C   0  0  0  0  0  0  0  0  0  0  0  0
   24.4706  -23.3747  -15.9331 C   0  0  0  0  0  0  0  0  0  0  0  0
   22.1144  -20.8453  -13.1091 C   0  0  0  0  0  0  0  0  0  0  0  0
   21.6772  -20.7216  -11.9205 O   0  0  0  0  0  0  0  0  0  0  0  0
   22.4062  -17.9602  -16.0492 N   0  0  0  0  0  0  0  0  0  0  0  0
   21.7561  -16.9285  -15.3565 C   0  0  0  0  0  0  0  0  0  0  0  0
   22.3252  -15.7918  -15.2379 O   0  0  0  0  0  0  0  0  0  0  0  0
   20.4265  -17.1241  -14.7696 C   0  0  0  0  0  0  0  0  0  0  0  0
   19.8460  -18.4863  -14.8935 C   0  0  0  0  0  0  0  0  0  0  0  0
   20.1331  -19.3869  -13.7553 C   0  0  2  0  0  0  0  0  0  0  0  0
   21.3473  -20.1776  -14.0944 N   0  0  0  0  0  0  0  0  0  0  0  0
   19.0905  -20.3306  -13.4216 C   0  0  0  0  0  0  0  0  0  0  0  0
   18.9006  -21.4867  -13.8945 O   0  0  0  0  0  0  0  0  0  0  0  0
   18.1248  -19.9721  -12.4476 O   0  0  0  0  0  0  0  0  0  0  0  0
  2  1  1  6
  2  3  1  0
  4  3  1  0
  5  4  2  0
  6  5  1  0
  7  8  1  0
  7  6  2  0
  8  9  2  0
  9  4  1  0
 10  2  1  0
 11 10  2  0
 12 10  1  0
 13 24  1  0
 13 12  1  0
 13 14  1  1
 15 14  1  0
 16 15  2  0
 17 18  1  0
 17 16  1  0
 18 23  2  0
 19 20  2  0
 19 18  1  0
 20 21  1  0
 21 22  2  0
 23 22  1  0
 23 15  1  0
 24 32  1  0
 25 24  2  0
 26 27  1  0
 27 29  1  0
 28 27  2  0
 30 29  1  0
 31 30  1  6
 31 33  1  0
 32 31  1  0
 33 34  2  0
 33 35  1  0
M  END
$$$$
