FWQ.pdb
     RDKit          3D

 35 37  0  0  1  0  0  0  0  0999 V2000
   26.8926  -24.3558  -16.3802 N   0  0  0  0  0  0  0  0  0  0  0  0
   26.1342  -23.1169  -16.3057 C   0  0  1  0  0  0  0  0  0  0  0  0
   25.0601  -23.1842  -17.3529 C   0  0  0  0  0  0  0  0  0  0  0  0
   25.6648  -22.6745  -18.6129 C   0  0  0  0  0  0  0  0  0  0  0  0
   25.9120  -23.5747  -19.6461 C   0  0  0  0  0  0  0  0  0  0  0  0
   26.4623  -23.2034  -20.8508 C   0  0  0  0  0  0  0  0  0  0  0  0
   26.7931  -21.8898  -21.0736 C   0  0  0  0  0  0  0  0  0  0  0  0
   26.5493  -20.9855  -20.0478 C   0  0  0  0  0  0  0  0  0  0  0  0
   26.0009  -21.3686  -18.8521 C   0  0  0  0  0  0  0  0  0  0  0  0
   25.6516  -22.9283  -14.9297 C   0  0  0  0  0  0  0  0  0  0  0  0
   25.3906  -23.9244  -14.2113 O   0  0  0  0  0  0  0  0  0  0  0  0
   25.4777  -21.6147  -14.3837 N   0  0  0  0  0  0  0  0  0  0  0  0
   24.9930  -21.3467  -13.0437 C   0  0  1  0  0  0  0  0  0  0  0  0
   25.7296  -20.1834  -12.4564 C   0  0  0  0  0  0  0  0  0  0  0  0
   26.9215  -20.5462  -11.6876 C   0  0  0  0  0  0  0  0  0  0  0  0
   28.1587  -20.9770  -12.0946 C   0  0  0  0  0  0  0  0  0  0  0  0
   28.9106  -21.1934  -11.0124 N   0  0  0  0  0  0  0  0  0  0  0  0
   28.1934  -20.9127   -9.8901 C   0  0  0  0  0  0  0  0  0  0  0  0
   28.4999  -20.9543   -8.5298 C   0  0  0  0  0  0  0  0  0  0  0  0
   27.5362  -20.5839   -7.6204 C   0  0  0  0  0  0  0  0  0  0  0  0
   26.2690  -20.1682   -7.9709 C   0  0  0  0  0  0  0  0  0  0  0  0
   25.9767  -20.1323   -9.3382 C   0  0  0  0  0  0  0  0  0  0  0  0
   26.9445  -20.5061  -10.2797 C   0  0  0  0  0  0  0  0  0  0  0  0
   23.5284  -21.2531  -13.0480 C   0  0  0  0  0  0  0  0  0  0  0  0
   22.8945  -20.7321  -14.0206 O   0  0  0  0  0  0  0  0  0  0  0  0
   19.4143  -24.0298   -8.9309 N   0  0  0  0  0  0  0  0  0  0  0  0
   18.6097  -23.2503   -9.7747 C   0  0  0  0  0  0  0  0  0  0  0  0
   17.3431  -23.2490   -9.6146 O   0  0  0  0  0  0  0  0  0  0  0  0
   19.1944  -22.4254  -10.8369 C   0  0  0  0  0  0  0  0  0  0  0  0
   20.6774  -22.4242  -10.9289 C   0  0  0  0  0  0  0  0  0  0  0  0
   21.2296  -21.5762  -12.0082 C   0  0  2  0  0  0  0  0  0  0  0  0
   22.7101  -21.7254  -11.9932 N   0  0  0  0  0  0  0  0  0  0  0  0
   20.9435  -20.1631  -11.9063 C   0  0  0  0  0  0  0  0  0  0  0  0
   21.4633  -19.3134  -11.1291 O   0  0  0  0  0  0  0  0  0  0  0  0
   19.9621  -19.5971  -12.7586 O   0  0  0  0  0  0  0  0  0  0  0  0
  2  1  1  1
  2  3  1  0
  4  3  1  0
  5  4  2  0
  6  5  1  0
  7  8  1  0
  7  6  2  0
  8  9  2  0
  9  4  1  0
 10  2  1  0
 11 10  2  0
 12 10  1  0
 13 24  1  0
 13 12  1  0
 13 14  1  6
 15 14  1  0
 16 15  2  0
 17 18  1  0
 17 16  1  0
 18 23  2  0
 19 20  2  0
 19 18  1  0
 20 21  1  0
 21 22  2  0
 23 22  1  0
 23 15  1  0
 24 32  1  0
 25 24  2  0
 26 27  1  0
 27 29  1  0
 28 27  2  0
 30 29  1  0
 31 30  1  1
 31 33  1  0
 32 31  1  0
 33 34  2  0
 33 35  1  0
M  END
$$$$
