FWQ.pdb
     RDKit          3D

 35 37  0  0  1  0  0  0  0  0999 V2000
   25.6231  -19.4449   -7.6893 N   0  0  0  0  0  0  0  0  0  0  0  0
   26.6028  -20.2107   -8.4439 C   0  0  1  0  0  0  0  0  0  0  0  0
   26.9583  -21.4172   -7.6236 C   0  0  0  0  0  0  0  0  0  0  0  0
   27.7334  -20.9209   -6.4548 C   0  0  0  0  0  0  0  0  0  0  0  0
   29.1080  -20.7462   -6.5915 C   0  0  0  0  0  0  0  0  0  0  0  0
   29.9122  -20.2877   -5.5741 C   0  0  0  0  0  0  0  0  0  0  0  0
   29.3609  -19.9793   -4.3552 C   0  0  0  0  0  0  0  0  0  0  0  0
   27.9901  -20.1507   -4.2110 C   0  0  0  0  0  0  0  0  0  0  0  0
   27.2002  -20.6087   -5.2326 C   0  0  0  0  0  0  0  0  0  0  0  0
   26.0624  -20.5029   -9.7797 C   0  0  0  0  0  0  0  0  0  0  0  0
   24.8563  -20.8248   -9.9149 O   0  0  0  0  0  0  0  0  0  0  0  0
   26.8929  -20.4200  -10.9446 N   0  0  0  0  0  0  0  0  0  0  0  0
   26.5116  -19.7473  -12.1713 C   0  0  1  0  0  0  0  0  0  0  0  0
   27.7188  -19.1476  -12.8223 C   0  0  0  0  0  0  0  0  0  0  0  0
   27.4698  -18.5675  -14.1433 C   0  0  0  0  0  0  0  0  0  0  0  0
   26.8408  -17.4056  -14.5123 C   0  0  0  0  0  0  0  0  0  0  0  0
   26.8536  -17.3202  -15.8448 N   0  0  0  0  0  0  0  0  0  0  0  0
   27.4823  -18.4074  -16.3697 C   0  0  0  0  0  0  0  0  0  0  0  0
   27.7753  -18.7985  -17.6763 C   0  0  0  0  0  0  0  0  0  0  0  0
   28.4553  -19.9770  -17.8800 C   0  0  0  0  0  0  0  0  0  0  0  0
   28.8722  -20.8088  -16.8622 C   0  0  0  0  0  0  0  0  0  0  0  0
   28.5706  -20.4034  -15.5580 C   0  0  0  0  0  0  0  0  0  0  0  0
   27.8786  -19.2068  -15.3301 C   0  0  0  0  0  0  0  0  0  0  0  0
   25.7013  -20.6429  -13.0051 C   0  0  0  0  0  0  0  0  0  0  0  0
   26.0749  -21.8301  -13.2700 O   0  0  0  0  0  0  0  0  0  0  0  0
   24.7282  -24.8962  -14.1111 N   0  0  0  0  0  0  0  0  0  0  0  0
   23.4605  -24.3304  -13.9115 C   0  0  0  0  0  0  0  0  0  0  0  0
   22.4278  -24.9128  -14.3852 O   0  0  0  0  0  0  0  0  0  0  0  0
   23.2926  -23.0826  -13.1595 C   0  0  0  0  0  0  0  0  0  0  0  0
   22.7539  -21.9241  -13.9180 C   0  0  0  0  0  0  0  0  0  0  0  0
   23.7768  -21.1036  -14.6032 C   0  0  2  0  0  0  0  0  0  0  0  0
   24.4589  -20.2724  -13.5745 N   0  0  0  0  0  0  0  0  0  0  0  0
   23.2828  -20.2022  -15.6193 C   0  0  0  0  0  0  0  0  0  0  0  0
   23.2004  -18.9423  -15.5747 O   0  0  0  0  0  0  0  0  0  0  0  0
   22.8142  -20.7385  -16.8451 O   0  0  0  0  0  0  0  0  0  0  0  0
  2  1  1  1
  2  3  1  0
  4  3  1  0
  5  4  2  0
  6  5  1  0
  7  8  1  0
  7  6  2  0
  8  9  2  0
  9  4  1  0
 10  2  1  0
 11 10  2  0
 12 10  1  0
 13 24  1  0
 13 12  1  0
 13 14  1  6
 15 14  1  0
 16 15  2  0
 17 18  1  0
 17 16  1  0
 18 23  2  0
 19 20  2  0
 19 18  1  0
 20 21  1  0
 21 22  2  0
 23 22  1  0
 23 15  1  0
 24 32  1  0
 25 24  2  0
 26 27  1  0
 27 29  1  0
 28 27  2  0
 30 29  1  0
 31 30  1  1
 31 33  1  0
 32 31  1  0
 33 34  2  0
 33 35  1  0
M  END
$$$$
