FWQ.pdb
     RDKit          3D

 35 37  0  0  1  0  0  0  0  0999 V2000
   28.2689  -21.5006  -17.0356 N   0  0  0  0  0  0  0  0  0  0  0  0
   26.9406  -20.9265  -16.8894 C   0  0  1  0  0  0  0  0  0  0  0  0
   26.1421  -21.3289  -18.0959 C   0  0  0  0  0  0  0  0  0  0  0  0
   26.5425  -20.4092  -19.1945 C   0  0  0  0  0  0  0  0  0  0  0  0
   26.1411  -19.0774  -19.1292 C   0  0  0  0  0  0  0  0  0  0  0  0
   26.4636  -18.1473  -20.0899 C   0  0  0  0  0  0  0  0  0  0  0  0
   27.2162  -18.5209  -21.1755 C   0  0  0  0  0  0  0  0  0  0  0  0
   27.6208  -19.8477  -21.2478 C   0  0  0  0  0  0  0  0  0  0  0  0
   27.2923  -20.7645  -20.2840 C   0  0  0  0  0  0  0  0  0  0  0  0
   26.3731  -21.3446  -15.5991 C   0  0  0  0  0  0  0  0  0  0  0  0
   26.5940  -22.4993  -15.1582 O   0  0  0  0  0  0  0  0  0  0  0  0
   25.5690  -20.4477  -14.8227 N   0  0  0  0  0  0  0  0  0  0  0  0
   25.0631  -20.7465  -13.4971 C   0  0  1  0  0  0  0  0  0  0  0  0
   25.7015  -19.8417  -12.4899 C   0  0  0  0  0  0  0  0  0  0  0  0
   27.1639  -19.8048  -12.5490 C   0  0  0  0  0  0  0  0  0  0  0  0
   28.0147  -19.0888  -13.3524 C   0  0  0  0  0  0  0  0  0  0  0  0
   29.2710  -19.4095  -13.0334 N   0  0  0  0  0  0  0  0  0  0  0  0
   29.2707  -20.3282  -12.0290 C   0  0  0  0  0  0  0  0  0  0  0  0
   30.2905  -20.9729  -11.3288 C   0  0  0  0  0  0  0  0  0  0  0  0
   29.9539  -21.8591  -10.3317 C   0  0  0  0  0  0  0  0  0  0  0  0
   28.6556  -22.1559   -9.9742 C   0  0  0  0  0  0  0  0  0  0  0  0
   27.6443  -21.5021  -10.6856 C   0  0  0  0  0  0  0  0  0  0  0  0
   27.9669  -20.5964  -11.7047 C   0  0  0  0  0  0  0  0  0  0  0  0
   23.5957  -20.7693  -13.5121 C   0  0  0  0  0  0  0  0  0  0  0  0
   22.9181  -19.8396  -14.0559 O   0  0  0  0  0  0  0  0  0  0  0  0
   21.2100  -24.0195  -16.3151 N   0  0  0  0  0  0  0  0  0  0  0  0
   20.5494  -24.0864  -15.0798 C   0  0  0  0  0  0  0  0  0  0  0  0
   19.2734  -24.1141  -15.0473 O   0  0  0  0  0  0  0  0  0  0  0  0
   21.2954  -24.1341  -13.8181 C   0  0  0  0  0  0  0  0  0  0  0  0
   20.8649  -23.1815  -12.7621 C   0  0  0  0  0  0  0  0  0  0  0  0
   21.3345  -21.7916  -12.9541 C   0  0  2  0  0  0  0  0  0  0  0  0
   22.8224  -21.8063  -12.9362 N   0  0  0  0  0  0  0  0  0  0  0  0
   20.9064  -20.8395  -11.9544 C   0  0  0  0  0  0  0  0  0  0  0  0
   21.6152  -20.2089  -11.1201 O   0  0  0  0  0  0  0  0  0  0  0  0
   19.5268  -20.5325  -11.8437 O   0  0  0  0  0  0  0  0  0  0  0  0
  2  1  1  6
  2  3  1  0
  4  3  1  0
  5  4  2  0
  6  5  1  0
  7  8  1  0
  7  6  2  0
  8  9  2  0
  9  4  1  0
 10  2  1  0
 11 10  2  0
 12 10  1  0
 13 24  1  0
 13 12  1  0
 13 14  1  1
 15 14  1  0
 16 15  2  0
 17 18  1  0
 17 16  1  0
 18 23  2  0
 19 20  2  0
 19 18  1  0
 20 21  1  0
 21 22  2  0
 23 22  1  0
 23 15  1  0
 24 32  1  0
 25 24  2  0
 26 27  1  0
 27 29  1  0
 28 27  2  0
 30 29  1  0
 31 30  1  1
 31 33  1  0
 32 31  1  0
 33 34  2  0
 33 35  1  0
M  END
$$$$
