FWQ.pdb
     RDKit          3D

 35 37  0  0  1  0  0  0  0  0999 V2000
   20.4377  -13.3695  -19.4047 N   0  0  0  0  0  0  0  0  0  0  0  0
   19.9229  -12.0101  -19.4548 C   0  0  1  0  0  0  0  0  0  0  0  0
   18.6058  -12.0550  -20.1747 C   0  0  0  0  0  0  0  0  0  0  0  0
   18.9196  -12.1378  -21.6265 C   0  0  0  0  0  0  0  0  0  0  0  0
   18.6032  -13.3079  -22.3117 C   0  0  0  0  0  0  0  0  0  0  0  0
   18.8471  -13.4821  -23.6542 C   0  0  0  0  0  0  0  0  0  0  0  0
   19.4286  -12.4712  -24.3785 C   0  0  0  0  0  0  0  0  0  0  0  0
   19.7469  -11.3005  -23.7022 C   0  0  0  0  0  0  0  0  0  0  0  0
   19.4990  -11.1400  -22.3642 C   0  0  0  0  0  0  0  0  0  0  0  0
   19.8690  -11.4638  -18.0909 C   0  0  0  0  0  0  0  0  0  0  0  0
   19.1508  -12.0133  -17.2198 O   0  0  0  0  0  0  0  0  0  0  0  0
   20.6340  -10.3069  -17.7300 N   0  0  0  0  0  0  0  0  0  0  0  0
   20.5157   -9.6148  -16.4613 C   0  0  1  0  0  0  0  0  0  0  0  0
   21.8353   -9.0214  -16.0773 C   0  0  0  0  0  0  0  0  0  0  0  0
   21.8029   -8.2075  -14.8608 C   0  0  0  0  0  0  0  0  0  0  0  0
   21.7408   -8.5671  -13.5384 C   0  0  0  0  0  0  0  0  0  0  0  0
   21.7206   -7.4569  -12.7966 N   0  0  0  0  0  0  0  0  0  0  0  0
   21.7690   -6.3626  -13.6046 C   0  0  0  0  0  0  0  0  0  0  0  0
   21.7876   -4.9913  -13.3492 C   0  0  0  0  0  0  0  0  0  0  0  0
   21.8579   -4.1191  -14.4108 C   0  0  0  0  0  0  0  0  0  0  0  0
   21.9120   -4.5176  -15.7298 C   0  0  0  0  0  0  0  0  0  0  0  0
   21.8919   -5.8954  -15.9698 C   0  0  0  0  0  0  0  0  0  0  0  0
   21.8202   -6.7995  -14.9020 C   0  0  0  0  0  0  0  0  0  0  0  0
   19.3743   -8.6929  -16.4958 C   0  0  0  0  0  0  0  0  0  0  0  0
   19.0991   -8.0079  -17.5323 O   0  0  0  0  0  0  0  0  0  0  0  0
   12.6389   -7.3938  -14.1738 N   0  0  0  0  0  0  0  0  0  0  0  0
   13.6411   -7.9432  -14.9868 C   0  0  0  0  0  0  0  0  0  0  0  0
   13.4217   -9.0378  -15.6062 O   0  0  0  0  0  0  0  0  0  0  0  0
   14.9392   -7.2806  -15.1493 C   0  0  0  0  0  0  0  0  0  0  0  0
   16.1323   -8.1658  -15.1703 C   0  0  0  0  0  0  0  0  0  0  0  0
   17.4128   -7.4722  -15.4318 C   0  0  2  0  0  0  0  0  0  0  0  0
   18.4975   -8.4905  -15.4025 N   0  0  0  0  0  0  0  0  0  0  0  0
   17.7731   -6.4397  -14.4868 C   0  0  0  0  0  0  0  0  0  0  0  0
   18.2928   -6.5725  -13.3429 O   0  0  0  0  0  0  0  0  0  0  0  0
   17.5363   -5.0838  -14.8265 O   0  0  0  0  0  0  0  0  0  0  0  0
  2  1  1  1
  2  3  1  0
  4  3  1  0
  5  4  2  0
  6  5  1  0
  7  8  1  0
  7  6  2  0
  8  9  2  0
  9  4  1  0
 10  2  1  0
 11 10  2  0
 12 10  1  0
 13 24  1  0
 13 12  1  0
 13 14  1  6
 15 14  1  0
 16 15  2  0
 17 18  1  0
 17 16  1  0
 18 23  2  0
 19 20  2  0
 19 18  1  0
 20 21  1  0
 21 22  2  0
 23 22  1  0
 23 15  1  0
 24 32  1  0
 25 24  2  0
 26 27  1  0
 27 29  1  0
 28 27  2  0
 30 29  1  0
 31 30  1  1
 31 33  1  0
 32 31  1  0
 33 34  2  0
 33 35  1  0
M  END
$$$$
