DQR.pdb
     RDKit          3D

 29 28  0  0  1  0  0  0  0  0999 V2000
    9.7090  -18.5215   18.4082 N   0  0  0  0  0  0  0  0  0  0  0  0
    8.6518  -17.5531   18.1818 C   0  0  1  0  0  0  0  0  0  0  0  0
    7.8433  -17.9113   16.9570 C   0  0  0  0  0  0  0  0  0  0  0  0
    8.7305  -18.0883   15.8066 C   0  0  0  0  0  0  0  0  0  0  0  0
    9.7154  -17.3297   15.6550 O   0  0  0  0  0  0  0  0  0  0  0  0
    7.7471  -17.5341   19.3745 C   0  0  0  0  0  0  0  0  0  0  0  0
    6.7684  -16.7681   19.3950 O   0  0  0  0  0  0  0  0  0  0  0  0
    8.5003  -19.0801   14.8822 O   0  0  0  0  0  0  0  0  0  0  0  0
    6.7665  -22.2631   23.1654 N   0  0  0  0  0  0  0  0  0  0  0  0
    5.8918  -21.3305   23.7889 C   0  0  0  0  0  0  0  0  0  0  0  0
    5.2026  -21.6527   24.7633 O   0  0  0  0  0  0  0  0  0  0  0  0
    5.8683  -19.9474   23.1849 C   0  0  0  0  0  0  0  0  0  0  0  0
    6.7702  -19.8790   21.9834 C   0  0  0  0  0  0  0  0  0  0  0  0
    7.0486  -18.4762   21.6120 C   0  0  2  0  0  0  0  0  0  0  0  0
    7.9677  -18.3652   20.4910 N   0  0  0  0  0  0  0  0  0  0  0  0
    7.5153  -17.5753   22.6742 C   0  0  0  0  0  0  0  0  0  0  0  0
    6.9651  -17.5372   23.7928 O   0  0  0  0  0  0  0  0  0  0  0  0
    4.8823  -11.7654   26.9780 N   0  0  0  0  0  0  0  0  0  0  0  0
    6.2271  -11.2577   26.8984 C   0  0  0  0  0  0  0  0  0  0  0  0
    6.5830  -10.1128   27.3496 N   0  0  0  0  0  0  0  0  0  0  0  0
    7.2222  -12.0663   26.2799 N   0  0  0  0  0  0  0  0  0  0  0  0
    6.8637  -13.1087   25.3527 C   0  0  0  0  0  0  0  0  0  0  0  0
    8.0821  -13.8783   24.8761 C   0  0  0  0  0  0  0  0  0  0  0  0
    7.7788  -14.9341   23.8822 C   0  0  0  0  0  0  0  0  0  0  0  0
    9.0100  -15.7102   23.5073 C   0  0  2  0  0  0  0  0  0  0  0  0
    8.6190  -16.7015   22.4761 N   0  0  0  0  0  0  0  0  0  0  0  0
    9.5053  -16.4313   24.7049 C   0  0  0  0  0  0  0  0  0  0  0  0
   10.5095  -16.0196   25.5413 O   0  0  0  0  0  0  0  0  0  0  0  0
    8.9336  -17.5503   24.9771 O   0  0  0  0  0  0  0  0  0  0  0  0
  2  3  1  0
  2  1  1  1
  4  3  1  0
  5  4  2  0
  6  2  1  0
  7  6  2  0
  8  4  1  0
  9 10  1  0
 10 12  1  0
 11 10  2  0
 12 13  1  0
 14 13  1  1
 14 15  1  0
 15  6  1  0
 16 14  1  0
 16 17  2  0
 18 19  1  0
 19 21  1  0
 20 19  2  0
 21 22  1  0
 22 23  1  0
 23 24  1  0
 25 24  1  1
 26 25  1  0
 26 16  1  0
 27 25  1  0
 28 27  1  0
 29 27  2  0
M  END
$$$$
