DQR.pdb
     RDKit          3D

 29 28  0  0  1  0  0  0  0  0999 V2000
   12.0249  -18.5038   17.4637 N   0  0  0  0  0  0  0  0  0  0  0  0
   10.6459  -18.9089   17.2617 C   0  0  1  0  0  0  0  0  0  0  0  0
   10.5709  -20.2994   16.6758 C   0  0  0  0  0  0  0  0  0  0  0  0
    9.1847  -20.6259   16.3389 C   0  0  0  0  0  0  0  0  0  0  0  0
    8.4535  -21.1919   17.1837 O   0  0  0  0  0  0  0  0  0  0  0  0
    9.9380  -18.8971   18.5808 C   0  0  0  0  0  0  0  0  0  0  0  0
    8.8675  -18.2770   18.7017 O   0  0  0  0  0  0  0  0  0  0  0  0
    8.6667  -20.3200   15.1023 O   0  0  0  0  0  0  0  0  0  0  0  0
    7.5280  -21.5143   23.0893 N   0  0  0  0  0  0  0  0  0  0  0  0
    7.2959  -21.9239   21.7469 C   0  0  0  0  0  0  0  0  0  0  0  0
    6.2276  -22.4498   21.4143 O   0  0  0  0  0  0  0  0  0  0  0  0
    8.4270  -21.6738   20.7793 C   0  0  0  0  0  0  0  0  0  0  0  0
    9.5841  -21.0133   21.4769 C   0  0  0  0  0  0  0  0  0  0  0  0
    9.7720  -19.6300   20.9927 C   0  0  2  0  0  0  0  0  0  0  0  0
   10.4483  -19.5734   19.7070 N   0  0  0  0  0  0  0  0  0  0  0  0
   10.4343  -18.6810   21.8975 C   0  0  0  0  0  0  0  0  0  0  0  0
   11.6272  -18.3504   21.7450 O   0  0  0  0  0  0  0  0  0  0  0  0
    6.5091  -13.9463   19.8606 N   0  0  0  0  0  0  0  0  0  0  0  0
    7.6807  -13.1507   20.1194 C   0  0  0  0  0  0  0  0  0  0  0  0
    7.8431  -11.9593   19.6776 N   0  0  0  0  0  0  0  0  0  0  0  0
    8.7242  -13.7155   20.9060 N   0  0  0  0  0  0  0  0  0  0  0  0
    8.4312  -14.5144   22.0681 C   0  0  0  0  0  0  0  0  0  0  0  0
    9.6976  -14.9490   22.7833 C   0  0  0  0  0  0  0  0  0  0  0  0
    9.4651  -15.8827   23.9095 C   0  0  0  0  0  0  0  0  0  0  0  0
   10.3892  -17.0662   23.8461 C   0  0  2  0  0  0  0  0  0  0  0  0
    9.7447  -18.0938   22.9932 N   0  0  0  0  0  0  0  0  0  0  0  0
   10.5608  -17.6142   25.2136 C   0  0  0  0  0  0  0  0  0  0  0  0
   11.4349  -17.1590   26.1654 O   0  0  0  0  0  0  0  0  0  0  0  0
    9.8153  -18.6134   25.5281 O   0  0  0  0  0  0  0  0  0  0  0  0
  2  3  1  0
  2  1  1  1
  4  3  1  0
  5  4  2  0
  6  2  1  0
  7  6  2  0
  8  4  1  0
  9 10  1  0
 10 12  1  0
 11 10  2  0
 12 13  1  0
 14 13  1  1
 14 15  1  0
 15  6  1  0
 16 14  1  0
 16 17  2  0
 18 19  1  0
 19 21  1  0
 20 19  2  0
 21 22  1  0
 22 23  1  0
 23 24  1  0
 25 24  1  1
 26 25  1  0
 26 16  1  0
 27 25  1  0
 28 27  1  0
 29 27  2  0
M  END
$$$$
