DQR.pdb
     RDKit          3D

 29 28  0  0  1  0  0  0  0  0999 V2000
   11.5222  -18.4084   17.1099 N   0  0  0  0  0  0  0  0  0  0  0  0
   12.2062  -19.0236   18.2325 C   0  0  1  0  0  0  0  0  0  0  0  0
   13.5420  -18.3628   18.4800 C   0  0  0  0  0  0  0  0  0  0  0  0
   14.4835  -18.7261   17.4202 C   0  0  0  0  0  0  0  0  0  0  0  0
   14.5760  -18.0121   16.3954 O   0  0  0  0  0  0  0  0  0  0  0  0
   11.3568  -18.8794   19.4569 C   0  0  0  0  0  0  0  0  0  0  0  0
   10.6958  -17.8412   19.6311 O   0  0  0  0  0  0  0  0  0  0  0  0
   15.2742  -19.8459   17.5302 O   0  0  0  0  0  0  0  0  0  0  0  0
    8.9729  -23.5251   22.8026 N   0  0  0  0  0  0  0  0  0  0  0  0
    8.4843  -22.4363   23.5766 C   0  0  0  0  0  0  0  0  0  0  0  0
    7.7088  -22.6204   24.5217 O   0  0  0  0  0  0  0  0  0  0  0  0
    8.9728  -21.0681   23.1670 C   0  0  0  0  0  0  0  0  0  0  0  0
    9.8370  -21.1602   21.9397 C   0  0  0  0  0  0  0  0  0  0  0  0
   10.3950  -19.8382   21.5870 C   0  0  2  0  0  0  0  0  0  0  0  0
   11.2781  -19.8924   20.4334 N   0  0  0  0  0  0  0  0  0  0  0  0
   11.0785  -19.0877   22.6487 C   0  0  0  0  0  0  0  0  0  0  0  0
   12.3059  -19.1941   22.8433 O   0  0  0  0  0  0  0  0  0  0  0  0
   10.4867  -16.0288   29.6210 N   0  0  0  0  0  0  0  0  0  0  0  0
   10.3062  -14.6135   29.4279 C   0  0  0  0  0  0  0  0  0  0  0  0
   10.1245  -13.7826   30.3859 N   0  0  0  0  0  0  0  0  0  0  0  0
   10.3243  -14.1022   28.0996 N   0  0  0  0  0  0  0  0  0  0  0  0
    9.6935  -14.8153   27.0187 C   0  0  0  0  0  0  0  0  0  0  0  0
   10.6493  -15.7923   26.3585 C   0  0  0  0  0  0  0  0  0  0  0  0
   10.0568  -16.5480   25.2306 C   0  0  0  0  0  0  0  0  0  0  0  0
   11.0667  -17.4502   24.5787 C   0  0  2  0  0  0  0  0  0  0  0  0
   10.3709  -18.2028   23.5073 N   0  0  0  0  0  0  0  0  0  0  0  0
   11.5748  -18.4098   25.5890 C   0  0  0  0  0  0  0  0  0  0  0  0
   12.7477  -18.3042   26.2895 O   0  0  0  0  0  0  0  0  0  0  0  0
   10.8393  -19.4380   25.8234 O   0  0  0  0  0  0  0  0  0  0  0  0
  2  3  1  0
  2  1  1  6
  4  3  1  0
  5  4  2  0
  6  2  1  0
  7  6  2  0
  8  4  1  0
  9 10  1  0
 10 12  1  0
 11 10  2  0
 12 13  1  0
 14 13  1  1
 14 15  1  0
 15  6  1  0
 16 14  1  0
 16 17  2  0
 18 19  1  0
 19 21  1  0
 20 19  2  0
 21 22  1  0
 22 23  1  0
 23 24  1  0
 25 24  1  1
 26 25  1  0
 26 16  1  0
 27 25  1  0
 28 27  1  0
 29 27  2  0
M  END
$$$$
