DQR.pdb
     RDKit          3D

 29 28  0  0  1  0  0  0  0  0999 V2000
   12.1645  -17.0820   19.1461 N   0  0  0  0  0  0  0  0  0  0  0  0
   12.4819  -17.3989   20.5265 C   0  0  1  0  0  0  0  0  0  0  0  0
   13.9500  -17.1799   20.8079 C   0  0  0  0  0  0  0  0  0  0  0  0
   14.7541  -18.1239   20.0308 C   0  0  0  0  0  0  0  0  0  0  0  0
   14.3965  -18.4444   18.8741 O   0  0  0  0  0  0  0  0  0  0  0  0
   11.6761  -16.5135   21.4256 C   0  0  0  0  0  0  0  0  0  0  0  0
   12.0609  -16.2995   22.5880 O   0  0  0  0  0  0  0  0  0  0  0  0
   15.9040  -18.6693   20.5518 O   0  0  0  0  0  0  0  0  0  0  0  0
    7.3276  -12.4233   19.7205 N   0  0  0  0  0  0  0  0  0  0  0  0
    7.1565  -13.7751   19.3121 C   0  0  0  0  0  0  0  0  0  0  0  0
    6.3462  -14.0790   18.4292 O   0  0  0  0  0  0  0  0  0  0  0  0
    8.0198  -14.7896   20.0218 C   0  0  0  0  0  0  0  0  0  0  0  0
    8.8037  -14.1369   21.1269 C   0  0  0  0  0  0  0  0  0  0  0  0
    9.6057  -15.1345   21.8652 C   0  0  2  0  0  0  0  0  0  0  0  0
   10.4798  -15.9051   20.9959 N   0  0  0  0  0  0  0  0  0  0  0  0
    8.8835  -16.0741   22.7332 C   0  0  0  0  0  0  0  0  0  0  0  0
    8.3182  -17.0882   22.2777 O   0  0  0  0  0  0  0  0  0  0  0  0
    9.5609  -13.0187   28.0168 N   0  0  0  0  0  0  0  0  0  0  0  0
    9.8205  -14.0685   28.9671 C   0  0  0  0  0  0  0  0  0  0  0  0
   10.5310  -13.9134   30.0218 N   0  0  0  0  0  0  0  0  0  0  0  0
    9.2634  -15.3560   28.7250 N   0  0  0  0  0  0  0  0  0  0  0  0
   10.0625  -16.4217   28.1769 C   0  0  0  0  0  0  0  0  0  0  0  0
    9.6706  -16.7364   26.7446 C   0  0  0  0  0  0  0  0  0  0  0  0
    8.2596  -16.4215   26.4215 C   0  0  0  0  0  0  0  0  0  0  0  0
    7.9383  -16.7333   24.9868 C   0  0  2  0  0  0  0  0  0  0  0  0
    8.7943  -15.8705   24.1374 N   0  0  0  0  0  0  0  0  0  0  0  0
    6.5157  -16.4010   24.7311 C   0  0  0  0  0  0  0  0  0  0  0  0
    6.0436  -15.2579   24.1414 O   0  0  0  0  0  0  0  0  0  0  0  0
    5.6478  -17.2737   25.1029 O   0  0  0  0  0  0  0  0  0  0  0  0
  2  3  1  0
  2  1  1  6
  4  3  1  0
  5  4  2  0
  6  2  1  0
  7  6  2  0
  8  4  1  0
  9 10  1  0
 10 12  1  0
 11 10  2  0
 12 13  1  0
 14 13  1  6
 14 15  1  0
 15  6  1  0
 16 14  1  0
 16 17  2  0
 18 19  1  0
 19 21  1  0
 20 19  2  0
 21 22  1  0
 22 23  1  0
 23 24  1  0
 25 24  1  1
 26 25  1  0
 26 16  1  0
 27 25  1  0
 28 27  1  0
 29 27  2  0
M  END
$$$$
