DQR.pdb
     RDKit          3D

 29 28  0  0  1  0  0  0  0  0999 V2000
    8.0502  -16.5693   14.6914 N   0  0  0  0  0  0  0  0  0  0  0  0
    9.3909  -16.0374   14.5293 C   0  0  1  0  0  0  0  0  0  0  0  0
    9.4522  -15.0686   13.3717 C   0  0  0  0  0  0  0  0  0  0  0  0
    9.3052  -15.7907   12.1072 C   0  0  0  0  0  0  0  0  0  0  0  0
    9.0181  -17.0098   12.1141 O   0  0  0  0  0  0  0  0  0  0  0  0
    9.7847  -15.3225   15.7844 C   0  0  0  0  0  0  0  0  0  0  0  0
   10.9289  -14.8491   15.8922 O   0  0  0  0  0  0  0  0  0  0  0  0
    9.4780  -15.1499   10.9028 O   0  0  0  0  0  0  0  0  0  0  0  0
    5.9325  -13.5101   20.4154 N   0  0  0  0  0  0  0  0  0  0  0  0
    7.1766  -13.1456   21.0009 C   0  0  0  0  0  0  0  0  0  0  0  0
    7.2266  -12.6023   22.1103 O   0  0  0  0  0  0  0  0  0  0  0  0
    8.4052  -13.4649   20.1843 C   0  0  0  0  0  0  0  0  0  0  0  0
    8.0198  -14.0743   18.8645 C   0  0  0  0  0  0  0  0  0  0  0  0
    9.2188  -14.4472   18.0855 C   0  0  2  0  0  0  0  0  0  0  0  0
    8.8925  -15.1644   16.8637 N   0  0  0  0  0  0  0  0  0  0  0  0
   10.2735  -15.1941   18.7838 C   0  0  0  0  0  0  0  0  0  0  0  0
   10.1472  -16.4026   19.0649 O   0  0  0  0  0  0  0  0  0  0  0  0
   18.6934  -13.2814   19.4483 N   0  0  0  0  0  0  0  0  0  0  0  0
   17.5043  -13.1120   18.6545 C   0  0  0  0  0  0  0  0  0  0  0  0
   17.4575  -12.4084   17.5850 N   0  0  0  0  0  0  0  0  0  0  0  0
   16.3078  -13.7560   19.0788 N   0  0  0  0  0  0  0  0  0  0  0  0
   16.2894  -14.5968   20.2482 C   0  0  0  0  0  0  0  0  0  0  0  0
   14.9444  -15.2768   20.4285 C   0  0  0  0  0  0  0  0  0  0  0  0
   13.8082  -14.5352   19.8339 C   0  0  0  0  0  0  0  0  0  0  0  0
   12.5282  -15.3173   19.9273 C   0  0  2  0  0  0  0  0  0  0  0  0
   11.4909  -14.5723   19.1739 N   0  0  0  0  0  0  0  0  0  0  0  0
   12.1213  -15.4021   21.3510 C   0  0  0  0  0  0  0  0  0  0  0  0
   11.0482  -14.7736   21.9261 O   0  0  0  0  0  0  0  0  0  0  0  0
   12.8516  -16.1365   22.1128 O   0  0  0  0  0  0  0  0  0  0  0  0
  2  3  1  0
  2  1  1  1
  4  3  1  0
  5  4  2  0
  6  2  1  0
  7  6  2  0
  8  4  1  0
  9 10  1  0
 10 12  1  0
 11 10  2  0
 12 13  1  0
 14 13  1  1
 14 15  1  0
 15  6  1  0
 16 14  1  0
 16 17  2  0
 18 19  1  0
 19 21  1  0
 20 19  2  0
 21 22  1  0
 22 23  1  0
 23 24  1  0
 25 24  1  1
 26 25  1  0
 26 16  1  0
 27 25  1  0
 28 27  1  0
 29 27  2  0
M  END
$$$$
