DQR.pdb
     RDKit          3D

 29 28  0  0  1  0  0  0  0  0999 V2000
   12.2929  -15.8194   17.2848 N   0  0  0  0  0  0  0  0  0  0  0  0
   13.1669  -15.6135   18.4252 C   0  0  1  0  0  0  0  0  0  0  0  0
   14.2881  -14.6608   18.0822 C   0  0  0  0  0  0  0  0  0  0  0  0
   15.2584  -15.3240   17.2101 C   0  0  0  0  0  0  0  0  0  0  0  0
   15.4101  -14.9296   16.0311 O   0  0  0  0  0  0  0  0  0  0  0  0
   12.3669  -15.0388   19.5527 C   0  0  0  0  0  0  0  0  0  0  0  0
   12.9048  -14.8479   20.6569 O   0  0  0  0  0  0  0  0  0  0  0  0
   16.0121  -16.3804   17.6654 O   0  0  0  0  0  0  0  0  0  0  0  0
    6.8710  -12.1751   18.8743 N   0  0  0  0  0  0  0  0  0  0  0  0
    6.9852  -13.5483   18.5209 C   0  0  0  0  0  0  0  0  0  0  0  0
    6.1355  -14.0991   17.8115 O   0  0  0  0  0  0  0  0  0  0  0  0
    8.1954  -14.2678   19.0648 C   0  0  0  0  0  0  0  0  0  0  0  0
    9.0437  -13.3331   19.8825 C   0  0  0  0  0  0  0  0  0  0  0  0
   10.2222  -14.0348   20.4322 C   0  0  2  0  0  0  0  0  0  0  0  0
   11.0066  -14.7015   19.4057 N   0  0  0  0  0  0  0  0  0  0  0  0
    9.9916  -14.9920   21.5223 C   0  0  0  0  0  0  0  0  0  0  0  0
    9.7589  -16.1971   21.3008 O   0  0  0  0  0  0  0  0  0  0  0  0
   10.1153  -14.5421   30.1095 N   0  0  0  0  0  0  0  0  0  0  0  0
   10.4242  -15.9443   30.0045 C   0  0  0  0  0  0  0  0  0  0  0  0
   10.6018  -16.7111   31.0152 N   0  0  0  0  0  0  0  0  0  0  0  0
   10.5456  -16.5170   28.7069 N   0  0  0  0  0  0  0  0  0  0  0  0
   10.9754  -15.7269   27.5818 C   0  0  0  0  0  0  0  0  0  0  0  0
   10.1432  -16.0134   26.3451 C   0  0  0  0  0  0  0  0  0  0  0  0
   10.4782  -15.1608   25.1809 C   0  0  0  0  0  0  0  0  0  0  0  0
    9.6612  -15.5277   23.9740 C   0  0  2  0  0  0  0  0  0  0  0  0
   10.0223  -14.5882   22.8851 N   0  0  0  0  0  0  0  0  0  0  0  0
    8.2239  -15.3587   24.2987 C   0  0  0  0  0  0  0  0  0  0  0  0
    7.4033  -16.3019   24.8593 O   0  0  0  0  0  0  0  0  0  0  0  0
    7.7049  -14.2151   24.0231 O   0  0  0  0  0  0  0  0  0  0  0  0
  2  3  1  0
  2  1  1  6
  4  3  1  0
  5  4  2  0
  6  2  1  0
  7  6  2  0
  8  4  1  0
  9 10  1  0
 10 12  1  0
 11 10  2  0
 12 13  1  0
 14 13  1  6
 14 15  1  0
 15  6  1  0
 16 14  1  0
 16 17  2  0
 18 19  1  0
 19 21  1  0
 20 19  2  0
 21 22  1  0
 22 23  1  0
 23 24  1  0
 25 24  1  1
 26 25  1  0
 26 16  1  0
 27 25  1  0
 28 27  1  0
 29 27  2  0
M  END
$$$$
