DQR.pdb
     RDKit          3D

 29 28  0  0  1  0  0  0  0  0999 V2000
   10.3847  -17.0536   15.3670 N   0  0  0  0  0  0  0  0  0  0  0  0
   11.7108  -16.5885   15.7302 C   0  0  1  0  0  0  0  0  0  0  0  0
   12.2046  -15.5464   14.7542 C   0  0  0  0  0  0  0  0  0  0  0  0
   12.3760  -16.1439   13.4293 C   0  0  0  0  0  0  0  0  0  0  0  0
   11.4129  -16.7225   12.8758 O   0  0  0  0  0  0  0  0  0  0  0  0
   11.6560  -15.9863   17.0998 C   0  0  0  0  0  0  0  0  0  0  0  0
   12.6646  -16.0111   17.8259 O   0  0  0  0  0  0  0  0  0  0  0  0
   13.5846  -16.0809   12.7762 O   0  0  0  0  0  0  0  0  0  0  0  0
    7.4879  -11.8743   19.2112 N   0  0  0  0  0  0  0  0  0  0  0  0
    6.9593  -13.1838   19.0399 C   0  0  0  0  0  0  0  0  0  0  0  0
    5.7394  -13.3828   19.0144 O   0  0  0  0  0  0  0  0  0  0  0  0
    7.9771  -14.2889   18.8945 C   0  0  0  0  0  0  0  0  0  0  0  0
    9.3726  -13.7439   19.0261 C   0  0  0  0  0  0  0  0  0  0  0  0
   10.3726  -14.8284   18.9419 C   0  0  2  0  0  0  0  0  0  0  0  0
   10.4859  -15.3835   17.6031 N   0  0  0  0  0  0  0  0  0  0  0  0
   10.2406  -15.9446   19.8878 C   0  0  0  0  0  0  0  0  0  0  0  0
    9.7735  -17.0480   19.5416 O   0  0  0  0  0  0  0  0  0  0  0  0
   16.4902  -20.6992   21.4860 N   0  0  0  0  0  0  0  0  0  0  0  0
   15.5008  -21.3039   22.3395 C   0  0  0  0  0  0  0  0  0  0  0  0
   15.6553  -22.4380   22.9148 N   0  0  0  0  0  0  0  0  0  0  0  0
   14.2770  -20.6101   22.5570 N   0  0  0  0  0  0  0  0  0  0  0  0
   13.9657  -19.4048   21.8322 C   0  0  0  0  0  0  0  0  0  0  0  0
   12.6576  -18.7923   22.2989 C   0  0  0  0  0  0  0  0  0  0  0  0
   12.2588  -17.5774   21.5508 C   0  0  0  0  0  0  0  0  0  0  0  0
   10.9656  -17.0109   22.0659 C   0  0  2  0  0  0  0  0  0  0  0  0
   10.6397  -15.8188   21.2464 N   0  0  0  0  0  0  0  0  0  0  0  0
   11.1547  -16.5891   23.4752 C   0  0  0  0  0  0  0  0  0  0  0  0
   11.0462  -17.3892   24.5822 O   0  0  0  0  0  0  0  0  0  0  0  0
   11.4465  -15.3520   23.6688 O   0  0  0  0  0  0  0  0  0  0  0  0
  2  3  1  0
  2  1  1  6
  4  3  1  0
  5  4  2  0
  6  2  1  0
  7  6  2  0
  8  4  1  0
  9 10  1  0
 10 12  1  0
 11 10  2  0
 12 13  1  0
 14 13  1  6
 14 15  1  0
 15  6  1  0
 16 14  1  0
 16 17  2  0
 18 19  1  0
 19 21  1  0
 20 19  2  0
 21 22  1  0
 22 23  1  0
 23 24  1  0
 25 24  1  6
 26 25  1  0
 26 16  1  0
 27 25  1  0
 28 27  1  0
 29 27  2  0
M  END
$$$$
