DQR.pdb
     RDKit          3D

 29 28  0  0  1  0  0  0  0  0999 V2000
    9.4978  -15.7474   16.7400 N   0  0  0  0  0  0  0  0  0  0  0  0
    8.8099  -14.7216   17.5023 C   0  0  1  0  0  0  0  0  0  0  0  0
    7.6645  -14.1358   16.7102 C   0  0  0  0  0  0  0  0  0  0  0  0
    8.1259  -13.7478   15.3766 C   0  0  0  0  0  0  0  0  0  0  0  0
    9.2209  -14.1763   14.9455 O   0  0  0  0  0  0  0  0  0  0  0  0
    8.2717  -15.3300   18.7599 C   0  0  0  0  0  0  0  0  0  0  0  0
    7.6718  -14.6175   19.5830 O   0  0  0  0  0  0  0  0  0  0  0  0
    7.3729  -12.9150   14.5825 O   0  0  0  0  0  0  0  0  0  0  0  0
    6.4205  -21.0990   19.4346 N   0  0  0  0  0  0  0  0  0  0  0  0
    5.9985  -20.0967   18.5177 C   0  0  0  0  0  0  0  0  0  0  0  0
    5.2499  -20.3690   17.5721 O   0  0  0  0  0  0  0  0  0  0  0  0
    6.5214  -18.7052   18.7796 C   0  0  0  0  0  0  0  0  0  0  0  0
    7.3826  -18.6867   20.0123 C   0  0  0  0  0  0  0  0  0  0  0  0
    7.9223  -17.3334   20.2586 C   0  0  2  0  0  0  0  0  0  0  0  0
    8.4226  -16.7010   19.0489 N   0  0  0  0  0  0  0  0  0  0  0  0
    8.9464  -17.1934   21.3024 C   0  0  0  0  0  0  0  0  0  0  0  0
   10.1503  -17.4293   21.0779 O   0  0  0  0  0  0  0  0  0  0  0  0
    9.4783  -13.2874   29.2763 N   0  0  0  0  0  0  0  0  0  0  0  0
   10.5263  -14.2746   29.2810 C   0  0  0  0  0  0  0  0  0  0  0  0
   11.4095  -14.3697   30.2040 N   0  0  0  0  0  0  0  0  0  0  0  0
   10.5939  -15.1975   28.1993 N   0  0  0  0  0  0  0  0  0  0  0  0
    9.7181  -15.0770   27.0621 C   0  0  0  0  0  0  0  0  0  0  0  0
    9.8876  -16.2375   26.0986 C   0  0  0  0  0  0  0  0  0  0  0  0
    8.9827  -16.1868   24.9268 C   0  0  0  0  0  0  0  0  0  0  0  0
    9.6167  -16.8035   23.7118 C   0  0  2  0  0  0  0  0  0  0  0  0
    8.6120  -16.7821   22.6215 N   0  0  0  0  0  0  0  0  0  0  0  0
    9.9665  -18.2122   24.0165 C   0  0  0  0  0  0  0  0  0  0  0  0
   11.2200  -18.6964   24.2842 O   0  0  0  0  0  0  0  0  0  0  0  0
    8.9951  -19.0544   24.0269 O   0  0  0  0  0  0  0  0  0  0  0  0
  2  3  1  0
  2  1  1  6
  4  3  1  0
  5  4  2  0
  6  2  1  0
  7  6  2  0
  8  4  1  0
  9 10  1  0
 10 12  1  0
 11 10  2  0
 12 13  1  0
 14 13  1  6
 14 15  1  0
 15  6  1  0
 16 14  1  0
 16 17  2  0
 18 19  1  0
 19 21  1  0
 20 19  2  0
 21 22  1  0
 22 23  1  0
 23 24  1  0
 25 24  1  1
 26 25  1  0
 26 16  1  0
 27 25  1  0
 28 27  1  0
 29 27  2  0
M  END
$$$$
