PSS.pdb
     RDKit          3D

 20 20  0  0  1  0  0  0  0  0999 V2000
   33.4346  -34.9762   -6.1996 N   0  0  0  0  0  0  0  0  0  0  0  0
   34.1582  -35.7831   -7.1586 C   0  0  0  0  0  0  0  0  0  0  0  0
   34.1329  -37.2027   -6.6532 C   0  0  0  0  0  0  0  0  0  0  0  0
   33.2981  -37.1988   -5.3918 C   0  0  0  0  0  0  0  0  0  0  0  0
   32.5632  -35.8792   -5.4766 C   0  0  1  0  0  0  0  0  0  0  0  0
   32.4292  -35.3564   -4.0915 C   0  0  0  0  0  0  0  0  0  0  0  0
   33.2059  -34.4425   -3.6507 O   0  0  0  0  0  0  0  0  0  0  0  0
   29.6150  -36.9514   -1.5163 O   0  0  0  0  0  0  0  0  0  0  0  0
   29.9080  -35.6228   -1.2904 C   0  0  0  0  0  0  0  0  0  0  0  0
   31.2873  -35.2823   -1.8722 C   0  0  2  0  0  0  0  0  0  0  0  0
   31.4452  -35.8336   -3.1883 N   0  0  0  0  0  0  0  0  0  0  0  0
   32.2785  -35.9176   -0.9720 C   0  0  0  0  0  0  0  0  0  0  0  0
   32.7814  -37.0046   -1.2914 O   0  0  0  0  0  0  0  0  0  0  0  0
   35.3970  -35.5192    2.7262 O   0  0  0  0  0  0  0  0  0  0  0  0
   34.3577  -34.9616    2.0143 C   0  0  0  0  0  0  0  0  0  0  0  0
   33.7580  -35.9162    1.0043 C   0  0  2  0  0  0  0  0  0  0  0  0
   32.6864  -35.3318    0.2585 N   0  0  0  0  0  0  0  0  0  0  0  0
   33.2311  -37.0841    1.7700 C   0  0  0  0  0  0  0  0  0  0  0  0
   34.0811  -37.9045    2.5092 O   0  0  0  0  0  0  0  0  0  0  0  0
   32.0191  -37.3659    1.7755 O   0  0  0  0  0  0  0  0  0  0  0  0
  1  2  1  0
  3  2  1  0
  4  3  1  0
  4  5  1  0
  5  1  1  0
  6 11  1  0
  5  6  1  1
  7  6  2  0
  8  9  1  0
 10  9  1  1
 10 11  1  0
 10 12  1  0
 12 17  1  0
 13 12  2  0
 14 15  1  0
 16 18  1  0
 16 15  1  1
 17 16  1  0
 18 19  1  0
 20 18  2  0
M  END
$$$$
