PSS.pdb
     RDKit          3D

 20 20  0  0  1  0  0  0  0  0999 V2000
   22.8079   -9.7055  -16.2459 N   0  0  0  0  0  0  0  0  0  0  0  0
   23.8737  -10.6396  -16.5390 C   0  0  0  0  0  0  0  0  0  0  0  0
   24.4304  -11.1066  -15.2186 C   0  0  0  0  0  0  0  0  0  0  0  0
   23.5914  -10.4572  -14.1406 C   0  0  0  0  0  0  0  0  0  0  0  0
   22.3655   -9.9961  -14.8977 C   0  0  1  0  0  0  0  0  0  0  0  0
   21.9233   -8.7147  -14.2875 C   0  0  0  0  0  0  0  0  0  0  0  0
   21.5151   -8.6634  -13.0778 O   0  0  0  0  0  0  0  0  0  0  0  0
   22.1854   -4.0785  -13.7290 O   0  0  0  0  0  0  0  0  0  0  0  0
   22.6176   -5.2254  -14.3612 C   0  0  0  0  0  0  0  0  0  0  0  0
   21.4840   -6.2596  -14.4071 C   0  0  2  0  0  0  0  0  0  0  0  0
   21.9276   -7.4889  -15.0012 N   0  0  0  0  0  0  0  0  0  0  0  0
   20.4300   -5.6724  -15.2679 C   0  0  0  0  0  0  0  0  0  0  0  0
   20.5868   -5.6579  -16.4974 O   0  0  0  0  0  0  0  0  0  0  0  0
   16.5176   -5.2090  -14.0527 O   0  0  0  0  0  0  0  0  0  0  0  0
   16.8651   -5.2031  -15.3859 C   0  0  0  0  0  0  0  0  0  0  0  0
   18.2337   -4.6063  -15.6341 C   0  0  2  0  0  0  0  0  0  0  0  0
   19.2301   -5.1167  -14.7437 N   0  0  0  0  0  0  0  0  0  0  0  0
   18.1099   -3.1336  -15.4251 C   0  0  0  0  0  0  0  0  0  0  0  0
   17.2393   -2.3665  -16.1968 O   0  0  0  0  0  0  0  0  0  0  0  0
   18.7768   -2.5406  -14.5580 O   0  0  0  0  0  0  0  0  0  0  0  0
  1  2  1  0
  3  2  1  0
  4  3  1  0
  4  5  1  0
  5  1  1  0
  6 11  1  0
  5  6  1  1
  7  6  2  0
  8  9  1  0
 10  9  1  6
 10 11  1  0
 10 12  1  0
 12 17  1  0
 13 12  2  0
 14 15  1  0
 16 18  1  0
 16 15  1  1
 17 16  1  0
 18 19  1  0
 20 18  2  0
M  END
$$$$
