PSS.pdb
     RDKit          3D

 20 20  0  0  1  0  0  0  0  0999 V2000
   28.8136  -21.8824  -12.7604 N   0  0  0  0  0  0  0  0  0  0  0  0
   30.2187  -21.9784  -12.4275 C   0  0  0  0  0  0  0  0  0  0  0  0
   30.4955  -20.9432  -11.3678 C   0  0  0  0  0  0  0  0  0  0  0  0
   29.1708  -20.2881  -11.0453 C   0  0  0  0  0  0  0  0  0  0  0  0
   28.1643  -21.2558  -11.6275 C   0  0  1  0  0  0  0  0  0  0  0  0
   27.0289  -20.4525  -12.1523 C   0  0  0  0  0  0  0  0  0  0  0  0
   26.3543  -19.6816  -11.3886 O   0  0  0  0  0  0  0  0  0  0  0  0
   26.0159  -20.5405  -16.2033 O   0  0  0  0  0  0  0  0  0  0  0  0
   25.7861  -19.3652  -15.5192 C   0  0  0  0  0  0  0  0  0  0  0  0
   25.5825  -19.6572  -14.0259 C   0  0  2  0  0  0  0  0  0  0  0  0
   26.6315  -20.4925  -13.5133 N   0  0  0  0  0  0  0  0  0  0  0  0
   24.3003  -20.3937  -13.9248 C   0  0  0  0  0  0  0  0  0  0  0  0
   24.3144  -21.6295  -13.8312 O   0  0  0  0  0  0  0  0  0  0  0  0
   20.6086  -18.4557  -13.5285 O   0  0  0  0  0  0  0  0  0  0  0  0
   20.7307  -19.7577  -13.0951 C   0  0  0  0  0  0  0  0  0  0  0  0
   21.8375  -20.5110  -13.8010 C   0  0  2  0  0  0  0  0  0  0  0  0
   23.0362  -19.7413  -13.9301 N   0  0  0  0  0  0  0  0  0  0  0  0
   21.3325  -20.8482  -15.1645 C   0  0  0  0  0  0  0  0  0  0  0  0
   20.2453  -21.7020  -15.3401 O   0  0  0  0  0  0  0  0  0  0  0  0
   21.8621  -20.3809  -16.1890 O   0  0  0  0  0  0  0  0  0  0  0  0
  1  2  1  0
  3  2  1  0
  4  3  1  0
  4  5  1  0
  5  1  1  0
  6 11  1  0
  5  6  1  6
  7  6  2  0
  8  9  1  0
 10  9  1  6
 10 11  1  0
 10 12  1  0
 12 17  1  0
 13 12  2  0
 14 15  1  0
 16 18  1  0
 16 15  1  6
 17 16  1  0
 18 19  1  0
 20 18  2  0
M  END
$$$$
