PSS.pdb
     RDKit          3D

 20 20  0  0  1  0  0  0  0  0999 V2000
   18.4585  -11.7743  -14.8270 N   0  0  0  0  0  0  0  0  0  0  0  0
   17.6675  -12.9854  -14.8714 C   0  0  0  0  0  0  0  0  0  0  0  0
   17.4192  -13.3004  -16.3241 C   0  0  0  0  0  0  0  0  0  0  0  0
   18.1639  -12.2572  -17.1272 C   0  0  0  0  0  0  0  0  0  0  0  0
   19.1172  -11.6659  -16.1123 C   0  0  1  0  0  0  0  0  0  0  0  0
   19.2539  -10.2186  -16.4227 C   0  0  0  0  0  0  0  0  0  0  0  0
   19.8432   -9.8219  -17.4849 O   0  0  0  0  0  0  0  0  0  0  0  0
   16.6003   -7.4338  -16.5597 O   0  0  0  0  0  0  0  0  0  0  0  0
   17.5461   -7.0677  -15.6252 C   0  0  0  0  0  0  0  0  0  0  0  0
   18.8631   -7.8104  -15.8912 C   0  0  2  0  0  0  0  0  0  0  0  0
   18.7457   -9.2048  -15.5708 N   0  0  0  0  0  0  0  0  0  0  0  0
   19.8659   -7.2006  -14.9861 C   0  0  0  0  0  0  0  0  0  0  0  0
   19.8778   -7.5195  -13.7884 O   0  0  0  0  0  0  0  0  0  0  0  0
   23.6714   -6.8462  -15.6365 O   0  0  0  0  0  0  0  0  0  0  0  0
   23.1895   -5.6445  -15.1656 C   0  0  0  0  0  0  0  0  0  0  0  0
   21.8237   -5.7691  -14.5252 C   0  0  2  0  0  0  0  0  0  0  0  0
   20.8291   -6.2535  -15.4320 N   0  0  0  0  0  0  0  0  0  0  0  0
   21.4329   -4.4036  -14.0663 C   0  0  0  0  0  0  0  0  0  0  0  0
   22.0190   -3.8255  -12.9420 O   0  0  0  0  0  0  0  0  0  0  0  0
   20.5733   -3.7354  -14.6688 O   0  0  0  0  0  0  0  0  0  0  0  0
  1  2  1  0
  3  2  1  0
  4  3  1  0
  4  5  1  0
  5  1  1  0
  6 11  1  0
  5  6  1  6
  7  6  2  0
  8  9  1  0
 10  9  1  1
 10 11  1  0
 10 12  1  0
 12 17  1  0
 13 12  2  0
 14 15  1  0
 16 18  1  0
 16 15  1  6
 17 16  1  0
 18 19  1  0
 20 18  2  0
M  END
$$$$
