PSS.pdb
     RDKit          3D

 20 20  0  0  1  0  0  0  0  0999 V2000
   19.9614  -11.2992  -16.9391 N   0  0  0  0  0  0  0  0  0  0  0  0
   19.9817  -12.6111  -17.5497 C   0  0  0  0  0  0  0  0  0  0  0  0
   21.2100  -12.6765  -18.4205 C   0  0  0  0  0  0  0  0  0  0  0  0
   21.9446  -11.3677  -18.2326 C   0  0  0  0  0  0  0  0  0  0  0  0
   21.3241  -10.8096  -16.9709 C   0  0  1  0  0  0  0  0  0  0  0  0
   21.2637   -9.3320  -17.1224 C   0  0  0  0  0  0  0  0  0  0  0  0
   22.3256   -8.6215  -17.1131 O   0  0  0  0  0  0  0  0  0  0  0  0
   17.6124   -7.3536  -17.4025 O   0  0  0  0  0  0  0  0  0  0  0  0
   18.6598   -6.7716  -18.0854 C   0  0  0  0  0  0  0  0  0  0  0  0
   19.9965   -7.2088  -17.4698 C   0  0  2  0  0  0  0  0  0  0  0  0
   20.0410   -8.6316  -17.2842 N   0  0  0  0  0  0  0  0  0  0  0  0
   20.0668   -6.5566  -16.1408 C   0  0  0  0  0  0  0  0  0  0  0  0
   19.4087   -7.0221  -15.1992 O   0  0  0  0  0  0  0  0  0  0  0  0
   22.5012   -6.3665  -13.5862 O   0  0  0  0  0  0  0  0  0  0  0  0
   22.2537   -5.0483  -13.9013 C   0  0  0  0  0  0  0  0  0  0  0  0
   20.9133   -4.8464  -14.5745 C   0  0  2  0  0  0  0  0  0  0  0  0
   20.8646   -5.4058  -15.8901 N   0  0  0  0  0  0  0  0  0  0  0  0
   20.6922   -3.3732  -14.6691 C   0  0  0  0  0  0  0  0  0  0  0  0
   20.5316   -2.7460  -15.9030 O   0  0  0  0  0  0  0  0  0  0  0  0
   20.6437   -2.6555  -13.6538 O   0  0  0  0  0  0  0  0  0  0  0  0
  1  2  1  0
  3  2  1  0
  4  3  1  0
  4  5  1  0
  5  1  1  0
  6 11  1  0
  5  6  1  6
  7  6  2  0
  8  9  1  0
 10  9  1  1
 10 11  1  0
 10 12  1  0
 12 17  1  0
 13 12  2  0
 14 15  1  0
 16 18  1  0
 16 15  1  6
 17 16  1  0
 18 19  1  0
 20 18  2  0
M  END
$$$$
