PSS.pdb
     RDKit          3D

 20 20  0  0  1  0  0  0  0  0999 V2000
   19.6271  -11.7997  -17.6546 N   0  0  0  0  0  0  0  0  0  0  0  0
   18.9766  -13.0202  -18.0808 C   0  0  0  0  0  0  0  0  0  0  0  0
   17.7095  -13.1524  -17.2756 C   0  0  0  0  0  0  0  0  0  0  0  0
   17.6140  -11.9146  -16.4116 C   0  0  0  0  0  0  0  0  0  0  0  0
   18.5975  -10.9691  -17.0652 C   0  0  1  0  0  0  0  0  0  0  0  0
   19.2327  -10.1720  -15.9830 C   0  0  0  0  0  0  0  0  0  0  0  0
   18.5436   -9.3866  -15.2474 O   0  0  0  0  0  0  0  0  0  0  0  0
   23.4260  -10.0216  -15.4066 O   0  0  0  0  0  0  0  0  0  0  0  0
   22.6123  -10.0011  -14.2933 C   0  0  0  0  0  0  0  0  0  0  0  0
   21.2273   -9.4527  -14.6643 C   0  0  2  0  0  0  0  0  0  0  0  0
   20.6222  -10.2344  -15.7054 N   0  0  0  0  0  0  0  0  0  0  0  0
   21.4548   -8.0804  -15.1757 C   0  0  0  0  0  0  0  0  0  0  0  0
   21.3828   -7.8656  -16.3943 O   0  0  0  0  0  0  0  0  0  0  0  0
   20.4683   -3.9003  -15.8436 O   0  0  0  0  0  0  0  0  0  0  0  0
   20.4502   -5.1997  -15.3865 C   0  0  0  0  0  0  0  0  0  0  0  0
   21.7929   -5.6557  -14.8574 C   0  0  2  0  0  0  0  0  0  0  0  0
   21.7562   -6.9822  -14.3232 N   0  0  0  0  0  0  0  0  0  0  0  0
   22.1754   -4.7087  -13.7690 C   0  0  0  0  0  0  0  0  0  0  0  0
   22.5896   -3.4095  -14.0561 O   0  0  0  0  0  0  0  0  0  0  0  0
   22.1382   -5.0439  -12.5712 O   0  0  0  0  0  0  0  0  0  0  0  0
  1  2  1  0
  3  2  1  0
  4  3  1  0
  4  5  1  0
  5  1  1  0
  6 11  1  0
  5  6  1  1
  7  6  2  0
  8  9  1  0
 10  9  1  6
 10 11  1  0
 10 12  1  0
 12 17  1  0
 13 12  2  0
 14 15  1  0
 16 18  1  0
 16 15  1  1
 17 16  1  0
 18 19  1  0
 20 18  2  0
M  END
$$$$
