PSS.pdb
     RDKit          3D

 20 20  0  0  1  0  0  0  0  0999 V2000
   20.7817  -12.2189  -17.8800 N   0  0  0  0  0  0  0  0  0  0  0  0
   20.4002  -13.4506  -18.5370 C   0  0  0  0  0  0  0  0  0  0  0  0
   19.1476  -13.1640  -19.3247 C   0  0  0  0  0  0  0  0  0  0  0  0
   18.8571  -11.6893  -19.1553 C   0  0  0  0  0  0  0  0  0  0  0  0
   20.1677  -11.1442  -18.6321 C   0  0  1  0  0  0  0  0  0  0  0  0
   19.8439  -10.0563  -17.6721 C   0  0  0  0  0  0  0  0  0  0  0  0
   19.2237   -9.0043  -18.0480 O   0  0  0  0  0  0  0  0  0  0  0  0
   18.6703  -10.5254  -13.8018 O   0  0  0  0  0  0  0  0  0  0  0  0
   19.7442   -9.6703  -13.9338 C   0  0  0  0  0  0  0  0  0  0  0  0
   19.7977   -9.1098  -15.3620 C   0  0  2  0  0  0  0  0  0  0  0  0
   20.1990  -10.1194  -16.3003 N   0  0  0  0  0  0  0  0  0  0  0  0
   20.8283   -8.0448  -15.3445 C   0  0  0  0  0  0  0  0  0  0  0  0
   21.9933   -8.3204  -15.6654 O   0  0  0  0  0  0  0  0  0  0  0  0
   21.9239   -3.4290  -15.8800 O   0  0  0  0  0  0  0  0  0  0  0  0
   21.0077   -4.4571  -15.8401 C   0  0  0  0  0  0  0  0  0  0  0  0
   21.5365   -5.6889  -15.1374 C   0  0  2  0  0  0  0  0  0  0  0  0
   20.5407   -6.7024  -14.9719 N   0  0  0  0  0  0  0  0  0  0  0  0
   22.0074   -5.2520  -13.7901 C   0  0  0  0  0  0  0  0  0  0  0  0
   23.2709   -4.6908  -13.6149 O   0  0  0  0  0  0  0  0  0  0  0  0
   21.2917   -5.3726  -12.7794 O   0  0  0  0  0  0  0  0  0  0  0  0
  1  2  1  0
  3  2  1  0
  4  3  1  0
  4  5  1  0
  5  1  1  0
  6 11  1  0
  5  6  1  1
  7  6  2  0
  8  9  1  0
 10  9  1  1
 10 11  1  0
 10 12  1  0
 12 17  1  0
 13 12  2  0
 14 15  1  0
 16 18  1  0
 16 15  1  1
 17 16  1  0
 18 19  1  0
 20 18  2  0
M  END
$$$$
