PSS.pdb
     RDKit          3D

 20 20  0  0  1  0  0  0  0  0999 V2000
   17.8863  -11.9530  -14.8896 N   0  0  0  0  0  0  0  0  0  0  0  0
   17.0731  -13.1242  -15.1370 C   0  0  0  0  0  0  0  0  0  0  0  0
   17.2310  -13.4746  -16.5943 C   0  0  0  0  0  0  0  0  0  0  0  0
   18.2316  -12.4967  -17.1691 C   0  0  0  0  0  0  0  0  0  0  0  0
   18.8886  -11.9200  -15.9345 C   0  0  1  0  0  0  0  0  0  0  0  0
   19.1901  -10.4923  -16.2184 C   0  0  0  0  0  0  0  0  0  0  0  0
   20.0212  -10.1596  -17.1302 O   0  0  0  0  0  0  0  0  0  0  0  0
   17.0115   -7.4011  -14.4181 O   0  0  0  0  0  0  0  0  0  0  0  0
   17.5410   -7.2156  -15.6780 C   0  0  0  0  0  0  0  0  0  0  0  0
   18.8179   -8.0524  -15.8401 C   0  0  2  0  0  0  0  0  0  0  0  0
   18.5821   -9.4281  -15.5044 N   0  0  0  0  0  0  0  0  0  0  0  0
   19.7977   -7.4929  -14.8791 C   0  0  0  0  0  0  0  0  0  0  0  0
   19.8336   -7.9335  -13.7211 O   0  0  0  0  0  0  0  0  0  0  0  0
   23.1051   -5.2680  -16.1238 O   0  0  0  0  0  0  0  0  0  0  0  0
   23.1079   -6.0099  -14.9630 C   0  0  0  0  0  0  0  0  0  0  0  0
   21.7445   -6.0855  -14.3102 C   0  0  2  0  0  0  0  0  0  0  0  0
   20.7118   -6.4599  -15.2265 N   0  0  0  0  0  0  0  0  0  0  0  0
   21.4432   -4.7252  -13.7747 C   0  0  0  0  0  0  0  0  0  0  0  0
   20.3840   -3.9712  -14.2763 O   0  0  0  0  0  0  0  0  0  0  0  0
   22.1241   -4.2179  -12.8652 O   0  0  0  0  0  0  0  0  0  0  0  0
  1  2  1  0
  3  2  1  0
  4  3  1  0
  4  5  1  0
  5  1  1  0
  6 11  1  0
  5  6  1  6
  7  6  2  0
  8  9  1  0
 10  9  1  1
 10 11  1  0
 10 12  1  0
 12 17  1  0
 13 12  2  0
 14 15  1  0
 16 18  1  0
 16 15  1  6
 17 16  1  0
 18 19  1  0
 20 18  2  0
M  END
$$$$
