PSS.pdb
     RDKit          3D

 20 20  0  0  1  0  0  0  0  0999 V2000
   22.9420  -12.0889  -16.1906 N   0  0  0  0  0  0  0  0  0  0  0  0
   23.6429  -13.3215  -16.4800 C   0  0  0  0  0  0  0  0  0  0  0  0
   25.1114  -12.9904  -16.5531 C   0  0  0  0  0  0  0  0  0  0  0  0
   25.2414  -11.5206  -16.2205 C   0  0  0  0  0  0  0  0  0  0  0  0
   23.9087  -11.1994  -15.5807 C   0  0  1  0  0  0  0  0  0  0  0  0
   23.5498   -9.8121  -15.9761 C   0  0  0  0  0  0  0  0  0  0  0  0
   24.2899   -8.8204  -15.6578 O   0  0  0  0  0  0  0  0  0  0  0  0
   19.9918   -8.9862  -17.9857 O   0  0  0  0  0  0  0  0  0  0  0  0
   21.0715   -8.1979  -18.3246 C   0  0  0  0  0  0  0  0  0  0  0  0
   22.0904   -8.1799  -17.1763 C   0  0  2  0  0  0  0  0  0  0  0  0
   22.3806   -9.5097  -16.7200 N   0  0  0  0  0  0  0  0  0  0  0  0
   21.4468   -7.4311  -16.0710 C   0  0  0  0  0  0  0  0  0  0  0  0
   20.7824   -8.0470  -15.2250 O   0  0  0  0  0  0  0  0  0  0  0  0
   23.1839   -4.8344  -13.8348 O   0  0  0  0  0  0  0  0  0  0  0  0
   21.9608   -4.3226  -14.2089 C   0  0  0  0  0  0  0  0  0  0  0  0
   21.0290   -5.3758  -14.7687 C   0  0  2  0  0  0  0  0  0  0  0  0
   21.5564   -6.0196  -15.9321 N   0  0  0  0  0  0  0  0  0  0  0  0
   19.7596   -4.6819  -15.1360 C   0  0  0  0  0  0  0  0  0  0  0  0
   18.9728   -4.0586  -14.1695 O   0  0  0  0  0  0  0  0  0  0  0  0
   19.3602   -4.6353  -16.3136 O   0  0  0  0  0  0  0  0  0  0  0  0
  1  2  1  0
  3  2  1  0
  4  3  1  0
  4  5  1  0
  5  1  1  0
  6 11  1  0
  5  6  1  6
  7  6  2  0
  8  9  1  0
 10  9  1  6
 10 11  1  0
 10 12  1  0
 12 17  1  0
 13 12  2  0
 14 15  1  0
 16 18  1  0
 16 15  1  6
 17 16  1  0
 18 19  1  0
 20 18  2  0
M  END
$$$$
