PSS.pdb
     RDKit          3D

 20 20  0  0  1  0  0  0  0  0999 V2000
   18.3905  -11.7413  -15.1355 N   0  0  0  0  0  0  0  0  0  0  0  0
   17.9539  -13.0801  -15.4692 C   0  0  0  0  0  0  0  0  0  0  0  0
   18.7904  -13.5422  -16.6346 C   0  0  0  0  0  0  0  0  0  0  0  0
   19.7851  -12.4387  -16.9186 C   0  0  0  0  0  0  0  0  0  0  0  0
   19.7346  -11.6049  -15.6574 C   0  0  1  0  0  0  0  0  0  0  0  0
   19.9158  -10.1846  -16.0571 C   0  0  0  0  0  0  0  0  0  0  0  0
   21.0336   -9.7612  -16.5087 O   0  0  0  0  0  0  0  0  0  0  0  0
   16.7463   -7.5321  -15.8373 O   0  0  0  0  0  0  0  0  0  0  0  0
   17.7036   -7.2361  -16.7850 C   0  0  0  0  0  0  0  0  0  0  0  0
   19.0462   -7.8680  -16.3913 C   0  0  2  0  0  0  0  0  0  0  0  0
   18.8736   -9.2272  -15.9627 N   0  0  0  0  0  0  0  0  0  0  0  0
   19.5521   -7.0727  -15.2475 C   0  0  0  0  0  0  0  0  0  0  0  0
   19.1876   -7.3601  -14.0982 O   0  0  0  0  0  0  0  0  0  0  0  0
   22.5950   -6.8193  -13.5168 O   0  0  0  0  0  0  0  0  0  0  0  0
   22.3670   -5.5307  -13.9475 C   0  0  0  0  0  0  0  0  0  0  0  0
   20.9099   -5.2638  -14.2582 C   0  0  2  0  0  0  0  0  0  0  0  0
   20.4486   -5.9798  -15.4074 N   0  0  0  0  0  0  0  0  0  0  0  0
   20.7827   -3.7998  -14.5199 C   0  0  0  0  0  0  0  0  0  0  0  0
   20.7409   -2.8811  -13.4730 O   0  0  0  0  0  0  0  0  0  0  0  0
   20.7097   -3.3491  -15.6775 O   0  0  0  0  0  0  0  0  0  0  0  0
  1  2  1  0
  3  2  1  0
  4  3  1  0
  4  5  1  0
  5  1  1  0
  6 11  1  0
  5  6  1  6
  7  6  2  0
  8  9  1  0
 10  9  1  1
 10 11  1  0
 10 12  1  0
 12 17  1  0
 13 12  2  0
 14 15  1  0
 16 18  1  0
 16 15  1  6
 17 16  1  0
 18 19  1  0
 20 18  2  0
M  END
$$$$
