PSS.pdb
     RDKit          3D

 20 20  0  0  1  0  0  0  0  0999 V2000
   19.7548  -11.0904  -17.5246 N   0  0  0  0  0  0  0  0  0  0  0  0
   19.5444  -12.4966  -17.7944 C   0  0  0  0  0  0  0  0  0  0  0  0
   20.0011  -13.2557  -16.5751 C   0  0  0  0  0  0  0  0  0  0  0  0
   20.4197  -12.2224  -15.5529 C   0  0  0  0  0  0  0  0  0  0  0  0
   19.7972  -10.9499  -16.0837 C   0  0  1  0  0  0  0  0  0  0  0  0
   20.7306   -9.8358  -15.7716 C   0  0  0  0  0  0  0  0  0  0  0  0
   20.9763   -9.4963  -14.5644 O   0  0  0  0  0  0  0  0  0  0  0  0
   22.4163   -7.4830  -18.7907 O   0  0  0  0  0  0  0  0  0  0  0  0
   23.1975   -7.6913  -17.6734 C   0  0  0  0  0  0  0  0  0  0  0  0
   22.3103   -8.0318  -16.4676 C   0  0  2  0  0  0  0  0  0  0  0  0
   21.3954   -9.0929  -16.7805 N   0  0  0  0  0  0  0  0  0  0  0  0
   21.5301   -6.8060  -16.1755 C   0  0  0  0  0  0  0  0  0  0  0  0
   20.5312   -6.5432  -16.8607 O   0  0  0  0  0  0  0  0  0  0  0  0
   19.4880   -3.8011  -13.3041 O   0  0  0  0  0  0  0  0  0  0  0  0
   20.2572   -4.9096  -13.5827 C   0  0  0  0  0  0  0  0  0  0  0  0
   21.0470   -4.7696  -14.8662 C   0  0  2  0  0  0  0  0  0  0  0  0
   21.8772   -5.9039  -15.1319 N   0  0  0  0  0  0  0  0  0  0  0  0
   21.9135   -3.5639  -14.7138 C   0  0  0  0  0  0  0  0  0  0  0  0
   21.3910   -2.2789  -14.8471 O   0  0  0  0  0  0  0  0  0  0  0  0
   23.1284   -3.6624  -14.4633 O   0  0  0  0  0  0  0  0  0  0  0  0
  1  2  1  0
  3  2  1  0
  4  3  1  0
  4  5  1  0
  5  1  1  0
  6 11  1  0
  5  6  1  6
  7  6  2  0
  8  9  1  0
 10  9  1  6
 10 11  1  0
 10 12  1  0
 12 17  1  0
 13 12  2  0
 14 15  1  0
 16 18  1  0
 16 15  1  1
 17 16  1  0
 18 19  1  0
 20 18  2  0
M  END
$$$$
