AGH.pdb
     RDKit          3D

 20 20  0  0  1  0  0  0  0  0999 V2000
    6.6547  -19.7931   19.1158 C   0  0  0  0  0  0  0  0  0  0  0  0
    7.2864  -19.2851   20.3790 C   0  0  2  0  0  0  0  0  0  0  0  0
    6.2836  -19.0968   21.3926 N   0  0  0  0  0  0  0  0  0  0  0  0
    7.9967  -17.9911   20.1538 C   0  0  0  0  0  0  0  0  0  0  0  0
    9.0693  -17.9212   19.4990 O   0  0  0  0  0  0  0  0  0  0  0  0
    7.4760  -16.7822   20.6793 N   0  0  0  0  0  0  0  0  0  0  0  0
    8.1902  -15.5552   20.5157 C   0  0  0  0  0  0  0  0  0  0  0  0
    8.9193  -15.1619   21.7698 C   0  0  0  0  0  0  0  0  0  0  0  0
    9.7113  -14.2048   21.8156 O   0  0  0  0  0  0  0  0  0  0  0  0
    8.7079  -15.9029   22.9641 N   0  0  0  0  0  0  0  0  0  0  0  0
    9.4030  -15.6646   24.1904 C   0  0  1  0  0  0  0  0  0  0  0  0
    8.4662  -15.6779   25.3915 C   0  0  0  0  0  0  0  0  0  0  0  0
    7.5875  -14.5014   25.4346 C   0  0  0  0  0  0  0  0  0  0  0  0
    7.7373  -13.3159   24.7468 C   0  0  0  0  0  0  0  0  0  0  0  0
    6.6994  -12.5086   25.0835 N   0  0  0  0  0  0  0  0  0  0  0  0
    5.9236  -13.1619   25.9521 C   0  0  0  0  0  0  0  0  0  0  0  0
    6.4663  -14.3813   26.1674 N   0  0  0  0  0  0  0  0  0  0  0  0
   10.4805  -16.6315   24.4539 C   0  0  0  0  0  0  0  0  0  0  0  0
   11.2286  -16.5273   25.4489 O   0  0  0  0  0  0  0  0  0  0  0  0
   10.6819  -17.6879   23.5862 O   0  0  0  0  0  0  0  0  0  0  0  0
  2  1  1  6
  3  2  1  0
  4  5  2  0
  4  2  1  0
  6  4  1  0
  7  6  1  0
  8 10  1  0
  8  7  1  0
  9  8  2  0
 11 10  1  0
 11 12  1  1
 12 13  1  0
 13 17  1  0
 13 14  2  0
 14 15  1  0
 16 15  1  0
 17 16  2  0
 18 11  1  0
 19 18  2  0
 20 18  1  0
M  END
$$$$
