AGH.pdb
     RDKit          3D

 20 20  0  0  1  0  0  0  0  0999 V2000
   13.5543  -17.7269   15.7138 C   0  0  0  0  0  0  0  0  0  0  0  0
   12.2696  -17.0900   16.1570 C   0  0  2  0  0  0  0  0  0  0  0  0
   11.4438  -16.7962   15.0167 N   0  0  0  0  0  0  0  0  0  0  0  0
   12.5173  -15.8270   16.9140 C   0  0  0  0  0  0  0  0  0  0  0  0
   12.0697  -14.7159   16.5275 O   0  0  0  0  0  0  0  0  0  0  0  0
   13.2766  -15.8411   18.1106 N   0  0  0  0  0  0  0  0  0  0  0  0
   13.4999  -14.6327   18.8402 C   0  0  0  0  0  0  0  0  0  0  0  0
   12.8753  -14.6818   20.2065 C   0  0  0  0  0  0  0  0  0  0  0  0
   13.5452  -14.7744   21.2496 O   0  0  0  0  0  0  0  0  0  0  0  0
   11.4610  -14.6210   20.3322 N   0  0  0  0  0  0  0  0  0  0  0  0
   10.7418  -15.0088   21.5053 C   0  0  1  0  0  0  0  0  0  0  0  0
    9.2964  -15.3764   21.1956 C   0  0  0  0  0  0  0  0  0  0  0  0
    8.6822  -14.4720   20.2143 C   0  0  0  0  0  0  0  0  0  0  0  0
    8.5797  -13.0990   20.2869 C   0  0  0  0  0  0  0  0  0  0  0  0
    7.9412  -12.6724   19.1677 N   0  0  0  0  0  0  0  0  0  0  0  0
    7.6518  -13.7381   18.4170 C   0  0  0  0  0  0  0  0  0  0  0  0
    8.1048  -14.8397   19.0567 N   0  0  0  0  0  0  0  0  0  0  0  0
   11.3480  -16.1438   22.2192 C   0  0  0  0  0  0  0  0  0  0  0  0
   11.6024  -16.0919   23.4412 O   0  0  0  0  0  0  0  0  0  0  0  0
   11.6493  -17.3045   21.5326 O   0  0  0  0  0  0  0  0  0  0  0  0
  2  1  1  6
  3  2  1  0
  4  5  2  0
  4  2  1  0
  6  4  1  0
  7  6  1  0
  8 10  1  0
  8  7  1  0
  9  8  2  0
 11 10  1  0
 11 12  1  6
 12 13  1  0
 13 17  1  0
 13 14  2  0
 14 15  1  0
 16 15  1  0
 17 16  2  0
 18 11  1  0
 19 18  2  0
 20 18  1  0
M  END
$$$$
