AGH.pdb
     RDKit          3D

 20 20  0  0  1  0  0  0  0  0999 V2000
   12.3958  -17.1592   15.0056 C   0  0  0  0  0  0  0  0  0  0  0  0
   12.5655  -17.4631   16.4655 C   0  0  2  0  0  0  0  0  0  0  0  0
   11.9817  -18.7402   16.7762 N   0  0  0  0  0  0  0  0  0  0  0  0
   11.9274  -16.4179   17.3200 C   0  0  0  0  0  0  0  0  0  0  0  0
   10.6779  -16.2890   17.3993 O   0  0  0  0  0  0  0  0  0  0  0  0
   12.7226  -15.5246   18.0804 N   0  0  0  0  0  0  0  0  0  0  0  0
   12.1091  -14.5126   18.8817 C   0  0  0  0  0  0  0  0  0  0  0  0
   11.7467  -15.0250   20.2475 C   0  0  0  0  0  0  0  0  0  0  0  0
   12.0551  -16.1624   20.6431 O   0  0  0  0  0  0  0  0  0  0  0  0
   11.0211  -14.1890   21.1389 N   0  0  0  0  0  0  0  0  0  0  0  0
   10.0395  -14.6626   22.0640 C   0  0  1  0  0  0  0  0  0  0  0  0
    8.7584  -15.1000   21.3656 C   0  0  0  0  0  0  0  0  0  0  0  0
    8.4486  -14.2777   20.1885 C   0  0  0  0  0  0  0  0  0  0  0  0
    8.2025  -12.9215   20.1528 C   0  0  0  0  0  0  0  0  0  0  0  0
    7.9622  -12.5788   18.8617 N   0  0  0  0  0  0  0  0  0  0  0  0
    8.0535  -13.6792   18.1108 C   0  0  0  0  0  0  0  0  0  0  0  0
    8.3511  -14.7192   18.9219 N   0  0  0  0  0  0  0  0  0  0  0  0
   10.5040  -15.7880   22.8906 C   0  0  0  0  0  0  0  0  0  0  0  0
   11.3551  -15.6345   23.7919 O   0  0  0  0  0  0  0  0  0  0  0  0
    9.9937  -17.0541   22.6752 O   0  0  0  0  0  0  0  0  0  0  0  0
  2  1  1  6
  3  2  1  0
  4  5  2  0
  4  2  1  0
  6  4  1  0
  7  6  1  0
  8 10  1  0
  8  7  1  0
  9  8  2  0
 11 10  1  0
 11 12  1  6
 12 13  1  0
 13 17  1  0
 13 14  2  0
 14 15  1  0
 16 15  1  0
 17 16  2  0
 18 11  1  0
 19 18  2  0
 20 18  1  0
M  END
$$$$
