AGH.pdb
     RDKit          3D

 20 20  0  0  1  0  0  0  0  0999 V2000
    6.1317  -19.5300   18.7970 C   0  0  0  0  0  0  0  0  0  0  0  0
    7.5201  -19.0519   19.1073 C   0  0  2  0  0  0  0  0  0  0  0  0
    8.1201  -19.8913   20.1092 N   0  0  0  0  0  0  0  0  0  0  0  0
    7.5168  -17.6409   19.5960 C   0  0  0  0  0  0  0  0  0  0  0  0
    7.0887  -16.6895   18.8919 O   0  0  0  0  0  0  0  0  0  0  0  0
    8.0037  -17.3249   20.8889 N   0  0  0  0  0  0  0  0  0  0  0  0
    7.8539  -16.0049   21.4158 C   0  0  0  0  0  0  0  0  0  0  0  0
    7.7728  -16.0086   22.9167 C   0  0  0  0  0  0  0  0  0  0  0  0
    6.8019  -16.4758   23.5368 O   0  0  0  0  0  0  0  0  0  0  0  0
    8.8408  -15.4594   23.6768 N   0  0  0  0  0  0  0  0  0  0  0  0
    8.8487  -15.3723   25.1037 C   0  0  1  0  0  0  0  0  0  0  0  0
    7.4435  -15.2440   25.6774 C   0  0  0  0  0  0  0  0  0  0  0  0
    7.0439  -13.8455   25.8838 C   0  0  0  0  0  0  0  0  0  0  0  0
    7.7840  -12.7129   25.6183 C   0  0  0  0  0  0  0  0  0  0  0  0
    7.0298  -11.6370   25.9588 N   0  0  0  0  0  0  0  0  0  0  0  0
    5.8568  -12.0759   26.4222 C   0  0  0  0  0  0  0  0  0  0  0  0
    5.8647  -13.4271   26.3766 N   0  0  0  0  0  0  0  0  0  0  0  0
    9.4960  -16.5193   25.7600 C   0  0  0  0  0  0  0  0  0  0  0  0
    8.8851  -17.5891   25.9671 O   0  0  0  0  0  0  0  0  0  0  0  0
   10.8142  -16.4250   26.1635 O   0  0  0  0  0  0  0  0  0  0  0  0
  2  1  1  1
  3  2  1  0
  4  5  2  0
  4  2  1  0
  6  4  1  0
  7  6  1  0
  8 10  1  0
  8  7  1  0
  9  8  2  0
 11 10  1  0
 11 12  1  1
 12 13  1  0
 13 17  1  0
 13 14  2  0
 14 15  1  0
 16 15  1  0
 17 16  2  0
 18 11  1  0
 19 18  2  0
 20 18  1  0
M  END
$$$$
