AGH.pdb
     RDKit          3D

 20 20  0  0  1  0  0  0  0  0999 V2000
    4.4482  -18.6768   19.7298 C   0  0  0  0  0  0  0  0  0  0  0  0
    5.7814  -19.0771   20.2910 C   0  0  2  0  0  0  0  0  0  0  0  0
    5.6727  -19.3102   21.7060 N   0  0  0  0  0  0  0  0  0  0  0  0
    6.8143  -18.0259   20.0510 C   0  0  0  0  0  0  0  0  0  0  0  0
    7.2801  -17.7942   18.9049 O   0  0  0  0  0  0  0  0  0  0  0  0
    7.3098  -17.2441   21.1242 N   0  0  0  0  0  0  0  0  0  0  0  0
    8.2360  -16.1836   20.8796 C   0  0  0  0  0  0  0  0  0  0  0  0
    8.9176  -15.7351   22.1420 C   0  0  0  0  0  0  0  0  0  0  0  0
    9.8509  -14.9139   22.1474 O   0  0  0  0  0  0  0  0  0  0  0  0
    8.4917  -16.2603   23.3920 N   0  0  0  0  0  0  0  0  0  0  0  0
    9.1609  -16.0226   24.6327 C   0  0  1  0  0  0  0  0  0  0  0  0
    8.1832  -15.7356   25.7650 C   0  0  0  0  0  0  0  0  0  0  0  0
    7.4808  -14.4569   25.5933 C   0  0  0  0  0  0  0  0  0  0  0  0
    7.6912  -13.5080   24.6154 C   0  0  0  0  0  0  0  0  0  0  0  0
    6.8235  -12.4878   24.8357 N   0  0  0  0  0  0  0  0  0  0  0  0
    6.0925  -12.7832   25.9136 C   0  0  0  0  0  0  0  0  0  0  0  0
    6.4942  -13.9879   26.3777 N   0  0  0  0  0  0  0  0  0  0  0  0
   10.0236  -17.1358   25.0591 C   0  0  0  0  0  0  0  0  0  0  0  0
   10.0873  -18.2031   24.4131 O   0  0  0  0  0  0  0  0  0  0  0  0
   10.7892  -17.0116   26.2028 O   0  0  0  0  0  0  0  0  0  0  0  0
  2  1  1  1
  3  2  1  0
  4  5  2  0
  4  2  1  0
  6  4  1  0
  7  6  1  0
  8 10  1  0
  8  7  1  0
  9  8  2  0
 11 10  1  0
 11 12  1  1
 12 13  1  0
 13 17  1  0
 13 14  2  0
 14 15  1  0
 16 15  1  0
 17 16  2  0
 18 11  1  0
 19 18  2  0
 20 18  1  0
M  END
$$$$
