AGH.pdb
     RDKit          3D

 20 20  0  0  1  0  0  0  0  0999 V2000
    7.5228  -19.5950   16.9331 C   0  0  0  0  0  0  0  0  0  0  0  0
    7.8047  -19.4460   18.3997 C   0  0  2  0  0  0  0  0  0  0  0  0
    6.9582  -18.4303   18.9656 N   0  0  0  0  0  0  0  0  0  0  0  0
    9.2312  -19.0820   18.6488 C   0  0  0  0  0  0  0  0  0  0  0  0
   10.1700  -19.9049   18.4885 O   0  0  0  0  0  0  0  0  0  0  0  0
    9.5772  -17.7773   19.0806 N   0  0  0  0  0  0  0  0  0  0  0  0
   10.9233  -17.4704   19.4498 C   0  0  0  0  0  0  0  0  0  0  0  0
   10.9820  -16.5945   20.6699 C   0  0  0  0  0  0  0  0  0  0  0  0
   12.0025  -15.9646   20.9974 O   0  0  0  0  0  0  0  0  0  0  0  0
    9.8330  -16.4681   21.4967 N   0  0  0  0  0  0  0  0  0  0  0  0
    9.7183  -15.5363   22.5748 C   0  0  1  0  0  0  0  0  0  0  0  0
    8.3473  -14.8737   22.6157 C   0  0  0  0  0  0  0  0  0  0  0  0
    7.9541  -14.3104   21.3173 C   0  0  0  0  0  0  0  0  0  0  0  0
    6.7353  -14.4311   20.6841 C   0  0  0  0  0  0  0  0  0  0  0  0
    6.8109  -13.7553   19.5094 N   0  0  0  0  0  0  0  0  0  0  0  0
    8.0333  -13.2278   19.4061 C   0  0  0  0  0  0  0  0  0  0  0  0
    8.7333  -13.5670   20.5119 N   0  0  0  0  0  0  0  0  0  0  0  0
    9.9657  -16.1325   23.8972 C   0  0  0  0  0  0  0  0  0  0  0  0
   10.1310  -17.3620   24.0436 O   0  0  0  0  0  0  0  0  0  0  0  0
   10.0191  -15.3230   25.0158 O   0  0  0  0  0  0  0  0  0  0  0  0
  2  1  1  6
  3  2  1  0
  4  5  2  0
  4  2  1  0
  6  4  1  0
  7  6  1  0
  8 10  1  0
  8  7  1  0
  9  8  2  0
 11 10  1  0
 11 12  1  1
 12 13  1  0
 13 17  1  0
 13 14  2  0
 14 15  1  0
 16 15  1  0
 17 16  2  0
 18 11  1  0
 19 18  2  0
 20 18  1  0
M  END
$$$$
