AGH.pdb
     RDKit          3D

 20 20  0  0  1  0  0  0  0  0999 V2000
    8.2002  -19.6055   18.3572 C   0  0  0  0  0  0  0  0  0  0  0  0
    9.1731  -19.5907   19.4999 C   0  0  2  0  0  0  0  0  0  0  0  0
    8.6851  -18.7428   20.5542 N   0  0  0  0  0  0  0  0  0  0  0  0
   10.5168  -19.1028   19.0687 C   0  0  0  0  0  0  0  0  0  0  0  0
   11.3232  -19.8336   18.4363 O   0  0  0  0  0  0  0  0  0  0  0  0
   10.9319  -17.7802   19.3632 N   0  0  0  0  0  0  0  0  0  0  0  0
   12.1360  -17.5460   20.0966 C   0  0  0  0  0  0  0  0  0  0  0  0
   11.9597  -16.4695   21.1306 C   0  0  0  0  0  0  0  0  0  0  0  0
   12.8899  -16.0717   21.8530 O   0  0  0  0  0  0  0  0  0  0  0  0
   10.6836  -15.8686   21.3050 N   0  0  0  0  0  0  0  0  0  0  0  0
   10.1896  -15.3817   22.5550 C   0  0  1  0  0  0  0  0  0  0  0  0
    8.7325  -14.9468   22.4647 C   0  0  0  0  0  0  0  0  0  0  0  0
    8.4306  -14.2427   21.2113 C   0  0  0  0  0  0  0  0  0  0  0  0
    9.3176  -13.8654   20.2255 C   0  0  0  0  0  0  0  0  0  0  0  0
    8.6100  -13.2426   19.2490 N   0  0  0  0  0  0  0  0  0  0  0  0
    7.3235  -13.2280   19.6065 C   0  0  0  0  0  0  0  0  0  0  0  0
    7.2129  -13.8398   20.8071 N   0  0  0  0  0  0  0  0  0  0  0  0
   10.2972  -16.3575   23.6511 C   0  0  0  0  0  0  0  0  0  0  0  0
   10.6169  -17.5471   23.4434 O   0  0  0  0  0  0  0  0  0  0  0  0
   10.0406  -15.9617   24.9500 O   0  0  0  0  0  0  0  0  0  0  0  0
  2  1  1  6
  3  2  1  0
  4  5  2  0
  4  2  1  0
  6  4  1  0
  7  6  1  0
  8 10  1  0
  8  7  1  0
  9  8  2  0
 11 10  1  0
 11 12  1  6
 12 13  1  0
 13 17  1  0
 13 14  2  0
 14 15  1  0
 16 15  1  0
 17 16  2  0
 18 11  1  0
 19 18  2  0
 20 18  1  0
M  END
$$$$
