DTM.pdb
     RDKit          3D

 24 23  0  0  1  0  0  0  0  0999 V2000
    6.7341  -19.0966   21.4480 N   0  0  0  0  0  0  0  0  0  0  0  0
    7.6664  -18.8417   20.3840 C   0  0  1  0  0  0  0  0  0  0  0  0
    7.0201  -18.9334   19.0364 C   0  0  0  0  0  0  0  0  0  0  0  0
    6.1589  -20.1306   18.9431 C   0  0  0  0  0  0  0  0  0  0  0  0
    6.5886  -21.3107   18.9756 O   0  0  0  0  0  0  0  0  0  0  0  0
    8.3140  -17.5295   20.5396 C   0  0  0  0  0  0  0  0  0  0  0  0
    9.3327  -17.2535   19.8146 O   0  0  0  0  0  0  0  0  0  0  0  0
    4.7698  -19.9969   18.8089 O   0  0  0  0  0  0  0  0  0  0  0  0
    7.4350  -14.3242   19.5050 C   0  0  0  0  0  0  0  0  0  0  0  0
    7.4753  -14.2603   21.0105 C   0  0  1  0  0  0  0  0  0  0  0  0
    6.2260  -14.7021   21.5032 O   0  0  0  0  0  0  0  0  0  0  0  0
    8.4878  -15.2494   21.5372 C   0  0  2  0  0  0  0  0  0  0  0  0
    7.8489  -16.5747   21.4599 N   0  0  0  0  0  0  0  0  0  0  0  0
    8.9053  -15.0166   22.9295 C   0  0  0  0  0  0  0  0  0  0  0  0
    9.3301  -13.8512   23.2261 O   0  0  0  0  0  0  0  0  0  0  0  0
    7.4229  -10.7643   26.9510 C   0  0  0  0  0  0  0  0  0  0  0  0
    6.9940  -12.5428   26.9552 S   0  0  0  0  0  0  0  0  0  0  0  0
    7.9277  -13.2779   25.5490 C   0  0  0  0  0  0  0  0  0  0  0  0
    7.5840  -14.7342   25.4644 C   0  0  0  0  0  0  0  0  0  0  0  0
    8.8146  -15.5885   25.3158 C   0  0  2  0  0  0  0  0  0  0  0  0
    8.8438  -16.0262   23.9169 N   0  0  0  0  0  0  0  0  0  0  0  0
    8.7008  -16.7815   26.1709 C   0  0  0  0  0  0  0  0  0  0  0  0
    8.9043  -16.7611   27.4053 O   0  0  0  0  0  0  0  0  0  0  0  0
    8.3525  -18.0000   25.6071 O   0  0  0  0  0  0  0  0  0  0  0  0
  2  1  1  1
  2  3  1  0
  3  4  1  0
  4  5  2  0
  4  8  1  0
  6 13  1  0
  6  2  1  0
  7  6  2  0
 10  9  1  6
 10 12  1  0
 11 10  1  0
 12 13  1  1
 12 14  1  0
 14 21  1  0
 14 15  2  0
 17 16  1  0
 17 18  1  0
 18 19  1  0
 20 19  1  6
 21 20  1  0
 22 20  1  0
 22 24  1  0
 23 22  2  0
M  END
$$$$
