DTM.pdb
     RDKit          3D

 24 23  0  0  1  0  0  0  0  0999 V2000
   11.0683  -18.6494   19.8198 N   0  0  0  0  0  0  0  0  0  0  0  0
   10.8488  -17.3050   19.3607 C   0  0  1  0  0  0  0  0  0  0  0  0
   10.4545  -17.2615   17.9168 C   0  0  0  0  0  0  0  0  0  0  0  0
   11.5590  -17.7272   17.0526 C   0  0  0  0  0  0  0  0  0  0  0  0
   12.6474  -18.1814   17.4854 O   0  0  0  0  0  0  0  0  0  0  0  0
    9.8355  -16.6171   20.1766 C   0  0  0  0  0  0  0  0  0  0  0  0
    9.4659  -15.4388   19.8382 O   0  0  0  0  0  0  0  0  0  0  0  0
   11.4360  -17.6806   15.6568 O   0  0  0  0  0  0  0  0  0  0  0  0
    6.4537  -17.5550   20.8546 C   0  0  0  0  0  0  0  0  0  0  0  0
    7.0626  -17.3668   22.2206 C   0  0  1  0  0  0  0  0  0  0  0  0
    7.5494  -18.6187   22.6616 O   0  0  0  0  0  0  0  0  0  0  0  0
    8.2779  -16.4757   22.1202 C   0  0  2  0  0  0  0  0  0  0  0  0
    9.2654  -17.2139   21.3140 N   0  0  0  0  0  0  0  0  0  0  0  0
    8.8960  -16.1343   23.4118 C   0  0  0  0  0  0  0  0  0  0  0  0
   10.1117  -16.4773   23.5878 O   0  0  0  0  0  0  0  0  0  0  0  0
    6.8117  -10.6161   26.9863 C   0  0  0  0  0  0  0  0  0  0  0  0
    6.1982  -12.2273   26.3741 S   0  0  0  0  0  0  0  0  0  0  0  0
    7.6468  -13.0340   25.5738 C   0  0  0  0  0  0  0  0  0  0  0  0
    8.0848  -14.1792   26.4356 C   0  0  0  0  0  0  0  0  0  0  0  0
    8.9252  -15.1639   25.6673 C   0  0  2  0  0  0  0  0  0  0  0  0
    8.1929  -15.4510   24.4301 N   0  0  0  0  0  0  0  0  0  0  0  0
    9.0509  -16.4163   26.4310 C   0  0  0  0  0  0  0  0  0  0  0  0
    9.7016  -16.5065   27.4959 O   0  0  0  0  0  0  0  0  0  0  0  0
    8.4278  -17.5668   25.9708 O   0  0  0  0  0  0  0  0  0  0  0  0
  2  1  1  1
  2  3  1  0
  3  4  1  0
  4  5  2  0
  4  8  1  0
  6 13  1  0
  6  2  1  0
  7  6  2  0
 10  9  1  6
 10 12  1  0
 11 10  1  0
 12 13  1  6
 12 14  1  0
 14 21  1  0
 14 15  2  0
 17 16  1  0
 17 18  1  0
 18 19  1  0
 20 19  1  1
 21 20  1  0
 22 20  1  0
 22 24  1  0
 23 22  2  0
M  END
$$$$
