DTM.pdb
     RDKit          3D

 24 23  0  0  1  0  0  0  0  0999 V2000
   13.4151  -18.4092   20.5815 N   0  0  0  0  0  0  0  0  0  0  0  0
   14.1100  -17.6364   21.5745 C   0  0  1  0  0  0  0  0  0  0  0  0
   14.9807  -16.5844   20.9602 C   0  0  0  0  0  0  0  0  0  0  0  0
   16.0933  -17.1946   20.2029 C   0  0  0  0  0  0  0  0  0  0  0  0
   16.1431  -17.2513   18.9489 O   0  0  0  0  0  0  0  0  0  0  0  0
   13.1735  -17.0172   22.5260 C   0  0  0  0  0  0  0  0  0  0  0  0
   13.5777  -16.0333   23.2388 O   0  0  0  0  0  0  0  0  0  0  0  0
   17.1850  -17.7593   20.8771 O   0  0  0  0  0  0  0  0  0  0  0  0
    9.4310  -16.1683   21.8201 C   0  0  0  0  0  0  0  0  0  0  0  0
    9.5567  -16.9725   23.0888 C   0  0  1  0  0  0  0  0  0  0  0  0
    9.4205  -18.3403   22.7580 O   0  0  0  0  0  0  0  0  0  0  0  0
   10.9527  -16.8312   23.6474 C   0  0  2  0  0  0  0  0  0  0  0  0
   11.8534  -17.4751   22.6755 N   0  0  0  0  0  0  0  0  0  0  0  0
   11.1553  -17.4673   24.9593 C   0  0  0  0  0  0  0  0  0  0  0  0
   12.3550  -17.5746   25.3788 O   0  0  0  0  0  0  0  0  0  0  0  0
   10.4896  -13.3924   27.8065 C   0  0  0  0  0  0  0  0  0  0  0  0
   10.7706  -14.5149   29.2235 S   0  0  0  0  0  0  0  0  0  0  0  0
   11.2294  -16.1371   28.4834 C   0  0  0  0  0  0  0  0  0  0  0  0
   10.0369  -16.6770   27.7537 C   0  0  0  0  0  0  0  0  0  0  0  0
   10.3036  -18.0465   27.1884 C   0  0  2  0  0  0  0  0  0  0  0  0
   10.0801  -17.9445   25.7431 N   0  0  0  0  0  0  0  0  0  0  0  0
    9.3369  -19.0110   27.7385 C   0  0  0  0  0  0  0  0  0  0  0  0
    8.3192  -19.3904   27.1173 O   0  0  0  0  0  0  0  0  0  0  0  0
    9.5398  -19.5408   29.0042 O   0  0  0  0  0  0  0  0  0  0  0  0
  2  1  1  6
  2  3  1  0
  3  4  1  0
  4  5  2  0
  4  8  1  0
  6 13  1  0
  6  2  1  0
  7  6  2  0
 10  9  1  6
 10 12  1  0
 11 10  1  0
 12 13  1  6
 12 14  1  0
 14 21  1  0
 14 15  2  0
 17 16  1  0
 17 18  1  0
 18 19  1  0
 20 19  1  1
 21 20  1  0
 22 20  1  0
 22 24  1  0
 23 22  2  0
M  END
$$$$
