DTM.pdb
     RDKit          3D

 24 23  0  0  1  0  0  0  0  0999 V2000
   12.0663  -18.0083   18.8946 N   0  0  0  0  0  0  0  0  0  0  0  0
   12.2705  -17.7191   20.2878 C   0  0  1  0  0  0  0  0  0  0  0  0
   13.3602  -16.7141   20.4993 C   0  0  0  0  0  0  0  0  0  0  0  0
   14.6698  -17.3796   20.6597 C   0  0  0  0  0  0  0  0  0  0  0  0
   14.8389  -18.6231   20.6012 O   0  0  0  0  0  0  0  0  0  0  0  0
   11.0297  -17.2533   20.9275 C   0  0  0  0  0  0  0  0  0  0  0  0
   10.2278  -16.5152   20.2556 O   0  0  0  0  0  0  0  0  0  0  0  0
   15.8265  -16.6228   20.8934 O   0  0  0  0  0  0  0  0  0  0  0  0
    8.4029  -19.2768   21.8660 C   0  0  0  0  0  0  0  0  0  0  0  0
    8.6856  -18.5145   23.1353 C   0  0  1  0  0  0  0  0  0  0  0  0
    9.6094  -19.2623   23.9011 O   0  0  0  0  0  0  0  0  0  0  0  0
    9.3904  -17.2195   22.8077 C   0  0  2  0  0  0  0  0  0  0  0  0
   10.7023  -17.5929   22.2513 N   0  0  0  0  0  0  0  0  0  0  0  0
    9.6116  -16.3331   23.9619 C   0  0  0  0  0  0  0  0  0  0  0  0
   10.8099  -16.2029   24.3788 O   0  0  0  0  0  0  0  0  0  0  0  0
    6.0421  -11.4422   25.6025 C   0  0  0  0  0  0  0  0  0  0  0  0
    6.4675  -11.8981   27.3225 S   0  0  0  0  0  0  0  0  0  0  0  0
    7.9077  -13.0371   27.1883 C   0  0  0  0  0  0  0  0  0  0  0  0
    7.7501  -13.8520   25.9404 C   0  0  0  0  0  0  0  0  0  0  0  0
    8.9088  -14.7919   25.7397 C   0  0  2  0  0  0  0  0  0  0  0  0
    8.5560  -15.6402   24.5972 N   0  0  0  0  0  0  0  0  0  0  0  0
    9.0646  -15.6529   26.9237 C   0  0  0  0  0  0  0  0  0  0  0  0
    8.6119  -16.8176   26.9877 O   0  0  0  0  0  0  0  0  0  0  0  0
    9.7418  -15.1752   28.0360 O   0  0  0  0  0  0  0  0  0  0  0  0
  2  1  1  6
  2  3  1  0
  3  4  1  0
  4  5  2  0
  4  8  1  0
  6 13  1  0
  6  2  1  0
  7  6  2  0
 10  9  1  6
 10 12  1  0
 11 10  1  0
 12 13  1  1
 12 14  1  0
 14 21  1  0
 14 15  2  0
 17 16  1  0
 17 18  1  0
 18 19  1  0
 20 19  1  1
 21 20  1  0
 22 20  1  0
 22 24  1  0
 23 22  2  0
M  END
$$$$
