DTM.pdb
     RDKit          3D

 24 23  0  0  1  0  0  0  0  0999 V2000
   12.1398  -17.5830   18.8485 N   0  0  0  0  0  0  0  0  0  0  0  0
   11.4460  -17.9459   20.0540 C   0  0  1  0  0  0  0  0  0  0  0  0
   12.3465  -18.6272   21.0374 C   0  0  0  0  0  0  0  0  0  0  0  0
   13.2872  -19.5370   20.3512 C   0  0  0  0  0  0  0  0  0  0  0  0
   14.5279  -19.3498   20.2888 O   0  0  0  0  0  0  0  0  0  0  0  0
   10.8129  -16.7758   20.6829 C   0  0  0  0  0  0  0  0  0  0  0  0
   11.4504  -15.6655   20.7040 O   0  0  0  0  0  0  0  0  0  0  0  0
   12.8180  -20.6947   19.7148 O   0  0  0  0  0  0  0  0  0  0  0  0
    7.6634  -15.3695   19.5633 C   0  0  0  0  0  0  0  0  0  0  0  0
    7.5038  -15.6059   21.0434 C   0  0  1  0  0  0  0  0  0  0  0  0
    6.9883  -16.9094   21.2277 O   0  0  0  0  0  0  0  0  0  0  0  0
    8.8594  -15.6120   21.7092 C   0  0  2  0  0  0  0  0  0  0  0  0
    9.5338  -16.8427   21.2610 N   0  0  0  0  0  0  0  0  0  0  0  0
    8.8196  -15.6148   23.1807 C   0  0  0  0  0  0  0  0  0  0  0  0
    9.3920  -16.5843   23.7799 O   0  0  0  0  0  0  0  0  0  0  0  0
    5.4365  -11.4841   27.3054 C   0  0  0  0  0  0  0  0  0  0  0  0
    7.1063  -11.7615   27.9995 S   0  0  0  0  0  0  0  0  0  0  0  0
    7.6069  -13.4371   27.4238 C   0  0  0  0  0  0  0  0  0  0  0  0
    7.7451  -13.4017   25.9319 C   0  0  0  0  0  0  0  0  0  0  0  0
    8.1805  -14.7336   25.3818 C   0  0  2  0  0  0  0  0  0  0  0  0
    8.1826  -14.5939   23.9224 N   0  0  0  0  0  0  0  0  0  0  0  0
    7.1994  -15.7692   25.7454 C   0  0  0  0  0  0  0  0  0  0  0  0
    6.1907  -16.0302   25.0526 O   0  0  0  0  0  0  0  0  0  0  0  0
    7.3774  -16.5064   26.9067 O   0  0  0  0  0  0  0  0  0  0  0  0
  2  1  1  6
  2  3  1  0
  3  4  1  0
  4  5  2  0
  4  8  1  0
  6 13  1  0
  6  2  1  0
  7  6  2  0
 10  9  1  6
 10 12  1  0
 11 10  1  0
 12 13  1  6
 12 14  1  0
 14 21  1  0
 14 15  2  0
 17 16  1  0
 17 18  1  0
 18 19  1  0
 20 19  1  1
 21 20  1  0
 22 20  1  0
 22 24  1  0
 23 22  2  0
M  END
$$$$
