DTM.pdb
     RDKit          3D

 24 23  0  0  1  0  0  0  0  0999 V2000
   10.7700  -18.8009   20.0805 N   0  0  0  0  0  0  0  0  0  0  0  0
   11.6084  -17.6339   20.1185 C   0  0  1  0  0  0  0  0  0  0  0  0
   11.9729  -17.1587   18.7460 C   0  0  0  0  0  0  0  0  0  0  0  0
   13.2895  -17.6890   18.3349 C   0  0  0  0  0  0  0  0  0  0  0  0
   13.4969  -18.2977   17.2557 O   0  0  0  0  0  0  0  0  0  0  0  0
   10.9750  -16.5414   20.8740 C   0  0  0  0  0  0  0  0  0  0  0  0
   11.5767  -15.4137   20.9509 O   0  0  0  0  0  0  0  0  0  0  0  0
   14.4089  -17.5300   19.1638 O   0  0  0  0  0  0  0  0  0  0  0  0
    7.5274  -15.3193   20.3036 C   0  0  0  0  0  0  0  0  0  0  0  0
    7.6452  -15.5770   21.7841 C   0  0  1  0  0  0  0  0  0  0  0  0
    7.2006  -16.8948   22.0381 O   0  0  0  0  0  0  0  0  0  0  0  0
    9.0992  -15.5577   22.1922 C   0  0  2  0  0  0  0  0  0  0  0  0
    9.7337  -16.7008   21.5131 N   0  0  0  0  0  0  0  0  0  0  0  0
    9.3314  -15.6912   23.6396 C   0  0  0  0  0  0  0  0  0  0  0  0
   10.0869  -16.6434   24.0259 O   0  0  0  0  0  0  0  0  0  0  0  0
    6.5747  -10.9149   26.4167 C   0  0  0  0  0  0  0  0  0  0  0  0
    6.2362  -12.4060   27.4212 S   0  0  0  0  0  0  0  0  0  0  0  0
    6.8932  -13.8195   26.4416 C   0  0  0  0  0  0  0  0  0  0  0  0
    8.3437  -13.9923   26.7768 C   0  0  0  0  0  0  0  0  0  0  0  0
    8.9633  -15.1232   26.0001 C   0  0  2  0  0  0  0  0  0  0  0  0
    8.7551  -14.8103   24.5830 N   0  0  0  0  0  0  0  0  0  0  0  0
    8.2614  -16.3812   26.3035 C   0  0  0  0  0  0  0  0  0  0  0  0
    7.3542  -16.8506   25.5808 O   0  0  0  0  0  0  0  0  0  0  0  0
    8.6023  -17.1014   27.4388 O   0  0  0  0  0  0  0  0  0  0  0  0
  2  1  1  6
  2  3  1  0
  3  4  1  0
  4  5  2  0
  4  8  1  0
  6 13  1  0
  6  2  1  0
  7  6  2  0
 10  9  1  6
 10 12  1  0
 11 10  1  0
 12 13  1  6
 12 14  1  0
 14 21  1  0
 14 15  2  0
 17 16  1  0
 17 18  1  0
 18 19  1  0
 20 19  1  1
 21 20  1  0
 22 20  1  0
 22 24  1  0
 23 22  2  0
M  END
$$$$
