DTM.pdb
     RDKit          3D

 24 23  0  0  1  0  0  0  0  0999 V2000
   12.0125  -17.2191   18.3555 N   0  0  0  0  0  0  0  0  0  0  0  0
   11.8751  -17.2212   19.7864 C   0  0  1  0  0  0  0  0  0  0  0  0
   13.1431  -16.8181   20.4735 C   0  0  0  0  0  0  0  0  0  0  0  0
   14.1982  -17.8334   20.2747 C   0  0  0  0  0  0  0  0  0  0  0  0
   14.8241  -17.9960   19.1976 O   0  0  0  0  0  0  0  0  0  0  0  0
   10.7718  -16.3500   20.2218 C   0  0  0  0  0  0  0  0  0  0  0  0
   10.7297  -15.1449   19.7913 O   0  0  0  0  0  0  0  0  0  0  0  0
   14.5615  -18.6935   21.3204 O   0  0  0  0  0  0  0  0  0  0  0  0
    7.3427  -16.9219   19.5855 C   0  0  0  0  0  0  0  0  0  0  0  0
    7.3835  -16.6868   21.0739 C   0  0  1  0  0  0  0  0  0  0  0  0
    7.5091  -17.9411   21.7141 O   0  0  0  0  0  0  0  0  0  0  0  0
    8.6351  -15.9233   21.4367 C   0  0  2  0  0  0  0  0  0  0  0  0
    9.7678  -16.8012   21.0953 N   0  0  0  0  0  0  0  0  0  0  0  0
    8.7415  -15.5613   22.8595 C   0  0  0  0  0  0  0  0  0  0  0  0
    9.7487  -16.0064   23.5030 O   0  0  0  0  0  0  0  0  0  0  0  0
    6.9414  -10.4830   27.8398 C   0  0  0  0  0  0  0  0  0  0  0  0
    5.8584  -11.7929   27.1630 S   0  0  0  0  0  0  0  0  0  0  0  0
    6.9695  -13.2184   26.8126 C   0  0  0  0  0  0  0  0  0  0  0  0
    6.9557  -13.4759   25.3363 C   0  0  0  0  0  0  0  0  0  0  0  0
    7.9669  -14.5197   24.9440 C   0  0  2  0  0  0  0  0  0  0  0  0
    7.7815  -14.7516   23.5083 N   0  0  0  0  0  0  0  0  0  0  0  0
    7.6875  -15.7781   25.6551 C   0  0  0  0  0  0  0  0  0  0  0  0
    6.8841  -16.6394   25.2328 O   0  0  0  0  0  0  0  0  0  0  0  0
    8.3322  -16.0477   26.8533 O   0  0  0  0  0  0  0  0  0  0  0  0
  2  1  1  6
  2  3  1  0
  3  4  1  0
  4  5  2  0
  4  8  1  0
  6 13  1  0
  6  2  1  0
  7  6  2  0
 10  9  1  6
 10 12  1  0
 11 10  1  0
 12 13  1  1
 12 14  1  0
 14 21  1  0
 14 15  2  0
 17 16  1  0
 17 18  1  0
 18 19  1  0
 20 19  1  1
 21 20  1  0
 22 20  1  0
 22 24  1  0
 23 22  2  0
M  END
$$$$
