DTM.pdb
     RDKit          3D

 24 23  0  0  1  0  0  0  0  0999 V2000
    9.9675  -18.7012   19.2697 N   0  0  0  0  0  0  0  0  0  0  0  0
   10.9129  -17.6273   19.4079 C   0  0  1  0  0  0  0  0  0  0  0  0
   11.3187  -17.0615   18.0822 C   0  0  0  0  0  0  0  0  0  0  0  0
   12.3801  -17.8801   17.4603 C   0  0  0  0  0  0  0  0  0  0  0  0
   12.2271  -19.0732   17.0978 O   0  0  0  0  0  0  0  0  0  0  0  0
   10.3872  -16.5559   20.2690 C   0  0  0  0  0  0  0  0  0  0  0  0
   11.1054  -15.5145   20.4672 O   0  0  0  0  0  0  0  0  0  0  0  0
   13.6547  -17.3399   17.2386 O   0  0  0  0  0  0  0  0  0  0  0  0
    6.8407  -15.0331   20.3338 C   0  0  0  0  0  0  0  0  0  0  0  0
    7.1983  -15.5108   21.7180 C   0  0  1  0  0  0  0  0  0  0  0  0
    6.7105  -16.8293   21.8681 O   0  0  0  0  0  0  0  0  0  0  0  0
    8.6988  -15.6201   21.8493 C   0  0  2  0  0  0  0  0  0  0  0  0
    9.1246  -16.6440   20.8795 N   0  0  0  0  0  0  0  0  0  0  0  0
    9.1696  -16.0222   23.1848 C   0  0  0  0  0  0  0  0  0  0  0  0
   10.0640  -16.9297   23.2415 O   0  0  0  0  0  0  0  0  0  0  0  0
   10.8244  -13.7415   30.3741 C   0  0  0  0  0  0  0  0  0  0  0  0
    9.9474  -13.3438   28.8186 S   0  0  0  0  0  0  0  0  0  0  0  0
    9.9941  -14.8885   27.8180 C   0  0  0  0  0  0  0  0  0  0  0  0
    9.3605  -14.6091   26.4888 C   0  0  0  0  0  0  0  0  0  0  0  0
    9.3007  -15.8443   25.6304 C   0  0  2  0  0  0  0  0  0  0  0  0
    8.6692  -15.4386   24.3710 N   0  0  0  0  0  0  0  0  0  0  0  0
    8.4454  -16.8570   26.2709 C   0  0  0  0  0  0  0  0  0  0  0  0
    7.2328  -17.0007   25.9982 O   0  0  0  0  0  0  0  0  0  0  0  0
    8.9841  -17.7062   27.2262 O   0  0  0  0  0  0  0  0  0  0  0  0
  2  1  1  6
  2  3  1  0
  3  4  1  0
  4  5  2  0
  4  8  1  0
  6 13  1  0
  6  2  1  0
  7  6  2  0
 10  9  1  6
 10 12  1  0
 11 10  1  0
 12 13  1  6
 12 14  1  0
 14 21  1  0
 14 15  2  0
 17 16  1  0
 17 18  1  0
 18 19  1  0
 20 19  1  1
 21 20  1  0
 22 20  1  0
 22 24  1  0
 23 22  2  0
M  END
$$$$
