DTM.pdb
     RDKit          3D

 24 23  0  0  1  0  0  0  0  0999 V2000
   12.7511  -18.7151   20.5755 N   0  0  0  0  0  0  0  0  0  0  0  0
   12.4926  -17.3867   20.0908 C   0  0  1  0  0  0  0  0  0  0  0  0
   12.5662  -17.3092   18.5972 C   0  0  0  0  0  0  0  0  0  0  0  0
   13.9569  -17.4774   18.1266 C   0  0  0  0  0  0  0  0  0  0  0  0
   14.9100  -16.7337   18.4683 O   0  0  0  0  0  0  0  0  0  0  0  0
   11.1868  -16.8903   20.5534 C   0  0  0  0  0  0  0  0  0  0  0  0
   10.6518  -15.8991   19.9445 O   0  0  0  0  0  0  0  0  0  0  0  0
   14.2866  -18.5151   17.2435 O   0  0  0  0  0  0  0  0  0  0  0  0
    8.1544  -18.9216   20.8229 C   0  0  0  0  0  0  0  0  0  0  0  0
    8.3174  -18.2479   22.1614 C   0  0  1  0  0  0  0  0  0  0  0  0
    9.0606  -19.1099   23.0002 O   0  0  0  0  0  0  0  0  0  0  0  0
    9.1642  -17.0067   22.0093 C   0  0  2  0  0  0  0  0  0  0  0  0
   10.5136  -17.4701   21.6422 N   0  0  0  0  0  0  0  0  0  0  0  0
    9.2713  -16.1847   23.2257 C   0  0  0  0  0  0  0  0  0  0  0  0
   10.3867  -16.1969   23.8441 O   0  0  0  0  0  0  0  0  0  0  0  0
    6.1233  -10.6974   27.8315 C   0  0  0  0  0  0  0  0  0  0  0  0
    5.7999  -11.8786   26.4724 S   0  0  0  0  0  0  0  0  0  0  0  0
    7.3182  -12.9121   26.3463 C   0  0  0  0  0  0  0  0  0  0  0  0
    7.2123  -13.7580   25.1136 C   0  0  0  0  0  0  0  0  0  0  0  0
    8.4461  -14.5951   24.9056 C   0  0  2  0  0  0  0  0  0  0  0  0
    8.1971  -15.4021   23.7072 N   0  0  0  0  0  0  0  0  0  0  0  0
    8.6294  -15.5069   26.0468 C   0  0  0  0  0  0  0  0  0  0  0  0
    9.1736  -15.1610   27.1190 O   0  0  0  0  0  0  0  0  0  0  0  0
    8.1866  -16.8183   25.9561 O   0  0  0  0  0  0  0  0  0  0  0  0
  2  1  1  6
  2  3  1  0
  3  4  1  0
  4  5  2  0
  4  8  1  0
  6 13  1  0
  6  2  1  0
  7  6  2  0
 10  9  1  6
 10 12  1  0
 11 10  1  0
 12 13  1  1
 12 14  1  0
 14 21  1  0
 14 15  2  0
 17 16  1  0
 17 18  1  0
 18 19  1  0
 20 19  1  1
 21 20  1  0
 22 20  1  0
 22 24  1  0
 23 22  2  0
M  END
$$$$
