CHS.pdb
     RDKit          3D

 23 23  0  0  1  0  0  0  0  0999 V2000
   15.5092  -11.7553  -14.6525 N   0  0  0  0  0  0  0  0  0  0  0  0
   15.6654  -10.3261  -14.4775 C   0  0  1  0  0  0  0  0  0  0  0  0
   15.0083   -9.9522  -13.1793 C   0  0  0  0  0  0  0  0  0  0  0  0
   13.2143   -9.9163  -13.4848 S   0  0  0  0  0  0  0  0  0  0  0  0
   17.0652   -9.9361  -14.5847 C   0  0  0  0  0  0  0  0  0  0  0  0
   17.9277  -10.6640  -14.0256 O   0  0  0  0  0  0  0  0  0  0  0  0
   17.5578   -8.8040  -15.2649 N   0  0  0  0  0  0  0  0  0  0  0  0
   18.9514   -8.5186  -15.4924 C   0  0  1  0  0  0  0  0  0  0  0  0
   19.3636   -8.4072  -16.9095 C   0  0  0  0  0  0  0  0  0  0  0  0
   19.3914   -9.6572  -17.6871 C   0  0  0  0  0  0  0  0  0  0  0  0
   19.1740  -10.9470  -17.2803 C   0  0  0  0  0  0  0  0  0  0  0  0
   19.3113  -11.8094  -18.3311 N   0  0  0  0  0  0  0  0  0  0  0  0
   19.6107  -11.0477  -19.3709 C   0  0  0  0  0  0  0  0  0  0  0  0
   19.6677   -9.7535  -19.0243 N   0  0  0  0  0  0  0  0  0  0  0  0
   19.3459   -7.2251  -14.8320 C   0  0  0  0  0  0  0  0  0  0  0  0
   18.4578   -6.3306  -14.8095 O   0  0  0  0  0  0  0  0  0  0  0  0
   22.5691   -4.5274  -12.4291 O   0  0  0  0  0  0  0  0  0  0  0  0
   22.2764   -5.7792  -12.9657 C   0  0  0  0  0  0  0  0  0  0  0  0
   20.9876   -5.7257  -13.7682 C   0  0  2  0  0  0  0  0  0  0  0  0
   20.6342   -7.0277  -14.2720 N   0  0  0  0  0  0  0  0  0  0  0  0
   21.0638   -4.7073  -14.8441 C   0  0  0  0  0  0  0  0  0  0  0  0
   20.4884   -3.4552  -14.6871 O   0  0  0  0  0  0  0  0  0  0  0  0
   21.6514   -4.9518  -15.9255 O   0  0  0  0  0  0  0  0  0  0  0  0
  2  1  1  1
  3  2  1  0
  4  3  1  0
  5  2  1  0
  6  5  2  0
  7  5  1  0
  8  7  1  0
  9 10  1  0
  8  9  1  6
 10 11  2  0
 12 11  1  0
 13 12  1  0
 14 13  2  0
 14 10  1  0
 15 20  1  0
 15  8  1  0
 16 15  2  0
 18 17  1  0
 19 20  1  0
 19 18  1  6
 21 19  1  0
 21 22  1  0
 23 21  2  0
M  END
$$$$
