CHS.pdb
     RDKit          3D

 23 23  0  0  1  0  0  0  0  0999 V2000
   19.9215  -12.7342  -18.1333 N   0  0  0  0  0  0  0  0  0  0  0  0
   19.8568  -11.2897  -18.2150 C   0  0  1  0  0  0  0  0  0  0  0  0
   18.4121  -10.9068  -18.3676 C   0  0  0  0  0  0  0  0  0  0  0  0
   18.0189  -11.0194  -20.1413 S   0  0  0  0  0  0  0  0  0  0  0  0
   20.5332  -10.6711  -17.0824 C   0  0  0  0  0  0  0  0  0  0  0  0
   20.2984  -11.1255  -15.9315 O   0  0  0  0  0  0  0  0  0  0  0  0
   21.4409   -9.5946  -17.1494 N   0  0  0  0  0  0  0  0  0  0  0  0
   22.1052   -9.0026  -16.0165 C   0  0  1  0  0  0  0  0  0  0  0  0
   23.5787   -9.1393  -15.9894 C   0  0  0  0  0  0  0  0  0  0  0  0
   24.1111  -10.5095  -15.9047 C   0  0  0  0  0  0  0  0  0  0  0  0
   24.0609  -11.4066  -14.8709 C   0  0  0  0  0  0  0  0  0  0  0  0
   24.6957  -12.5669  -15.2133 N   0  0  0  0  0  0  0  0  0  0  0  0
   25.1297  -12.3759  -16.4487 C   0  0  0  0  0  0  0  0  0  0  0  0
   24.7988  -11.1558  -16.8963 N   0  0  0  0  0  0  0  0  0  0  0  0
   21.8136   -7.5283  -15.9372 C   0  0  0  0  0  0  0  0  0  0  0  0
   21.8910   -6.8973  -17.0259 O   0  0  0  0  0  0  0  0  0  0  0  0
   19.4514   -3.8860  -14.1982 O   0  0  0  0  0  0  0  0  0  0  0  0
   19.7511   -5.2464  -14.1821 C   0  0  0  0  0  0  0  0  0  0  0  0
   21.1502   -5.4892  -14.7220 C   0  0  2  0  0  0  0  0  0  0  0  0
   21.4739   -6.8924  -14.7155 N   0  0  0  0  0  0  0  0  0  0  0  0
   22.1569   -4.6757  -13.9972 C   0  0  0  0  0  0  0  0  0  0  0  0
   22.4862   -3.3976  -14.4233 O   0  0  0  0  0  0  0  0  0  0  0  0
   22.7377   -5.1228  -12.9787 O   0  0  0  0  0  0  0  0  0  0  0  0
  2  1  1  1
  3  2  1  0
  4  3  1  0
  5  2  1  0
  6  5  2  0
  7  5  1  0
  8  7  1  0
  9 10  1  0
  8  9  1  6
 10 11  2  0
 12 11  1  0
 13 12  1  0
 14 13  2  0
 14 10  1  0
 15 20  1  0
 15  8  1  0
 16 15  2  0
 18 17  1  0
 19 20  1  0
 19 18  1  1
 21 19  1  0
 21 22  1  0
 23 21  2  0
M  END
$$$$
