CHS.pdb
     RDKit          3D

 23 23  0  0  1  0  0  0  0  0999 V2000
   18.3069  -12.9391  -17.7770 N   0  0  0  0  0  0  0  0  0  0  0  0
   18.8255  -11.6872  -18.2884 C   0  0  1  0  0  0  0  0  0  0  0  0
   17.6885  -10.7061  -18.3280 C   0  0  0  0  0  0  0  0  0  0  0  0
   16.5238  -11.2960  -19.5964 S   0  0  0  0  0  0  0  0  0  0  0  0
   19.9818  -11.2469  -17.5189 C   0  0  0  0  0  0  0  0  0  0  0  0
   19.9251  -11.3309  -16.2635 O   0  0  0  0  0  0  0  0  0  0  0  0
   21.1790  -10.7268  -18.0510 N   0  0  0  0  0  0  0  0  0  0  0  0
   22.3088  -10.2906  -17.2708 C   0  0  1  0  0  0  0  0  0  0  0  0
   23.6409  -10.6112  -17.8302 C   0  0  0  0  0  0  0  0  0  0  0  0
   24.8051  -10.2635  -16.9985 C   0  0  0  0  0  0  0  0  0  0  0  0
   25.3362  -10.9166  -15.9180 C   0  0  0  0  0  0  0  0  0  0  0  0
   26.4173  -10.2369  -15.4322 N   0  0  0  0  0  0  0  0  0  0  0  0
   26.5423   -9.1760  -16.2133 C   0  0  0  0  0  0  0  0  0  0  0  0
   25.5950   -9.1576  -17.1624 N   0  0  0  0  0  0  0  0  0  0  0  0
   22.2779   -8.7988  -17.0749 C   0  0  0  0  0  0  0  0  0  0  0  0
   21.9759   -8.1206  -18.0938 O   0  0  0  0  0  0  0  0  0  0  0  0
   20.3921   -6.6457  -14.6301 O   0  0  0  0  0  0  0  0  0  0  0  0
   21.7416   -6.3346  -14.4799 C   0  0  0  0  0  0  0  0  0  0  0  0
   22.5260   -6.7625  -15.7086 C   0  0  2  0  0  0  0  0  0  0  0  0
   22.5701   -8.1972  -15.8238 N   0  0  0  0  0  0  0  0  0  0  0  0
   23.8791   -6.1545  -15.7235 C   0  0  0  0  0  0  0  0  0  0  0  0
   24.0465   -4.7824  -15.8366 O   0  0  0  0  0  0  0  0  0  0  0  0
   24.9087   -6.8661  -15.6342 O   0  0  0  0  0  0  0  0  0  0  0  0
  2  1  1  1
  3  2  1  0
  4  3  1  0
  5  2  1  0
  6  5  2  0
  7  5  1  0
  8  7  1  0
  9 10  1  0
  8  9  1  6
 10 11  2  0
 12 11  1  0
 13 12  1  0
 14 13  2  0
 14 10  1  0
 15 20  1  0
 15  8  1  0
 16 15  2  0
 18 17  1  0
 19 20  1  0
 19 18  1  1
 21 19  1  0
 21 22  1  0
 23 21  2  0
M  END
$$$$
