CHS.pdb
     RDKit          3D

 23 23  0  0  1  0  0  0  0  0999 V2000
   24.3439  -20.4482   -8.4571 N   0  0  0  0  0  0  0  0  0  0  0  0
   24.1680  -21.1802   -9.6943 C   0  0  1  0  0  0  0  0  0  0  0  0
   22.7149  -21.5453   -9.8043 C   0  0  0  0  0  0  0  0  0  0  0  0
   21.7740  -19.9873   -9.7793 S   0  0  0  0  0  0  0  0  0  0  0  0
   24.6931  -20.4278  -10.8262 C   0  0  0  0  0  0  0  0  0  0  0  0
   25.1630  -19.2798  -10.6081 O   0  0  0  0  0  0  0  0  0  0  0  0
   24.7274  -20.8664  -12.1655 N   0  0  0  0  0  0  0  0  0  0  0  0
   25.2423  -20.1013  -13.2722 C   0  0  1  0  0  0  0  0  0  0  0  0
   26.3708  -20.7129  -14.0091 C   0  0  0  0  0  0  0  0  0  0  0  0
   26.9998  -19.8869  -15.0532 C   0  0  0  0  0  0  0  0  0  0  0  0
   26.6486  -18.6480  -15.5202 C   0  0  0  0  0  0  0  0  0  0  0  0
   27.5025  -18.2503  -16.5098 N   0  0  0  0  0  0  0  0  0  0  0  0
   28.3679  -19.2424  -16.6437 C   0  0  0  0  0  0  0  0  0  0  0  0
   28.0990  -20.2399  -15.7887 N   0  0  0  0  0  0  0  0  0  0  0  0
   24.1632  -19.8397  -14.2880 C   0  0  0  0  0  0  0  0  0  0  0  0
   23.3904  -20.8072  -14.5249 O   0  0  0  0  0  0  0  0  0  0  0  0
   22.0917  -16.4228  -14.6617 O   0  0  0  0  0  0  0  0  0  0  0  0
   22.5546  -16.8872  -15.8908 C   0  0  0  0  0  0  0  0  0  0  0  0
   22.9004  -18.3640  -15.8055 C   0  0  2  0  0  0  0  0  0  0  0  0
   24.0267  -18.5849  -14.9356 N   0  0  0  0  0  0  0  0  0  0  0  0
   23.1067  -18.9485  -17.1532 C   0  0  0  0  0  0  0  0  0  0  0  0
   22.0325  -19.3670  -17.9243 O   0  0  0  0  0  0  0  0  0  0  0  0
   24.2592  -19.0800  -17.6315 O   0  0  0  0  0  0  0  0  0  0  0  0
  2  1  1  1
  3  2  1  0
  4  3  1  0
  5  2  1  0
  6  5  2  0
  7  5  1  0
  8  7  1  0
  9 10  1  0
  8  9  1  6
 10 11  2  0
 12 11  1  0
 13 12  1  0
 14 13  2  0
 14 10  1  0
 15 20  1  0
 15  8  1  0
 16 15  2  0
 18 17  1  0
 19 20  1  0
 19 18  1  6
 21 19  1  0
 21 22  1  0
 23 21  2  0
M  END
$$$$
