CHS.pdb
     RDKit          3D

 23 23  0  0  1  0  0  0  0  0999 V2000
   28.5527  -18.1577  -17.6359 N   0  0  0  0  0  0  0  0  0  0  0  0
   27.4710  -17.8171  -16.7351 C   0  0  1  0  0  0  0  0  0  0  0  0
   27.0625  -16.4016  -17.0294 C   0  0  0  0  0  0  0  0  0  0  0  0
   28.0857  -15.3253  -15.9769 S   0  0  0  0  0  0  0  0  0  0  0  0
   26.3915  -18.7918  -16.8220 C   0  0  0  0  0  0  0  0  0  0  0  0
   25.8766  -19.0067  -17.9511 O   0  0  0  0  0  0  0  0  0  0  0  0
   25.8574  -19.5312  -15.7473 N   0  0  0  0  0  0  0  0  0  0  0  0
   24.7135  -20.4028  -15.8321 C   0  0  1  0  0  0  0  0  0  0  0  0
   24.9104  -21.7767  -15.3182 C   0  0  0  0  0  0  0  0  0  0  0  0
   25.8017  -22.6502  -16.0996 C   0  0  0  0  0  0  0  0  0  0  0  0
   26.3682  -22.4480  -17.3302 C   0  0  0  0  0  0  0  0  0  0  0  0
   27.1229  -23.5278  -17.6925 N   0  0  0  0  0  0  0  0  0  0  0  0
   27.0153  -24.3818  -16.6874 C   0  0  0  0  0  0  0  0  0  0  0  0
   26.2323  -23.8915  -15.7154 N   0  0  0  0  0  0  0  0  0  0  0  0
   23.5475  -19.8283  -15.0736 C   0  0  0  0  0  0  0  0  0  0  0  0
   23.8322  -19.2538  -13.9880 O   0  0  0  0  0  0  0  0  0  0  0  0
   19.7495  -17.4171  -14.5462 O   0  0  0  0  0  0  0  0  0  0  0  0
   20.7791  -17.9691  -15.3051 C   0  0  0  0  0  0  0  0  0  0  0  0
   21.1485  -19.3456  -14.7792 C   0  0  2  0  0  0  0  0  0  0  0  0
   22.2155  -19.9282  -15.5512 N   0  0  0  0  0  0  0  0  0  0  0  0
   19.9605  -20.2307  -14.7029 C   0  0  0  0  0  0  0  0  0  0  0  0
   19.0945  -20.1754  -13.6210 O   0  0  0  0  0  0  0  0  0  0  0  0
   19.7074  -21.0535  -15.6159 O   0  0  0  0  0  0  0  0  0  0  0  0
  2  1  1  6
  3  2  1  0
  4  3  1  0
  5  2  1  0
  6  5  2  0
  7  5  1  0
  8  7  1  0
  9 10  1  0
  8  9  1  1
 10 11  2  0
 12 11  1  0
 13 12  1  0
 14 13  2  0
 14 10  1  0
 15 20  1  0
 15  8  1  0
 16 15  2  0
 18 17  1  0
 19 20  1  0
 19 18  1  6
 21 19  1  0
 21 22  1  0
 23 21  2  0
M  END
$$$$
