CHS.pdb
     RDKit          3D

 23 23  0  0  1  0  0  0  0  0999 V2000
   16.6983   -4.1023  -20.6432 N   0  0  0  0  0  0  0  0  0  0  0  0
   16.8823   -3.9161  -19.2188 C   0  0  1  0  0  0  0  0  0  0  0  0
   15.6278   -4.3784  -18.5337 C   0  0  0  0  0  0  0  0  0  0  0  0
   15.8971   -4.1793  -16.7446 S   0  0  0  0  0  0  0  0  0  0  0  0
   18.1015   -4.5685  -18.7593 C   0  0  0  0  0  0  0  0  0  0  0  0
   18.2581   -5.7889  -19.0282 O   0  0  0  0  0  0  0  0  0  0  0  0
   19.1415   -3.9568  -18.0304 N   0  0  0  0  0  0  0  0  0  0  0  0
   20.3280   -4.6274  -17.5634 C   0  0  1  0  0  0  0  0  0  0  0  0
   21.5783   -3.8373  -17.6172 C   0  0  0  0  0  0  0  0  0  0  0  0
   22.8299   -4.5673  -17.3555 C   0  0  0  0  0  0  0  0  0  0  0  0
   23.0271   -5.8901  -17.0598 C   0  0  0  0  0  0  0  0  0  0  0  0
   24.3567   -6.1465  -16.8778 N   0  0  0  0  0  0  0  0  0  0  0  0
   24.9644   -4.9854  -17.0617 C   0  0  0  0  0  0  0  0  0  0  0  0
   24.0831   -4.0164  -17.3494 N   0  0  0  0  0  0  0  0  0  0  0  0
   20.1645   -5.0676  -16.1336 C   0  0  0  0  0  0  0  0  0  0  0  0
   19.6099   -4.2351  -15.3662 O   0  0  0  0  0  0  0  0  0  0  0  0
   19.8520   -8.6518  -12.9485 O   0  0  0  0  0  0  0  0  0  0  0  0
   20.2046   -8.2669  -14.2401 C   0  0  0  0  0  0  0  0  0  0  0  0
   20.2883   -6.7533  -14.3398 C   0  0  2  0  0  0  0  0  0  0  0  0
   20.6066   -6.3373  -15.6812 N   0  0  0  0  0  0  0  0  0  0  0  0
   21.2322   -6.1980  -13.3391 C   0  0  0  0  0  0  0  0  0  0  0  0
   20.8556   -6.0314  -12.0147 O   0  0  0  0  0  0  0  0  0  0  0  0
   22.3971   -5.8642  -13.6646 O   0  0  0  0  0  0  0  0  0  0  0  0
  2  1  1  6
  3  2  1  0
  4  3  1  0
  5  2  1  0
  6  5  2  0
  7  5  1  0
  8  7  1  0
  9 10  1  0
  8  9  1  1
 10 11  2  0
 12 11  1  0
 13 12  1  0
 14 13  2  0
 14 10  1  0
 15 20  1  0
 15  8  1  0
 16 15  2  0
 18 17  1  0
 19 20  1  0
 19 18  1  6
 21 19  1  0
 21 22  1  0
 23 21  2  0
M  END
$$$$
