CHS.pdb
     RDKit          3D

 23 23  0  0  1  0  0  0  0  0999 V2000
   22.2971  -21.1504  -10.7347 N   0  0  0  0  0  0  0  0  0  0  0  0
   22.1683  -21.1916  -12.1767 C   0  0  1  0  0  0  0  0  0  0  0  0
   20.7118  -21.3705  -12.4984 C   0  0  0  0  0  0  0  0  0  0  0  0
   20.4350  -23.1551  -12.7261 S   0  0  0  0  0  0  0  0  0  0  0  0
   22.7875  -20.0241  -12.7905 C   0  0  0  0  0  0  0  0  0  0  0  0
   22.3235  -18.8885  -12.5054 O   0  0  0  0  0  0  0  0  0  0  0  0
   23.8742  -20.0413  -13.6882 N   0  0  0  0  0  0  0  0  0  0  0  0
   24.5448  -18.8716  -14.1956 C   0  0  1  0  0  0  0  0  0  0  0  0
   25.8747  -19.1033  -14.8023 C   0  0  0  0  0  0  0  0  0  0  0  0
   26.6471  -17.9056  -15.1722 C   0  0  0  0  0  0  0  0  0  0  0  0
   26.3243  -16.5807  -15.0435 C   0  0  0  0  0  0  0  0  0  0  0  0
   27.3304  -15.7940  -15.5288 N   0  0  0  0  0  0  0  0  0  0  0  0
   28.2597  -16.6364  -15.9505 C   0  0  0  0  0  0  0  0  0  0  0  0
   27.8864  -17.9093  -15.7538 N   0  0  0  0  0  0  0  0  0  0  0  0
   23.7103  -18.1922  -15.2477 C   0  0  0  0  0  0  0  0  0  0  0  0
   23.2123  -18.9505  -16.1231 O   0  0  0  0  0  0  0  0  0  0  0  0
   21.7490  -14.1556  -17.0936 O   0  0  0  0  0  0  0  0  0  0  0  0
   22.6086  -14.6967  -16.1402 C   0  0  0  0  0  0  0  0  0  0  0  0
   22.6637  -16.2092  -16.2712 C   0  0  2  0  0  0  0  0  0  0  0  0
   23.4992  -16.7894  -15.2517 N   0  0  0  0  0  0  0  0  0  0  0  0
   23.0753  -16.6179  -17.6365 C   0  0  0  0  0  0  0  0  0  0  0  0
   22.1575  -17.1420  -18.5345 O   0  0  0  0  0  0  0  0  0  0  0  0
   24.2657  -16.5002  -18.0154 O   0  0  0  0  0  0  0  0  0  0  0  0
  2  1  1  1
  3  2  1  0
  4  3  1  0
  5  2  1  0
  6  5  2  0
  7  5  1  0
  8  7  1  0
  9 10  1  0
  8  9  1  6
 10 11  2  0
 12 11  1  0
 13 12  1  0
 14 13  2  0
 14 10  1  0
 15 20  1  0
 15  8  1  0
 16 15  2  0
 18 17  1  0
 19 20  1  0
 19 18  1  6
 21 19  1  0
 21 22  1  0
 23 21  2  0
M  END
$$$$
