LST.pdb
     RDKit          3D

 22 21  0  0  1  0  0  0  0  0999 V2000
    8.8415  -13.9610   18.3903 C   0  0  0  0  0  0  0  0  0  0  0  0
    7.6266  -13.5660   19.2036 C   0  0  2  0  0  0  0  0  0  0  0  0
    7.4301  -12.0709   19.1750 C   0  0  0  0  0  0  0  0  0  0  0  0
    7.7431  -14.1419   20.5868 C   0  0  0  0  0  0  0  0  0  0  0  0
    7.9414  -15.6131   20.6329 C   0  0  2  0  0  0  0  0  0  0  0  0
    6.8672  -16.3946   20.0400 N   0  0  0  0  0  0  0  0  0  0  0  0
    8.1331  -16.0259   22.0744 C   0  0  0  0  0  0  0  0  0  0  0  0
    7.2024  -16.1068   22.8969 O   0  0  0  0  0  0  0  0  0  0  0  0
   12.1831  -17.0739   23.7101 O   0  0  0  0  0  0  0  0  0  0  0  0
   10.9512  -17.6211   23.9993 C   0  0  0  0  0  0  0  0  0  0  0  0
    9.7893  -16.6949   23.8967 C   0  0  2  0  0  0  0  0  0  0  0  0
    9.4591  -16.3465   22.5397 N   0  0  0  0  0  0  0  0  0  0  0  0
    9.8189  -15.5282   24.8124 C   0  0  0  0  0  0  0  0  0  0  0  0
   10.4827  -14.5018   24.5039 O   0  0  0  0  0  0  0  0  0  0  0  0
    7.6983  -12.7158   25.8796 C   0  0  0  0  0  0  0  0  0  0  0  0
    8.0275  -13.5385   27.1067 C   0  0  1  0  0  0  0  0  0  0  0  0
    6.8777  -14.3285   27.3540 O   0  0  0  0  0  0  0  0  0  0  0  0
    9.2455  -14.3692   26.9747 C   0  0  2  0  0  0  0  0  0  0  0  0
    9.1288  -15.4880   26.0532 N   0  0  0  0  0  0  0  0  0  0  0  0
    9.6697  -14.8355   28.3315 C   0  0  0  0  0  0  0  0  0  0  0  0
    9.9003  -13.9523   29.2069 O   0  0  0  0  0  0  0  0  0  0  0  0
    9.8160  -16.1446   28.6632 O   0  0  0  0  0  0  0  0  0  0  0  0
  2  1  1  6
  2  3  1  0
  4  2  1  0
  4  5  1  0
  5  6  1  1
  7  8  2  0
  7  5  1  0
  9 10  1  0
 11 10  1  6
 11 12  1  0
 11 13  1  0
 12  7  1  0
 13 19  1  0
 14 13  2  0
 16 17  1  0
 16 15  1  6
 18 16  1  0
 18 19  1  6
 20 18  1  0
 20 22  1  0
 21 20  2  0
M  END
$$$$
