LST.pdb
     RDKit          3D

 22 21  0  0  1  0  0  0  0  0999 V2000
    6.3277  -12.1788   23.9760 C   0  0  0  0  0  0  0  0  0  0  0  0
    5.9136  -12.7707   25.3070 C   0  0  2  0  0  0  0  0  0  0  0  0
    5.7908  -11.6920   26.3540 C   0  0  0  0  0  0  0  0  0  0  0  0
    6.8597  -13.8781   25.6769 C   0  0  0  0  0  0  0  0  0  0  0  0
    6.7507  -15.0962   24.8342 C   0  0  2  0  0  0  0  0  0  0  0  0
    5.5753  -15.9145   25.0898 N   0  0  0  0  0  0  0  0  0  0  0  0
    7.9988  -15.9266   25.0283 C   0  0  0  0  0  0  0  0  0  0  0  0
    8.2006  -16.6434   26.0257 O   0  0  0  0  0  0  0  0  0  0  0  0
   10.2806  -16.4610   21.6563 O   0  0  0  0  0  0  0  0  0  0  0  0
   11.0304  -16.5973   22.8052 C   0  0  0  0  0  0  0  0  0  0  0  0
   10.2633  -16.6247   24.0815 C   0  0  2  0  0  0  0  0  0  0  0  0
    9.0222  -15.8988   24.0136 N   0  0  0  0  0  0  0  0  0  0  0  0
   11.0485  -16.3329   25.3058 C   0  0  0  0  0  0  0  0  0  0  0  0
   11.8574  -15.3661   25.3200 O   0  0  0  0  0  0  0  0  0  0  0  0
   11.0438  -14.5390   28.3010 C   0  0  0  0  0  0  0  0  0  0  0  0
   11.2018  -15.9902   28.7014 C   0  0  1  0  0  0  0  0  0  0  0  0
    9.9037  -16.4282   29.0622 O   0  0  0  0  0  0  0  0  0  0  0  0
   11.7993  -16.8495   27.6546 C   0  0  2  0  0  0  0  0  0  0  0  0
   10.9483  -17.0937   26.5011 N   0  0  0  0  0  0  0  0  0  0  0  0
   12.2445  -18.1370   28.2731 C   0  0  0  0  0  0  0  0  0  0  0  0
   11.7188  -19.2039   27.8431 O   0  0  0  0  0  0  0  0  0  0  0  0
   13.1745  -18.2132   29.2603 O   0  0  0  0  0  0  0  0  0  0  0  0
  2  1  1  6
  2  3  1  0
  4  2  1  0
  4  5  1  0
  5  6  1  1
  7  8  2  0
  7  5  1  0
  9 10  1  0
 11 10  1  6
 11 12  1  0
 11 13  1  0
 12  7  1  0
 13 19  1  0
 14 13  2  0
 16 17  1  0
 16 15  1  6
 18 16  1  0
 18 19  1  6
 20 18  1  0
 20 22  1  0
 21 20  2  0
M  END
$$$$
