LST.pdb
     RDKit          3D

 22 21  0  0  1  0  0  0  0  0999 V2000
    6.4164  -12.6242   18.5665 C   0  0  0  0  0  0  0  0  0  0  0  0
    7.6979  -13.4084   18.7570 C   0  0  2  0  0  0  0  0  0  0  0  0
    7.6340  -14.7206   18.0161 C   0  0  0  0  0  0  0  0  0  0  0  0
    7.9841  -13.5478   20.2257 C   0  0  0  0  0  0  0  0  0  0  0  0
    7.5062  -14.8153   20.8345 C   0  0  2  0  0  0  0  0  0  0  0  0
    6.0613  -14.9270   20.9614 N   0  0  0  0  0  0  0  0  0  0  0  0
    8.1480  -14.9655   22.1948 C   0  0  0  0  0  0  0  0  0  0  0  0
    7.7475  -14.3739   23.2141 O   0  0  0  0  0  0  0  0  0  0  0  0
    8.6311  -17.5812   24.6213 O   0  0  0  0  0  0  0  0  0  0  0  0
    9.2850  -16.3719   24.7246 C   0  0  0  0  0  0  0  0  0  0  0  0
   10.0793  -15.9598   23.5340 C   0  0  2  0  0  0  0  0  0  0  0  0
    9.2874  -15.8366   22.3382 N   0  0  0  0  0  0  0  0  0  0  0  0
   11.3484  -16.6988   23.3249 C   0  0  0  0  0  0  0  0  0  0  0  0
   11.3929  -17.6547   22.5042 O   0  0  0  0  0  0  0  0  0  0  0  0
   16.2232  -17.1166   23.1834 C   0  0  0  0  0  0  0  0  0  0  0  0
   14.9453  -16.3276   23.3720 C   0  0  1  0  0  0  0  0  0  0  0  0
   14.7107  -15.6826   22.1326 O   0  0  0  0  0  0  0  0  0  0  0  0
   13.7836  -17.1414   23.7952 C   0  0  2  0  0  0  0  0  0  0  0  0
   12.5551  -16.3934   24.0090 N   0  0  0  0  0  0  0  0  0  0  0  0
   14.1526  -17.9242   25.0156 C   0  0  0  0  0  0  0  0  0  0  0  0
   13.5454  -17.6503   26.0907 O   0  0  0  0  0  0  0  0  0  0  0  0
   15.0951  -18.9023   25.0232 O   0  0  0  0  0  0  0  0  0  0  0  0
  2  1  1  1
  2  3  1  0
  4  2  1  0
  4  5  1  0
  5  6  1  1
  7  8  2  0
  7  5  1  0
  9 10  1  0
 11 10  1  1
 11 12  1  0
 11 13  1  0
 12  7  1  0
 13 19  1  0
 14 13  2  0
 16 17  1  0
 16 15  1  6
 18 16  1  0
 18 19  1  1
 20 18  1  0
 20 22  1  0
 21 20  2  0
M  END
$$$$
