LST.pdb
     RDKit          3D

 22 21  0  0  1  0  0  0  0  0999 V2000
    9.0948  -12.4608   19.2553 C   0  0  0  0  0  0  0  0  0  0  0  0
    7.9838  -13.4830   19.3745 C   0  0  2  0  0  0  0  0  0  0  0  0
    6.6513  -12.8627   19.0360 C   0  0  0  0  0  0  0  0  0  0  0  0
    8.0351  -14.1196   20.7348 C   0  0  0  0  0  0  0  0  0  0  0  0
    9.3750  -14.6173   21.1381 C   0  0  2  0  0  0  0  0  0  0  0  0
    9.9592  -15.6005   20.2389 N   0  0  0  0  0  0  0  0  0  0  0  0
    9.2711  -15.2004   22.5288 C   0  0  0  0  0  0  0  0  0  0  0  0
    8.6272  -14.6687   23.4520 O   0  0  0  0  0  0  0  0  0  0  0  0
   10.4368  -19.1960   25.2267 O   0  0  0  0  0  0  0  0  0  0  0  0
   10.3740  -18.5248   24.0241 C   0  0  0  0  0  0  0  0  0  0  0  0
    9.9202  -17.1079   24.0945 C   0  0  2  0  0  0  0  0  0  0  0  0
    9.9485  -16.4388   22.8204 N   0  0  0  0  0  0  0  0  0  0  0  0
   10.5059  -16.3029   25.1943 C   0  0  0  0  0  0  0  0  0  0  0  0
   11.6151  -15.7264   25.0314 O   0  0  0  0  0  0  0  0  0  0  0  0
    9.7581  -13.0478   26.8203 C   0  0  0  0  0  0  0  0  0  0  0  0
    9.7484  -14.1185   27.8902 C   0  0  1  0  0  0  0  0  0  0  0  0
    8.3811  -14.3820   28.1514 O   0  0  0  0  0  0  0  0  0  0  0  0
   10.4845  -15.3501   27.5264 C   0  0  2  0  0  0  0  0  0  0  0  0
    9.8823  -16.1326   26.4590 N   0  0  0  0  0  0  0  0  0  0  0  0
   10.6828  -16.1826   28.7536 C   0  0  0  0  0  0  0  0  0  0  0  0
   11.2907  -15.6517   29.7274 O   0  0  0  0  0  0  0  0  0  0  0  0
   10.2461  -17.4635   28.8702 O   0  0  0  0  0  0  0  0  0  0  0  0
  2  1  1  1
  2  3  1  0
  4  2  1  0
  4  5  1  0
  5  6  1  6
  7  8  2  0
  7  5  1  0
  9 10  1  0
 11 10  1  6
 11 12  1  0
 11 13  1  0
 12  7  1  0
 13 19  1  0
 14 13  2  0
 16 17  1  0
 16 15  1  6
 18 16  1  0
 18 19  1  6
 20 18  1  0
 20 22  1  0
 21 20  2  0
M  END
$$$$
