LST.pdb
     RDKit          3D

 22 21  0  0  1  0  0  0  0  0999 V2000
    9.0546  -13.8241   18.6623 C   0  0  0  0  0  0  0  0  0  0  0  0
    7.7124  -13.5451   19.3060 C   0  0  2  0  0  0  0  0  0  0  0  0
    7.4228  -12.0650   19.3127 C   0  0  0  0  0  0  0  0  0  0  0  0
    7.6685  -14.1838   20.6656 C   0  0  0  0  0  0  0  0  0  0  0  0
    7.9094  -15.6493   20.6719 C   0  0  2  0  0  0  0  0  0  0  0  0
    6.9236  -16.4351   19.9460 N   0  0  0  0  0  0  0  0  0  0  0  0
    7.9745  -16.1181   22.1075 C   0  0  0  0  0  0  0  0  0  0  0  0
    6.9692  -16.3017   22.8181 O   0  0  0  0  0  0  0  0  0  0  0  0
   11.5615  -18.0016   23.6443 O   0  0  0  0  0  0  0  0  0  0  0  0
   10.2707  -18.0900   24.1205 C   0  0  0  0  0  0  0  0  0  0  0  0
    9.4654  -16.8392   24.0489 C   0  0  2  0  0  0  0  0  0  0  0  0
    9.2627  -16.3707   22.7031 N   0  0  0  0  0  0  0  0  0  0  0  0
    9.8667  -15.7656   24.9907 C   0  0  0  0  0  0  0  0  0  0  0  0
   10.7778  -14.9551   24.6709 O   0  0  0  0  0  0  0  0  0  0  0  0
    8.4149  -12.5780   26.3787 C   0  0  0  0  0  0  0  0  0  0  0  0
    8.7242  -13.5215   27.5213 C   0  0  1  0  0  0  0  0  0  0  0  0
    7.4805  -14.0901   27.8915 O   0  0  0  0  0  0  0  0  0  0  0  0
    9.7279  -14.5605   27.1988 C   0  0  2  0  0  0  0  0  0  0  0  0
    9.2759  -15.5834   26.2695 N   0  0  0  0  0  0  0  0  0  0  0  0
   10.2234  -15.1741   28.4703 C   0  0  0  0  0  0  0  0  0  0  0  0
   10.1269  -16.4295   28.5891 O   0  0  0  0  0  0  0  0  0  0  0  0
   10.7652  -14.4566   29.4884 O   0  0  0  0  0  0  0  0  0  0  0  0
  2  1  1  1
  2  3  1  0
  4  2  1  0
  4  5  1  0
  5  6  1  6
  7  8  2  0
  7  5  1  0
  9 10  1  0
 11 10  1  6
 11 12  1  0
 11 13  1  0
 12  7  1  0
 13 19  1  0
 14 13  2  0
 16 17  1  0
 16 15  1  6
 18 16  1  0
 18 19  1  6
 20 18  1  0
 20 22  1  0
 21 20  2  0
M  END
$$$$
