LST.pdb
     RDKit          3D

 22 21  0  0  1  0  0  0  0  0999 V2000
    6.5816  -13.2460   19.8463 C   0  0  0  0  0  0  0  0  0  0  0  0
    7.9274  -13.5069   20.4900 C   0  0  2  0  0  0  0  0  0  0  0  0
    8.9129  -12.4271   20.1191 C   0  0  0  0  0  0  0  0  0  0  0  0
    8.3840  -14.8968   20.1464 C   0  0  0  0  0  0  0  0  0  0  0  0
    9.6301  -15.3284   20.8295 C   0  0  2  0  0  0  0  0  0  0  0  0
   10.2444  -16.5282   20.2823 N   0  0  0  0  0  0  0  0  0  0  0  0
    9.3252  -15.5380   22.2952 C   0  0  0  0  0  0  0  0  0  0  0  0
    8.8583  -14.6524   23.0348 O   0  0  0  0  0  0  0  0  0  0  0  0
   10.2204  -19.4223   24.2703 O   0  0  0  0  0  0  0  0  0  0  0  0
    9.1014  -18.6389   24.4566 C   0  0  0  0  0  0  0  0  0  0  0  0
    9.2918  -17.1760   24.2516 C   0  0  2  0  0  0  0  0  0  0  0  0
    9.5832  -16.8273   22.8858 N   0  0  0  0  0  0  0  0  0  0  0  0
   10.1786  -16.5030   25.2320 C   0  0  0  0  0  0  0  0  0  0  0  0
   11.3578  -16.1966   24.9083 O   0  0  0  0  0  0  0  0  0  0  0  0
   10.0296  -13.1602   27.1760 C   0  0  0  0  0  0  0  0  0  0  0  0
   10.1908  -14.3167   28.1391 C   0  0  1  0  0  0  0  0  0  0  0  0
    8.9179  -14.4949   28.7351 O   0  0  0  0  0  0  0  0  0  0  0  0
   10.6838  -15.5651   27.5151 C   0  0  2  0  0  0  0  0  0  0  0  0
    9.7768  -16.1704   26.5532 N   0  0  0  0  0  0  0  0  0  0  0  0
   11.0506  -16.5385   28.5905 C   0  0  0  0  0  0  0  0  0  0  0  0
   10.4934  -17.6736   28.5655 O   0  0  0  0  0  0  0  0  0  0  0  0
   11.9421  -16.2649   29.5782 O   0  0  0  0  0  0  0  0  0  0  0  0
  2  1  1  6
  2  3  1  0
  4  2  1  0
  4  5  1  0
  5  6  1  6
  7  8  2  0
  7  5  1  0
  9 10  1  0
 11 10  1  6
 11 12  1  0
 11 13  1  0
 12  7  1  0
 13 19  1  0
 14 13  2  0
 16 17  1  0
 16 15  1  6
 18 16  1  0
 18 19  1  6
 20 18  1  0
 20 22  1  0
 21 20  2  0
M  END
$$$$
