LST.pdb
     RDKit          3D

 22 21  0  0  1  0  0  0  0  0999 V2000
    9.5575  -12.9868   18.9882 C   0  0  0  0  0  0  0  0  0  0  0  0
    8.0820  -13.3072   18.8708 C   0  0  2  0  0  0  0  0  0  0  0  0
    7.2709  -12.0417   18.7461 C   0  0  0  0  0  0  0  0  0  0  0  0
    7.6698  -14.1881   20.0164 C   0  0  0  0  0  0  0  0  0  0  0  0
    8.4432  -15.4501   20.1396 C   0  0  2  0  0  0  0  0  0  0  0  0
    8.1225  -16.4641   19.1469 N   0  0  0  0  0  0  0  0  0  0  0  0
    8.2267  -16.0115   21.5263 C   0  0  0  0  0  0  0  0  0  0  0  0
    7.1842  -16.5932   21.8785 O   0  0  0  0  0  0  0  0  0  0  0  0
   10.0556  -17.9185   25.4814 O   0  0  0  0  0  0  0  0  0  0  0  0
   10.0647  -17.4796   24.1745 C   0  0  0  0  0  0  0  0  0  0  0  0
    9.1801  -16.3199   23.8731 C   0  0  2  0  0  0  0  0  0  0  0  0
    9.2736  -15.8743   22.5076 N   0  0  0  0  0  0  0  0  0  0  0  0
    9.2221  -15.2108   24.8574 C   0  0  0  0  0  0  0  0  0  0  0  0
   10.1458  -14.3546   24.8027 O   0  0  0  0  0  0  0  0  0  0  0  0
    6.7707  -12.2909   25.7347 C   0  0  0  0  0  0  0  0  0  0  0  0
    7.0735  -13.1466   26.9459 C   0  0  1  0  0  0  0  0  0  0  0  0
    5.9374  -13.9750   27.1194 O   0  0  0  0  0  0  0  0  0  0  0  0
    8.3186  -13.9395   26.8359 C   0  0  2  0  0  0  0  0  0  0  0  0
    8.2623  -15.0431   25.8908 N   0  0  0  0  0  0  0  0  0  0  0  0
    8.7151  -14.4199   28.1962 C   0  0  0  0  0  0  0  0  0  0  0  0
    8.8176  -15.6687   28.3676 O   0  0  0  0  0  0  0  0  0  0  0  0
    8.9678  -13.5895   29.2411 O   0  0  0  0  0  0  0  0  0  0  0  0
  2  1  1  1
  2  3  1  0
  4  2  1  0
  4  5  1  0
  5  6  1  6
  7  8  2  0
  7  5  1  0
  9 10  1  0
 11 10  1  1
 11 12  1  0
 11 13  1  0
 12  7  1  0
 13 19  1  0
 14 13  2  0
 16 17  1  0
 16 15  1  6
 18 16  1  0
 18 19  1  6
 20 18  1  0
 20 22  1  0
 21 20  2  0
M  END
$$$$
