LST.pdb
     RDKit          3D

 22 21  0  0  1  0  0  0  0  0999 V2000
    9.2481  -13.2996   19.1715 C   0  0  0  0  0  0  0  0  0  0  0  0
    7.8641  -13.4681   19.7629 C   0  0  2  0  0  0  0  0  0  0  0  0
    7.1877  -12.1297   19.9241 C   0  0  0  0  0  0  0  0  0  0  0  0
    7.9580  -14.2638   21.0343 C   0  0  0  0  0  0  0  0  0  0  0  0
    8.6258  -15.5829   20.8941 C   0  0  2  0  0  0  0  0  0  0  0  0
    7.9275  -16.5355   20.0448 N   0  0  0  0  0  0  0  0  0  0  0  0
    8.8128  -16.1744   22.2726 C   0  0  0  0  0  0  0  0  0  0  0  0
    7.8689  -16.4877   23.0211 O   0  0  0  0  0  0  0  0  0  0  0  0
   12.7790  -17.5988   23.6604 O   0  0  0  0  0  0  0  0  0  0  0  0
   11.5075  -18.0188   23.9881 C   0  0  0  0  0  0  0  0  0  0  0  0
   10.4682  -16.9538   24.0513 C   0  0  2  0  0  0  0  0  0  0  0  0
   10.1500  -16.3940   22.7639 N   0  0  0  0  0  0  0  0  0  0  0  0
   10.6664  -15.9288   25.1051 C   0  0  0  0  0  0  0  0  0  0  0  0
   11.3725  -14.9113   24.8695 O   0  0  0  0  0  0  0  0  0  0  0  0
    9.2060  -13.0441   26.5924 C   0  0  0  0  0  0  0  0  0  0  0  0
    9.3758  -14.0473   27.7130 C   0  0  1  0  0  0  0  0  0  0  0  0
    8.0974  -14.6290   27.8990 O   0  0  0  0  0  0  0  0  0  0  0  0
   10.4133  -15.0725   27.4610 C   0  0  2  0  0  0  0  0  0  0  0  0
   10.0971  -16.0190   26.4033 N   0  0  0  0  0  0  0  0  0  0  0  0
   10.7202  -15.7837   28.7411 C   0  0  0  0  0  0  0  0  0  0  0  0
   11.1087  -15.0830   29.7197 O   0  0  0  0  0  0  0  0  0  0  0  0
   10.6019  -17.1275   28.8999 O   0  0  0  0  0  0  0  0  0  0  0  0
  2  1  1  1
  2  3  1  0
  4  2  1  0
  4  5  1  0
  5  6  1  6
  7  8  2  0
  7  5  1  0
  9 10  1  0
 11 10  1  6
 11 12  1  0
 11 13  1  0
 12  7  1  0
 13 19  1  0
 14 13  2  0
 16 17  1  0
 16 15  1  6
 18 16  1  0
 18 19  1  6
 20 18  1  0
 20 22  1  0
 21 20  2  0
M  END
$$$$
