MAD.pdb
     RDKit          3D

 22 21  0  0  1  0  0  0  0  0999 V2000
   28.8513  -13.6510  -15.7492 C   0  0  0  0  0  0  0  0  0  0  0  0
   27.8056  -12.2052  -16.0200 S   0  0  0  0  0  0  0  0  0  0  0  0
   26.2044  -12.6883  -16.7232 C   0  0  0  0  0  0  0  0  0  0  0  0
   25.3272  -11.4577  -16.7431 C   0  0  0  0  0  0  0  0  0  0  0  0
   24.0066  -11.8392  -17.3844 C   0  0  2  0  0  0  0  0  0  0  0  0
   24.2451  -12.2395  -18.7455 N   0  0  0  0  0  0  0  0  0  0  0  0
   23.1291  -10.6575  -17.3267 C   0  0  0  0  0  0  0  0  0  0  0  0
   23.3142   -9.7053  -18.1400 O   0  0  0  0  0  0  0  0  0  0  0  0
   20.0502   -9.6332  -15.4609 C   0  0  0  0  0  0  0  0  0  0  0  0
   21.2262   -9.3158  -16.3947 C   0  0  2  0  0  0  0  0  0  0  0  0
   22.0607  -10.4964  -16.4046 N   0  0  0  0  0  0  0  0  0  0  0  0
   21.9628   -8.1981  -15.7710 C   0  0  0  0  0  0  0  0  0  0  0  0
   22.9388   -8.4421  -14.9823 O   0  0  0  0  0  0  0  0  0  0  0  0
   21.6708   -6.8370  -15.9792 N   0  0  0  0  0  0  0  0  0  0  0  0
   22.3517   -5.7990  -15.2719 C   0  0  1  0  0  0  0  0  0  0  0  0
   22.3528   -4.4787  -15.9906 C   0  0  0  0  0  0  0  0  0  0  0  0
   22.7129   -4.5986  -17.4200 C   0  0  0  0  0  0  0  0  0  0  0  0
   23.8195   -5.1444  -17.6717 O   0  0  0  0  0  0  0  0  0  0  0  0
   21.8184   -5.6418  -13.8722 C   0  0  0  0  0  0  0  0  0  0  0  0
   20.7536   -6.2015  -13.5055 O   0  0  0  0  0  0  0  0  0  0  0  0
   21.9514   -4.1707  -18.4690 O   0  0  0  0  0  0  0  0  0  0  0  0
   22.4844   -4.8708  -12.9319 O   0  0  0  0  0  0  0  0  0  0  0  0
  2  1  1  0
  3  2  1  0
  4  3  1  0
  4  5  1  0
  5  6  1  6
  7  5  1  0
  7  8  2  0
 10  9  1  1
 10 11  1  0
 10 12  1  0
 11  7  1  0
 12 14  1  0
 13 12  2  0
 14 15  1  0
 15 16  1  6
 15 19  1  0
 16 17  1  0
 17 18  2  0
 19 22  1  0
 20 19  2  0
 21 17  1  0
M  END
$$$$
