MAD.pdb
     RDKit          3D

 22 21  0  0  1  0  0  0  0  0999 V2000
   20.9671  -16.7339  -20.3079 C   0  0  0  0  0  0  0  0  0  0  0  0
   21.6815  -15.9542  -18.8454 S   0  0  0  0  0  0  0  0  0  0  0  0
   21.9047  -14.1727  -19.1067 C   0  0  0  0  0  0  0  0  0  0  0  0
   22.6090  -13.6198  -17.8892 C   0  0  0  0  0  0  0  0  0  0  0  0
   22.8246  -12.1350  -18.1119 C   0  0  2  0  0  0  0  0  0  0  0  0
   23.5107  -11.9435  -19.3619 N   0  0  0  0  0  0  0  0  0  0  0  0
   23.6280  -11.6307  -16.9850 C   0  0  0  0  0  0  0  0  0  0  0  0
   23.1723  -11.7199  -15.8074 O   0  0  0  0  0  0  0  0  0  0  0  0
   27.0584  -10.2014  -16.5094 C   0  0  0  0  0  0  0  0  0  0  0  0
   25.6750  -10.5935  -15.9728 C   0  0  2  0  0  0  0  0  0  0  0  0
   24.9106  -11.0348  -17.1180 N   0  0  0  0  0  0  0  0  0  0  0  0
   25.0751   -9.3593  -15.4272 C   0  0  0  0  0  0  0  0  0  0  0  0
   25.6690   -8.7252  -14.4894 O   0  0  0  0  0  0  0  0  0  0  0  0
   23.8605   -8.8015  -15.8684 N   0  0  0  0  0  0  0  0  0  0  0  0
   23.2826   -7.6537  -15.2440 C   0  0  1  0  0  0  0  0  0  0  0  0
   23.9775   -6.3655  -15.5869 C   0  0  0  0  0  0  0  0  0  0  0  0
   23.3655   -5.1872  -14.9357 C   0  0  0  0  0  0  0  0  0  0  0  0
   22.6907   -4.4275  -15.6796 O   0  0  0  0  0  0  0  0  0  0  0  0
   21.8070   -7.5537  -15.5284 C   0  0  0  0  0  0  0  0  0  0  0  0
   21.0779   -6.7137  -14.9417 O   0  0  0  0  0  0  0  0  0  0  0  0
   23.4740   -4.8653  -13.6135 O   0  0  0  0  0  0  0  0  0  0  0  0
   21.1950   -8.3875  -16.4516 O   0  0  0  0  0  0  0  0  0  0  0  0
  2  1  1  0
  3  2  1  0
  4  3  1  0
  4  5  1  0
  5  6  1  6
  7  5  1  0
  7  8  2  0
 10  9  1  6
 10 11  1  0
 10 12  1  0
 11  7  1  0
 12 14  1  0
 13 12  2  0
 14 15  1  0
 15 16  1  6
 15 19  1  0
 16 17  1  0
 17 18  2  0
 19 22  1  0
 20 19  2  0
 21 17  1  0
M  END
$$$$
