MAD.pdb
     RDKit          3D

 22 21  0  0  1  0  0  0  0  0999 V2000
   24.7031  -16.4082  -21.8170 C   0  0  0  0  0  0  0  0  0  0  0  0
   25.0262  -15.3074  -20.4237 S   0  0  0  0  0  0  0  0  0  0  0  0
   25.5216  -16.2515  -18.9557 C   0  0  0  0  0  0  0  0  0  0  0  0
   25.7310  -17.6848  -19.3867 C   0  0  0  0  0  0  0  0  0  0  0  0
   25.1708  -18.5829  -18.3002 C   0  0  2  0  0  0  0  0  0  0  0  0
   23.8610  -18.1139  -17.9337 N   0  0  0  0  0  0  0  0  0  0  0  0
   26.0946  -18.5202  -17.1545 C   0  0  0  0  0  0  0  0  0  0  0  0
   27.2261  -19.0817  -17.2367 O   0  0  0  0  0  0  0  0  0  0  0  0
   26.3109  -16.8012  -13.8549 C   0  0  0  0  0  0  0  0  0  0  0  0
   26.6740  -17.9736  -14.7763 C   0  0  2  0  0  0  0  0  0  0  0  0
   25.8088  -17.8608  -15.9292 N   0  0  0  0  0  0  0  0  0  0  0  0
   26.3436  -19.2056  -14.0322 C   0  0  0  0  0  0  0  0  0  0  0  0
   27.0884  -19.5818  -13.0637 O   0  0  0  0  0  0  0  0  0  0  0  0
   25.2376  -20.0310  -14.3090 N   0  0  0  0  0  0  0  0  0  0  0  0
   24.4736  -20.6476  -13.2711 C   0  0  1  0  0  0  0  0  0  0  0  0
   25.0309  -20.4192  -11.8937 C   0  0  0  0  0  0  0  0  0  0  0  0
   25.6595  -21.6270  -11.3165 C   0  0  0  0  0  0  0  0  0  0  0  0
   25.7450  -22.6276  -12.0764 O   0  0  0  0  0  0  0  0  0  0  0  0
   23.0254  -20.2388  -13.3330 C   0  0  0  0  0  0  0  0  0  0  0  0
   22.6850  -19.0356  -13.4666 O   0  0  0  0  0  0  0  0  0  0  0  0
   26.1456  -21.7387  -10.0458 O   0  0  0  0  0  0  0  0  0  0  0  0
   22.0093  -21.1779  -13.2446 O   0  0  0  0  0  0  0  0  0  0  0  0
  2  1  1  0
  3  2  1  0
  4  3  1  0
  4  5  1  0
  5  6  1  1
  7  5  1  0
  7  8  2  0
 10  9  1  1
 10 11  1  0
 10 12  1  0
 11  7  1  0
 12 14  1  0
 13 12  2  0
 14 15  1  0
 15 16  1  1
 15 19  1  0
 16 17  1  0
 17 18  2  0
 19 22  1  0
 20 19  2  0
 21 17  1  0
M  END
$$$$
