MAD.pdb
     RDKit          3D

 22 21  0  0  1  0  0  0  0  0999 V2000
   20.3447  -25.9002   -0.4261 C   0  0  0  0  0  0  0  0  0  0  0  0
   20.1329  -26.8267   -1.9603 S   0  0  0  0  0  0  0  0  0  0  0  0
   18.4933  -27.6008   -2.0268 C   0  0  0  0  0  0  0  0  0  0  0  0
   17.5966  -26.8480   -1.0711 C   0  0  0  0  0  0  0  0  0  0  0  0
   16.2078  -27.4506   -1.1655 C   0  0  2  0  0  0  0  0  0  0  0  0
   15.6824  -27.2127   -2.4835 N   0  0  0  0  0  0  0  0  0  0  0  0
   15.3737  -26.8025   -0.1388 C   0  0  0  0  0  0  0  0  0  0  0  0
   14.5777  -25.8781   -0.4769 O   0  0  0  0  0  0  0  0  0  0  0  0
   14.6390  -27.2762    3.4973 C   0  0  0  0  0  0  0  0  0  0  0  0
   14.5959  -26.4316    2.2165 C   0  0  2  0  0  0  0  0  0  0  0  0
   15.3917  -27.1418    1.2405 N   0  0  0  0  0  0  0  0  0  0  0  0
   15.2485  -25.1476    2.5427 C   0  0  0  0  0  0  0  0  0  0  0  0
   16.3950  -24.8740    2.0480 O   0  0  0  0  0  0  0  0  0  0  0  0
   14.6947  -24.1635    3.3829 N   0  0  0  0  0  0  0  0  0  0  0  0
   15.3392  -22.9082    3.6070 C   0  0  1  0  0  0  0  0  0  0  0  0
   15.4716  -22.0676    2.3677 C   0  0  0  0  0  0  0  0  0  0  0  0
   16.0801  -20.7451    2.6283 C   0  0  0  0  0  0  0  0  0  0  0  0
   16.9584  -20.7041    3.5298 O   0  0  0  0  0  0  0  0  0  0  0  0
   14.6672  -22.1303    4.7076 C   0  0  0  0  0  0  0  0  0  0  0  0
   13.4147  -22.0751    4.8062 O   0  0  0  0  0  0  0  0  0  0  0  0
   15.7684  -19.5860    1.9782 O   0  0  0  0  0  0  0  0  0  0  0  0
   15.4076  -21.4431    5.6572 O   0  0  0  0  0  0  0  0  0  0  0  0
  2  1  1  0
  3  2  1  0
  4  3  1  0
  4  5  1  0
  5  6  1  6
  7  5  1  0
  7  8  2  0
 10  9  1  1
 10 11  1  0
 10 12  1  0
 11  7  1  0
 12 14  1  0
 13 12  2  0
 14 15  1  0
 15 16  1  6
 15 19  1  0
 16 17  1  0
 17 18  2  0
 19 22  1  0
 20 19  2  0
 21 17  1  0
M  END
$$$$
