MAD.pdb
     RDKit          3D

 22 21  0  0  1  0  0  0  0  0999 V2000
   16.4782  -15.3355  -11.4505 C   0  0  0  0  0  0  0  0  0  0  0  0
   16.7376  -13.5646  -11.6821 S   0  0  0  0  0  0  0  0  0  0  0  0
   15.6000  -12.6038  -10.6455 C   0  0  0  0  0  0  0  0  0  0  0  0
   15.8639  -11.1406  -10.9171 C   0  0  0  0  0  0  0  0  0  0  0  0
   14.8668  -10.3314  -10.1098 C   0  0  2  0  0  0  0  0  0  0  0  0
   13.5347  -10.6726  -10.5326 N   0  0  0  0  0  0  0  0  0  0  0  0
   15.1510   -8.9071  -10.3553 C   0  0  0  0  0  0  0  0  0  0  0  0
   14.8471   -8.3960  -11.4728 O   0  0  0  0  0  0  0  0  0  0  0  0
   16.1661   -5.9109   -8.4134 C   0  0  0  0  0  0  0  0  0  0  0  0
   16.1205   -6.6766   -9.7428 C   0  0  2  0  0  0  0  0  0  0  0  0
   15.7565   -8.0359   -9.4107 N   0  0  0  0  0  0  0  0  0  0  0  0
   17.4944   -6.6535  -10.2836 C   0  0  0  0  0  0  0  0  0  0  0  0
   18.3537   -7.5057   -9.8716 O   0  0  0  0  0  0  0  0  0  0  0  0
   17.9550   -5.7393  -11.2497 N   0  0  0  0  0  0  0  0  0  0  0  0
   19.2378   -5.8690  -11.8651 C   0  0  1  0  0  0  0  0  0  0  0  0
   19.4740   -7.2153  -12.4909 C   0  0  0  0  0  0  0  0  0  0  0  0
   20.7327   -7.2805  -13.2646 C   0  0  0  0  0  0  0  0  0  0  0  0
   21.7241   -6.6847  -12.7665 O   0  0  0  0  0  0  0  0  0  0  0  0
   19.4865   -4.7682  -12.8624 C   0  0  0  0  0  0  0  0  0  0  0  0
   18.5651   -4.3163  -13.5892 O   0  0  0  0  0  0  0  0  0  0  0  0
   20.8996   -7.9256  -14.4560 O   0  0  0  0  0  0  0  0  0  0  0  0
   20.7460   -4.2098  -13.0170 O   0  0  0  0  0  0  0  0  0  0  0  0
  2  1  1  0
  3  2  1  0
  4  3  1  0
  4  5  1  0
  5  6  1  6
  7  5  1  0
  7  8  2  0
 10  9  1  1
 10 11  1  0
 10 12  1  0
 11  7  1  0
 12 14  1  0
 13 12  2  0
 14 15  1  0
 15 16  1  6
 15 19  1  0
 16 17  1  0
 17 18  2  0
 19 22  1  0
 20 19  2  0
 21 17  1  0
M  END
$$$$
