MAD.pdb
     RDKit          3D

 22 21  0  0  1  0  0  0  0  0999 V2000
   23.4945  -34.4597  -15.2600 C   0  0  0  0  0  0  0  0  0  0  0  0
   23.2315  -33.9492  -16.9710 S   0  0  0  0  0  0  0  0  0  0  0  0
   24.7825  -33.3806  -17.7214 C   0  0  0  0  0  0  0  0  0  0  0  0
   25.2035  -32.1230  -16.9966 C   0  0  0  0  0  0  0  0  0  0  0  0
   25.0081  -30.9540  -17.9432 C   0  0  2  0  0  0  0  0  0  0  0  0
   26.1490  -30.8611  -18.8147 N   0  0  0  0  0  0  0  0  0  0  0  0
   24.8692  -29.7387  -17.1226 C   0  0  0  0  0  0  0  0  0  0  0  0
   25.8019  -28.8829  -17.1161 O   0  0  0  0  0  0  0  0  0  0  0  0
   23.0821  -27.2687  -17.0385 C   0  0  0  0  0  0  0  0  0  0  0  0
   23.4797  -28.1090  -15.8173 C   0  0  2  0  0  0  0  0  0  0  0  0
   23.7393  -29.4416  -16.3145 N   0  0  0  0  0  0  0  0  0  0  0  0
   22.3001  -28.1366  -14.9292 C   0  0  0  0  0  0  0  0  0  0  0  0
   21.2645  -28.8046  -15.2692 O   0  0  0  0  0  0  0  0  0  0  0  0
   22.2163  -27.4650  -13.6951 N   0  0  0  0  0  0  0  0  0  0  0  0
   21.0493  -27.5321  -12.8736 C   0  0  1  0  0  0  0  0  0  0  0  0
   21.2293  -26.9105  -11.5167 C   0  0  0  0  0  0  0  0  0  0  0  0
   20.1306  -27.2351  -10.5815 C   0  0  0  0  0  0  0  0  0  0  0  0
   19.2319  -27.9993  -11.0219 O   0  0  0  0  0  0  0  0  0  0  0  0
   19.8483  -26.9488  -13.5704 C   0  0  0  0  0  0  0  0  0  0  0  0
   19.9245  -25.8846  -14.2361 O   0  0  0  0  0  0  0  0  0  0  0  0
   20.0179  -26.7780   -9.3002 O   0  0  0  0  0  0  0  0  0  0  0  0
   18.6086  -27.5660  -13.5034 O   0  0  0  0  0  0  0  0  0  0  0  0
  2  1  1  0
  3  2  1  0
  4  3  1  0
  4  5  1  0
  5  6  1  6
  7  5  1  0
  7  8  2  0
 10  9  1  6
 10 11  1  0
 10 12  1  0
 11  7  1  0
 12 14  1  0
 13 12  2  0
 14 15  1  0
 15 16  1  1
 15 19  1  0
 16 17  1  0
 17 18  2  0
 19 22  1  0
 20 19  2  0
 21 17  1  0
M  END
$$$$
