PVQ.pdb
     RDKit          3D

 24 24  0  0  1  0  0  0  0  0999 V2000
   19.9058  -12.0451  -18.2360 N   0  0  0  0  0  0  0  0  0  0  0  0
   19.5774  -13.4019  -18.5874 C   0  0  0  0  0  0  0  0  0  0  0  0
   19.3082  -14.0146  -17.2189 C   0  0  0  0  0  0  0  0  0  0  0  0
   18.3971  -12.9391  -16.6202 C   0  0  0  0  0  0  0  0  0  0  0  0
   19.0358  -11.6803  -17.1542 C   0  0  1  0  0  0  0  0  0  0  0  0
   19.8294  -10.9748  -16.1203 C   0  0  0  0  0  0  0  0  0  0  0  0
   19.3377  -10.7981  -14.9803 O   0  0  0  0  0  0  0  0  0  0  0  0
   23.2780  -11.6557  -14.6945 C   0  0  0  0  0  0  0  0  0  0  0  0
   23.2542  -10.2727  -15.2888 C   0  0  1  0  0  0  0  0  0  0  0  0
   24.0389  -10.1771  -16.5539 C   0  0  0  0  0  0  0  0  0  0  0  0
   21.8730   -9.6855  -15.3355 C   0  0  2  0  0  0  0  0  0  0  0  0
   21.1288  -10.4775  -16.3355 N   0  0  0  0  0  0  0  0  0  0  0  0
   21.8138   -8.2580  -15.6669 C   0  0  0  0  0  0  0  0  0  0  0  0
   22.0147   -7.8870  -16.8545 O   0  0  0  0  0  0  0  0  0  0  0  0
   17.3429   -4.7163  -15.3219 N   0  0  0  0  0  0  0  0  0  0  0  0
   18.3364   -3.7314  -15.5117 C   0  0  0  0  0  0  0  0  0  0  0  0
   17.9793   -2.5536  -15.7471 O   0  0  0  0  0  0  0  0  0  0  0  0
   19.8119   -4.0285  -15.4448 C   0  0  0  0  0  0  0  0  0  0  0  0
   20.0356   -5.4796  -15.1197 C   0  0  0  0  0  0  0  0  0  0  0  0
   21.4853   -5.8601  -14.9887 C   0  0  2  0  0  0  0  0  0  0  0  0
   21.5346   -7.2948  -14.6784 N   0  0  0  0  0  0  0  0  0  0  0  0
   22.1407   -5.0942  -13.9245 C   0  0  0  0  0  0  0  0  0  0  0  0
   22.6454   -3.7989  -14.1759 O   0  0  0  0  0  0  0  0  0  0  0  0
   22.3084   -5.4933  -12.7496 O   0  0  0  0  0  0  0  0  0  0  0  0
  1  2  1  0
  3  2  1  0
  4  3  1  0
  4  5  1  0
  5  1  1  0
  6  7  2  0
  5  6  1  1
  9  8  1  6
  9 11  1  0
 10  9  1  0
 11 13  1  0
 11 12  1  6
 12  6  1  0
 13 21  1  0
 14 13  2  0
 16 15  1  0
 17 16  2  0
 18 16  1  0
 19 18  1  0
 20 19  1  1
 21 20  1  0
 22 23  1  0
 22 20  1  0
 24 22  2  0
M  END
$$$$
