PVQ.pdb
     RDKit          3D

 24 24  0  0  1  0  0  0  0  0999 V2000
   18.6711  -14.5293  -18.0441 N   0  0  0  0  0  0  0  0  0  0  0  0
   17.4875  -14.5333  -18.8635 C   0  0  0  0  0  0  0  0  0  0  0  0
   17.2618  -13.0423  -19.0801 C   0  0  0  0  0  0  0  0  0  0  0  0
   18.6812  -12.6106  -19.4599 C   0  0  0  0  0  0  0  0  0  0  0  0
   19.5088  -13.4744  -18.5398 C   0  0  1  0  0  0  0  0  0  0  0  0
   20.0455  -12.7102  -17.3890 C   0  0  0  0  0  0  0  0  0  0  0  0
   19.3295  -12.5423  -16.3732 O   0  0  0  0  0  0  0  0  0  0  0  0
   24.0511  -11.6277  -17.3592 C   0  0  0  0  0  0  0  0  0  0  0  0
   23.2786  -11.6814  -16.0682 C   0  0  1  0  0  0  0  0  0  0  0  0
   23.9861  -10.9989  -14.9462 C   0  0  0  0  0  0  0  0  0  0  0  0
   21.8327  -11.3155  -16.2422 C   0  0  2  0  0  0  0  0  0  0  0  0
   21.3351  -12.1463  -17.3572 N   0  0  0  0  0  0  0  0  0  0  0  0
   21.5768   -9.8962  -16.5084 C   0  0  0  0  0  0  0  0  0  0  0  0
   21.4889   -9.4934  -17.6995 O   0  0  0  0  0  0  0  0  0  0  0  0
   19.1799   -4.8085  -18.7057 N   0  0  0  0  0  0  0  0  0  0  0  0
   18.8652   -6.0301  -18.0720 C   0  0  0  0  0  0  0  0  0  0  0  0
   18.3962   -6.9638  -18.7637 O   0  0  0  0  0  0  0  0  0  0  0  0
   19.0666   -6.2674  -16.5979 C   0  0  0  0  0  0  0  0  0  0  0  0
   19.6737   -7.6238  -16.3680 C   0  0  0  0  0  0  0  0  0  0  0  0
   21.0173   -7.5856  -15.6923 C   0  0  2  0  0  0  0  0  0  0  0  0
   21.4266   -8.9758  -15.4534 N   0  0  0  0  0  0  0  0  0  0  0  0
   20.9519   -6.8570  -14.4221 C   0  0  0  0  0  0  0  0  0  0  0  0
   20.9033   -5.4452  -14.4035 O   0  0  0  0  0  0  0  0  0  0  0  0
   20.9337   -7.3879  -13.2883 O   0  0  0  0  0  0  0  0  0  0  0  0
  1  2  1  0
  3  2  1  0
  4  3  1  0
  4  5  1  0
  5  1  1  0
  6  7  2  0
  5  6  1  1
  9  8  1  6
  9 11  1  0
 10  9  1  0
 11 13  1  0
 11 12  1  6
 12  6  1  0
 13 21  1  0
 14 13  2  0
 16 15  1  0
 17 16  2  0
 18 16  1  0
 19 18  1  0
 20 19  1  1
 21 20  1  0
 22 23  1  0
 22 20  1  0
 24 22  2  0
M  END
$$$$
