PVQ.pdb
     RDKit          3D

 24 24  0  0  1  0  0  0  0  0999 V2000
   20.9998  -17.2343  -16.3064 N   0  0  0  0  0  0  0  0  0  0  0  0
   19.8045  -17.8996  -16.7545 C   0  0  0  0  0  0  0  0  0  0  0  0
   18.8590  -16.7227  -16.9589 C   0  0  0  0  0  0  0  0  0  0  0  0
   19.7745  -15.7788  -17.7438 C   0  0  0  0  0  0  0  0  0  0  0  0
   21.0997  -16.0183  -17.0625 C   0  0  1  0  0  0  0  0  0  0  0  0
   21.4632  -14.9135  -16.1440 C   0  0  0  0  0  0  0  0  0  0  0  0
   20.8427  -14.7823  -15.0622 O   0  0  0  0  0  0  0  0  0  0  0  0
   24.9125  -12.7962  -16.8642 C   0  0  0  0  0  0  0  0  0  0  0  0
   24.3067  -12.7648  -15.4864 C   0  0  1  0  0  0  0  0  0  0  0  0
   24.8755  -11.6815  -14.6329 C   0  0  0  0  0  0  0  0  0  0  0  0
   22.8079  -12.8533  -15.5100 C   0  0  2  0  0  0  0  0  0  0  0  0
   22.4819  -13.9786  -16.4092 N   0  0  0  0  0  0  0  0  0  0  0  0
   22.1186  -11.6344  -15.9456 C   0  0  0  0  0  0  0  0  0  0  0  0
   22.0093  -11.3887  -17.1770 O   0  0  0  0  0  0  0  0  0  0  0  0
   16.9309   -9.5220  -13.7302 N   0  0  0  0  0  0  0  0  0  0  0  0
   17.2908   -8.4753  -14.6064 C   0  0  0  0  0  0  0  0  0  0  0  0
   16.4299   -7.6135  -14.9004 O   0  0  0  0  0  0  0  0  0  0  0  0
   18.6656   -8.3429  -15.2083 C   0  0  0  0  0  0  0  0  0  0  0  0
   19.5032   -9.5422  -14.8597 C   0  0  0  0  0  0  0  0  0  0  0  0
   20.8962   -9.5003  -15.4263 C   0  0  2  0  0  0  0  0  0  0  0  0
   21.5754  -10.7340  -15.0091 N   0  0  0  0  0  0  0  0  0  0  0  0
   21.6335   -8.3320  -14.9362 C   0  0  0  0  0  0  0  0  0  0  0  0
   21.5579   -7.0959  -15.6160 O   0  0  0  0  0  0  0  0  0  0  0  0
   22.3643   -8.3170  -13.9196 O   0  0  0  0  0  0  0  0  0  0  0  0
  1  2  1  0
  3  2  1  0
  4  3  1  0
  4  5  1  0
  5  1  1  0
  6  7  2  0
  5  6  1  1
  9  8  1  6
  9 11  1  0
 10  9  1  0
 11 13  1  0
 11 12  1  6
 12  6  1  0
 13 21  1  0
 14 13  2  0
 16 15  1  0
 17 16  2  0
 18 16  1  0
 19 18  1  0
 20 19  1  1
 21 20  1  0
 22 23  1  0
 22 20  1  0
 24 22  2  0
M  END
$$$$
