PVQ.pdb
     RDKit          3D

 24 24  0  0  1  0  0  0  0  0999 V2000
   27.4095  -19.4487  -14.9120 N   0  0  0  0  0  0  0  0  0  0  0  0
   28.8191  -19.1588  -14.9456 C   0  0  0  0  0  0  0  0  0  0  0  0
   29.4051  -20.4238  -14.3314 C   0  0  0  0  0  0  0  0  0  0  0  0
   28.6324  -21.4852  -15.1198 C   0  0  0  0  0  0  0  0  0  0  0  0
   27.2706  -20.8430  -15.2234 C   0  0  1  0  0  0  0  0  0  0  0  0
   26.2954  -21.4469  -14.2848 C   0  0  0  0  0  0  0  0  0  0  0  0
   25.9621  -22.6470  -14.4306 O   0  0  0  0  0  0  0  0  0  0  0  0
   26.4345  -21.2943  -10.6703 C   0  0  0  0  0  0  0  0  0  0  0  0
   24.9860  -21.0071  -10.9628 C   0  0  1  0  0  0  0  0  0  0  0  0
   24.5466  -19.6800  -10.4419 C   0  0  0  0  0  0  0  0  0  0  0  0
   24.6127  -21.3016  -12.3871 C   0  0  2  0  0  0  0  0  0  0  0  0
   25.7034  -20.7488  -13.2152 N   0  0  0  0  0  0  0  0  0  0  0  0
   23.3194  -20.7597  -12.8170 C   0  0  0  0  0  0  0  0  0  0  0  0
   23.2239  -19.5373  -13.1089 O   0  0  0  0  0  0  0  0  0  0  0  0
   18.4764  -24.3926  -14.6428 N   0  0  0  0  0  0  0  0  0  0  0  0
   17.8934  -23.1072  -14.6138 C   0  0  0  0  0  0  0  0  0  0  0  0
   16.6981  -22.9802  -14.9681 O   0  0  0  0  0  0  0  0  0  0  0  0
   18.6413  -21.8749  -14.1758 C   0  0  0  0  0  0  0  0  0  0  0  0
   20.0229  -22.2434  -13.7106 C   0  0  0  0  0  0  0  0  0  0  0  0
   20.8815  -21.0621  -13.3491 C   0  0  2  0  0  0  0  0  0  0  0  0
   22.1820  -21.5846  -12.9099 N   0  0  0  0  0  0  0  0  0  0  0  0
   20.2711  -20.2710  -12.2766 C   0  0  0  0  0  0  0  0  0  0  0  0
   19.4214  -19.1835  -12.5784 O   0  0  0  0  0  0  0  0  0  0  0  0
   20.4351  -20.4721  -11.0517 O   0  0  0  0  0  0  0  0  0  0  0  0
  1  2  1  0
  3  2  1  0
  4  3  1  0
  4  5  1  0
  5  1  1  0
  6  7  2  0
  5  6  1  1
  9  8  1  6
  9 11  1  0
 10  9  1  0
 11 13  1  0
 11 12  1  6
 12  6  1  0
 13 21  1  0
 14 13  2  0
 16 15  1  0
 17 16  2  0
 18 16  1  0
 19 18  1  0
 20 19  1  1
 21 20  1  0
 22 23  1  0
 22 20  1  0
 24 22  2  0
M  END
$$$$
