PVQ.pdb
     RDKit          3D

 24 24  0  0  1  0  0  0  0  0999 V2000
   28.7229  -22.8191  -18.2784 N   0  0  0  0  0  0  0  0  0  0  0  0
   30.0798  -23.2386  -18.5130 C   0  0  0  0  0  0  0  0  0  0  0  0
   30.7432  -22.8785  -17.1897 C   0  0  0  0  0  0  0  0  0  0  0  0
   29.7211  -23.4645  -16.2113 C   0  0  0  0  0  0  0  0  0  0  0  0
   28.4237  -23.1449  -16.9129 C   0  0  1  0  0  0  0  0  0  0  0  0
   27.7205  -21.9979  -16.2914 C   0  0  0  0  0  0  0  0  0  0  0  0
   27.4784  -22.0169  -15.0611 O   0  0  0  0  0  0  0  0  0  0  0  0
   28.6960  -18.5269  -16.5424 C   0  0  0  0  0  0  0  0  0  0  0  0
   27.2144  -18.4926  -16.8072 C   0  0  1  0  0  0  0  0  0  0  0  0
   26.8862  -17.9932  -18.1741 C   0  0  0  0  0  0  0  0  0  0  0  0
   26.5223  -19.7600  -16.3955 C   0  0  2  0  0  0  0  0  0  0  0  0
   27.2954  -20.8610  -17.0048 N   0  0  0  0  0  0  0  0  0  0  0  0
   25.1103  -19.8523  -16.7809 C   0  0  0  0  0  0  0  0  0  0  0  0
   24.8076  -20.0583  -17.9869 O   0  0  0  0  0  0  0  0  0  0  0  0
   20.8624  -22.1887  -12.9863 N   0  0  0  0  0  0  0  0  0  0  0  0
   20.8611  -20.7796  -12.8999 C   0  0  0  0  0  0  0  0  0  0  0  0
   20.3120  -20.2376  -11.9124 O   0  0  0  0  0  0  0  0  0  0  0  0
   21.4905  -19.8914  -13.9414 C   0  0  0  0  0  0  0  0  0  0  0  0
   22.0507  -20.7219  -15.0628 C   0  0  0  0  0  0  0  0  0  0  0  0
   22.6731  -19.9146  -16.1693 C   0  0  2  0  0  0  0  0  0  0  0  0
   24.0867  -19.7155  -15.8237 N   0  0  0  0  0  0  0  0  0  0  0  0
   22.0064  -18.6179  -16.3196 C   0  0  0  0  0  0  0  0  0  0  0  0
   20.7054  -18.5360  -16.8643 O   0  0  0  0  0  0  0  0  0  0  0  0
   22.4998  -17.5134  -15.9964 O   0  0  0  0  0  0  0  0  0  0  0  0
  1  2  1  0
  3  2  1  0
  4  3  1  0
  4  5  1  0
  5  1  1  0
  6  7  2  0
  5  6  1  1
  9  8  1  6
  9 11  1  0
 10  9  1  0
 11 13  1  0
 11 12  1  6
 12  6  1  0
 13 21  1  0
 14 13  2  0
 16 15  1  0
 17 16  2  0
 18 16  1  0
 19 18  1  0
 20 19  1  1
 21 20  1  0
 22 23  1  0
 22 20  1  0
 24 22  2  0
M  END
$$$$
