PVQ.pdb
     RDKit          3D

 24 24  0  0  1  0  0  0  0  0999 V2000
   28.5991  -21.3699  -15.8073 N   0  0  0  0  0  0  0  0  0  0  0  0
   28.7856  -20.6119  -17.0168 C   0  0  0  0  0  0  0  0  0  0  0  0
   27.6122  -19.6424  -16.9530 C   0  0  0  0  0  0  0  0  0  0  0  0
   27.7380  -19.1671  -15.5026 C   0  0  0  0  0  0  0  0  0  0  0  0
   28.1485  -20.4427  -14.8083 C   0  0  1  0  0  0  0  0  0  0  0  0
   27.0270  -21.0564  -14.0586 C   0  0  0  0  0  0  0  0  0  0  0  0
   26.3504  -21.9649  -14.5965 O   0  0  0  0  0  0  0  0  0  0  0  0
   26.0487  -19.4852  -10.3382 C   0  0  0  0  0  0  0  0  0  0  0  0
   25.6852  -20.9229  -10.5972 C   0  0  1  0  0  0  0  0  0  0  0  0
   24.6208  -21.4212   -9.6785 C   0  0  0  0  0  0  0  0  0  0  0  0
   25.4728  -21.2135  -12.0551 C   0  0  2  0  0  0  0  0  0  0  0  0
   26.6603  -20.6801  -12.7525 N   0  0  0  0  0  0  0  0  0  0  0  0
   24.2465  -20.6513  -12.6303 C   0  0  0  0  0  0  0  0  0  0  0  0
   24.2021  -19.4259  -12.9221 O   0  0  0  0  0  0  0  0  0  0  0  0
   22.1539  -23.6759  -16.5126 N   0  0  0  0  0  0  0  0  0  0  0  0
   21.4805  -22.4752  -16.8254 C   0  0  0  0  0  0  0  0  0  0  0  0
   21.2712  -22.1986  -18.0295 O   0  0  0  0  0  0  0  0  0  0  0  0
   20.9989  -21.5056  -15.7777 C   0  0  0  0  0  0  0  0  0  0  0  0
   21.3660  -21.9987  -14.4053 C   0  0  0  0  0  0  0  0  0  0  0  0
   21.9025  -20.9282  -13.4945 C   0  0  2  0  0  0  0  0  0  0  0  0
   23.1174  -21.4597  -12.8629 N   0  0  0  0  0  0  0  0  0  0  0  0
   20.9217  -20.5647  -12.4677 C   0  0  0  0  0  0  0  0  0  0  0  0
   19.9216  -19.6035  -12.7355 O   0  0  0  0  0  0  0  0  0  0  0  0
   20.8773  -21.0460  -11.3126 O   0  0  0  0  0  0  0  0  0  0  0  0
  1  2  1  0
  3  2  1  0
  4  3  1  0
  4  5  1  0
  5  1  1  0
  6  7  2  0
  5  6  1  6
  9  8  1  6
  9 11  1  0
 10  9  1  0
 11 13  1  0
 11 12  1  6
 12  6  1  0
 13 21  1  0
 14 13  2  0
 16 15  1  0
 17 16  2  0
 18 16  1  0
 19 18  1  0
 20 19  1  6
 21 20  1  0
 22 23  1  0
 22 20  1  0
 24 22  2  0
M  END
$$$$
