PVQ.pdb
     RDKit          3D

 24 24  0  0  1  0  0  0  0  0999 V2000
   22.0501  -11.8207  -18.9918 N   0  0  0  0  0  0  0  0  0  0  0  0
   21.8976  -13.1606  -19.4954 C   0  0  0  0  0  0  0  0  0  0  0  0
   20.5477  -13.5546  -18.9093 C   0  0  0  0  0  0  0  0  0  0  0  0
   19.7311  -12.3073  -19.2593 C   0  0  0  0  0  0  0  0  0  0  0  0
   20.7492  -11.2157  -19.0369 C   0  0  1  0  0  0  0  0  0  0  0  0
   20.5177  -10.4863  -17.7677 C   0  0  0  0  0  0  0  0  0  0  0  0
   19.4002   -9.9583  -17.5556 O   0  0  0  0  0  0  0  0  0  0  0  0
   23.5327  -10.3756  -14.8311 C   0  0  0  0  0  0  0  0  0  0  0  0
   22.0834  -10.2059  -14.4609 C   0  0  1  0  0  0  0  0  0  0  0  0
   21.9018   -9.6552  -13.0865 C   0  0  0  0  0  0  0  0  0  0  0  0
   21.2841   -9.5345  -15.5403 C   0  0  2  0  0  0  0  0  0  0  0  0
   21.4898  -10.3420  -16.7596 N   0  0  0  0  0  0  0  0  0  0  0  0
   21.6310   -8.1318  -15.7914 C   0  0  0  0  0  0  0  0  0  0  0  0
   22.7004   -7.8553  -16.3985 O   0  0  0  0  0  0  0  0  0  0  0  0
   18.1007   -4.0153  -18.1941 N   0  0  0  0  0  0  0  0  0  0  0  0
   19.0383   -3.1449  -17.5973 C   0  0  0  0  0  0  0  0  0  0  0  0
   18.9414   -1.9147  -17.8153 O   0  0  0  0  0  0  0  0  0  0  0  0
   20.1550   -3.6247  -16.7071 C   0  0  0  0  0  0  0  0  0  0  0  0
   20.0513   -5.1103  -16.4982 C   0  0  0  0  0  0  0  0  0  0  0  0
   21.1199   -5.6779  -15.6042 C   0  0  2  0  0  0  0  0  0  0  0  0
   20.7869   -7.0883  -15.3655 N   0  0  0  0  0  0  0  0  0  0  0  0
   21.1848   -4.9556  -14.3304 C   0  0  0  0  0  0  0  0  0  0  0  0
   22.0488   -3.8490  -14.1733 O   0  0  0  0  0  0  0  0  0  0  0  0
   20.5150   -5.2350  -13.3100 O   0  0  0  0  0  0  0  0  0  0  0  0
  1  2  1  0
  3  2  1  0
  4  3  1  0
  4  5  1  0
  5  1  1  0
  6  7  2  0
  5  6  1  1
  9  8  1  6
  9 11  1  0
 10  9  1  0
 11 13  1  0
 11 12  1  6
 12  6  1  0
 13 21  1  0
 14 13  2  0
 16 15  1  0
 17 16  2  0
 18 16  1  0
 19 18  1  0
 20 19  1  6
 21 20  1  0
 22 23  1  0
 22 20  1  0
 24 22  2  0
M  END
$$$$
