PVQ.pdb
     RDKit          3D

 24 24  0  0  1  0  0  0  0  0999 V2000
   17.6243   -9.5096  -16.2353 N   0  0  0  0  0  0  0  0  0  0  0  0
   18.1484  -10.2329  -17.3642 C   0  0  0  0  0  0  0  0  0  0  0  0
   19.2005  -11.1126  -16.7009 C   0  0  0  0  0  0  0  0  0  0  0  0
   18.3902  -11.6509  -15.5181 C   0  0  0  0  0  0  0  0  0  0  0  0
   17.5760  -10.4373  -15.1411 C   0  0  1  0  0  0  0  0  0  0  0  0
   18.0988   -9.7696  -13.9256 C   0  0  0  0  0  0  0  0  0  0  0  0
   18.1923  -10.4199  -12.8575 O   0  0  0  0  0  0  0  0  0  0  0  0
   21.3932   -8.0323  -13.2649 C   0  0  0  0  0  0  0  0  0  0  0  0
   20.2630   -7.0651  -13.0334 C   0  0  1  0  0  0  0  0  0  0  0  0
   20.1557   -6.0381  -14.1100 C   0  0  0  0  0  0  0  0  0  0  0  0
   18.9803   -7.7509  -12.6601 C   0  0  2  0  0  0  0  0  0  0  0  0
   18.5073   -8.4229  -13.8871 N   0  0  0  0  0  0  0  0  0  0  0  0
   17.9365   -6.8710  -12.1242 C   0  0  0  0  0  0  0  0  0  0  0  0
   17.3710   -6.0418  -12.8866 O   0  0  0  0  0  0  0  0  0  0  0  0
   13.6814   -8.9743   -8.4263 N   0  0  0  0  0  0  0  0  0  0  0  0
   13.4089   -7.5930   -8.3224 C   0  0  0  0  0  0  0  0  0  0  0  0
   12.3931   -7.2261   -7.6870 O   0  0  0  0  0  0  0  0  0  0  0  0
   14.2835   -6.5337   -8.9408 C   0  0  0  0  0  0  0  0  0  0  0  0
   15.4726   -7.1665   -9.6092 C   0  0  0  0  0  0  0  0  0  0  0  0
   16.4100   -6.1800  -10.2506 C   0  0  2  0  0  0  0  0  0  0  0  0
   17.5551   -6.9389  -10.7704 N   0  0  0  0  0  0  0  0  0  0  0  0
   16.8696   -5.1789   -9.2835 C   0  0  0  0  0  0  0  0  0  0  0  0
   18.1017   -5.3398   -8.6112 O   0  0  0  0  0  0  0  0  0  0  0  0
   16.2468   -4.1374   -8.9752 O   0  0  0  0  0  0  0  0  0  0  0  0
  1  2  1  0
  3  2  1  0
  4  3  1  0
  4  5  1  0
  5  1  1  0
  6  7  2  0
  5  6  1  1
  9  8  1  6
  9 11  1  0
 10  9  1  0
 11 13  1  0
 11 12  1  6
 12  6  1  0
 13 21  1  0
 14 13  2  0
 16 15  1  0
 17 16  2  0
 18 16  1  0
 19 18  1  0
 20 19  1  1
 21 20  1  0
 22 23  1  0
 22 20  1  0
 24 22  2  0
M  END
$$$$
