PVQ.pdb
     RDKit          3D

 24 24  0  0  1  0  0  0  0  0999 V2000
   17.0956  -10.5777  -16.7263 N   0  0  0  0  0  0  0  0  0  0  0  0
   16.5541  -11.8653  -17.0744 C   0  0  0  0  0  0  0  0  0  0  0  0
   16.9857  -12.7098  -15.8822 C   0  0  0  0  0  0  0  0  0  0  0  0
   16.5736  -11.7820  -14.7356 C   0  0  0  0  0  0  0  0  0  0  0  0
   16.9233  -10.4305  -15.3090 C   0  0  1  0  0  0  0  0  0  0  0  0
   18.1737   -9.8848  -14.7301 C   0  0  0  0  0  0  0  0  0  0  0  0
   18.2818   -9.7800  -13.4851 O   0  0  0  0  0  0  0  0  0  0  0  0
   21.3638   -8.8715  -17.2695 C   0  0  0  0  0  0  0  0  0  0  0  0
   21.6210   -9.2869  -15.8455 C   0  0  1  0  0  0  0  0  0  0  0  0
   22.9962   -8.9383  -15.3845 C   0  0  0  0  0  0  0  0  0  0  0  0
   20.5067   -8.8968  -14.9176 C   0  0  2  0  0  0  0  0  0  0  0  0
   19.2749   -9.4659  -15.5006 N   0  0  0  0  0  0  0  0  0  0  0  0
   20.3514   -7.4545  -14.7022 C   0  0  0  0  0  0  0  0  0  0  0  0
   19.9435   -6.7256  -15.6462 O   0  0  0  0  0  0  0  0  0  0  0  0
   17.9851   -5.2345   -9.6636 N   0  0  0  0  0  0  0  0  0  0  0  0
   17.3637   -5.1333  -10.9272 C   0  0  0  0  0  0  0  0  0  0  0  0
   16.1164   -5.0241  -10.9774 O   0  0  0  0  0  0  0  0  0  0  0  0
   18.1301   -5.1503  -12.2241 C   0  0  0  0  0  0  0  0  0  0  0  0
   19.5995   -5.3259  -11.9572 C   0  0  0  0  0  0  0  0  0  0  0  0
   20.4374   -5.4400  -13.2014 C   0  0  2  0  0  0  0  0  0  0  0  0
   20.6500   -6.8708  -13.4561 N   0  0  0  0  0  0  0  0  0  0  0  0
   21.7271   -4.7632  -13.0365 C   0  0  0  0  0  0  0  0  0  0  0  0
   22.8799   -5.4909  -12.6662 O   0  0  0  0  0  0  0  0  0  0  0  0
   21.9222   -3.5371  -13.1994 O   0  0  0  0  0  0  0  0  0  0  0  0
  1  2  1  0
  3  2  1  0
  4  3  1  0
  4  5  1  0
  5  1  1  0
  6  7  2  0
  5  6  1  1
  9  8  1  6
  9 11  1  0
 10  9  1  0
 11 13  1  0
 11 12  1  6
 12  6  1  0
 13 21  1  0
 14 13  2  0
 16 15  1  0
 17 16  2  0
 18 16  1  0
 19 18  1  0
 20 19  1  1
 21 20  1  0
 22 23  1  0
 22 20  1  0
 24 22  2  0
M  END
$$$$
