EFW.pdb
     RDKit          3D

 35 37  0  0  1  0  0  0  0  0999 V2000
    8.8073  -18.2888   19.5828 N   0  0  0  0  0  0  0  0  0  0  0  0
   10.1425  -17.8544   20.0317 C   0  0  1  0  0  0  0  0  0  0  0  0
   10.9247  -17.5492   18.8036 C   0  0  0  0  0  0  0  0  0  0  0  0
   12.3334  -17.1211   19.0038 C   0  0  0  0  0  0  0  0  0  0  0  0
   13.2069  -18.2274   18.4675 C   0  0  0  0  0  0  0  0  0  0  0  0
   12.8785  -18.9170   17.4783 O   0  0  0  0  0  0  0  0  0  0  0  0
   10.0284  -16.6547   20.8916 C   0  0  0  0  0  0  0  0  0  0  0  0
   10.9268  -15.7771   20.9054 O   0  0  0  0  0  0  0  0  0  0  0  0
   14.4180  -18.5030   19.0788 O   0  0  0  0  0  0  0  0  0  0  0  0
    8.9192  -16.4131   21.7477 N   0  0  0  0  0  0  0  0  0  0  0  0
    8.8580  -15.2455   22.5816 C   0  0  1  0  0  0  0  0  0  0  0  0
    7.7506  -14.3435   22.1924 C   0  0  0  0  0  0  0  0  0  0  0  0
    7.6754  -13.9538   20.7911 C   0  0  0  0  0  0  0  0  0  0  0  0
    7.0371  -14.7305   19.8700 C   0  0  0  0  0  0  0  0  0  0  0  0
    6.9394  -14.3907   18.5215 C   0  0  0  0  0  0  0  0  0  0  0  0
    7.5202  -13.2011   18.0902 C   0  0  0  0  0  0  0  0  0  0  0  0
    8.1700  -12.4057   19.0143 C   0  0  0  0  0  0  0  0  0  0  0  0
    8.2558  -12.7632   20.3544 C   0  0  0  0  0  0  0  0  0  0  0  0
    8.8204  -15.5792   24.0310 C   0  0  0  0  0  0  0  0  0  0  0  0
    8.1936  -14.7684   24.7718 O   0  0  0  0  0  0  0  0  0  0  0  0
    9.4230  -16.7025   24.5985 N   0  0  0  0  0  0  0  0  0  0  0  0
   10.0712  -16.6066   25.9103 C   0  0  1  0  0  0  0  0  0  0  0  0
    9.0705  -16.4732   26.9934 C   0  0  0  0  0  0  0  0  0  0  0  0
    8.0016  -15.4998   26.7406 C   0  0  0  0  0  0  0  0  0  0  0  0
    6.7075  -15.8146   26.3089 C   0  0  0  0  0  0  0  0  0  0  0  0
    6.0328  -14.6660   26.1506 N   0  0  0  0  0  0  0  0  0  0  0  0
    6.8109  -13.6166   26.4550 C   0  0  0  0  0  0  0  0  0  0  0  0
    6.5867  -12.2583   26.4696 C   0  0  0  0  0  0  0  0  0  0  0  0
    7.5737  -11.3870   26.8508 C   0  0  0  0  0  0  0  0  0  0  0  0
    8.7991  -11.8872   27.2214 C   0  0  0  0  0  0  0  0  0  0  0  0
    9.0363  -13.2318   27.2113 C   0  0  0  0  0  0  0  0  0  0  0  0
    8.0285  -14.1113   26.8215 C   0  0  0  0  0  0  0  0  0  0  0  0
   10.9851  -17.7344   26.0752 C   0  0  0  0  0  0  0  0  0  0  0  0
   11.8547  -17.9251   27.1377 O   0  0  0  0  0  0  0  0  0  0  0  0
   11.0181  -18.6396   25.1800 O   0  0  0  0  0  0  0  0  0  0  0  0
  2  1  1  6
  2  3  1  0
  3  4  1  0
  4  5  1  0
  5  6  2  0
  5  9  1  0
  7  8  2  0
  7  2  1  0
 10  7  1  0
 11 10  1  0
 11 12  1  6
 13 18  1  0
 13 12  1  0
 14 13  2  0
 15 16  2  0
 15 14  1  0
 16 17  1  0
 17 18  2  0
 19 21  1  0
 19 11  1  0
 20 19  2  0
 22 33  1  0
 22 21  1  0
 22 23  1  1
 24 32  1  0
 24 23  1  0
 25 24  2  0
 26 25  1  0
 26 27  1  0
 27 28  1  0
 27 32  2  0
 28 29  2  0
 29 30  1  0
 31 30  2  0
 32 31  1  0
 33 34  1  0
 35 33  2  0
M  END
$$$$
