EFW.pdb
     RDKit          3D

 35 37  0  0  1  0  0  0  0  0999 V2000
    8.8451  -16.9541   17.6220 N   0  0  0  0  0  0  0  0  0  0  0  0
    9.5949  -17.6905   18.6556 C   0  0  1  0  0  0  0  0  0  0  0  0
   10.9925  -17.8117   18.1607 C   0  0  0  0  0  0  0  0  0  0  0  0
   11.1701  -18.4240   16.8185 C   0  0  0  0  0  0  0  0  0  0  0  0
   12.6552  -18.5084   16.5696 C   0  0  0  0  0  0  0  0  0  0  0  0
   13.4166  -19.1821   17.2963 O   0  0  0  0  0  0  0  0  0  0  0  0
    9.5558  -16.9538   19.9391 C   0  0  0  0  0  0  0  0  0  0  0  0
   10.5727  -16.3639   20.3811 O   0  0  0  0  0  0  0  0  0  0  0  0
   13.2124  -17.8229   15.5037 O   0  0  0  0  0  0  0  0  0  0  0  0
    8.3910  -16.8627   20.7493 N   0  0  0  0  0  0  0  0  0  0  0  0
    8.4062  -16.1682   22.0062 C   0  0  1  0  0  0  0  0  0  0  0  0
    7.0651  -15.6631   22.3770 C   0  0  0  0  0  0  0  0  0  0  0  0
    6.9485  -14.9678   23.6514 C   0  0  0  0  0  0  0  0  0  0  0  0
    7.3305  -13.6662   23.7893 C   0  0  0  0  0  0  0  0  0  0  0  0
    7.2308  -12.9646   24.9898 C   0  0  0  0  0  0  0  0  0  0  0  0
    6.7164  -13.6212   26.1046 C   0  0  0  0  0  0  0  0  0  0  0  0
    6.3262  -14.9403   25.9774 C   0  0  0  0  0  0  0  0  0  0  0  0
    6.4341  -15.6214   24.7709 C   0  0  0  0  0  0  0  0  0  0  0  0
    9.0185  -16.9736   23.0972 C   0  0  0  0  0  0  0  0  0  0  0  0
    8.6307  -18.1738   23.1867 O   0  0  0  0  0  0  0  0  0  0  0  0
    9.9661  -16.4892   23.9997 N   0  0  0  0  0  0  0  0  0  0  0  0
   10.6079  -17.4000   24.9529 C   0  0  1  0  0  0  0  0  0  0  0  0
   11.6126  -16.6909   25.7775 C   0  0  0  0  0  0  0  0  0  0  0  0
   11.1751  -16.3436   27.1347 C   0  0  0  0  0  0  0  0  0  0  0  0
   11.0425  -17.2461   28.1967 C   0  0  0  0  0  0  0  0  0  0  0  0
   10.5836  -16.5696   29.2603 N   0  0  0  0  0  0  0  0  0  0  0  0
   10.4090  -15.2749   28.9559 C   0  0  0  0  0  0  0  0  0  0  0  0
    9.9829  -14.1903   29.6889 C   0  0  0  0  0  0  0  0  0  0  0  0
    9.9150  -12.9431   29.1245 C   0  0  0  0  0  0  0  0  0  0  0  0
   10.2799  -12.7852   27.8088 C   0  0  0  0  0  0  0  0  0  0  0  0
   10.7039  -13.8516   27.0691 C   0  0  0  0  0  0  0  0  0  0  0  0
   10.7691  -15.1167   27.6494 C   0  0  0  0  0  0  0  0  0  0  0  0
    9.5762  -18.0872   25.7259 C   0  0  0  0  0  0  0  0  0  0  0  0
    9.7037  -19.3319   26.3226 O   0  0  0  0  0  0  0  0  0  0  0  0
    8.4436  -17.5262   25.8816 O   0  0  0  0  0  0  0  0  0  0  0  0
  2  1  1  6
  2  3  1  0
  3  4  1  0
  4  5  1  0
  5  6  2  0
  5  9  1  0
  7  8  2  0
  7  2  1  0
 10  7  1  0
 11 10  1  0
 11 12  1  1
 13 18  1  0
 13 12  1  0
 14 13  2  0
 15 16  2  0
 15 14  1  0
 16 17  1  0
 17 18  2  0
 19 21  1  0
 19 11  1  0
 20 19  2  0
 22 33  1  0
 22 21  1  0
 22 23  1  1
 24 32  1  0
 24 23  1  0
 25 24  2  0
 26 25  1  0
 26 27  1  0
 27 28  1  0
 27 32  2  0
 28 29  2  0
 29 30  1  0
 31 30  2  0
 32 31  1  0
 33 34  1  0
 35 33  2  0
M  END
$$$$
