EFW.pdb
     RDKit          3D

 35 37  0  0  1  0  0  0  0  0999 V2000
   10.5795  -18.8689   17.1280 N   0  0  0  0  0  0  0  0  0  0  0  0
   10.4788  -19.4184   18.4922 C   0  0  1  0  0  0  0  0  0  0  0  0
   11.7385  -20.1693   18.7414 C   0  0  0  0  0  0  0  0  0  0  0  0
   11.6131  -21.6415   18.8985 C   0  0  0  0  0  0  0  0  0  0  0  0
   12.8008  -22.0974   19.7085 C   0  0  0  0  0  0  0  0  0  0  0  0
   12.6752  -22.6994   20.7965 O   0  0  0  0  0  0  0  0  0  0  0  0
   10.3189  -18.3228   19.4749 C   0  0  0  0  0  0  0  0  0  0  0  0
   11.2650  -17.5381   19.7331 O   0  0  0  0  0  0  0  0  0  0  0  0
   14.0822  -21.8499   19.2468 O   0  0  0  0  0  0  0  0  0  0  0  0
    9.1103  -18.0837   20.1846 N   0  0  0  0  0  0  0  0  0  0  0  0
    8.9676  -16.9544   21.0603 C   0  0  1  0  0  0  0  0  0  0  0  0
    7.5916  -16.4090   21.0422 C   0  0  0  0  0  0  0  0  0  0  0  0
    7.4319  -15.0033   21.3878 C   0  0  0  0  0  0  0  0  0  0  0  0
    8.4819  -14.2567   21.8342 C   0  0  0  0  0  0  0  0  0  0  0  0
    8.3711  -12.9084   22.1708 C   0  0  0  0  0  0  0  0  0  0  0  0
    7.1298  -12.2903   22.0463 C   0  0  0  0  0  0  0  0  0  0  0  0
    6.0582  -13.0365   21.5952 C   0  0  0  0  0  0  0  0  0  0  0  0
    6.1904  -14.3798   21.2650 C   0  0  0  0  0  0  0  0  0  0  0  0
    9.4343  -17.2408   22.4438 C   0  0  0  0  0  0  0  0  0  0  0  0
    9.9013  -18.3987   22.6441 O   0  0  0  0  0  0  0  0  0  0  0  0
    9.3834  -16.3291   23.4988 N   0  0  0  0  0  0  0  0  0  0  0  0
    9.9261  -16.6915   24.8119 C   0  0  1  0  0  0  0  0  0  0  0  0
    9.7118  -15.6076   25.7975 C   0  0  0  0  0  0  0  0  0  0  0  0
    8.3755  -15.0010   25.7791 C   0  0  0  0  0  0  0  0  0  0  0  0
    7.1803  -15.6862   25.5301 C   0  0  0  0  0  0  0  0  0  0  0  0
    6.1784  -14.7946   25.5566 N   0  0  0  0  0  0  0  0  0  0  0  0
    6.6490  -13.5643   25.8099 C   0  0  0  0  0  0  0  0  0  0  0  0
    6.0373  -12.3392   25.9523 C   0  0  0  0  0  0  0  0  0  0  0  0
    6.7700  -11.2164   26.2369 C   0  0  0  0  0  0  0  0  0  0  0  0
    8.1325  -11.3270   26.3801 C   0  0  0  0  0  0  0  0  0  0  0  0
    8.7532  -12.5352   26.2411 C   0  0  0  0  0  0  0  0  0  0  0  0
    8.0019  -13.6720   25.9505 C   0  0  0  0  0  0  0  0  0  0  0  0
    9.3781  -17.9843   25.2151 C   0  0  0  0  0  0  0  0  0  0  0  0
    8.3254  -18.6459   24.6022 O   0  0  0  0  0  0  0  0  0  0  0  0
    9.8830  -18.5841   26.2186 O   0  0  0  0  0  0  0  0  0  0  0  0
  2  1  1  6
  2  3  1  0
  3  4  1  0
  4  5  1  0
  5  6  2  0
  5  9  1  0
  7  8  2  0
  7  2  1  0
 10  7  1  0
 11 10  1  0
 11 12  1  1
 13 18  1  0
 13 12  1  0
 14 13  2  0
 15 16  2  0
 15 14  1  0
 16 17  1  0
 17 18  2  0
 19 21  1  0
 19 11  1  0
 20 19  2  0
 22 33  1  0
 22 21  1  0
 22 23  1  1
 24 32  1  0
 24 23  1  0
 25 24  2  0
 26 25  1  0
 26 27  1  0
 27 28  1  0
 27 32  2  0
 28 29  2  0
 29 30  1  0
 31 30  2  0
 32 31  1  0
 33 34  1  0
 35 33  2  0
M  END
$$$$
