EFW.pdb
     RDKit          3D

 35 37  0  0  1  0  0  0  0  0999 V2000
    8.6543  -20.9529   19.6266 N   0  0  0  0  0  0  0  0  0  0  0  0
    8.2377  -20.3187   20.8904 C   0  0  1  0  0  0  0  0  0  0  0  0
    8.8802  -21.0931   21.9860 C   0  0  0  0  0  0  0  0  0  0  0  0
   10.1526  -20.5477   22.5258 C   0  0  0  0  0  0  0  0  0  0  0  0
   10.5407  -21.4187   23.6943 C   0  0  0  0  0  0  0  0  0  0  0  0
    9.8549  -22.4005   24.0517 O   0  0  0  0  0  0  0  0  0  0  0  0
    8.6750  -18.9047   20.9221 C   0  0  0  0  0  0  0  0  0  0  0  0
    9.8006  -18.5625   20.4822 O   0  0  0  0  0  0  0  0  0  0  0  0
   11.6932  -21.1368   24.4074 O   0  0  0  0  0  0  0  0  0  0  0  0
    7.8723  -17.8529   21.4426 N   0  0  0  0  0  0  0  0  0  0  0  0
    8.2912  -16.4816   21.3618 C   0  0  1  0  0  0  0  0  0  0  0  0
    7.1408  -15.5551   21.2658 C   0  0  0  0  0  0  0  0  0  0  0  0
    7.4399  -14.1515   21.0175 C   0  0  0  0  0  0  0  0  0  0  0  0
    7.3662  -13.2216   22.0120 C   0  0  0  0  0  0  0  0  0  0  0  0
    7.6486  -11.8706   21.8161 C   0  0  0  0  0  0  0  0  0  0  0  0
    8.0250  -11.4461   20.5446 C   0  0  0  0  0  0  0  0  0  0  0  0
    8.1030  -12.3790   19.5287 C   0  0  0  0  0  0  0  0  0  0  0  0
    7.8171  -13.7214   19.7455 C   0  0  0  0  0  0  0  0  0  0  0  0
    9.2212  -16.1020   22.4595 C   0  0  0  0  0  0  0  0  0  0  0  0
    9.8809  -15.0374   22.2856 O   0  0  0  0  0  0  0  0  0  0  0  0
    9.3999  -16.8366   23.6323 N   0  0  0  0  0  0  0  0  0  0  0  0
   10.3122  -16.3518   24.6728 C   0  0  1  0  0  0  0  0  0  0  0  0
    9.6450  -16.3127   25.9940 C   0  0  0  0  0  0  0  0  0  0  0  0
    8.3071  -15.7093   26.0012 C   0  0  0  0  0  0  0  0  0  0  0  0
    7.1069  -16.4025   25.8040 C   0  0  0  0  0  0  0  0  0  0  0  0
    6.1038  -15.5125   25.8393 N   0  0  0  0  0  0  0  0  0  0  0  0
    6.5785  -14.2757   26.0496 C   0  0  0  0  0  0  0  0  0  0  0  0
    5.9680  -13.0488   26.1813 C   0  0  0  0  0  0  0  0  0  0  0  0
    6.7059  -11.9181   26.4176 C   0  0  0  0  0  0  0  0  0  0  0  0
    8.0723  -12.0227   26.5228 C   0  0  0  0  0  0  0  0  0  0  0  0
    8.6919  -13.2326   26.3937 C   0  0  0  0  0  0  0  0  0  0  0  0
    7.9353  -14.3774   26.1524 C   0  0  0  0  0  0  0  0  0  0  0  0
   11.5365  -17.1484   24.6437 C   0  0  0  0  0  0  0  0  0  0  0  0
   11.7980  -18.2028   23.7826 O   0  0  0  0  0  0  0  0  0  0  0  0
   12.4663  -16.8837   25.4727 O   0  0  0  0  0  0  0  0  0  0  0  0
  2  1  1  6
  2  3  1  0
  3  4  1  0
  4  5  1  0
  5  6  2  0
  5  9  1  0
  7  8  2  0
  7  2  1  0
 10  7  1  0
 11 10  1  0
 11 12  1  1
 13 18  1  0
 13 12  1  0
 14 13  2  0
 15 16  2  0
 15 14  1  0
 16 17  1  0
 17 18  2  0
 19 21  1  0
 19 11  1  0
 20 19  2  0
 22 33  1  0
 22 21  1  0
 22 23  1  1
 24 32  1  0
 24 23  1  0
 25 24  2  0
 26 25  1  0
 26 27  1  0
 27 28  1  0
 27 32  2  0
 28 29  2  0
 29 30  1  0
 31 30  2  0
 32 31  1  0
 33 34  1  0
 35 33  2  0
M  END
$$$$
