EFW.pdb
     RDKit          3D

 35 37  0  0  1  0  0  0  0  0999 V2000
    8.9864  -18.8256   20.1661 N   0  0  0  0  0  0  0  0  0  0  0  0
   10.2661  -18.1483   19.8894 C   0  0  1  0  0  0  0  0  0  0  0  0
   10.2381  -17.7577   18.4543 C   0  0  0  0  0  0  0  0  0  0  0  0
   11.4533  -17.0853   17.9261 C   0  0  0  0  0  0  0  0  0  0  0  0
   11.2587  -16.9369   16.4379 C   0  0  0  0  0  0  0  0  0  0  0  0
   10.2434  -17.3691   15.8511 O   0  0  0  0  0  0  0  0  0  0  0  0
   10.4116  -16.9556   20.7542 C   0  0  0  0  0  0  0  0  0  0  0  0
   11.4427  -16.2400   20.7065 O   0  0  0  0  0  0  0  0  0  0  0  0
   12.2271  -16.3023   15.6791 O   0  0  0  0  0  0  0  0  0  0  0  0
    9.4181  -16.5417   21.6833 N   0  0  0  0  0  0  0  0  0  0  0  0
    9.5901  -15.3646   22.4879 C   0  0  1  0  0  0  0  0  0  0  0  0
    8.3767  -14.5166   22.4966 C   0  0  0  0  0  0  0  0  0  0  0  0
    7.9429  -13.9685   21.2190 C   0  0  0  0  0  0  0  0  0  0  0  0
    8.4589  -12.8040   20.7324 C   0  0  0  0  0  0  0  0  0  0  0  0
    8.0735  -12.2491   19.5129 C   0  0  0  0  0  0  0  0  0  0  0  0
    7.1155  -12.9134   18.7516 C   0  0  0  0  0  0  0  0  0  0  0  0
    6.5851  -14.0942   19.2342 C   0  0  0  0  0  0  0  0  0  0  0  0
    6.9834  -14.6301   20.4529 C   0  0  0  0  0  0  0  0  0  0  0  0
   10.0605  -15.6765   23.8645 C   0  0  0  0  0  0  0  0  0  0  0  0
   10.9768  -14.9338   24.3203 O   0  0  0  0  0  0  0  0  0  0  0  0
    9.5617  -16.7139   24.6533 N   0  0  0  0  0  0  0  0  0  0  0  0
   10.0845  -16.9266   26.0066 C   0  0  1  0  0  0  0  0  0  0  0  0
    9.0102  -16.8151   27.0193 C   0  0  0  0  0  0  0  0  0  0  0  0
    7.9400  -15.8650   26.6936 C   0  0  0  0  0  0  0  0  0  0  0  0
    6.6667  -16.2112   26.2258 C   0  0  0  0  0  0  0  0  0  0  0  0
    5.9850  -15.0776   26.0028 N   0  0  0  0  0  0  0  0  0  0  0  0
    6.7389  -14.0084   26.2989 C   0  0  0  0  0  0  0  0  0  0  0  0
    6.4985  -12.6534   26.2578 C   0  0  0  0  0  0  0  0  0  0  0  0
    7.4604  -11.7567   26.6444 C   0  0  0  0  0  0  0  0  0  0  0  0
    8.6769  -12.2279   27.0771 C   0  0  0  0  0  0  0  0  0  0  0  0
    8.9300  -13.5689   27.1226 C   0  0  0  0  0  0  0  0  0  0  0  0
    7.9477  -14.4743   26.7269 C   0  0  0  0  0  0  0  0  0  0  0  0
   10.8132  -18.1922   26.0437 C   0  0  0  0  0  0  0  0  0  0  0  0
   10.9246  -19.0952   24.9977 O   0  0  0  0  0  0  0  0  0  0  0  0
   11.4065  -18.5330   27.1178 O   0  0  0  0  0  0  0  0  0  0  0  0
  2  1  1  1
  2  3  1  0
  3  4  1  0
  4  5  1  0
  5  6  2  0
  5  9  1  0
  7  8  2  0
  7  2  1  0
 10  7  1  0
 11 10  1  0
 11 12  1  1
 13 18  1  0
 13 12  1  0
 14 13  2  0
 15 16  2  0
 15 14  1  0
 16 17  1  0
 17 18  2  0
 19 21  1  0
 19 11  1  0
 20 19  2  0
 22 33  1  0
 22 21  1  0
 22 23  1  1
 24 32  1  0
 24 23  1  0
 25 24  2  0
 26 25  1  0
 26 27  1  0
 27 28  1  0
 27 32  2  0
 28 29  2  0
 29 30  1  0
 31 30  2  0
 32 31  1  0
 33 34  1  0
 35 33  2  0
M  END
$$$$
