EFW.pdb
     RDKit          3D

 35 37  0  0  1  0  0  0  0  0999 V2000
    8.9793  -18.2657   18.6391 N   0  0  0  0  0  0  0  0  0  0  0  0
   10.2753  -18.0396   19.3041 C   0  0  1  0  0  0  0  0  0  0  0  0
   11.1613  -17.3938   18.2988 C   0  0  0  0  0  0  0  0  0  0  0  0
   12.5994  -17.7644   18.3467 C   0  0  0  0  0  0  0  0  0  0  0  0
   13.0877  -17.8066   16.9204 C   0  0  0  0  0  0  0  0  0  0  0  0
   13.5390  -18.8494   16.4000 O   0  0  0  0  0  0  0  0  0  0  0  0
   10.0988  -17.1651   20.4855 C   0  0  0  0  0  0  0  0  0  0  0  0
   11.0820  -16.6109   21.0366 O   0  0  0  0  0  0  0  0  0  0  0  0
   13.0416  -16.6607   16.1451 O   0  0  0  0  0  0  0  0  0  0  0  0
    8.8321  -16.8950   21.0720 N   0  0  0  0  0  0  0  0  0  0  0  0
    8.7208  -16.2200   22.3347 C   0  0  1  0  0  0  0  0  0  0  0  0
    7.4600  -15.4520   22.4438 C   0  0  0  0  0  0  0  0  0  0  0  0
    7.1683  -14.8373   23.7315 C   0  0  0  0  0  0  0  0  0  0  0  0
    6.4579  -15.4972   24.6902 C   0  0  0  0  0  0  0  0  0  0  0  0
    6.1620  -14.9457   25.9358 C   0  0  0  0  0  0  0  0  0  0  0  0
    6.6121  -13.6589   26.2189 C   0  0  0  0  0  0  0  0  0  0  0  0
    7.3327  -12.9801   25.2553 C   0  0  0  0  0  0  0  0  0  0  0  0
    7.6168  -13.5485   24.0195 C   0  0  0  0  0  0  0  0  0  0  0  0
    8.9166  -17.1349   23.4916 C   0  0  0  0  0  0  0  0  0  0  0  0
    8.3824  -18.2768   23.3936 O   0  0  0  0  0  0  0  0  0  0  0  0
    9.6339  -16.8091   24.6433 N   0  0  0  0  0  0  0  0  0  0  0  0
   10.3928  -17.8424   25.3549 C   0  0  1  0  0  0  0  0  0  0  0  0
   11.5327  -17.2550   26.0952 C   0  0  0  0  0  0  0  0  0  0  0  0
   11.1844  -16.5975   27.3603 C   0  0  0  0  0  0  0  0  0  0  0  0
   11.0896  -17.2350   28.6031 C   0  0  0  0  0  0  0  0  0  0  0  0
   10.7118  -16.3213   29.5096 N   0  0  0  0  0  0  0  0  0  0  0  0
   10.5545  -15.1210   28.9316 C   0  0  0  0  0  0  0  0  0  0  0  0
   10.2010  -13.8846   29.4233 C   0  0  0  0  0  0  0  0  0  0  0  0
   10.1339  -12.7927   28.5975 C   0  0  0  0  0  0  0  0  0  0  0  0
   10.4257  -12.9460   27.2631 C   0  0  0  0  0  0  0  0  0  0  0  0
   10.7772  -14.1661   26.7611 C   0  0  0  0  0  0  0  0  0  0  0  0
   10.8421  -15.2718   27.6064 C   0  0  0  0  0  0  0  0  0  0  0  0
    9.4772  -18.6211   26.1851 C   0  0  0  0  0  0  0  0  0  0  0  0
    8.1498  -18.3122   26.4383 O   0  0  0  0  0  0  0  0  0  0  0  0
    9.9025  -19.6815   26.7477 O   0  0  0  0  0  0  0  0  0  0  0  0
  2  1  1  6
  2  3  1  0
  3  4  1  0
  4  5  1  0
  5  6  2  0
  5  9  1  0
  7  8  2  0
  7  2  1  0
 10  7  1  0
 11 10  1  0
 11 12  1  1
 13 18  1  0
 13 12  1  0
 14 13  2  0
 15 16  2  0
 15 14  1  0
 16 17  1  0
 17 18  2  0
 19 21  1  0
 19 11  1  0
 20 19  2  0
 22 33  1  0
 22 21  1  0
 22 23  1  1
 24 32  1  0
 24 23  1  0
 25 24  2  0
 26 25  1  0
 26 27  1  0
 27 28  1  0
 27 32  2  0
 28 29  2  0
 29 30  1  0
 31 30  2  0
 32 31  1  0
 33 34  1  0
 35 33  2  0
M  END
$$$$
