EFW.pdb
     RDKit          3D

 35 37  0  0  1  0  0  0  0  0999 V2000
    8.9834  -16.6519   17.9588 N   0  0  0  0  0  0  0  0  0  0  0  0
    8.7893  -17.3927   19.2183 C   0  0  1  0  0  0  0  0  0  0  0  0
    9.8409  -18.4442   19.2587 C   0  0  0  0  0  0  0  0  0  0  0  0
    9.9278  -19.2476   20.5056 C   0  0  0  0  0  0  0  0  0  0  0  0
   11.0932  -20.1901   20.3379 C   0  0  0  0  0  0  0  0  0  0  0  0
   11.5798  -20.4572   19.2182 O   0  0  0  0  0  0  0  0  0  0  0  0
    8.9184  -16.4781   20.3753 C   0  0  0  0  0  0  0  0  0  0  0  0
    9.9007  -15.7032   20.4848 O   0  0  0  0  0  0  0  0  0  0  0  0
   11.6570  -20.7893   21.4513 O   0  0  0  0  0  0  0  0  0  0  0  0
    7.9624  -16.4116   21.4256 N   0  0  0  0  0  0  0  0  0  0  0  0
    8.1617  -15.5619   22.5661 C   0  0  1  0  0  0  0  0  0  0  0  0
    6.9147  -14.8739   22.9697 C   0  0  0  0  0  0  0  0  0  0  0  0
    6.9939  -13.9773   24.1146 C   0  0  0  0  0  0  0  0  0  0  0  0
    6.3948  -14.2832   25.3007 C   0  0  0  0  0  0  0  0  0  0  0  0
    6.4511  -13.4545   26.4203 C   0  0  0  0  0  0  0  0  0  0  0  0
    7.1524  -12.2553   26.3271 C   0  0  0  0  0  0  0  0  0  0  0  0
    7.7634  -11.9342   25.1305 C   0  0  0  0  0  0  0  0  0  0  0  0
    7.6950  -12.7749   24.0261 C   0  0  0  0  0  0  0  0  0  0  0  0
    8.7976  -16.2751   23.7065 C   0  0  0  0  0  0  0  0  0  0  0  0
    8.1761  -16.2293   24.8068 O   0  0  0  0  0  0  0  0  0  0  0  0
   10.0064  -16.9679   23.6292 N   0  0  0  0  0  0  0  0  0  0  0  0
   11.1811  -16.4829   24.3605 C   0  0  1  0  0  0  0  0  0  0  0  0
   11.3762  -17.2361   25.6201 C   0  0  0  0  0  0  0  0  0  0  0  0
   10.4855  -16.8533   26.7220 C   0  0  0  0  0  0  0  0  0  0  0  0
    9.4244  -17.6258   27.2090 C   0  0  0  0  0  0  0  0  0  0  0  0
    8.8202  -16.9313   28.1849 N   0  0  0  0  0  0  0  0  0  0  0  0
    9.4258  -15.7482   28.3656 C   0  0  0  0  0  0  0  0  0  0  0  0
    9.2016  -14.7054   29.2360 C   0  0  0  0  0  0  0  0  0  0  0  0
   10.0027  -13.5933   29.2220 C   0  0  0  0  0  0  0  0  0  0  0  0
   11.0406  -13.5296   28.3231 C   0  0  0  0  0  0  0  0  0  0  0  0
   11.2748  -14.5558   27.4534 C   0  0  0  0  0  0  0  0  0  0  0  0
   10.4554  -15.6825   27.4727 C   0  0  0  0  0  0  0  0  0  0  0  0
   12.3383  -16.4971   23.4690 C   0  0  0  0  0  0  0  0  0  0  0  0
   13.6122  -16.0520   23.7861 O   0  0  0  0  0  0  0  0  0  0  0  0
   12.2013  -16.9457   22.2850 O   0  0  0  0  0  0  0  0  0  0  0  0
  2  1  1  6
  2  3  1  0
  3  4  1  0
  4  5  1  0
  5  6  2  0
  5  9  1  0
  7  8  2  0
  7  2  1  0
 10  7  1  0
 11 10  1  0
 11 12  1  1
 13 18  1  0
 13 12  1  0
 14 13  2  0
 15 16  2  0
 15 14  1  0
 16 17  1  0
 17 18  2  0
 19 21  1  0
 19 11  1  0
 20 19  2  0
 22 33  1  0
 22 21  1  0
 22 23  1  1
 24 32  1  0
 24 23  1  0
 25 24  2  0
 26 25  1  0
 26 27  1  0
 27 28  1  0
 27 32  2  0
 28 29  2  0
 29 30  1  0
 31 30  2  0
 32 31  1  0
 33 34  1  0
 35 33  2  0
M  END
$$$$
