EFW.pdb
     RDKit          3D

 35 37  0  0  1  0  0  0  0  0999 V2000
   11.2474  -18.4200   17.2674 N   0  0  0  0  0  0  0  0  0  0  0  0
   11.7504  -18.7172   18.6208 C   0  0  1  0  0  0  0  0  0  0  0  0
   13.2345  -18.7483   18.5247 C   0  0  0  0  0  0  0  0  0  0  0  0
   13.8648  -20.0903   18.4254 C   0  0  0  0  0  0  0  0  0  0  0  0
   15.3560  -19.8799   18.5068 C   0  0  0  0  0  0  0  0  0  0  0  0
   16.0187  -20.1851   19.5214 O   0  0  0  0  0  0  0  0  0  0  0  0
   11.3088  -17.6723   19.5720 C   0  0  0  0  0  0  0  0  0  0  0  0
   11.9624  -16.6100   19.7200 O   0  0  0  0  0  0  0  0  0  0  0  0
   16.0315  -19.3314   17.4300 O   0  0  0  0  0  0  0  0  0  0  0  0
   10.1395  -17.7916   20.3719 N   0  0  0  0  0  0  0  0  0  0  0  0
    9.6551  -16.6915   21.1579 C   0  0  1  0  0  0  0  0  0  0  0  0
    8.2298  -16.3998   20.8847 C   0  0  0  0  0  0  0  0  0  0  0  0
    7.7096  -15.1285   21.3684 C   0  0  0  0  0  0  0  0  0  0  0  0
    7.9971  -13.9552   20.7359 C   0  0  0  0  0  0  0  0  0  0  0  0
    7.5156  -12.7192   21.1646 C   0  0  0  0  0  0  0  0  0  0  0  0
    6.7008  -12.6763   22.2927 C   0  0  0  0  0  0  0  0  0  0  0  0
    6.4026  -13.8585   22.9423 C   0  0  0  0  0  0  0  0  0  0  0  0
    6.8933  -15.0804   22.4982 C   0  0  0  0  0  0  0  0  0  0  0  0
    9.9181  -16.8679   22.6118 C   0  0  0  0  0  0  0  0  0  0  0  0
    9.9096  -18.0585   23.0376 O   0  0  0  0  0  0  0  0  0  0  0  0
   10.1634  -15.8220   23.5023 N   0  0  0  0  0  0  0  0  0  0  0  0
   10.4338  -16.1062   24.9151 C   0  0  1  0  0  0  0  0  0  0  0  0
   10.0081  -14.9812   25.7785 C   0  0  0  0  0  0  0  0  0  0  0  0
    8.5566  -14.8124   25.9152 C   0  0  0  0  0  0  0  0  0  0  0  0
    7.6128  -15.8439   25.8436 C   0  0  0  0  0  0  0  0  0  0  0  0
    6.3936  -15.2995   25.9729 N   0  0  0  0  0  0  0  0  0  0  0  0
    6.4850  -13.9701   26.1263 C   0  0  0  0  0  0  0  0  0  0  0  0
    5.5438  -12.9823   26.3100 C   0  0  0  0  0  0  0  0  0  0  0  0
    5.9195  -11.6731   26.4637 C   0  0  0  0  0  0  0  0  0  0  0  0
    7.2561  -11.3541   26.4325 C   0  0  0  0  0  0  0  0  0  0  0  0
    8.2009  -12.3229   26.2505 C   0  0  0  0  0  0  0  0  0  0  0  0
    7.8113  -13.6514   26.0937 C   0  0  0  0  0  0  0  0  0  0  0  0
    9.8345  -17.3911   25.2672 C   0  0  0  0  0  0  0  0  0  0  0  0
   10.1407  -18.1495   26.3864 O   0  0  0  0  0  0  0  0  0  0  0  0
    8.9527  -17.8937   24.4980 O   0  0  0  0  0  0  0  0  0  0  0  0
  2  1  1  6
  2  3  1  0
  3  4  1  0
  4  5  1  0
  5  6  2  0
  5  9  1  0
  7  8  2  0
  7  2  1  0
 10  7  1  0
 11 10  1  0
 11 12  1  1
 13 18  1  0
 13 12  1  0
 14 13  2  0
 15 16  2  0
 15 14  1  0
 16 17  1  0
 17 18  2  0
 19 21  1  0
 19 11  1  0
 20 19  2  0
 22 33  1  0
 22 21  1  0
 22 23  1  1
 24 32  1  0
 24 23  1  0
 25 24  2  0
 26 25  1  0
 26 27  1  0
 27 28  1  0
 27 32  2  0
 28 29  2  0
 29 30  1  0
 31 30  2  0
 32 31  1  0
 33 34  1  0
 35 33  2  0
M  END
$$$$
