RMS.pdb
     RDKit          3D

 26 25  0  0  1  0  0  0  0  0999 V2000
   25.1659  -23.1888  -13.7425 N   0  0  0  0  0  0  0  0  0  0  0  0
   24.6273  -23.4665  -15.0317 C   0  0  0  0  0  0  0  0  0  0  0  0
   24.3472  -24.6630  -15.4219 N   0  0  0  0  0  0  0  0  0  0  0  0
   24.3674  -22.4113  -15.9700 N   0  0  0  0  0  0  0  0  0  0  0  0
   24.7807  -21.0704  -15.6412 C   0  0  0  0  0  0  0  0  0  0  0  0
   23.6482  -20.2979  -15.0212 C   0  0  0  0  0  0  0  0  0  0  0  0
   22.6438  -19.8744  -16.0627 C   0  0  0  0  0  0  0  0  0  0  0  0
   22.8502  -18.4568  -16.5149 C   0  0  2  0  0  0  0  0  0  0  0  0
   24.2057  -18.0151  -16.4106 N   0  0  0  0  0  0  0  0  0  0  0  0
   21.8837  -17.5582  -15.8159 C   0  0  0  0  0  0  0  0  0  0  0  0
   22.1018  -17.3981  -14.5922 O   0  0  0  0  0  0  0  0  0  0  0  0
   24.0229  -24.8834  -16.3688 C   0  0  0  0  0  0  0  0  0  0  0  0
   16.6154  -11.8742  -17.4288 S   0  0  0  0  0  0  0  0  0  0  0  0
   17.5963  -13.2721  -18.0105 C   0  0  0  0  0  0  0  0  0  0  0  0
   18.2795  -14.1475  -16.5453 C   0  0  0  0  0  0  0  0  0  0  0  0
   19.2031  -15.1835  -17.0681 C   0  0  2  0  0  0  0  0  0  0  0  0
   19.8431  -16.0680  -16.0203 N   0  0  0  0  0  0  0  0  0  0  0  0
   20.8340  -16.9688  -16.5270 C   0  0  0  0  0  0  0  0  0  0  0  0
   18.8030  -16.6948  -15.2165 O   0  0  0  0  0  0  0  0  0  0  0  0
   18.2723  -17.7692  -15.5991 O   0  0  0  0  0  0  0  0  0  0  0  0
   16.0819  -16.8415  -11.1717 C   0  0  0  0  0  0  0  0  0  0  0  0
   17.0070  -16.1353  -11.9029 C   0  0  2  0  0  0  0  0  0  0  0  0
   17.2711  -16.8230  -13.2220 N   0  0  0  0  0  0  0  0  0  0  0  0
   18.3145  -16.1708  -13.9794 C   0  0  0  0  0  0  0  0  0  0  0  0
   16.0097  -16.7929  -13.9919 O   0  0  0  0  0  0  0  0  0  0  0  0
   15.1229  -17.8405  -13.8659 O   0  0  0  0  0  0  0  0  0  0  0  0
  2  3  2  0
  2  1  1  0
  4  2  1  0
  5  4  1  0
  6  5  1  0
  7  6  1  0
  7  8  1  0
  8  9  1  1
 10  8  1  0
 10 17  1  0
 11 10  2  0
 12 13  1  0
 14 13  1  0
 14 15  1  0
 16 15  1  1
 16 17  1  0
 18 16  1  0
 19 18  2  0
 20 21  1  0
 22 21  1  1
 22 24  1  0
 22 23  1  0
 23 18  1  0
 24 25  1  0
 26 24  2  0
M  END
$$$$
