RMS.pdb
     RDKit          3D

 26 25  0  0  1  0  0  0  0  0999 V2000
   26.2528  -25.1160  -15.5081 N   0  0  0  0  0  0  0  0  0  0  0  0
   26.7505  -25.0580  -16.8417 C   0  0  0  0  0  0  0  0  0  0  0  0
   26.4394  -25.9336  -17.7355 N   0  0  0  0  0  0  0  0  0  0  0  0
   27.6344  -24.0061  -17.2584 N   0  0  0  0  0  0  0  0  0  0  0  0
   27.9100  -22.9261  -16.3448 C   0  0  0  0  0  0  0  0  0  0  0  0
   27.0164  -21.7481  -16.6232 C   0  0  0  0  0  0  0  0  0  0  0  0
   26.1652  -21.4152  -15.4243 C   0  0  0  0  0  0  0  0  0  0  0  0
   24.7069  -21.6851  -15.6640 C   0  0  2  0  0  0  0  0  0  0  0  0
   24.3363  -21.6390  -17.0437 N   0  0  0  0  0  0  0  0  0  0  0  0
   23.8796  -20.7885  -14.8026 C   0  0  0  0  0  0  0  0  0  0  0  0
   24.1179  -19.5650  -14.9321 O   0  0  0  0  0  0  0  0  0  0  0  0
   26.8012  -25.9106  -18.6940 C   0  0  0  0  0  0  0  0  0  0  0  0
   19.4373  -18.7081  -16.6846 S   0  0  0  0  0  0  0  0  0  0  0  0
   20.0301  -17.6726  -15.3312 C   0  0  0  0  0  0  0  0  0  0  0  0
   21.4549  -18.5206  -14.5370 C   0  0  0  0  0  0  0  0  0  0  0  0
   20.9547  -19.8380  -14.0744 C   0  0  2  0  0  0  0  0  0  0  0  0
   21.9138  -20.6272  -13.2101 N   0  0  0  0  0  0  0  0  0  0  0  0
   22.9263  -21.3325  -13.9364 C   0  0  0  0  0  0  0  0  0  0  0  0
   21.1576  -21.4427  -12.2700 O   0  0  0  0  0  0  0  0  0  0  0  0
   20.6346  -22.5216  -12.6503 O   0  0  0  0  0  0  0  0  0  0  0  0
   21.7502  -21.5297   -8.2795 C   0  0  0  0  0  0  0  0  0  0  0  0
   20.4044  -21.5891   -8.5525 C   0  0  2  0  0  0  0  0  0  0  0  0
   20.1771  -21.9398  -10.0045 N   0  0  0  0  0  0  0  0  0  0  0  0
   20.9513  -21.1069  -10.8959 C   0  0  0  0  0  0  0  0  0  0  0  0
   18.7370  -21.7526  -10.2800 O   0  0  0  0  0  0  0  0  0  0  0  0
   17.8265  -22.6062   -9.6950 O   0  0  0  0  0  0  0  0  0  0  0  0
  2  3  2  0
  2  1  1  0
  4  2  1  0
  5  4  1  0
  6  5  1  0
  7  6  1  0
  7  8  1  0
  8  9  1  6
 10  8  1  0
 10 17  1  0
 11 10  2  0
 12 13  1  0
 14 13  1  0
 14 15  1  0
 16 15  1  1
 16 17  1  0
 18 16  1  0
 19 18  2  0
 20 21  1  0
 22 21  1  1
 22 24  1  0
 22 23  1  0
 23 18  1  0
 24 25  1  0
 26 24  2  0
M  END
$$$$
