RMS.pdb
     RDKit          3D

 26 25  0  0  1  0  0  0  0  0999 V2000
   26.1281  -23.5046  -19.1450 N   0  0  0  0  0  0  0  0  0  0  0  0
   26.0540  -22.0975  -19.3549 C   0  0  0  0  0  0  0  0  0  0  0  0
   25.2845  -21.5698  -20.2446 N   0  0  0  0  0  0  0  0  0  0  0  0
   26.8443  -21.1885  -18.5736 N   0  0  0  0  0  0  0  0  0  0  0  0
   26.9598  -21.4098  -17.1542 C   0  0  0  0  0  0  0  0  0  0  0  0
   26.2710  -22.6861  -16.7536 C   0  0  0  0  0  0  0  0  0  0  0  0
   26.4789  -22.9805  -15.2897 C   0  0  0  0  0  0  0  0  0  0  0  0
   26.4736  -21.7359  -14.4485 C   0  0  2  0  0  0  0  0  0  0  0  0
   27.7483  -21.4229  -13.8825 N   0  0  0  0  0  0  0  0  0  0  0  0
   25.3832  -21.8189  -13.4314 C   0  0  0  0  0  0  0  0  0  0  0  0
   24.4676  -22.6301  -13.7040 O   0  0  0  0  0  0  0  0  0  0  0  0
   25.2737  -20.5667  -20.4541 C   0  0  0  0  0  0  0  0  0  0  0  0
   25.3294  -19.5318   -6.9782 S   0  0  0  0  0  0  0  0  0  0  0  0
   26.7725  -19.7344   -8.0419 C   0  0  0  0  0  0  0  0  0  0  0  0
   26.3058  -20.8248   -9.4466 C   0  0  0  0  0  0  0  0  0  0  0  0
   24.9973  -20.3334   -9.9426 C   0  0  2  0  0  0  0  0  0  0  0  0
   24.4922  -20.9990  -11.2042 N   0  0  0  0  0  0  0  0  0  0  0  0
   25.4354  -21.0258  -12.2811 C   0  0  0  0  0  0  0  0  0  0  0  0
   23.1874  -20.4522  -11.5496 O   0  0  0  0  0  0  0  0  0  0  0  0
   23.0968  -19.2931  -12.0297 O   0  0  0  0  0  0  0  0  0  0  0  0
   19.5079  -22.2672  -10.6391 C   0  0  0  0  0  0  0  0  0  0  0  0
   19.6033  -21.6696  -11.8733 C   0  0  1  0  0  0  0  0  0  0  0  0
   20.6957  -20.6259  -11.8696 N   0  0  0  0  0  0  0  0  0  0  0  0
   21.9509  -21.1499  -11.3822 C   0  0  0  0  0  0  0  0  0  0  0  0
   20.2463  -19.5247  -10.9919 O   0  0  0  0  0  0  0  0  0  0  0  0
   19.1849  -18.7410  -11.3906 O   0  0  0  0  0  0  0  0  0  0  0  0
  2  3  2  0
  2  1  1  0
  4  2  1  0
  5  4  1  0
  6  5  1  0
  7  6  1  0
  7  8  1  0
  8  9  1  1
 10  8  1  0
 10 17  1  0
 11 10  2  0
 12 13  1  0
 14 13  1  0
 14 15  1  0
 16 15  1  1
 16 17  1  0
 18 16  1  0
 19 18  2  0
 20 21  1  0
 22 21  1  6
 22 24  1  0
 22 23  1  0
 23 18  1  0
 24 25  1  0
 26 24  2  0
M  END
$$$$
