RMS.pdb
     RDKit          3D

 26 25  0  0  1  0  0  0  0  0999 V2000
   19.4524  -23.6020   -7.1092 N   0  0  0  0  0  0  0  0  0  0  0  0
   19.0822  -23.2047   -8.4263 C   0  0  0  0  0  0  0  0  0  0  0  0
   18.0013  -23.6169   -8.9956 N   0  0  0  0  0  0  0  0  0  0  0  0
   19.9076  -22.3137   -9.1919 N   0  0  0  0  0  0  0  0  0  0  0  0
   21.3321  -22.3245   -8.9734 C   0  0  0  0  0  0  0  0  0  0  0  0
   21.8258  -20.9549   -8.5934 C   0  0  0  0  0  0  0  0  0  0  0  0
   22.8472  -20.4511   -9.5812 C   0  0  0  0  0  0  0  0  0  0  0  0
   24.1682  -21.1543   -9.4486 C   0  0  2  0  0  0  0  0  0  0  0  0
   24.5513  -21.4005   -8.0937 N   0  0  0  0  0  0  0  0  0  0  0  0
   25.2096  -20.4234  -10.2305 C   0  0  0  0  0  0  0  0  0  0  0  0
   25.3323  -19.2101   -9.9412 O   0  0  0  0  0  0  0  0  0  0  0  0
   17.7331  -23.3534   -9.9490 C   0  0  0  0  0  0  0  0  0  0  0  0
   31.1774  -21.6862  -10.1337 S   0  0  0  0  0  0  0  0  0  0  0  0
   30.9862  -21.8370  -11.9214 C   0  0  0  0  0  0  0  0  0  0  0  0
   29.5503  -20.8111  -12.4370 C   0  0  0  0  0  0  0  0  0  0  0  0
   28.3719  -21.3432  -11.7105 C   0  0  2  0  0  0  0  0  0  0  0  0
   27.0791  -20.5893  -11.9346 N   0  0  0  0  0  0  0  0  0  0  0  0
   25.9598  -21.0963  -11.1996 C   0  0  0  0  0  0  0  0  0  0  0  0
   26.8509  -20.4362  -13.3648 O   0  0  0  0  0  0  0  0  0  0  0  0
   26.4605  -21.4167  -14.0492 O   0  0  0  0  0  0  0  0  0  0  0  0
   27.8470  -17.0080  -15.3651 C   0  0  0  0  0  0  0  0  0  0  0  0
   26.7940  -17.6572  -15.9645 C   0  0  1  0  0  0  0  0  0  0  0  0
   26.7188  -19.0890  -15.4881 N   0  0  0  0  0  0  0  0  0  0  0  0
   27.0409  -19.2163  -14.0853 C   0  0  0  0  0  0  0  0  0  0  0  0
   27.6857  -19.8686  -16.2895 O   0  0  0  0  0  0  0  0  0  0  0  0
   27.4741  -20.0086  -17.6442 O   0  0  0  0  0  0  0  0  0  0  0  0
  2  3  2  0
  2  1  1  0
  4  2  1  0
  5  4  1  0
  6  5  1  0
  7  6  1  0
  7  8  1  0
  8  9  1  1
 10  8  1  0
 10 17  1  0
 11 10  2  0
 12 13  1  0
 14 13  1  0
 14 15  1  0
 16 15  1  1
 16 17  1  0
 18 16  1  0
 19 18  2  0
 20 21  1  0
 22 21  1  1
 22 24  1  0
 22 23  1  0
 23 18  1  0
 24 25  1  0
 26 24  2  0
M  END
$$$$
