RMS.pdb
     RDKit          3D

 26 25  0  0  1  0  0  0  0  0999 V2000
   19.7709  -18.1448  -17.4092 N   0  0  0  0  0  0  0  0  0  0  0  0
   19.2519  -18.0085  -18.7289 C   0  0  0  0  0  0  0  0  0  0  0  0
   19.1405  -19.0080  -19.5357 N   0  0  0  0  0  0  0  0  0  0  0  0
   18.8222  -16.7330  -19.2288 N   0  0  0  0  0  0  0  0  0  0  0  0
   18.8650  -15.5912  -18.3506 C   0  0  0  0  0  0  0  0  0  0  0  0
   20.2744  -15.0880  -18.1950 C   0  0  0  0  0  0  0  0  0  0  0  0
   20.3187  -13.8502  -17.3355 C   0  0  0  0  0  0  0  0  0  0  0  0
   20.9759  -12.6924  -18.0315 C   0  0  2  0  0  0  0  0  0  0  0  0
   21.8951  -13.0863  -19.0529 N   0  0  0  0  0  0  0  0  0  0  0  0
   21.5785  -11.7724  -17.0212 C   0  0  0  0  0  0  0  0  0  0  0  0
   20.8118  -11.4381  -16.0879 O   0  0  0  0  0  0  0  0  0  0  0  0
   18.8019  -18.9174  -20.4987 C   0  0  0  0  0  0  0  0  0  0  0  0
   27.7268  -12.0940  -15.2724 S   0  0  0  0  0  0  0  0  0  0  0  0
   27.6281  -10.3016  -15.4528 C   0  0  0  0  0  0  0  0  0  0  0  0
   25.8623   -9.8051  -15.3276 C   0  0  0  0  0  0  0  0  0  0  0  0
   25.1160  -10.6653  -16.2777 C   0  0  2  0  0  0  0  0  0  0  0  0
   23.6189  -10.4472  -16.3091 N   0  0  0  0  0  0  0  0  0  0  0  0
   22.9041  -11.3500  -17.1601 C   0  0  0  0  0  0  0  0  0  0  0  0
   23.3411   -9.0373  -16.5452 O   0  0  0  0  0  0  0  0  0  0  0  0
   23.4916   -8.5491  -17.6946 O   0  0  0  0  0  0  0  0  0  0  0  0
   21.9118   -4.6684  -14.9072 C   0  0  0  0  0  0  0  0  0  0  0  0
   21.9809   -6.0201  -14.6676 C   0  0  1  0  0  0  0  0  0  0  0  0
   22.6738   -6.7225  -15.8118 N   0  0  0  0  0  0  0  0  0  0  0  0
   22.8936   -8.1245  -15.5401 C   0  0  0  0  0  0  0  0  0  0  0  0
   23.9738   -6.0494  -16.0161 O   0  0  0  0  0  0  0  0  0  0  0  0
   24.0272   -4.9212  -16.8061 O   0  0  0  0  0  0  0  0  0  0  0  0
  2  3  2  0
  2  1  1  0
  4  2  1  0
  5  4  1  0
  6  5  1  0
  7  6  1  0
  7  8  1  0
  8  9  1  6
 10  8  1  0
 10 17  1  0
 11 10  2  0
 12 13  1  0
 14 13  1  0
 14 15  1  0
 16 15  1  1
 16 17  1  0
 18 16  1  0
 19 18  2  0
 20 21  1  0
 22 21  1  6
 22 24  1  0
 22 23  1  0
 23 18  1  0
 24 25  1  0
 26 24  2  0
M  END
$$$$
