RMS.pdb
     RDKit          3D

 26 25  0  0  1  0  0  0  0  0999 V2000
   19.1328  -25.8949  -11.1237 N   0  0  0  0  0  0  0  0  0  0  0  0
   18.0924  -25.0561  -10.6301 C   0  0  0  0  0  0  0  0  0  0  0  0
   17.3168  -24.3834  -11.4099 N   0  0  0  0  0  0  0  0  0  0  0  0
   17.8559  -24.9192   -9.2206 N   0  0  0  0  0  0  0  0  0  0  0  0
   18.8130  -25.4747   -8.2974 C   0  0  0  0  0  0  0  0  0  0  0  0
   18.3639  -25.2742   -6.8754 C   0  0  0  0  0  0  0  0  0  0  0  0
   17.2518  -26.2266   -6.5164 C   0  0  0  0  0  0  0  0  0  0  0  0
   16.7270  -25.9976   -5.1276 C   0  0  2  0  0  0  0  0  0  0  0  0
   16.1206  -24.7154   -4.9498 N   0  0  0  0  0  0  0  0  0  0  0  0
   17.8000  -26.2840   -4.1291 C   0  0  0  0  0  0  0  0  0  0  0  0
   18.3456  -25.2697   -3.6349 O   0  0  0  0  0  0  0  0  0  0  0  0
   16.5914  -23.7458  -11.0669 C   0  0  0  0  0  0  0  0  0  0  0  0
   16.1528  -26.3952    0.6444 S   0  0  0  0  0  0  0  0  0  0  0  0
   17.9466  -26.3293    0.8258 C   0  0  0  0  0  0  0  0  0  0  0  0
   18.6995  -26.4065   -0.8497 C   0  0  0  0  0  0  0  0  0  0  0  0
   18.4489  -27.7765   -1.3597 C   0  0  2  0  0  0  0  0  0  0  0  0
   18.9768  -28.0559   -2.7501 N   0  0  0  0  0  0  0  0  0  0  0  0
   18.1268  -27.6056   -3.8106 C   0  0  0  0  0  0  0  0  0  0  0  0
   19.3794  -29.4524   -2.8422 O   0  0  0  0  0  0  0  0  0  0  0  0
   18.5276  -30.3653   -2.6892 O   0  0  0  0  0  0  0  0  0  0  0  0
   23.2929  -30.4864   -3.1814 C   0  0  0  0  0  0  0  0  0  0  0  0
   22.4886  -31.4917   -3.6629 C   0  0  1  0  0  0  0  0  0  0  0  0
   21.0628  -31.2895   -3.2056 N   0  0  0  0  0  0  0  0  0  0  0  0
   20.7148  -29.8909   -3.1024 C   0  0  0  0  0  0  0  0  0  0  0  0
   20.9332  -31.9297   -1.8796 O   0  0  0  0  0  0  0  0  0  0  0  0
   21.1549  -33.2852   -1.7657 O   0  0  0  0  0  0  0  0  0  0  0  0
  2  3  2  0
  2  1  1  0
  4  2  1  0
  5  4  1  0
  6  5  1  0
  7  6  1  0
  7  8  1  0
  8  9  1  6
 10  8  1  0
 10 17  1  0
 11 10  2  0
 12 13  1  0
 14 13  1  0
 14 15  1  0
 16 15  1  1
 16 17  1  0
 18 16  1  0
 19 18  2  0
 20 21  1  0
 22 21  1  6
 22 24  1  0
 22 23  1  0
 23 18  1  0
 24 25  1  0
 26 24  2  0
M  END
$$$$
