RMS.pdb
     RDKit          3D

 26 25  0  0  1  0  0  0  0  0999 V2000
   28.2977  -21.8758  -10.2073 N   0  0  0  0  0  0  0  0  0  0  0  0
   29.6679  -21.5802  -10.4613 C   0  0  0  0  0  0  0  0  0  0  0  0
   30.6314  -22.2293   -9.9022 N   0  0  0  0  0  0  0  0  0  0  0  0
   30.0449  -20.5302  -11.3652 N   0  0  0  0  0  0  0  0  0  0  0  0
   29.0371  -19.9495  -12.2161 C   0  0  0  0  0  0  0  0  0  0  0  0
   28.6709  -20.8905  -13.3315 C   0  0  0  0  0  0  0  0  0  0  0  0
   27.7976  -20.2090  -14.3541 C   0  0  0  0  0  0  0  0  0  0  0  0
   27.3021  -21.1577  -15.4082 C   0  0  2  0  0  0  0  0  0  0  0  0
   28.3113  -21.5564  -16.3386 N   0  0  0  0  0  0  0  0  0  0  0  0
   26.0869  -20.5913  -16.0659 C   0  0  0  0  0  0  0  0  0  0  0  0
   26.3158  -19.8594  -17.0572 O   0  0  0  0  0  0  0  0  0  0  0  0
   31.6204  -22.0082  -10.0549 C   0  0  0  0  0  0  0  0  0  0  0  0
   21.1257  -22.9465  -18.7958 S   0  0  0  0  0  0  0  0  0  0  0  0
   22.8373  -22.9193  -19.3654 C   0  0  0  0  0  0  0  0  0  0  0  0
   23.7652  -21.7016  -18.3474 C   0  0  0  0  0  0  0  0  0  0  0  0
   22.9741  -21.5002  -17.1092 C   0  0  2  0  0  0  0  0  0  0  0  0
   23.5539  -20.5076  -16.1252 N   0  0  0  0  0  0  0  0  0  0  0  0
   24.8155  -20.8910  -15.5672 C   0  0  0  0  0  0  0  0  0  0  0  0
   22.5376  -20.1485  -15.1459 O   0  0  0  0  0  0  0  0  0  0  0  0
   22.3461  -20.8786  -14.1397 O   0  0  0  0  0  0  0  0  0  0  0  0
   19.1826  -17.0278  -13.4732 C   0  0  0  0  0  0  0  0  0  0  0  0
   20.0417  -17.3428  -14.4988 C   0  0  2  0  0  0  0  0  0  0  0  0
   20.7220  -18.6644  -14.2283 N   0  0  0  0  0  0  0  0  0  0  0  0
   21.7059  -18.9893  -15.2353 C   0  0  0  0  0  0  0  0  0  0  0  0
   19.6704  -19.7030  -14.2122 O   0  0  0  0  0  0  0  0  0  0  0  0
   19.0285  -19.9882  -13.0263 O   0  0  0  0  0  0  0  0  0  0  0  0
  2  3  2  0
  2  1  1  0
  4  2  1  0
  5  4  1  0
  6  5  1  0
  7  6  1  0
  7  8  1  0
  8  9  1  6
 10  8  1  0
 10 17  1  0
 11 10  2  0
 12 13  1  0
 14 13  1  0
 14 15  1  0
 16 15  1  6
 16 17  1  0
 18 16  1  0
 19 18  2  0
 20 21  1  0
 22 21  1  1
 22 24  1  0
 22 23  1  0
 23 18  1  0
 24 25  1  0
 26 24  2  0
M  END
$$$$
