RMS.pdb
     RDKit          3D

 26 25  0  0  1  0  0  0  0  0999 V2000
   18.4608  -21.7425  -12.1061 N   0  0  0  0  0  0  0  0  0  0  0  0
   18.5500  -22.5032  -13.3073 C   0  0  0  0  0  0  0  0  0  0  0  0
   17.5565  -22.6353  -14.1185 N   0  0  0  0  0  0  0  0  0  0  0  0
   19.7683  -23.1675  -13.6758 N   0  0  0  0  0  0  0  0  0  0  0  0
   20.9242  -23.0218  -12.8276 C   0  0  0  0  0  0  0  0  0  0  0  0
   21.4473  -21.6117  -12.8729 C   0  0  0  0  0  0  0  0  0  0  0  0
   22.9439  -21.5918  -13.0532 C   0  0  0  0  0  0  0  0  0  0  0  0
   23.6716  -21.2984  -11.7722 C   0  0  2  0  0  0  0  0  0  0  0  0
   22.8934  -20.5575  -10.8294 N   0  0  0  0  0  0  0  0  0  0  0  0
   24.9894  -20.6640  -12.0743 C   0  0  0  0  0  0  0  0  0  0  0  0
   24.9553  -19.4197  -12.2198 O   0  0  0  0  0  0  0  0  0  0  0  0
   17.5806  -23.2460  -14.9411 C   0  0  0  0  0  0  0  0  0  0  0  0
   31.5452  -22.0061  -11.0676 S   0  0  0  0  0  0  0  0  0  0  0  0
   30.2471  -21.9999   -9.8147 C   0  0  0  0  0  0  0  0  0  0  0  0
   28.7849  -21.1233  -10.5027 C   0  0  0  0  0  0  0  0  0  0  0  0
   28.5927  -21.6431  -11.8784 C   0  0  2  0  0  0  0  0  0  0  0  0
   27.4311  -21.0433  -12.6404 N   0  0  0  0  0  0  0  0  0  0  0  0
   26.1401  -21.4518  -12.1751 C   0  0  0  0  0  0  0  0  0  0  0  0
   27.6484  -21.2197  -14.0696 O   0  0  0  0  0  0  0  0  0  0  0  0
   27.4466  -22.3404  -14.6041 O   0  0  0  0  0  0  0  0  0  0  0  0
   29.0573  -18.1768  -16.4114 C   0  0  0  0  0  0  0  0  0  0  0  0
   28.2418  -19.0324  -17.1130 C   0  0  1  0  0  0  0  0  0  0  0  0
   28.1137  -20.3511  -16.3869 N   0  0  0  0  0  0  0  0  0  0  0  0
   28.0893  -20.1849  -14.9517 C   0  0  0  0  0  0  0  0  0  0  0  0
   29.2789  -21.1763  -16.7687 O   0  0  0  0  0  0  0  0  0  0  0  0
   29.4224  -21.5655  -18.0831 O   0  0  0  0  0  0  0  0  0  0  0  0
  2  3  2  0
  2  1  1  0
  4  2  1  0
  5  4  1  0
  6  5  1  0
  7  6  1  0
  7  8  1  0
  8  9  1  1
 10  8  1  0
 10 17  1  0
 11 10  2  0
 12 13  1  0
 14 13  1  0
 14 15  1  0
 16 15  1  1
 16 17  1  0
 18 16  1  0
 19 18  2  0
 20 21  1  0
 22 21  1  6
 22 24  1  0
 22 23  1  0
 23 18  1  0
 24 25  1  0
 26 24  2  0
M  END
$$$$
