RMS.pdb
     RDKit          3D

 26 25  0  0  1  0  0  0  0  0999 V2000
   31.9564  -23.2409  -10.8917 N   0  0  0  0  0  0  0  0  0  0  0  0
   31.8093  -22.4551   -9.7126 C   0  0  0  0  0  0  0  0  0  0  0  0
   32.6063  -22.5628   -8.7049 N   0  0  0  0  0  0  0  0  0  0  0  0
   30.7511  -21.4924   -9.5901 N   0  0  0  0  0  0  0  0  0  0  0  0
   30.0664  -21.0558  -10.7807 C   0  0  0  0  0  0  0  0  0  0  0  0
   28.8212  -21.8684  -11.0106 C   0  0  0  0  0  0  0  0  0  0  0  0
   27.6578  -20.9868  -11.3875 C   0  0  0  0  0  0  0  0  0  0  0  0
   27.7908  -20.4238  -12.7739 C   0  0  2  0  0  0  0  0  0  0  0  0
   29.1172  -19.9969  -13.0927 N   0  0  0  0  0  0  0  0  0  0  0  0
   26.7638  -19.3610  -12.9878 C   0  0  0  0  0  0  0  0  0  0  0  0
   26.7974  -18.4202  -12.1605 O   0  0  0  0  0  0  0  0  0  0  0  0
   32.5105  -22.0045   -7.8509 C   0  0  0  0  0  0  0  0  0  0  0  0
   26.2552  -15.1121  -16.6812 S   0  0  0  0  0  0  0  0  0  0  0  0
   26.9347  -15.0297  -15.0119 C   0  0  0  0  0  0  0  0  0  0  0  0
   26.3207  -16.4820  -14.0664 C   0  0  0  0  0  0  0  0  0  0  0  0
   25.3955  -17.2097  -14.9686 C   0  0  2  0  0  0  0  0  0  0  0  0
   24.8552  -18.5147  -14.4256 N   0  0  0  0  0  0  0  0  0  0  0  0
   25.8592  -19.4634  -14.0490 C   0  0  0  0  0  0  0  0  0  0  0  0
   23.8378  -19.0303  -15.3311 O   0  0  0  0  0  0  0  0  0  0  0  0
   24.0987  -20.0039  -16.0835 O   0  0  0  0  0  0  0  0  0  0  0  0
   19.9335  -20.7885  -14.2414 C   0  0  0  0  0  0  0  0  0  0  0  0
   21.0546  -19.9980  -14.1552 C   0  0  1  0  0  0  0  0  0  0  0  0
   21.3449  -19.3494  -15.4886 N   0  0  0  0  0  0  0  0  0  0  0  0
   22.5141  -18.5017  -15.4413 C   0  0  0  0  0  0  0  0  0  0  0  0
   20.1620  -18.5394  -15.8484 O   0  0  0  0  0  0  0  0  0  0  0  0
   19.2578  -19.0420  -16.7592 O   0  0  0  0  0  0  0  0  0  0  0  0
  2  3  2  0
  2  1  1  0
  4  2  1  0
  5  4  1  0
  6  5  1  0
  7  6  1  0
  7  8  1  0
  8  9  1  1
 10  8  1  0
 10 17  1  0
 11 10  2  0
 12 13  1  0
 14 13  1  0
 14 15  1  0
 16 15  1  1
 16 17  1  0
 18 16  1  0
 19 18  2  0
 20 21  1  0
 22 21  1  6
 22 24  1  0
 22 23  1  0
 23 18  1  0
 24 25  1  0
 26 24  2  0
M  END
$$$$
