RMS.pdb
     RDKit          3D

 26 25  0  0  1  0  0  0  0  0999 V2000
   30.5726  -21.6398  -19.6114 N   0  0  0  0  0  0  0  0  0  0  0  0
   29.3552  -22.2767  -19.9879 C   0  0  0  0  0  0  0  0  0  0  0  0
   29.3044  -23.1927  -20.8938 N   0  0  0  0  0  0  0  0  0  0  0  0
   28.1101  -21.9230  -19.3666 N   0  0  0  0  0  0  0  0  0  0  0  0
   28.1011  -20.8835  -18.3685 C   0  0  0  0  0  0  0  0  0  0  0  0
   28.6756  -21.3825  -17.0705 C   0  0  0  0  0  0  0  0  0  0  0  0
   27.5955  -21.9279  -16.1712 C   0  0  0  0  0  0  0  0  0  0  0  0
   26.7301  -20.8447  -15.5928 C   0  0  2  0  0  0  0  0  0  0  0  0
   27.4205  -19.6099  -15.3876 N   0  0  0  0  0  0  0  0  0  0  0  0
   26.0463  -21.3472  -14.3640 C   0  0  0  0  0  0  0  0  0  0  0  0
   25.4356  -22.4324  -14.5061 O   0  0  0  0  0  0  0  0  0  0  0  0
   28.4275  -23.6076  -21.2245 C   0  0  0  0  0  0  0  0  0  0  0  0
   25.7525  -20.1558   -6.5149 S   0  0  0  0  0  0  0  0  0  0  0  0
   26.5340  -19.8603   -8.1140 C   0  0  0  0  0  0  0  0  0  0  0  0
   25.5039  -20.6515   -9.4150 C   0  0  0  0  0  0  0  0  0  0  0  0
   26.1710  -20.3678  -10.7089 C   0  0  1  0  0  0  0  0  0  0  0  0
   25.4721  -20.9203  -11.9321 N   0  0  0  0  0  0  0  0  0  0  0  0
   26.1176  -20.6173  -13.1736 C   0  0  0  0  0  0  0  0  0  0  0  0
   24.0587  -20.5732  -11.8788 O   0  0  0  0  0  0  0  0  0  0  0  0
   23.6793  -19.4221  -12.2153 O   0  0  0  0  0  0  0  0  0  0  0  0
   19.9894  -19.6714  -10.5370 C   0  0  0  0  0  0  0  0  0  0  0  0
   21.3446  -19.8704  -10.6513 C   0  0  2  0  0  0  0  0  0  0  0  0
   21.6276  -21.0981  -11.4852 N   0  0  0  0  0  0  0  0  0  0  0  0
   23.0245  -21.4665  -11.4594 C   0  0  0  0  0  0  0  0  0  0  0  0
   21.2243  -20.7876  -12.8728 O   0  0  0  0  0  0  0  0  0  0  0  0
   20.3170  -21.6091  -13.5066 O   0  0  0  0  0  0  0  0  0  0  0  0
  2  3  2  0
  2  1  1  0
  4  2  1  0
  5  4  1  0
  6  5  1  0
  7  6  1  0
  7  8  1  0
  8  9  1  1
 10  8  1  0
 10 17  1  0
 11 10  2  0
 12 13  1  0
 14 13  1  0
 14 15  1  0
 16 15  1  1
 16 17  1  0
 18 16  1  0
 19 18  2  0
 20 21  1  0
 22 21  1  1
 22 24  1  0
 22 23  1  0
 23 18  1  0
 24 25  1  0
 26 24  2  0
M  END
$$$$
