VAC.pdb
     RDKit          3D

 19 18  0  0  1  0  0  0  0  0999 V2000
    5.6634  -19.8003   22.8106 C   0  0  0  0  0  0  0  0  0  0  0  0
    6.4926  -18.5421   22.6826 C   0  0  2  0  0  0  0  0  0  0  0  0
    5.9863  -17.5047   23.6800 C   0  0  0  0  0  0  0  0  0  0  0  0
    6.4016  -17.9334   21.3111 C   0  0  2  0  0  0  0  0  0  0  0  0
    6.6271  -18.8671   20.2558 N   0  0  0  0  0  0  0  0  0  0  0  0
    7.4045  -16.8435   21.2172 C   0  0  0  0  0  0  0  0  0  0  0  0
    8.6566  -17.1054   21.1801 O   0  0  0  0  0  0  0  0  0  0  0  0
    7.3378  -13.1548   20.5348 C   0  0  0  0  0  0  0  0  0  0  0  0
    7.9281  -14.4190   21.1202 C   0  0  2  0  0  0  0  0  0  0  0  0
    6.9792  -15.4915   21.1675 N   0  0  0  0  0  0  0  0  0  0  0  0
    8.4741  -14.0680   22.4457 C   0  0  0  0  0  0  0  0  0  0  0  0
    9.4935  -13.3533   22.5018 O   0  0  0  0  0  0  0  0  0  0  0  0
    7.8749  -14.5181   23.6396 N   0  0  0  0  0  0  0  0  0  0  0  0
    8.3915  -14.2166   24.9576 C   0  0  1  0  0  0  0  0  0  0  0  0
    7.3652  -13.4725   25.7883 C   0  0  0  0  0  0  0  0  0  0  0  0
    5.7611  -14.2780   25.7387 S   0  0  0  0  0  0  0  0  0  0  0  0
    8.7629  -15.4836   25.6264 C   0  0  0  0  0  0  0  0  0  0  0  0
    9.3570  -15.5104   26.7351 O   0  0  0  0  0  0  0  0  0  0  0  0
    8.4612  -16.7028   25.0394 O   0  0  0  0  0  0  0  0  0  0  0  0
  2  1  1  6
  2  4  1  0
  3  2  1  0
  4  6  1  0
  4  5  1  6
  6  7  2  0
  9  8  1  1
 10  9  1  0
 10  6  1  0
 11 12  2  0
 11  9  1  0
 13 11  1  0
 14 13  1  0
 14 15  1  1
 16 15  1  0
 17 19  1  0
 17 14  1  0
 18 17  2  0
M  END
$$$$
