VAC.pdb
     RDKit          3D

 19 18  0  0  1  0  0  0  0  0999 V2000
    7.5812  -12.1854   26.7441 C   0  0  0  0  0  0  0  0  0  0  0  0
    6.9802  -12.3085   25.3618 C   0  0  2  0  0  0  0  0  0  0  0  0
    5.9561  -11.1959   25.1598 C   0  0  0  0  0  0  0  0  0  0  0  0
    6.2709  -13.6185   25.1602 C   0  0  2  0  0  0  0  0  0  0  0  0
    5.2878  -13.8949   26.1570 N   0  0  0  0  0  0  0  0  0  0  0  0
    7.2842  -14.7029   25.1643 C   0  0  0  0  0  0  0  0  0  0  0  0
    7.5523  -15.3462   26.2376 O   0  0  0  0  0  0  0  0  0  0  0  0
    9.4889  -16.3302   22.5514 C   0  0  0  0  0  0  0  0  0  0  0  0
    8.9260  -16.1032   23.9375 C   0  0  2  0  0  0  0  0  0  0  0  0
    7.9689  -15.0373   23.9683 N   0  0  0  0  0  0  0  0  0  0  0  0
   10.0732  -15.8797   24.8389 C   0  0  0  0  0  0  0  0  0  0  0  0
   10.7015  -14.8070   24.7516 O   0  0  0  0  0  0  0  0  0  0  0  0
   10.4714  -16.8426   25.7883 N   0  0  0  0  0  0  0  0  0  0  0  0
   11.0509  -16.5092   27.0719 C   0  0  1  0  0  0  0  0  0  0  0  0
   10.1353  -15.5965   27.8629 C   0  0  0  0  0  0  0  0  0  0  0  0
   10.9781  -14.8710   29.2728 S   0  0  0  0  0  0  0  0  0  0  0  0
   11.2946  -17.7597   27.8252 C   0  0  0  0  0  0  0  0  0  0  0  0
   10.5872  -18.7883   27.6687 O   0  0  0  0  0  0  0  0  0  0  0  0
   12.3300  -17.8364   28.7439 O   0  0  0  0  0  0  0  0  0  0  0  0
  2  1  1  1
  2  4  1  0
  3  2  1  0
  4  6  1  0
  4  5  1  1
  6  7  2  0
  9  8  1  6
 10  9  1  0
 10  6  1  0
 11 12  2  0
 11  9  1  0
 13 11  1  0
 14 13  1  0
 14 15  1  1
 16 15  1  0
 17 19  1  0
 17 14  1  0
 18 17  2  0
M  END
$$$$
