VAC.pdb
     RDKit          3D

 19 18  0  0  1  0  0  0  0  0999 V2000
    7.2915  -14.1347   21.7543 C   0  0  0  0  0  0  0  0  0  0  0  0
    7.8712  -15.1508   20.7958 C   0  0  2  0  0  0  0  0  0  0  0  0
    7.8142  -14.5913   19.3776 C   0  0  0  0  0  0  0  0  0  0  0  0
    7.1072  -16.4454   20.8026 C   0  0  2  0  0  0  0  0  0  0  0  0
    5.7414  -16.3046   20.4138 N   0  0  0  0  0  0  0  0  0  0  0  0
    7.1656  -17.0141   22.1722 C   0  0  0  0  0  0  0  0  0  0  0  0
    6.2489  -16.7593   23.0281 O   0  0  0  0  0  0  0  0  0  0  0  0
    8.7741  -19.8921   23.7904 C   0  0  0  0  0  0  0  0  0  0  0  0
    8.2999  -18.4563   23.8441 C   0  0  2  0  0  0  0  0  0  0  0  0
    8.2472  -17.8516   22.5461 N   0  0  0  0  0  0  0  0  0  0  0  0
    9.1883  -17.7421   24.7817 C   0  0  0  0  0  0  0  0  0  0  0  0
   10.4161  -17.9439   24.7125 O   0  0  0  0  0  0  0  0  0  0  0  0
    8.6852  -16.8446   25.7453 N   0  0  0  0  0  0  0  0  0  0  0  0
    9.5206  -16.1284   26.6854 C   0  0  1  0  0  0  0  0  0  0  0  0
    8.7543  -15.0001   27.3462 C   0  0  0  0  0  0  0  0  0  0  0  0
    7.6526  -14.1797   26.1896 S   0  0  0  0  0  0  0  0  0  0  0  0
   10.0088  -17.0781   27.7103 C   0  0  0  0  0  0  0  0  0  0  0  0
    9.6116  -18.2706   27.7663 O   0  0  0  0  0  0  0  0  0  0  0  0
   10.9366  -16.6740   28.6579 O   0  0  0  0  0  0  0  0  0  0  0  0
  2  1  1  1
  2  4  1  0
  3  2  1  0
  4  6  1  0
  4  5  1  1
  6  7  2  0
  9  8  1  6
 10  9  1  0
 10  6  1  0
 11 12  2  0
 11  9  1  0
 13 11  1  0
 14 13  1  0
 14 15  1  1
 16 15  1  0
 17 19  1  0
 17 14  1  0
 18 17  2  0
M  END
$$$$
