VAC.pdb
     RDKit          3D

 19 18  0  0  1  0  0  0  0  0999 V2000
    7.4901  -12.8662   21.4494 C   0  0  0  0  0  0  0  0  0  0  0  0
    8.3565  -13.6390   20.4801 C   0  0  2  0  0  0  0  0  0  0  0  0
    8.1081  -13.1239   19.0657 C   0  0  0  0  0  0  0  0  0  0  0  0
    8.0501  -15.1107   20.4861 C   0  0  2  0  0  0  0  0  0  0  0  0
    6.7100  -15.4166   20.1030 N   0  0  0  0  0  0  0  0  0  0  0  0
    8.2949  -15.6324   21.8537 C   0  0  0  0  0  0  0  0  0  0  0  0
    7.4068  -15.5185   22.7681 O   0  0  0  0  0  0  0  0  0  0  0  0
   10.8049  -17.9652   23.3720 C   0  0  0  0  0  0  0  0  0  0  0  0
    9.7378  -16.8941   23.4310 C   0  0  2  0  0  0  0  0  0  0  0  0
    9.5256  -16.2667   22.1604 N   0  0  0  0  0  0  0  0  0  0  0  0
   10.1361  -15.9443   24.4882 C   0  0  0  0  0  0  0  0  0  0  0  0
   10.7118  -14.8897   24.1578 O   0  0  0  0  0  0  0  0  0  0  0  0
    9.8829  -16.1998   25.8512 N   0  0  0  0  0  0  0  0  0  0  0  0
   10.3005  -15.3197   26.9216 C   0  0  1  0  0  0  0  0  0  0  0  0
    9.2053  -14.3335   27.2752 C   0  0  0  0  0  0  0  0  0  0  0  0
    9.6916  -13.2595   28.6296 S   0  0  0  0  0  0  0  0  0  0  0  0
   10.6473  -16.1382   28.1049 C   0  0  0  0  0  0  0  0  0  0  0  0
   11.5018  -15.7692   28.9514 O   0  0  0  0  0  0  0  0  0  0  0  0
   10.0287  -17.3601   28.3201 O   0  0  0  0  0  0  0  0  0  0  0  0
  2  1  1  1
  2  4  1  0
  3  2  1  0
  4  6  1  0
  4  5  1  1
  6  7  2  0
  9  8  1  6
 10  9  1  0
 10  6  1  0
 11 12  2  0
 11  9  1  0
 13 11  1  0
 14 13  1  0
 14 15  1  1
 16 15  1  0
 17 19  1  0
 17 14  1  0
 18 17  2  0
M  END
$$$$
