VAC.pdb
     RDKit          3D

 19 18  0  0  1  0  0  0  0  0999 V2000
    7.7859  -12.2823   18.0762 C   0  0  0  0  0  0  0  0  0  0  0  0
    8.3058  -13.2988   19.0680 C   0  0  2  0  0  0  0  0  0  0  0  0
    9.5819  -12.7643   19.7109 C   0  0  0  0  0  0  0  0  0  0  0  0
    8.6421  -14.6122   18.4187 C   0  0  2  0  0  0  0  0  0  0  0  0
    7.5692  -15.1637   17.6563 N   0  0  0  0  0  0  0  0  0  0  0  0
    9.0257  -15.5735   19.4824 C   0  0  0  0  0  0  0  0  0  0  0  0
    8.1550  -16.0233   20.3054 O   0  0  0  0  0  0  0  0  0  0  0  0
   12.0457  -17.6810   20.2105 C   0  0  0  0  0  0  0  0  0  0  0  0
   10.7569  -16.9773   20.5752 C   0  0  2  0  0  0  0  0  0  0  0  0
   10.3718  -16.0047   19.5958 N   0  0  0  0  0  0  0  0  0  0  0  0
   10.9438  -16.4026   21.9218 C   0  0  0  0  0  0  0  0  0  0  0  0
   11.7541  -15.4667   22.0647 O   0  0  0  0  0  0  0  0  0  0  0  0
   10.2335  -16.8833   23.0405 N   0  0  0  0  0  0  0  0  0  0  0  0
   10.3774  -16.3396   24.3741 C   0  0  1  0  0  0  0  0  0  0  0  0
    9.0273  -16.1646   25.0401 C   0  0  0  0  0  0  0  0  0  0  0  0
    7.9715  -15.0442   24.1157 S   0  0  0  0  0  0  0  0  0  0  0  0
   11.2227  -17.2539   25.1740 C   0  0  0  0  0  0  0  0  0  0  0  0
   11.5679  -18.3894   24.7563 O   0  0  0  0  0  0  0  0  0  0  0  0
   11.6682  -16.8790   26.4322 O   0  0  0  0  0  0  0  0  0  0  0  0
  2  1  1  6
  2  4  1  0
  3  2  1  0
  4  6  1  0
  4  5  1  1
  6  7  2  0
  9  8  1  6
 10  9  1  0
 10  6  1  0
 11 12  2  0
 11  9  1  0
 13 11  1  0
 14 13  1  0
 14 15  1  1
 16 15  1  0
 17 19  1  0
 17 14  1  0
 18 17  2  0
M  END
$$$$
