VAC.pdb
     RDKit          3D

 19 18  0  0  1  0  0  0  0  0999 V2000
    7.8708  -12.4088   17.8021 C   0  0  0  0  0  0  0  0  0  0  0  0
    8.0861  -13.3589   18.9588 C   0  0  2  0  0  0  0  0  0  0  0  0
    9.1808  -12.8046   19.8655 C   0  0  0  0  0  0  0  0  0  0  0  0
    8.5225  -14.7240   18.5050 C   0  0  2  0  0  0  0  0  0  0  0  0
    7.6531  -15.3088   17.5362 N   0  0  0  0  0  0  0  0  0  0  0  0
    8.5913  -15.6105   19.6932 C   0  0  0  0  0  0  0  0  0  0  0  0
    7.5443  -15.8645   20.3838 O   0  0  0  0  0  0  0  0  0  0  0  0
   10.9829  -18.1570   20.9592 C   0  0  0  0  0  0  0  0  0  0  0  0
    9.9072  -17.1134   21.1668 C   0  0  2  0  0  0  0  0  0  0  0  0
    9.8288  -16.1881   20.0756 N   0  0  0  0  0  0  0  0  0  0  0  0
   10.1812  -16.4615   22.4623 C   0  0  0  0  0  0  0  0  0  0  0  0
   11.1166  -15.6410   22.5322 O   0  0  0  0  0  0  0  0  0  0  0  0
    9.4165  -16.7426   23.6127 N   0  0  0  0  0  0  0  0  0  0  0  0
    9.6033  -16.0720   24.8816 C   0  0  1  0  0  0  0  0  0  0  0  0
    8.2795  -15.8690   25.5911 C   0  0  0  0  0  0  0  0  0  0  0  0
    7.2440  -14.6773   24.7356 S   0  0  0  0  0  0  0  0  0  0  0  0
   10.5099  -16.8852   25.7226 C   0  0  0  0  0  0  0  0  0  0  0  0
   10.8722  -18.0447   25.3951 O   0  0  0  0  0  0  0  0  0  0  0  0
   10.9965  -16.3836   26.9200 O   0  0  0  0  0  0  0  0  0  0  0  0
  2  1  1  6
  2  4  1  0
  3  2  1  0
  4  6  1  0
  4  5  1  6
  6  7  2  0
  9  8  1  6
 10  9  1  0
 10  6  1  0
 11 12  2  0
 11  9  1  0
 13 11  1  0
 14 13  1  0
 14 15  1  1
 16 15  1  0
 17 19  1  0
 17 14  1  0
 18 17  2  0
M  END
$$$$
