VAC.pdb
     RDKit          3D

 19 18  0  0  1  0  0  0  0  0999 V2000
    4.8243  -17.8596   22.9449 C   0  0  0  0  0  0  0  0  0  0  0  0
    5.6069  -18.9061   22.1836 C   0  0  2  0  0  0  0  0  0  0  0  0
    6.8113  -19.3351   23.0160 C   0  0  0  0  0  0  0  0  0  0  0  0
    6.1251  -18.3905   20.8701 C   0  0  2  0  0  0  0  0  0  0  0  0
    6.7943  -19.3816   20.0914 N   0  0  0  0  0  0  0  0  0  0  0  0
    7.0637  -17.2742   21.1449 C   0  0  0  0  0  0  0  0  0  0  0  0
    8.2899  -17.5032   21.4307 O   0  0  0  0  0  0  0  0  0  0  0  0
    6.8699  -13.5005   21.0803 C   0  0  0  0  0  0  0  0  0  0  0  0
    7.4648  -14.8430   21.4452 C   0  0  2  0  0  0  0  0  0  0  0  0
    6.6048  -15.9334   21.0924 N   0  0  0  0  0  0  0  0  0  0  0  0
    7.7837  -14.7977   22.8856 C   0  0  0  0  0  0  0  0  0  0  0  0
    7.0242  -14.1670   23.6461 O   0  0  0  0  0  0  0  0  0  0  0  0
    8.9175  -15.4454   23.4168 N   0  0  0  0  0  0  0  0  0  0  0  0
    9.2860  -15.3951   24.8156 C   0  0  1  0  0  0  0  0  0  0  0  0
    8.2280  -16.0485   25.6820 C   0  0  0  0  0  0  0  0  0  0  0  0
    8.1987  -17.8305   25.4631 S   0  0  0  0  0  0  0  0  0  0  0  0
   10.5834  -16.0849   24.9927 C   0  0  0  0  0  0  0  0  0  0  0  0
   11.1797  -16.1232   26.0999 O   0  0  0  0  0  0  0  0  0  0  0  0
   11.1925  -16.7221   23.9225 O   0  0  0  0  0  0  0  0  0  0  0  0
  2  1  1  1
  2  4  1  0
  3  2  1  0
  4  6  1  0
  4  5  1  1
  6  7  2  0
  9  8  1  1
 10  9  1  0
 10  6  1  0
 11 12  2  0
 11  9  1  0
 13 11  1  0
 14 13  1  0
 14 15  1  1
 16 15  1  0
 17 19  1  0
 17 14  1  0
 18 17  2  0
M  END
$$$$
