VAC.pdb
     RDKit          3D

 19 18  0  0  1  0  0  0  0  0999 V2000
    7.5086  -12.6233   20.2637 C   0  0  0  0  0  0  0  0  0  0  0  0
    8.7456  -13.4487   19.9881 C   0  0  2  0  0  0  0  0  0  0  0  0
    9.2807  -13.1019   18.6022 C   0  0  0  0  0  0  0  0  0  0  0  0
    8.4649  -14.9254   20.0084 C   0  0  2  0  0  0  0  0  0  0  0  0
    7.6095  -15.3587   18.9515 N   0  0  0  0  0  0  0  0  0  0  0  0
    7.8370  -15.2629   21.3101 C   0  0  0  0  0  0  0  0  0  0  0  0
    6.5788  -15.1135   21.4900 O   0  0  0  0  0  0  0  0  0  0  0  0
    8.4296  -17.4040   24.1733 C   0  0  0  0  0  0  0  0  0  0  0  0
    8.0639  -16.0282   23.6605 C   0  0  2  0  0  0  0  0  0  0  0  0
    8.6335  -15.7578   22.3738 N   0  0  0  0  0  0  0  0  0  0  0  0
    8.4761  -15.0579   24.6934 C   0  0  0  0  0  0  0  0  0  0  0  0
    9.6770  -14.7324   24.7621 O   0  0  0  0  0  0  0  0  0  0  0  0
    7.5513  -14.4953   25.5964 N   0  0  0  0  0  0  0  0  0  0  0  0
    7.9144  -13.5449   26.6259 C   0  0  1  0  0  0  0  0  0  0  0  0
    6.6927  -12.8206   27.1547 C   0  0  0  0  0  0  0  0  0  0  0  0
    5.6895  -12.1525   25.8236 S   0  0  0  0  0  0  0  0  0  0  0  0
    8.5910  -14.2678   27.7259 C   0  0  0  0  0  0  0  0  0  0  0  0
    8.5750  -15.5225   27.8167 O   0  0  0  0  0  0  0  0  0  0  0  0
    9.2763  -13.5699   28.7086 O   0  0  0  0  0  0  0  0  0  0  0  0
  2  1  1  6
  2  4  1  0
  3  2  1  0
  4  6  1  0
  4  5  1  6
  6  7  2  0
  9  8  1  1
 10  9  1  0
 10  6  1  0
 11 12  2  0
 11  9  1  0
 13 11  1  0
 14 13  1  0
 14 15  1  1
 16 15  1  0
 17 19  1  0
 17 14  1  0
 18 17  2  0
M  END
$$$$
