QCL.pdb
     RDKit          3D

 24 23  0  0  1  0  0  0  0  0999 V2000
   29.1107  -21.4956  -14.7980 N   0  0  0  0  0  0  0  0  0  0  0  0
   28.9942  -20.5019  -15.8029 C   0  0  0  0  0  0  0  0  0  0  0  0
   29.4284  -20.7443  -16.9401 O   0  0  0  0  0  0  0  0  0  0  0  0
   28.3652  -19.2194  -15.4818 C   0  0  0  0  0  0  0  0  0  0  0  0
   27.8170  -19.0738  -14.1136 C   0  0  0  0  0  0  0  0  0  0  0  0
   26.6828  -19.9512  -13.7294 C   0  0  2  0  0  0  0  0  0  0  0  0
   25.6410  -20.0880  -14.7092 N   0  0  0  0  0  0  0  0  0  0  0  0
   26.1099  -19.5753  -12.3917 C   0  0  0  0  0  0  0  0  0  0  0  0
   26.1650  -18.3672  -12.0414 O   0  0  0  0  0  0  0  0  0  0  0  0
   25.5293  -20.5381  -11.5531 N   0  0  0  0  0  0  0  0  0  0  0  0
   24.9274  -20.1807  -10.2703 C   0  0  1  0  0  0  0  0  0  0  0  0
   23.6271  -20.9617  -10.1358 C   0  0  0  0  0  0  0  0  0  0  0  0
   23.0336  -20.7107   -8.4239 S   0  0  0  0  0  0  0  0  0  0  0  0
   25.8396  -20.6224   -9.1780 C   0  0  0  0  0  0  0  0  0  0  0  0
   26.2615  -21.8282   -9.1516 O   0  0  0  0  0  0  0  0  0  0  0  0
   29.9128  -20.2731   -5.3108 C   0  0  0  0  0  0  0  0  0  0  0  0
   28.6190  -19.5385   -5.1386 C   0  0  1  0  0  0  0  0  0  0  0  0
   28.8209  -18.3861   -4.1747 C   0  0  0  0  0  0  0  0  0  0  0  0
   27.8936  -19.1716   -6.3656 C   0  0  0  0  0  0  0  0  0  0  0  0
   26.9825  -20.1643   -6.9828 C   0  0  2  0  0  0  0  0  0  0  0  0
   26.2677  -19.7437   -8.1462 N   0  0  0  0  0  0  0  0  0  0  0  0
   26.1150  -20.8574   -5.9956 C   0  0  0  0  0  0  0  0  0  0  0  0
   26.5475  -22.0198   -5.3910 O   0  0  0  0  0  0  0  0  0  0  0  0
   25.0113  -20.3872   -5.7231 O   0  0  0  0  0  0  0  0  0  0  0  0
  1  2  1  0
  2  4  1  0
  3  2  2  0
  4  5  1  0
  6  7  1  6
  6  5  1  0
  8  6  1  0
  8  9  2  0
 10  8  1  0
 11 10  1  0
 11 14  1  0
 12 13  1  0
 11 12  1  1
 14 15  2  0
 14 21  1  0
 17 16  1  6
 17 18  1  0
 19 17  1  0
 20 19  1  1
 21 20  1  0
 22 23  1  0
 22 20  1  0
 24 22  2  0
M  END
$$$$
