QCL.pdb
     RDKit          3D

 24 23  0  0  1  0  0  0  0  0999 V2000
   29.9245  -16.3641  -18.9164 N   0  0  0  0  0  0  0  0  0  0  0  0
   29.3056  -16.2000  -20.1816 C   0  0  0  0  0  0  0  0  0  0  0  0
   30.0083  -16.2436  -21.2038 O   0  0  0  0  0  0  0  0  0  0  0  0
   27.8590  -15.9870  -20.2565 C   0  0  0  0  0  0  0  0  0  0  0  0
   27.1093  -16.0720  -18.9819 C   0  0  0  0  0  0  0  0  0  0  0  0
   27.0730  -17.3853  -18.2908 C   0  0  2  0  0  0  0  0  0  0  0  0
   26.9190  -18.5331  -19.1412 N   0  0  0  0  0  0  0  0  0  0  0  0
   26.0624  -17.4071  -17.1787 C   0  0  0  0  0  0  0  0  0  0  0  0
   25.3669  -16.3748  -16.9892 O   0  0  0  0  0  0  0  0  0  0  0  0
   25.8941  -18.5418  -16.3715 N   0  0  0  0  0  0  0  0  0  0  0  0
   24.9361  -18.5677  -15.2682 C   0  0  1  0  0  0  0  0  0  0  0  0
   23.5705  -18.9086  -15.8492 C   0  0  0  0  0  0  0  0  0  0  0  0
   23.7131  -20.5724  -16.5957 S   0  0  0  0  0  0  0  0  0  0  0  0
   25.3193  -19.6617  -14.3319 C   0  0  0  0  0  0  0  0  0  0  0  0
   25.8078  -20.7492  -14.7918 O   0  0  0  0  0  0  0  0  0  0  0  0
   29.1216  -21.1627  -10.3246 C   0  0  0  0  0  0  0  0  0  0  0  0
   27.6377  -21.1940  -10.5250 C   0  0  1  0  0  0  0  0  0  0  0  0
   26.9472  -21.0621   -9.1820 C   0  0  0  0  0  0  0  0  0  0  0  0
   27.0883  -20.3136  -11.5687 C   0  0  0  0  0  0  0  0  0  0  0  0
   25.6753  -20.4865  -11.9807 C   0  0  2  0  0  0  0  0  0  0  0  0
   25.1615  -19.5446  -12.9242 N   0  0  0  0  0  0  0  0  0  0  0  0
   24.7545  -20.7134  -10.8369 C   0  0  0  0  0  0  0  0  0  0  0  0
   24.8858  -21.8442  -10.0574 O   0  0  0  0  0  0  0  0  0  0  0  0
   23.8769  -19.8867  -10.5920 O   0  0  0  0  0  0  0  0  0  0  0  0
  1  2  1  0
  2  4  1  0
  3  2  2  0
  4  5  1  0
  6  7  1  6
  6  5  1  0
  8  6  1  0
  8  9  2  0
 10  8  1  0
 11 10  1  0
 11 14  1  0
 12 13  1  0
 11 12  1  6
 14 15  2  0
 14 21  1  0
 17 16  1  1
 17 18  1  0
 19 17  1  0
 20 19  1  1
 21 20  1  0
 22 23  1  0
 22 20  1  0
 24 22  2  0
M  END
$$$$
