QCL.pdb
     RDKit          3D

 24 23  0  0  1  0  0  0  0  0999 V2000
   14.4986  -10.9903  -13.4559 N   0  0  0  0  0  0  0  0  0  0  0  0
   13.5959  -11.5367  -14.4032 C   0  0  0  0  0  0  0  0  0  0  0  0
   12.4321  -11.7843  -14.0499 O   0  0  0  0  0  0  0  0  0  0  0  0
   14.0509  -11.7933  -15.7709 C   0  0  0  0  0  0  0  0  0  0  0  0
   15.4971  -11.6111  -16.0338 C   0  0  0  0  0  0  0  0  0  0  0  0
   16.0120  -12.0217  -17.3643 C   0  0  2  0  0  0  0  0  0  0  0  0
   15.8443  -13.4095  -17.6963 N   0  0  0  0  0  0  0  0  0  0  0  0
   17.4374  -11.5929  -17.5717 C   0  0  0  0  0  0  0  0  0  0  0  0
   18.3370  -12.4708  -17.5008 O   0  0  0  0  0  0  0  0  0  0  0  0
   17.7625  -10.2544  -17.8370 N   0  0  0  0  0  0  0  0  0  0  0  0
   19.1403   -9.8281  -18.0725 C   0  0  1  0  0  0  0  0  0  0  0  0
   19.1836   -9.1290  -19.4247 C   0  0  0  0  0  0  0  0  0  0  0  0
   19.0718  -10.4356  -20.6999 S   0  0  0  0  0  0  0  0  0  0  0  0
   19.5134   -8.8298  -17.0310 C   0  0  0  0  0  0  0  0  0  0  0  0
   18.6245   -8.0426  -16.5586 O   0  0  0  0  0  0  0  0  0  0  0  0
   23.3407  -10.0148  -13.0750 C   0  0  0  0  0  0  0  0  0  0  0  0
   22.1337   -9.4744  -13.7781 C   0  0  1  0  0  0  0  0  0  0  0  0
   20.9847   -9.3711  -12.7947 C   0  0  0  0  0  0  0  0  0  0  0  0
   22.3267   -8.2693  -14.6008 C   0  0  0  0  0  0  0  0  0  0  0  0
   21.2248   -7.8220  -15.4851 C   0  0  2  0  0  0  0  0  0  0  0  0
   20.8392   -8.7142  -16.5322 N   0  0  0  0  0  0  0  0  0  0  0  0
   21.3811   -6.4207  -15.9537 C   0  0  0  0  0  0  0  0  0  0  0  0
   21.3617   -5.3818  -15.0460 O   0  0  0  0  0  0  0  0  0  0  0  0
   21.5276   -6.1958  -17.1544 O   0  0  0  0  0  0  0  0  0  0  0  0
  1  2  1  0
  2  4  1  0
  3  2  2  0
  4  5  1  0
  6  7  1  1
  6  5  1  0
  8  6  1  0
  8  9  2  0
 10  8  1  0
 11 10  1  0
 11 14  1  0
 12 13  1  0
 11 12  1  6
 14 15  2  0
 14 21  1  0
 17 16  1  1
 17 18  1  0
 19 17  1  0
 20 19  1  6
 21 20  1  0
 22 23  1  0
 22 20  1  0
 24 22  2  0
M  END
$$$$
