QCL.pdb
     RDKit          3D

 24 23  0  0  1  0  0  0  0  0999 V2000
   27.0339  -20.4245  -18.7825 N   0  0  0  0  0  0  0  0  0  0  0  0
   28.2444  -21.1549  -18.6727 C   0  0  0  0  0  0  0  0  0  0  0  0
   28.5600  -21.9343  -19.5856 O   0  0  0  0  0  0  0  0  0  0  0  0
   29.0936  -20.9738  -17.4940 C   0  0  0  0  0  0  0  0  0  0  0  0
   28.4702  -20.3167  -16.3221 C   0  0  0  0  0  0  0  0  0  0  0  0
   27.8214  -21.1868  -15.3093 C   0  0  2  0  0  0  0  0  0  0  0  0
   27.0553  -22.2851  -15.8300 N   0  0  0  0  0  0  0  0  0  0  0  0
   27.0118  -20.3931  -14.3227 C   0  0  0  0  0  0  0  0  0  0  0  0
   26.5594  -19.2767  -14.6888 O   0  0  0  0  0  0  0  0  0  0  0  0
   26.7639  -20.8769  -13.0296 N   0  0  0  0  0  0  0  0  0  0  0  0
   25.6350  -20.4020  -12.2323 C   0  0  1  0  0  0  0  0  0  0  0  0
   24.3567  -20.8630  -12.9196 C   0  0  0  0  0  0  0  0  0  0  0  0
   22.9608  -20.2124  -11.9327 S   0  0  0  0  0  0  0  0  0  0  0  0
   25.6924  -21.0523  -10.8929 C   0  0  0  0  0  0  0  0  0  0  0  0
   25.5793  -22.3215  -10.7978 O   0  0  0  0  0  0  0  0  0  0  0  0
   28.2628  -18.5388   -6.6089 C   0  0  0  0  0  0  0  0  0  0  0  0
   27.7922  -19.6506   -7.4953 C   0  0  1  0  0  0  0  0  0  0  0  0
   28.8345  -20.7510   -7.5161 C   0  0  0  0  0  0  0  0  0  0  0  0
   26.4176  -20.1329   -7.2849 C   0  0  0  0  0  0  0  0  0  0  0  0
   25.7369  -20.8576   -8.3839 C   0  0  2  0  0  0  0  0  0  0  0  0
   25.8708  -20.3074   -9.6956 N   0  0  0  0  0  0  0  0  0  0  0  0
   24.3365  -21.2333   -8.0594 C   0  0  0  0  0  0  0  0  0  0  0  0
   24.0697  -22.0250   -6.9614 O   0  0  0  0  0  0  0  0  0  0  0  0
   23.4200  -20.8335   -8.7763 O   0  0  0  0  0  0  0  0  0  0  0  0
  1  2  1  0
  2  4  1  0
  3  2  2  0
  4  5  1  0
  6  7  1  6
  6  5  1  0
  8  6  1  0
  8  9  2  0
 10  8  1  0
 11 10  1  0
 11 14  1  0
 12 13  1  0
 11 12  1  6
 14 15  2  0
 14 21  1  0
 17 16  1  1
 17 18  1  0
 19 17  1  0
 20 19  1  1
 21 20  1  0
 22 23  1  0
 22 20  1  0
 24 22  2  0
M  END
$$$$
