QCL.pdb
     RDKit          3D

 24 23  0  0  1  0  0  0  0  0999 V2000
   16.9988   -9.8578  -19.6300 N   0  0  0  0  0  0  0  0  0  0  0  0
   16.7029   -9.1923  -18.4133 C   0  0  0  0  0  0  0  0  0  0  0  0
   16.3784   -7.9948  -18.4476 O   0  0  0  0  0  0  0  0  0  0  0  0
   16.7825   -9.9272  -17.1495 C   0  0  0  0  0  0  0  0  0  0  0  0
   17.5053   -9.2629  -16.0405 C   0  0  0  0  0  0  0  0  0  0  0  0
   18.9617   -9.5215  -15.9153 C   0  0  2  0  0  0  0  0  0  0  0  0
   19.3344  -10.8903  -15.6882 N   0  0  0  0  0  0  0  0  0  0  0  0
   19.6075   -8.6185  -14.9023 C   0  0  0  0  0  0  0  0  0  0  0  0
   19.7387   -9.0459  -13.7253 O   0  0  0  0  0  0  0  0  0  0  0  0
   20.0535   -7.3354  -15.2519 N   0  0  0  0  0  0  0  0  0  0  0  0
   20.7434   -6.4721  -14.2957 C   0  0  1  0  0  0  0  0  0  0  0  0
   22.1162   -7.0765  -14.0334 C   0  0  0  0  0  0  0  0  0  0  0  0
   22.8570   -7.4366  -15.6666 S   0  0  0  0  0  0  0  0  0  0  0  0
   20.9460   -5.1355  -14.9225 C   0  0  0  0  0  0  0  0  0  0  0  0
   21.2700   -5.0550  -16.1560 O   0  0  0  0  0  0  0  0  0  0  0  0
   20.3556   -0.5226  -17.1819 C   0  0  0  0  0  0  0  0  0  0  0  0
   19.6986   -0.6532  -15.8423 C   0  0  1  0  0  0  0  0  0  0  0  0
   18.3617    0.0610  -15.8675 C   0  0  0  0  0  0  0  0  0  0  0  0
   19.6447   -2.0022  -15.2562 C   0  0  0  0  0  0  0  0  0  0  0  0
   20.9003   -2.6234  -14.7724 C   0  0  2  0  0  0  0  0  0  0  0  0
   20.7913   -3.9251  -14.1937 N   0  0  0  0  0  0  0  0  0  0  0  0
   21.7350   -1.7019  -13.9591 C   0  0  0  0  0  0  0  0  0  0  0  0
   22.3913   -0.6489  -14.5626 O   0  0  0  0  0  0  0  0  0  0  0  0
   21.8354   -1.8855  -12.7467 O   0  0  0  0  0  0  0  0  0  0  0  0
  1  2  1  0
  2  4  1  0
  3  2  2  0
  4  5  1  0
  6  7  1  1
  6  5  1  0
  8  6  1  0
  8  9  2  0
 10  8  1  0
 11 10  1  0
 11 14  1  0
 12 13  1  0
 11 12  1  6
 14 15  2  0
 14 21  1  0
 17 16  1  6
 17 18  1  0
 19 17  1  0
 20 19  1  1
 21 20  1  0
 22 23  1  0
 22 20  1  0
 24 22  2  0
M  END
$$$$
