QCL.pdb
     RDKit          3D

 24 23  0  0  1  0  0  0  0  0999 V2000
   29.8735  -23.0925  -16.9940 N   0  0  0  0  0  0  0  0  0  0  0  0
   29.4198  -21.8485  -17.5012 C   0  0  0  0  0  0  0  0  0  0  0  0
   30.2445  -20.9400  -17.6888 O   0  0  0  0  0  0  0  0  0  0  0  0
   27.9975  -21.6628  -17.7946 C   0  0  0  0  0  0  0  0  0  0  0  0
   27.2086  -20.9025  -16.7981 C   0  0  0  0  0  0  0  0  0  0  0  0
   26.6977  -21.6409  -15.6159 C   0  0  2  0  0  0  0  0  0  0  0  0
   25.7400  -22.6754  -15.8933 N   0  0  0  0  0  0  0  0  0  0  0  0
   26.1848  -20.7117  -14.5518 C   0  0  0  0  0  0  0  0  0  0  0  0
   25.9223  -19.5243  -14.8777 O   0  0  0  0  0  0  0  0  0  0  0  0
   26.0016  -21.1490  -13.2317 N   0  0  0  0  0  0  0  0  0  0  0  0
   25.4285  -20.2814  -12.2049 C   0  0  1  0  0  0  0  0  0  0  0  0
   23.9520  -20.0955  -12.5275 C   0  0  0  0  0  0  0  0  0  0  0  0
   23.2143  -21.7672  -12.6125 S   0  0  0  0  0  0  0  0  0  0  0  0
   25.5241  -20.9748  -10.8894 C   0  0  0  0  0  0  0  0  0  0  0  0
   25.5207  -22.2518  -10.8430 O   0  0  0  0  0  0  0  0  0  0  0  0
   28.2132  -18.6153   -6.6719 C   0  0  0  0  0  0  0  0  0  0  0  0
   27.6926  -19.6896   -7.5764 C   0  0  1  0  0  0  0  0  0  0  0  0
   28.7429  -20.7724   -7.7256 C   0  0  0  0  0  0  0  0  0  0  0  0
   26.3421  -20.2016   -7.2928 C   0  0  0  0  0  0  0  0  0  0  0  0
   25.5924  -20.8819   -8.3751 C   0  0  2  0  0  0  0  0  0  0  0  0
   25.6204  -20.2634   -9.6628 N   0  0  0  0  0  0  0  0  0  0  0  0
   24.2256  -21.2995   -7.9688 C   0  0  0  0  0  0  0  0  0  0  0  0
   23.1384  -20.9585   -8.7469 O   0  0  0  0  0  0  0  0  0  0  0  0
   24.0724  -21.9498   -6.9357 O   0  0  0  0  0  0  0  0  0  0  0  0
  1  2  1  0
  2  4  1  0
  3  2  2  0
  4  5  1  0
  6  7  1  6
  6  5  1  0
  8  6  1  0
  8  9  2  0
 10  8  1  0
 11 10  1  0
 11 14  1  0
 12 13  1  0
 11 12  1  6
 14 15  2  0
 14 21  1  0
 17 16  1  1
 17 18  1  0
 19 17  1  0
 20 19  1  1
 21 20  1  0
 22 23  1  0
 22 20  1  0
 24 22  2  0
M  END
$$$$
