QCL.pdb
     RDKit          3D

 24 23  0  0  1  0  0  0  0  0999 V2000
   21.9321  -22.8574  -13.0671 N   0  0  0  0  0  0  0  0  0  0  0  0
   20.8499  -22.9528  -13.9784 C   0  0  0  0  0  0  0  0  0  0  0  0
   20.1793  -23.9969  -14.0069 O   0  0  0  0  0  0  0  0  0  0  0  0
   20.5452  -21.8240  -14.8596 C   0  0  0  0  0  0  0  0  0  0  0  0
   21.4212  -20.6355  -14.7418 C   0  0  0  0  0  0  0  0  0  0  0  0
   21.4948  -19.9628  -13.4205 C   0  0  2  0  0  0  0  0  0  0  0  0
   20.6551  -18.8079  -13.2614 N   0  0  0  0  0  0  0  0  0  0  0  0
   22.9113  -19.6495  -13.0278 C   0  0  0  0  0  0  0  0  0  0  0  0
   23.4851  -18.6848  -13.5980 O   0  0  0  0  0  0  0  0  0  0  0  0
   23.5802  -20.4065  -12.0546 N   0  0  0  0  0  0  0  0  0  0  0  0
   24.9659  -20.1306  -11.6816 C   0  0  1  0  0  0  0  0  0  0  0  0
   25.0761  -20.2772  -10.1699 C   0  0  0  0  0  0  0  0  0  0  0  0
   24.0678  -21.7305   -9.7041 S   0  0  0  0  0  0  0  0  0  0  0  0
   25.8405  -21.1636  -12.3048 C   0  0  0  0  0  0  0  0  0  0  0  0
   25.9906  -22.2969  -11.7339 O   0  0  0  0  0  0  0  0  0  0  0  0
   23.6247  -23.6493  -16.5786 C   0  0  0  0  0  0  0  0  0  0  0  0
   25.0066  -23.3084  -16.1125 C   0  0  1  0  0  0  0  0  0  0  0  0
   25.8810  -23.0069  -17.3135 C   0  0  0  0  0  0  0  0  0  0  0  0
   25.1181  -22.3191  -15.0284 C   0  0  0  0  0  0  0  0  0  0  0  0
   26.4603  -21.8128  -14.6562 C   0  0  2  0  0  0  0  0  0  0  0  0
   26.5267  -20.9377  -13.5288 N   0  0  0  0  0  0  0  0  0  0  0  0
   27.2411  -21.3129  -15.8173 C   0  0  0  0  0  0  0  0  0  0  0  0
   26.9189  -20.1036  -16.3981 O   0  0  0  0  0  0  0  0  0  0  0  0
   28.1744  -21.9848  -16.2546 O   0  0  0  0  0  0  0  0  0  0  0  0
  1  2  1  0
  2  4  1  0
  3  2  2  0
  4  5  1  0
  6  7  1  6
  6  5  1  0
  8  6  1  0
  8  9  2  0
 10  8  1  0
 11 10  1  0
 11 14  1  0
 12 13  1  0
 11 12  1  1
 14 15  2  0
 14 21  1  0
 17 16  1  6
 17 18  1  0
 19 17  1  0
 20 19  1  6
 21 20  1  0
 22 23  1  0
 22 20  1  0
 24 22  2  0
M  END
$$$$
