QCL.pdb
     RDKit          3D

 24 23  0  0  1  0  0  0  0  0999 V2000
   25.4956  -14.5980  -18.7583 N   0  0  0  0  0  0  0  0  0  0  0  0
   24.0996  -14.5084  -18.9906 C   0  0  0  0  0  0  0  0  0  0  0  0
   23.5835  -13.3872  -19.1211 O   0  0  0  0  0  0  0  0  0  0  0  0
   23.3007  -15.7324  -19.0745 C   0  0  0  0  0  0  0  0  0  0  0  0
   23.9964  -17.0013  -18.7588 C   0  0  0  0  0  0  0  0  0  0  0  0
   23.7268  -17.6244  -17.4387 C   0  0  2  0  0  0  0  0  0  0  0  0
   23.4311  -16.7130  -16.3681 N   0  0  0  0  0  0  0  0  0  0  0  0
   24.8127  -18.5828  -17.0376 C   0  0  0  0  0  0  0  0  0  0  0  0
   25.1627  -19.4631  -17.8669 O   0  0  0  0  0  0  0  0  0  0  0  0
   25.4226  -18.5041  -15.7769 N   0  0  0  0  0  0  0  0  0  0  0  0
   26.4370  -19.4655  -15.3500 C   0  0  1  0  0  0  0  0  0  0  0  0
   27.5866  -18.6812  -14.7317 C   0  0  0  0  0  0  0  0  0  0  0  0
   26.8611  -17.6083  -13.4401 S   0  0  0  0  0  0  0  0  0  0  0  0
   25.8531  -20.3322  -14.2878 C   0  0  0  0  0  0  0  0  0  0  0  0
   26.4756  -21.3830  -13.9122 O   0  0  0  0  0  0  0  0  0  0  0  0
   26.0035  -20.5577   -9.4490 C   0  0  0  0  0  0  0  0  0  0  0  0
   25.6836  -20.9057  -10.8702 C   0  0  1  0  0  0  0  0  0  0  0  0
   26.2489  -22.2752  -11.1908 C   0  0  0  0  0  0  0  0  0  0  0  0
   24.2897  -20.7178  -11.3037 C   0  0  0  0  0  0  0  0  0  0  0  0
   23.9545  -20.8995  -12.7359 C   0  0  2  0  0  0  0  0  0  0  0  0
   24.6113  -20.0342  -13.6639 N   0  0  0  0  0  0  0  0  0  0  0  0
   22.4941  -21.0080  -12.9872 C   0  0  0  0  0  0  0  0  0  0  0  0
   21.7195  -21.8459  -12.2116 O   0  0  0  0  0  0  0  0  0  0  0  0
   21.9836  -20.3461  -13.8899 O   0  0  0  0  0  0  0  0  0  0  0  0
  1  2  1  0
  2  4  1  0
  3  2  2  0
  4  5  1  0
  6  7  1  1
  6  5  1  0
  8  6  1  0
  8  9  2  0
 10  8  1  0
 11 10  1  0
 11 14  1  0
 12 13  1  0
 11 12  1  1
 14 15  2  0
 14 21  1  0
 17 16  1  1
 17 18  1  0
 19 17  1  0
 20 19  1  1
 21 20  1  0
 22 23  1  0
 22 20  1  0
 24 22  2  0
M  END
$$$$
