FCG.pdb
     RDKit          3D

 22 22  0  0  1  0  0  0  0  0999 V2000
   18.8197  -25.8882  -14.5571 N   0  0  0  0  0  0  0  0  0  0  0  0
   18.6584  -25.0203  -13.4347 C   0  0  1  0  0  0  0  0  0  0  0  0
   20.0179  -24.7516  -12.8326 C   0  0  0  0  0  0  0  0  0  0  0  0
   20.5032  -26.0207  -12.2473 C   0  0  0  0  0  0  0  0  0  0  0  0
   20.0188  -26.4139  -11.0254 C   0  0  0  0  0  0  0  0  0  0  0  0
   20.4397  -27.5935  -10.4317 C   0  0  0  0  0  0  0  0  0  0  0  0
   21.3547  -28.3662  -11.0907 C   0  0  0  0  0  0  0  0  0  0  0  0
   21.8564  -27.9923  -12.3202 C   0  0  0  0  0  0  0  0  0  0  0  0
   21.4187  -26.7977  -12.9025 C   0  0  0  0  0  0  0  0  0  0  0  0
   17.9443  -23.7619  -13.7782 C   0  0  0  0  0  0  0  0  0  0  0  0
   18.1576  -23.1729  -14.8700 O   0  0  0  0  0  0  0  0  0  0  0  0
   16.9958  -23.1663  -12.9025 N   0  0  0  0  0  0  0  0  0  0  0  0
   16.2269  -22.0025  -13.2155 C   0  0  1  0  0  0  0  0  0  0  0  0
   14.9074  -21.9754  -12.4441 C   0  0  0  0  0  0  0  0  0  0  0  0
   15.2528  -21.9197  -10.6727 S   0  0  0  0  0  0  0  0  0  0  0  0
   16.9780  -20.7426  -12.9974 C   0  0  0  0  0  0  0  0  0  0  0  0
   18.0101  -20.7544  -12.2881 O   0  0  0  0  0  0  0  0  0  0  0  0
   16.5580  -19.5188  -13.5724 N   0  0  0  0  0  0  0  0  0  0  0  0
   16.2080  -19.3857  -14.9745 C   0  0  0  0  0  0  0  0  0  0  0  0
   17.3812  -18.9929  -15.7874 C   0  0  0  0  0  0  0  0  0  0  0  0
   17.5882  -17.6763  -16.1032 O   0  0  0  0  0  0  0  0  0  0  0  0
   18.1977  -19.8696  -16.1941 O   0  0  0  0  0  0  0  0  0  0  0  0
  2  1  1  6
  2 10  1  0
  3  2  1  0
  3  4  1  0
  4  5  2  0
  4  9  1  0
  5  6  1  0
  6  7  2  0
  8  7  1  0
  9  8  2  0
 10 11  2  0
 12 10  1  0
 12 13  1  0
 13 16  1  0
 13 14  1  1
 15 14  1  0
 16 18  1  0
 17 16  2  0
 18 19  1  0
 19 20  1  0
 20 22  2  0
 20 21  1  0
M  END
$$$$
