FCG.pdb
     RDKit          3D

 22 22  0  0  1  0  0  0  0  0999 V2000
   13.2940  -17.4877    2.2882 N   0  0  0  0  0  0  0  0  0  0  0  0
   13.3004  -18.8847    2.5839 C   0  0  1  0  0  0  0  0  0  0  0  0
   12.2843  -19.5701    1.7005 C   0  0  0  0  0  0  0  0  0  0  0  0
   12.0361  -20.9134    2.2684 C   0  0  0  0  0  0  0  0  0  0  0  0
   12.6697  -21.9951    1.7110 C   0  0  0  0  0  0  0  0  0  0  0  0
   12.4729  -23.2755    2.2038 C   0  0  0  0  0  0  0  0  0  0  0  0
   11.6283  -23.4440    3.2654 C   0  0  0  0  0  0  0  0  0  0  0  0
   10.9796  -22.3722    3.8430 C   0  0  0  0  0  0  0  0  0  0  0  0
   11.1919  -21.0876    3.3305 C   0  0  0  0  0  0  0  0  0  0  0  0
   14.6507  -19.4942    2.4538 C   0  0  0  0  0  0  0  0  0  0  0  0
   15.2894  -19.4296    1.3712 O   0  0  0  0  0  0  0  0  0  0  0  0
   15.2821  -20.1729    3.5318 N   0  0  0  0  0  0  0  0  0  0  0  0
   16.5909  -20.7446    3.4705 C   0  0  1  0  0  0  0  0  0  0  0  0
   17.6591  -19.7571    3.9405 C   0  0  0  0  0  0  0  0  0  0  0  0
   17.2778  -19.2211    5.6220 S   0  0  0  0  0  0  0  0  0  0  0  0
   16.6972  -22.0170    4.2246 C   0  0  0  0  0  0  0  0  0  0  0  0
   16.2014  -22.0977    5.3719 O   0  0  0  0  0  0  0  0  0  0  0  0
   17.3478  -23.1506    3.6802 N   0  0  0  0  0  0  0  0  0  0  0  0
   17.5483  -24.3788    4.4271 C   0  0  0  0  0  0  0  0  0  0  0  0
   18.2553  -25.3939    3.6140 C   0  0  0  0  0  0  0  0  0  0  0  0
   18.5499  -26.6195    4.1499 O   0  0  0  0  0  0  0  0  0  0  0  0
   18.5908  -25.1354    2.4218 O   0  0  0  0  0  0  0  0  0  0  0  0
  2  1  1  6
  2 10  1  0
  3  2  1  0
  3  4  1  0
  4  5  2  0
  4  9  1  0
  5  6  1  0
  6  7  2  0
  8  7  1  0
  9  8  2  0
 10 11  2  0
 12 10  1  0
 12 13  1  0
 13 16  1  0
 13 14  1  1
 15 14  1  0
 16 18  1  0
 17 16  2  0
 18 19  1  0
 19 20  1  0
 20 22  2  0
 20 21  1  0
M  END
$$$$
