FCG.pdb
     RDKit          3D

 22 22  0  0  1  0  0  0  0  0999 V2000
   29.2931  -31.2254    8.2516 N   0  0  0  0  0  0  0  0  0  0  0  0
   29.0989  -31.4068    6.8486 C   0  0  1  0  0  0  0  0  0  0  0  0
   29.6816  -30.2167    6.1225 C   0  0  0  0  0  0  0  0  0  0  0  0
   28.8212  -29.0503    6.4194 C   0  0  0  0  0  0  0  0  0  0  0  0
   29.3312  -28.0277    7.1784 C   0  0  0  0  0  0  0  0  0  0  0  0
   28.5686  -26.9120    7.4863 C   0  0  0  0  0  0  0  0  0  0  0  0
   27.2866  -26.8473    7.0161 C   0  0  0  0  0  0  0  0  0  0  0  0
   26.7512  -27.8627    6.2510 C   0  0  0  0  0  0  0  0  0  0  0  0
   27.5377  -28.9805    5.9514 C   0  0  0  0  0  0  0  0  0  0  0  0
   29.6607  -32.6907    6.3510 C   0  0  0  0  0  0  0  0  0  0  0  0
   30.4931  -33.3421    7.0344 O   0  0  0  0  0  0  0  0  0  0  0  0
   29.2915  -33.2420    5.0936 N   0  0  0  0  0  0  0  0  0  0  0  0
   29.6929  -34.5327    4.6283 C   0  0  1  0  0  0  0  0  0  0  0  0
   29.2958  -35.6339    5.6113 C   0  0  0  0  0  0  0  0  0  0  0  0
   30.6470  -35.9091    6.7771 S   0  0  0  0  0  0  0  0  0  0  0  0
   29.1763  -34.8403    3.2728 C   0  0  0  0  0  0  0  0  0  0  0  0
   27.9952  -34.5435    2.9804 O   0  0  0  0  0  0  0  0  0  0  0  0
   29.9864  -35.4643    2.2934 N   0  0  0  0  0  0  0  0  0  0  0  0
   29.4976  -35.8140    0.9724 C   0  0  0  0  0  0  0  0  0  0  0  0
   29.7173  -34.7125    0.0081 C   0  0  0  0  0  0  0  0  0  0  0  0
   29.4470  -34.8996   -1.3216 O   0  0  0  0  0  0  0  0  0  0  0  0
   30.1552  -33.5942    0.4061 O   0  0  0  0  0  0  0  0  0  0  0  0
  2  1  1  1
  2 10  1  0
  3  2  1  0
  3  4  1  0
  4  5  2  0
  4  9  1  0
  5  6  1  0
  6  7  2  0
  8  7  1  0
  9  8  2  0
 10 11  2  0
 12 10  1  0
 12 13  1  0
 13 16  1  0
 13 14  1  1
 15 14  1  0
 16 18  1  0
 17 16  2  0
 18 19  1  0
 19 20  1  0
 20 22  2  0
 20 21  1  0
M  END
$$$$
