FCG.pdb
     RDKit          3D

 22 22  0  0  1  0  0  0  0  0999 V2000
   24.2865  -20.3535  -10.0276 N   0  0  0  0  0  0  0  0  0  0  0  0
   25.6379  -20.2483  -10.4766 C   0  0  1  0  0  0  0  0  0  0  0  0
   26.4742  -21.2639   -9.7334 C   0  0  0  0  0  0  0  0  0  0  0  0
   27.0047  -20.6012   -8.5217 C   0  0  0  0  0  0  0  0  0  0  0  0
   28.3622  -20.4539   -8.3886 C   0  0  0  0  0  0  0  0  0  0  0  0
   28.9123  -19.8407   -7.2739 C   0  0  0  0  0  0  0  0  0  0  0  0
   28.0710  -19.3806   -6.2997 C   0  0  0  0  0  0  0  0  0  0  0  0
   26.7027  -19.5170   -6.4106 C   0  0  0  0  0  0  0  0  0  0  0  0
   26.1673  -20.1390   -7.5439 C   0  0  0  0  0  0  0  0  0  0  0  0
   25.7676  -20.3939  -11.9509 C   0  0  0  0  0  0  0  0  0  0  0  0
   24.8745  -20.9685  -12.6265 O   0  0  0  0  0  0  0  0  0  0  0  0
   26.8928  -19.8979  -12.6646 N   0  0  0  0  0  0  0  0  0  0  0  0
   26.9809  -19.8339  -14.0900 C   0  0  1  0  0  0  0  0  0  0  0  0
   27.9065  -18.7063  -14.5466 C   0  0  0  0  0  0  0  0  0  0  0  0
   27.1085  -17.1166  -14.2364 S   0  0  0  0  0  0  0  0  0  0  0  0
   27.3973  -21.1210  -14.6976 C   0  0  0  0  0  0  0  0  0  0  0  0
   28.5211  -21.5993  -14.4205 O   0  0  0  0  0  0  0  0  0  0  0  0
   26.5542  -21.8287  -15.5881 N   0  0  0  0  0  0  0  0  0  0  0  0
   26.9289  -23.0953  -16.1895 C   0  0  0  0  0  0  0  0  0  0  0  0
   25.8319  -23.6429  -17.0190 C   0  0  0  0  0  0  0  0  0  0  0  0
   26.0733  -24.6819  -17.8783 O   0  0  0  0  0  0  0  0  0  0  0  0
   24.6672  -23.1552  -16.9389 O   0  0  0  0  0  0  0  0  0  0  0  0
  2  1  1  6
  2 10  1  0
  3  2  1  0
  3  4  1  0
  4  5  2  0
  4  9  1  0
  5  6  1  0
  6  7  2  0
  8  7  1  0
  9  8  2  0
 10 11  2  0
 12 10  1  0
 12 13  1  0
 13 16  1  0
 13 14  1  1
 15 14  1  0
 16 18  1  0
 17 16  2  0
 18 19  1  0
 19 20  1  0
 20 22  2  0
 20 21  1  0
M  END
$$$$
