FCG.pdb
     RDKit          3D

 22 22  0  0  1  0  0  0  0  0999 V2000
   15.0757  -14.6049    4.7704 N   0  0  0  0  0  0  0  0  0  0  0  0
   16.0759  -15.5470    4.3814 C   0  0  1  0  0  0  0  0  0  0  0  0
   17.3008  -15.3330    5.2397 C   0  0  0  0  0  0  0  0  0  0  0  0
   17.9937  -14.1283    4.7324 C   0  0  0  0  0  0  0  0  0  0  0  0
   18.2393  -13.0924    5.5977 C   0  0  0  0  0  0  0  0  0  0  0  0
   18.8848  -11.9410    5.1751 C   0  0  0  0  0  0  0  0  0  0  0  0
   19.2766  -11.8541    3.8683 C   0  0  0  0  0  0  0  0  0  0  0  0
   19.0410  -12.8823    2.9791 C   0  0  0  0  0  0  0  0  0  0  0  0
   18.3879  -14.0363    3.4258 C   0  0  0  0  0  0  0  0  0  0  0  0
   15.5955  -16.9532    4.4394 C   0  0  0  0  0  0  0  0  0  0  0  0
   14.4842  -17.2377    4.9573 O   0  0  0  0  0  0  0  0  0  0  0  0
   16.3570  -18.0355    3.9196 N   0  0  0  0  0  0  0  0  0  0  0  0
   15.9508  -19.4053    3.9674 C   0  0  1  0  0  0  0  0  0  0  0  0
   15.5390  -19.9187    2.5877 C   0  0  0  0  0  0  0  0  0  0  0  0
   16.8228  -19.5020    1.3883 S   0  0  0  0  0  0  0  0  0  0  0  0
   16.9832  -20.2897    4.5599 C   0  0  0  0  0  0  0  0  0  0  0  0
   18.1951  -20.0303    4.3798 O   0  0  0  0  0  0  0  0  0  0  0  0
   16.6347  -21.4265    5.3285 N   0  0  0  0  0  0  0  0  0  0  0  0
   17.6196  -22.2663    5.9851 C   0  0  0  0  0  0  0  0  0  0  0  0
   18.2878  -23.1679    5.0198 C   0  0  0  0  0  0  0  0  0  0  0  0
   17.9501  -23.1252    3.6930 O   0  0  0  0  0  0  0  0  0  0  0  0
   19.1728  -23.9815    5.4141 O   0  0  0  0  0  0  0  0  0  0  0  0
  2  1  1  1
  2 10  1  0
  3  2  1  0
  3  4  1  0
  4  5  2  0
  4  9  1  0
  5  6  1  0
  6  7  2  0
  8  7  1  0
  9  8  2  0
 10 11  2  0
 12 10  1  0
 12 13  1  0
 13 16  1  0
 13 14  1  6
 15 14  1  0
 16 18  1  0
 17 16  2  0
 18 19  1  0
 19 20  1  0
 20 22  2  0
 20 21  1  0
M  END
$$$$
