FCG.pdb
     RDKit          3D

 22 22  0  0  1  0  0  0  0  0999 V2000
   15.3091  -14.7672  -15.0651 N   0  0  0  0  0  0  0  0  0  0  0  0
   16.1648  -13.6572  -14.7917 C   0  0  1  0  0  0  0  0  0  0  0  0
   17.4031  -13.7794  -15.6487 C   0  0  0  0  0  0  0  0  0  0  0  0
   18.1376  -14.9824  -15.1991 C   0  0  0  0  0  0  0  0  0  0  0  0
   17.9601  -16.1595  -15.8810 C   0  0  0  0  0  0  0  0  0  0  0  0
   18.6234  -17.3161  -15.5023 C   0  0  0  0  0  0  0  0  0  0  0  0
   19.4659  -17.2636  -14.4271 C   0  0  0  0  0  0  0  0  0  0  0  0
   19.6610  -16.0919  -13.7254 C   0  0  0  0  0  0  0  0  0  0  0  0
   18.9818  -14.9352  -14.1239 C   0  0  0  0  0  0  0  0  0  0  0  0
   15.4862  -12.3473  -14.9796 C   0  0  0  0  0  0  0  0  0  0  0  0
   14.2616  -12.2867  -15.2644 O   0  0  0  0  0  0  0  0  0  0  0  0
   16.1764  -11.1113  -14.8489 N   0  0  0  0  0  0  0  0  0  0  0  0
   15.5686   -9.8265  -15.0023 C   0  0  1  0  0  0  0  0  0  0  0  0
   14.4590   -9.6026  -13.9750 C   0  0  0  0  0  0  0  0  0  0  0  0
   13.8256   -7.9195  -14.1380 S   0  0  0  0  0  0  0  0  0  0  0  0
   16.5511   -8.7170  -14.9506 C   0  0  0  0  0  0  0  0  0  0  0  0
   17.2658   -8.5725  -13.9323 O   0  0  0  0  0  0  0  0  0  0  0  0
   16.7046   -7.8105  -16.0273 N   0  0  0  0  0  0  0  0  0  0  0  0
   17.7684   -6.8247  -16.0822 C   0  0  0  0  0  0  0  0  0  0  0  0
   17.5509   -5.7425  -15.0959 C   0  0  0  0  0  0  0  0  0  0  0  0
   16.4279   -5.7434  -14.3117 O   0  0  0  0  0  0  0  0  0  0  0  0
   18.3997   -4.8124  -14.9719 O   0  0  0  0  0  0  0  0  0  0  0  0
  2  1  1  6
  2 10  1  0
  3  2  1  0
  3  4  1  0
  4  5  2  0
  4  9  1  0
  5  6  1  0
  6  7  2  0
  8  7  1  0
  9  8  2  0
 10 11  2  0
 12 10  1  0
 12 13  1  0
 13 16  1  0
 13 14  1  1
 15 14  1  0
 16 18  1  0
 17 16  2  0
 18 19  1  0
 19 20  1  0
 20 22  2  0
 20 21  1  0
M  END
$$$$
