FCG.pdb
     RDKit          3D

 22 22  0  0  1  0  0  0  0  0999 V2000
   20.8190   -9.7583  -15.0737 N   0  0  0  0  0  0  0  0  0  0  0  0
   20.7787   -9.2348  -13.7458 C   0  0  1  0  0  0  0  0  0  0  0  0
   21.8040   -8.1310  -13.6305 C   0  0  0  0  0  0  0  0  0  0  0  0
   23.0993   -8.6780  -14.0906 C   0  0  0  0  0  0  0  0  0  0  0  0
   23.6352   -8.2120  -15.2644 C   0  0  0  0  0  0  0  0  0  0  0  0
   24.8455   -8.6902  -15.7413 C   0  0  0  0  0  0  0  0  0  0  0  0
   25.5030   -9.6435  -15.0150 C   0  0  0  0  0  0  0  0  0  0  0  0
   24.9846  -10.1279  -13.8318 C   0  0  0  0  0  0  0  0  0  0  0  0
   23.7613   -9.6321  -13.3676 C   0  0  0  0  0  0  0  0  0  0  0  0
   19.4210   -8.7756  -13.3491 C   0  0  0  0  0  0  0  0  0  0  0  0
   18.4219   -8.9978  -14.0817 O   0  0  0  0  0  0  0  0  0  0  0  0
   19.1841   -8.0709  -12.1373 N   0  0  0  0  0  0  0  0  0  0  0  0
   17.8941   -7.6520  -11.6854 C   0  0  1  0  0  0  0  0  0  0  0  0
   16.9761   -8.8450  -11.4196 C   0  0  0  0  0  0  0  0  0  0  0  0
   17.5832   -9.7573   -9.9845 S   0  0  0  0  0  0  0  0  0  0  0  0
   17.9610   -6.7764  -10.4905 C   0  0  0  0  0  0  0  0  0  0  0  0
   18.7508   -7.0602   -9.5609 O   0  0  0  0  0  0  0  0  0  0  0  0
   17.1517   -5.6208  -10.3706 N   0  0  0  0  0  0  0  0  0  0  0  0
   17.1732   -4.7612   -9.2014 C   0  0  0  0  0  0  0  0  0  0  0  0
   16.2014   -3.6521   -9.3307 C   0  0  0  0  0  0  0  0  0  0  0  0
   15.9608   -2.8223   -8.2678 O   0  0  0  0  0  0  0  0  0  0  0  0
   15.5888   -3.4648  -10.4217 O   0  0  0  0  0  0  0  0  0  0  0  0
  2  1  1  6
  2 10  1  0
  3  2  1  0
  3  4  1  0
  4  5  2  0
  4  9  1  0
  5  6  1  0
  6  7  2  0
  8  7  1  0
  9  8  2  0
 10 11  2  0
 12 10  1  0
 12 13  1  0
 13 16  1  0
 13 14  1  1
 15 14  1  0
 16 18  1  0
 17 16  2  0
 18 19  1  0
 19 20  1  0
 20 22  2  0
 20 21  1  0
M  END
$$$$
