FCG.pdb
     RDKit          3D

 22 22  0  0  1  0  0  0  0  0999 V2000
   23.3179  -12.3186  -18.1380 N   0  0  0  0  0  0  0  0  0  0  0  0
   23.3199  -11.8591  -16.7860 C   0  0  1  0  0  0  0  0  0  0  0  0
   24.7468  -11.5859  -16.3709 C   0  0  0  0  0  0  0  0  0  0  0  0
   25.4627  -12.8806  -16.3632 C   0  0  0  0  0  0  0  0  0  0  0  0
   25.3455  -13.6952  -15.2655 C   0  0  0  0  0  0  0  0  0  0  0  0
   25.9948  -14.9183  -15.2060 C   0  0  0  0  0  0  0  0  0  0  0  0
   26.7617  -15.3031  -16.2702 C   0  0  0  0  0  0  0  0  0  0  0  0
   26.8951  -14.5015  -17.3851 C   0  0  0  0  0  0  0  0  0  0  0  0
   26.2314  -13.2704  -17.4254 C   0  0  0  0  0  0  0  0  0  0  0  0
   22.4448  -10.6745  -16.5796 C   0  0  0  0  0  0  0  0  0  0  0  0
   22.3753   -9.7616  -17.4433 O   0  0  0  0  0  0  0  0  0  0  0  0
   21.6514  -10.5137  -15.4108 N   0  0  0  0  0  0  0  0  0  0  0  0
   20.7396   -9.4339  -15.1958 C   0  0  1  0  0  0  0  0  0  0  0  0
   19.6259   -9.8228  -14.2235 C   0  0  0  0  0  0  0  0  0  0  0  0
   18.5143   -8.4181  -13.9967 S   0  0  0  0  0  0  0  0  0  0  0  0
   21.4146   -8.1953  -14.7383 C   0  0  0  0  0  0  0  0  0  0  0  0
   22.3323   -8.2701  -13.8893 O   0  0  0  0  0  0  0  0  0  0  0  0
   21.0481   -6.9222  -15.2378 N   0  0  0  0  0  0  0  0  0  0  0  0
   21.7050   -5.6951  -14.8266 C   0  0  0  0  0  0  0  0  0  0  0  0
   22.6364   -5.2077  -15.8688 C   0  0  0  0  0  0  0  0  0  0  0  0
   23.3579   -4.0617  -15.6636 O   0  0  0  0  0  0  0  0  0  0  0  0
   22.7708   -5.8458  -16.9530 O   0  0  0  0  0  0  0  0  0  0  0  0
  2  1  1  6
  2 10  1  0
  3  2  1  0
  3  4  1  0
  4  5  2  0
  4  9  1  0
  5  6  1  0
  6  7  2  0
  8  7  1  0
  9  8  2  0
 10 11  2  0
 12 10  1  0
 12 13  1  0
 13 16  1  0
 13 14  1  1
 15 14  1  0
 16 18  1  0
 17 16  2  0
 18 19  1  0
 19 20  1  0
 20 22  2  0
 20 21  1  0
M  END
$$$$
