YTN.pdb
     RDKit          3D

 28 28  0  0  1  0  0  0  0  0999 V2000
    8.0318  -11.7054   17.1024 O   0  0  0  0  0  0  0  0  0  0  0  0
    8.0205  -12.5240   18.2419 C   0  0  0  0  0  0  0  0  0  0  0  0
    6.8516  -13.0434   18.7488 C   0  0  0  0  0  0  0  0  0  0  0  0
    6.8665  -13.8572   19.8865 C   0  0  0  0  0  0  0  0  0  0  0  0
    8.0500  -14.1509   20.5162 C   0  0  0  0  0  0  0  0  0  0  0  0
    8.0641  -15.0160   21.7253 C   0  0  0  0  0  0  0  0  0  0  0  0
    8.6978  -16.3296   21.3177 C   0  0  2  0  0  0  0  0  0  0  0  0
    7.9592  -16.9890   20.2871 N   0  0  0  0  0  0  0  0  0  0  0  0
    8.8425  -17.2635   22.4626 C   0  0  0  0  0  0  0  0  0  0  0  0
    8.1859  -18.3415   22.5384 O   0  0  0  0  0  0  0  0  0  0  0  0
    9.2242  -13.6248   20.0009 C   0  0  0  0  0  0  0  0  0  0  0  0
    9.2098  -12.8189   18.8744 C   0  0  0  0  0  0  0  0  0  0  0  0
    9.8125  -19.9047   23.0275 C   0  0  0  0  0  0  0  0  0  0  0  0
   10.7215  -19.1610   23.9812 C   0  0  1  0  0  0  0  0  0  0  0  0
   11.9082  -18.7529   23.3689 O   0  0  0  0  0  0  0  0  0  0  0  0
    9.9888  -17.9597   24.5954 C   0  0  2  0  0  0  0  0  0  0  0  0
    9.7423  -16.9907   23.5531 N   0  0  0  0  0  0  0  0  0  0  0  0
   10.8969  -17.4258   25.6443 C   0  0  0  0  0  0  0  0  0  0  0  0
   11.8737  -16.7333   25.2620 O   0  0  0  0  0  0  0  0  0  0  0  0
   10.8074  -13.9797   29.7013 N   0  0  0  0  0  0  0  0  0  0  0  0
   10.4845  -15.3344   29.9920 C   0  0  0  0  0  0  0  0  0  0  0  0
   10.5976  -15.6959   31.1879 O   0  0  0  0  0  0  0  0  0  0  0  0
   10.0512  -16.1846   28.8804 C   0  0  0  0  0  0  0  0  0  0  0  0
   11.1864  -16.7434   28.0625 C   0  0  2  0  0  0  0  0  0  0  0  0
   10.7323  -17.6451   27.0198 N   0  0  0  0  0  0  0  0  0  0  0  0
   12.1393  -17.5005   28.9150 C   0  0  0  0  0  0  0  0  0  0  0  0
   12.2447  -18.8837   28.9148 O   0  0  0  0  0  0  0  0  0  0  0  0
   12.9018  -16.8660   29.6874 O   0  0  0  0  0  0  0  0  0  0  0  0
  2  1  1  0
  3  2  2  0
  4  3  1  0
  5 11  1  0
  5  4  2  0
  6  7  1  0
  6  5  1  0
  7  8  1  6
  7  9  1  0
  9 10  2  0
 11 12  2  0
 12  2  1  0
 14 13  1  6
 14 15  1  0
 16 14  1  0
 17  9  1  0
 16 17  1  6
 18 16  1  0
 18 19  2  0
 20 21  1  0
 21 23  1  0
 22 21  2  0
 24 23  1  1
 24 26  1  0
 24 25  1  0
 25 18  1  0
 26 27  1  0
 28 26  2  0
M  END
$$$$
