YTN.pdb
     RDKit          3D

 28 28  0  0  1  0  0  0  0  0999 V2000
    6.9159  -12.0101   16.2392 O   0  0  0  0  0  0  0  0  0  0  0  0
    7.1010  -12.7488   17.4177 C   0  0  0  0  0  0  0  0  0  0  0  0
    6.1574  -13.6435   17.8672 C   0  0  0  0  0  0  0  0  0  0  0  0
    6.3653  -14.3683   19.0455 C   0  0  0  0  0  0  0  0  0  0  0  0
    7.5163  -14.1978   19.7732 C   0  0  0  0  0  0  0  0  0  0  0  0
    7.7356  -14.9689   21.0253 C   0  0  0  0  0  0  0  0  0  0  0  0
    8.6873  -16.0967   20.6852 C   0  0  2  0  0  0  0  0  0  0  0  0
    8.1113  -17.0326   19.7715 N   0  0  0  0  0  0  0  0  0  0  0  0
    9.1385  -16.8350   21.8914 C   0  0  0  0  0  0  0  0  0  0  0  0
    8.3775  -17.6254   22.5201 O   0  0  0  0  0  0  0  0  0  0  0  0
    8.4631  -13.2951   19.3153 C   0  0  0  0  0  0  0  0  0  0  0  0
    8.2576  -12.5773   18.1486 C   0  0  0  0  0  0  0  0  0  0  0  0
   10.6914  -19.6949   22.5817 C   0  0  0  0  0  0  0  0  0  0  0  0
   11.6618  -18.6714   23.1292 C   0  0  1  0  0  0  0  0  0  0  0  0
   12.6598  -18.3454   22.2087 O   0  0  0  0  0  0  0  0  0  0  0  0
   10.9132  -17.4107   23.5846 C   0  0  2  0  0  0  0  0  0  0  0  0
   10.4728  -16.6902   22.4128 N   0  0  0  0  0  0  0  0  0  0  0  0
   11.8918  -16.6257   24.3820 C   0  0  0  0  0  0  0  0  0  0  0  0
   12.7462  -15.9566   23.7479 O   0  0  0  0  0  0  0  0  0  0  0  0
   13.2092  -17.6081   29.4692 N   0  0  0  0  0  0  0  0  0  0  0  0
   12.2036  -17.0416   28.6373 C   0  0  0  0  0  0  0  0  0  0  0  0
   11.1511  -17.7088   28.4924 O   0  0  0  0  0  0  0  0  0  0  0  0
   12.4798  -15.7393   28.0260 C   0  0  0  0  0  0  0  0  0  0  0  0
   12.8663  -15.8185   26.5719 C   0  0  2  0  0  0  0  0  0  0  0  0
   11.9199  -16.5863   25.7838 N   0  0  0  0  0  0  0  0  0  0  0  0
   14.1978  -16.4566   26.4052 C   0  0  0  0  0  0  0  0  0  0  0  0
   15.3995  -15.8176   26.6737 O   0  0  0  0  0  0  0  0  0  0  0  0
   14.2570  -17.6445   25.9980 O   0  0  0  0  0  0  0  0  0  0  0  0
  2  1  1  0
  3  2  2  0
  4  3  1  0
  5 11  1  0
  5  4  2  0
  6  7  1  0
  6  5  1  0
  7  8  1  6
  7  9  1  0
  9 10  2  0
 11 12  2  0
 12  2  1  0
 14 13  1  6
 14 15  1  0
 16 14  1  0
 17  9  1  0
 16 17  1  6
 18 16  1  0
 18 19  2  0
 20 21  1  0
 21 23  1  0
 22 21  2  0
 24 23  1  1
 24 26  1  0
 24 25  1  0
 25 18  1  0
 26 27  1  0
 28 26  2  0
M  END
$$$$
