YTN.pdb
     RDKit          3D

 28 28  0  0  1  0  0  0  0  0999 V2000
    5.5870  -10.2794   27.5577 O   0  0  0  0  0  0  0  0  0  0  0  0
    6.2312  -11.4144   27.0423 C   0  0  0  0  0  0  0  0  0  0  0  0
    6.2449  -12.6105   27.7221 C   0  0  0  0  0  0  0  0  0  0  0  0
    6.8942  -13.7281   27.1871 C   0  0  0  0  0  0  0  0  0  0  0  0
    7.5291  -13.6487   25.9730 C   0  0  0  0  0  0  0  0  0  0  0  0
    8.2188  -14.8375   25.4058 C   0  0  0  0  0  0  0  0  0  0  0  0
    7.1744  -15.6311   24.6489 C   0  0  2  0  0  0  0  0  0  0  0  0
    6.3120  -16.3615   25.5237 N   0  0  0  0  0  0  0  0  0  0  0  0
    7.7810  -16.5832   23.6849 C   0  0  0  0  0  0  0  0  0  0  0  0
    7.9335  -17.8089   23.9557 O   0  0  0  0  0  0  0  0  0  0  0  0
    7.5119  -12.4412   25.2929 C   0  0  0  0  0  0  0  0  0  0  0  0
    6.8691  -11.3343   25.8224 C   0  0  0  0  0  0  0  0  0  0  0  0
    9.6071  -17.4397   19.1279 C   0  0  0  0  0  0  0  0  0  0  0  0
    8.8581  -16.5304   20.0771 C   0  0  1  0  0  0  0  0  0  0  0  0
    7.5137  -16.3931   19.7255 O   0  0  0  0  0  0  0  0  0  0  0  0
    8.9907  -17.0343   21.5214 C   0  0  2  0  0  0  0  0  0  0  0  0
    8.2302  -16.1604   22.3839 N   0  0  0  0  0  0  0  0  0  0  0  0
   10.4437  -16.9918   21.8322 C   0  0  0  0  0  0  0  0  0  0  0  0
   10.9519  -15.8642   22.0559 O   0  0  0  0  0  0  0  0  0  0  0  0
   14.3571  -17.5352   19.7938 N   0  0  0  0  0  0  0  0  0  0  0  0
   14.5422  -16.9802   21.0906 C   0  0  0  0  0  0  0  0  0  0  0  0
   15.7169  -16.6784   21.4113 O   0  0  0  0  0  0  0  0  0  0  0  0
   13.3564  -16.8098   21.9338 C   0  0  0  0  0  0  0  0  0  0  0  0
   12.6696  -18.1033   22.2876 C   0  0  2  0  0  0  0  0  0  0  0  0
   11.2737  -18.1210   21.8905 N   0  0  0  0  0  0  0  0  0  0  0  0
   12.7137  -18.3504   23.7522 C   0  0  0  0  0  0  0  0  0  0  0  0
   13.0783  -19.5623   24.3203 O   0  0  0  0  0  0  0  0  0  0  0  0
   12.4056  -17.4174   24.5366 O   0  0  0  0  0  0  0  0  0  0  0  0
  2  1  1  0
  3  2  2  0
  4  3  1  0
  5 11  1  0
  5  4  2  0
  6  7  1  0
  6  5  1  0
  7  8  1  1
  7  9  1  0
  9 10  2  0
 11 12  2  0
 12  2  1  0
 14 13  1  6
 14 15  1  0
 16 14  1  0
 17  9  1  0
 16 17  1  1
 18 16  1  0
 18 19  2  0
 20 21  1  0
 21 23  1  0
 22 21  2  0
 24 23  1  1
 24 26  1  0
 24 25  1  0
 25 18  1  0
 26 27  1  0
 28 26  2  0
M  END
$$$$
