YTN.pdb
     RDKit          3D

 28 28  0  0  1  0  0  0  0  0999 V2000
    5.7122  -11.8114   28.9493 O   0  0  0  0  0  0  0  0  0  0  0  0
    6.3273  -12.4185   27.8439 C   0  0  0  0  0  0  0  0  0  0  0  0
    7.1658  -13.5001   27.9853 C   0  0  0  0  0  0  0  0  0  0  0  0
    7.7671  -14.0879   26.8675 C   0  0  0  0  0  0  0  0  0  0  0  0
    7.5296  -13.5938   25.6093 C   0  0  0  0  0  0  0  0  0  0  0  0
    8.1696  -14.2198   24.4222 C   0  0  0  0  0  0  0  0  0  0  0  0
    7.0961  -15.0216   23.7166 C   0  0  2  0  0  0  0  0  0  0  0  0
    6.6973  -16.1698   24.4685 N   0  0  0  0  0  0  0  0  0  0  0  0
    7.5239  -15.4694   22.3675 C   0  0  0  0  0  0  0  0  0  0  0  0
    7.8368  -16.6703   22.1251 O   0  0  0  0  0  0  0  0  0  0  0  0
    6.6841  -12.5042   25.4732 C   0  0  0  0  0  0  0  0  0  0  0  0
    6.0884  -11.9218   26.5799 C   0  0  0  0  0  0  0  0  0  0  0  0
    8.5244  -12.6021   19.4797 C   0  0  0  0  0  0  0  0  0  0  0  0
    7.8014  -13.8250   18.9595 C   0  0  1  0  0  0  0  0  0  0  0  0
    8.2246  -14.1826   17.6778 O   0  0  0  0  0  0  0  0  0  0  0  0
    7.9673  -15.0017   19.9318 C   0  0  2  0  0  0  0  0  0  0  0  0
    7.6059  -14.5561   21.2572 N   0  0  0  0  0  0  0  0  0  0  0  0
    9.3988  -15.3940   19.8506 C   0  0  0  0  0  0  0  0  0  0  0  0
   10.1959  -14.8308   20.6427 O   0  0  0  0  0  0  0  0  0  0  0  0
   12.2660  -17.4669   21.4037 N   0  0  0  0  0  0  0  0  0  0  0  0
   11.9386  -18.5709   20.5682 C   0  0  0  0  0  0  0  0  0  0  0  0
   12.1378  -19.7149   21.0432 O   0  0  0  0  0  0  0  0  0  0  0  0
   11.4016  -18.2810   19.2365 C   0  0  0  0  0  0  0  0  0  0  0  0
   11.2838  -16.8097   18.9342 C   0  0  2  0  0  0  0  0  0  0  0  0
    9.9093  -16.3440   18.9538 N   0  0  0  0  0  0  0  0  0  0  0  0
   11.8369  -16.4923   17.5921 C   0  0  0  0  0  0  0  0  0  0  0  0
   13.1764  -16.2220   17.3530 O   0  0  0  0  0  0  0  0  0  0  0  0
   11.0594  -16.4629   16.6045 O   0  0  0  0  0  0  0  0  0  0  0  0
  2  1  1  0
  3  2  2  0
  4  3  1  0
  5 11  1  0
  5  4  2  0
  6  7  1  0
  6  5  1  0
  7  8  1  1
  7  9  1  0
  9 10  2  0
 11 12  2  0
 12  2  1  0
 14 13  1  1
 14 15  1  0
 16 14  1  0
 17  9  1  0
 16 17  1  1
 18 16  1  0
 18 19  2  0
 20 21  1  0
 21 23  1  0
 22 21  2  0
 24 23  1  6
 24 26  1  0
 24 25  1  0
 25 18  1  0
 26 27  1  0
 28 26  2  0
M  END
$$$$
