YTN.pdb
     RDKit          3D

 28 28  0  0  1  0  0  0  0  0999 V2000
    5.2904  -10.5974   28.3305 O   0  0  0  0  0  0  0  0  0  0  0  0
    5.9524  -11.4850   27.4688 C   0  0  0  0  0  0  0  0  0  0  0  0
    7.1413  -12.0825   27.8186 C   0  0  0  0  0  0  0  0  0  0  0  0
    7.7821  -12.9642   26.9417 C   0  0  0  0  0  0  0  0  0  0  0  0
    7.2335  -13.2476   25.7160 C   0  0  0  0  0  0  0  0  0  0  0  0
    7.9160  -14.1849   24.7852 C   0  0  0  0  0  0  0  0  0  0  0  0
    6.9065  -15.2529   24.4197 C   0  0  2  0  0  0  0  0  0  0  0  0
    6.4505  -15.9792   25.5629 N   0  0  0  0  0  0  0  0  0  0  0  0
    7.4453  -16.2217   23.4323 C   0  0  0  0  0  0  0  0  0  0  0  0
    6.7177  -17.0991   22.8849 O   0  0  0  0  0  0  0  0  0  0  0  0
    6.0358  -12.6426   25.3693 C   0  0  0  0  0  0  0  0  0  0  0  0
    5.4010  -11.7696   26.2373 C   0  0  0  0  0  0  0  0  0  0  0  0
    7.0752  -16.0126   20.8379 C   0  0  0  0  0  0  0  0  0  0  0  0
    8.5760  -15.9976   20.6472 C   0  0  1  0  0  0  0  0  0  0  0  0
    9.0823  -14.6999   20.5495 O   0  0  0  0  0  0  0  0  0  0  0  0
    9.2697  -16.7649   21.7817 C   0  0  2  0  0  0  0  0  0  0  0  0
    8.8316  -16.2142   23.0430 N   0  0  0  0  0  0  0  0  0  0  0  0
   10.7279  -16.5695   21.5688 C   0  0  0  0  0  0  0  0  0  0  0  0
   11.1619  -15.3904   21.6039 O   0  0  0  0  0  0  0  0  0  0  0  0
   11.6404  -21.1460   22.3759 N   0  0  0  0  0  0  0  0  0  0  0  0
   12.3429  -20.0782   23.0008 C   0  0  0  0  0  0  0  0  0  0  0  0
   12.1318  -19.9060   24.2254 O   0  0  0  0  0  0  0  0  0  0  0  0
   13.2448  -19.2778   22.1690 C   0  0  0  0  0  0  0  0  0  0  0  0
   12.8638  -17.8226   22.0834 C   0  0  2  0  0  0  0  0  0  0  0  0
   11.6395  -17.6093   21.3337 N   0  0  0  0  0  0  0  0  0  0  0  0
   13.9299  -17.0275   21.4207 C   0  0  0  0  0  0  0  0  0  0  0  0
   15.1559  -16.7422   22.0037 O   0  0  0  0  0  0  0  0  0  0  0  0
   13.7254  -16.5797   20.2639 O   0  0  0  0  0  0  0  0  0  0  0  0
  2  1  1  0
  3  2  2  0
  4  3  1  0
  5 11  1  0
  5  4  2  0
  6  7  1  0
  6  5  1  0
  7  8  1  1
  7  9  1  0
  9 10  2  0
 11 12  2  0
 12  2  1  0
 14 13  1  1
 14 15  1  0
 16 14  1  0
 17  9  1  0
 16 17  1  1
 18 16  1  0
 18 19  2  0
 20 21  1  0
 21 23  1  0
 22 21  2  0
 24 23  1  6
 24 26  1  0
 24 25  1  0
 25 18  1  0
 26 27  1  0
 28 26  2  0
M  END
$$$$
