NLG.pdb
     RDKit          3D

 21 20  0  0  1  0  0  0  0  0999 V2000
   27.3423  -20.6929  -18.5020 N   0  0  0  0  0  0  0  0  0  0  0  0
   25.9793  -20.3296  -18.3764 C   0  0  0  0  0  0  0  0  0  0  0  0
   25.4324  -19.5959  -19.2531 O   0  0  0  0  0  0  0  0  0  0  0  0
   25.1848  -20.8161  -17.2024 C   0  0  0  0  0  0  0  0  0  0  0  0
   26.1467  -21.4393  -16.2148 C   0  0  2  0  0  0  0  0  0  0  0  0
   26.7149  -22.6287  -16.7924 N   0  0  0  0  0  0  0  0  0  0  0  0
   25.3909  -21.7674  -14.9730 C   0  0  0  0  0  0  0  0  0  0  0  0
   24.9797  -22.9366  -14.7527 O   0  0  0  0  0  0  0  0  0  0  0  0
   25.0325  -22.1034   -9.8000 C   0  0  0  0  0  0  0  0  0  0  0  0
   24.7627  -20.6358  -10.2690 C   0  0  1  0  0  0  0  0  0  0  0  0
   25.5872  -19.7540   -9.3147 C   0  0  0  0  0  0  0  0  0  0  0  0
   25.2111  -20.5681  -11.6732 C   0  0  0  0  0  0  0  0  0  0  0  0
   24.3507  -21.1161  -12.7526 C   0  0  2  0  0  0  0  0  0  0  0  0
   25.1128  -20.7863  -14.0100 N   0  0  0  0  0  0  0  0  0  0  0  0
   23.0405  -20.5342  -12.9603 C   0  0  0  0  0  0  0  0  0  0  0  0
   22.8991  -19.3957  -13.4694 O   0  0  0  0  0  0  0  0  0  0  0  0
   21.8384  -21.2227  -12.6075 N   0  0  0  0  0  0  0  0  0  0  0  0
   20.5629  -20.5595  -12.7214 C   0  0  0  0  0  0  0  0  0  0  0  0
   19.9684  -20.8603  -14.0316 C   0  0  0  0  0  0  0  0  0  0  0  0
   18.7689  -21.5585  -14.1616 O   0  0  0  0  0  0  0  0  0  0  0  0
   20.5239  -20.4966  -15.0850 O   0  0  0  0  0  0  0  0  0  0  0  0
  2  3  2  0
  2  1  1  0
  4  2  1  0
  5  4  1  0
  5  6  1  6
  7  8  2  0
  7  5  1  0
 10  9  1  1
 10 11  1  0
 10 12  1  0
 13 12  1  1
 13 15  1  0
 13 14  1  0
 14  7  1  0
 15 17  1  0
 16 15  2  0
 17 18  1  0
 18 19  1  0
 19 21  2  0
 19 20  1  0
M  END
$$$$
