NLG.pdb
     RDKit          3D

 21 20  0  0  1  0  0  0  0  0999 V2000
   20.0845  -23.0324  -14.7846 N   0  0  0  0  0  0  0  0  0  0  0  0
   20.7923  -22.1592  -15.6460 C   0  0  0  0  0  0  0  0  0  0  0  0
   20.6592  -22.2578  -16.9025 O   0  0  0  0  0  0  0  0  0  0  0  0
   21.7001  -21.1169  -15.0665 C   0  0  0  0  0  0  0  0  0  0  0  0
   21.6941  -21.2780  -13.5623 C   0  0  2  0  0  0  0  0  0  0  0  0
   20.4940  -20.6909  -13.0272 N   0  0  0  0  0  0  0  0  0  0  0  0
   22.9014  -20.5957  -13.0165 C   0  0  0  0  0  0  0  0  0  0  0  0
   22.9255  -19.3473  -12.8567 O   0  0  0  0  0  0  0  0  0  0  0  0
   24.7380  -21.4643   -8.2915 C   0  0  0  0  0  0  0  0  0  0  0  0
   24.3648  -20.7028   -9.6058 C   0  0  1  0  0  0  0  0  0  0  0  0
   24.6022  -19.2162   -9.2866 C   0  0  0  0  0  0  0  0  0  0  0  0
   25.2596  -21.2336  -10.6521 C   0  0  0  0  0  0  0  0  0  0  0  0
   25.2326  -20.6479  -12.0166 C   0  0  2  0  0  0  0  0  0  0  0  0
   24.0493  -21.3203  -12.6635 N   0  0  0  0  0  0  0  0  0  0  0  0
   26.3379  -20.9203  -12.9123 C   0  0  0  0  0  0  0  0  0  0  0  0
   27.5159  -20.5996  -12.6207 O   0  0  0  0  0  0  0  0  0  0  0  0
   26.1538  -21.5746  -14.1699 N   0  0  0  0  0  0  0  0  0  0  0  0
   27.2878  -21.8484  -15.0177 C   0  0  0  0  0  0  0  0  0  0  0  0
   27.2400  -20.9747  -16.1988 C   0  0  0  0  0  0  0  0  0  0  0  0
   28.0012  -21.2239  -17.3397 O   0  0  0  0  0  0  0  0  0  0  0  0
   26.5077  -19.9679  -16.2208 O   0  0  0  0  0  0  0  0  0  0  0  0
  2  3  2  0
  2  1  1  0
  4  2  1  0
  5  4  1  0
  5  6  1  1
  7  8  2  0
  7  5  1  0
 10  9  1  1
 10 11  1  0
 10 12  1  0
 13 12  1  1
 13 15  1  0
 13 14  1  0
 14  7  1  0
 15 17  1  0
 16 15  2  0
 17 18  1  0
 18 19  1  0
 19 21  2  0
 19 20  1  0
M  END
$$$$
