NLG.pdb
     RDKit          3D

 21 20  0  0  1  0  0  0  0  0999 V2000
   15.7910  -28.0894   -5.1955 N   0  0  0  0  0  0  0  0  0  0  0  0
   15.7826  -27.4950   -3.9101 C   0  0  0  0  0  0  0  0  0  0  0  0
   14.9511  -26.5781   -3.6379 O   0  0  0  0  0  0  0  0  0  0  0  0
   16.7609  -27.9541   -2.8717 C   0  0  0  0  0  0  0  0  0  0  0  0
   17.6073  -26.7659   -2.4711 C   0  0  2  0  0  0  0  0  0  0  0  0
   18.4358  -26.3778   -3.5820 N   0  0  0  0  0  0  0  0  0  0  0  0
   18.4450  -27.1636   -1.3044 C   0  0  0  0  0  0  0  0  0  0  0  0
   19.5094  -27.8169   -1.4617 O   0  0  0  0  0  0  0  0  0  0  0  0
   21.0180  -25.8107    3.1447 C   0  0  0  0  0  0  0  0  0  0  0  0
   19.4661  -25.8082    3.3404 C   0  0  1  0  0  0  0  0  0  0  0  0
   19.1620  -24.5056    4.1012 C   0  0  0  0  0  0  0  0  0  0  0  0
   18.8847  -25.8512    1.9848 C   0  0  0  0  0  0  0  0  0  0  0  0
   18.9927  -27.0893    1.1717 C   0  0  2  0  0  0  0  0  0  0  0  0
   18.0761  -26.8240    0.0055 N   0  0  0  0  0  0  0  0  0  0  0  0
   18.5118  -28.3346    1.7340 C   0  0  0  0  0  0  0  0  0  0  0  0
   17.3028  -28.5012    2.0269 O   0  0  0  0  0  0  0  0  0  0  0  0
   19.3801  -29.4436    1.9788 N   0  0  0  0  0  0  0  0  0  0  0  0
   18.8593  -30.6593    2.5537 C   0  0  0  0  0  0  0  0  0  0  0  0
   18.8324  -30.5375    4.0182 C   0  0  0  0  0  0  0  0  0  0  0  0
   18.4924  -31.6053    4.8474 O   0  0  0  0  0  0  0  0  0  0  0  0
   19.1162  -29.4611    4.5762 O   0  0  0  0  0  0  0  0  0  0  0  0
  2  3  2  0
  2  1  1  0
  4  2  1  0
  5  4  1  0
  5  6  1  6
  7  8  2  0
  7  5  1  0
 10  9  1  6
 10 11  1  0
 10 12  1  0
 13 12  1  1
 13 15  1  0
 13 14  1  0
 14  7  1  0
 15 17  1  0
 16 15  2  0
 17 18  1  0
 18 19  1  0
 19 21  2  0
 19 20  1  0
M  END
$$$$
