NLG.pdb
     RDKit          3D

 21 20  0  0  1  0  0  0  0  0999 V2000
   23.5735  -18.3971  -19.0572 N   0  0  0  0  0  0  0  0  0  0  0  0
   24.3871  -19.5259  -19.3204 C   0  0  0  0  0  0  0  0  0  0  0  0
   24.6161  -19.8812  -20.5151 O   0  0  0  0  0  0  0  0  0  0  0  0
   24.9774  -20.2995  -18.1805 C   0  0  0  0  0  0  0  0  0  0  0  0
   24.4735  -19.6880  -16.8918 C   0  0  2  0  0  0  0  0  0  0  0  0
   25.0974  -18.4053  -16.6999 N   0  0  0  0  0  0  0  0  0  0  0  0
   24.8160  -20.6116  -15.7735 C   0  0  0  0  0  0  0  0  0  0  0  0
   25.0892  -21.8210  -15.9904 O   0  0  0  0  0  0  0  0  0  0  0  0
   28.8871  -19.7081  -12.9004 C   0  0  0  0  0  0  0  0  0  0  0  0
   27.7870  -20.5009  -13.6801 C   0  0  1  0  0  0  0  0  0  0  0  0
   28.3407  -21.9310  -13.8076 C   0  0  0  0  0  0  0  0  0  0  0  0
   26.5630  -20.4111  -12.8610 C   0  0  0  0  0  0  0  0  0  0  0  0
   25.3113  -21.0613  -13.3262 C   0  0  2  0  0  0  0  0  0  0  0  0
   24.8451  -20.1650  -14.4442 N   0  0  0  0  0  0  0  0  0  0  0  0
   24.1832  -21.1264  -12.4200 C   0  0  0  0  0  0  0  0  0  0  0  0
   24.2930  -21.6063  -11.2655 O   0  0  0  0  0  0  0  0  0  0  0  0
   22.8879  -20.6423  -12.7828 N   0  0  0  0  0  0  0  0  0  0  0  0
   21.7967  -20.7162  -11.8428 C   0  0  0  0  0  0  0  0  0  0  0  0
   20.5781  -20.1754  -12.4618 C   0  0  0  0  0  0  0  0  0  0  0  0
   20.5392  -19.7656  -13.7936 O   0  0  0  0  0  0  0  0  0  0  0  0
   19.5241  -20.0633  -11.8083 O   0  0  0  0  0  0  0  0  0  0  0  0
  2  3  2  0
  2  1  1  0
  4  2  1  0
  5  4  1  0
  5  6  1  1
  7  8  2  0
  7  5  1  0
 10  9  1  1
 10 11  1  0
 10 12  1  0
 13 12  1  1
 13 15  1  0
 13 14  1  0
 14  7  1  0
 15 17  1  0
 16 15  2  0
 17 18  1  0
 18 19  1  0
 19 21  2  0
 19 20  1  0
M  END
$$$$
