NLG.pdb
     RDKit          3D

 21 20  0  0  1  0  0  0  0  0999 V2000
   22.9425  -11.6017  -17.9777 N   0  0  0  0  0  0  0  0  0  0  0  0
   22.8366  -10.2571  -18.4096 C   0  0  0  0  0  0  0  0  0  0  0  0
   23.6824   -9.7817  -19.2249 O   0  0  0  0  0  0  0  0  0  0  0  0
   21.7201   -9.3975  -17.8992 C   0  0  0  0  0  0  0  0  0  0  0  0
   20.9078  -10.2196  -16.9229 C   0  0  2  0  0  0  0  0  0  0  0  0
   20.0633  -11.1266  -17.6546 N   0  0  0  0  0  0  0  0  0  0  0  0
   20.0880   -9.2871  -16.0987 C   0  0  0  0  0  0  0  0  0  0  0  0
   19.0043   -8.8173  -16.5337 O   0  0  0  0  0  0  0  0  0  0  0  0
   17.0245   -7.9105  -12.3836 C   0  0  0  0  0  0  0  0  0  0  0  0
   18.4061   -8.2788  -11.7495 C   0  0  1  0  0  0  0  0  0  0  0  0
   18.0775   -9.2887  -10.6360 C   0  0  0  0  0  0  0  0  0  0  0  0
   19.2175   -8.8470  -12.8432 C   0  0  0  0  0  0  0  0  0  0  0  0
   19.6557   -7.9808  -13.9672 C   0  0  2  0  0  0  0  0  0  0  0  0
   20.4960   -8.9023  -14.8131 N   0  0  0  0  0  0  0  0  0  0  0  0
   20.5253   -6.8580  -13.6817 C   0  0  0  0  0  0  0  0  0  0  0  0
   21.7013   -7.0229  -13.2753 O   0  0  0  0  0  0  0  0  0  0  0  0
   20.0999   -5.5042  -13.8538 N   0  0  0  0  0  0  0  0  0  0  0  0
   20.9726   -4.4173  -13.4838 C   0  0  0  0  0  0  0  0  0  0  0  0
   21.6641   -3.9142  -14.6792 C   0  0  0  0  0  0  0  0  0  0  0  0
   22.4141   -2.7392  -14.6655 O   0  0  0  0  0  0  0  0  0  0  0  0
   21.6027   -4.5289  -15.7604 O   0  0  0  0  0  0  0  0  0  0  0  0
  2  3  2  0
  2  1  1  0
  4  2  1  0
  5  4  1  0
  5  6  1  6
  7  8  2  0
  7  5  1  0
 10  9  1  6
 10 11  1  0
 10 12  1  0
 13 12  1  1
 13 15  1  0
 13 14  1  0
 14  7  1  0
 15 17  1  0
 16 15  2  0
 17 18  1  0
 18 19  1  0
 19 21  2  0
 19 20  1  0
M  END
$$$$
