NLG.pdb
     RDKit          3D

 21 20  0  0  1  0  0  0  0  0999 V2000
   27.2087  -14.3778  -21.0560 N   0  0  0  0  0  0  0  0  0  0  0  0
   27.5569  -14.4696  -19.6863 C   0  0  0  0  0  0  0  0  0  0  0  0
   27.2981  -15.5242  -19.0327 O   0  0  0  0  0  0  0  0  0  0  0  0
   28.2332  -13.3149  -19.0116 C   0  0  0  0  0  0  0  0  0  0  0  0
   28.3157  -12.1775  -20.0057 C   0  0  2  0  0  0  0  0  0  0  0  0
   29.2228  -12.5371  -21.0635 N   0  0  0  0  0  0  0  0  0  0  0  0
   28.8007  -10.9655  -19.2868 C   0  0  0  0  0  0  0  0  0  0  0  0
   28.1876  -10.5167  -18.2832 O   0  0  0  0  0  0  0  0  0  0  0  0
   33.8572  -10.6061  -17.8375 C   0  0  0  0  0  0  0  0  0  0  0  0
   32.2957  -10.5238  -17.7977 C   0  0  1  0  0  0  0  0  0  0  0  0
   31.9497  -10.2171  -16.3299 C   0  0  0  0  0  0  0  0  0  0  0  0
   31.9209   -9.4450  -18.7319 C   0  0  0  0  0  0  0  0  0  0  0  0
   30.4894   -9.1051  -18.9347 C   0  0  2  0  0  0  0  0  0  0  0  0
   29.9543  -10.2854  -19.7037 N   0  0  0  0  0  0  0  0  0  0  0  0
   30.1563   -7.9581  -19.7541 C   0  0  0  0  0  0  0  0  0  0  0  0
   30.3736   -7.9468  -20.9903 O   0  0  0  0  0  0  0  0  0  0  0  0
   29.5560   -6.7817  -19.2071 N   0  0  0  0  0  0  0  0  0  0  0  0
   29.2702   -5.6516  -20.0561 C   0  0  0  0  0  0  0  0  0  0  0  0
   27.9038   -5.7679  -20.5850 C   0  0  0  0  0  0  0  0  0  0  0  0
   26.8401   -5.0312  -20.0663 O   0  0  0  0  0  0  0  0  0  0  0  0
   27.6460   -6.5395  -21.5278 O   0  0  0  0  0  0  0  0  0  0  0  0
  2  3  2  0
  2  1  1  0
  4  2  1  0
  5  4  1  0
  5  6  1  6
  7  8  2  0
  7  5  1  0
 10  9  1  1
 10 11  1  0
 10 12  1  0
 13 12  1  6
 13 15  1  0
 13 14  1  0
 14  7  1  0
 15 17  1  0
 16 15  2  0
 17 18  1  0
 18 19  1  0
 19 21  2  0
 19 20  1  0
M  END
$$$$
