NLG.pdb
     RDKit          3D

 21 20  0  0  1  0  0  0  0  0999 V2000
   28.6847  -18.7430  -17.8278 N   0  0  0  0  0  0  0  0  0  0  0  0
   29.1927  -19.9903  -17.3896 C   0  0  0  0  0  0  0  0  0  0  0  0
   30.2313  -20.4790  -17.9267 O   0  0  0  0  0  0  0  0  0  0  0  0
   28.4976  -20.7309  -16.2876 C   0  0  0  0  0  0  0  0  0  0  0  0
   27.3268  -19.8905  -15.8275 C   0  0  2  0  0  0  0  0  0  0  0  0
   27.8150  -18.6371  -15.3154 N   0  0  0  0  0  0  0  0  0  0  0  0
   26.6011  -20.6447  -14.7667 C   0  0  0  0  0  0  0  0  0  0  0  0
   26.2203  -21.8293  -14.9569 O   0  0  0  0  0  0  0  0  0  0  0  0
   26.6761  -20.5553   -8.8389 C   0  0  0  0  0  0  0  0  0  0  0  0
   25.8153  -21.1873   -9.9817 C   0  0  1  0  0  0  0  0  0  0  0  0
   24.3552  -20.9842   -9.5402 C   0  0  0  0  0  0  0  0  0  0  0  0
   26.1692  -20.4529  -11.2117 C   0  0  0  0  0  0  0  0  0  0  0  0
   25.4882  -20.7790  -12.4906 C   0  0  2  0  0  0  0  0  0  0  0  0
   26.3184  -20.0610  -13.5230 N   0  0  0  0  0  0  0  0  0  0  0  0
   24.1415  -20.2905  -12.7056 C   0  0  0  0  0  0  0  0  0  0  0  0
   23.8812  -19.0628  -12.7207 O   0  0  0  0  0  0  0  0  0  0  0  0
   23.0380  -21.1734  -12.9207 N   0  0  0  0  0  0  0  0  0  0  0  0
   21.7141  -20.6416  -13.1307 C   0  0  0  0  0  0  0  0  0  0  0  0
   20.7714  -21.7463  -13.3572 C   0  0  0  0  0  0  0  0  0  0  0  0
   19.4042  -21.5345  -13.5277 O   0  0  0  0  0  0  0  0  0  0  0  0
   21.1675  -22.9259  -13.4050 O   0  0  0  0  0  0  0  0  0  0  0  0
  2  3  2  0
  2  1  1  0
  4  2  1  0
  5  4  1  0
  5  6  1  1
  7  8  2  0
  7  5  1  0
 10  9  1  1
 10 11  1  0
 10 12  1  0
 13 12  1  1
 13 15  1  0
 13 14  1  0
 14  7  1  0
 15 17  1  0
 16 15  2  0
 17 18  1  0
 18 19  1  0
 19 21  2  0
 19 20  1  0
M  END
$$$$
