NLG.pdb
     RDKit          3D

 21 20  0  0  1  0  0  0  0  0999 V2000
   28.0411  -23.2196  -16.3950 N   0  0  0  0  0  0  0  0  0  0  0  0
   26.7146  -23.3292  -16.8788 C   0  0  0  0  0  0  0  0  0  0  0  0
   26.4873  -23.8896  -17.9926 O   0  0  0  0  0  0  0  0  0  0  0  0
   25.5795  -22.7801  -16.0688 C   0  0  0  0  0  0  0  0  0  0  0  0
   25.5179  -23.5525  -14.7694 C   0  0  2  0  0  0  0  0  0  0  0  0
   25.1310  -24.9114  -15.0435 N   0  0  0  0  0  0  0  0  0  0  0  0
   24.5203  -22.8908  -13.8817 C   0  0  0  0  0  0  0  0  0  0  0  0
   23.3375  -23.3144  -13.8048 O   0  0  0  0  0  0  0  0  0  0  0  0
   25.9384  -20.0134   -9.2460 C   0  0  0  0  0  0  0  0  0  0  0  0
   25.1308  -21.0531  -10.0906 C   0  0  1  0  0  0  0  0  0  0  0  0
   24.0106  -21.5425   -9.1558 C   0  0  0  0  0  0  0  0  0  0  0  0
   24.6372  -20.3216  -11.2732 C   0  0  0  0  0  0  0  0  0  0  0  0
   23.8315  -21.0310  -12.2996 C   0  0  2  0  0  0  0  0  0  0  0  0
   24.8654  -21.7760  -13.1037 N   0  0  0  0  0  0  0  0  0  0  0  0
   23.1071  -20.2471  -13.2789 C   0  0  0  0  0  0  0  0  0  0  0  0
   23.7032  -19.5427  -14.1297 O   0  0  0  0  0  0  0  0  0  0  0  0
   21.6789  -20.2370  -13.3387 N   0  0  0  0  0  0  0  0  0  0  0  0
   21.0021  -19.5151  -14.3878 C   0  0  0  0  0  0  0  0  0  0  0  0
   19.5773  -19.8759  -14.3917 C   0  0  0  0  0  0  0  0  0  0  0  0
   18.6454  -19.2177  -15.1928 O   0  0  0  0  0  0  0  0  0  0  0  0
   19.1478  -20.7948  -13.6694 O   0  0  0  0  0  0  0  0  0  0  0  0
  2  3  2  0
  2  1  1  0
  4  2  1  0
  5  4  1  0
  5  6  1  6
  7  8  2  0
  7  5  1  0
 10  9  1  1
 10 11  1  0
 10 12  1  0
 13 12  1  1
 13 15  1  0
 13 14  1  0
 14  7  1  0
 15 17  1  0
 16 15  2  0
 17 18  1  0
 18 19  1  0
 19 21  2  0
 19 20  1  0
M  END
$$$$
