NLG.pdb
     RDKit          3D

 21 20  0  0  1  0  0  0  0  0999 V2000
   16.5138  -12.2584  -18.3163 N   0  0  0  0  0  0  0  0  0  0  0  0
   17.5663  -13.1707  -18.0598 C   0  0  0  0  0  0  0  0  0  0  0  0
   17.3392  -14.4174  -18.0459 O   0  0  0  0  0  0  0  0  0  0  0  0
   18.9508  -12.6565  -17.8050 C   0  0  0  0  0  0  0  0  0  0  0  0
   18.8969  -11.1447  -17.8210 C   0  0  2  0  0  0  0  0  0  0  0  0
   19.4641  -10.6631  -19.0529 N   0  0  0  0  0  0  0  0  0  0  0  0
   19.6715  -10.6391  -16.6526 C   0  0  0  0  0  0  0  0  0  0  0  0
   19.3162  -10.9033  -15.4743 O   0  0  0  0  0  0  0  0  0  0  0  0
   23.6711  -10.0709  -13.4699 C   0  0  0  0  0  0  0  0  0  0  0  0
   24.0241   -9.5268  -14.8932 C   0  0  1  0  0  0  0  0  0  0  0  0
   25.3752  -10.1744  -15.2442 C   0  0  0  0  0  0  0  0  0  0  0  0
   22.9190   -9.9479  -15.7757 C   0  0  0  0  0  0  0  0  0  0  0  0
   21.5841   -9.3098  -15.6467 C   0  0  2  0  0  0  0  0  0  0  0  0
   20.8202   -9.8532  -16.8265 N   0  0  0  0  0  0  0  0  0  0  0  0
   21.4849   -7.8711  -15.7828 C   0  0  0  0  0  0  0  0  0  0  0  0
   21.8621   -7.2809  -16.8242 O   0  0  0  0  0  0  0  0  0  0  0  0
   20.9465   -7.0450  -14.7478 N   0  0  0  0  0  0  0  0  0  0  0  0
   20.8762   -5.6154  -14.9238 C   0  0  0  0  0  0  0  0  0  0  0  0
   22.0920   -4.9935  -14.3803 C   0  0  0  0  0  0  0  0  0  0  0  0
   23.1094   -5.7409  -13.7892 O   0  0  0  0  0  0  0  0  0  0  0  0
   22.2569   -3.7602  -14.4299 O   0  0  0  0  0  0  0  0  0  0  0  0
  2  3  2  0
  2  1  1  0
  4  2  1  0
  5  4  1  0
  5  6  1  6
  7  8  2  0
  7  5  1  0
 10  9  1  1
 10 11  1  0
 10 12  1  0
 13 12  1  6
 13 15  1  0
 13 14  1  0
 14  7  1  0
 15 17  1  0
 16 15  2  0
 17 18  1  0
 18 19  1  0
 19 21  2  0
 19 20  1  0
M  END
$$$$
