QMK.pdb
     RDKit          3D

 27 26  0  0  1  0  0  0  0  0999 V2000
   12.6398  -22.8786   -3.4083 N   0  0  0  0  0  0  0  0  0  0  0  0
   13.5379  -23.9410   -3.8121 C   0  0  0  0  0  0  0  0  0  0  0  0
   13.4868  -24.2566   -5.0158 O   0  0  0  0  0  0  0  0  0  0  0  0
   14.3940  -24.5112   -2.7709 C   0  0  0  0  0  0  0  0  0  0  0  0
   14.2360  -23.8746   -1.4356 C   0  0  0  0  0  0  0  0  0  0  0  0
   15.1363  -22.6931   -1.2146 C   0  0  2  0  0  0  0  0  0  0  0  0
   16.4633  -22.8203   -1.6946 N   0  0  0  0  0  0  0  0  0  0  0  0
   15.1984  -22.4283    0.2645 C   0  0  0  0  0  0  0  0  0  0  0  0
   14.1354  -22.3486    0.9419 O   0  0  0  0  0  0  0  0  0  0  0  0
   20.1422  -25.9461    3.4372 C   0  0  0  0  0  0  0  0  0  0  0  0
   19.8905  -24.1610    3.1966 S   0  0  0  0  0  0  0  0  0  0  0  0
   18.1169  -23.8030    3.0096 C   0  0  0  0  0  0  0  0  0  0  0  0
   17.9464  -22.3525    2.6975 C   0  0  0  0  0  0  0  0  0  0  0  0
   16.5092  -21.9777    2.3913 C   0  0  2  0  0  0  0  0  0  0  0  0
   16.4053  -22.2620    0.9429 N   0  0  0  0  0  0  0  0  0  0  0  0
   16.2323  -20.5832    2.6635 C   0  0  0  0  0  0  0  0  0  0  0  0
   16.7424  -19.6955    1.9313 O   0  0  0  0  0  0  0  0  0  0  0  0
   15.4080  -20.1517    3.7118 N   0  0  0  0  0  0  0  0  0  0  0  0
   15.1790  -18.7181    3.9735 C   0  0  1  0  0  0  0  0  0  0  0  0
   13.6942  -18.4564    4.0557 C   0  0  0  0  0  0  0  0  0  0  0  0
   13.3814  -17.0274    4.4090 C   0  0  0  0  0  0  0  0  0  0  0  0
   11.8622  -16.8379    4.5244 C   0  0  0  0  0  0  0  0  0  0  0  0
   11.6254  -15.3784    4.8187 C   0  0  0  0  0  0  0  0  0  0  0  0
   10.2060  -15.1213    5.0175 N   0  0  0  0  0  0  0  0  0  0  0  0
   15.8894  -18.2878    5.1771 C   0  0  0  0  0  0  0  0  0  0  0  0
   16.1893  -19.1344    6.0559 O   0  0  0  0  0  0  0  0  0  0  0  0
   16.2610  -16.9819    5.4117 O   0  0  0  0  0  0  0  0  0  0  0  0
  2  1  1  0
  2  3  2  0
  4  5  1  0
  4  2  1  0
  5  6  1  0
  6  7  1  1
  8  6  1  0
  8  9  2  0
 11 12  1  0
 11 10  1  0
 14 13  1  6
 13 12  1  0
 15 14  1  0
 15  8  1  0
 16 14  1  0
 17 16  2  0
 18 16  1  0
 19 25  1  0
 19 18  1  0
 19 20  1  1
 21 20  1  0
 22 21  1  0
 23 22  1  0
 23 24  1  0
 25 27  1  0
 26 25  2  0
M  END
$$$$
