QMK.pdb
     RDKit          3D

 27 26  0  0  1  0  0  0  0  0999 V2000
   13.8711  -12.1593  -17.7378 N   0  0  0  0  0  0  0  0  0  0  0  0
   14.1130  -12.9016  -18.9580 C   0  0  0  0  0  0  0  0  0  0  0  0
   13.1308  -13.5170  -19.4138 O   0  0  0  0  0  0  0  0  0  0  0  0
   15.4675  -12.8400  -19.5090 C   0  0  0  0  0  0  0  0  0  0  0  0
   16.3859  -11.9332  -18.7691 C   0  0  0  0  0  0  0  0  0  0  0  0
   17.6302  -12.6064  -18.2656 C   0  0  2  0  0  0  0  0  0  0  0  0
   17.4426  -13.8252  -17.5678 N   0  0  0  0  0  0  0  0  0  0  0  0
   18.3368  -11.6473  -17.3477 C   0  0  0  0  0  0  0  0  0  0  0  0
   17.9155  -11.4650  -16.1711 O   0  0  0  0  0  0  0  0  0  0  0  0
   24.2344  -10.3000  -13.6033 C   0  0  0  0  0  0  0  0  0  0  0  0
   22.9655  -11.0928  -14.6375 S   0  0  0  0  0  0  0  0  0  0  0  0
   22.7453  -10.1541  -16.1799 C   0  0  0  0  0  0  0  0  0  0  0  0
   21.6751  -10.8046  -16.9936 C   0  0  0  0  0  0  0  0  0  0  0  0
   20.3180  -10.1510  -16.8183 C   0  0  2  0  0  0  0  0  0  0  0  0
   19.4652  -10.9297  -17.7433 N   0  0  0  0  0  0  0  0  0  0  0  0
   20.3287   -8.7503  -17.1835 C   0  0  0  0  0  0  0  0  0  0  0  0
   20.7123   -8.4125  -18.3338 O   0  0  0  0  0  0  0  0  0  0  0  0
   19.9232   -7.7252  -16.3178 N   0  0  0  0  0  0  0  0  0  0  0  0
   20.0259   -6.3047  -16.7023 C   0  0  1  0  0  0  0  0  0  0  0  0
   18.7978   -5.5679  -16.2241 C   0  0  0  0  0  0  0  0  0  0  0  0
   17.6371   -5.7105  -17.1714 C   0  0  0  0  0  0  0  0  0  0  0  0
   16.4889   -6.4613  -16.4822 C   0  0  0  0  0  0  0  0  0  0  0  0
   15.3141   -6.4239  -17.4262 C   0  0  0  0  0  0  0  0  0  0  0  0
   14.2259   -7.2487  -16.9203 N   0  0  0  0  0  0  0  0  0  0  0  0
   21.2640   -5.7152  -16.1941 C   0  0  0  0  0  0  0  0  0  0  0  0
   21.7741   -6.1611  -15.1359 O   0  0  0  0  0  0  0  0  0  0  0  0
   21.9224   -4.6789  -16.8194 O   0  0  0  0  0  0  0  0  0  0  0  0
  2  1  1  0
  2  3  2  0
  4  5  1  0
  4  2  1  0
  5  6  1  0
  6  7  1  1
  8  6  1  0
  8  9  2  0
 11 12  1  0
 11 10  1  0
 14 13  1  6
 13 12  1  0
 15 14  1  0
 15  8  1  0
 16 14  1  0
 17 16  2  0
 18 16  1  0
 19 25  1  0
 19 18  1  0
 19 20  1  1
 21 20  1  0
 22 21  1  0
 23 22  1  0
 23 24  1  0
 25 27  1  0
 26 25  2  0
M  END
$$$$
