QMK.pdb
     RDKit          3D

 27 26  0  0  1  0  0  0  0  0999 V2000
   16.9373  -10.6352  -14.2623 N   0  0  0  0  0  0  0  0  0  0  0  0
   16.7365  -12.0446  -13.9949 C   0  0  0  0  0  0  0  0  0  0  0  0
   16.7751  -12.7895  -14.9924 O   0  0  0  0  0  0  0  0  0  0  0  0
   16.5177  -12.4257  -12.5988 C   0  0  0  0  0  0  0  0  0  0  0  0
   16.6808  -11.3090  -11.6295 C   0  0  0  0  0  0  0  0  0  0  0  0
   15.6075  -11.2523  -10.5807 C   0  0  2  0  0  0  0  0  0  0  0  0
   14.4741  -12.0734  -10.8014 N   0  0  0  0  0  0  0  0  0  0  0  0
   15.1380   -9.8275  -10.4749 C   0  0  0  0  0  0  0  0  0  0  0  0
   14.2911   -9.3740  -11.2948 O   0  0  0  0  0  0  0  0  0  0  0  0
   10.3685   -7.9903   -6.8598 C   0  0  0  0  0  0  0  0  0  0  0  0
   12.1582   -7.7448   -6.6493 S   0  0  0  0  0  0  0  0  0  0  0  0
   12.9962   -7.8691   -8.2590 C   0  0  0  0  0  0  0  0  0  0  0  0
   14.4337   -7.5028   -8.0857 C   0  0  0  0  0  0  0  0  0  0  0  0
   15.2140   -7.5358   -9.3856 C   0  0  2  0  0  0  0  0  0  0  0  0
   15.6050   -8.9591   -9.4888 N   0  0  0  0  0  0  0  0  0  0  0  0
   16.3824   -6.6820   -9.3499 C   0  0  0  0  0  0  0  0  0  0  0  0
   17.4671   -7.1342   -8.8988 O   0  0  0  0  0  0  0  0  0  0  0  0
   16.3815   -5.3555   -9.8025 N   0  0  0  0  0  0  0  0  0  0  0  0
   17.6080   -4.7129  -10.3115 C   0  0  1  0  0  0  0  0  0  0  0  0
   18.2536   -5.6121  -11.3383 C   0  0  0  0  0  0  0  0  0  0  0  0
   19.4789   -4.9930  -11.9548 C   0  0  0  0  0  0  0  0  0  0  0  0
   20.1300   -5.9830  -12.9312 C   0  0  0  0  0  0  0  0  0  0  0  0
   21.4319   -5.3660  -13.3751 C   0  0  0  0  0  0  0  0  0  0  0  0
   22.4720   -5.5988  -12.3829 N   0  0  0  0  0  0  0  0  0  0  0  0
   17.3178   -3.3805  -10.8397 C   0  0  0  0  0  0  0  0  0  0  0  0
   18.2609   -2.5757  -11.0439 O   0  0  0  0  0  0  0  0  0  0  0  0
   16.0452   -2.9435  -11.1365 O   0  0  0  0  0  0  0  0  0  0  0  0
  2  1  1  0
  2  3  2  0
  4  5  1  0
  4  2  1  0
  5  6  1  0
  6  7  1  6
  8  6  1  0
  8  9  2  0
 11 12  1  0
 11 10  1  0
 14 13  1  1
 13 12  1  0
 15 14  1  0
 15  8  1  0
 16 14  1  0
 17 16  2  0
 18 16  1  0
 19 25  1  0
 19 18  1  0
 19 20  1  6
 21 20  1  0
 22 21  1  0
 23 22  1  0
 23 24  1  0
 25 27  1  0
 26 25  2  0
M  END
$$$$
