QMK.pdb
     RDKit          3D

 27 26  0  0  1  0  0  0  0  0999 V2000
   26.3050  -39.8813  -12.0919 N   0  0  0  0  0  0  0  0  0  0  0  0
   25.0190  -40.3022  -11.5750 C   0  0  0  0  0  0  0  0  0  0  0  0
   24.3742  -41.0752  -12.3084 O   0  0  0  0  0  0  0  0  0  0  0  0
   24.6326  -39.7788  -10.2639 C   0  0  0  0  0  0  0  0  0  0  0  0
   25.5878  -38.7890   -9.6972 C   0  0  0  0  0  0  0  0  0  0  0  0
   25.0733  -37.3782   -9.6970 C   0  0  2  0  0  0  0  0  0  0  0  0
   24.8907  -36.7795  -10.9681 N   0  0  0  0  0  0  0  0  0  0  0  0
   26.0417  -36.5321   -8.9174 C   0  0  0  0  0  0  0  0  0  0  0  0
   27.2291  -36.3868   -9.3225 O   0  0  0  0  0  0  0  0  0  0  0  0
   25.0352  -30.8060   -6.8012 C   0  0  0  0  0  0  0  0  0  0  0  0
   25.3825  -31.3686   -8.4955 S   0  0  0  0  0  0  0  0  0  0  0  0
   26.1748  -33.0055   -8.4568 C   0  0  0  0  0  0  0  0  0  0  0  0
   25.9145  -33.6378   -7.1290 C   0  0  0  0  0  0  0  0  0  0  0  0
   26.5842  -34.9897   -6.9755 C   0  0  2  0  0  0  0  0  0  0  0  0
   25.6827  -35.8823   -7.7369 N   0  0  0  0  0  0  0  0  0  0  0  0
   26.6746  -35.4070   -5.5924 C   0  0  0  0  0  0  0  0  0  0  0  0
   25.6254  -35.7095   -4.9663 O   0  0  0  0  0  0  0  0  0  0  0  0
   27.8861  -35.5030   -4.8941 N   0  0  0  0  0  0  0  0  0  0  0  0
   27.9210  -35.7176   -3.4350 C   0  0  1  0  0  0  0  0  0  0  0  0
   29.3210  -36.1022   -3.0202 C   0  0  0  0  0  0  0  0  0  0  0  0
   29.4407  -36.3212   -1.5361 C   0  0  0  0  0  0  0  0  0  0  0  0
   30.8560  -36.8065   -1.1918 C   0  0  0  0  0  0  0  0  0  0  0  0
   30.8906  -37.0290    0.2989 C   0  0  0  0  0  0  0  0  0  0  0  0
   32.1934  -37.5330    0.7100 N   0  0  0  0  0  0  0  0  0  0  0  0
   27.4317  -34.5380   -2.7226 C   0  0  0  0  0  0  0  0  0  0  0  0
   26.9527  -34.6655   -1.5680 O   0  0  0  0  0  0  0  0  0  0  0  0
   27.4664  -33.2655   -3.2501 O   0  0  0  0  0  0  0  0  0  0  0  0
  2  1  1  0
  2  3  2  0
  4  5  1  0
  4  2  1  0
  5  6  1  0
  6  7  1  6
  8  6  1  0
  8  9  2  0
 11 12  1  0
 11 10  1  0
 14 13  1  1
 13 12  1  0
 15 14  1  0
 15  8  1  0
 16 14  1  0
 17 16  2  0
 18 16  1  0
 19 25  1  0
 19 18  1  0
 19 20  1  1
 21 20  1  0
 22 21  1  0
 23 22  1  0
 23 24  1  0
 25 27  1  0
 26 25  2  0
M  END
$$$$
