QMK.pdb
     RDKit          3D

 27 26  0  0  1  0  0  0  0  0999 V2000
   28.0718  -22.8398  -17.7170 N   0  0  0  0  0  0  0  0  0  0  0  0
   29.1670  -21.9066  -17.5498 C   0  0  0  0  0  0  0  0  0  0  0  0
   29.8324  -21.6727  -18.5763 O   0  0  0  0  0  0  0  0  0  0  0  0
   29.3600  -21.3506  -16.2098 C   0  0  0  0  0  0  0  0  0  0  0  0
   28.3265  -21.7651  -15.2232 C   0  0  0  0  0  0  0  0  0  0  0  0
   27.3079  -20.7023  -14.9264 C   0  0  2  0  0  0  0  0  0  0  0  0
   27.8076  -19.4910  -14.3874 N   0  0  0  0  0  0  0  0  0  0  0  0
   26.3145  -21.2721  -13.9516 C   0  0  0  0  0  0  0  0  0  0  0  0
   25.7666  -22.3869  -14.1798 O   0  0  0  0  0  0  0  0  0  0  0  0
   28.2791  -20.5709   -7.5139 C   0  0  0  0  0  0  0  0  0  0  0  0
   26.7510  -19.9960   -8.3150 S   0  0  0  0  0  0  0  0  0  0  0  0
   26.4476  -20.9512   -9.8329 C   0  0  0  0  0  0  0  0  0  0  0  0
   25.2823  -20.3571  -10.5538 C   0  0  0  0  0  0  0  0  0  0  0  0
   24.9332  -21.1003  -11.8287 C   0  0  2  0  0  0  0  0  0  0  0  0
   25.9592  -20.6114  -12.7761 N   0  0  0  0  0  0  0  0  0  0  0  0
   23.6023  -20.7865  -12.3038 C   0  0  0  0  0  0  0  0  0  0  0  0
   23.3067  -19.5938  -12.5768 O   0  0  0  0  0  0  0  0  0  0  0  0
   22.6026  -21.7515  -12.4883 N   0  0  0  0  0  0  0  0  0  0  0  0
   21.3567  -21.4426  -13.2153 C   0  0  1  0  0  0  0  0  0  0  0  0
   21.1060  -22.5107  -14.2527 C   0  0  0  0  0  0  0  0  0  0  0  0
   19.7568  -22.3726  -14.9050 C   0  0  0  0  0  0  0  0  0  0  0  0
   19.9274  -22.0969  -16.4057 C   0  0  0  0  0  0  0  0  0  0  0  0
   18.5446  -21.9015  -16.9736 C   0  0  0  0  0  0  0  0  0  0  0  0
   18.6188  -21.4925  -18.3691 N   0  0  0  0  0  0  0  0  0  0  0  0
   20.2360  -21.2906  -12.2882 C   0  0  0  0  0  0  0  0  0  0  0  0
   20.2280  -21.9415  -11.2134 O   0  0  0  0  0  0  0  0  0  0  0  0
   19.1648  -20.4568  -12.5243 O   0  0  0  0  0  0  0  0  0  0  0  0
  2  1  1  0
  2  3  2  0
  4  5  1  0
  4  2  1  0
  5  6  1  0
  6  7  1  1
  8  6  1  0
  8  9  2  0
 11 12  1  0
 11 10  1  0
 14 13  1  1
 13 12  1  0
 15 14  1  0
 15  8  1  0
 16 14  1  0
 17 16  2  0
 18 16  1  0
 19 25  1  0
 19 18  1  0
 19 20  1  6
 21 20  1  0
 22 21  1  0
 23 22  1  0
 23 24  1  0
 25 27  1  0
 26 25  2  0
M  END
$$$$
