QMK.pdb
     RDKit          3D

 27 26  0  0  1  0  0  0  0  0999 V2000
   17.9499  -12.7591  -16.2184 N   0  0  0  0  0  0  0  0  0  0  0  0
   18.3399  -13.6330  -17.3058 C   0  0  0  0  0  0  0  0  0  0  0  0
   17.4609  -14.4225  -17.6996 O   0  0  0  0  0  0  0  0  0  0  0  0
   19.7053  -13.4857  -17.8119 C   0  0  0  0  0  0  0  0  0  0  0  0
   20.5145  -12.4641  -17.0945 C   0  0  0  0  0  0  0  0  0  0  0  0
   21.9393  -12.3791  -17.5612 C   0  0  2  0  0  0  0  0  0  0  0  0
   22.6829  -13.5845  -17.5214 N   0  0  0  0  0  0  0  0  0  0  0  0
   22.6474  -11.3655  -16.7050 C   0  0  0  0  0  0  0  0  0  0  0  0
   22.5011  -11.3786  -15.4506 O   0  0  0  0  0  0  0  0  0  0  0  0
   27.8903  -12.1683  -15.0706 C   0  0  0  0  0  0  0  0  0  0  0  0
   26.8815  -10.6678  -15.2666 S   0  0  0  0  0  0  0  0  0  0  0  0
   26.3444  -10.5015  -16.9964 C   0  0  0  0  0  0  0  0  0  0  0  0
   25.5255   -9.2598  -17.1315 C   0  0  0  0  0  0  0  0  0  0  0  0
   24.1801   -9.3594  -16.4388 C   0  0  2  0  0  0  0  0  0  0  0  0
   23.4804  -10.3853  -17.2434 N   0  0  0  0  0  0  0  0  0  0  0  0
   23.4550   -8.1068  -16.4584 C   0  0  0  0  0  0  0  0  0  0  0  0
   23.2326   -7.5363  -17.5582 O   0  0  0  0  0  0  0  0  0  0  0  0
   22.9694   -7.4795  -15.3028 N   0  0  0  0  0  0  0  0  0  0  0  0
   22.2573   -6.1890  -15.3665 C   0  0  1  0  0  0  0  0  0  0  0  0
   20.8507   -6.4190  -15.8650 C   0  0  0  0  0  0  0  0  0  0  0  0
   20.0392   -5.1521  -15.8995 C   0  0  0  0  0  0  0  0  0  0  0  0
   18.6358   -5.4450  -16.4490 C   0  0  0  0  0  0  0  0  0  0  0  0
   17.9510   -4.1140  -16.6291 C   0  0  0  0  0  0  0  0  0  0  0  0
   16.6449   -4.2913  -17.2479 N   0  0  0  0  0  0  0  0  0  0  0  0
   22.2869   -5.5127  -14.0703 C   0  0  0  0  0  0  0  0  0  0  0  0
   22.0240   -4.2857  -14.0051 O   0  0  0  0  0  0  0  0  0  0  0  0
   22.5898   -6.1527  -12.8883 O   0  0  0  0  0  0  0  0  0  0  0  0
  2  1  1  0
  2  3  2  0
  4  5  1  0
  4  2  1  0
  5  6  1  0
  6  7  1  1
  8  6  1  0
  8  9  2  0
 11 12  1  0
 11 10  1  0
 14 13  1  6
 13 12  1  0
 15 14  1  0
 15  8  1  0
 16 14  1  0
 17 16  2  0
 18 16  1  0
 19 25  1  0
 19 18  1  0
 19 20  1  1
 21 20  1  0
 22 21  1  0
 23 22  1  0
 23 24  1  0
 25 27  1  0
 26 25  2  0
M  END
$$$$
