QMK.pdb
     RDKit          3D

 27 26  0  0  1  0  0  0  0  0999 V2000
   16.6688  -14.6475  -14.9880 N   0  0  0  0  0  0  0  0  0  0  0  0
   16.1329  -14.3246  -16.2944 C   0  0  0  0  0  0  0  0  0  0  0  0
   15.1886  -15.0406  -16.6776 O   0  0  0  0  0  0  0  0  0  0  0  0
   16.7542  -13.2047  -17.0029 C   0  0  0  0  0  0  0  0  0  0  0  0
   17.8315  -12.5215  -16.2375 C   0  0  0  0  0  0  0  0  0  0  0  0
   18.4550  -11.3652  -16.9649 C   0  0  2  0  0  0  0  0  0  0  0  0
   19.0934  -11.6702  -18.1925 N   0  0  0  0  0  0  0  0  0  0  0  0
   19.4732  -10.7387  -16.0525 C   0  0  0  0  0  0  0  0  0  0  0  0
   19.1407  -10.3548  -14.8961 O   0  0  0  0  0  0  0  0  0  0  0  0
   27.2172  -10.5761  -14.8416 C   0  0  0  0  0  0  0  0  0  0  0  0
   25.7407  -11.1232  -15.7518 S   0  0  0  0  0  0  0  0  0  0  0  0
   24.3039  -10.1187  -15.2668 C   0  0  0  0  0  0  0  0  0  0  0  0
   23.0944  -10.6285  -15.9794 C   0  0  0  0  0  0  0  0  0  0  0  0
   21.8236   -9.9022  -15.5830 C   0  0  2  0  0  0  0  0  0  0  0  0
   20.8027  -10.5559  -16.4314 N   0  0  0  0  0  0  0  0  0  0  0  0
   21.8902   -8.4827  -15.8587 C   0  0  0  0  0  0  0  0  0  0  0  0
   22.0656   -8.0884  -17.0411 O   0  0  0  0  0  0  0  0  0  0  0  0
   21.7622   -7.4988  -14.8688 N   0  0  0  0  0  0  0  0  0  0  0  0
   21.7330   -6.0631  -15.2069 C   0  0  1  0  0  0  0  0  0  0  0  0
   20.2998   -5.6190  -15.3762 C   0  0  0  0  0  0  0  0  0  0  0  0
   20.1800   -4.1343  -15.5909 C   0  0  0  0  0  0  0  0  0  0  0  0
   18.6993   -3.7325  -15.6505 C   0  0  0  0  0  0  0  0  0  0  0  0
   18.6599   -2.2487  -15.9143 C   0  0  0  0  0  0  0  0  0  0  0  0
   17.2973   -1.8148  -16.1888 N   0  0  0  0  0  0  0  0  0  0  0  0
   22.4464   -5.2761  -14.2018 C   0  0  0  0  0  0  0  0  0  0  0  0
   22.5165   -5.6971  -13.0200 O   0  0  0  0  0  0  0  0  0  0  0  0
   23.0630   -4.0750  -14.4772 O   0  0  0  0  0  0  0  0  0  0  0  0
  2  1  1  0
  2  3  2  0
  4  5  1  0
  4  2  1  0
  5  6  1  0
  6  7  1  6
  8  6  1  0
  8  9  2  0
 11 12  1  0
 11 10  1  0
 14 13  1  6
 13 12  1  0
 15 14  1  0
 15  8  1  0
 16 14  1  0
 17 16  2  0
 18 16  1  0
 19 25  1  0
 19 18  1  0
 19 20  1  1
 21 20  1  0
 22 21  1  0
 23 22  1  0
 23 24  1  0
 25 27  1  0
 26 25  2  0
M  END
$$$$
