QMK.pdb
     RDKit          3D

 27 26  0  0  1  0  0  0  0  0999 V2000
   27.5742  -16.8776  -14.4249 N   0  0  0  0  0  0  0  0  0  0  0  0
   28.1249  -17.3711  -15.6705 C   0  0  0  0  0  0  0  0  0  0  0  0
   28.9198  -16.6039  -16.2455 O   0  0  0  0  0  0  0  0  0  0  0  0
   27.6907  -18.7006  -16.1018 C   0  0  0  0  0  0  0  0  0  0  0  0
   26.8641  -19.4266  -15.1004 C   0  0  0  0  0  0  0  0  0  0  0  0
   27.6494  -20.3626  -14.2273 C   0  0  2  0  0  0  0  0  0  0  0  0
   28.3650  -21.3873  -14.8946 N   0  0  0  0  0  0  0  0  0  0  0  0
   26.6923  -21.0118  -13.2659 C   0  0  0  0  0  0  0  0  0  0  0  0
   26.0850  -22.0708  -13.5901 O   0  0  0  0  0  0  0  0  0  0  0  0
   28.1127  -19.2783   -7.4049 C   0  0  0  0  0  0  0  0  0  0  0  0
   26.8006  -20.5369   -7.3613 S   0  0  0  0  0  0  0  0  0  0  0  0
   26.5509  -21.2324   -9.0234 C   0  0  0  0  0  0  0  0  0  0  0  0
   25.6608  -20.3195   -9.8012 C   0  0  0  0  0  0  0  0  0  0  0  0
   25.2819  -20.8774  -11.1595 C   0  0  2  0  0  0  0  0  0  0  0  0
   26.4358  -20.4874  -11.9995 N   0  0  0  0  0  0  0  0  0  0  0  0
   24.0555  -20.3023  -11.6699 C   0  0  0  0  0  0  0  0  0  0  0  0
   24.1104  -19.3063  -12.4376 O   0  0  0  0  0  0  0  0  0  0  0  0
   22.7830  -20.8015  -11.3598 N   0  0  0  0  0  0  0  0  0  0  0  0
   21.6523  -20.6690  -12.2981 C   0  0  1  0  0  0  0  0  0  0  0  0
   21.7466  -21.7489  -13.3493 C   0  0  0  0  0  0  0  0  0  0  0  0
   20.6370  -21.6629  -14.3623 C   0  0  0  0  0  0  0  0  0  0  0  0
   20.8117  -22.7588  -15.4233 C   0  0  0  0  0  0  0  0  0  0  0  0
   19.6906  -22.5875  -16.4166 C   0  0  0  0  0  0  0  0  0  0  0  0
   19.7689  -23.6047  -17.4556 N   0  0  0  0  0  0  0  0  0  0  0  0
   20.3764  -20.6947  -11.5840 C   0  0  0  0  0  0  0  0  0  0  0  0
   20.2558  -21.4065  -10.5556 O   0  0  0  0  0  0  0  0  0  0  0  0
   19.2735  -19.9681  -11.9766 O   0  0  0  0  0  0  0  0  0  0  0  0
  2  1  1  0
  2  3  2  0
  4  5  1  0
  4  2  1  0
  5  6  1  0
  6  7  1  6
  8  6  1  0
  8  9  2  0
 11 12  1  0
 11 10  1  0
 14 13  1  1
 13 12  1  0
 15 14  1  0
 15  8  1  0
 16 14  1  0
 17 16  2  0
 18 16  1  0
 19 25  1  0
 19 18  1  0
 19 20  1  6
 21 20  1  0
 22 21  1  0
 23 22  1  0
 23 24  1  0
 25 27  1  0
 26 25  2  0
M  END
$$$$
