SMI.pdb
     RDKit          3D

 23 22  0  0  1  0  0  0  0  0999 V2000
   17.7545  -21.3313    3.2002 O   0  0  0  0  0  0  0  0  0  0  0  0
   16.5199  -21.8737    3.5430 C   0  0  0  0  0  0  0  0  0  0  0  0
   15.4293  -21.2392    2.7322 C   0  0  2  0  0  0  0  0  0  0  0  0
   15.6396  -21.5348    1.3369 N   0  0  0  0  0  0  0  0  0  0  0  0
   15.2945  -19.7898    2.9824 C   0  0  0  0  0  0  0  0  0  0  0  0
   15.6027  -18.9197    2.1325 O   0  0  0  0  0  0  0  0  0  0  0  0
   11.4127  -14.8483    7.7884 C   0  0  0  0  0  0  0  0  0  0  0  0
   12.1714  -16.4690    7.4945 S   0  0  0  0  0  0  0  0  0  0  0  0
   13.2013  -16.4232    5.9774 C   0  0  0  0  0  0  0  0  0  0  0  0
   13.6381  -17.8312    5.7146 C   0  0  0  0  0  0  0  0  0  0  0  0
   14.5174  -17.9580    4.4867 C   0  0  2  0  0  0  0  0  0  0  0  0
   14.7955  -19.3530    4.2357 N   0  0  0  0  0  0  0  0  0  0  0  0
   15.8277  -17.3111    4.8578 C   0  0  0  0  0  0  0  0  0  0  0  0
   16.7174  -18.0470    5.2978 O   0  0  0  0  0  0  0  0  0  0  0  0
   19.3178  -13.3747    2.3279 C   0  0  0  0  0  0  0  0  0  0  0  0
   19.0659  -14.5083    3.3359 C   0  0  0  0  0  0  0  0  0  0  0  0
   17.7404  -14.2403    4.0104 C   0  0  2  0  0  0  0  0  0  0  0  0
   17.9900  -12.9982    4.8513 C   0  0  0  0  0  0  0  0  0  0  0  0
   17.2951  -15.3216    4.9334 C   0  0  2  0  0  0  0  0  0  0  0  0
   16.0633  -15.9530    4.7260 N   0  0  0  0  0  0  0  0  0  0  0  0
   17.4779  -14.9492    6.3315 C   0  0  0  0  0  0  0  0  0  0  0  0
   16.3189  -14.7693    7.1205 O   0  0  0  0  0  0  0  0  0  0  0  0
   18.5487  -14.7643    6.9362 O   0  0  0  0  0  0  0  0  0  0  0  0
  2  1  1  0
  3  2  1  0
  3  4  1  6
  3  5  1  0
  5 12  1  0
  5  6  2  0
  7  8  1  0
  8  9  1  0
  9 10  1  0
 11 10  1  1
 11 13  1  0
 12 11  1  0
 13 14  2  0
 16 15  1  0
 17 18  1  1
 17 16  1  0
 19 17  1  0
 20 13  1  0
 19 20  1  1
 21 22  1  0
 21 19  1  0
 23 21  2  0
M  END
$$$$
