SMI.pdb
     RDKit          3D

 23 22  0  0  1  0  0  0  0  0999 V2000
   28.7851  -22.1437  -14.7887 O   0  0  0  0  0  0  0  0  0  0  0  0
   28.4138  -21.1620  -13.8754 C   0  0  0  0  0  0  0  0  0  0  0  0
   26.9198  -21.0942  -13.7626 C   0  0  2  0  0  0  0  0  0  0  0  0
   26.3706  -20.6003  -15.0007 N   0  0  0  0  0  0  0  0  0  0  0  0
   26.4653  -20.3094  -12.5969 C   0  0  0  0  0  0  0  0  0  0  0  0
   26.3251  -19.0628  -12.6270 O   0  0  0  0  0  0  0  0  0  0  0  0
   21.3817  -21.4609  -10.4505 C   0  0  0  0  0  0  0  0  0  0  0  0
   21.7294  -20.4680   -8.9733 S   0  0  0  0  0  0  0  0  0  0  0  0
   23.4954  -19.9736   -8.9408 C   0  0  0  0  0  0  0  0  0  0  0  0
   24.1368  -20.5997  -10.1404 C   0  0  0  0  0  0  0  0  0  0  0  0
   25.6153  -20.2856  -10.2518 C   0  0  2  0  0  0  0  0  0  0  0  0
   26.1721  -20.9860  -11.3858 N   0  0  0  0  0  0  0  0  0  0  0  0
   26.2494  -20.8771   -9.0185 C   0  0  0  0  0  0  0  0  0  0  0  0
   26.4504  -22.0963   -9.0150 O   0  0  0  0  0  0  0  0  0  0  0  0
   30.4790  -19.9470   -4.8177 C   0  0  0  0  0  0  0  0  0  0  0  0
   29.1451  -20.6530   -5.1118 C   0  0  0  0  0  0  0  0  0  0  0  0
   28.5209  -19.9794   -6.3120 C   0  0  2  0  0  0  0  0  0  0  0  0
   28.1850  -18.5784   -5.8254 C   0  0  0  0  0  0  0  0  0  0  0  0
   27.2514  -20.6076   -6.7734 C   0  0  2  0  0  0  0  0  0  0  0  0
   26.6060  -20.1198   -7.9156 N   0  0  0  0  0  0  0  0  0  0  0  0
   26.3153  -20.8076   -5.6732 C   0  0  0  0  0  0  0  0  0  0  0  0
   24.9539  -20.5063   -5.9055 O   0  0  0  0  0  0  0  0  0  0  0  0
   26.5651  -21.2194   -4.5266 O   0  0  0  0  0  0  0  0  0  0  0  0
  2  1  1  0
  3  2  1  0
  3  4  1  6
  3  5  1  0
  5 12  1  0
  5  6  2  0
  7  8  1  0
  8  9  1  0
  9 10  1  0
 11 10  1  1
 11 13  1  0
 12 11  1  0
 13 14  2  0
 16 15  1  0
 17 18  1  1
 17 16  1  0
 19 17  1  0
 20 13  1  0
 19 20  1  6
 21 22  1  0
 21 19  1  0
 23 21  2  0
M  END
$$$$
