SMI.pdb
     RDKit          3D

 23 22  0  0  1  0  0  0  0  0999 V2000
   28.9016  -18.9299  -14.4728 O   0  0  0  0  0  0  0  0  0  0  0  0
   28.1141  -19.4579  -13.4546 C   0  0  0  0  0  0  0  0  0  0  0  0
   28.8407  -20.5696  -12.7577 C   0  0  2  0  0  0  0  0  0  0  0  0
   29.1866  -21.5879  -13.7176 N   0  0  0  0  0  0  0  0  0  0  0  0
   28.0910  -21.1161  -11.6084 C   0  0  0  0  0  0  0  0  0  0  0  0
   27.3208  -22.1020  -11.7035 O   0  0  0  0  0  0  0  0  0  0  0  0
   29.0216  -20.3390   -4.7879 C   0  0  0  0  0  0  0  0  0  0  0  0
   27.6095  -19.3920   -5.4188 S   0  0  0  0  0  0  0  0  0  0  0  0
   26.8519  -20.2564   -6.8482 C   0  0  0  0  0  0  0  0  0  0  0  0
   27.7862  -20.0716   -8.0037 C   0  0  0  0  0  0  0  0  0  0  0  0
   27.3223  -20.7832   -9.2588 C   0  0  2  0  0  0  0  0  0  0  0  0
   28.2422  -20.5060  -10.3374 N   0  0  0  0  0  0  0  0  0  0  0  0
   26.0096  -20.1400   -9.6278 C   0  0  0  0  0  0  0  0  0  0  0  0
   26.0299  -18.9390   -9.9177 O   0  0  0  0  0  0  0  0  0  0  0  0
   22.6327  -20.1836  -14.0564 C   0  0  0  0  0  0  0  0  0  0  0  0
   22.4210  -20.0860  -12.5365 C   0  0  0  0  0  0  0  0  0  0  0  0
   23.6516  -20.6466  -11.8619 C   0  0  2  0  0  0  0  0  0  0  0  0
   23.5803  -22.1416  -12.1304 C   0  0  0  0  0  0  0  0  0  0  0  0
   23.6766  -20.4596  -10.3841 C   0  0  2  0  0  0  0  0  0  0  0  0
   24.8104  -20.8316   -9.6526 N   0  0  0  0  0  0  0  0  0  0  0  0
   22.4518  -20.9422   -9.7566 C   0  0  0  0  0  0  0  0  0  0  0  0
   22.5790  -21.7844   -8.6286 O   0  0  0  0  0  0  0  0  0  0  0  0
   21.2788  -20.7031  -10.0935 O   0  0  0  0  0  0  0  0  0  0  0  0
  2  1  1  0
  3  2  1  0
  3  4  1  6
  3  5  1  0
  5 12  1  0
  5  6  2  0
  7  8  1  0
  8  9  1  0
  9 10  1  0
 11 10  1  1
 11 13  1  0
 12 11  1  0
 13 14  2  0
 16 15  1  0
 17 18  1  1
 17 16  1  0
 19 17  1  0
 20 13  1  0
 19 20  1  1
 21 22  1  0
 21 19  1  0
 23 21  2  0
M  END
$$$$
