SMI.pdb
     RDKit          3D

 23 22  0  0  1  0  0  0  0  0999 V2000
   26.9227  -18.4893  -15.6706 O   0  0  0  0  0  0  0  0  0  0  0  0
   28.1092  -18.5975  -14.9520 C   0  0  0  0  0  0  0  0  0  0  0  0
   28.4185  -20.0381  -14.6719 C   0  0  2  0  0  0  0  0  0  0  0  0
   28.7489  -20.7033  -15.9074 N   0  0  0  0  0  0  0  0  0  0  0  0
   27.3379  -20.7270  -13.9376 C   0  0  0  0  0  0  0  0  0  0  0  0
   26.5728  -21.5628  -14.4765 O   0  0  0  0  0  0  0  0  0  0  0  0
   26.5446  -19.3313   -7.7224 C   0  0  0  0  0  0  0  0  0  0  0  0
   25.6874  -20.9294   -7.7248 S   0  0  0  0  0  0  0  0  0  0  0  0
   25.2987  -21.4398   -9.4432 C   0  0  0  0  0  0  0  0  0  0  0  0
   26.2550  -20.7079  -10.3331 C   0  0  0  0  0  0  0  0  0  0  0  0
   26.1206  -21.0965  -11.7919 C   0  0  2  0  0  0  0  0  0  0  0  0
   27.1492  -20.4372  -12.5625 N   0  0  0  0  0  0  0  0  0  0  0  0
   24.8012  -20.5239  -12.2440 C   0  0  0  0  0  0  0  0  0  0  0  0
   24.7605  -19.3109  -12.4755 O   0  0  0  0  0  0  0  0  0  0  0  0
   22.6902  -20.5604  -16.7705 C   0  0  0  0  0  0  0  0  0  0  0  0
   23.0430  -20.1950  -15.3191 C   0  0  0  0  0  0  0  0  0  0  0  0
   22.1829  -21.0399  -14.4081 C   0  0  2  0  0  0  0  0  0  0  0  0
   20.7653  -20.5586  -14.6751 C   0  0  0  0  0  0  0  0  0  0  0  0
   22.4545  -20.8436  -12.9565 C   0  0  2  0  0  0  0  0  0  0  0  0
   23.6603  -21.2918  -12.4051 N   0  0  0  0  0  0  0  0  0  0  0  0
   21.3132  -21.2304  -12.1352 C   0  0  0  0  0  0  0  0  0  0  0  0
   20.2078  -20.3505  -12.0899 O   0  0  0  0  0  0  0  0  0  0  0  0
   21.1820  -22.2606  -11.4511 O   0  0  0  0  0  0  0  0  0  0  0  0
  2  1  1  0
  3  2  1  0
  3  4  1  6
  3  5  1  0
  5 12  1  0
  5  6  2  0
  7  8  1  0
  8  9  1  0
  9 10  1  0
 11 10  1  1
 11 13  1  0
 12 11  1  0
 13 14  2  0
 16 15  1  0
 17 18  1  1
 17 16  1  0
 19 17  1  0
 20 13  1  0
 19 20  1  1
 21 22  1  0
 21 19  1  0
 23 21  2  0
M  END
$$$$
