SMI.pdb
     RDKit          3D

 23 22  0  0  1  0  0  0  0  0999 V2000
   28.9880  -22.5522  -14.7773 O   0  0  0  0  0  0  0  0  0  0  0  0
   28.1099  -22.6866  -15.8482 C   0  0  0  0  0  0  0  0  0  0  0  0
   27.5238  -21.3546  -16.2111 C   0  0  2  0  0  0  0  0  0  0  0  0
   28.5374  -20.5429  -16.8372 N   0  0  0  0  0  0  0  0  0  0  0  0
   26.8905  -20.6724  -15.0645 C   0  0  0  0  0  0  0  0  0  0  0  0
   27.2899  -19.5678  -14.6229 O   0  0  0  0  0  0  0  0  0  0  0  0
   21.2229  -20.0348  -15.1836 C   0  0  0  0  0  0  0  0  0  0  0  0
   21.4585  -19.2899  -13.5471 S   0  0  0  0  0  0  0  0  0  0  0  0
   22.6684  -20.2652  -12.5729 C   0  0  0  0  0  0  0  0  0  0  0  0
   23.5475  -20.9663  -13.5617 C   0  0  0  0  0  0  0  0  0  0  0  0
   25.0080  -20.5833  -13.4302 C   0  0  2  0  0  0  0  0  0  0  0  0
   25.7815  -21.2852  -14.4281 N   0  0  0  0  0  0  0  0  0  0  0  0
   25.4460  -21.1105  -12.0874 C   0  0  0  0  0  0  0  0  0  0  0  0
   25.6769  -22.3214  -12.0029 O   0  0  0  0  0  0  0  0  0  0  0  0
   29.2555  -19.8164   -7.9129 C   0  0  0  0  0  0  0  0  0  0  0  0
   28.1974  -20.7859   -8.4651 C   0  0  0  0  0  0  0  0  0  0  0  0
   27.0246  -19.9638   -8.9472 C   0  0  2  0  0  0  0  0  0  0  0  0
   26.3619  -19.4686   -7.6714 C   0  0  0  0  0  0  0  0  0  0  0  0
   26.0053  -20.7406   -9.7067 C   0  0  2  0  0  0  0  0  0  0  0  0
   25.5950  -20.3041  -10.9717 N   0  0  0  0  0  0  0  0  0  0  0  0
   24.8674  -21.1036   -8.8699 C   0  0  0  0  0  0  0  0  0  0  0  0
   23.6057  -20.5615   -9.2051 O   0  0  0  0  0  0  0  0  0  0  0  0
   24.8621  -21.8475   -7.8734 O   0  0  0  0  0  0  0  0  0  0  0  0
  2  1  1  0
  3  2  1  0
  3  4  1  1
  3  5  1  0
  5 12  1  0
  5  6  2  0
  7  8  1  0
  8  9  1  0
  9 10  1  0
 11 10  1  6
 11 13  1  0
 12 11  1  0
 13 14  2  0
 16 15  1  0
 17 18  1  1
 17 16  1  0
 19 17  1  0
 20 13  1  0
 19 20  1  6
 21 22  1  0
 21 19  1  0
 23 21  2  0
M  END
$$$$
