SMI.pdb
     RDKit          3D

 23 22  0  0  1  0  0  0  0  0999 V2000
   21.2154  -22.2239  -14.7790 O   0  0  0  0  0  0  0  0  0  0  0  0
   20.7793  -22.5175  -13.4909 C   0  0  0  0  0  0  0  0  0  0  0  0
   20.6467  -21.2585  -12.6866 C   0  0  2  0  0  0  0  0  0  0  0  0
   19.5997  -20.4424  -13.2486 N   0  0  0  0  0  0  0  0  0  0  0  0
   21.9202  -20.5220  -12.5555 C   0  0  0  0  0  0  0  0  0  0  0  0
   22.0902  -19.3669  -13.0151 O   0  0  0  0  0  0  0  0  0  0  0  0
   27.8945  -19.8602   -7.5606 C   0  0  0  0  0  0  0  0  0  0  0  0
   26.5858  -20.8787   -8.2945 S   0  0  0  0  0  0  0  0  0  0  0  0
   26.0457  -20.1635   -9.8949 C   0  0  0  0  0  0  0  0  0  0  0  0
   24.8528  -20.9541  -10.3355 C   0  0  0  0  0  0  0  0  0  0  0  0
   24.2247  -20.4178  -11.6064 C   0  0  2  0  0  0  0  0  0  0  0  0
   23.0043  -21.1397  -11.8820 N   0  0  0  0  0  0  0  0  0  0  0  0
   25.1925  -20.7575  -12.7113 C   0  0  0  0  0  0  0  0  0  0  0  0
   25.2456  -21.9375  -13.0740 O   0  0  0  0  0  0  0  0  0  0  0  0
   27.1918  -18.2760  -17.7028 C   0  0  0  0  0  0  0  0  0  0  0  0
   27.8394  -19.1299  -16.6001 C   0  0  0  0  0  0  0  0  0  0  0  0
   27.1527  -18.7976  -15.2956 C   0  0  2  0  0  0  0  0  0  0  0  0
   28.2354  -18.1354  -14.4580 C   0  0  0  0  0  0  0  0  0  0  0  0
   26.6689  -19.9867  -14.5398 C   0  0  2  0  0  0  0  0  0  0  0  0
   26.0049  -19.8155  -13.3197 N   0  0  0  0  0  0  0  0  0  0  0  0
   27.6893  -21.0251  -14.4535 C   0  0  0  0  0  0  0  0  0  0  0  0
   28.2762  -21.2664  -13.1904 O   0  0  0  0  0  0  0  0  0  0  0  0
   28.1220  -21.7450  -15.3705 O   0  0  0  0  0  0  0  0  0  0  0  0
  2  1  1  0
  3  2  1  0
  3  4  1  6
  3  5  1  0
  5 12  1  0
  5  6  2  0
  7  8  1  0
  8  9  1  0
  9 10  1  0
 11 10  1  1
 11 13  1  0
 12 11  1  0
 13 14  2  0
 16 15  1  0
 17 18  1  1
 17 16  1  0
 19 17  1  0
 20 13  1  0
 19 20  1  1
 21 22  1  0
 21 19  1  0
 23 21  2  0
M  END
$$$$
