SMI.pdb
     RDKit          3D

 23 22  0  0  1  0  0  0  0  0999 V2000
   17.8651   -9.8906  -21.1006 O   0  0  0  0  0  0  0  0  0  0  0  0
   18.2929   -9.5866  -19.8121 C   0  0  0  0  0  0  0  0  0  0  0  0
   19.0780  -10.7297  -19.2409 C   0  0  2  0  0  0  0  0  0  0  0  0
   18.1936  -11.8429  -19.0025 N   0  0  0  0  0  0  0  0  0  0  0  0
   19.8444  -10.3563  -18.0348 C   0  0  0  0  0  0  0  0  0  0  0  0
   19.3409  -10.3378  -16.8856 O   0  0  0  0  0  0  0  0  0  0  0  0
   27.0344  -10.8577  -15.0474 C   0  0  0  0  0  0  0  0  0  0  0  0
   25.9003  -10.9387  -16.4602 S   0  0  0  0  0  0  0  0  0  0  0  0
   24.3273  -10.0832  -16.0626 C   0  0  0  0  0  0  0  0  0  0  0  0
   23.4208  -10.2880  -17.2368 C   0  0  0  0  0  0  0  0  0  0  0  0
   22.0318   -9.7226  -17.0170 C   0  0  2  0  0  0  0  0  0  0  0  0
   21.2103  -10.0013  -18.1719 N   0  0  0  0  0  0  0  0  0  0  0  0
   22.2081   -8.2265  -16.9570 C   0  0  0  0  0  0  0  0  0  0  0  0
   22.3954   -7.6355  -18.0258 O   0  0  0  0  0  0  0  0  0  0  0  0
   19.6396   -3.4061  -16.9552 C   0  0  0  0  0  0  0  0  0  0  0  0
   20.8188   -3.9522  -16.1332 C   0  0  0  0  0  0  0  0  0  0  0  0
   20.8402   -5.4543  -16.2982 C   0  0  2  0  0  0  0  0  0  0  0  0
   19.6012   -5.9323  -15.5575 C   0  0  0  0  0  0  0  0  0  0  0  0
   22.0176   -6.1204  -15.6742 C   0  0  2  0  0  0  0  0  0  0  0  0
   22.1683   -7.5084  -15.7738 N   0  0  0  0  0  0  0  0  0  0  0  0
   22.2448   -5.6530  -14.3116 C   0  0  0  0  0  0  0  0  0  0  0  0
   22.6983   -4.3254  -14.1392 O   0  0  0  0  0  0  0  0  0  0  0  0
   22.0875   -6.2870  -13.2533 O   0  0  0  0  0  0  0  0  0  0  0  0
  2  1  1  0
  3  2  1  0
  3  4  1  1
  3  5  1  0
  5 12  1  0
  5  6  2  0
  7  8  1  0
  8  9  1  0
  9 10  1  0
 11 10  1  6
 11 13  1  0
 12 11  1  0
 13 14  2  0
 16 15  1  0
 17 18  1  1
 17 16  1  0
 19 17  1  0
 20 13  1  0
 19 20  1  1
 21 22  1  0
 21 19  1  0
 23 21  2  0
M  END
$$$$
