CLR.pdb
     RDKit          3D

 26 25  0  0  1  0  0  0  0  0999 V2000
   21.4438  -18.8421  -18.3938 N   0  0  0  0  0  0  0  0  0  0  0  0
   21.9431  -17.7222  -19.1678 C   0  0  1  0  0  0  0  0  0  0  0  0
   20.9544  -17.2994  -20.2146 C   0  0  0  0  0  0  0  0  0  0  0  0
   20.8915  -18.6133  -21.4769 S   0  0  0  0  0  0  0  0  0  0  0  0
   22.4281  -16.6360  -18.3246 C   0  0  0  0  0  0  0  0  0  0  0  0
   21.7693  -16.3831  -17.2576 O   0  0  0  0  0  0  0  0  0  0  0  0
   27.6338  -13.7570  -17.0302 C   0  0  0  0  0  0  0  0  0  0  0  0
   26.1036  -13.7322  -16.8380 C   0  0  2  0  0  0  0  0  0  0  0  0
   25.8707  -13.9299  -15.3724 C   0  0  0  0  0  0  0  0  0  0  0  0
   25.5493  -14.7938  -17.7244 C   0  0  0  0  0  0  0  0  0  0  0  0
   24.0481  -14.8677  -17.7924 C   0  0  2  0  0  0  0  0  0  0  0  0
   23.5785  -15.9002  -18.6807 N   0  0  0  0  0  0  0  0  0  0  0  0
   23.5946  -13.5518  -18.3411 C   0  0  0  0  0  0  0  0  0  0  0  0
   23.9388  -13.2603  -19.5134 O   0  0  0  0  0  0  0  0  0  0  0  0
   15.9761  -12.5563  -18.9829 N   0  0  0  0  0  0  0  0  0  0  0  0
   16.9907  -13.4775  -18.6281 C   0  0  0  0  0  0  0  0  0  0  0  0
   16.6970  -14.6275  -18.0918 N   0  0  0  0  0  0  0  0  0  0  0  0
   18.3595  -13.1659  -18.8508 N   0  0  0  0  0  0  0  0  0  0  0  0
   18.7547  -11.9435  -19.5195 C   0  0  0  0  0  0  0  0  0  0  0  0
   20.2995  -11.9065  -19.5553 C   0  0  0  0  0  0  0  0  0  0  0  0
   20.8321  -11.4206  -18.2426 C   0  0  0  0  0  0  0  0  0  0  0  0
   22.3233  -11.4373  -18.2257 C   0  0  2  0  0  0  0  0  0  0  0  0
   22.8033  -12.6623  -17.5668 N   0  0  0  0  0  0  0  0  0  0  0  0
   22.8797  -10.3126  -17.4742 C   0  0  0  0  0  0  0  0  0  0  0  0
   22.7496   -9.0072  -17.9204 O   0  0  0  0  0  0  0  0  0  0  0  0
   23.4971  -10.5416  -16.3927 O   0  0  0  0  0  0  0  0  0  0  0  0
  2  3  1  0
  2  1  1  1
  4  3  1  0
  5  2  1  0
  6  5  2  0
  8  7  1  1
  8 10  1  0
  9  8  1  0
 11 10  1  6
 11 12  1  0
 12  5  1  0
 13 11  1  0
 13 14  2  0
 16 15  1  0
 17 16  2  0
 18 16  1  0
 19 18  1  0
 20 21  1  0
 20 19  1  0
 22 21  1  1
 22 23  1  0
 23 13  1  0
 24 22  1  0
 25 24  1  0
 26 24  2  0
M  END
$$$$
