CLR.pdb
     RDKit          3D

 26 25  0  0  1  0  0  0  0  0999 V2000
   27.7144  -17.6639  -16.3687 N   0  0  0  0  0  0  0  0  0  0  0  0
   26.8427  -17.4494  -15.2300 C   0  0  1  0  0  0  0  0  0  0  0  0
   25.6059  -16.6969  -15.6248 C   0  0  0  0  0  0  0  0  0  0  0  0
   26.1193  -15.0286  -16.1511 S   0  0  0  0  0  0  0  0  0  0  0  0
   26.5882  -18.6772  -14.4858 C   0  0  0  0  0  0  0  0  0  0  0  0
   26.6146  -19.7759  -15.1406 O   0  0  0  0  0  0  0  0  0  0  0  0
   25.7847  -20.4958   -8.6273 C   0  0  0  0  0  0  0  0  0  0  0  0
   25.8817  -20.9394  -10.1013 C   0  0  2  0  0  0  0  0  0  0  0  0
   26.9511  -21.9861  -10.1455 C   0  0  0  0  0  0  0  0  0  0  0  0
   26.1557  -19.7089  -10.8956 C   0  0  0  0  0  0  0  0  0  0  0  0
   26.1675  -19.8869  -12.3896 C   0  0  2  0  0  0  0  0  0  0  0  0
   26.3247  -18.6433  -13.0998 N   0  0  0  0  0  0  0  0  0  0  0  0
   24.8296  -20.4521  -12.7485 C   0  0  0  0  0  0  0  0  0  0  0  0
   23.8177  -19.7455  -12.5152 O   0  0  0  0  0  0  0  0  0  0  0  0
   18.3849  -20.6458  -14.4628 N   0  0  0  0  0  0  0  0  0  0  0  0
   18.3610  -21.2055  -15.7629 C   0  0  0  0  0  0  0  0  0  0  0  0
   17.2750  -21.7386  -16.2453 N   0  0  0  0  0  0  0  0  0  0  0  0
   19.5279  -21.1978  -16.5743 N   0  0  0  0  0  0  0  0  0  0  0  0
   20.7793  -20.6535  -16.0894 C   0  0  0  0  0  0  0  0  0  0  0  0
   21.3968  -21.6875  -15.1207 C   0  0  0  0  0  0  0  0  0  0  0  0
   22.7547  -21.2331  -14.6819 C   0  0  0  0  0  0  0  0  0  0  0  0
   23.3529  -22.1865  -13.7034 C   0  0  2  0  0  0  0  0  0  0  0  0
   24.7051  -21.7409  -13.3320 N   0  0  0  0  0  0  0  0  0  0  0  0
   23.4937  -23.5322  -14.2590 C   0  0  0  0  0  0  0  0  0  0  0  0
   24.7388  -24.0952  -14.4885 O   0  0  0  0  0  0  0  0  0  0  0  0
   22.4508  -24.1936  -14.5386 O   0  0  0  0  0  0  0  0  0  0  0  0
  2  3  1  0
  2  1  1  6
  4  3  1  0
  5  2  1  0
  6  5  2  0
  8  7  1  1
  8 10  1  0
  9  8  1  0
 11 10  1  1
 11 12  1  0
 12  5  1  0
 13 11  1  0
 13 14  2  0
 16 15  1  0
 17 16  2  0
 18 16  1  0
 19 18  1  0
 20 21  1  0
 20 19  1  0
 22 21  1  6
 22 23  1  0
 23 13  1  0
 24 22  1  0
 25 24  1  0
 26 24  2  0
M  END
$$$$
