CLR.pdb
     RDKit          3D

 26 25  0  0  1  0  0  0  0  0999 V2000
   21.6414  -16.0303  -16.3181 N   0  0  0  0  0  0  0  0  0  0  0  0
   22.0974  -14.9646  -17.1892 C   0  0  1  0  0  0  0  0  0  0  0  0
   21.0654  -14.6290  -18.2258 C   0  0  0  0  0  0  0  0  0  0  0  0
   20.6728  -16.1625  -19.1302 S   0  0  0  0  0  0  0  0  0  0  0  0
   22.5991  -13.8151  -16.4455 C   0  0  0  0  0  0  0  0  0  0  0  0
   21.8876  -13.3918  -15.4703 O   0  0  0  0  0  0  0  0  0  0  0  0
   26.7779  -13.3609  -14.7786 C   0  0  0  0  0  0  0  0  0  0  0  0
   26.7078  -12.8993  -16.2486 C   0  0  2  0  0  0  0  0  0  0  0  0
   28.1133  -12.5656  -16.6415 C   0  0  0  0  0  0  0  0  0  0  0  0
   25.7438  -11.7639  -16.2892 C   0  0  0  0  0  0  0  0  0  0  0  0
   24.3116  -12.1141  -15.9893 C   0  0  2  0  0  0  0  0  0  0  0  0
   23.8211  -13.2023  -16.7960 N   0  0  0  0  0  0  0  0  0  0  0  0
   23.5097  -10.8971  -16.3272 C   0  0  0  0  0  0  0  0  0  0  0  0
   23.2030  -10.7183  -17.5320 O   0  0  0  0  0  0  0  0  0  0  0  0
   16.7050  -11.2599  -17.8072 N   0  0  0  0  0  0  0  0  0  0  0  0
   17.7196  -10.7018  -18.6215 C   0  0  0  0  0  0  0  0  0  0  0  0
   17.7274  -10.8912  -19.9100 N   0  0  0  0  0  0  0  0  0  0  0  0
   18.7574   -9.9185  -18.0475 N   0  0  0  0  0  0  0  0  0  0  0  0
   18.5252   -9.1050  -16.8721 C   0  0  0  0  0  0  0  0  0  0  0  0
   19.8703   -8.4530  -16.4792 C   0  0  0  0  0  0  0  0  0  0  0  0
   20.8853   -9.5120  -16.1768 C   0  0  0  0  0  0  0  0  0  0  0  0
   22.1717   -8.9119  -15.7196 C   0  0  2  0  0  0  0  0  0  0  0  0
   23.1084   -9.9755  -15.3239 N   0  0  0  0  0  0  0  0  0  0  0  0
   21.9951   -8.0532  -14.5487 C   0  0  0  0  0  0  0  0  0  0  0  0
   21.3318   -6.8396  -14.6331 O   0  0  0  0  0  0  0  0  0  0  0  0
   22.4640   -8.4296  -13.4345 O   0  0  0  0  0  0  0  0  0  0  0  0
  2  3  1  0
  2  1  1  1
  4  3  1  0
  5  2  1  0
  6  5  2  0
  8  7  1  1
  8 10  1  0
  9  8  1  0
 11 10  1  6
 11 12  1  0
 12  5  1  0
 13 11  1  0
 13 14  2  0
 16 15  1  0
 17 16  2  0
 18 16  1  0
 19 18  1  0
 20 21  1  0
 20 19  1  0
 22 21  1  1
 22 23  1  0
 23 13  1  0
 24 22  1  0
 25 24  1  0
 26 24  2  0
M  END
$$$$
