CLR.pdb
     RDKit          3D

 26 25  0  0  1  0  0  0  0  0999 V2000
   24.7288  -20.9916  -14.7971 N   0  0  0  0  0  0  0  0  0  0  0  0
   24.1771  -20.1186  -13.7792 C   0  0  1  0  0  0  0  0  0  0  0  0
   22.7810  -19.6913  -14.1264 C   0  0  0  0  0  0  0  0  0  0  0  0
   22.8951  -18.4918  -15.4945 S   0  0  0  0  0  0  0  0  0  0  0  0
   24.3216  -20.6692  -12.4368 C   0  0  0  0  0  0  0  0  0  0  0  0
   24.0814  -21.9166  -12.2858 O   0  0  0  0  0  0  0  0  0  0  0  0
   26.6397  -19.0407   -6.9559 C   0  0  0  0  0  0  0  0  0  0  0  0
   25.8937  -20.1313   -7.7515 C   0  0  2  0  0  0  0  0  0  0  0  0
   26.7239  -21.3709   -7.6266 C   0  0  0  0  0  0  0  0  0  0  0  0
   25.7296  -19.6063   -9.1362 C   0  0  0  0  0  0  0  0  0  0  0  0
   24.8889  -20.4483  -10.0570 C   0  0  2  0  0  0  0  0  0  0  0  0
   24.7110  -19.8502  -11.3556 N   0  0  0  0  0  0  0  0  0  0  0  0
   23.5429  -20.5478   -9.4115 C   0  0  0  0  0  0  0  0  0  0  0  0
   22.7980  -19.5378   -9.4604 O   0  0  0  0  0  0  0  0  0  0  0  0
   18.1338  -25.2606   -6.4887 N   0  0  0  0  0  0  0  0  0  0  0  0
   17.1125  -24.4986   -7.1054 C   0  0  0  0  0  0  0  0  0  0  0  0
   15.9247  -24.4151   -6.5779 N   0  0  0  0  0  0  0  0  0  0  0  0
   17.3625  -23.8047   -8.3203 N   0  0  0  0  0  0  0  0  0  0  0  0
   18.6689  -23.8259   -8.9450 C   0  0  0  0  0  0  0  0  0  0  0  0
   19.5764  -22.8445   -8.1688 C   0  0  0  0  0  0  0  0  0  0  0  0
   20.9071  -22.7303   -8.8464 C   0  0  0  0  0  0  0  0  0  0  0  0
   21.7814  -21.7392   -8.1552 C   0  0  2  0  0  0  0  0  0  0  0  0
   23.1201  -21.7401   -8.7660 N   0  0  0  0  0  0  0  0  0  0  0  0
   21.9669  -22.0589   -6.7401 C   0  0  0  0  0  0  0  0  0  0  0  0
   21.1921  -21.4672   -5.7555 O   0  0  0  0  0  0  0  0  0  0  0  0
   22.8601  -22.8938   -6.4108 O   0  0  0  0  0  0  0  0  0  0  0  0
  2  3  1  0
  2  1  1  6
  4  3  1  0
  5  2  1  0
  6  5  2  0
  8  7  1  1
  8 10  1  0
  9  8  1  0
 11 10  1  1
 11 12  1  0
 12  5  1  0
 13 11  1  0
 13 14  2  0
 16 15  1  0
 17 16  2  0
 18 16  1  0
 19 18  1  0
 20 21  1  0
 20 19  1  0
 22 21  1  6
 22 23  1  0
 23 13  1  0
 24 22  1  0
 25 24  1  0
 26 24  2  0
M  END
$$$$
