CLR.pdb
     RDKit          3D

 26 25  0  0  1  0  0  0  0  0999 V2000
   23.3845  -13.4620  -20.4208 N   0  0  0  0  0  0  0  0  0  0  0  0
   23.3920  -12.0153  -20.3237 C   0  0  1  0  0  0  0  0  0  0  0  0
   22.4799  -11.3962  -21.3420 C   0  0  0  0  0  0  0  0  0  0  0  0
   23.2847  -11.5512  -22.9704 S   0  0  0  0  0  0  0  0  0  0  0  0
   23.1756  -11.5487  -18.9593 C   0  0  0  0  0  0  0  0  0  0  0  0
   22.2553  -12.1238  -18.2820 O   0  0  0  0  0  0  0  0  0  0  0  0
   25.4447  -11.7580  -15.1367 C   0  0  0  0  0  0  0  0  0  0  0  0
   26.0245  -10.7759  -16.1752 C   0  0  2  0  0  0  0  0  0  0  0  0
   27.3448  -10.3312  -15.6272 C   0  0  0  0  0  0  0  0  0  0  0  0
   25.0087   -9.7004  -16.3525 C   0  0  0  0  0  0  0  0  0  0  0  0
   23.7398  -10.1110  -17.0491 C   0  0  2  0  0  0  0  0  0  0  0  0
   23.9554  -10.5044  -18.4182 N   0  0  0  0  0  0  0  0  0  0  0  0
   22.8616   -8.8999  -17.0545 C   0  0  0  0  0  0  0  0  0  0  0  0
   23.1108   -8.0040  -17.8988 O   0  0  0  0  0  0  0  0  0  0  0  0
   14.2765   -7.2704  -15.5438 N   0  0  0  0  0  0  0  0  0  0  0  0
   14.9070   -6.0546  -15.9020 C   0  0  0  0  0  0  0  0  0  0  0  0
   14.2165   -4.9628  -16.0678 N   0  0  0  0  0  0  0  0  0  0  0  0
   16.3148   -5.9986  -16.0893 N   0  0  0  0  0  0  0  0  0  0  0  0
   17.1450   -7.1728  -15.9172 C   0  0  0  0  0  0  0  0  0  0  0  0
   18.6125   -6.7486  -16.1528 C   0  0  0  0  0  0  0  0  0  0  0  0
   19.4976   -7.9564  -16.1830 C   0  0  0  0  0  0  0  0  0  0  0  0
   20.9356   -7.5698  -16.2657 C   0  0  2  0  0  0  0  0  0  0  0  0
   21.7840   -8.7653  -16.1392 N   0  0  0  0  0  0  0  0  0  0  0  0
   21.3266   -6.6631  -15.1866 C   0  0  0  0  0  0  0  0  0  0  0  0
   21.0967   -5.2991  -15.2667 O   0  0  0  0  0  0  0  0  0  0  0  0
   21.8913   -7.1395  -14.1583 O   0  0  0  0  0  0  0  0  0  0  0  0
  2  3  1  0
  2  1  1  1
  4  3  1  0
  5  2  1  0
  6  5  2  0
  8  7  1  1
  8 10  1  0
  9  8  1  0
 11 10  1  6
 11 12  1  0
 12  5  1  0
 13 11  1  0
 13 14  2  0
 16 15  1  0
 17 16  2  0
 18 16  1  0
 19 18  1  0
 20 21  1  0
 20 19  1  0
 22 21  1  1
 22 23  1  0
 23 13  1  0
 24 22  1  0
 25 24  1  0
 26 24  2  0
M  END
$$$$
