CLR.pdb
     RDKit          3D

 26 25  0  0  1  0  0  0  0  0999 V2000
   29.0871  -21.0400  -19.7840 N   0  0  0  0  0  0  0  0  0  0  0  0
   27.8019  -20.3714  -19.7202 C   0  0  1  0  0  0  0  0  0  0  0  0
   26.6980  -21.2655  -20.2040 C   0  0  0  0  0  0  0  0  0  0  0  0
   27.0146  -21.6314  -21.9617 S   0  0  0  0  0  0  0  0  0  0  0  0
   27.5563  -19.7626  -18.4182 C   0  0  0  0  0  0  0  0  0  0  0  0
   28.2233  -20.2143  -17.4245 O   0  0  0  0  0  0  0  0  0  0  0  0
   28.0822  -15.4787  -16.7496 C   0  0  0  0  0  0  0  0  0  0  0  0
   26.9069  -15.6356  -17.7360 C   0  0  2  0  0  0  0  0  0  0  0  0
   26.3381  -14.2629  -17.9186 C   0  0  0  0  0  0  0  0  0  0  0  0
   25.9825  -16.6380  -17.1355 C   0  0  0  0  0  0  0  0  0  0  0  0
   26.5292  -18.0339  -17.0071 C   0  0  2  0  0  0  0  0  0  0  0  0
   26.6186  -18.7181  -18.2719 N   0  0  0  0  0  0  0  0  0  0  0  0
   25.5562  -18.7812  -16.1511 C   0  0  0  0  0  0  0  0  0  0  0  0
   24.6179  -19.3851  -16.7277 O   0  0  0  0  0  0  0  0  0  0  0  0
   24.6611  -20.8538   -7.3922 N   0  0  0  0  0  0  0  0  0  0  0  0
   23.5185  -21.2858   -8.1078 C   0  0  0  0  0  0  0  0  0  0  0  0
   22.5075  -21.8310   -7.4940 N   0  0  0  0  0  0  0  0  0  0  0  0
   23.4495  -21.1329   -9.5192 N   0  0  0  0  0  0  0  0  0  0  0  0
   24.4755  -20.4192  -10.2508 C   0  0  0  0  0  0  0  0  0  0  0  0
   24.0495  -20.3766  -11.7359 C   0  0  0  0  0  0  0  0  0  0  0  0
   25.0858  -19.6618  -12.5472 C   0  0  0  0  0  0  0  0  0  0  0  0
   24.6862  -19.5796  -13.9816 C   0  0  2  0  0  0  0  0  0  0  0  0
   25.6862  -18.8086  -14.7371 N   0  0  0  0  0  0  0  0  0  0  0  0
   23.4069  -18.8934  -14.1600 C   0  0  0  0  0  0  0  0  0  0  0  0
   23.3447  -17.5444  -14.4705 O   0  0  0  0  0  0  0  0  0  0  0  0
   22.3331  -19.5503  -14.0232 O   0  0  0  0  0  0  0  0  0  0  0  0
  2  3  1  0
  2  1  1  1
  4  3  1  0
  5  2  1  0
  6  5  2  0
  8  7  1  1
  8 10  1  0
  9  8  1  0
 11 10  1  6
 11 12  1  0
 12  5  1  0
 13 11  1  0
 13 14  2  0
 16 15  1  0
 17 16  2  0
 18 16  1  0
 19 18  1  0
 20 21  1  0
 20 19  1  0
 22 21  1  1
 22 23  1  0
 23 13  1  0
 24 22  1  0
 25 24  1  0
 26 24  2  0
M  END
$$$$
