ALT.pdb
     RDKit          3D

 21 20  0  0  1  0  0  0  0  0999 V2000
   18.2224  -15.5486  -19.5679 C   0  0  0  0  0  0  0  0  0  0  0  0
   19.0247  -14.2982  -19.7070 C   0  0  2  0  0  0  0  0  0  0  0  0
   20.3567  -14.6935  -20.1560 N   0  0  0  0  0  0  0  0  0  0  0  0
   19.0876  -13.4826  -18.4948 C   0  0  0  0  0  0  0  0  0  0  0  0
   18.0122  -13.0800  -17.9794 O   0  0  0  0  0  0  0  0  0  0  0  0
   22.8560  -14.4812  -14.6428 C   0  0  0  0  0  0  0  0  0  0  0  0
   21.5909  -14.1204  -15.3926 C   0  0  1  0  0  0  0  0  0  0  0  0
   20.4776  -14.2999  -14.3328 C   0  0  0  0  0  0  0  0  0  0  0  0
   21.5363  -12.6898  -15.7961 C   0  0  0  0  0  0  0  0  0  0  0  0
   20.4321  -12.3211  -16.7047 C   0  0  2  0  0  0  0  0  0  0  0  0
   20.3570  -13.1419  -17.8968 N   0  0  0  0  0  0  0  0  0  0  0  0
   20.2668  -10.8840  -17.0083 C   0  0  0  0  0  0  0  0  0  0  0  0
   21.0165  -10.2843  -17.8071 O   0  0  0  0  0  0  0  0  0  0  0  0
   17.6154   -6.8516  -17.4998 C   0  0  0  0  0  0  0  0  0  0  0  0
   17.7833   -8.3351  -17.2869 C   0  0  1  0  0  0  0  0  0  0  0  0
   17.7262   -8.9104  -18.5647 O   0  0  0  0  0  0  0  0  0  0  0  0
   19.0577   -8.6842  -16.5956 C   0  0  2  0  0  0  0  0  0  0  0  0
   19.2294  -10.1021  -16.3874 N   0  0  0  0  0  0  0  0  0  0  0  0
   19.1924   -7.9587  -15.2844 C   0  0  0  0  0  0  0  0  0  0  0  0
   19.2998   -6.7014  -15.2064 O   0  0  0  0  0  0  0  0  0  0  0  0
   19.2088   -8.6125  -14.0654 O   0  0  0  0  0  0  0  0  0  0  0  0
  2  1  1  1
  3  2  1  0
  4  5  2  0
  4  2  1  0
  7  6  1  1
  7  9  1  0
  8  7  1  0
 10  9  1  6
 10 11  1  0
 10 12  1  0
 11  4  1  0
 12 18  1  0
 13 12  2  0
 15 16  1  0
 15 14  1  6
 17 15  1  0
 17 18  1  1
 19 21  1  0
 19 17  1  0
 20 19  2  0
M  END
$$$$
