ALT.pdb
     RDKit          3D

 21 20  0  0  1  0  0  0  0  0999 V2000
   19.1984  -11.8166  -20.2889 C   0  0  0  0  0  0  0  0  0  0  0  0
   19.9904  -12.8127  -19.5098 C   0  0  2  0  0  0  0  0  0  0  0  0
   19.1434  -13.9893  -19.3357 N   0  0  0  0  0  0  0  0  0  0  0  0
   20.4905  -12.3177  -18.2278 C   0  0  0  0  0  0  0  0  0  0  0  0
   19.6631  -12.0483  -17.3183 O   0  0  0  0  0  0  0  0  0  0  0  0
   25.1045  -14.0348  -15.6796 C   0  0  0  0  0  0  0  0  0  0  0  0
   23.7215  -13.5146  -16.0105 C   0  0  1  0  0  0  0  0  0  0  0  0
   22.9538  -13.6500  -14.6736 C   0  0  0  0  0  0  0  0  0  0  0  0
   23.7040  -12.0644  -16.3404 C   0  0  0  0  0  0  0  0  0  0  0  0
   22.4054  -11.5244  -16.7906 C   0  0  2  0  0  0  0  0  0  0  0  0
   21.9059  -12.1388  -18.0045 N   0  0  0  0  0  0  0  0  0  0  0  0
   22.2641  -10.0533  -16.8137 C   0  0  0  0  0  0  0  0  0  0  0  0
   22.7828   -9.3510  -17.7067 O   0  0  0  0  0  0  0  0  0  0  0  0
   18.7777   -8.2203  -15.9457 C   0  0  0  0  0  0  0  0  0  0  0  0
   20.0045   -7.5768  -16.5416 C   0  0  1  0  0  0  0  0  0  0  0  0
   19.7703   -6.1949  -16.4907 O   0  0  0  0  0  0  0  0  0  0  0  0
   21.2596   -7.9371  -15.8215 C   0  0  2  0  0  0  0  0  0  0  0  0
   21.5210   -9.3564  -15.7962 N   0  0  0  0  0  0  0  0  0  0  0  0
   21.2675   -7.3945  -14.4181 C   0  0  0  0  0  0  0  0  0  0  0  0
   21.0814   -6.1717  -14.1567 O   0  0  0  0  0  0  0  0  0  0  0  0
   21.4789   -8.1926  -13.3082 O   0  0  0  0  0  0  0  0  0  0  0  0
  2  1  1  1
  3  2  1  0
  4  5  2  0
  4  2  1  0
  7  6  1  1
  7  9  1  0
  8  7  1  0
 10  9  1  6
 10 11  1  0
 10 12  1  0
 11  4  1  0
 12 18  1  0
 13 12  2  0
 15 16  1  0
 15 14  1  1
 17 15  1  0
 17 18  1  1
 19 21  1  0
 19 17  1  0
 20 19  2  0
M  END
$$$$
