ALT.pdb
     RDKit          3D

 21 20  0  0  1  0  0  0  0  0999 V2000
   20.2455  -22.9981  -15.1942 C   0  0  0  0  0  0  0  0  0  0  0  0
   21.0232  -22.9186  -13.9232 C   0  0  2  0  0  0  0  0  0  0  0  0
   20.0562  -22.7630  -12.8403 N   0  0  0  0  0  0  0  0  0  0  0  0
   22.0322  -21.8603  -13.8972 C   0  0  0  0  0  0  0  0  0  0  0  0
   21.6656  -20.6696  -14.0760 O   0  0  0  0  0  0  0  0  0  0  0  0
   26.2306  -21.4803  -10.3985 C   0  0  0  0  0  0  0  0  0  0  0  0
   25.0866  -21.3083  -11.3754 C   0  0  1  0  0  0  0  0  0  0  0  0
   24.5537  -19.8893  -11.0633 C   0  0  0  0  0  0  0  0  0  0  0  0
   25.5287  -21.2697  -12.7950 C   0  0  0  0  0  0  0  0  0  0  0  0
   24.4522  -21.1564  -13.7995 C   0  0  2  0  0  0  0  0  0  0  0  0
   23.4244  -22.1703  -13.6719 N   0  0  0  0  0  0  0  0  0  0  0  0
   24.8660  -20.9584  -15.2046 C   0  0  0  0  0  0  0  0  0  0  0  0
   25.4741  -21.8397  -15.8474 O   0  0  0  0  0  0  0  0  0  0  0  0
   24.6652  -18.1907  -19.3659 C   0  0  0  0  0  0  0  0  0  0  0  0
   24.2719  -18.3737  -17.9216 C   0  0  1  0  0  0  0  0  0  0  0  0
   22.9053  -18.6884  -17.9378 O   0  0  0  0  0  0  0  0  0  0  0  0
   25.0608  -19.4352  -17.2327 C   0  0  2  0  0  0  0  0  0  0  0  0
   24.5900  -19.7283  -15.9001 N   0  0  0  0  0  0  0  0  0  0  0  0
   26.5260  -19.0958  -17.1901 C   0  0  0  0  0  0  0  0  0  0  0  0
   27.0075  -18.2433  -16.3903 O   0  0  0  0  0  0  0  0  0  0  0  0
   27.4567  -19.6910  -18.0227 O   0  0  0  0  0  0  0  0  0  0  0  0
  2  1  1  6
  3  2  1  0
  4  5  2  0
  4  2  1  0
  7  6  1  1
  7  9  1  0
  8  7  1  0
 10  9  1  1
 10 11  1  0
 10 12  1  0
 11  4  1  0
 12 18  1  0
 13 12  2  0
 15 16  1  0
 15 14  1  6
 17 15  1  0
 17 18  1  1
 19 21  1  0
 19 17  1  0
 20 19  2  0
M  END
$$$$
