ALT.pdb
     RDKit          3D

 21 20  0  0  1  0  0  0  0  0999 V2000
   21.4237  -22.6102   -9.1026 C   0  0  0  0  0  0  0  0  0  0  0  0
   22.3015  -22.1672   -7.9801 C   0  0  2  0  0  0  0  0  0  0  0  0
   21.4238  -21.7760   -6.8808 N   0  0  0  0  0  0  0  0  0  0  0  0
   23.2342  -21.0962   -8.3288 C   0  0  0  0  0  0  0  0  0  0  0  0
   22.8247  -19.9062   -8.3084 O   0  0  0  0  0  0  0  0  0  0  0  0
   28.3952  -20.5534   -6.5054 C   0  0  0  0  0  0  0  0  0  0  0  0
   27.0230  -20.2194   -7.0515 C   0  0  1  0  0  0  0  0  0  0  0  0
   26.9493  -18.6784   -6.9291 C   0  0  0  0  0  0  0  0  0  0  0  0
   26.8811  -20.5158   -8.5021 C   0  0  0  0  0  0  0  0  0  0  0  0
   25.5262  -20.3419   -9.0631 C   0  0  2  0  0  0  0  0  0  0  0  0
   24.6002  -21.3929   -8.6912 N   0  0  0  0  0  0  0  0  0  0  0  0
   25.4347  -20.0031  -10.4989 C   0  0  0  0  0  0  0  0  0  0  0  0
   25.9292  -18.9557  -10.9661 O   0  0  0  0  0  0  0  0  0  0  0  0
   26.5844  -21.9415  -13.5097 C   0  0  0  0  0  0  0  0  0  0  0  0
   25.1224  -21.6451  -13.7308 C   0  0  1  0  0  0  0  0  0  0  0  0
   24.4523  -22.8573  -13.5105 O   0  0  0  0  0  0  0  0  0  0  0  0
   24.6033  -20.5722  -12.8347 C   0  0  2  0  0  0  0  0  0  0  0  0
   24.7606  -20.8690  -11.4310 N   0  0  0  0  0  0  0  0  0  0  0  0
   23.1618  -20.2558  -13.1281 C   0  0  0  0  0  0  0  0  0  0  0  0
   22.2607  -20.2879  -12.2420 O   0  0  0  0  0  0  0  0  0  0  0  0
   22.7140  -19.9058  -14.3892 O   0  0  0  0  0  0  0  0  0  0  0  0
  2  1  1  6
  3  2  1  0
  4  5  2  0
  4  2  1  0
  7  6  1  6
  7  9  1  0
  8  7  1  0
 10  9  1  6
 10 11  1  0
 10 12  1  0
 11  4  1  0
 12 18  1  0
 13 12  2  0
 15 16  1  0
 15 14  1  1
 17 15  1  0
 17 18  1  1
 19 21  1  0
 19 17  1  0
 20 19  2  0
M  END
$$$$
