ALT.pdb
     RDKit          3D

 21 20  0  0  1  0  0  0  0  0999 V2000
   25.7449  -19.7918  -14.8110 C   0  0  0  0  0  0  0  0  0  0  0  0
   26.5400  -20.6396  -13.8752 C   0  0  2  0  0  0  0  0  0  0  0  0
   27.1220  -21.7193  -14.6673 N   0  0  0  0  0  0  0  0  0  0  0  0
   25.7819  -21.1580  -12.7371 C   0  0  0  0  0  0  0  0  0  0  0  0
   25.3832  -22.3514  -12.7682 O   0  0  0  0  0  0  0  0  0  0  0  0
   26.9010  -19.2128   -7.7135 C   0  0  0  0  0  0  0  0  0  0  0  0
   26.5797  -20.0750   -8.9161 C   0  0  1  0  0  0  0  0  0  0  0  0
   27.0474  -21.4860   -8.4859 C   0  0  0  0  0  0  0  0  0  0  0  0
   25.1205  -20.1962   -9.1774 C   0  0  0  0  0  0  0  0  0  0  0  0
   24.7485  -20.8255  -10.4605 C   0  0  2  0  0  0  0  0  0  0  0  0
   25.4929  -20.3204  -11.5968 N   0  0  0  0  0  0  0  0  0  0  0  0
   23.3046  -20.9480  -10.7521 C   0  0  0  0  0  0  0  0  0  0  0  0
   22.4962  -21.4075   -9.9184 O   0  0  0  0  0  0  0  0  0  0  0  0
   20.4121  -18.5717  -11.4929 C   0  0  0  0  0  0  0  0  0  0  0  0
   20.6969  -19.4110  -12.7130 C   0  0  1  0  0  0  0  0  0  0  0  0
   21.4982  -18.6136  -13.5431 O   0  0  0  0  0  0  0  0  0  0  0  0
   21.3730  -20.7000  -12.3888 C   0  0  2  0  0  0  0  0  0  0  0  0
   22.7607  -20.5455  -12.0230 N   0  0  0  0  0  0  0  0  0  0  0  0
   21.2527  -21.6871  -13.5180 C   0  0  0  0  0  0  0  0  0  0  0  0
   22.2573  -22.2171  -14.0729 O   0  0  0  0  0  0  0  0  0  0  0  0
   20.0338  -22.0892  -14.0340 O   0  0  0  0  0  0  0  0  0  0  0  0
  2  1  1  6
  3  2  1  0
  4  5  2  0
  4  2  1  0
  7  6  1  1
  7  9  1  0
  8  7  1  0
 10  9  1  1
 10 11  1  0
 10 12  1  0
 11  4  1  0
 12 18  1  0
 13 12  2  0
 15 16  1  0
 15 14  1  1
 17 15  1  0
 17 18  1  6
 19 21  1  0
 19 17  1  0
 20 19  2  0
M  END
$$$$
