ALT.pdb
     RDKit          3D

 21 20  0  0  1  0  0  0  0  0999 V2000
   20.5384   -8.7207  -20.5084 C   0  0  0  0  0  0  0  0  0  0  0  0
   20.9572   -9.7846  -19.5496 C   0  0  2  0  0  0  0  0  0  0  0  0
   19.8701  -10.7577  -19.4904 N   0  0  0  0  0  0  0  0  0  0  0  0
   21.3103   -9.2934  -18.2182 C   0  0  0  0  0  0  0  0  0  0  0  0
   20.3874   -8.9386  -17.4392 O   0  0  0  0  0  0  0  0  0  0  0  0
   25.3412  -11.7265  -15.4592 C   0  0  0  0  0  0  0  0  0  0  0  0
   24.0663  -11.0210  -15.8708 C   0  0  1  0  0  0  0  0  0  0  0  0
   23.0878  -11.3362  -14.7141 C   0  0  0  0  0  0  0  0  0  0  0  0
   24.1977   -9.5396  -15.8952 C   0  0  0  0  0  0  0  0  0  0  0  0
   23.0482   -8.8026  -16.4575 C   0  0  2  0  0  0  0  0  0  0  0  0
   22.6902   -9.2140  -17.8002 N   0  0  0  0  0  0  0  0  0  0  0  0
   23.0601   -7.3317  -16.3116 C   0  0  0  0  0  0  0  0  0  0  0  0
   23.8767   -6.6112  -16.9230 O   0  0  0  0  0  0  0  0  0  0  0  0
   20.8344   -4.7992  -17.3893 C   0  0  0  0  0  0  0  0  0  0  0  0
   20.9005   -4.5808  -15.8986 C   0  0  1  0  0  0  0  0  0  0  0  0
   19.7057   -5.1059  -15.3852 O   0  0  0  0  0  0  0  0  0  0  0  0
   22.0875   -5.2259  -15.2672 C   0  0  2  0  0  0  0  0  0  0  0  0
   22.1273   -6.6576  -15.4465 N   0  0  0  0  0  0  0  0  0  0  0  0
   22.1831   -4.8951  -13.8025 C   0  0  0  0  0  0  0  0  0  0  0  0
   22.4119   -3.7260  -13.3791 O   0  0  0  0  0  0  0  0  0  0  0  0
   22.0278   -5.8449  -12.8089 O   0  0  0  0  0  0  0  0  0  0  0  0
  2  1  1  6
  3  2  1  0
  4  5  2  0
  4  2  1  0
  7  6  1  1
  7  9  1  0
  8  7  1  0
 10  9  1  6
 10 11  1  0
 10 12  1  0
 11  4  1  0
 12 18  1  0
 13 12  2  0
 15 16  1  0
 15 14  1  6
 17 15  1  0
 17 18  1  1
 19 21  1  0
 19 17  1  0
 20 19  2  0
M  END
$$$$
