ALT.pdb
     RDKit          3D

 21 20  0  0  1  0  0  0  0  0999 V2000
   16.2505   -9.5771  -17.9907 C   0  0  0  0  0  0  0  0  0  0  0  0
   17.6590  -10.0445  -18.1459 C   0  0  2  0  0  0  0  0  0  0  0  0
   17.6157  -11.4996  -18.2594 N   0  0  0  0  0  0  0  0  0  0  0  0
   18.5591   -9.6166  -17.0757 C   0  0  0  0  0  0  0  0  0  0  0  0
   18.0683   -9.3106  -15.9578 O   0  0  0  0  0  0  0  0  0  0  0  0
   22.4298   -9.9609  -13.5746 C   0  0  0  0  0  0  0  0  0  0  0  0
   22.9834   -9.7411  -14.9667 C   0  0  1  0  0  0  0  0  0  0  0  0
   24.1281  -10.7774  -15.0694 C   0  0  0  0  0  0  0  0  0  0  0  0
   22.0206  -10.0960  -16.0434 C   0  0  0  0  0  0  0  0  0  0  0  0
   20.8905   -9.1632  -16.2267 C   0  0  2  0  0  0  0  0  0  0  0  0
   19.9850   -9.5442  -17.2923 N   0  0  0  0  0  0  0  0  0  0  0  0
   21.2118   -7.7208  -16.2597 C   0  0  0  0  0  0  0  0  0  0  0  0
   21.7047   -7.1740  -17.2685 O   0  0  0  0  0  0  0  0  0  0  0  0
   20.2146   -3.1571  -15.0280 C   0  0  0  0  0  0  0  0  0  0  0  0
   19.9591   -4.6433  -15.0134 C   0  0  1  0  0  0  0  0  0  0  0  0
   19.1083   -4.8925  -16.1001 O   0  0  0  0  0  0  0  0  0  0  0  0
   21.2091   -5.4505  -15.1120 C   0  0  2  0  0  0  0  0  0  0  0  0
   20.9749   -6.8748  -15.1190 N   0  0  0  0  0  0  0  0  0  0  0  0
   22.1809   -5.1013  -14.0177 C   0  0  0  0  0  0  0  0  0  0  0  0
   22.0944   -5.5760  -12.8492 O   0  0  0  0  0  0  0  0  0  0  0  0
   23.2422   -4.2347  -14.2077 O   0  0  0  0  0  0  0  0  0  0  0  0
  2  1  1  1
  3  2  1  0
  4  5  2  0
  4  2  1  0
  7  6  1  1
  7  9  1  0
  8  7  1  0
 10  9  1  6
 10 11  1  0
 10 12  1  0
 11  4  1  0
 12 18  1  0
 13 12  2  0
 15 16  1  0
 15 14  1  6
 17 15  1  0
 17 18  1  1
 19 21  1  0
 19 17  1  0
 20 19  2  0
M  END
$$$$
