ALT.pdb
     RDKit          3D

 21 20  0  0  1  0  0  0  0  0999 V2000
   22.5315  -22.7555   -7.8349 C   0  0  0  0  0  0  0  0  0  0  0  0
   22.9885  -21.9825   -6.6431 C   0  0  2  0  0  0  0  0  0  0  0  0
   21.7904  -21.4964   -5.9647 N   0  0  0  0  0  0  0  0  0  0  0  0
   23.9119  -20.8905   -6.9489 C   0  0  0  0  0  0  0  0  0  0  0  0
   23.4402  -19.7511   -7.2004 O   0  0  0  0  0  0  0  0  0  0  0  0
   28.9343  -20.2233   -4.5912 C   0  0  0  0  0  0  0  0  0  0  0  0
   27.6220  -19.8498   -5.2478 C   0  0  1  0  0  0  0  0  0  0  0  0
   27.5940  -18.3056   -5.1494 C   0  0  0  0  0  0  0  0  0  0  0  0
   27.5840  -20.1619   -6.7015 C   0  0  0  0  0  0  0  0  0  0  0  0
   26.2593  -20.0576   -7.3458 C   0  0  2  0  0  0  0  0  0  0  0  0
   25.3391  -21.1102   -6.9640 N   0  0  0  0  0  0  0  0  0  0  0  0
   26.2413  -19.8051   -8.8020 C   0  0  0  0  0  0  0  0  0  0  0  0
   26.4706  -18.6752   -9.2822 O   0  0  0  0  0  0  0  0  0  0  0  0
   26.8649  -21.6369  -13.3412 C   0  0  0  0  0  0  0  0  0  0  0  0
   26.7493  -21.8258  -11.8495 C   0  0  1  0  0  0  0  0  0  0  0  0
   28.0651  -21.9472  -11.3795 O   0  0  0  0  0  0  0  0  0  0  0  0
   26.0375  -20.7033  -11.1733 C   0  0  2  0  0  0  0  0  0  0  0  0
   25.9504  -20.8573   -9.7408 N   0  0  0  0  0  0  0  0  0  0  0  0
   24.6617  -20.4959  -11.7460 C   0  0  0  0  0  0  0  0  0  0  0  0
   23.6089  -20.6136  -11.0561 O   0  0  0  0  0  0  0  0  0  0  0  0
   24.4449  -20.1607  -13.0705 O   0  0  0  0  0  0  0  0  0  0  0  0
  2  1  1  6
  3  2  1  0
  4  5  2  0
  4  2  1  0
  7  6  1  6
  7  9  1  0
  8  7  1  0
 10  9  1  6
 10 11  1  0
 10 12  1  0
 11  4  1  0
 12 18  1  0
 13 12  2  0
 15 16  1  0
 15 14  1  6
 17 15  1  0
 17 18  1  1
 19 21  1  0
 19 17  1  0
 20 19  2  0
M  END
$$$$
