DFQ.pdb
     RDKit          3D

 29 29  0  0  1  0  0  0  0  0999 V2000
   23.6430  -12.9224  -19.5777 N   0  0  0  0  0  0  0  0  0  0  0  0
   23.9944  -11.5199  -19.4645 C   0  0  1  0  0  0  0  0  0  0  0  0
   23.7934  -10.8515  -20.7823 C   0  0  0  0  0  0  0  0  0  0  0  0
   24.9095  -11.2266  -21.6816 C   0  0  0  0  0  0  0  0  0  0  0  0
   26.0655  -11.5416  -21.2436 O   0  0  0  0  0  0  0  0  0  0  0  0
   23.2058  -10.8618  -18.3723 C   0  0  0  0  0  0  0  0  0  0  0  0
   22.0269  -11.2039  -18.0929 O   0  0  0  0  0  0  0  0  0  0  0  0
   24.7361  -11.2492  -23.0531 O   0  0  0  0  0  0  0  0  0  0  0  0
   23.7631   -9.8049  -17.5908 N   0  0  0  0  0  0  0  0  0  0  0  0
   23.0365   -9.1533  -16.5323 C   0  0  1  0  0  0  0  0  0  0  0  0
   23.9130   -8.8442  -15.3402 C   0  0  0  0  0  0  0  0  0  0  0  0
   23.1331   -8.2567  -14.2314 C   0  0  0  0  0  0  0  0  0  0  0  0
   22.5638   -9.0954  -13.3017 C   0  0  0  0  0  0  0  0  0  0  0  0
   21.8156   -8.5990  -12.2314 C   0  0  0  0  0  0  0  0  0  0  0  0
   21.6425   -7.2418  -12.1017 C   0  0  0  0  0  0  0  0  0  0  0  0
   22.2059   -6.3913  -13.0238 C   0  0  0  0  0  0  0  0  0  0  0  0
   22.9502   -6.9024  -14.0867 C   0  0  0  0  0  0  0  0  0  0  0  0
   22.3515   -7.9655  -17.0606 C   0  0  0  0  0  0  0  0  0  0  0  0
   23.0277   -7.2178  -17.8507 O   0  0  0  0  0  0  0  0  0  0  0  0
   16.3483   -6.9198  -18.2449 N   0  0  0  0  0  0  0  0  0  0  0  0
   16.9264   -5.6587  -18.5093 C   0  0  0  0  0  0  0  0  0  0  0  0
   16.2496   -4.7735  -19.0774 O   0  0  0  0  0  0  0  0  0  0  0  0
   18.3205   -5.3680  -18.1248 C   0  0  0  0  0  0  0  0  0  0  0  0
   18.9273   -6.5729  -17.4852 C   0  0  0  0  0  0  0  0  0  0  0  0
   20.4345   -6.4657  -17.3601 C   0  0  2  0  0  0  0  0  0  0  0  0
   21.0077   -7.6301  -16.7350 N   0  0  0  0  0  0  0  0  0  0  0  0
   20.7037   -5.2964  -16.4870 C   0  0  0  0  0  0  0  0  0  0  0  0
   20.4771   -5.3680  -15.2595 O   0  0  0  0  0  0  0  0  0  0  0  0
   21.2030   -4.1229  -17.0088 O   0  0  0  0  0  0  0  0  0  0  0  0
  2  1  1  6
  2  6  1  0
  2  3  1  0
  4  3  1  0
  4  8  1  0
  5  4  2  0
  6  7  2  0
  9 10  1  0
  9  6  1  0
 11 12  1  0
 10 11  1  1
 12 17  2  0
 13 14  2  0
 13 12  1  0
 14 15  1  0
 15 16  2  0
 17 16  1  0
 18 10  1  0
 19 18  2  0
 20 21  1  0
 21 22  2  0
 23 21  1  0
 23 24  1  0
 25 24  1  1
 25 26  1  0
 25 27  1  0
 26 18  1  0
 27 29  1  0
 28 27  2  0
M  END
$$$$
