DFQ.pdb
     RDKit          3D

 29 29  0  0  1  0  0  0  0  0999 V2000
   28.2800  -22.8683  -16.3641 N   0  0  0  0  0  0  0  0  0  0  0  0
   27.5698  -21.6081  -16.2597 C   0  0  1  0  0  0  0  0  0  0  0  0
   26.9724  -21.2658  -17.5825 C   0  0  0  0  0  0  0  0  0  0  0  0
   28.0508  -20.8018  -18.4863 C   0  0  0  0  0  0  0  0  0  0  0  0
   28.9082  -21.5982  -18.9946 O   0  0  0  0  0  0  0  0  0  0  0  0
   26.5380  -21.6690  -15.1737 C   0  0  0  0  0  0  0  0  0  0  0  0
   25.8750  -22.7117  -14.9324 O   0  0  0  0  0  0  0  0  0  0  0  0
   28.1698  -19.4649  -18.8180 O   0  0  0  0  0  0  0  0  0  0  0  0
   26.2575  -20.5336  -14.3549 N   0  0  0  0  0  0  0  0  0  0  0  0
   25.3380  -20.5807  -13.2479 C   0  0  1  0  0  0  0  0  0  0  0  0
   25.6367  -19.5246  -12.2085 C   0  0  0  0  0  0  0  0  0  0  0  0
   26.1613  -20.1222  -10.9633 C   0  0  0  0  0  0  0  0  0  0  0  0
   25.3190  -20.2569   -9.8843 C   0  0  0  0  0  0  0  0  0  0  0  0
   25.7573  -20.8143   -8.6805 C   0  0  0  0  0  0  0  0  0  0  0  0
   27.0596  -21.2389   -8.5688 C   0  0  0  0  0  0  0  0  0  0  0  0
   27.9130  -21.1104   -9.6394 C   0  0  0  0  0  0  0  0  0  0  0  0
   27.4603  -20.5519  -10.8344 C   0  0  0  0  0  0  0  0  0  0  0  0
   23.9579  -20.5154  -13.7479 C   0  0  0  0  0  0  0  0  0  0  0  0
   23.7285  -19.6788  -14.6903 O   0  0  0  0  0  0  0  0  0  0  0  0
   20.0554  -25.0659  -14.8330 N   0  0  0  0  0  0  0  0  0  0  0  0
   19.3105  -23.9394  -15.2464 C   0  0  0  0  0  0  0  0  0  0  0  0
   18.2327  -24.1004  -15.8602 O   0  0  0  0  0  0  0  0  0  0  0  0
   19.7851  -22.5715  -14.9646 C   0  0  0  0  0  0  0  0  0  0  0  0
   21.0840  -22.6312  -14.2309 C   0  0  0  0  0  0  0  0  0  0  0  0
   21.6243  -21.2547  -13.8958 C   0  0  2  0  0  0  0  0  0  0  0  0
   22.9038  -21.3233  -13.2377 N   0  0  0  0  0  0  0  0  0  0  0  0
   20.6563  -20.6387  -12.9549 C   0  0  0  0  0  0  0  0  0  0  0  0
   20.9621  -20.4911  -11.7516 O   0  0  0  0  0  0  0  0  0  0  0  0
   19.4155  -20.2228  -13.3866 O   0  0  0  0  0  0  0  0  0  0  0  0
  2  1  1  6
  2  6  1  0
  2  3  1  0
  4  3  1  0
  4  8  1  0
  5  4  2  0
  6  7  2  0
  9 10  1  0
  9  6  1  0
 11 12  1  0
 10 11  1  1
 12 17  2  0
 13 14  2  0
 13 12  1  0
 14 15  1  0
 15 16  2  0
 17 16  1  0
 18 10  1  0
 19 18  2  0
 20 21  1  0
 21 22  2  0
 23 21  1  0
 23 24  1  0
 25 24  1  1
 25 26  1  0
 25 27  1  0
 26 18  1  0
 27 29  1  0
 28 27  2  0
M  END
$$$$
