DFQ.pdb
     RDKit          3D

 29 29  0  0  1  0  0  0  0  0999 V2000
   27.1835  -22.2162  -18.6614 N   0  0  0  0  0  0  0  0  0  0  0  0
   26.5748  -21.0732  -18.0082 C   0  0  1  0  0  0  0  0  0  0  0  0
   25.4737  -20.5434  -18.8628 C   0  0  0  0  0  0  0  0  0  0  0  0
   25.9570  -19.3318  -19.5653 C   0  0  0  0  0  0  0  0  0  0  0  0
   26.5970  -19.3888  -20.6674 O   0  0  0  0  0  0  0  0  0  0  0  0
   26.0968  -21.4393  -16.6351 C   0  0  0  0  0  0  0  0  0  0  0  0
   25.6865  -22.5951  -16.3508 O   0  0  0  0  0  0  0  0  0  0  0  0
   25.7282  -18.0722  -19.0428 O   0  0  0  0  0  0  0  0  0  0  0  0
   26.0851  -20.4821  -15.5759 N   0  0  0  0  0  0  0  0  0  0  0  0
   25.5938  -20.7867  -14.2573 C   0  0  1  0  0  0  0  0  0  0  0  0
   26.2620  -19.9519  -13.1889 C   0  0  0  0  0  0  0  0  0  0  0  0
   25.7921  -20.3226  -11.8381 C   0  0  0  0  0  0  0  0  0  0  0  0
   26.5082  -21.2488  -11.1160 C   0  0  0  0  0  0  0  0  0  0  0  0
   26.1136  -21.6392   -9.8340 C   0  0  0  0  0  0  0  0  0  0  0  0
   24.9842  -21.0870   -9.2787 C   0  0  0  0  0  0  0  0  0  0  0  0
   24.2584  -20.1599   -9.9890 C   0  0  0  0  0  0  0  0  0  0  0  0
   24.6654  -19.7805  -11.2678 C   0  0  0  0  0  0  0  0  0  0  0  0
   24.1288  -20.6739  -14.2369 C   0  0  0  0  0  0  0  0  0  0  0  0
   23.6256  -19.6383  -14.7981 O   0  0  0  0  0  0  0  0  0  0  0  0
   19.7398  -24.2704  -15.1739 N   0  0  0  0  0  0  0  0  0  0  0  0
   18.9647  -23.3771  -14.4018 C   0  0  0  0  0  0  0  0  0  0  0  0
   17.7222  -23.3532  -14.5433 O   0  0  0  0  0  0  0  0  0  0  0  0
   19.5995  -22.4690  -13.4281 C   0  0  0  0  0  0  0  0  0  0  0  0
   21.0754  -22.6943  -13.4186 C   0  0  0  0  0  0  0  0  0  0  0  0
   21.8573  -21.4261  -13.6999 C   0  0  2  0  0  0  0  0  0  0  0  0
   23.2797  -21.6441  -13.6352 N   0  0  0  0  0  0  0  0  0  0  0  0
   21.4918  -20.4597  -12.6348 C   0  0  0  0  0  0  0  0  0  0  0  0
   20.8454  -19.4287  -12.9217 O   0  0  0  0  0  0  0  0  0  0  0  0
   21.8550  -20.6795  -11.3238 O   0  0  0  0  0  0  0  0  0  0  0  0
  2  1  1  6
  2  6  1  0
  2  3  1  0
  4  3  1  0
  4  8  1  0
  5  4  2  0
  6  7  2  0
  9 10  1  0
  9  6  1  0
 11 12  1  0
 10 11  1  1
 12 17  2  0
 13 14  2  0
 13 12  1  0
 14 15  1  0
 15 16  2  0
 17 16  1  0
 18 10  1  0
 19 18  2  0
 20 21  1  0
 21 22  2  0
 23 21  1  0
 23 24  1  0
 25 24  1  1
 25 26  1  0
 25 27  1  0
 26 18  1  0
 27 29  1  0
 28 27  2  0
M  END
$$$$
