DFQ.pdb
     RDKit          3D

 29 29  0  0  1  0  0  0  0  0999 V2000
   31.7441  -12.8029  -18.0947 N   0  0  0  0  0  0  0  0  0  0  0  0
   30.9793  -12.0837  -19.0952 C   0  0  1  0  0  0  0  0  0  0  0  0
   29.8800  -12.9561  -19.5992 C   0  0  0  0  0  0  0  0  0  0  0  0
   30.4754  -14.1679  -20.2093 C   0  0  0  0  0  0  0  0  0  0  0  0
   31.5219  -14.1242  -20.9377 O   0  0  0  0  0  0  0  0  0  0  0  0
   30.4632  -10.7902  -18.5400 C   0  0  0  0  0  0  0  0  0  0  0  0
   29.8647  -10.7230  -17.4344 O   0  0  0  0  0  0  0  0  0  0  0  0
   29.9085  -15.4129  -20.0082 O   0  0  0  0  0  0  0  0  0  0  0  0
   30.6292   -9.5619  -19.2487 N   0  0  0  0  0  0  0  0  0  0  0  0
   30.2123   -8.2921  -18.7131 C   0  0  1  0  0  0  0  0  0  0  0  0
   31.3541   -7.3061  -18.6195 C   0  0  0  0  0  0  0  0  0  0  0  0
   32.2236   -7.5917  -17.4596 C   0  0  0  0  0  0  0  0  0  0  0  0
   32.9904   -8.7335  -17.4689 C   0  0  0  0  0  0  0  0  0  0  0  0
   33.8318   -9.0571  -16.4016 C   0  0  0  0  0  0  0  0  0  0  0  0
   33.8969   -8.2172  -15.3157 C   0  0  0  0  0  0  0  0  0  0  0  0
   33.1358   -7.0722  -15.2927 C   0  0  0  0  0  0  0  0  0  0  0  0
   32.3007   -6.7630  -16.3661 C   0  0  0  0  0  0  0  0  0  0  0  0
   29.0754   -7.7772  -19.4888 C   0  0  0  0  0  0  0  0  0  0  0  0
   28.9392   -8.2332  -20.6780 O   0  0  0  0  0  0  0  0  0  0  0  0
   22.4673   -8.0030  -19.9764 N   0  0  0  0  0  0  0  0  0  0  0  0
   23.7634   -8.2955  -20.4551 C   0  0  0  0  0  0  0  0  0  0  0  0
   24.0628   -9.4726  -20.7537 O   0  0  0  0  0  0  0  0  0  0  0  0
   24.7729   -7.2311  -20.6091 C   0  0  0  0  0  0  0  0  0  0  0  0
   26.0306   -7.6258  -19.9079 C   0  0  0  0  0  0  0  0  0  0  0  0
   27.0176   -6.4799  -19.7990 C   0  0  2  0  0  0  0  0  0  0  0  0
   28.1522   -6.8218  -18.9799 N   0  0  0  0  0  0  0  0  0  0  0  0
   26.2963   -5.3624  -19.1411 C   0  0  0  0  0  0  0  0  0  0  0  0
   25.3950   -4.7523  -19.7565 O   0  0  0  0  0  0  0  0  0  0  0  0
   26.6042   -4.9811  -17.8532 O   0  0  0  0  0  0  0  0  0  0  0  0
  2  1  1  1
  2  6  1  0
  2  3  1  0
  4  3  1  0
  4  8  1  0
  5  4  2  0
  6  7  2  0
  9 10  1  0
  9  6  1  0
 11 12  1  0
 10 11  1  6
 12 17  2  0
 13 14  2  0
 13 12  1  0
 14 15  1  0
 15 16  2  0
 17 16  1  0
 18 10  1  0
 19 18  2  0
 20 21  1  0
 21 22  2  0
 23 21  1  0
 23 24  1  0
 25 24  1  1
 25 26  1  0
 25 27  1  0
 26 18  1  0
 27 29  1  0
 28 27  2  0
M  END
$$$$
