DFQ.pdb
     RDKit          3D

 29 29  0  0  1  0  0  0  0  0999 V2000
   28.4700  -20.2586  -17.2867 N   0  0  0  0  0  0  0  0  0  0  0  0
   27.7432  -21.5084  -17.1718 C   0  0  1  0  0  0  0  0  0  0  0  0
   28.5793  -22.6184  -17.7124 C   0  0  0  0  0  0  0  0  0  0  0  0
   29.3480  -22.1135  -18.8740 C   0  0  0  0  0  0  0  0  0  0  0  0
   28.7833  -21.6299  -19.9108 O   0  0  0  0  0  0  0  0  0  0  0  0
   27.3304  -21.7534  -15.7514 C   0  0  0  0  0  0  0  0  0  0  0  0
   26.7241  -22.7984  -15.3971 O   0  0  0  0  0  0  0  0  0  0  0  0
   30.7301  -22.1485  -18.8773 O   0  0  0  0  0  0  0  0  0  0  0  0
   27.6096  -20.8014  -14.7248 N   0  0  0  0  0  0  0  0  0  0  0  0
   27.1421  -20.9564  -13.3719 C   0  0  1  0  0  0  0  0  0  0  0  0
   27.9606  -20.1541  -12.3864 C   0  0  0  0  0  0  0  0  0  0  0  0
   27.4629  -20.3207  -11.0054 C   0  0  0  0  0  0  0  0  0  0  0  0
   26.4206  -19.5332  -10.5748 C   0  0  0  0  0  0  0  0  0  0  0  0
   25.9069  -19.6449   -9.2804 C   0  0  0  0  0  0  0  0  0  0  0  0
   26.4535  -20.5619   -8.4149 C   0  0  0  0  0  0  0  0  0  0  0  0
   27.4960  -21.3559   -8.8317 C   0  0  0  0  0  0  0  0  0  0  0  0
   27.9976  -21.2324  -10.1271 C   0  0  0  0  0  0  0  0  0  0  0  0
   25.7068  -20.6487  -13.3060 C   0  0  0  0  0  0  0  0  0  0  0  0
   25.3125  -19.6126  -13.9475 O   0  0  0  0  0  0  0  0  0  0  0  0
   21.2979  -24.4738  -14.4159 N   0  0  0  0  0  0  0  0  0  0  0  0
   20.5645  -23.2839  -14.2136 C   0  0  0  0  0  0  0  0  0  0  0  0
   19.3567  -23.2381  -14.5353 O   0  0  0  0  0  0  0  0  0  0  0  0
   21.2025  -22.0904  -13.6269 C   0  0  0  0  0  0  0  0  0  0  0  0
   22.6572  -22.3511  -13.4144 C   0  0  0  0  0  0  0  0  0  0  0  0
   23.3702  -21.1739  -12.7783 C   0  0  2  0  0  0  0  0  0  0  0  0
   24.7723  -21.4369  -12.5782 N   0  0  0  0  0  0  0  0  0  0  0  0
   22.7463  -20.9714  -11.4472 C   0  0  0  0  0  0  0  0  0  0  0  0
   21.6623  -20.3556  -11.3525 O   0  0  0  0  0  0  0  0  0  0  0  0
   23.3449  -21.4537  -10.3036 O   0  0  0  0  0  0  0  0  0  0  0  0
  2  1  1  1
  2  6  1  0
  2  3  1  0
  4  3  1  0
  4  8  1  0
  5  4  2  0
  6  7  2  0
  9 10  1  0
  9  6  1  0
 11 12  1  0
 10 11  1  1
 12 17  2  0
 13 14  2  0
 13 12  1  0
 14 15  1  0
 15 16  2  0
 17 16  1  0
 18 10  1  0
 19 18  2  0
 20 21  1  0
 21 22  2  0
 23 21  1  0
 23 24  1  0
 25 24  1  1
 25 26  1  0
 25 27  1  0
 26 18  1  0
 27 29  1  0
 28 27  2  0
M  END
$$$$
