DFQ.pdb
     RDKit          3D

 29 29  0  0  1  0  0  0  0  0999 V2000
   20.2945  -13.4587  -18.0018 N   0  0  0  0  0  0  0  0  0  0  0  0
   20.0272  -12.1466  -18.5590 C   0  0  1  0  0  0  0  0  0  0  0  0
   18.8091  -12.2119  -19.4165 C   0  0  0  0  0  0  0  0  0  0  0  0
   19.1066  -13.0469  -20.6037 C   0  0  0  0  0  0  0  0  0  0  0  0
   18.5485  -14.1765  -20.8036 O   0  0  0  0  0  0  0  0  0  0  0  0
   19.8962  -11.1244  -17.4700 C   0  0  0  0  0  0  0  0  0  0  0  0
   18.8414  -10.9901  -16.7959 O   0  0  0  0  0  0  0  0  0  0  0  0
   20.0163  -12.6249  -21.5556 O   0  0  0  0  0  0  0  0  0  0  0  0
   20.9745  -10.2469  -17.1450 N   0  0  0  0  0  0  0  0  0  0  0  0
   20.8742   -9.2355  -16.1252 C   0  0  1  0  0  0  0  0  0  0  0  0
   22.1461   -9.1055  -15.3189 C   0  0  0  0  0  0  0  0  0  0  0  0
   22.0786   -7.9674  -14.3792 C   0  0  0  0  0  0  0  0  0  0  0  0
   21.6128   -8.1854  -13.1034 C   0  0  0  0  0  0  0  0  0  0  0  0
   21.5259   -7.1492  -12.1705 C   0  0  0  0  0  0  0  0  0  0  0  0
   21.9141   -5.8815  -12.5327 C   0  0  0  0  0  0  0  0  0  0  0  0
   22.3818   -5.6488  -13.8047 C   0  0  0  0  0  0  0  0  0  0  0  0
   22.4625   -6.6939  -14.7246 C   0  0  0  0  0  0  0  0  0  0  0  0
   20.4484   -7.9651  -16.7285 C   0  0  0  0  0  0  0  0  0  0  0  0
   21.0925   -7.5787  -17.7661 O   0  0  0  0  0  0  0  0  0  0  0  0
   15.6964   -7.2660  -18.3170 N   0  0  0  0  0  0  0  0  0  0  0  0
   15.5882   -6.6815  -17.0358 C   0  0  0  0  0  0  0  0  0  0  0  0
   14.5550   -6.8666  -16.3555 O   0  0  0  0  0  0  0  0  0  0  0  0
   16.6780   -5.8537  -16.4856 C   0  0  0  0  0  0  0  0  0  0  0  0
   17.8002   -5.7824  -17.4677 C   0  0  0  0  0  0  0  0  0  0  0  0
   19.1594   -5.8802  -16.8030 C   0  0  2  0  0  0  0  0  0  0  0  0
   19.3805   -7.1769  -16.2161 N   0  0  0  0  0  0  0  0  0  0  0  0
   19.1691   -4.8745  -15.7118 C   0  0  0  0  0  0  0  0  0  0  0  0
   19.1015   -5.2454  -14.5197 O   0  0  0  0  0  0  0  0  0  0  0  0
   19.2520   -3.5276  -15.9906 O   0  0  0  0  0  0  0  0  0  0  0  0
  2  1  1  1
  2  6  1  0
  2  3  1  0
  4  3  1  0
  4  8  1  0
  5  4  2  0
  6  7  2  0
  9 10  1  0
  9  6  1  0
 11 12  1  0
 10 11  1  6
 12 17  2  0
 13 14  2  0
 13 12  1  0
 14 15  1  0
 15 16  2  0
 17 16  1  0
 18 10  1  0
 19 18  2  0
 20 21  1  0
 21 22  2  0
 23 21  1  0
 23 24  1  0
 25 24  1  1
 25 26  1  0
 25 27  1  0
 26 18  1  0
 27 29  1  0
 28 27  2  0
M  END
$$$$
