EAL.pdb
     RDKit          3D

 23 22  0  0  1  0  0  0  0  0999 V2000
    9.2701  -19.1343   20.7348 N   0  0  0  0  0  0  0  0  0  0  0  0
   10.2405  -18.1255   20.5173 C   0  0  1  0  0  0  0  0  0  0  0  0
   10.7653  -18.0680   19.1045 C   0  0  0  0  0  0  0  0  0  0  0  0
   11.5097  -19.3353   18.7475 C   0  0  0  0  0  0  0  0  0  0  0  0
   12.6278  -18.9664   17.8466 C   0  0  0  0  0  0  0  0  0  0  0  0
   13.7910  -19.0145   18.3008 O   0  0  0  0  0  0  0  0  0  0  0  0
    9.8486  -16.7761   20.9498 C   0  0  0  0  0  0  0  0  0  0  0  0
   10.7253  -15.8710   20.9148 O   0  0  0  0  0  0  0  0  0  0  0  0
   12.3900  -18.5829   16.5493 O   0  0  0  0  0  0  0  0  0  0  0  0
    6.7222  -14.8009   21.6632 C   0  0  0  0  0  0  0  0  0  0  0  0
    8.1734  -15.1021   21.8376 C   0  0  2  0  0  0  0  0  0  0  0  0
    8.5630  -16.4120   21.4036 N   0  0  0  0  0  0  0  0  0  0  0  0
    8.6643  -14.8028   23.2239 C   0  0  0  0  0  0  0  0  0  0  0  0
    9.7162  -14.1304   23.3791 O   0  0  0  0  0  0  0  0  0  0  0  0
    8.1411  -11.8360   26.5004 C   0  0  0  0  0  0  0  0  0  0  0  0
    7.0638  -12.7872   26.1092 C   0  0  2  0  0  0  0  0  0  0  0  0
    5.7366  -12.2868   26.5741 C   0  0  0  0  0  0  0  0  0  0  0  0
    7.3023  -14.2051   26.3771 C   0  0  0  0  0  0  0  0  0  0  0  0
    8.4072  -14.9394   25.7515 C   0  0  2  0  0  0  0  0  0  0  0  0
    7.9834  -15.2519   24.3710 N   0  0  0  0  0  0  0  0  0  0  0  0
    8.9741  -16.0965   26.4120 C   0  0  0  0  0  0  0  0  0  0  0  0
    9.7214  -15.8767   27.6000 O   0  0  0  0  0  0  0  0  0  0  0  0
    8.9023  -17.2981   26.0836 O   0  0  0  0  0  0  0  0  0  0  0  0
  2  1  1  6
  2  3  1  0
  3  4  1  0
  4  5  1  0
  5  9  1  0
  6  5  2  0
  7 12  1  0
  7  2  1  0
  8  7  2  0
 11 10  1  1
 11 12  1  0
 11 13  1  0
 13 20  1  0
 14 13  2  0
 16 15  1  1
 17 16  1  0
 19 18  1  1
 18 16  1  0
 20 19  1  0
 21 19  1  0
 21 22  1  0
 23 21  2  0
M  END
$$$$
