EAL.pdb
     RDKit          3D

 23 22  0  0  1  0  0  0  0  0999 V2000
    6.3102  -17.7154   21.6940 N   0  0  0  0  0  0  0  0  0  0  0  0
    7.6386  -18.0947   22.0071 C   0  0  1  0  0  0  0  0  0  0  0  0
    7.9803  -19.5147   21.6312 C   0  0  0  0  0  0  0  0  0  0  0  0
    6.8365  -20.1732   20.8923 C   0  0  0  0  0  0  0  0  0  0  0  0
    7.2606  -21.5472   20.5313 C   0  0  0  0  0  0  0  0  0  0  0  0
    8.3803  -21.6970   19.9971 O   0  0  0  0  0  0  0  0  0  0  0  0
    8.6829  -17.1899   21.5046 C   0  0  0  0  0  0  0  0  0  0  0  0
    9.8850  -17.5193   21.6929 O   0  0  0  0  0  0  0  0  0  0  0  0
    6.4444  -22.6240   20.7781 O   0  0  0  0  0  0  0  0  0  0  0  0
    6.8030  -14.2300   21.3783 C   0  0  0  0  0  0  0  0  0  0  0  0
    8.2161  -14.7049   21.4477 C   0  0  2  0  0  0  0  0  0  0  0  0
    8.4453  -15.9761   20.8253 N   0  0  0  0  0  0  0  0  0  0  0  0
    8.7763  -14.6539   22.8391 C   0  0  0  0  0  0  0  0  0  0  0  0
   10.0192  -14.5527   23.0053 O   0  0  0  0  0  0  0  0  0  0  0  0
    8.2258  -11.4701   26.0504 C   0  0  0  0  0  0  0  0  0  0  0  0
    7.1310  -12.4584   25.8419 C   0  0  2  0  0  0  0  0  0  0  0  0
    5.8665  -11.9707   26.4672 C   0  0  0  0  0  0  0  0  0  0  0  0
    7.4415  -13.8601   26.1214 C   0  0  0  0  0  0  0  0  0  0  0  0
    8.4572  -14.5976   25.3627 C   0  0  2  0  0  0  0  0  0  0  0  0
    7.9529  -14.7158   23.9789 N   0  0  0  0  0  0  0  0  0  0  0  0
    8.9565  -15.8625   25.8600 C   0  0  0  0  0  0  0  0  0  0  0  0
    9.7058  -15.8464   27.0668 O   0  0  0  0  0  0  0  0  0  0  0  0
    8.8230  -17.0028   25.3715 O   0  0  0  0  0  0  0  0  0  0  0  0
  2  1  1  6
  2  3  1  0
  3  4  1  0
  4  5  1  0
  5  9  1  0
  6  5  2  0
  7 12  1  0
  7  2  1  0
  8  7  2  0
 11 10  1  1
 11 12  1  0
 11 13  1  0
 13 20  1  0
 14 13  2  0
 16 15  1  1
 17 16  1  0
 19 18  1  1
 18 16  1  0
 20 19  1  0
 21 19  1  0
 21 22  1  0
 23 21  2  0
M  END
$$$$
