EAL.pdb
     RDKit          3D

 23 22  0  0  1  0  0  0  0  0999 V2000
    8.0036  -19.4542   20.4498 N   0  0  0  0  0  0  0  0  0  0  0  0
    8.1052  -18.8407   21.7226 C   0  0  1  0  0  0  0  0  0  0  0  0
    8.9457  -19.6078   22.7125 C   0  0  0  0  0  0  0  0  0  0  0  0
    9.5034  -20.8694   22.0919 C   0  0  0  0  0  0  0  0  0  0  0  0
   10.2599  -21.5948   23.1404 C   0  0  0  0  0  0  0  0  0  0  0  0
   11.5006  -21.4508   23.1781 O   0  0  0  0  0  0  0  0  0  0  0  0
    8.5290  -17.4330   21.7069 C   0  0  0  0  0  0  0  0  0  0  0  0
    9.7556  -17.1877   21.8630 O   0  0  0  0  0  0  0  0  0  0  0  0
    9.6134  -22.4021   24.0443 O   0  0  0  0  0  0  0  0  0  0  0  0
    7.0773  -14.0267   20.8973 C   0  0  0  0  0  0  0  0  0  0  0  0
    8.0700  -14.9532   21.5165 C   0  0  2  0  0  0  0  0  0  0  0  0
    7.6676  -16.3293   21.5305 N   0  0  0  0  0  0  0  0  0  0  0  0
    8.5289  -14.4905   22.8684 C   0  0  0  0  0  0  0  0  0  0  0  0
    9.1582  -13.4063   22.9736 O   0  0  0  0  0  0  0  0  0  0  0  0
    8.0829  -11.9148   26.5019 C   0  0  0  0  0  0  0  0  0  0  0  0
    7.0824  -12.9126   26.0307 C   0  0  2  0  0  0  0  0  0  0  0  0
    5.7481  -12.6358   26.6397 C   0  0  0  0  0  0  0  0  0  0  0  0
    7.4822  -14.3191   26.0656 C   0  0  0  0  0  0  0  0  0  0  0  0
    8.6908  -14.8008   25.3885 C   0  0  2  0  0  0  0  0  0  0  0  0
    8.2784  -15.2335   24.0373 N   0  0  0  0  0  0  0  0  0  0  0  0
    9.5375  -15.7846   26.0303 C   0  0  0  0  0  0  0  0  0  0  0  0
   10.1635  -15.4188   27.2518 O   0  0  0  0  0  0  0  0  0  0  0  0
    9.8089  -16.9446   25.6591 O   0  0  0  0  0  0  0  0  0  0  0  0
  2  1  1  6
  2  3  1  0
  3  4  1  0
  4  5  1  0
  5  9  1  0
  6  5  2  0
  7 12  1  0
  7  2  1  0
  8  7  2  0
 11 10  1  1
 11 12  1  0
 11 13  1  0
 13 20  1  0
 14 13  2  0
 16 15  1  1
 17 16  1  0
 19 18  1  1
 18 16  1  0
 20 19  1  0
 21 19  1  0
 21 22  1  0
 23 21  2  0
M  END
$$$$
