EAL.pdb
     RDKit          3D

 23 22  0  0  1  0  0  0  0  0999 V2000
    7.7843  -20.1265   22.4342 N   0  0  0  0  0  0  0  0  0  0  0  0
    7.0765  -18.9901   22.8970 C   0  0  1  0  0  0  0  0  0  0  0  0
    6.6153  -19.0910   24.3294 C   0  0  0  0  0  0  0  0  0  0  0  0
    7.7142  -19.6279   25.2193 C   0  0  0  0  0  0  0  0  0  0  0  0
    7.1540  -19.7944   26.5818 C   0  0  0  0  0  0  0  0  0  0  0  0
    5.9302  -19.6002   26.7436 O   0  0  0  0  0  0  0  0  0  0  0  0
    7.7556  -17.7026   22.6903 C   0  0  0  0  0  0  0  0  0  0  0  0
    8.9812  -17.6330   22.9772 O   0  0  0  0  0  0  0  0  0  0  0  0
    7.9591  -20.1524   27.6356 O   0  0  0  0  0  0  0  0  0  0  0  0
    6.9799  -14.3174   21.1374 C   0  0  0  0  0  0  0  0  0  0  0  0
    7.8181  -15.3107   21.8709 C   0  0  2  0  0  0  0  0  0  0  0  0
    7.1417  -16.5330   22.1942 N   0  0  0  0  0  0  0  0  0  0  0  0
    8.5049  -14.7181   23.0665 C   0  0  0  0  0  0  0  0  0  0  0  0
    9.3519  -13.8019   22.9059 O   0  0  0  0  0  0  0  0  0  0  0  0
    7.8121  -11.5252   26.0738 C   0  0  0  0  0  0  0  0  0  0  0  0
    6.9799  -12.7602   26.0436 C   0  0  2  0  0  0  0  0  0  0  0  0
    5.6983  -12.5396   26.7762 C   0  0  0  0  0  0  0  0  0  0  0  0
    7.6508  -14.0193   26.3658 C   0  0  0  0  0  0  0  0  0  0  0  0
    8.7905  -14.5146   25.5865 C   0  0  2  0  0  0  0  0  0  0  0  0
    8.2335  -15.1545   24.3768 N   0  0  0  0  0  0  0  0  0  0  0  0
    9.7934  -15.3462   26.2182 C   0  0  0  0  0  0  0  0  0  0  0  0
   10.6372  -14.7400   27.1870 O   0  0  0  0  0  0  0  0  0  0  0  0
   10.0362  -16.5560   26.0332 O   0  0  0  0  0  0  0  0  0  0  0  0
  2  1  1  1
  2  3  1  0
  3  4  1  0
  4  5  1  0
  5  9  1  0
  6  5  2  0
  7 12  1  0
  7  2  1  0
  8  7  2  0
 11 10  1  1
 11 12  1  0
 11 13  1  0
 13 20  1  0
 14 13  2  0
 16 15  1  1
 17 16  1  0
 19 18  1  1
 18 16  1  0
 20 19  1  0
 21 19  1  0
 21 22  1  0
 23 21  2  0
M  END
$$$$
