EAL.pdb
     RDKit          3D

 23 22  0  0  1  0  0  0  0  0999 V2000
    8.4211  -17.4515   19.4598 N   0  0  0  0  0  0  0  0  0  0  0  0
    8.9979  -17.8526   20.6899 C   0  0  1  0  0  0  0  0  0  0  0  0
   10.4870  -17.6290   20.7756 C   0  0  0  0  0  0  0  0  0  0  0  0
   11.1989  -18.2383   19.5883 C   0  0  0  0  0  0  0  0  0  0  0  0
   12.6540  -18.0211   19.7713 C   0  0  0  0  0  0  0  0  0  0  0  0
   13.2012  -18.5152   20.7802 O   0  0  0  0  0  0  0  0  0  0  0  0
    8.3504  -17.3076   21.8920 C   0  0  0  0  0  0  0  0  0  0  0  0
    8.0249  -16.0898   21.8822 O   0  0  0  0  0  0  0  0  0  0  0  0
   13.3786  -17.2968   18.8564 O   0  0  0  0  0  0  0  0  0  0  0  0
    6.7624  -18.5570   25.0853 C   0  0  0  0  0  0  0  0  0  0  0  0
    7.4232  -17.5237   24.2351 C   0  0  2  0  0  0  0  0  0  0  0  0
    8.0633  -18.0427   23.0618 N   0  0  0  0  0  0  0  0  0  0  0  0
    8.3350  -16.6256   25.0191 C   0  0  0  0  0  0  0  0  0  0  0  0
    9.5810  -16.7754   24.9314 O   0  0  0  0  0  0  0  0  0  0  0  0
    7.7849  -12.0591   25.1914 C   0  0  0  0  0  0  0  0  0  0  0  0
    7.0548  -12.8370   26.2308 C   0  0  2  0  0  0  0  0  0  0  0  0
    6.0278  -11.9801   26.8934 C   0  0  0  0  0  0  0  0  0  0  0  0
    7.8640  -13.6326   27.1534 C   0  0  0  0  0  0  0  0  0  0  0  0
    8.7024  -14.7442   26.6920 C   0  0  2  0  0  0  0  0  0  0  0  0
    7.8419  -15.6097   25.8592 N   0  0  0  0  0  0  0  0  0  0  0  0
    9.4734  -15.5144   27.6453 C   0  0  0  0  0  0  0  0  0  0  0  0
    9.0831  -16.8611   27.8736 O   0  0  0  0  0  0  0  0  0  0  0  0
   10.4624  -15.1613   28.3190 O   0  0  0  0  0  0  0  0  0  0  0  0
  2  1  1  6
  2  3  1  0
  3  4  1  0
  4  5  1  0
  5  9  1  0
  6  5  2  0
  7 12  1  0
  7  2  1  0
  8  7  2  0
 11 10  1  1
 11 12  1  0
 11 13  1  0
 13 20  1  0
 14 13  2  0
 16 15  1  1
 17 16  1  0
 19 18  1  1
 18 16  1  0
 20 19  1  0
 21 19  1  0
 21 22  1  0
 23 21  2  0
M  END
$$$$
