EAL.pdb
     RDKit          3D

 23 22  0  0  1  0  0  0  0  0999 V2000
    7.6387  -19.1389   20.5162 N   0  0  0  0  0  0  0  0  0  0  0  0
    8.3407  -18.7677   21.6893 C   0  0  1  0  0  0  0  0  0  0  0  0
    9.5254  -19.6463   22.0040 C   0  0  0  0  0  0  0  0  0  0  0  0
   10.0946  -19.3259   23.3683 C   0  0  0  0  0  0  0  0  0  0  0  0
   11.2566  -20.2179   23.5960 C   0  0  0  0  0  0  0  0  0  0  0  0
   11.1380  -21.4268   23.3027 O   0  0  0  0  0  0  0  0  0  0  0  0
    8.7460  -17.3560   21.7559 C   0  0  0  0  0  0  0  0  0  0  0  0
    9.9796  -17.1014   21.8037 O   0  0  0  0  0  0  0  0  0  0  0  0
   12.4301  -19.7275   24.1150 O   0  0  0  0  0  0  0  0  0  0  0  0
    7.2616  -13.9491   21.1692 C   0  0  0  0  0  0  0  0  0  0  0  0
    8.2448  -14.8774   21.8007 C   0  0  2  0  0  0  0  0  0  0  0  0
    7.8595  -16.2582   21.7711 N   0  0  0  0  0  0  0  0  0  0  0  0
    8.6528  -14.4396   23.1771 C   0  0  0  0  0  0  0  0  0  0  0  0
    9.3057  -13.3741   23.3223 O   0  0  0  0  0  0  0  0  0  0  0  0
    7.6677  -11.7729   26.2242 C   0  0  0  0  0  0  0  0  0  0  0  0
    6.8328  -12.9764   25.9537 C   0  0  2  0  0  0  0  0  0  0  0  0
    5.4421  -12.7651   26.4528 C   0  0  0  0  0  0  0  0  0  0  0  0
    7.4089  -14.2746   26.3025 C   0  0  0  0  0  0  0  0  0  0  0  0
    8.6563  -14.7584   25.7013 C   0  0  2  0  0  0  0  0  0  0  0  0
    8.3284  -15.1859   24.3255 N   0  0  0  0  0  0  0  0  0  0  0  0
    9.4578  -15.7469   26.3920 C   0  0  0  0  0  0  0  0  0  0  0  0
    9.9435  -15.4147   27.6850 O   0  0  0  0  0  0  0  0  0  0  0  0
    9.7973  -16.8849   26.0094 O   0  0  0  0  0  0  0  0  0  0  0  0
  2  1  1  6
  2  3  1  0
  3  4  1  0
  4  5  1  0
  5  9  1  0
  6  5  2  0
  7 12  1  0
  7  2  1  0
  8  7  2  0
 11 10  1  1
 11 12  1  0
 11 13  1  0
 13 20  1  0
 14 13  2  0
 16 15  1  1
 17 16  1  0
 19 18  1  1
 18 16  1  0
 20 19  1  0
 21 19  1  0
 21 22  1  0
 23 21  2  0
M  END
$$$$
