EAL.pdb
     RDKit          3D

 23 22  0  0  1  0  0  0  0  0999 V2000
    8.6351  -13.5193   18.3076 N   0  0  0  0  0  0  0  0  0  0  0  0
    9.1470  -14.4810   19.2130 C   0  0  1  0  0  0  0  0  0  0  0  0
   10.5797  -14.2446   19.6203 C   0  0  0  0  0  0  0  0  0  0  0  0
   11.5209  -15.1443   18.8505 C   0  0  0  0  0  0  0  0  0  0  0  0
   12.8888  -14.9295   19.3802 C   0  0  0  0  0  0  0  0  0  0  0  0
   13.0320  -14.1432   20.3408 O   0  0  0  0  0  0  0  0  0  0  0  0
    8.3279  -14.7099   20.4123 C   0  0  0  0  0  0  0  0  0  0  0  0
    7.8525  -13.7007   20.9994 O   0  0  0  0  0  0  0  0  0  0  0  0
   13.9673  -15.5777   18.8293 O   0  0  0  0  0  0  0  0  0  0  0  0
    6.7812  -17.5936   22.3295 C   0  0  0  0  0  0  0  0  0  0  0  0
    7.3094  -16.2060   22.1789 C   0  0  2  0  0  0  0  0  0  0  0  0
    8.0304  -15.9754   20.9611 N   0  0  0  0  0  0  0  0  0  0  0  0
    8.0807  -15.7464   23.3815 C   0  0  0  0  0  0  0  0  0  0  0  0
    9.3317  -15.8766   23.4046 O   0  0  0  0  0  0  0  0  0  0  0  0
    6.3146  -11.6145   26.9349 C   0  0  0  0  0  0  0  0  0  0  0  0
    7.4587  -12.4478   26.4710 C   0  0  2  0  0  0  0  0  0  0  0  0
    8.0078  -11.9082   25.1922 C   0  0  0  0  0  0  0  0  0  0  0  0
    7.2700  -13.8981   26.4831 C   0  0  0  0  0  0  0  0  0  0  0  0
    8.1557  -14.8035   25.7435 C   0  0  2  0  0  0  0  0  0  0  0  0
    7.4487  -15.1681   24.4983 N   0  0  0  0  0  0  0  0  0  0  0  0
    8.7160  -15.9658   26.4005 C   0  0  0  0  0  0  0  0  0  0  0  0
    8.0782  -17.2165   26.1842 O   0  0  0  0  0  0  0  0  0  0  0  0
    9.7084  -16.0362   27.1536 O   0  0  0  0  0  0  0  0  0  0  0  0
  2  1  1  1
  2  3  1  0
  3  4  1  0
  4  5  1  0
  5  9  1  0
  6  5  2  0
  7 12  1  0
  7  2  1  0
  8  7  2  0
 11 10  1  1
 11 12  1  0
 11 13  1  0
 13 20  1  0
 14 13  2  0
 16 15  1  6
 17 16  1  0
 19 18  1  1
 18 16  1  0
 20 19  1  0
 21 19  1  0
 21 22  1  0
 23 21  2  0
M  END
$$$$
