EAL.pdb
     RDKit          3D

 23 22  0  0  1  0  0  0  0  0999 V2000
    9.8737  -20.4792   22.2242 N   0  0  0  0  0  0  0  0  0  0  0  0
    9.9196  -19.3825   23.1196 C   0  0  1  0  0  0  0  0  0  0  0  0
   11.2924  -19.0952   23.6742 C   0  0  0  0  0  0  0  0  0  0  0  0
   12.0340  -20.3764   23.9845 C   0  0  0  0  0  0  0  0  0  0  0  0
   13.3309  -20.0116   24.6032 C   0  0  0  0  0  0  0  0  0  0  0  0
   13.6023  -18.7985   24.7309 O   0  0  0  0  0  0  0  0  0  0  0  0
    9.3246  -18.1366   22.6144 C   0  0  0  0  0  0  0  0  0  0  0  0
   10.0970  -17.2846   22.0983 O   0  0  0  0  0  0  0  0  0  0  0  0
   14.2083  -20.9812   25.0236 O   0  0  0  0  0  0  0  0  0  0  0  0
    5.9070  -16.6699   21.9148 C   0  0  0  0  0  0  0  0  0  0  0  0
    7.3665  -16.5864   22.2150 C   0  0  2  0  0  0  0  0  0  0  0  0
    7.9509  -17.8172   22.6618 N   0  0  0  0  0  0  0  0  0  0  0  0
    7.7058  -15.4428   23.1257 C   0  0  0  0  0  0  0  0  0  0  0  0
    7.6386  -14.2632   22.6936 O   0  0  0  0  0  0  0  0  0  0  0  0
    8.1817  -11.6223   26.2686 C   0  0  0  0  0  0  0  0  0  0  0  0
    7.0538  -12.4354   25.7344 C   0  0  2  0  0  0  0  0  0  0  0  0
    5.7551  -11.9412   26.2793 C   0  0  0  0  0  0  0  0  0  0  0  0
    7.2098  -13.8892   25.7705 C   0  0  0  0  0  0  0  0  0  0  0  0
    8.4626  -14.5465   25.3835 C   0  0  2  0  0  0  0  0  0  0  0  0
    8.1012  -15.6432   24.4616 N   0  0  0  0  0  0  0  0  0  0  0  0
    9.3937  -14.9876   26.4008 C   0  0  0  0  0  0  0  0  0  0  0  0
    9.2758  -16.3243   26.8670 O   0  0  0  0  0  0  0  0  0  0  0  0
   10.3152  -14.3486   26.9479 O   0  0  0  0  0  0  0  0  0  0  0  0
  2  1  1  6
  2  3  1  0
  3  4  1  0
  4  5  1  0
  5  9  1  0
  6  5  2  0
  7 12  1  0
  7  2  1  0
  8  7  2  0
 11 10  1  1
 11 12  1  0
 11 13  1  0
 13 20  1  0
 14 13  2  0
 16 15  1  1
 17 16  1  0
 19 18  1  1
 18 16  1  0
 20 19  1  0
 21 19  1  0
 21 22  1  0
 23 21  2  0
M  END
$$$$
