EAL.pdb
     RDKit          3D

 23 22  0  0  1  0  0  0  0  0999 V2000
    7.5573  -19.0276   21.2827 N   0  0  0  0  0  0  0  0  0  0  0  0
    8.8454  -18.4996   21.0207 C   0  0  1  0  0  0  0  0  0  0  0  0
    9.3960  -18.8597   19.6635 C   0  0  0  0  0  0  0  0  0  0  0  0
    9.0207  -20.2741   19.2808 C   0  0  0  0  0  0  0  0  0  0  0  0
    9.5643  -20.5373   17.9269 C   0  0  0  0  0  0  0  0  0  0  0  0
   10.5744  -21.2666   17.8290 O   0  0  0  0  0  0  0  0  0  0  0  0
    8.9847  -17.0522   21.2378 C   0  0  0  0  0  0  0  0  0  0  0  0
   10.1509  -16.5769   21.2944 O   0  0  0  0  0  0  0  0  0  0  0  0
    8.9730  -19.9940   16.8125 O   0  0  0  0  0  0  0  0  0  0  0  0
    6.8399  -13.9375   21.2666 C   0  0  0  0  0  0  0  0  0  0  0  0
    8.0364  -14.7438   21.6482 C   0  0  2  0  0  0  0  0  0  0  0  0
    7.9115  -16.1484   21.3889 N   0  0  0  0  0  0  0  0  0  0  0  0
    8.4939  -14.4722   23.0515 C   0  0  0  0  0  0  0  0  0  0  0  0
    9.0953  -13.3985   23.3123 O   0  0  0  0  0  0  0  0  0  0  0  0
    8.1855  -12.1248   26.6554 C   0  0  0  0  0  0  0  0  0  0  0  0
    7.1296  -12.8510   25.8961 C   0  0  2  0  0  0  0  0  0  0  0  0
    5.7837  -12.2895   26.2141 C   0  0  0  0  0  0  0  0  0  0  0  0
    7.1923  -14.3122   25.9067 C   0  0  0  0  0  0  0  0  0  0  0  0
    8.4082  -15.0409   25.5300 C   0  0  2  0  0  0  0  0  0  0  0  0
    8.2725  -15.3853   24.0996 N   0  0  0  0  0  0  0  0  0  0  0  0
    8.8446  -16.1768   26.3148 C   0  0  0  0  0  0  0  0  0  0  0  0
    9.5448  -15.9134   27.5223 O   0  0  0  0  0  0  0  0  0  0  0  0
    8.6928  -17.3932   26.0820 O   0  0  0  0  0  0  0  0  0  0  0  0
  2  1  1  6
  2  3  1  0
  3  4  1  0
  4  5  1  0
  5  9  1  0
  6  5  2  0
  7 12  1  0
  7  2  1  0
  8  7  2  0
 11 10  1  1
 11 12  1  0
 11 13  1  0
 13 20  1  0
 14 13  2  0
 16 15  1  1
 17 16  1  0
 19 18  1  1
 18 16  1  0
 20 19  1  0
 21 19  1  0
 21 22  1  0
 23 21  2  0
M  END
$$$$
