SPE.pdb
     RDKit          3D

 23 23  0  0  1  0  0  0  0  0999 V2000
    9.2039  -17.4570   17.5160 O   0  0  0  0  0  0  0  0  0  0  0  0
    8.4280  -16.4925   16.8678 C   0  0  0  0  0  0  0  0  0  0  0  0
    9.1770  -15.1526   16.8770 C   0  0  2  0  0  0  0  0  0  0  0  0
   10.2337  -15.3119   15.8796 N   0  0  0  0  0  0  0  0  0  0  0  0
    9.7435  -14.8838   18.2336 C   0  0  0  0  0  0  0  0  0  0  0  0
   10.8202  -15.5075   18.4699 O   0  0  0  0  0  0  0  0  0  0  0  0
    9.1008  -14.0087   19.1342 N   0  0  0  0  0  0  0  0  0  0  0  0
    8.3243  -12.8512   18.6387 C   0  0  0  0  0  0  0  0  0  0  0  0
    7.0155  -13.1300   19.3500 C   0  0  0  0  0  0  0  0  0  0  0  0
    7.5024  -13.5354   20.7344 C   0  0  0  0  0  0  0  0  0  0  0  0
    8.9879  -13.9255   20.5452 C   0  0  1  0  0  0  0  0  0  0  0  0
    9.2810  -15.1196   21.3344 C   0  0  0  0  0  0  0  0  0  0  0  0
    8.6844  -16.1885   21.1501 O   0  0  0  0  0  0  0  0  0  0  0  0
   10.2693  -15.1117   22.3549 N   0  0  0  0  0  0  0  0  0  0  0  0
   10.6336  -16.3196   23.0710 C   0  0  1  0  0  0  0  0  0  0  0  0
   12.0368  -16.7597   22.8517 C   0  0  0  0  0  0  0  0  0  0  0  0
   13.1054  -15.8359   23.3371 C   0  0  0  0  0  0  0  0  0  0  0  0
   14.4775  -16.2700   23.0354 C   0  0  0  0  0  0  0  0  0  0  0  0
   15.4412  -15.5304   23.3486 O   0  0  0  0  0  0  0  0  0  0  0  0
   10.3120  -16.2112   24.5108 C   0  0  0  0  0  0  0  0  0  0  0  0
   10.4646  -17.2793   25.3775 O   0  0  0  0  0  0  0  0  0  0  0  0
   14.7521  -17.4919   22.4044 O   0  0  0  0  0  0  0  0  0  0  0  0
    9.8938  -15.1303   24.9629 O   0  0  0  0  0  0  0  0  0  0  0  0
  2  1  1  0
  3  2  1  0
  3  4  1  6
  5  3  1  0
  5  6  2  0
  7  5  1  0
  8  7  1  0
  9 10  1  0
  9  8  1  0
 10 11  1  0
 11  7  1  0
 11 12  1  1
 12 14  1  0
 13 12  2  0
 14 15  1  0
 15 16  1  1
 16 17  1  0
 17 18  1  0
 18 22  1  0
 19 18  2  0
 20 21  1  0
 20 15  1  0
 23 20  2  0
M  END
$$$$
