SPE.pdb
     RDKit          3D

 23 23  0  0  1  0  0  0  0  0999 V2000
    7.4636  -16.2949   22.4567 O   0  0  0  0  0  0  0  0  0  0  0  0
    6.5612  -15.2684   22.1665 C   0  0  0  0  0  0  0  0  0  0  0  0
    7.2502  -13.9141   22.3843 C   0  0  2  0  0  0  0  0  0  0  0  0
    8.0963  -13.7351   21.2058 N   0  0  0  0  0  0  0  0  0  0  0  0
    8.0614  -13.9401   23.6392 C   0  0  0  0  0  0  0  0  0  0  0  0
    9.1509  -14.5765   23.5296 O   0  0  0  0  0  0  0  0  0  0  0  0
    7.6120  -13.3009   24.8137 N   0  0  0  0  0  0  0  0  0  0  0  0
    6.6237  -12.2024   24.7453 C   0  0  0  0  0  0  0  0  0  0  0  0
    5.5937  -12.7585   25.7077 C   0  0  0  0  0  0  0  0  0  0  0  0
    6.4788  -13.2882   26.8275 C   0  0  0  0  0  0  0  0  0  0  0  0
    7.8847  -13.4384   26.1984 C   0  0  1  0  0  0  0  0  0  0  0  0
    8.4948  -14.6817   26.6635 C   0  0  0  0  0  0  0  0  0  0  0  0
    7.8848  -15.7587   26.6403 O   0  0  0  0  0  0  0  0  0  0  0  0
    9.8231  -14.7151   27.1661 N   0  0  0  0  0  0  0  0  0  0  0  0
   10.4301  -15.9478   27.6318 C   0  0  1  0  0  0  0  0  0  0  0  0
   11.4332  -16.5250   26.6984 C   0  0  0  0  0  0  0  0  0  0  0  0
   12.5708  -15.6365   26.3146 C   0  0  0  0  0  0  0  0  0  0  0  0
   13.3976  -16.1393   25.2075 C   0  0  0  0  0  0  0  0  0  0  0  0
   14.3451  -15.4383   24.7777 O   0  0  0  0  0  0  0  0  0  0  0  0
   10.9757  -15.7979   28.9985 C   0  0  0  0  0  0  0  0  0  0  0  0
   11.4367  -16.8814   29.7257 O   0  0  0  0  0  0  0  0  0  0  0  0
   13.1645  -17.3854   24.6079 O   0  0  0  0  0  0  0  0  0  0  0  0
   11.0268  -14.6671   29.5145 O   0  0  0  0  0  0  0  0  0  0  0  0
  2  1  1  0
  3  2  1  0
  3  4  1  6
  5  3  1  0
  5  6  2  0
  7  5  1  0
  8  7  1  0
  9 10  1  0
  9  8  1  0
 10 11  1  0
 11  7  1  0
 11 12  1  6
 12 14  1  0
 13 12  2  0
 14 15  1  0
 15 16  1  6
 16 17  1  0
 17 18  1  0
 18 22  1  0
 19 18  2  0
 20 21  1  0
 20 15  1  0
 23 20  2  0
M  END
$$$$
