SPE.pdb
     RDKit          3D

 23 23  0  0  1  0  0  0  0  0999 V2000
    8.9612  -16.3849   18.2193 O   0  0  0  0  0  0  0  0  0  0  0  0
    8.8703  -15.3712   17.2620 C   0  0  0  0  0  0  0  0  0  0  0  0
    9.0456  -14.0102   17.9501 C   0  0  2  0  0  0  0  0  0  0  0  0
    9.9299  -13.2574   17.0624 N   0  0  0  0  0  0  0  0  0  0  0  0
    9.6536  -14.1873   19.3038 C   0  0  0  0  0  0  0  0  0  0  0  0
   10.8456  -14.6144   19.2760 O   0  0  0  0  0  0  0  0  0  0  0  0
    8.9261  -13.8936   20.4762 N   0  0  0  0  0  0  0  0  0  0  0  0
    7.7852  -12.9527   20.4417 C   0  0  0  0  0  0  0  0  0  0  0  0
    6.7317  -13.8446   21.0672 C   0  0  0  0  0  0  0  0  0  0  0  0
    7.5130  -14.4850   22.2062 C   0  0  0  0  0  0  0  0  0  0  0  0
    9.0031  -14.2980   21.8331 C   0  0  1  0  0  0  0  0  0  0  0  0
    9.7404  -15.5188   22.1505 C   0  0  0  0  0  0  0  0  0  0  0  0
    9.4486  -16.6099   21.6437 O   0  0  0  0  0  0  0  0  0  0  0  0
   10.8324  -15.5123   23.0590 N   0  0  0  0  0  0  0  0  0  0  0  0
   11.5178  -16.7348   23.4340 C   0  0  1  0  0  0  0  0  0  0  0  0
   12.9948  -16.5994   23.5380 C   0  0  0  0  0  0  0  0  0  0  0  0
   13.6911  -16.0033   22.3587 C   0  0  0  0  0  0  0  0  0  0  0  0
   15.0489  -15.5091   22.6311 C   0  0  0  0  0  0  0  0  0  0  0  0
   15.3783  -15.2283   23.8086 O   0  0  0  0  0  0  0  0  0  0  0  0
   10.9344  -17.3270   24.6576 C   0  0  0  0  0  0  0  0  0  0  0  0
    9.8919  -16.7225   25.3382 O   0  0  0  0  0  0  0  0  0  0  0  0
   15.9991  -15.3381   21.6140 O   0  0  0  0  0  0  0  0  0  0  0  0
   11.3878  -18.4010   25.0916 O   0  0  0  0  0  0  0  0  0  0  0  0
  2  1  1  0
  3  2  1  0
  3  4  1  6
  5  3  1  0
  5  6  2  0
  7  5  1  0
  8  7  1  0
  9 10  1  0
  9  8  1  0
 10 11  1  0
 11  7  1  0
 11 12  1  6
 12 14  1  0
 13 12  2  0
 14 15  1  0
 15 16  1  1
 16 17  1  0
 17 18  1  0
 18 22  1  0
 19 18  2  0
 20 21  1  0
 20 15  1  0
 23 20  2  0
M  END
$$$$
