SPE.pdb
     RDKit          3D

 23 23  0  0  1  0  0  0  0  0999 V2000
    7.4717  -16.6734   22.6624 O   0  0  0  0  0  0  0  0  0  0  0  0
    6.6120  -15.6271   22.3182 C   0  0  0  0  0  0  0  0  0  0  0  0
    7.3932  -14.3058   22.3344 C   0  0  2  0  0  0  0  0  0  0  0  0
    8.2234  -14.3514   21.1322 N   0  0  0  0  0  0  0  0  0  0  0  0
    8.2281  -14.2115   23.5704 C   0  0  0  0  0  0  0  0  0  0  0  0
    9.3057  -14.8743   23.5104 O   0  0  0  0  0  0  0  0  0  0  0  0
    7.8112  -13.4430   24.6775 N   0  0  0  0  0  0  0  0  0  0  0  0
    6.8096  -12.3665   24.5158 C   0  0  0  0  0  0  0  0  0  0  0  0
    5.8180  -12.8137   25.5710 C   0  0  0  0  0  0  0  0  0  0  0  0
    6.7454  -13.2035   26.7138 C   0  0  0  0  0  0  0  0  0  0  0  0
    8.1311  -13.4165   26.0587 C   0  0  1  0  0  0  0  0  0  0  0  0
    8.7695  -14.5933   26.6438 C   0  0  0  0  0  0  0  0  0  0  0  0
    8.1964  -15.6892   26.6989 O   0  0  0  0  0  0  0  0  0  0  0  0
   10.0841  -14.5365   27.1791 N   0  0  0  0  0  0  0  0  0  0  0  0
   10.7078  -15.6951   27.7901 C   0  0  1  0  0  0  0  0  0  0  0  0
   11.9659  -16.1312   27.1286 C   0  0  0  0  0  0  0  0  0  0  0  0
   12.0230  -15.9767   25.6441 C   0  0  0  0  0  0  0  0  0  0  0  0
   13.3007  -16.3723   25.0332 C   0  0  0  0  0  0  0  0  0  0  0  0
   14.2940  -15.6127   25.1345 O   0  0  0  0  0  0  0  0  0  0  0  0
   10.8916  -15.5042   29.2455 C   0  0  0  0  0  0  0  0  0  0  0  0
   10.6110  -14.3000   29.8672 O   0  0  0  0  0  0  0  0  0  0  0  0
   13.4521  -17.5787   24.3344 O   0  0  0  0  0  0  0  0  0  0  0  0
   11.3082  -16.4506   29.9372 O   0  0  0  0  0  0  0  0  0  0  0  0
  2  1  1  0
  3  2  1  0
  3  4  1  6
  5  3  1  0
  5  6  2  0
  7  5  1  0
  8  7  1  0
  9 10  1  0
  9  8  1  0
 10 11  1  0
 11  7  1  0
 11 12  1  1
 12 14  1  0
 13 12  2  0
 14 15  1  0
 15 16  1  6
 16 17  1  0
 17 18  1  0
 18 22  1  0
 19 18  2  0
 20 21  1  0
 20 15  1  0
 23 20  2  0
M  END
$$$$
