SPE.pdb
     RDKit          3D

 23 23  0  0  1  0  0  0  0  0999 V2000
    8.8029  -17.4896   17.4261 O   0  0  0  0  0  0  0  0  0  0  0  0
    8.2799  -16.4229   16.6908 C   0  0  0  0  0  0  0  0  0  0  0  0
    9.1858  -15.1962   16.8670 C   0  0  2  0  0  0  0  0  0  0  0  0
   10.3207  -15.4430   15.9795 N   0  0  0  0  0  0  0  0  0  0  0  0
    9.6233  -15.0742   18.2908 C   0  0  0  0  0  0  0  0  0  0  0  0
   10.5622  -15.8638   18.6058 O   0  0  0  0  0  0  0  0  0  0  0  0
    9.0148  -14.1504   19.1662 N   0  0  0  0  0  0  0  0  0  0  0  0
    8.3692  -12.9264   18.6434 C   0  0  0  0  0  0  0  0  0  0  0  0
    7.0065  -13.0923   19.2851 C   0  0  0  0  0  0  0  0  0  0  0  0
    7.3845  -13.5461   20.6883 C   0  0  0  0  0  0  0  0  0  0  0  0
    8.8378  -14.0648   20.5705 C   0  0  1  0  0  0  0  0  0  0  0  0
    8.9842  -15.2841   21.3620 C   0  0  0  0  0  0  0  0  0  0  0  0
    8.2545  -16.2689   21.1878 O   0  0  0  0  0  0  0  0  0  0  0  0
    9.9753  -15.3991   22.3731 N   0  0  0  0  0  0  0  0  0  0  0  0
   10.1693  -16.6324   23.1121 C   0  0  1  0  0  0  0  0  0  0  0  0
   11.3911  -17.3880   22.7290 C   0  0  0  0  0  0  0  0  0  0  0  0
   12.6734  -16.6221   22.7330 C   0  0  0  0  0  0  0  0  0  0  0  0
   13.8421  -17.3767   22.2566 C   0  0  0  0  0  0  0  0  0  0  0  0
   14.7085  -16.7963   21.5593 O   0  0  0  0  0  0  0  0  0  0  0  0
   10.1021  -16.4029   24.5720 C   0  0  0  0  0  0  0  0  0  0  0  0
    9.9201  -15.1396   25.1069 O   0  0  0  0  0  0  0  0  0  0  0  0
   14.0264  -18.7345   22.5552 O   0  0  0  0  0  0  0  0  0  0  0  0
   10.2093  -17.3699   25.3472 O   0  0  0  0  0  0  0  0  0  0  0  0
  2  1  1  0
  3  2  1  0
  3  4  1  6
  5  3  1  0
  5  6  2  0
  7  5  1  0
  8  7  1  0
  9 10  1  0
  9  8  1  0
 10 11  1  0
 11  7  1  0
 11 12  1  1
 12 14  1  0
 13 12  2  0
 14 15  1  0
 15 16  1  1
 16 17  1  0
 17 18  1  0
 18 22  1  0
 19 18  2  0
 20 21  1  0
 20 15  1  0
 23 20  2  0
M  END
$$$$
