SPE.pdb
     RDKit          3D

 23 23  0  0  1  0  0  0  0  0999 V2000
    7.9245  -16.8268   15.4003 O   0  0  0  0  0  0  0  0  0  0  0  0
    8.6211  -16.5476   16.5789 C   0  0  0  0  0  0  0  0  0  0  0  0
    9.1262  -15.0986   16.5353 C   0  0  2  0  0  0  0  0  0  0  0  0
   10.0772  -15.0709   15.4256 N   0  0  0  0  0  0  0  0  0  0  0  0
    9.7855  -14.7396   17.8276 C   0  0  0  0  0  0  0  0  0  0  0  0
   10.9496  -15.2213   17.9579 O   0  0  0  0  0  0  0  0  0  0  0  0
    9.1304  -13.9359   18.7842 N   0  0  0  0  0  0  0  0  0  0  0  0
    8.2238  -12.8460   18.3618 C   0  0  0  0  0  0  0  0  0  0  0  0
    6.9953  -13.2485   19.1526 C   0  0  0  0  0  0  0  0  0  0  0  0
    7.6077  -13.6259   20.4944 C   0  0  0  0  0  0  0  0  0  0  0  0
    9.1056  -13.8803   20.2008 C   0  0  1  0  0  0  0  0  0  0  0  0
    9.5547  -15.0532   20.9473 C   0  0  0  0  0  0  0  0  0  0  0  0
    8.9806  -16.1462   20.8561 O   0  0  0  0  0  0  0  0  0  0  0  0
   10.6767  -14.9958   21.8167 N   0  0  0  0  0  0  0  0  0  0  0  0
   11.1795  -16.1787   22.4897 C   0  0  1  0  0  0  0  0  0  0  0  0
   12.6584  -16.3250   22.4439 C   0  0  0  0  0  0  0  0  0  0  0  0
   13.4555  -15.1682   22.9510 C   0  0  0  0  0  0  0  0  0  0  0  0
   14.9132  -15.3386   22.8601 C   0  0  0  0  0  0  0  0  0  0  0  0
   15.5207  -15.9495   23.7721 O   0  0  0  0  0  0  0  0  0  0  0  0
   10.6619  -16.2740   23.8722 C   0  0  0  0  0  0  0  0  0  0  0  0
    9.8302  -15.3078   24.4107 O   0  0  0  0  0  0  0  0  0  0  0  0
   15.6574  -14.8389   21.7817 O   0  0  0  0  0  0  0  0  0  0  0  0
   10.9777  -17.2499   24.5760 O   0  0  0  0  0  0  0  0  0  0  0  0
  2  1  1  0
  3  2  1  0
  3  4  1  6
  5  3  1  0
  5  6  2  0
  7  5  1  0
  8  7  1  0
  9 10  1  0
  9  8  1  0
 10 11  1  0
 11  7  1  0
 11 12  1  1
 12 14  1  0
 13 12  2  0
 14 15  1  0
 15 16  1  1
 16 17  1  0
 17 18  1  0
 18 22  1  0
 19 18  2  0
 20 21  1  0
 20 15  1  0
 23 20  2  0
M  END
$$$$
