LLD.pdb
     RDKit          3D

 25 24  0  0  1  0  0  0  0  0999 V2000
    8.4515  -14.6154   18.3957 C   0  0  0  0  0  0  0  0  0  0  0  0
    7.5154  -13.8236   19.3038 C   0  0  2  0  0  0  0  0  0  0  0  0
    7.1966  -12.5192   18.6087 C   0  0  0  0  0  0  0  0  0  0  0  0
    8.1816  -13.5746   20.6366 C   0  0  0  0  0  0  0  0  0  0  0  0
    8.4441  -14.8021   21.4386 C   0  0  2  0  0  0  0  0  0  0  0  0
    7.1917  -15.5792   21.4165 N   0  0  0  0  0  0  0  0  0  0  0  0
    8.8458  -14.5366   22.8502 C   0  0  0  0  0  0  0  0  0  0  0  0
    9.9914  -14.0441   23.0894 O   0  0  0  0  0  0  0  0  0  0  0  0
    7.6282  -11.6755   26.6925 C   0  0  0  0  0  0  0  0  0  0  0  0
    6.7574  -12.7051   26.0990 C   0  0  2  0  0  0  0  0  0  0  0  0
    5.4480  -12.7422   26.9288 C   0  0  0  0  0  0  0  0  0  0  0  0
    7.2121  -14.0873   25.9991 C   0  0  0  0  0  0  0  0  0  0  0  0
    8.4647  -14.4899   25.3468 C   0  0  2  0  0  0  0  0  0  0  0  0
    8.0225  -14.8015   23.9472 N   0  0  0  0  0  0  0  0  0  0  0  0
    9.2609  -15.5953   25.8338 C   0  0  0  0  0  0  0  0  0  0  0  0
    9.4332  -15.7082   27.1245 O   0  0  0  0  0  0  0  0  0  0  0  0
    9.8841  -16.6046   25.0729 N   0  0  0  0  0  0  0  0  0  0  0  0
   10.6704  -17.6688   25.7388 C   0  0  1  0  0  0  0  0  0  0  0  0
    9.7683  -18.8747   25.9337 C   0  0  0  0  0  0  0  0  0  0  0  0
   10.5199  -19.9582   26.5844 C   0  0  0  0  0  0  0  0  0  0  0  0
   11.7254  -19.9189   26.9362 O   0  0  0  0  0  0  0  0  0  0  0  0
   11.7640  -18.0624   24.8382 C   0  0  0  0  0  0  0  0  0  0  0  0
   13.0146  -18.5151   25.2288 O   0  0  0  0  0  0  0  0  0  0  0  0
    9.8475  -21.1664   26.8502 O   0  0  0  0  0  0  0  0  0  0  0  0
   11.5930  -17.9970   23.5945 O   0  0  0  0  0  0  0  0  0  0  0  0
  2  1  1  6
  2  3  1  0
  4  5  1  0
  4  2  1  0
  5  6  1  1
  5  7  1  0
  7  8  2  0
 10  9  1  1
 11 10  1  0
 12 10  1  0
 13 12  1  1
 14  7  1  0
 14 13  1  0
 15 13  1  0
 15 16  2  0
 17 15  1  0
 18 17  1  0
 18 22  1  0
 18 19  1  6
 20 24  1  0
 20 19  1  0
 21 20  2  0
 22 23  1  0
 25 22  2  0
M  END
$$$$
