LLD.pdb
     RDKit          3D

 25 24  0  0  1  0  0  0  0  0999 V2000
    8.3757  -14.3876   18.4734 C   0  0  0  0  0  0  0  0  0  0  0  0
    7.6540  -13.4890   19.4732 C   0  0  2  0  0  0  0  0  0  0  0  0
    7.5349  -12.1153   18.8529 C   0  0  0  0  0  0  0  0  0  0  0  0
    8.4326  -13.4302   20.7664 C   0  0  0  0  0  0  0  0  0  0  0  0
    8.5497  -14.7322   21.4807 C   0  0  2  0  0  0  0  0  0  0  0  0
    7.2325  -15.3829   21.3606 N   0  0  0  0  0  0  0  0  0  0  0  0
    8.9200  -14.6093   22.9202 C   0  0  0  0  0  0  0  0  0  0  0  0
   10.1073  -14.2845   23.2322 O   0  0  0  0  0  0  0  0  0  0  0  0
    7.5712  -11.8563   26.5896 C   0  0  0  0  0  0  0  0  0  0  0  0
    6.7454  -12.9600   26.0694 C   0  0  2  0  0  0  0  0  0  0  0  0
    5.4217  -12.9718   26.8771 C   0  0  0  0  0  0  0  0  0  0  0  0
    7.2456  -14.3298   26.0929 C   0  0  0  0  0  0  0  0  0  0  0  0
    8.4645  -14.7662   25.3997 C   0  0  2  0  0  0  0  0  0  0  0  0
    8.0231  -14.8339   23.9673 N   0  0  0  0  0  0  0  0  0  0  0  0
    9.1334  -16.0048   25.7333 C   0  0  0  0  0  0  0  0  0  0  0  0
    9.4889  -16.1971   26.9763 O   0  0  0  0  0  0  0  0  0  0  0  0
    9.4503  -17.0695   24.8660 N   0  0  0  0  0  0  0  0  0  0  0  0
   10.1972  -18.2471   25.3652 C   0  0  1  0  0  0  0  0  0  0  0  0
   10.1624  -19.3216   24.2926 C   0  0  0  0  0  0  0  0  0  0  0  0
   10.9712  -20.4741   24.7165 C   0  0  0  0  0  0  0  0  0  0  0  0
   10.9879  -20.9886   25.8627 O   0  0  0  0  0  0  0  0  0  0  0  0
   11.5992  -17.8505   25.5633 C   0  0  0  0  0  0  0  0  0  0  0  0
   12.4457  -18.3262   26.5526 O   0  0  0  0  0  0  0  0  0  0  0  0
   11.8165  -21.0779   23.7661 O   0  0  0  0  0  0  0  0  0  0  0  0
   12.1168  -17.0059   24.7894 O   0  0  0  0  0  0  0  0  0  0  0  0
  2  1  1  6
  2  3  1  0
  4  5  1  0
  4  2  1  0
  5  6  1  1
  5  7  1  0
  7  8  2  0
 10  9  1  1
 11 10  1  0
 12 10  1  0
 13 12  1  1
 14  7  1  0
 14 13  1  0
 15 13  1  0
 15 16  2  0
 17 15  1  0
 18 17  1  0
 18 22  1  0
 18 19  1  6
 20 24  1  0
 20 19  1  0
 21 20  2  0
 22 23  1  0
 25 22  2  0
M  END
$$$$
