LLD.pdb
     RDKit          3D

 25 24  0  0  1  0  0  0  0  0999 V2000
    8.0625  -12.5640   18.9692 C   0  0  0  0  0  0  0  0  0  0  0  0
    7.8998  -14.0806   19.0043 C   0  0  2  0  0  0  0  0  0  0  0  0
    6.5845  -14.4166   18.3386 C   0  0  0  0  0  0  0  0  0  0  0  0
    7.9190  -14.5665   20.4346 C   0  0  0  0  0  0  0  0  0  0  0  0
    9.0635  -14.0651   21.2456 C   0  0  2  0  0  0  0  0  0  0  0  0
   10.2812  -14.5832   20.5962 N   0  0  0  0  0  0  0  0  0  0  0  0
    9.0351  -14.4927   22.6741 C   0  0  0  0  0  0  0  0  0  0  0  0
    9.9447  -15.2631   23.1116 O   0  0  0  0  0  0  0  0  0  0  0  0
    7.9362  -11.8974   26.9864 C   0  0  0  0  0  0  0  0  0  0  0  0
    7.0208  -12.3754   25.9355 C   0  0  2  0  0  0  0  0  0  0  0  0
    5.5833  -11.9659   26.3487 C   0  0  0  0  0  0  0  0  0  0  0  0
    6.9572  -13.7938   25.6022 C   0  0  0  0  0  0  0  0  0  0  0  0
    8.0711  -14.5441   25.0083 C   0  0  2  0  0  0  0  0  0  0  0  0
    8.0497  -14.0896   23.5785 N   0  0  0  0  0  0  0  0  0  0  0  0
    8.1187  -15.9898   25.0301 C   0  0  0  0  0  0  0  0  0  0  0  0
    7.4737  -16.6410   24.0983 O   0  0  0  0  0  0  0  0  0  0  0  0
    8.8021  -16.8122   25.9481 N   0  0  0  0  0  0  0  0  0  0  0  0
    9.4862  -18.0428   25.4883 C   0  0  1  0  0  0  0  0  0  0  0  0
   10.2362  -17.7195   24.2080 C   0  0  0  0  0  0  0  0  0  0  0  0
   10.8623  -18.9393   23.6766 C   0  0  0  0  0  0  0  0  0  0  0  0
   10.8614  -20.0721   24.2201 O   0  0  0  0  0  0  0  0  0  0  0  0
   10.4744  -18.4260   26.5074 C   0  0  0  0  0  0  0  0  0  0  0  0
   10.7711  -17.7140   27.6592 O   0  0  0  0  0  0  0  0  0  0  0  0
   11.5336  -18.8574   22.4417 O   0  0  0  0  0  0  0  0  0  0  0  0
   11.1330  -19.4867   26.3603 O   0  0  0  0  0  0  0  0  0  0  0  0
  2  1  1  1
  2  3  1  0
  4  5  1  0
  4  2  1  0
  5  6  1  6
  5  7  1  0
  7  8  2  0
 10  9  1  1
 11 10  1  0
 12 10  1  0
 13 12  1  1
 14  7  1  0
 14 13  1  0
 15 13  1  0
 15 16  2  0
 17 15  1  0
 18 17  1  0
 18 22  1  0
 18 19  1  6
 20 24  1  0
 20 19  1  0
 21 20  2  0
 22 23  1  0
 25 22  2  0
M  END
$$$$
