LLD.pdb
     RDKit          3D

 25 24  0  0  1  0  0  0  0  0999 V2000
    8.4929  -14.3271   18.4706 C   0  0  0  0  0  0  0  0  0  0  0  0
    7.6027  -13.5542   19.4392 C   0  0  2  0  0  0  0  0  0  0  0  0
    7.3848  -12.1744   18.8605 C   0  0  0  0  0  0  0  0  0  0  0  0
    8.2673  -13.4714   20.7933 C   0  0  0  0  0  0  0  0  0  0  0  0
    8.4467  -14.7819   21.4783 C   0  0  2  0  0  0  0  0  0  0  0  0
    7.1423  -15.4641   21.4012 N   0  0  0  0  0  0  0  0  0  0  0  0
    8.8739  -14.6743   22.9032 C   0  0  0  0  0  0  0  0  0  0  0  0
   10.0302  -14.2249   23.1743 O   0  0  0  0  0  0  0  0  0  0  0  0
    7.7495  -11.9495   26.5128 C   0  0  0  0  0  0  0  0  0  0  0  0
    6.8938  -13.0486   26.0326 C   0  0  2  0  0  0  0  0  0  0  0  0
    5.5734  -12.9992   26.8442 C   0  0  0  0  0  0  0  0  0  0  0  0
    7.3591  -14.4291   26.1009 C   0  0  0  0  0  0  0  0  0  0  0  0
    8.5469  -14.9266   25.3951 C   0  0  2  0  0  0  0  0  0  0  0  0
    8.0640  -15.0447   23.9794 N   0  0  0  0  0  0  0  0  0  0  0  0
    9.1940  -16.1667   25.7646 C   0  0  0  0  0  0  0  0  0  0  0  0
    9.4552  -16.3718   27.0287 O   0  0  0  0  0  0  0  0  0  0  0  0
    9.5801  -17.2203   24.9120 N   0  0  0  0  0  0  0  0  0  0  0  0
   10.3376  -18.3767   25.4439 C   0  0  1  0  0  0  0  0  0  0  0  0
   10.1220  -19.5556   24.5112 C   0  0  0  0  0  0  0  0  0  0  0  0
    8.7318  -20.0236   24.6142 C   0  0  0  0  0  0  0  0  0  0  0  0
    7.9210  -19.7472   25.5334 O   0  0  0  0  0  0  0  0  0  0  0  0
   11.7681  -18.0373   25.4212 C   0  0  0  0  0  0  0  0  0  0  0  0
   12.3226  -16.8930   24.8692 O   0  0  0  0  0  0  0  0  0  0  0  0
    8.2367  -20.8632   23.5982 O   0  0  0  0  0  0  0  0  0  0  0  0
   12.5983  -18.8282   25.9366 O   0  0  0  0  0  0  0  0  0  0  0  0
  2  1  1  6
  2  3  1  0
  4  5  1  0
  4  2  1  0
  5  6  1  1
  5  7  1  0
  7  8  2  0
 10  9  1  1
 11 10  1  0
 12 10  1  0
 13 12  1  1
 14  7  1  0
 14 13  1  0
 15 13  1  0
 15 16  2  0
 17 15  1  0
 18 17  1  0
 18 22  1  0
 18 19  1  6
 20 24  1  0
 20 19  1  0
 21 20  2  0
 22 23  1  0
 25 22  2  0
M  END
$$$$
