LLD.pdb
     RDKit          3D

 25 24  0  0  1  0  0  0  0  0999 V2000
    9.2183  -12.8862   27.9303 C   0  0  0  0  0  0  0  0  0  0  0  0
    9.5361  -14.3502   28.2195 C   0  0  2  0  0  0  0  0  0  0  0  0
   10.9721  -14.4243   28.6870 C   0  0  0  0  0  0  0  0  0  0  0  0
    9.3329  -15.1764   26.9712 C   0  0  0  0  0  0  0  0  0  0  0  0
    8.0415  -14.9340   26.2693 C   0  0  2  0  0  0  0  0  0  0  0  0
    7.0272  -15.7143   27.0008 N   0  0  0  0  0  0  0  0  0  0  0  0
    8.0419  -15.3326   24.8321 C   0  0  0  0  0  0  0  0  0  0  0  0
    7.6510  -16.4966   24.5087 O   0  0  0  0  0  0  0  0  0  0  0  0
    7.1878  -14.5491   19.4990 C   0  0  0  0  0  0  0  0  0  0  0  0
    7.3314  -13.5744   20.5945 C   0  0  2  0  0  0  0  0  0  0  0  0
    7.5822  -12.1855   19.9520 C   0  0  0  0  0  0  0  0  0  0  0  0
    8.3703  -13.7467   21.6034 C   0  0  0  0  0  0  0  0  0  0  0  0
    8.5544  -14.9766   22.3845 C   0  0  2  0  0  0  0  0  0  0  0  0
    8.4538  -14.4870   23.7993 N   0  0  0  0  0  0  0  0  0  0  0  0
    9.7447  -15.7898   22.2634 C   0  0  0  0  0  0  0  0  0  0  0  0
    9.7277  -16.7833   21.4142 O   0  0  0  0  0  0  0  0  0  0  0  0
   10.9626  -15.6368   22.9558 N   0  0  0  0  0  0  0  0  0  0  0  0
   12.0677  -16.6020   22.7526 C   0  0  1  0  0  0  0  0  0  0  0  0
   13.3598  -15.8192   22.5976 C   0  0  0  0  0  0  0  0  0  0  0  0
   13.4893  -15.3422   21.2127 C   0  0  0  0  0  0  0  0  0  0  0  0
   12.8189  -15.7357   20.2256 O   0  0  0  0  0  0  0  0  0  0  0  0
   12.1821  -17.4293   23.9627 C   0  0  0  0  0  0  0  0  0  0  0  0
   13.0692  -18.4782   24.1485 O   0  0  0  0  0  0  0  0  0  0  0  0
   14.4492  -14.3492   20.9393 O   0  0  0  0  0  0  0  0  0  0  0  0
   11.4259  -17.2005   24.9405 O   0  0  0  0  0  0  0  0  0  0  0  0
  2  1  1  6
  2  3  1  0
  4  5  1  0
  4  2  1  0
  5  6  1  1
  5  7  1  0
  7  8  2  0
 10  9  1  6
 11 10  1  0
 12 10  1  0
 13 12  1  6
 14  7  1  0
 14 13  1  0
 15 13  1  0
 15 16  2  0
 17 15  1  0
 18 17  1  0
 18 22  1  0
 18 19  1  1
 20 24  1  0
 20 19  1  0
 21 20  2  0
 22 23  1  0
 25 22  2  0
M  END
$$$$
