LLD.pdb
     RDKit          3D

 25 24  0  0  1  0  0  0  0  0999 V2000
    8.2639  -14.4363   18.2978 C   0  0  0  0  0  0  0  0  0  0  0  0
    7.5954  -13.5898   19.3769 C   0  0  2  0  0  0  0  0  0  0  0  0
    7.4027  -12.1992   18.8154 C   0  0  0  0  0  0  0  0  0  0  0  0
    8.4622  -13.5557   20.6137 C   0  0  0  0  0  0  0  0  0  0  0  0
    8.5497  -14.8496   21.3466 C   0  0  2  0  0  0  0  0  0  0  0  0
    7.2255  -15.4835   21.2142 N   0  0  0  0  0  0  0  0  0  0  0  0
    8.8991  -14.7129   22.7901 C   0  0  0  0  0  0  0  0  0  0  0  0
   10.0608  -14.3160   23.1146 O   0  0  0  0  0  0  0  0  0  0  0  0
    7.5211  -11.9133   26.3947 C   0  0  0  0  0  0  0  0  0  0  0  0
    6.7171  -13.0108   25.8289 C   0  0  2  0  0  0  0  0  0  0  0  0
    5.3366  -12.9883   26.5347 C   0  0  0  0  0  0  0  0  0  0  0  0
    7.1897  -14.3882   25.9089 C   0  0  0  0  0  0  0  0  0  0  0  0
    8.4191  -14.8686   25.2651 C   0  0  2  0  0  0  0  0  0  0  0  0
    8.0091  -15.0001   23.8277 N   0  0  0  0  0  0  0  0  0  0  0  0
    9.0673  -16.0963   25.6719 C   0  0  0  0  0  0  0  0  0  0  0  0
    9.3642  -16.2460   26.9360 O   0  0  0  0  0  0  0  0  0  0  0  0
    9.4200  -17.1911   24.8576 N   0  0  0  0  0  0  0  0  0  0  0  0
   10.0639  -18.3878   25.4468 C   0  0  1  0  0  0  0  0  0  0  0  0
   10.1997  -19.4386   24.3588 C   0  0  0  0  0  0  0  0  0  0  0  0
   10.7833  -20.6652   24.9220 C   0  0  0  0  0  0  0  0  0  0  0  0
   11.7863  -20.7326   25.6756 O   0  0  0  0  0  0  0  0  0  0  0  0
   11.4164  -18.0120   25.8845 C   0  0  0  0  0  0  0  0  0  0  0  0
   11.9721  -18.2799   27.1259 O   0  0  0  0  0  0  0  0  0  0  0  0
   10.1791  -21.8959   24.6016 O   0  0  0  0  0  0  0  0  0  0  0  0
   12.1701  -17.3895   25.0941 O   0  0  0  0  0  0  0  0  0  0  0  0
  2  1  1  6
  2  3  1  0
  4  5  1  0
  4  2  1  0
  5  6  1  1
  5  7  1  0
  7  8  2  0
 10  9  1  1
 11 10  1  0
 12 10  1  0
 13 12  1  1
 14  7  1  0
 14 13  1  0
 15 13  1  0
 15 16  2  0
 17 15  1  0
 18 17  1  0
 18 22  1  0
 18 19  1  6
 20 24  1  0
 20 19  1  0
 21 20  2  0
 22 23  1  0
 25 22  2  0
M  END
$$$$
