LLD.pdb
     RDKit          3D

 25 24  0  0  1  0  0  0  0  0999 V2000
    8.2907  -14.1428   18.1077 C   0  0  0  0  0  0  0  0  0  0  0  0
    7.4756  -13.4292   19.1821 C   0  0  2  0  0  0  0  0  0  0  0  0
    7.3012  -11.9918   18.7467 C   0  0  0  0  0  0  0  0  0  0  0  0
    8.1945  -13.5066   20.5085 C   0  0  0  0  0  0  0  0  0  0  0  0
    8.2199  -14.8634   21.1230 C   0  0  2  0  0  0  0  0  0  0  0  0
    6.8347  -15.3639   21.0632 N   0  0  0  0  0  0  0  0  0  0  0  0
    8.7023  -14.8872   22.5340 C   0  0  0  0  0  0  0  0  0  0  0  0
    9.9271  -14.6566   22.7773 O   0  0  0  0  0  0  0  0  0  0  0  0
    7.8689  -12.2263   26.5464 C   0  0  0  0  0  0  0  0  0  0  0  0
    6.9766  -13.1653   25.8443 C   0  0  2  0  0  0  0  0  0  0  0  0
    5.5762  -13.0563   26.5013 C   0  0  0  0  0  0  0  0  0  0  0  0
    7.2923  -14.5885   25.7991 C   0  0  0  0  0  0  0  0  0  0  0  0
    8.4073  -15.1537   25.0284 C   0  0  2  0  0  0  0  0  0  0  0  0
    7.8730  -15.1527   23.6263 N   0  0  0  0  0  0  0  0  0  0  0  0
    8.9479  -16.4650   25.3130 C   0  0  0  0  0  0  0  0  0  0  0  0
    9.1105  -17.2936   24.3153 O   0  0  0  0  0  0  0  0  0  0  0  0
    9.3458  -16.9761   26.5647 N   0  0  0  0  0  0  0  0  0  0  0  0
   10.2481  -18.1480   26.6443 C   0  0  1  0  0  0  0  0  0  0  0  0
   11.4533  -17.8807   25.7599 C   0  0  0  0  0  0  0  0  0  0  0  0
   12.3899  -19.0114   25.8404 C   0  0  0  0  0  0  0  0  0  0  0  0
   12.2355  -20.0571   26.5195 O   0  0  0  0  0  0  0  0  0  0  0  0
   10.7220  -18.2682   28.0310 C   0  0  0  0  0  0  0  0  0  0  0  0
   10.7712  -19.4375   28.7739 O   0  0  0  0  0  0  0  0  0  0  0  0
   13.5821  -18.9407   25.0945 O   0  0  0  0  0  0  0  0  0  0  0  0
   11.1269  -17.2433   28.6359 O   0  0  0  0  0  0  0  0  0  0  0  0
  2  1  1  6
  2  3  1  0
  4  5  1  0
  4  2  1  0
  5  6  1  1
  5  7  1  0
  7  8  2  0
 10  9  1  1
 11 10  1  0
 12 10  1  0
 13 12  1  1
 14  7  1  0
 14 13  1  0
 15 13  1  0
 15 16  2  0
 17 15  1  0
 18 17  1  0
 18 22  1  0
 18 19  1  6
 20 24  1  0
 20 19  1  0
 21 20  2  0
 22 23  1  0
 25 22  2  0
M  END
$$$$
