EMF.pdb
     RDKit          3D

 29 29  0  0  1  0  0  0  0  0999 V2000
   11.8472  -12.6634  -14.5479 N   0  0  0  0  0  0  0  0  0  0  0  0
   12.9776  -12.5933  -13.6400 C   0  0  1  0  0  0  0  0  0  0  0  0
   14.0822  -13.4684  -14.2130 C   0  0  0  0  0  0  0  0  0  0  0  0
   13.6893  -14.9238  -13.9809 C   0  0  0  0  0  0  0  0  0  0  0  0
   14.1169  -15.3495  -12.6179 C   0  0  0  0  0  0  0  0  0  0  0  0
   15.3346  -15.3205  -12.2783 O   0  0  0  0  0  0  0  0  0  0  0  0
   13.3962  -11.1816  -13.5107 C   0  0  0  0  0  0  0  0  0  0  0  0
   13.0996  -10.3843  -14.4307 O   0  0  0  0  0  0  0  0  0  0  0  0
   13.2128  -15.7931  -11.6658 O   0  0  0  0  0  0  0  0  0  0  0  0
   10.2253   -7.8222   -9.0516 C   0  0  0  0  0  0  0  0  0  0  0  0
   11.9922   -7.9988   -9.1868 S   0  0  0  0  0  0  0  0  0  0  0  0
   12.5437   -8.6430  -10.7611 C   0  0  0  0  0  0  0  0  0  0  0  0
   14.0223   -8.8178  -10.9101 C   0  0  0  0  0  0  0  0  0  0  0  0
   14.5082   -9.3218  -12.2314 C   0  0  2  0  0  0  0  0  0  0  0  0
   14.1134  -10.7340  -12.3813 N   0  0  0  0  0  0  0  0  0  0  0  0
   16.0185   -9.3055  -12.2657 C   0  0  0  0  0  0  0  0  0  0  0  0
   16.7315  -10.2573  -11.8859 O   0  0  0  0  0  0  0  0  0  0  0  0
   16.7363   -8.1525  -12.7544 N   0  0  0  0  0  0  0  0  0  0  0  0
   18.1876   -8.1620  -12.9018 C   0  0  1  0  0  0  0  0  0  0  0  0
   18.6602   -9.3701  -13.6307 C   0  0  0  0  0  0  0  0  0  0  0  0
   20.1255   -9.3853  -13.7819 C   0  0  0  0  0  0  0  0  0  0  0  0
   20.8020   -8.7593  -14.8261 C   0  0  0  0  0  0  0  0  0  0  0  0
   22.1736   -8.7843  -14.9524 C   0  0  0  0  0  0  0  0  0  0  0  0
   22.9288   -9.4462  -14.0252 C   0  0  0  0  0  0  0  0  0  0  0  0
   22.3144  -10.0764  -12.9820 C   0  0  0  0  0  0  0  0  0  0  0  0
   20.9440  -10.0433  -12.8681 C   0  0  0  0  0  0  0  0  0  0  0  0
   18.6839   -6.8765  -13.4211 C   0  0  0  0  0  0  0  0  0  0  0  0
   19.9577   -6.4422  -13.1562 O   0  0  0  0  0  0  0  0  0  0  0  0
   17.9279   -6.1610  -14.1190 O   0  0  0  0  0  0  0  0  0  0  0  0
  2  1  1  6
  2  7  1  0
  2  3  1  0
  3  4  1  0
  4  5  1  0
  5  9  1  0
  5  6  2  0
  7  8  2  0
 10 11  1  0
 11 12  1  0
 12 13  1  0
 14 13  1  1
 14 15  1  0
 15  7  1  0
 16 14  1  0
 17 16  2  0
 18 16  1  0
 19 27  1  0
 19 18  1  0
 19 20  1  6
 21 20  1  0
 22 21  2  0
 23 22  1  0
 24 23  2  0
 24 25  1  0
 25 26  2  0
 26 21  1  0
 27 28  1  0
 29 27  2  0
M  END
$$$$
