EMF.pdb
     RDKit          3D

 29 29  0  0  1  0  0  0  0  0999 V2000
   18.7834  -12.3642  -17.8196 N   0  0  0  0  0  0  0  0  0  0  0  0
   19.1988  -10.9876  -18.0181 C   0  0  1  0  0  0  0  0  0  0  0  0
   17.9427  -10.1522  -18.2143 C   0  0  0  0  0  0  0  0  0  0  0  0
   17.3720  -10.4873  -19.5885 C   0  0  0  0  0  0  0  0  0  0  0  0
   16.2765  -11.4885  -19.4484 C   0  0  0  0  0  0  0  0  0  0  0  0
   15.2946  -11.2765  -18.6803 O   0  0  0  0  0  0  0  0  0  0  0  0
   19.9787  -10.5522  -16.8403 C   0  0  0  0  0  0  0  0  0  0  0  0
   19.5405  -10.8276  -15.6992 O   0  0  0  0  0  0  0  0  0  0  0  0
   16.2788  -12.6871  -20.1439 O   0  0  0  0  0  0  0  0  0  0  0  0
   26.5944  -10.5605  -16.6344 C   0  0  0  0  0  0  0  0  0  0  0  0
   25.9083  -10.6950  -14.9966 S   0  0  0  0  0  0  0  0  0  0  0  0
   24.3045   -9.9264  -14.8111 C   0  0  0  0  0  0  0  0  0  0  0  0
   23.3558  -10.1175  -15.9525 C   0  0  0  0  0  0  0  0  0  0  0  0
   22.0121   -9.4746  -15.8225 C   0  0  2  0  0  0  0  0  0  0  0  0
   21.1889   -9.8426  -16.9886 N   0  0  0  0  0  0  0  0  0  0  0  0
   22.1532   -7.9712  -15.8699 C   0  0  0  0  0  0  0  0  0  0  0  0
   22.5648   -7.3440  -16.8678 O   0  0  0  0  0  0  0  0  0  0  0  0
   21.8086   -7.1581  -14.7281 N   0  0  0  0  0  0  0  0  0  0  0  0
   22.0163   -5.7141  -14.7278 C   0  0  1  0  0  0  0  0  0  0  0  0
   20.7280   -4.9715  -14.7799 C   0  0  0  0  0  0  0  0  0  0  0  0
   20.0785   -5.0850  -16.0974 C   0  0  0  0  0  0  0  0  0  0  0  0
   19.1659   -6.0843  -16.4265 C   0  0  0  0  0  0  0  0  0  0  0  0
   18.5685   -6.1757  -17.6644 C   0  0  0  0  0  0  0  0  0  0  0  0
   18.8669   -5.2574  -18.6318 C   0  0  0  0  0  0  0  0  0  0  0  0
   19.7555   -4.2576  -18.3601 C   0  0  0  0  0  0  0  0  0  0  0  0
   20.3446   -4.1782  -17.1197 C   0  0  0  0  0  0  0  0  0  0  0  0
   22.9392   -5.3037  -13.6562 C   0  0  0  0  0  0  0  0  0  0  0  0
   23.3807   -4.0095  -13.5495 O   0  0  0  0  0  0  0  0  0  0  0  0
   23.3326   -6.1534  -12.8232 O   0  0  0  0  0  0  0  0  0  0  0  0
  2  1  1  1
  2  7  1  0
  2  3  1  0
  3  4  1  0
  4  5  1  0
  5  9  1  0
  5  6  2  0
  7  8  2  0
 10 11  1  0
 11 12  1  0
 12 13  1  0
 14 13  1  6
 14 15  1  0
 15  7  1  0
 16 14  1  0
 17 16  2  0
 18 16  1  0
 19 27  1  0
 19 18  1  0
 19 20  1  1
 21 20  1  0
 22 21  2  0
 23 22  1  0
 24 23  2  0
 24 25  1  0
 25 26  2  0
 26 21  1  0
 27 28  1  0
 29 27  2  0
M  END
$$$$
