EMF.pdb
     RDKit          3D

 29 29  0  0  1  0  0  0  0  0999 V2000
   15.5505  -20.1149    5.0984 N   0  0  0  0  0  0  0  0  0  0  0  0
   15.4636  -18.8323    5.7724 C   0  0  1  0  0  0  0  0  0  0  0  0
   15.1151  -19.1010    7.2286 C   0  0  0  0  0  0  0  0  0  0  0  0
   15.2911  -20.5951    7.4802 C   0  0  0  0  0  0  0  0  0  0  0  0
   16.0088  -20.8075    8.7693 C   0  0  0  0  0  0  0  0  0  0  0  0
   15.5134  -20.4125    9.8636 O   0  0  0  0  0  0  0  0  0  0  0  0
   16.7574  -18.1319    5.6295 C   0  0  0  0  0  0  0  0  0  0  0  0
   17.7297  -18.7648    5.1562 O   0  0  0  0  0  0  0  0  0  0  0  0
   17.2399  -21.4407    8.8328 O   0  0  0  0  0  0  0  0  0  0  0  0
   20.2819  -10.9645    5.5279 C   0  0  0  0  0  0  0  0  0  0  0  0
   18.8469  -11.9705    5.8441 S   0  0  0  0  0  0  0  0  0  0  0  0
   19.1577  -13.7299    5.7707 C   0  0  0  0  0  0  0  0  0  0  0  0
   17.9511  -14.6084    5.8780 C   0  0  0  0  0  0  0  0  0  0  0  0
   18.1949  -16.0836    5.8938 C   0  0  2  0  0  0  0  0  0  0  0  0
   16.9029  -16.7826    6.0149 N   0  0  0  0  0  0  0  0  0  0  0  0
   18.9898  -16.4616    7.1217 C   0  0  0  0  0  0  0  0  0  0  0  0
   18.4744  -16.7268    8.2274 O   0  0  0  0  0  0  0  0  0  0  0  0
   20.4305  -16.5377    7.0774 N   0  0  0  0  0  0  0  0  0  0  0  0
   21.2184  -16.8102    8.2746 C   0  0  1  0  0  0  0  0  0  0  0  0
   22.6154  -17.1978    7.9392 C   0  0  0  0  0  0  0  0  0  0  0  0
   23.4221  -17.4522    9.1454 C   0  0  0  0  0  0  0  0  0  0  0  0
   24.2682  -16.5089    9.7234 C   0  0  0  0  0  0  0  0  0  0  0  0
   25.0163  -16.7643   10.8516 C   0  0  0  0  0  0  0  0  0  0  0  0
   24.9439  -17.9905   11.4509 C   0  0  0  0  0  0  0  0  0  0  0  0
   24.1294  -18.9506   10.9240 C   0  0  0  0  0  0  0  0  0  0  0  0
   23.3879  -18.6820    9.7970 C   0  0  0  0  0  0  0  0  0  0  0  0
   21.0833  -15.7290    9.2651 C   0  0  0  0  0  0  0  0  0  0  0  0
   20.9126  -15.9986   10.5991 O   0  0  0  0  0  0  0  0  0  0  0  0
   21.1231  -14.5359    8.8838 O   0  0  0  0  0  0  0  0  0  0  0  0
  2  1  1  6
  2  7  1  0
  2  3  1  0
  3  4  1  0
  4  5  1  0
  5  9  1  0
  5  6  2  0
  7  8  2  0
 10 11  1  0
 11 12  1  0
 12 13  1  0
 14 13  1  1
 14 15  1  0
 15  7  1  0
 16 14  1  0
 17 16  2  0
 18 16  1  0
 19 27  1  0
 19 18  1  0
 19 20  1  6
 21 20  1  0
 22 21  2  0
 23 22  1  0
 24 23  2  0
 24 25  1  0
 25 26  2  0
 26 21  1  0
 27 28  1  0
 29 27  2  0
M  END
$$$$
