EMF.pdb
     RDKit          3D

 29 29  0  0  1  0  0  0  0  0999 V2000
   26.2136  -17.3797  -15.3134 N   0  0  0  0  0  0  0  0  0  0  0  0
   25.3748  -17.3298  -14.1298 C   0  0  1  0  0  0  0  0  0  0  0  0
   24.0192  -16.7820  -14.5501 C   0  0  0  0  0  0  0  0  0  0  0  0
   23.5778  -17.5412  -15.7972 C   0  0  0  0  0  0  0  0  0  0  0  0
   22.3180  -18.2860  -15.5138 C   0  0  0  0  0  0  0  0  0  0  0  0
   21.7880  -18.2565  -14.3661 O   0  0  0  0  0  0  0  0  0  0  0  0
   25.2736  -18.6905  -13.5614 C   0  0  0  0  0  0  0  0  0  0  0  0
   24.1567  -19.2584  -13.5673 O   0  0  0  0  0  0  0  0  0  0  0  0
   21.6722  -19.0388  -16.4816 O   0  0  0  0  0  0  0  0  0  0  0  0
   29.4340  -22.7967  -15.2892 C   0  0  0  0  0  0  0  0  0  0  0  0
   27.6979  -23.0121  -15.6221 S   0  0  0  0  0  0  0  0  0  0  0  0
   26.6297  -21.9794  -14.6271 C   0  0  0  0  0  0  0  0  0  0  0  0
   27.1464  -21.6292  -13.2671 C   0  0  0  0  0  0  0  0  0  0  0  0
   26.3090  -20.6972  -12.4510 C   0  0  2  0  0  0  0  0  0  0  0  0
   26.4031  -19.3418  -13.0227 N   0  0  0  0  0  0  0  0  0  0  0  0
   26.8648  -20.5978  -11.0497 C   0  0  0  0  0  0  0  0  0  0  0  0
   28.0358  -20.2509  -10.7906 O   0  0  0  0  0  0  0  0  0  0  0  0
   26.0446  -20.9086   -9.9034 N   0  0  0  0  0  0  0  0  0  0  0  0
   26.6003  -20.9511   -8.5552 C   0  0  1  0  0  0  0  0  0  0  0  0
   27.4713  -19.7765   -8.2802 C   0  0  0  0  0  0  0  0  0  0  0  0
   28.0314  -19.8116   -6.9181 C   0  0  0  0  0  0  0  0  0  0  0  0
   28.9176  -20.7886   -6.4710 C   0  0  0  0  0  0  0  0  0  0  0  0
   29.4312  -20.8065   -5.1929 C   0  0  0  0  0  0  0  0  0  0  0  0
   29.0714  -19.8336   -4.3029 C   0  0  0  0  0  0  0  0  0  0  0  0
   28.2052  -18.8528   -4.6912 C   0  0  0  0  0  0  0  0  0  0  0  0
   27.7001  -18.8470   -5.9705 C   0  0  0  0  0  0  0  0  0  0  0  0
   25.5555  -21.2117   -7.5507 C   0  0  0  0  0  0  0  0  0  0  0  0
   25.8567  -21.7673   -6.3334 O   0  0  0  0  0  0  0  0  0  0  0  0
   24.3644  -20.9222   -7.8116 O   0  0  0  0  0  0  0  0  0  0  0  0
  2  1  1  6
  2  7  1  0
  2  3  1  0
  3  4  1  0
  4  5  1  0
  5  9  1  0
  5  6  2  0
  7  8  2  0
 10 11  1  0
 11 12  1  0
 12 13  1  0
 14 13  1  6
 14 15  1  0
 15  7  1  0
 16 14  1  0
 17 16  2  0
 18 16  1  0
 19 27  1  0
 19 18  1  0
 19 20  1  1
 21 20  1  0
 22 21  2  0
 23 22  1  0
 24 23  2  0
 24 25  1  0
 25 26  2  0
 26 21  1  0
 27 28  1  0
 29 27  2  0
M  END
$$$$
