EMF.pdb
     RDKit          3D

 29 29  0  0  1  0  0  0  0  0999 V2000
   25.8790  -17.8076  -15.5142 N   0  0  0  0  0  0  0  0  0  0  0  0
   26.5849  -18.6817  -14.5952 C   0  0  1  0  0  0  0  0  0  0  0  0
   27.9596  -18.0778  -14.3509 C   0  0  0  0  0  0  0  0  0  0  0  0
   28.5415  -17.6846  -15.7048 C   0  0  0  0  0  0  0  0  0  0  0  0
   28.7914  -18.9074  -16.5199 C   0  0  0  0  0  0  0  0  0  0  0  0
   29.3685  -19.9160  -16.0212 O   0  0  0  0  0  0  0  0  0  0  0  0
   25.7978  -18.7965  -13.3493 C   0  0  0  0  0  0  0  0  0  0  0  0
   25.0906  -17.8235  -12.9982 O   0  0  0  0  0  0  0  0  0  0  0  0
   28.4088  -18.9995  -17.8487 O   0  0  0  0  0  0  0  0  0  0  0  0
   20.2571  -21.6181  -13.7188 C   0  0  0  0  0  0  0  0  0  0  0  0
   21.6582  -22.1251  -12.7436 S   0  0  0  0  0  0  0  0  0  0  0  0
   22.9012  -20.8564  -12.5361 C   0  0  0  0  0  0  0  0  0  0  0  0
   23.9934  -21.1693  -11.5622 C   0  0  0  0  0  0  0  0  0  0  0  0
   25.0234  -20.1071  -11.3458 C   0  0  2  0  0  0  0  0  0  0  0  0
   25.8362  -19.9703  -12.5678 N   0  0  0  0  0  0  0  0  0  0  0  0
   25.9791  -20.5306  -10.2549 C   0  0  0  0  0  0  0  0  0  0  0  0
   26.8738  -21.3872  -10.4103 O   0  0  0  0  0  0  0  0  0  0  0  0
   25.9039  -19.9479   -8.9365 N   0  0  0  0  0  0  0  0  0  0  0  0
   26.8042  -20.3617   -7.8658 C   0  0  1  0  0  0  0  0  0  0  0  0
   27.6192  -19.2242   -7.3599 C   0  0  0  0  0  0  0  0  0  0  0  0
   28.4020  -19.5935   -6.1677 C   0  0  0  0  0  0  0  0  0  0  0  0
   29.5563  -20.3716   -6.2107 C   0  0  0  0  0  0  0  0  0  0  0  0
   30.2759  -20.7082   -5.0852 C   0  0  0  0  0  0  0  0  0  0  0  0
   29.8605  -20.2721   -3.8583 C   0  0  0  0  0  0  0  0  0  0  0  0
   28.7349  -19.5062   -3.7614 C   0  0  0  0  0  0  0  0  0  0  0  0
   28.0260  -19.1776   -4.8935 C   0  0  0  0  0  0  0  0  0  0  0  0
   26.0937  -21.1373   -6.8352 C   0  0  0  0  0  0  0  0  0  0  0  0
   24.7265  -21.2475   -6.8391 O   0  0  0  0  0  0  0  0  0  0  0  0
   26.7495  -21.7086   -5.9331 O   0  0  0  0  0  0  0  0  0  0  0  0
  2  1  1  6
  2  7  1  0
  2  3  1  0
  3  4  1  0
  4  5  1  0
  5  9  1  0
  5  6  2  0
  7  8  2  0
 10 11  1  0
 11 12  1  0
 12 13  1  0
 14 13  1  6
 14 15  1  0
 15  7  1  0
 16 14  1  0
 17 16  2  0
 18 16  1  0
 19 27  1  0
 19 18  1  0
 19 20  1  1
 21 20  1  0
 22 21  2  0
 23 22  1  0
 24 23  2  0
 24 25  1  0
 25 26  2  0
 26 21  1  0
 27 28  1  0
 29 27  2  0
M  END
$$$$
