DVD.pdb
     RDKit          3D

 24 23  0  0  1  0  0  0  0  0999 V2000
    7.9227  -18.1466   17.9971 N   0  0  0  0  0  0  0  0  0  0  0  0
    9.3341  -18.0398   18.1877 C   0  0  1  0  0  0  0  0  0  0  0  0
   10.0642  -17.6967   16.9024 C   0  0  0  0  0  0  0  0  0  0  0  0
    9.9655  -18.7781   15.9072 C   0  0  0  0  0  0  0  0  0  0  0  0
    9.1601  -19.7420   16.0073 O   0  0  0  0  0  0  0  0  0  0  0  0
    9.7081  -17.0554   19.2426 C   0  0  0  0  0  0  0  0  0  0  0  0
   10.9109  -16.7358   19.3330 O   0  0  0  0  0  0  0  0  0  0  0  0
   10.7892  -18.7461   14.8075 O   0  0  0  0  0  0  0  0  0  0  0  0
    6.8002  -15.5514   22.1532 C   0  0  0  0  0  0  0  0  0  0  0  0
    7.9930  -14.7872   21.6663 C   0  0  1  0  0  0  0  0  0  0  0  0
    8.3407  -13.7894   22.7585 C   0  0  0  0  0  0  0  0  0  0  0  0
    9.1678  -15.5725   21.2123 C   0  0  2  0  0  0  0  0  0  0  0  0
    8.7631  -16.4852   20.1246 N   0  0  0  0  0  0  0  0  0  0  0  0
    9.8247  -16.3372   22.2756 C   0  0  0  0  0  0  0  0  0  0  0  0
    9.4028  -17.4705   22.6671 O   0  0  0  0  0  0  0  0  0  0  0  0
   10.9819  -15.8707   22.9377 N   0  0  0  0  0  0  0  0  0  0  0  0
   11.6577  -16.7484   23.9228 C   0  0  1  0  0  0  0  0  0  0  0  0
   13.1605  -16.4452   23.8620 C   0  0  0  0  0  0  0  0  0  0  0  0
   13.9477  -17.1997   24.8439 C   0  0  0  0  0  0  0  0  0  0  0  0
   13.8647  -18.4297   25.0727 O   0  0  0  0  0  0  0  0  0  0  0  0
   11.0998  -16.4044   25.2451 C   0  0  0  0  0  0  0  0  0  0  0  0
   11.1317  -17.2423   26.3625 O   0  0  0  0  0  0  0  0  0  0  0  0
   14.8805  -16.4689   25.5949 O   0  0  0  0  0  0  0  0  0  0  0  0
   10.5393  -15.2905   25.4508 O   0  0  0  0  0  0  0  0  0  0  0  0
  2  1  1  6
  2  3  1  0
  4  3  1  0
  4  8  1  0
  5  4  2  0
  6  2  1  0
  6  7  2  0
 10  9  1  1
 10 12  1  0
 10 11  1  0
 12 13  1  6
 13  6  1  0
 14 12  1  0
 15 14  2  0
 16 14  1  0
 17 21  1  0
 17 16  1  0
 17 18  1  1
 19 20  2  0
 19 18  1  0
 21 22  1  0
 23 19  1  0
 24 21  2  0
M  END
$$$$
