DVD.pdb
     RDKit          3D

 24 23  0  0  1  0  0  0  0  0999 V2000
    7.7362  -15.0727   20.6948 N   0  0  0  0  0  0  0  0  0  0  0  0
    7.1415  -15.4182   21.9465 C   0  0  1  0  0  0  0  0  0  0  0  0
    6.9700  -16.9172   22.1081 C   0  0  0  0  0  0  0  0  0  0  0  0
    6.1590  -17.4989   21.0248 C   0  0  0  0  0  0  0  0  0  0  0  0
    6.0321  -16.9662   19.8900 O   0  0  0  0  0  0  0  0  0  0  0  0
    7.8911  -14.8807   23.1174 C   0  0  0  0  0  0  0  0  0  0  0  0
    9.1338  -14.9920   23.1073 O   0  0  0  0  0  0  0  0  0  0  0  0
    5.5011  -18.6842   21.2507 O   0  0  0  0  0  0  0  0  0  0  0  0
    5.8919  -13.2915   26.6833 C   0  0  0  0  0  0  0  0  0  0  0  0
    7.1587  -12.7464   26.0984 C   0  0  1  0  0  0  0  0  0  0  0  0
    7.8994  -12.0629   27.2358 C   0  0  0  0  0  0  0  0  0  0  0  0
    8.0190  -13.6867   25.3375 C   0  0  2  0  0  0  0  0  0  0  0  0
    7.2516  -14.2623   24.2150 N   0  0  0  0  0  0  0  0  0  0  0  0
    8.5885  -14.7669   26.1473 C   0  0  0  0  0  0  0  0  0  0  0  0
    7.9266  -15.8011   26.4756 O   0  0  0  0  0  0  0  0  0  0  0  0
    9.9209  -14.7385   26.6155 N   0  0  0  0  0  0  0  0  0  0  0  0
   10.4183  -15.8534   27.4563 C   0  0  1  0  0  0  0  0  0  0  0  0
   11.8525  -16.1678   27.0110 C   0  0  0  0  0  0  0  0  0  0  0  0
   11.9437  -16.6280   25.6206 C   0  0  0  0  0  0  0  0  0  0  0  0
   11.2335  -17.5111   25.0843 O   0  0  0  0  0  0  0  0  0  0  0  0
   10.3890  -15.3737   28.8516 C   0  0  0  0  0  0  0  0  0  0  0  0
   10.1372  -14.0531   29.2319 O   0  0  0  0  0  0  0  0  0  0  0  0
   12.9211  -16.0173   24.8206 O   0  0  0  0  0  0  0  0  0  0  0  0
   10.5983  -16.1588   29.8196 O   0  0  0  0  0  0  0  0  0  0  0  0
  2  1  1  6
  2  3  1  0
  4  3  1  0
  4  8  1  0
  5  4  2  0
  6  2  1  0
  6  7  2  0
 10  9  1  1
 10 12  1  0
 10 11  1  0
 12 13  1  6
 13  6  1  0
 14 12  1  0
 15 14  2  0
 16 14  1  0
 17 21  1  0
 17 16  1  0
 17 18  1  6
 19 20  2  0
 19 18  1  0
 21 22  1  0
 23 19  1  0
 24 21  2  0
M  END
$$$$
