DVD.pdb
     RDKit          3D

 24 23  0  0  1  0  0  0  0  0999 V2000
    8.6183  -17.3808   16.8915 N   0  0  0  0  0  0  0  0  0  0  0  0
    8.3561  -17.7799   18.2375 C   0  0  1  0  0  0  0  0  0  0  0  0
    8.7004  -19.2372   18.4833 C   0  0  0  0  0  0  0  0  0  0  0  0
    8.0164  -20.1325   17.5346 C   0  0  0  0  0  0  0  0  0  0  0  0
    6.8673  -19.9047   17.0704 O   0  0  0  0  0  0  0  0  0  0  0  0
    9.0564  -16.9333   19.2447 C   0  0  0  0  0  0  0  0  0  0  0  0
   10.2055  -16.5354   18.9649 O   0  0  0  0  0  0  0  0  0  0  0  0
    8.6538  -21.2796   17.1263 O   0  0  0  0  0  0  0  0  0  0  0  0
    7.4880  -13.7789   20.7658 C   0  0  0  0  0  0  0  0  0  0  0  0
    8.1457  -14.5969   21.8345 C   0  0  1  0  0  0  0  0  0  0  0  0
    7.0266  -15.1747   22.6849 C   0  0  0  0  0  0  0  0  0  0  0  0
    9.1255  -15.6244   21.4017 C   0  0  2  0  0  0  0  0  0  0  0  0
    8.4720  -16.5749   20.4800 N   0  0  0  0  0  0  0  0  0  0  0  0
    9.7486  -16.3605   22.5048 C   0  0  0  0  0  0  0  0  0  0  0  0
    9.2779  -17.4524   22.9540 O   0  0  0  0  0  0  0  0  0  0  0  0
   10.9252  -15.9109   23.1441 N   0  0  0  0  0  0  0  0  0  0  0  0
   11.5746  -16.7742   24.1592 C   0  0  1  0  0  0  0  0  0  0  0  0
   13.0297  -16.3093   24.3029 C   0  0  0  0  0  0  0  0  0  0  0  0
   13.7857  -16.3626   23.0465 C   0  0  0  0  0  0  0  0  0  0  0  0
   13.7196  -17.2661   22.1796 O   0  0  0  0  0  0  0  0  0  0  0  0
   10.8283  -16.5788   25.4172 C   0  0  0  0  0  0  0  0  0  0  0  0
   10.9818  -17.3653   26.5617 O   0  0  0  0  0  0  0  0  0  0  0  0
   14.6645  -15.2977   22.7976 O   0  0  0  0  0  0  0  0  0  0  0  0
    9.9746  -15.6546   25.5366 O   0  0  0  0  0  0  0  0  0  0  0  0
  2  1  1  6
  2  3  1  0
  4  3  1  0
  4  8  1  0
  5  4  2  0
  6  2  1  0
  6  7  2  0
 10  9  1  6
 10 12  1  0
 10 11  1  0
 12 13  1  6
 13  6  1  0
 14 12  1  0
 15 14  2  0
 16 14  1  0
 17 21  1  0
 17 16  1  0
 17 18  1  1
 19 20  2  0
 19 18  1  0
 21 22  1  0
 23 19  1  0
 24 21  2  0
M  END
$$$$
