DVD.pdb
     RDKit          3D

 24 23  0  0  1  0  0  0  0  0999 V2000
    6.5494  -15.7651   21.7105 N   0  0  0  0  0  0  0  0  0  0  0  0
    7.9766  -15.7121   21.7118 C   0  0  1  0  0  0  0  0  0  0  0  0
    8.5314  -15.1046   20.4367 C   0  0  0  0  0  0  0  0  0  0  0  0
    8.1915  -15.9086   19.2502 C   0  0  0  0  0  0  0  0  0  0  0  0
    7.5895  -17.0139   19.3100 O   0  0  0  0  0  0  0  0  0  0  0  0
    8.5328  -14.9817   22.8861 C   0  0  0  0  0  0  0  0  0  0  0  0
    9.7680  -14.8098   22.9264 O   0  0  0  0  0  0  0  0  0  0  0  0
    8.5439  -15.4400   18.0072 O   0  0  0  0  0  0  0  0  0  0  0  0
    6.0165  -13.5381   26.2127 C   0  0  0  0  0  0  0  0  0  0  0  0
    7.3150  -12.9487   25.7539 C   0  0  1  0  0  0  0  0  0  0  0  0
    7.8823  -12.1823   26.9371 C   0  0  0  0  0  0  0  0  0  0  0  0
    8.3038  -13.8702   25.1406 C   0  0  2  0  0  0  0  0  0  0  0  0
    7.7219  -14.4885   23.9327 N   0  0  0  0  0  0  0  0  0  0  0  0
    8.7871  -14.9180   26.0438 C   0  0  0  0  0  0  0  0  0  0  0  0
    8.0951  -15.9423   26.3395 O   0  0  0  0  0  0  0  0  0  0  0  0
   10.0640  -14.8672   26.6456 N   0  0  0  0  0  0  0  0  0  0  0  0
   10.4891  -15.9706   27.5395 C   0  0  1  0  0  0  0  0  0  0  0  0
   11.9181  -16.3651   27.1442 C   0  0  0  0  0  0  0  0  0  0  0  0
   11.9935  -17.0755   25.8625 C   0  0  0  0  0  0  0  0  0  0  0  0
   11.0217  -17.4429   25.1607 O   0  0  0  0  0  0  0  0  0  0  0  0
   10.4469  -15.4377   28.9151 C   0  0  0  0  0  0  0  0  0  0  0  0
   10.2949  -14.0871   29.2389 O   0  0  0  0  0  0  0  0  0  0  0  0
   13.2788  -17.3685   25.3824 O   0  0  0  0  0  0  0  0  0  0  0  0
   10.5503  -16.2005   29.9173 O   0  0  0  0  0  0  0  0  0  0  0  0
  2  1  1  6
  2  3  1  0
  4  3  1  0
  4  8  1  0
  5  4  2  0
  6  2  1  0
  6  7  2  0
 10  9  1  1
 10 12  1  0
 10 11  1  0
 12 13  1  6
 13  6  1  0
 14 12  1  0
 15 14  2  0
 16 14  1  0
 17 21  1  0
 17 16  1  0
 17 18  1  6
 19 20  2  0
 19 18  1  0
 21 22  1  0
 23 19  1  0
 24 21  2  0
M  END
$$$$
