DVD.pdb
     RDKit          3D

 24 23  0  0  1  0  0  0  0  0999 V2000
    8.1658  -16.5241   17.2998 N   0  0  0  0  0  0  0  0  0  0  0  0
    8.6715  -17.3177   18.3741 C   0  0  1  0  0  0  0  0  0  0  0  0
    9.6701  -18.3577   17.9011 C   0  0  0  0  0  0  0  0  0  0  0  0
    9.0382  -19.3821   17.0521 C   0  0  0  0  0  0  0  0  0  0  0  0
    9.6760  -20.3239   16.5097 O   0  0  0  0  0  0  0  0  0  0  0  0
    9.2870  -16.5048   19.4613 C   0  0  0  0  0  0  0  0  0  0  0  0
   10.3572  -15.9161   19.2061 O   0  0  0  0  0  0  0  0  0  0  0  0
    7.6831  -19.3190   16.8320 O   0  0  0  0  0  0  0  0  0  0  0  0
    7.6532  -13.6382   21.3709 C   0  0  0  0  0  0  0  0  0  0  0  0
    8.2806  -14.6045   22.3283 C   0  0  1  0  0  0  0  0  0  0  0  0
    7.1380  -15.3338   23.0153 C   0  0  0  0  0  0  0  0  0  0  0  0
    9.3089  -15.5291   21.7891 C   0  0  2  0  0  0  0  0  0  0  0  0
    8.7085  -16.3826   20.7445 N   0  0  0  0  0  0  0  0  0  0  0  0
    9.9482  -16.3715   22.8033 C   0  0  0  0  0  0  0  0  0  0  0  0
    9.5403  -17.5434   23.0790 O   0  0  0  0  0  0  0  0  0  0  0  0
   11.0720  -15.9420   23.5435 N   0  0  0  0  0  0  0  0  0  0  0  0
   11.7077  -16.8749   24.5042 C   0  0  1  0  0  0  0  0  0  0  0  0
   13.1768  -16.4585   24.6542 C   0  0  0  0  0  0  0  0  0  0  0  0
   13.9111  -16.4433   23.3838 C   0  0  0  0  0  0  0  0  0  0  0  0
   13.9190  -17.3534   22.5215 O   0  0  0  0  0  0  0  0  0  0  0  0
   10.9808  -16.7252   25.7798 C   0  0  0  0  0  0  0  0  0  0  0  0
   11.1046  -17.5898   26.8702 O   0  0  0  0  0  0  0  0  0  0  0  0
   14.6752  -15.2978   23.1148 O   0  0  0  0  0  0  0  0  0  0  0  0
   10.1734  -15.7711   25.9664 O   0  0  0  0  0  0  0  0  0  0  0  0
  2  1  1  6
  2  3  1  0
  4  3  1  0
  4  8  1  0
  5  4  2  0
  6  2  1  0
  6  7  2  0
 10  9  1  6
 10 12  1  0
 10 11  1  0
 12 13  1  6
 13  6  1  0
 14 12  1  0
 15 14  2  0
 16 14  1  0
 17 21  1  0
 17 16  1  0
 17 18  1  1
 19 20  2  0
 19 18  1  0
 21 22  1  0
 23 19  1  0
 24 21  2  0
M  END
$$$$
