DVD.pdb
     RDKit          3D

 24 23  0  0  1  0  0  0  0  0999 V2000
    8.2641  -14.9559   20.4338 N   0  0  0  0  0  0  0  0  0  0  0  0
    7.5685  -15.3344   21.6224 C   0  0  1  0  0  0  0  0  0  0  0  0
    7.4566  -16.8405   21.7691 C   0  0  0  0  0  0  0  0  0  0  0  0
    6.8494  -17.4661   20.5819 C   0  0  0  0  0  0  0  0  0  0  0  0
    7.5214  -17.9500   19.6321 O   0  0  0  0  0  0  0  0  0  0  0  0
    8.1733  -14.7641   22.8596 C   0  0  0  0  0  0  0  0  0  0  0  0
    9.4093  -14.8660   22.9974 O   0  0  0  0  0  0  0  0  0  0  0  0
    5.4795  -17.5318   20.4930 O   0  0  0  0  0  0  0  0  0  0  0  0
    5.7238  -13.1759   26.1181 C   0  0  0  0  0  0  0  0  0  0  0  0
    7.0929  -12.6763   25.7718 C   0  0  1  0  0  0  0  0  0  0  0  0
    7.6720  -12.0870   27.0472 C   0  0  0  0  0  0  0  0  0  0  0  0
    8.0188  -13.6277   25.1081 C   0  0  2  0  0  0  0  0  0  0  0  0
    7.4069  -14.1253   23.8599 N   0  0  0  0  0  0  0  0  0  0  0  0
    8.4147  -14.7623   25.9466 C   0  0  0  0  0  0  0  0  0  0  0  0
    7.6947  -15.8012   26.0805 O   0  0  0  0  0  0  0  0  0  0  0  0
    9.6325  -14.7848   26.6618 N   0  0  0  0  0  0  0  0  0  0  0  0
   10.0077  -16.0036   27.4175 C   0  0  1  0  0  0  0  0  0  0  0  0
   11.1698  -16.6734   26.6726 C   0  0  0  0  0  0  0  0  0  0  0  0
   11.6672  -17.8840   27.3362 C   0  0  0  0  0  0  0  0  0  0  0  0
   11.1645  -18.4369   28.3429 O   0  0  0  0  0  0  0  0  0  0  0  0
   10.4260  -15.5545   28.7596 C   0  0  0  0  0  0  0  0  0  0  0  0
   10.7037  -16.4069   29.8312 O   0  0  0  0  0  0  0  0  0  0  0  0
   12.8153  -18.4739   26.7863 O   0  0  0  0  0  0  0  0  0  0  0  0
   10.5617  -14.3270   29.0277 O   0  0  0  0  0  0  0  0  0  0  0  0
  2  1  1  6
  2  3  1  0
  4  3  1  0
  4  8  1  0
  5  4  2  0
  6  2  1  0
  6  7  2  0
 10  9  1  1
 10 12  1  0
 10 11  1  0
 12 13  1  6
 13  6  1  0
 14 12  1  0
 15 14  2  0
 16 14  1  0
 17 21  1  0
 17 16  1  0
 17 18  1  6
 19 20  2  0
 19 18  1  0
 21 22  1  0
 23 19  1  0
 24 21  2  0
M  END
$$$$
