DVD.pdb
     RDKit          3D

 24 23  0  0  1  0  0  0  0  0999 V2000
    8.8906  -17.5142   16.1269 N   0  0  0  0  0  0  0  0  0  0  0  0
    8.2491  -17.5271   17.4029 C   0  0  1  0  0  0  0  0  0  0  0  0
    8.2071  -18.9162   18.0121 C   0  0  0  0  0  0  0  0  0  0  0  0
    7.4815  -19.8712   17.1570 C   0  0  0  0  0  0  0  0  0  0  0  0
    6.4423  -19.5727   16.5099 O   0  0  0  0  0  0  0  0  0  0  0  0
    8.8665  -16.5824   18.3766 C   0  0  0  0  0  0  0  0  0  0  0  0
   10.1113  -16.4959   18.3864 O   0  0  0  0  0  0  0  0  0  0  0  0
    7.9520  -21.1581   17.0507 O   0  0  0  0  0  0  0  0  0  0  0  0
    6.4752  -14.2562   21.2399 C   0  0  0  0  0  0  0  0  0  0  0  0
    7.8068  -13.8567   20.6823 C   0  0  1  0  0  0  0  0  0  0  0  0
    8.4197  -12.8893   21.6812 C   0  0  0  0  0  0  0  0  0  0  0  0
    8.7381  -14.9451   20.2932 C   0  0  2  0  0  0  0  0  0  0  0  0
    8.1024  -15.7985   19.2697 N   0  0  0  0  0  0  0  0  0  0  0  0
    9.1904  -15.7755   21.4124 C   0  0  0  0  0  0  0  0  0  0  0  0
    8.5650  -16.8147   21.7929 O   0  0  0  0  0  0  0  0  0  0  0  0
   10.3619  -15.4831   22.1454 N   0  0  0  0  0  0  0  0  0  0  0  0
   10.7246  -16.3344   23.3034 C   0  0  1  0  0  0  0  0  0  0  0  0
   12.2253  -16.1501   23.5642 C   0  0  0  0  0  0  0  0  0  0  0  0
   13.0685  -16.5693   22.4389 C   0  0  0  0  0  0  0  0  0  0  0  0
   13.8536  -15.8392   21.7890 O   0  0  0  0  0  0  0  0  0  0  0  0
    9.9243  -15.8535   24.4463 C   0  0  0  0  0  0  0  0  0  0  0  0
    9.7049  -16.5761   25.6217 O   0  0  0  0  0  0  0  0  0  0  0  0
   12.9831  -17.9172   22.0592 O   0  0  0  0  0  0  0  0  0  0  0  0
    9.3696  -14.7182   24.4270 O   0  0  0  0  0  0  0  0  0  0  0  0
  2  1  1  6
  2  3  1  0
  4  3  1  0
  4  8  1  0
  5  4  2  0
  6  2  1  0
  6  7  2  0
 10  9  1  1
 10 12  1  0
 10 11  1  0
 12 13  1  6
 13  6  1  0
 14 12  1  0
 15 14  2  0
 16 14  1  0
 17 21  1  0
 17 16  1  0
 17 18  1  1
 19 20  2  0
 19 18  1  0
 21 22  1  0
 23 19  1  0
 24 21  2  0
M  END
$$$$
