FWW.pdb
     RDKit          3D

 40 44  0  0  1  0  0  0  0  0999 V2000
   25.2752  -20.5230  -18.6224 N   0  0  0  0  0  0  0  0  0  0  0  0
   25.2368  -20.8035  -17.2015 C   0  0  1  0  0  0  0  0  0  0  0  0
   25.4150  -19.4986  -16.4139 C   0  0  0  0  0  0  0  0  0  0  0  0
   26.7500  -18.9244  -16.6910 C   0  0  0  0  0  0  0  0  0  0  0  0
   26.8750  -17.8014  -17.4733 C   0  0  0  0  0  0  0  0  0  0  0  0
   28.1545  -17.2987  -17.7086 C   0  0  0  0  0  0  0  0  0  0  0  0
   29.2206  -17.9507  -17.1476 C   0  0  0  0  0  0  0  0  0  0  0  0
   29.0976  -19.0648  -16.3716 C   0  0  0  0  0  0  0  0  0  0  0  0
   27.8339  -19.5755  -16.1290 C   0  0  0  0  0  0  0  0  0  0  0  0
   23.9248  -21.3706  -16.7960 C   0  0  0  0  0  0  0  0  0  0  0  0
   22.8382  -20.9195  -17.2617 O   0  0  0  0  0  0  0  0  0  0  0  0
   23.8262  -22.4463  -15.8715 N   0  0  0  0  0  0  0  0  0  0  0  0
   22.5392  -23.0357  -15.4898 C   0  0  1  0  0  0  0  0  0  0  0  0
   22.5486  -24.5051  -15.7888 C   0  0  0  0  0  0  0  0  0  0  0  0
   21.3278  -25.2389  -15.4863 C   0  0  0  0  0  0  0  0  0  0  0  0
   20.1875  -25.4015  -16.2596 C   0  0  0  0  0  0  0  0  0  0  0  0
   19.3236  -26.1990  -15.6367 N   0  0  0  0  0  0  0  0  0  0  0  0
   19.8533  -26.5774  -14.4610 C   0  0  0  0  0  0  0  0  0  0  0  0
   19.3620  -27.3718  -13.4594 C   0  0  0  0  0  0  0  0  0  0  0  0
   20.0746  -27.6122  -12.3184 C   0  0  0  0  0  0  0  0  0  0  0  0
   21.3294  -27.0390  -12.1650 C   0  0  0  0  0  0  0  0  0  0  0  0
   21.7969  -26.2515  -13.1786 C   0  0  0  0  0  0  0  0  0  0  0  0
   21.0961  -25.9866  -14.3576 C   0  0  0  0  0  0  0  0  0  0  0  0
   22.2012  -22.6290  -14.1256 C   0  0  0  0  0  0  0  0  0  0  0  0
   23.1473  -22.5504  -13.2508 O   0  0  0  0  0  0  0  0  0  0  0  0
   20.9376  -22.2943  -13.6177 N   0  0  0  0  0  0  0  0  0  0  0  0
   20.6385  -21.3619  -12.5618 C   0  0  1  0  0  0  0  0  0  0  0  0
   21.4904  -20.1624  -12.5385 C   0  0  0  0  0  0  0  0  0  0  0  0
   22.6704  -20.3610  -11.6693 C   0  0  0  0  0  0  0  0  0  0  0  0
   22.6898  -20.8522  -10.3561 C   0  0  0  0  0  0  0  0  0  0  0  0
   23.9474  -20.8576   -9.9078 N   0  0  0  0  0  0  0  0  0  0  0  0
   24.7924  -20.3952  -10.8457 C   0  0  0  0  0  0  0  0  0  0  0  0
   26.1571  -20.2009  -10.8884 C   0  0  0  0  0  0  0  0  0  0  0  0
   26.7922  -19.6938  -12.0145 C   0  0  0  0  0  0  0  0  0  0  0  0
   26.0144  -19.3802  -13.1171 C   0  0  0  0  0  0  0  0  0  0  0  0
   24.6513  -19.5822  -13.0533 C   0  0  0  0  0  0  0  0  0  0  0  0
   23.9994  -20.0863  -11.9411 C   0  0  0  0  0  0  0  0  0  0  0  0
   19.1960  -20.9809  -12.4957 C   0  0  0  0  0  0  0  0  0  0  0  0
   18.6992  -20.2182  -13.3582 O   0  0  0  0  0  0  0  0  0  0  0  0
   18.3210  -21.4199  -11.5109 O   0  0  0  0  0  0  0  0  0  0  0  0
  2  1  1  6
  3  4  1  0
  3  2  1  0
  4  5  2  0
  5  6  1  0
  7  6  2  0
  8  7  1  0
  9  8  2  0
  9  4  1  0
 10 11  2  0
 10  2  1  0
 12 10  1  0
 13 12  1  0
 13 14  1  1
 15 23  1  0
 15 14  1  0
 16 15  2  0
 17 16  1  0
 17 18  1  0
 18 19  1  0
 18 23  2  0
 19 20  2  0
 20 21  1  0
 22 21  2  0
 23 22  1  0
 24 13  1  0
 25 24  2  0
 26 24  1  0
 27 38  1  0
 27 26  1  0
 28 29  1  0
 27 28  1  6
 29 30  2  0
 31 30  1  0
 32 31  1  0
 33 32  2  0
 34 33  1  0
 35 34  2  0
 35 36  1  0
 36 37  2  0
 37 32  1  0
 37 29  1  0
 38 40  1  0
 39 38  2  0
M  END
$$$$
