FWW.pdb
     RDKit          3D

 40 44  0  0  1  0  0  0  0  0999 V2000
   30.2517  -22.1143  -17.5882 N   0  0  0  0  0  0  0  0  0  0  0  0
   29.0202  -22.7535  -17.1712 C   0  0  1  0  0  0  0  0  0  0  0  0
   29.3259  -24.1562  -16.6290 C   0  0  0  0  0  0  0  0  0  0  0  0
   29.4653  -25.1083  -17.7527 C   0  0  0  0  0  0  0  0  0  0  0  0
   30.7079  -25.4189  -18.2507 C   0  0  0  0  0  0  0  0  0  0  0  0
   30.7884  -26.3197  -19.3124 C   0  0  0  0  0  0  0  0  0  0  0  0
   29.6242  -26.8482  -19.8040 C   0  0  0  0  0  0  0  0  0  0  0  0
   28.3911  -26.5407  -19.3107 C   0  0  0  0  0  0  0  0  0  0  0  0
   28.2952  -25.6481  -18.2568 C   0  0  0  0  0  0  0  0  0  0  0  0
   28.3662  -22.0031  -16.0681 C   0  0  0  0  0  0  0  0  0  0  0  0
   29.0389  -21.5028  -15.1204 O   0  0  0  0  0  0  0  0  0  0  0  0
   26.9586  -21.8076  -16.0255 N   0  0  0  0  0  0  0  0  0  0  0  0
   26.3163  -20.9542  -15.0211 C   0  0  1  0  0  0  0  0  0  0  0  0
   25.0297  -20.4120  -15.5680 C   0  0  0  0  0  0  0  0  0  0  0  0
   24.2465  -19.5694  -14.6752 C   0  0  0  0  0  0  0  0  0  0  0  0
   24.4664  -18.2540  -14.2929 C   0  0  0  0  0  0  0  0  0  0  0  0
   23.4766  -17.8353  -13.5086 N   0  0  0  0  0  0  0  0  0  0  0  0
   22.5947  -18.8370  -13.3515 C   0  0  0  0  0  0  0  0  0  0  0  0
   21.4305  -18.9155  -12.6345 C   0  0  0  0  0  0  0  0  0  0  0  0
   20.6859  -20.0608  -12.5969 C   0  0  0  0  0  0  0  0  0  0  0  0
   21.1158  -21.1767  -13.3016 C   0  0  0  0  0  0  0  0  0  0  0  0
   22.2796  -21.0724  -14.0092 C   0  0  0  0  0  0  0  0  0  0  0  0
   23.0634  -19.9176  -14.0705 C   0  0  0  0  0  0  0  0  0  0  0  0
   26.2581  -21.6634  -13.7427 C   0  0  0  0  0  0  0  0  0  0  0  0
   26.0968  -22.9443  -13.7524 O   0  0  0  0  0  0  0  0  0  0  0  0
   26.3623  -21.1203  -12.4540 N   0  0  0  0  0  0  0  0  0  0  0  0
   26.1295  -21.7908  -11.2010 C   0  0  1  0  0  0  0  0  0  0  0  0
   27.2307  -21.6851  -10.2309 C   0  0  0  0  0  0  0  0  0  0  0  0
   26.9749  -20.6116   -9.2461 C   0  0  0  0  0  0  0  0  0  0  0  0
   26.0465  -19.5656   -9.3461 C   0  0  0  0  0  0  0  0  0  0  0  0
   26.1382  -18.7920   -8.2618 N   0  0  0  0  0  0  0  0  0  0  0  0
   27.0820  -19.2530   -7.4226 C   0  0  0  0  0  0  0  0  0  0  0  0
   27.5592  -18.8320   -6.1991 C   0  0  0  0  0  0  0  0  0  0  0  0
   28.5694  -19.5116   -5.5311 C   0  0  0  0  0  0  0  0  0  0  0  0
   29.1002  -20.6435   -6.1280 C   0  0  0  0  0  0  0  0  0  0  0  0
   28.6085  -21.0472   -7.3520 C   0  0  0  0  0  0  0  0  0  0  0  0
   27.6026  -20.3842   -8.0337 C   0  0  0  0  0  0  0  0  0  0  0  0
   24.8313  -21.4221  -10.5615 C   0  0  0  0  0  0  0  0  0  0  0  0
   24.3862  -22.0868   -9.5959 O   0  0  0  0  0  0  0  0  0  0  0  0
   24.0396  -20.3565  -10.9690 O   0  0  0  0  0  0  0  0  0  0  0  0
  2  1  1  1
  3  4  1  0
  3  2  1  0
  4  5  2  0
  5  6  1  0
  7  6  2  0
  8  7  1  0
  9  8  2  0
  9  4  1  0
 10 11  2  0
 10  2  1  0
 12 10  1  0
 13 12  1  0
 13 14  1  6
 15 23  1  0
 15 14  1  0
 16 15  2  0
 17 16  1  0
 17 18  1  0
 18 19  1  0
 18 23  2  0
 19 20  2  0
 20 21  1  0
 22 21  2  0
 23 22  1  0
 24 13  1  0
 25 24  2  0
 26 24  1  0
 27 38  1  0
 27 26  1  0
 28 29  1  0
 27 28  1  1
 29 30  2  0
 31 30  1  0
 32 31  1  0
 33 32  2  0
 34 33  1  0
 35 34  2  0
 35 36  1  0
 36 37  2  0
 37 32  1  0
 37 29  1  0
 38 40  1  0
 39 38  2  0
M  END
$$$$
