FWW.pdb
     RDKit          3D

 40 44  0  0  1  0  0  0  0  0999 V2000
   23.7678  -21.0685  -16.7108 N   0  0  0  0  0  0  0  0  0  0  0  0
   24.1915  -20.3111  -15.5506 C   0  0  1  0  0  0  0  0  0  0  0  0
   22.9806  -20.0240  -14.6527 C   0  0  0  0  0  0  0  0  0  0  0  0
   22.0580  -19.0927  -15.3382 C   0  0  0  0  0  0  0  0  0  0  0  0
   20.8496  -19.5384  -15.8176 C   0  0  0  0  0  0  0  0  0  0  0  0
   20.0149  -18.6236  -16.4592 C   0  0  0  0  0  0  0  0  0  0  0  0
   20.4430  -17.3279  -16.5782 C   0  0  0  0  0  0  0  0  0  0  0  0
   21.6415  -16.8848  -16.1031 C   0  0  0  0  0  0  0  0  0  0  0  0
   22.4809  -17.7812  -15.4638 C   0  0  0  0  0  0  0  0  0  0  0  0
   25.1611  -21.0782  -14.7267 C   0  0  0  0  0  0  0  0  0  0  0  0
   25.0004  -22.3118  -14.4956 O   0  0  0  0  0  0  0  0  0  0  0  0
   26.3146  -20.4674  -14.1631 N   0  0  0  0  0  0  0  0  0  0  0  0
   27.0996  -21.1056  -13.1020 C   0  0  1  0  0  0  0  0  0  0  0  0
   28.5164  -20.6179  -13.1595 C   0  0  0  0  0  0  0  0  0  0  0  0
   29.4598  -21.2491  -12.2474 C   0  0  0  0  0  0  0  0  0  0  0  0
   30.1874  -22.4192  -12.4091 C   0  0  0  0  0  0  0  0  0  0  0  0
   30.9829  -22.6105  -11.3598 N   0  0  0  0  0  0  0  0  0  0  0  0
   30.8086  -21.5981  -10.4935 C   0  0  0  0  0  0  0  0  0  0  0  0
   31.3735  -21.3427   -9.2723 C   0  0  0  0  0  0  0  0  0  0  0  0
   31.0293  -20.2433   -8.5374 C   0  0  0  0  0  0  0  0  0  0  0  0
   30.0830  -19.3589   -9.0364 C   0  0  0  0  0  0  0  0  0  0  0  0
   29.5351  -19.6357  -10.2568 C   0  0  0  0  0  0  0  0  0  0  0  0
   29.8652  -20.7484  -11.0342 C   0  0  0  0  0  0  0  0  0  0  0  0
   26.3944  -20.9746  -11.8267 C   0  0  0  0  0  0  0  0  0  0  0  0
   25.5404  -20.0164  -11.6874 O   0  0  0  0  0  0  0  0  0  0  0  0
   26.5209  -21.7840  -10.6886 N   0  0  0  0  0  0  0  0  0  0  0  0
   25.7494  -21.7127   -9.4747 C   0  0  1  0  0  0  0  0  0  0  0  0
   26.4156  -22.2697   -8.2868 C   0  0  0  0  0  0  0  0  0  0  0  0
   26.8954  -21.1961   -7.3898 C   0  0  0  0  0  0  0  0  0  0  0  0
   26.4788  -19.8576   -7.3622 C   0  0  0  0  0  0  0  0  0  0  0  0
   27.1686  -19.2022   -6.4256 N   0  0  0  0  0  0  0  0  0  0  0  0
   28.0375  -20.0220   -5.8088 C   0  0  0  0  0  0  0  0  0  0  0  0
   28.9602  -19.8490   -4.7985 C   0  0  0  0  0  0  0  0  0  0  0  0
   29.7520  -20.8936   -4.3398 C   0  0  0  0  0  0  0  0  0  0  0  0
   29.5953  -22.1384   -4.9273 C   0  0  0  0  0  0  0  0  0  0  0  0
   28.6668  -22.2896   -5.9363 C   0  0  0  0  0  0  0  0  0  0  0  0
   27.8684  -21.2617   -6.4076 C   0  0  0  0  0  0  0  0  0  0  0  0
   25.2205  -20.3463   -9.1856 C   0  0  0  0  0  0  0  0  0  0  0  0
   25.8367  -19.3285   -9.5816 O   0  0  0  0  0  0  0  0  0  0  0  0
   24.0504  -20.0996   -8.4798 O   0  0  0  0  0  0  0  0  0  0  0  0
  2  1  1  6
  3  4  1  0
  3  2  1  0
  4  5  2  0
  5  6  1  0
  7  6  2  0
  8  7  1  0
  9  8  2  0
  9  4  1  0
 10 11  2  0
 10  2  1  0
 12 10  1  0
 13 12  1  0
 13 14  1  1
 15 23  1  0
 15 14  1  0
 16 15  2  0
 17 16  1  0
 17 18  1  0
 18 19  1  0
 18 23  2  0
 19 20  2  0
 20 21  1  0
 22 21  2  0
 23 22  1  0
 24 13  1  0
 25 24  2  0
 26 24  1  0
 27 38  1  0
 27 26  1  0
 28 29  1  0
 27 28  1  1
 29 30  2  0
 31 30  1  0
 32 31  1  0
 33 32  2  0
 34 33  1  0
 35 34  2  0
 35 36  1  0
 36 37  2  0
 37 32  1  0
 37 29  1  0
 38 40  1  0
 39 38  2  0
M  END
$$$$
