FWW.pdb
     RDKit          3D

 40 44  0  0  1  0  0  0  0  0999 V2000
   28.0535  -21.4725  -16.6216 N   0  0  0  0  0  0  0  0  0  0  0  0
   27.9967  -20.5816  -15.4804 C   0  0  1  0  0  0  0  0  0  0  0  0
   27.2491  -19.2981  -15.8657 C   0  0  0  0  0  0  0  0  0  0  0  0
   28.0727  -18.4999  -16.8002 C   0  0  0  0  0  0  0  0  0  0  0  0
   29.3406  -18.1051  -16.4461 C   0  0  0  0  0  0  0  0  0  0  0  0
   30.0775  -17.3516  -17.3595 C   0  0  0  0  0  0  0  0  0  0  0  0
   29.4991  -17.0440  -18.5625 C   0  0  0  0  0  0  0  0  0  0  0  0
   28.2416  -17.4351  -18.9146 C   0  0  0  0  0  0  0  0  0  0  0  0
   27.4978  -18.1836  -18.0184 C   0  0  0  0  0  0  0  0  0  0  0  0
   27.2444  -21.1913  -14.3535 C   0  0  0  0  0  0  0  0  0  0  0  0
   26.2380  -21.9313  -14.5552 O   0  0  0  0  0  0  0  0  0  0  0  0
   27.6193  -20.9775  -12.9988 N   0  0  0  0  0  0  0  0  0  0  0  0
   26.7240  -21.2878  -11.8800 C   0  0  1  0  0  0  0  0  0  0  0  0
   27.4819  -21.2036  -10.5889 C   0  0  0  0  0  0  0  0  0  0  0  0
   26.6971  -20.9521   -9.3884 C   0  0  0  0  0  0  0  0  0  0  0  0
   25.3512  -21.1931   -9.1536 C   0  0  0  0  0  0  0  0  0  0  0  0
   25.0425  -20.8741   -7.8993 N   0  0  0  0  0  0  0  0  0  0  0  0
   26.1477  -20.4225   -7.2825 C   0  0  0  0  0  0  0  0  0  0  0  0
   26.3504  -19.9608   -6.0092 C   0  0  0  0  0  0  0  0  0  0  0  0
   27.5753  -19.5230   -5.5903 C   0  0  0  0  0  0  0  0  0  0  0  0
   28.6455  -19.5442   -6.4740 C   0  0  0  0  0  0  0  0  0  0  0  0
   28.4173  -20.0099   -7.7378 C   0  0  0  0  0  0  0  0  0  0  0  0
   27.1796  -20.4659   -8.1977 C   0  0  0  0  0  0  0  0  0  0  0  0
   25.5026  -20.4906  -11.9962 C   0  0  0  0  0  0  0  0  0  0  0  0
   25.6062  -19.2053  -12.0593 O   0  0  0  0  0  0  0  0  0  0  0  0
   24.1793  -20.9509  -12.0555 N   0  0  0  0  0  0  0  0  0  0  0  0
   22.9799  -20.2016  -11.7840 C   0  0  1  0  0  0  0  0  0  0  0  0
   22.6550  -19.1734  -12.7852 C   0  0  0  0  0  0  0  0  0  0  0  0
   22.8931  -19.6694  -14.1580 C   0  0  0  0  0  0  0  0  0  0  0  0
   22.7762  -20.9877  -14.6212 C   0  0  0  0  0  0  0  0  0  0  0  0
   23.0998  -21.0286  -15.9158 N   0  0  0  0  0  0  0  0  0  0  0  0
   23.4330  -19.8061  -16.3653 C   0  0  0  0  0  0  0  0  0  0  0  0
   23.8347  -19.3164  -17.5904 C   0  0  0  0  0  0  0  0  0  0  0  0
   24.1256  -17.9725  -17.7851 C   0  0  0  0  0  0  0  0  0  0  0  0
   24.0024  -17.1146  -16.7043 C   0  0  0  0  0  0  0  0  0  0  0  0
   23.5992  -17.6251  -15.4878 C   0  0  0  0  0  0  0  0  0  0  0  0
   23.3048  -18.9605  -15.2732 C   0  0  0  0  0  0  0  0  0  0  0  0
   21.7899  -21.0621  -11.5122 C   0  0  0  0  0  0  0  0  0  0  0  0
   20.7171  -20.5548  -11.1070 O   0  0  0  0  0  0  0  0  0  0  0  0
   21.7745  -22.4408  -11.6765 O   0  0  0  0  0  0  0  0  0  0  0  0
  2  1  1  6
  3  4  1  0
  3  2  1  0
  4  5  2  0
  5  6  1  0
  7  6  2  0
  8  7  1  0
  9  8  2  0
  9  4  1  0
 10 11  2  0
 10  2  1  0
 12 10  1  0
 13 12  1  0
 13 14  1  1
 15 23  1  0
 15 14  1  0
 16 15  2  0
 17 16  1  0
 17 18  1  0
 18 19  1  0
 18 23  2  0
 19 20  2  0
 20 21  1  0
 22 21  2  0
 23 22  1  0
 24 13  1  0
 25 24  2  0
 26 24  1  0
 27 38  1  0
 27 26  1  0
 28 29  1  0
 27 28  1  6
 29 30  2  0
 31 30  1  0
 32 31  1  0
 33 32  2  0
 34 33  1  0
 35 34  2  0
 35 36  1  0
 36 37  2  0
 37 32  1  0
 37 29  1  0
 38 40  1  0
 39 38  2  0
M  END
$$$$
