GNN.pdb
     RDKit          3D

 21 20  0  0  1  0  0  0  0  0999 V2000
   26.1416  -21.6992  -11.9040 N   0  0  0  0  0  0  0  0  0  0  0  0
   26.0084  -21.5525  -13.3438 C   0  0  0  0  0  0  0  0  0  0  0  0
   25.4618  -20.2255  -13.7189 C   0  0  0  0  0  0  0  0  0  0  0  0
   25.1409  -19.4610  -12.7833 O   0  0  0  0  0  0  0  0  0  0  0  0
   27.1041  -16.7113  -14.1744 N   0  0  0  0  0  0  0  0  0  0  0  0
   27.2097  -17.5356  -15.3482 C   0  0  0  0  0  0  0  0  0  0  0  0
   28.3305  -18.0373  -15.6319 O   0  0  0  0  0  0  0  0  0  0  0  0
   25.9806  -17.7353  -16.1438 C   0  0  0  0  0  0  0  0  0  0  0  0
   24.9029  -18.4871  -15.3999 C   0  0  2  0  0  0  0  0  0  0  0  0
   25.3026  -19.8214  -15.0691 N   0  0  0  0  0  0  0  0  0  0  0  0
   23.6423  -18.4133  -16.1539 C   0  0  0  0  0  0  0  0  0  0  0  0
   23.4436  -19.2279  -17.0816 O   0  0  0  0  0  0  0  0  0  0  0  0
   18.7322  -17.2502  -17.9296 N   0  0  0  0  0  0  0  0  0  0  0  0
   19.0431  -16.5576  -16.7421 C   0  0  0  0  0  0  0  0  0  0  0  0
   18.1438  -15.7945  -16.2807 O   0  0  0  0  0  0  0  0  0  0  0  0
   20.3080  -16.6380  -15.9870 C   0  0  0  0  0  0  0  0  0  0  0  0
   21.3650  -17.4561  -16.6886 C   0  0  2  0  0  0  0  0  0  0  0  0
   22.6002  -17.4719  -15.9138 N   0  0  0  0  0  0  0  0  0  0  0  0
   21.6847  -16.8219  -17.9803 C   0  0  0  0  0  0  0  0  0  0  0  0
   22.8482  -16.1426  -18.2856 O   0  0  0  0  0  0  0  0  0  0  0  0
   20.8078  -16.9045  -18.9115 O   0  0  0  0  0  0  0  0  0  0  0  0
  1  2  1  0
  2  3  1  0
  3  4  2  0
  5  6  1  0
  6  8  1  0
  7  6  2  0
  9  8  1  6
 10  9  1  0
 10  3  1  0
 11  9  1  0
 11 18  1  0
 12 11  2  0
 13 14  1  0
 14 16  1  0
 14 15  2  0
 17 16  1  1
 17 18  1  0
 17 19  1  0
 19 21  2  0
 19 20  1  0
M  END
$$$$
