GNN.pdb
     RDKit          3D

 21 20  0  0  1  0  0  0  0  0999 V2000
   13.8240   -6.5329   -8.0284 N   0  0  0  0  0  0  0  0  0  0  0  0
   14.9365   -7.3305   -7.5401 C   0  0  0  0  0  0  0  0  0  0  0  0
   15.6981   -7.9585   -8.6472 C   0  0  0  0  0  0  0  0  0  0  0  0
   16.6071   -8.7552   -8.3278 O   0  0  0  0  0  0  0  0  0  0  0  0
   16.3661  -11.0512  -13.0618 N   0  0  0  0  0  0  0  0  0  0  0  0
   16.2077   -9.6238  -13.1364 C   0  0  0  0  0  0  0  0  0  0  0  0
   16.7611   -9.0060  -14.0855 O   0  0  0  0  0  0  0  0  0  0  0  0
   15.3976   -8.9798  -12.0817 C   0  0  0  0  0  0  0  0  0  0  0  0
   16.2273   -8.2465  -11.0551 C   0  0  2  0  0  0  0  0  0  0  0  0
   15.4249   -7.6835  -10.0116 N   0  0  0  0  0  0  0  0  0  0  0  0
   17.0951   -7.2702  -11.7307 C   0  0  0  0  0  0  0  0  0  0  0  0
   16.5977   -6.1966  -12.1354 O   0  0  0  0  0  0  0  0  0  0  0  0
   21.3125   -4.6911  -13.8326 N   0  0  0  0  0  0  0  0  0  0  0  0
   21.6357   -5.5316  -12.7483 C   0  0  0  0  0  0  0  0  0  0  0  0
   22.8214   -5.4576  -12.3094 O   0  0  0  0  0  0  0  0  0  0  0  0
   20.7292   -6.4824  -12.0767 C   0  0  0  0  0  0  0  0  0  0  0  0
   19.3115   -6.4116  -12.5903 C   0  0  2  0  0  0  0  0  0  0  0  0
   18.4888   -7.4437  -11.9705 N   0  0  0  0  0  0  0  0  0  0  0  0
   19.3109   -6.6843  -14.0389 C   0  0  0  0  0  0  0  0  0  0  0  0
   18.7462   -7.7824  -14.6584 O   0  0  0  0  0  0  0  0  0  0  0  0
   19.8847   -5.8282  -14.8010 O   0  0  0  0  0  0  0  0  0  0  0  0
  1  2  1  0
  2  3  1  0
  3  4  2  0
  5  6  1  0
  6  8  1  0
  7  6  2  0
  9  8  1  6
 10  9  1  0
 10  3  1  0
 11  9  1  0
 11 18  1  0
 12 11  2  0
 13 14  1  0
 14 16  1  0
 14 15  2  0
 17 16  1  1
 17 18  1  0
 17 19  1  0
 19 21  2  0
 19 20  1  0
M  END
$$$$
