GNN.pdb
     RDKit          3D

 21 20  0  0  1  0  0  0  0  0999 V2000
   17.0204  -12.5652  -16.1905 N   0  0  0  0  0  0  0  0  0  0  0  0
   18.4422  -12.5472  -15.8900 C   0  0  0  0  0  0  0  0  0  0  0  0
   18.8842  -11.2291  -15.3727 C   0  0  0  0  0  0  0  0  0  0  0  0
   18.3418  -10.8231  -14.3221 O   0  0  0  0  0  0  0  0  0  0  0  0
   20.8951   -6.5889  -14.8186 N   0  0  0  0  0  0  0  0  0  0  0  0
   21.9444   -7.3695  -15.4168 C   0  0  0  0  0  0  0  0  0  0  0  0
   23.1073   -6.8850  -15.4551 O   0  0  0  0  0  0  0  0  0  0  0  0
   21.5762   -8.6982  -15.9484 C   0  0  0  0  0  0  0  0  0  0  0  0
   20.1713   -9.1177  -15.5875 C   0  0  2  0  0  0  0  0  0  0  0  0
   19.8747  -10.4491  -16.0226 N   0  0  0  0  0  0  0  0  0  0  0  0
   19.2174   -8.1078  -16.0701 C   0  0  0  0  0  0  0  0  0  0  0  0
   18.9005   -8.1040  -17.2798 O   0  0  0  0  0  0  0  0  0  0  0  0
   15.3121   -4.4651  -16.3398 N   0  0  0  0  0  0  0  0  0  0  0  0
   15.1479   -5.6759  -15.6371 C   0  0  0  0  0  0  0  0  0  0  0  0
   13.9684   -5.9662  -15.2788 O   0  0  0  0  0  0  0  0  0  0  0  0
   16.2123   -6.6343  -15.2833 C   0  0  0  0  0  0  0  0  0  0  0  0
   17.5769   -6.2087  -15.7686 C   0  0  2  0  0  0  0  0  0  0  0  0
   18.6061   -7.1079  -15.2599 N   0  0  0  0  0  0  0  0  0  0  0  0
   17.8822   -4.8704  -15.2313 C   0  0  0  0  0  0  0  0  0  0  0  0
   17.6394   -3.6666  -15.8640 O   0  0  0  0  0  0  0  0  0  0  0  0
   18.4223   -4.8094  -14.0705 O   0  0  0  0  0  0  0  0  0  0  0  0
  1  2  1  0
  2  3  1  0
  3  4  2  0
  5  6  1  0
  6  8  1  0
  7  6  2  0
  9  8  1  6
 10  9  1  0
 10  3  1  0
 11  9  1  0
 11 18  1  0
 12 11  2  0
 13 14  1  0
 14 16  1  0
 14 15  2  0
 17 16  1  1
 17 18  1  0
 17 19  1  0
 19 21  2  0
 19 20  1  0
M  END
$$$$
