GNN.pdb
     RDKit          3D

 21 20  0  0  1  0  0  0  0  0999 V2000
   29.0520  -23.2531  -15.9128 N   0  0  0  0  0  0  0  0  0  0  0  0
   28.7737  -22.5177  -17.1351 C   0  0  0  0  0  0  0  0  0  0  0  0
   27.4705  -21.8118  -17.0744 C   0  0  0  0  0  0  0  0  0  0  0  0
   27.1283  -21.1678  -18.0897 O   0  0  0  0  0  0  0  0  0  0  0  0
   22.7140  -21.0265  -16.6139 N   0  0  0  0  0  0  0  0  0  0  0  0
   22.9771  -21.7913  -15.4248 C   0  0  0  0  0  0  0  0  0  0  0  0
   22.0063  -22.3335  -14.8314 O   0  0  0  0  0  0  0  0  0  0  0  0
   24.3837  -21.8858  -14.9820 C   0  0  0  0  0  0  0  0  0  0  0  0
   25.3533  -21.2145  -15.9249 C   0  0  2  0  0  0  0  0  0  0  0  0
   26.6350  -21.8524  -15.9289 N   0  0  0  0  0  0  0  0  0  0  0  0
   25.4065  -19.7743  -15.6321 C   0  0  0  0  0  0  0  0  0  0  0  0
   25.6083  -19.4031  -14.4552 O   0  0  0  0  0  0  0  0  0  0  0  0
   27.0538  -15.5727  -14.5895 N   0  0  0  0  0  0  0  0  0  0  0  0
   27.4988  -15.9713  -15.8661 C   0  0  0  0  0  0  0  0  0  0  0  0
   28.6250  -15.5261  -16.2368 O   0  0  0  0  0  0  0  0  0  0  0  0
   26.7837  -16.8554  -16.8062 C   0  0  0  0  0  0  0  0  0  0  0  0
   25.4527  -17.3304  -16.2756 C   0  0  2  0  0  0  0  0  0  0  0  0
   25.2450  -18.7377  -16.5962 N   0  0  0  0  0  0  0  0  0  0  0  0
   24.3737  -16.5812  -16.9442 C   0  0  0  0  0  0  0  0  0  0  0  0
   23.9707  -15.2947  -16.6427 O   0  0  0  0  0  0  0  0  0  0  0  0
   23.7470  -17.1703  -17.8945 O   0  0  0  0  0  0  0  0  0  0  0  0
  1  2  1  0
  2  3  1  0
  3  4  2  0
  5  6  1  0
  6  8  1  0
  7  6  2  0
  9  8  1  1
 10  9  1  0
 10  3  1  0
 11  9  1  0
 11 18  1  0
 12 11  2  0
 13 14  1  0
 14 16  1  0
 14 15  2  0
 17 16  1  6
 17 18  1  0
 17 19  1  0
 19 21  2  0
 19 20  1  0
M  END
$$$$
