GNN.pdb
     RDKit          3D

 21 20  0  0  1  0  0  0  0  0999 V2000
   22.9890  -20.8962  -14.4903 N   0  0  0  0  0  0  0  0  0  0  0  0
   22.5303  -20.1783  -15.6677 C   0  0  0  0  0  0  0  0  0  0  0  0
   23.0507  -18.7899  -15.7098 C   0  0  0  0  0  0  0  0  0  0  0  0
   22.6950  -18.0243  -14.7877 O   0  0  0  0  0  0  0  0  0  0  0  0
   27.4037  -18.4514  -16.3790 N   0  0  0  0  0  0  0  0  0  0  0  0
   26.7247  -17.1958  -16.2042 C   0  0  0  0  0  0  0  0  0  0  0  0
   26.9921  -16.5042  -15.1850 O   0  0  0  0  0  0  0  0  0  0  0  0
   25.7521  -16.8051  -17.2458 C   0  0  0  0  0  0  0  0  0  0  0  0
   24.3148  -16.9583  -16.8089 C   0  0  2  0  0  0  0  0  0  0  0  0
   23.9133  -18.3307  -16.7378 N   0  0  0  0  0  0  0  0  0  0  0  0
   23.4506  -16.1291  -17.6623 C   0  0  0  0  0  0  0  0  0  0  0  0
   22.9251  -16.6441  -18.6734 O   0  0  0  0  0  0  0  0  0  0  0  0
   19.5242  -15.0707  -18.0224 N   0  0  0  0  0  0  0  0  0  0  0  0
   19.9112  -13.8879  -17.3607 C   0  0  0  0  0  0  0  0  0  0  0  0
   19.0320  -13.3299  -16.6398 O   0  0  0  0  0  0  0  0  0  0  0  0
   21.2362  -13.2423  -17.4243 C   0  0  0  0  0  0  0  0  0  0  0  0
   22.2255  -14.0042  -18.2725 C   0  0  2  0  0  0  0  0  0  0  0  0
   23.1507  -14.7553  -17.4323 N   0  0  0  0  0  0  0  0  0  0  0  0
   23.0378  -13.0446  -19.0422 C   0  0  0  0  0  0  0  0  0  0  0  0
   22.6278  -12.3490  -20.1631 O   0  0  0  0  0  0  0  0  0  0  0  0
   24.2359  -12.8298  -18.6406 O   0  0  0  0  0  0  0  0  0  0  0  0
  1  2  1  0
  2  3  1  0
  3  4  2  0
  5  6  1  0
  6  8  1  0
  7  6  2  0
  9  8  1  6
 10  9  1  0
 10  3  1  0
 11  9  1  0
 11 18  1  0
 12 11  2  0
 13 14  1  0
 14 16  1  0
 14 15  2  0
 17 16  1  1
 17 18  1  0
 17 19  1  0
 19 21  2  0
 19 20  1  0
M  END
$$$$
