GNN.pdb
     RDKit          3D

 21 20  0  0  1  0  0  0  0  0999 V2000
   21.8620  -12.9204  -18.0365 N   0  0  0  0  0  0  0  0  0  0  0  0
   22.5444  -11.6674  -17.7596 C   0  0  0  0  0  0  0  0  0  0  0  0
   21.6057  -10.6116  -17.3074 C   0  0  0  0  0  0  0  0  0  0  0  0
   21.3219   -9.7160  -18.1322 O   0  0  0  0  0  0  0  0  0  0  0  0
   16.8432  -10.2883  -15.6769 N   0  0  0  0  0  0  0  0  0  0  0  0
   18.0821  -10.9090  -15.2925 C   0  0  0  0  0  0  0  0  0  0  0  0
   18.2380  -12.1373  -15.5280 O   0  0  0  0  0  0  0  0  0  0  0  0
   19.0928  -10.0495  -14.6419 C   0  0  0  0  0  0  0  0  0  0  0  0
   20.1566   -9.5540  -15.5921 C   0  0  2  0  0  0  0  0  0  0  0  0
   21.0437  -10.5991  -16.0052 N   0  0  0  0  0  0  0  0  0  0  0  0
   20.8394   -8.3923  -15.0031 C   0  0  0  0  0  0  0  0  0  0  0  0
   21.6472   -8.5761  -14.0664 O   0  0  0  0  0  0  0  0  0  0  0  0
   22.9133   -3.5767  -14.0205 N   0  0  0  0  0  0  0  0  0  0  0  0
   23.1259   -4.2026  -15.2654 C   0  0  0  0  0  0  0  0  0  0  0  0
   24.0359   -3.7118  -15.9969 O   0  0  0  0  0  0  0  0  0  0  0  0
   22.3960   -5.3705  -15.7944 C   0  0  0  0  0  0  0  0  0  0  0  0
   21.3920   -5.9329  -14.8174 C   0  0  2  0  0  0  0  0  0  0  0  0
   20.6578   -7.0411  -15.4168 N   0  0  0  0  0  0  0  0  0  0  0  0
   20.3985   -4.8922  -14.4969 C   0  0  0  0  0  0  0  0  0  0  0  0
   20.5393   -3.9004  -13.5457 O   0  0  0  0  0  0  0  0  0  0  0  0
   19.3002   -4.9011  -15.1576 O   0  0  0  0  0  0  0  0  0  0  0  0
  1  2  1  0
  2  3  1  0
  3  4  2  0
  5  6  1  0
  6  8  1  0
  7  6  2  0
  9  8  1  1
 10  9  1  0
 10  3  1  0
 11  9  1  0
 11 18  1  0
 12 11  2  0
 13 14  1  0
 14 16  1  0
 14 15  2  0
 17 16  1  6
 17 18  1  0
 17 19  1  0
 19 21  2  0
 19 20  1  0
M  END
$$$$
