GNN.pdb
     RDKit          3D

 21 20  0  0  1  0  0  0  0  0999 V2000
   24.5503   -2.2424  -17.7092 N   0  0  0  0  0  0  0  0  0  0  0  0
   25.0924   -3.5907  -17.7332 C   0  0  0  0  0  0  0  0  0  0  0  0
   24.0393   -4.6165  -17.5357 C   0  0  0  0  0  0  0  0  0  0  0  0
   23.2890   -4.8512  -18.5077 O   0  0  0  0  0  0  0  0  0  0  0  0
   22.9148   -8.7844  -17.0165 N   0  0  0  0  0  0  0  0  0  0  0  0
   23.2154   -8.6126  -15.6207 C   0  0  0  0  0  0  0  0  0  0  0  0
   23.5820   -9.6188  -14.9561 O   0  0  0  0  0  0  0  0  0  0  0  0
   23.0705   -7.2520  -15.0629 C   0  0  0  0  0  0  0  0  0  0  0  0
   22.7732   -6.2055  -16.1099 C   0  0  2  0  0  0  0  0  0  0  0  0
   23.8734   -5.3116  -16.3105 N   0  0  0  0  0  0  0  0  0  0  0  0
   21.5089   -5.5288  -15.7836 C   0  0  0  0  0  0  0  0  0  0  0  0
   21.5294   -4.3101  -15.5041 O   0  0  0  0  0  0  0  0  0  0  0  0
   16.5229   -3.9605  -16.4361 N   0  0  0  0  0  0  0  0  0  0  0  0
   17.6283   -3.9239  -17.3098 C   0  0  0  0  0  0  0  0  0  0  0  0
   17.4893   -3.2439  -18.3691 O   0  0  0  0  0  0  0  0  0  0  0  0
   18.9263   -4.5958  -17.1085 C   0  0  0  0  0  0  0  0  0  0  0  0
   18.9851   -5.3987  -15.8315 C   0  0  2  0  0  0  0  0  0  0  0  0
   20.2295   -6.1553  -15.7578 N   0  0  0  0  0  0  0  0  0  0  0  0
   17.8902   -6.3856  -15.8335 C   0  0  0  0  0  0  0  0  0  0  0  0
   17.7836   -7.4786  -16.6715 O   0  0  0  0  0  0  0  0  0  0  0  0
   16.9465   -6.2219  -14.9817 O   0  0  0  0  0  0  0  0  0  0  0  0
  1  2  1  0
  2  3  1  0
  3  4  2  0
  5  6  1  0
  6  8  1  0
  7  6  2  0
  9  8  1  1
 10  9  1  0
 10  3  1  0
 11  9  1  0
 11 18  1  0
 12 11  2  0
 13 14  1  0
 14 16  1  0
 14 15  2  0
 17 16  1  6
 17 18  1  0
 17 19  1  0
 19 21  2  0
 19 20  1  0
M  END
$$$$
