GNN.pdb
     RDKit          3D

 21 20  0  0  1  0  0  0  0  0999 V2000
   21.5636  -12.9830  -18.6259 N   0  0  0  0  0  0  0  0  0  0  0  0
   20.2622  -12.6893  -18.0495 C   0  0  0  0  0  0  0  0  0  0  0  0
   19.9458  -11.2411  -18.1008 C   0  0  0  0  0  0  0  0  0  0  0  0
   18.9678  -10.9002  -18.8010 O   0  0  0  0  0  0  0  0  0  0  0  0
   18.4895   -7.2851  -18.5891 N   0  0  0  0  0  0  0  0  0  0  0  0
   17.9350   -7.9919  -17.4661 C   0  0  0  0  0  0  0  0  0  0  0  0
   16.7080   -7.8525  -17.2141 O   0  0  0  0  0  0  0  0  0  0  0  0
   18.8568   -8.8395  -16.6817 C   0  0  0  0  0  0  0  0  0  0  0  0
   20.2438   -8.9201  -17.2731 C   0  0  2  0  0  0  0  0  0  0  0  0
   20.7029  -10.2706  -17.3960 N   0  0  0  0  0  0  0  0  0  0  0  0
   21.1535   -8.0493  -16.5135 C   0  0  0  0  0  0  0  0  0  0  0  0
   21.3451   -8.2857  -15.3005 O   0  0  0  0  0  0  0  0  0  0  0  0
   24.7784   -4.4088  -15.0178 N   0  0  0  0  0  0  0  0  0  0  0  0
   24.5701   -4.4036  -16.4118 C   0  0  0  0  0  0  0  0  0  0  0  0
   25.2978   -3.6190  -17.0893 O   0  0  0  0  0  0  0  0  0  0  0  0
   23.5928   -5.2223  -17.1543 C   0  0  0  0  0  0  0  0  0  0  0  0
   22.7947   -6.1434  -16.2637 C   0  0  2  0  0  0  0  0  0  0  0  0
   21.8545   -6.9317  -17.0516 N   0  0  0  0  0  0  0  0  0  0  0  0
   21.9896   -5.3328  -15.3323 C   0  0  0  0  0  0  0  0  0  0  0  0
   20.6151   -5.1960  -15.3541 O   0  0  0  0  0  0  0  0  0  0  0  0
   22.6149   -4.6933  -14.4142 O   0  0  0  0  0  0  0  0  0  0  0  0
  1  2  1  0
  2  3  1  0
  3  4  2  0
  5  6  1  0
  6  8  1  0
  7  6  2  0
  9  8  1  1
 10  9  1  0
 10  3  1  0
 11  9  1  0
 11 18  1  0
 12 11  2  0
 13 14  1  0
 14 16  1  0
 14 15  2  0
 17 16  1  6
 17 18  1  0
 17 19  1  0
 19 21  2  0
 19 20  1  0
M  END
$$$$
