GNN.pdb
     RDKit          3D

 21 20  0  0  1  0  0  0  0  0999 V2000
   20.5609  -20.9572  -12.6889 N   0  0  0  0  0  0  0  0  0  0  0  0
   21.8358  -21.5294  -13.0884 C   0  0  0  0  0  0  0  0  0  0  0  0
   22.9717  -20.6283  -12.7754 C   0  0  0  0  0  0  0  0  0  0  0  0
   22.7287  -19.4025  -12.7423 O   0  0  0  0  0  0  0  0  0  0  0  0
   25.2867  -20.6389   -9.7418 N   0  0  0  0  0  0  0  0  0  0  0  0
   26.4828  -21.1175  -10.3809 C   0  0  0  0  0  0  0  0  0  0  0  0
   27.3456  -21.7080   -9.6771 O   0  0  0  0  0  0  0  0  0  0  0  0
   26.6124  -20.8784  -11.8333 C   0  0  0  0  0  0  0  0  0  0  0  0
   25.3971  -20.2202  -12.4413 C   0  0  2  0  0  0  0  0  0  0  0  0
   24.2804  -21.1126  -12.5214 N   0  0  0  0  0  0  0  0  0  0  0  0
   25.7619  -19.6069  -13.7273 C   0  0  0  0  0  0  0  0  0  0  0  0
   25.6320  -20.2764  -14.7755 O   0  0  0  0  0  0  0  0  0  0  0  0
   26.4553  -15.9464  -17.5703 N   0  0  0  0  0  0  0  0  0  0  0  0
   26.7483  -15.4267  -16.2933 C   0  0  0  0  0  0  0  0  0  0  0  0
   27.0904  -14.2083  -16.2437 O   0  0  0  0  0  0  0  0  0  0  0  0
   26.6921  -16.1610  -15.0149 C   0  0  0  0  0  0  0  0  0  0  0  0
   26.2824  -17.6046  -15.1793 C   0  0  2  0  0  0  0  0  0  0  0  0
   26.2624  -18.2827  -13.8885 N   0  0  0  0  0  0  0  0  0  0  0  0
   27.2872  -18.2981  -16.0052 C   0  0  0  0  0  0  0  0  0  0  0  0
   27.1256  -18.6941  -17.3188 O   0  0  0  0  0  0  0  0  0  0  0  0
   28.4180  -18.5613  -15.4621 O   0  0  0  0  0  0  0  0  0  0  0  0
  1  2  1  0
  2  3  1  0
  3  4  2  0
  5  6  1  0
  6  8  1  0
  7  6  2  0
  9  8  1  6
 10  9  1  0
 10  3  1  0
 11  9  1  0
 11 18  1  0
 12 11  2  0
 13 14  1  0
 14 16  1  0
 14 15  2  0
 17 16  1  1
 17 18  1  0
 17 19  1  0
 19 21  2  0
 19 20  1  0
M  END
$$$$
