TTM.pdb
     RDKit          3D

 23 22  0  0  1  0  0  0  0  0999 V2000
    8.0220  -12.5910   17.3923 C   0  0  0  0  0  0  0  0  0  0  0  0
    7.7232  -13.6521   18.4153 C   0  0  1  0  0  0  0  0  0  0  0  0
    8.2440  -14.8604   17.9295 O   0  0  0  0  0  0  0  0  0  0  0  0
    8.4000  -13.2959   19.7316 C   0  0  2  0  0  0  0  0  0  0  0  0
    9.7769  -13.0118   19.4617 N   0  0  0  0  0  0  0  0  0  0  0  0
    8.2144  -14.3696   20.7373 C   0  0  0  0  0  0  0  0  0  0  0  0
    7.0326  -14.6139   21.0960 O   0  0  0  0  0  0  0  0  0  0  0  0
    9.4885  -17.9161   20.6822 C   0  0  0  0  0  0  0  0  0  0  0  0
    9.9129  -17.3085   21.9933 C   0  0  1  0  0  0  0  0  0  0  0  0
   11.2091  -16.7738   21.8650 O   0  0  0  0  0  0  0  0  0  0  0  0
    9.0010  -16.1224   22.2676 C   0  0  2  0  0  0  0  0  0  0  0  0
    9.2944  -15.1102   21.2932 N   0  0  0  0  0  0  0  0  0  0  0  0
    9.2713  -15.6711   23.6563 C   0  0  0  0  0  0  0  0  0  0  0  0
   10.0335  -14.6826   23.7989 O   0  0  0  0  0  0  0  0  0  0  0  0
    6.4161  -11.2258   27.1556 C   0  0  0  0  0  0  0  0  0  0  0  0
    6.0637  -12.8740   26.6057 S   0  0  0  0  0  0  0  0  0  0  0  0
    7.4203  -13.8005   25.8982 C   0  0  0  0  0  0  0  0  0  0  0  0
    7.8953  -14.9627   26.6812 C   0  0  0  0  0  0  0  0  0  0  0  0
    9.0124  -15.7654   26.1144 C   0  0  2  0  0  0  0  0  0  0  0  0
    8.7284  -16.2816   24.7988 N   0  0  0  0  0  0  0  0  0  0  0  0
    9.3961  -16.9116   26.9888 C   0  0  0  0  0  0  0  0  0  0  0  0
    9.3114  -18.1039   26.6383 O   0  0  0  0  0  0  0  0  0  0  0  0
    9.8872  -16.6955   28.2917 O   0  0  0  0  0  0  0  0  0  0  0  0
  2  1  1  6
  2  3  1  0
  4  2  1  0
  4  5  1  6
  6  4  1  0
  7  6  2  0
  9  8  1  6
  9 11  1  0
 10  9  1  0
 11 12  1  6
 11 13  1  0
 12  6  1  0
 13 20  1  0
 14 13  2  0
 15 16  1  0
 17 16  1  0
 18 17  1  0
 19 18  1  1
 19 21  1  0
 20 19  1  0
 21 22  2  0
 21 23  1  0
M  END
$$$$
