TTM.pdb
     RDKit          3D

 23 22  0  0  1  0  0  0  0  0999 V2000
    9.3070  -12.6195   19.3096 C   0  0  0  0  0  0  0  0  0  0  0  0
    8.5350  -13.2225   18.1684 C   0  0  1  0  0  0  0  0  0  0  0  0
    8.9930  -12.6191   16.9880 O   0  0  0  0  0  0  0  0  0  0  0  0
    8.7967  -14.7210   18.1117 C   0  0  2  0  0  0  0  0  0  0  0  0
    8.1836  -15.2356   16.9249 N   0  0  0  0  0  0  0  0  0  0  0  0
    8.3275  -15.3940   19.3469 C   0  0  0  0  0  0  0  0  0  0  0  0
    7.0855  -15.4016   19.5529 O   0  0  0  0  0  0  0  0  0  0  0  0
    9.0164  -18.8277   20.5791 C   0  0  0  0  0  0  0  0  0  0  0  0
    9.3529  -17.9085   21.7236 C   0  0  1  0  0  0  0  0  0  0  0  0
   10.7311  -17.6211   21.7051 O   0  0  0  0  0  0  0  0  0  0  0  0
    8.6502  -16.5833   21.4716 C   0  0  2  0  0  0  0  0  0  0  0  0
    9.2072  -16.0124   20.2784 N   0  0  0  0  0  0  0  0  0  0  0  0
    8.8735  -15.7321   22.6678 C   0  0  0  0  0  0  0  0  0  0  0  0
    9.8149  -14.9019   22.6120 O   0  0  0  0  0  0  0  0  0  0  0  0
    5.9977  -10.9058   28.0381 C   0  0  0  0  0  0  0  0  0  0  0  0
    5.8365  -12.1244   26.7604 S   0  0  0  0  0  0  0  0  0  0  0  0
    7.2846  -13.1060   26.3885 C   0  0  0  0  0  0  0  0  0  0  0  0
    7.1599  -14.0496   25.2555 C   0  0  0  0  0  0  0  0  0  0  0  0
    8.3371  -14.9009   24.9349 C   0  0  2  0  0  0  0  0  0  0  0  0
    8.1002  -15.8057   23.8380 N   0  0  0  0  0  0  0  0  0  0  0  0
    8.8005  -15.7027   26.1046 C   0  0  0  0  0  0  0  0  0  0  0  0
    8.7456  -16.9461   26.1526 O   0  0  0  0  0  0  0  0  0  0  0  0
    9.3385  -15.0744   27.2454 O   0  0  0  0  0  0  0  0  0  0  0  0
  2  1  1  1
  2  3  1  0
  4  2  1  0
  4  5  1  6
  6  4  1  0
  7  6  2  0
  9  8  1  6
  9 11  1  0
 10  9  1  0
 11 12  1  6
 11 13  1  0
 12  6  1  0
 13 20  1  0
 14 13  2  0
 15 16  1  0
 17 16  1  0
 18 17  1  0
 19 18  1  1
 19 21  1  0
 20 19  1  0
 21 22  2  0
 21 23  1  0
M  END
$$$$
