TTM.pdb
     RDKit          3D

 23 22  0  0  1  0  0  0  0  0999 V2000
   10.9100  -13.3935   20.2036 C   0  0  0  0  0  0  0  0  0  0  0  0
    9.8594  -12.7950   19.3091 C   0  0  1  0  0  0  0  0  0  0  0  0
   10.5083  -12.3231   18.1587 O   0  0  0  0  0  0  0  0  0  0  0  0
    8.8486  -13.8660   18.9232 C   0  0  2  0  0  0  0  0  0  0  0  0
    7.9323  -13.2953   17.9831 N   0  0  0  0  0  0  0  0  0  0  0  0
    8.1783  -14.4266   20.1212 C   0  0  0  0  0  0  0  0  0  0  0  0
    7.3297  -13.6930   20.6929 O   0  0  0  0  0  0  0  0  0  0  0  0
    6.7554  -17.9343   20.7113 C   0  0  0  0  0  0  0  0  0  0  0  0
    7.6690  -17.6142   21.8651 C   0  0  1  0  0  0  0  0  0  0  0  0
    8.9403  -18.1696   21.6251 O   0  0  0  0  0  0  0  0  0  0  0  0
    7.8728  -16.1071   21.8863 C   0  0  2  0  0  0  0  0  0  0  0  0
    8.4538  -15.7261   20.6304 N   0  0  0  0  0  0  0  0  0  0  0  0
    8.7566  -15.7985   23.0392 C   0  0  0  0  0  0  0  0  0  0  0  0
    9.6695  -14.9560   22.8514 O   0  0  0  0  0  0  0  0  0  0  0  0
    6.6954  -11.2585   25.4786 C   0  0  0  0  0  0  0  0  0  0  0  0
    6.9707  -12.2078   26.9504 S   0  0  0  0  0  0  0  0  0  0  0  0
    8.0990  -13.5900   26.8250 C   0  0  0  0  0  0  0  0  0  0  0  0
    7.9283  -14.4668   25.6453 C   0  0  0  0  0  0  0  0  0  0  0  0
    8.8566  -15.6208   25.5043 C   0  0  2  0  0  0  0  0  0  0  0  0
    8.6270  -16.3896   24.3068 N   0  0  0  0  0  0  0  0  0  0  0  0
    8.7972  -16.5502   26.6698 C   0  0  0  0  0  0  0  0  0  0  0  0
    8.0033  -17.5068   26.7481 O   0  0  0  0  0  0  0  0  0  0  0  0
    9.6612  -16.3867   27.7708 O   0  0  0  0  0  0  0  0  0  0  0  0
  2  1  1  1
  2  3  1  0
  4  2  1  0
  4  5  1  6
  6  4  1  0
  7  6  2  0
  9  8  1  6
  9 11  1  0
 10  9  1  0
 11 12  1  6
 11 13  1  0
 12  6  1  0
 13 20  1  0
 14 13  2  0
 15 16  1  0
 17 16  1  0
 18 17  1  0
 19 18  1  1
 19 21  1  0
 20 19  1  0
 21 22  2  0
 21 23  1  0
M  END
$$$$
