WHE.pdb
     RDKit          3D

 34 36  0  0  1  0  0  0  0  0999 V2000
    6.2793  -17.3372   23.6989 N   0  0  0  0  0  0  0  0  0  0  0  0
    7.0574  -16.1701   23.4647 C   0  0  1  0  0  0  0  0  0  0  0  0
    7.7765  -15.7964   24.7616 C   0  0  0  0  0  0  0  0  0  0  0  0
    6.9789  -14.9670   25.6563 C   0  0  0  0  0  0  0  0  0  0  0  0
    5.9618  -15.3929   26.4814 C   0  0  0  0  0  0  0  0  0  0  0  0
    5.4336  -14.3484   27.1298 N   0  0  0  0  0  0  0  0  0  0  0  0
    6.0873  -13.2060   26.7505 C   0  0  0  0  0  0  0  0  0  0  0  0
    5.9199  -11.8971   27.1346 C   0  0  0  0  0  0  0  0  0  0  0  0
    6.7098  -10.9153   26.6183 C   0  0  0  0  0  0  0  0  0  0  0  0
    7.6719  -11.2843   25.7064 C   0  0  0  0  0  0  0  0  0  0  0  0
    7.8501  -12.5953   25.3123 C   0  0  0  0  0  0  0  0  0  0  0  0
    7.0489  -13.6048   25.8320 C   0  0  0  0  0  0  0  0  0  0  0  0
    8.1469  -16.4122   22.4500 C   0  0  0  0  0  0  0  0  0  0  0  0
    8.6284  -17.5639   22.4108 O   0  0  0  0  0  0  0  0  0  0  0  0
    8.6002  -15.3810   21.5824 N   0  0  0  0  0  0  0  0  0  0  0  0
    9.7376  -15.6761   20.7443 C   0  0  1  0  0  0  0  0  0  0  0  0
   10.0292  -14.4665   19.8244 C   0  0  0  0  0  0  0  0  0  0  0  0
    8.9708  -14.3270   18.7997 C   0  0  0  0  0  0  0  0  0  0  0  0
    8.0859  -13.2946   18.6090 C   0  0  0  0  0  0  0  0  0  0  0  0
    7.3032  -13.5928   17.5610 N   0  0  0  0  0  0  0  0  0  0  0  0
    7.6860  -14.7909   17.0975 C   0  0  0  0  0  0  0  0  0  0  0  0
    8.7019  -15.2388   17.8520 N   0  0  0  0  0  0  0  0  0  0  0  0
   10.9876  -15.9077   21.5111 C   0  0  0  0  0  0  0  0  0  0  0  0
   11.4725  -14.9690   22.2324 O   0  0  0  0  0  0  0  0  0  0  0  0
   11.7193  -17.1166   21.5202 N   0  0  0  0  0  0  0  0  0  0  0  0
   12.9693  -17.2822   22.2762 C   0  0  1  0  0  0  0  0  0  0  0  0
   12.8423  -18.3283   23.3181 C   0  0  0  0  0  0  0  0  0  0  0  0
   12.4173  -19.6878   22.9235 C   0  0  0  0  0  0  0  0  0  0  0  0
   11.6559  -20.5048   23.8490 C   0  0  0  0  0  0  0  0  0  0  0  0
   11.4396  -20.1760   25.0196 O   0  0  0  0  0  0  0  0  0  0  0  0
   14.1274  -17.3308   21.4126 C   0  0  0  0  0  0  0  0  0  0  0  0
   15.4551  -17.2981   21.8911 O   0  0  0  0  0  0  0  0  0  0  0  0
   11.1064  -21.7461   23.4607 O   0  0  0  0  0  0  0  0  0  0  0  0
   14.0271  -17.4010   20.1619 O   0  0  0  0  0  0  0  0  0  0  0  0
  2  3  1  0
  2  1  1  1
  3  4  1  0
  4 12  1  0
  5  6  1  0
  5  4  2  0
  6  7  1  0
  7  8  2  0
  8  9  1  0
 10  9  2  0
 11 10  1  0
 12  7  1  0
 12 11  2  0
 13  2  1  0
 14 13  2  0
 15 13  1  0
 16 23  1  0
 16 15  1  0
 16 17  1  6
 18 22  1  0
 18 17  1  0
 19 18  2  0
 20 19  1  0
 20 21  1  0
 21 22  2  0
 23 24  2  0
 25 26  1  0
 25 23  1  0
 26 27  1  6
 28 27  1  0
 29 28  1  0
 29 33  1  0
 30 29  2  0
 31 32  1  0
 31 26  1  0
 34 31  2  0
M  END
$$$$
