WHE.pdb
     RDKit          3D

 34 36  0  0  1  0  0  0  0  0999 V2000
    6.1707  -17.5876   24.2535 N   0  0  0  0  0  0  0  0  0  0  0  0
    6.8402  -16.3611   23.9891 C   0  0  1  0  0  0  0  0  0  0  0  0
    7.4358  -15.8399   25.2976 C   0  0  0  0  0  0  0  0  0  0  0  0
    6.6766  -14.7474   25.8933 C   0  0  0  0  0  0  0  0  0  0  0  0
    5.3776  -14.8028   26.3473 C   0  0  0  0  0  0  0  0  0  0  0  0
    5.0005  -13.6002   26.7969 N   0  0  0  0  0  0  0  0  0  0  0  0
    6.0396  -12.7196   26.6521 C   0  0  0  0  0  0  0  0  0  0  0  0
    6.1474  -11.3865   26.9680 C   0  0  0  0  0  0  0  0  0  0  0  0
    7.3058  -10.7091   26.7363 C   0  0  0  0  0  0  0  0  0  0  0  0
    8.3523  -11.4075   26.1791 C   0  0  0  0  0  0  0  0  0  0  0  0
    8.2568  -12.7465   25.8569 C   0  0  0  0  0  0  0  0  0  0  0  0
    7.0791  -13.4469   26.0882 C   0  0  0  0  0  0  0  0  0  0  0  0
    8.0095  -16.5464   23.0544 C   0  0  0  0  0  0  0  0  0  0  0  0
    8.5184  -17.6862   23.0149 O   0  0  0  0  0  0  0  0  0  0  0  0
    8.5049  -15.4770   22.2590 N   0  0  0  0  0  0  0  0  0  0  0  0
    9.6649  -15.7440   21.4427 C   0  0  1  0  0  0  0  0  0  0  0  0
    9.9218  -14.5429   20.5015 C   0  0  0  0  0  0  0  0  0  0  0  0
    9.0083  -14.5908   19.3383 C   0  0  0  0  0  0  0  0  0  0  0  0
    8.1289  -15.5798   18.9725 C   0  0  0  0  0  0  0  0  0  0  0  0
    7.5052  -15.2002   17.8471 N   0  0  0  0  0  0  0  0  0  0  0  0
    7.9810  -13.9939   17.5076 C   0  0  0  0  0  0  0  0  0  0  0  0
    8.8969  -13.6221   18.4157 N   0  0  0  0  0  0  0  0  0  0  0  0
   10.9119  -15.9101   22.2309 C   0  0  0  0  0  0  0  0  0  0  0  0
   11.3017  -14.9708   23.0070 O   0  0  0  0  0  0  0  0  0  0  0  0
   11.7399  -17.0550   22.2041 N   0  0  0  0  0  0  0  0  0  0  0  0
   12.9321  -17.1924   23.0534 C   0  0  1  0  0  0  0  0  0  0  0  0
   13.0559  -18.5634   23.6022 C   0  0  0  0  0  0  0  0  0  0  0  0
   13.2712  -18.7396   25.0539 C   0  0  0  0  0  0  0  0  0  0  0  0
   12.6500  -19.8518   25.7474 C   0  0  0  0  0  0  0  0  0  0  0  0
   13.1037  -21.0002   25.7245 O   0  0  0  0  0  0  0  0  0  0  0  0
   14.1046  -16.6023   22.4483 C   0  0  0  0  0  0  0  0  0  0  0  0
   15.2070  -16.1277   23.1915 O   0  0  0  0  0  0  0  0  0  0  0  0
   11.4694  -19.6855   26.5039 O   0  0  0  0  0  0  0  0  0  0  0  0
   14.2190  -16.4661   21.2043 O   0  0  0  0  0  0  0  0  0  0  0  0
  2  3  1  0
  2  1  1  1
  3  4  1  0
  4 12  1  0
  5  6  1  0
  5  4  2  0
  6  7  1  0
  7  8  2  0
  8  9  1  0
 10  9  2  0
 11 10  1  0
 12  7  1  0
 12 11  2  0
 13  2  1  0
 14 13  2  0
 15 13  1  0
 16 23  1  0
 16 15  1  0
 16 17  1  6
 18 22  1  0
 18 17  1  0
 19 18  2  0
 20 19  1  0
 20 21  1  0
 21 22  2  0
 23 24  2  0
 25 26  1  0
 25 23  1  0
 26 27  1  6
 28 27  1  0
 29 28  1  0
 29 33  1  0
 30 29  2  0
 31 32  1  0
 31 26  1  0
 34 31  2  0
M  END
$$$$
