WHE.pdb
     RDKit          3D

 34 36  0  0  1  0  0  0  0  0999 V2000
    6.2951  -17.3544   23.5579 N   0  0  0  0  0  0  0  0  0  0  0  0
    7.1589  -16.2343   23.4106 C   0  0  1  0  0  0  0  0  0  0  0  0
    7.8264  -15.9541   24.7576 C   0  0  0  0  0  0  0  0  0  0  0  0
    7.0380  -15.0988   25.6359 C   0  0  0  0  0  0  0  0  0  0  0  0
    6.0345  -15.5012   26.4890 C   0  0  0  0  0  0  0  0  0  0  0  0
    5.5111  -14.4380   27.1103 N   0  0  0  0  0  0  0  0  0  0  0  0
    6.1545  -13.3062   26.6846 C   0  0  0  0  0  0  0  0  0  0  0  0
    5.9871  -11.9860   27.0279 C   0  0  0  0  0  0  0  0  0  0  0  0
    6.7654  -11.0187   26.4686 C   0  0  0  0  0  0  0  0  0  0  0  0
    7.7161  -11.4138   25.5557 C   0  0  0  0  0  0  0  0  0  0  0  0
    7.8942  -12.7364   25.2021 C   0  0  0  0  0  0  0  0  0  0  0  0
    7.1047  -13.7313   25.7660 C   0  0  0  0  0  0  0  0  0  0  0  0
    8.2859  -16.5135   22.4476 C   0  0  0  0  0  0  0  0  0  0  0  0
    8.6395  -17.7056   22.3314 O   0  0  0  0  0  0  0  0  0  0  0  0
    8.9117  -15.4714   21.7101 N   0  0  0  0  0  0  0  0  0  0  0  0
    9.9768  -15.8467   20.8112 C   0  0  1  0  0  0  0  0  0  0  0  0
   10.3011  -14.6613   19.8710 C   0  0  0  0  0  0  0  0  0  0  0  0
    9.1926  -14.4381   18.9164 C   0  0  0  0  0  0  0  0  0  0  0  0
    8.8441  -15.1755   17.8119 C   0  0  0  0  0  0  0  0  0  0  0  0
    7.7726  -14.6057   17.2402 N   0  0  0  0  0  0  0  0  0  0  0  0
    7.4493  -13.5284   17.9694 C   0  0  0  0  0  0  0  0  0  0  0  0
    8.3143  -13.4257   18.9908 N   0  0  0  0  0  0  0  0  0  0  0  0
   11.2483  -16.1656   21.5082 C   0  0  0  0  0  0  0  0  0  0  0  0
   11.6805  -15.3875   22.4271 O   0  0  0  0  0  0  0  0  0  0  0  0
   12.0563  -17.2939   21.2418 N   0  0  0  0  0  0  0  0  0  0  0  0
   13.2000  -17.6684   22.0864 C   0  0  1  0  0  0  0  0  0  0  0  0
   13.1190  -19.0836   22.5183 C   0  0  0  0  0  0  0  0  0  0  0  0
   14.1998  -19.6417   23.3580 C   0  0  0  0  0  0  0  0  0  0  0  0
   14.1864  -21.0478   23.7138 C   0  0  0  0  0  0  0  0  0  0  0  0
   15.2056  -21.7442   23.7530 O   0  0  0  0  0  0  0  0  0  0  0  0
   14.4557  -17.2022   21.5432 C   0  0  0  0  0  0  0  0  0  0  0  0
   15.6199  -17.0232   22.3213 O   0  0  0  0  0  0  0  0  0  0  0  0
   12.9871  -21.7163   24.0430 O   0  0  0  0  0  0  0  0  0  0  0  0
   14.5941  -16.9167   20.3273 O   0  0  0  0  0  0  0  0  0  0  0  0
  2  3  1  0
  2  1  1  1
  3  4  1  0
  4 12  1  0
  5  6  1  0
  5  4  2  0
  6  7  1  0
  7  8  2  0
  8  9  1  0
 10  9  2  0
 11 10  1  0
 12  7  1  0
 12 11  2  0
 13  2  1  0
 14 13  2  0
 15 13  1  0
 16 23  1  0
 16 15  1  0
 16 17  1  6
 18 22  1  0
 18 17  1  0
 19 18  2  0
 20 19  1  0
 20 21  1  0
 21 22  2  0
 23 24  2  0
 25 26  1  0
 25 23  1  0
 26 27  1  6
 28 27  1  0
 29 28  1  0
 29 33  1  0
 30 29  2  0
 31 32  1  0
 31 26  1  0
 34 31  2  0
M  END
$$$$
