WHE.pdb
     RDKit          3D

 34 36  0  0  1  0  0  0  0  0999 V2000
    8.3099  -16.2966   21.9929 N   0  0  0  0  0  0  0  0  0  0  0  0
    9.3833  -15.3729   22.1234 C   0  0  1  0  0  0  0  0  0  0  0  0
    8.8136  -13.9546   22.0726 C   0  0  0  0  0  0  0  0  0  0  0  0
    7.9973  -13.6925   20.8938 C   0  0  0  0  0  0  0  0  0  0  0  0
    6.6223  -13.6340   20.8443 C   0  0  0  0  0  0  0  0  0  0  0  0
    6.2208  -13.4082   19.5880 N   0  0  0  0  0  0  0  0  0  0  0  0
    7.3192  -13.3116   18.7752 C   0  0  0  0  0  0  0  0  0  0  0  0
    7.4288  -13.0820   17.4247 C   0  0  0  0  0  0  0  0  0  0  0  0
    8.6511  -13.0177   16.8279 C   0  0  0  0  0  0  0  0  0  0  0  0
    9.7596  -13.1899   17.6248 C   0  0  0  0  0  0  0  0  0  0  0  0
    9.6631  -13.4213   18.9824 C   0  0  0  0  0  0  0  0  0  0  0  0
    8.4207  -13.4899   19.6011 C   0  0  0  0  0  0  0  0  0  0  0  0
   10.0684  -15.4891   23.4622 C   0  0  0  0  0  0  0  0  0  0  0  0
   11.1256  -14.8402   23.6073 O   0  0  0  0  0  0  0  0  0  0  0  0
    9.5357  -16.2959   24.5048 N   0  0  0  0  0  0  0  0  0  0  0  0
   10.3065  -16.3961   25.7210 C   0  0  1  0  0  0  0  0  0  0  0  0
    9.4489  -15.9180   26.9170 C   0  0  0  0  0  0  0  0  0  0  0  0
   10.2366  -15.9587   28.1691 C   0  0  0  0  0  0  0  0  0  0  0  0
   11.5488  -16.3195   28.3511 C   0  0  0  0  0  0  0  0  0  0  0  0
   11.8444  -16.2073   29.6548 N   0  0  0  0  0  0  0  0  0  0  0  0
   10.7402  -15.7834   30.2854 C   0  0  0  0  0  0  0  0  0  0  0  0
    9.7602  -15.6318   29.3807 N   0  0  0  0  0  0  0  0  0  0  0  0
   10.7100  -17.7871   26.0473 C   0  0  0  0  0  0  0  0  0  0  0  0
    9.8673  -18.7402   25.9132 O   0  0  0  0  0  0  0  0  0  0  0  0
   11.9893  -18.1715   26.5086 N   0  0  0  0  0  0  0  0  0  0  0  0
   12.3384  -19.5679   26.8083 C   0  0  1  0  0  0  0  0  0  0  0  0
   13.6232  -19.9560   26.1800 C   0  0  0  0  0  0  0  0  0  0  0  0
   14.0935  -21.3513   26.3086 C   0  0  0  0  0  0  0  0  0  0  0  0
   15.3912  -21.7286   25.7818 C   0  0  0  0  0  0  0  0  0  0  0  0
   15.5364  -22.3439   24.7208 O   0  0  0  0  0  0  0  0  0  0  0  0
   12.1483  -19.8908   28.2043 C   0  0  0  0  0  0  0  0  0  0  0  0
   11.5151  -21.0713   28.6493 O   0  0  0  0  0  0  0  0  0  0  0  0
   16.5869  -21.4092   26.4613 O   0  0  0  0  0  0  0  0  0  0  0  0
   12.5347  -19.1289   29.1260 O   0  0  0  0  0  0  0  0  0  0  0  0
  2  3  1  0
  2  1  1  1
  3  4  1  0
  4 12  1  0
  5  6  1  0
  5  4  2  0
  6  7  1  0
  7  8  2  0
  8  9  1  0
 10  9  2  0
 11 10  1  0
 12  7  1  0
 12 11  2  0
 13  2  1  0
 14 13  2  0
 15 13  1  0
 16 23  1  0
 16 15  1  0
 16 17  1  1
 18 22  1  0
 18 17  1  0
 19 18  2  0
 20 19  1  0
 20 21  1  0
 21 22  2  0
 23 24  2  0
 25 26  1  0
 25 23  1  0
 26 27  1  1
 28 27  1  0
 29 28  1  0
 29 33  1  0
 30 29  2  0
 31 32  1  0
 31 26  1  0
 34 31  2  0
M  END
$$$$
