WHE.pdb
     RDKit          3D

 34 36  0  0  1  0  0  0  0  0999 V2000
    6.7344  -17.1822   25.1545 N   0  0  0  0  0  0  0  0  0  0  0  0
    6.9904  -15.9444   24.5030 C   0  0  1  0  0  0  0  0  0  0  0  0
    8.2285  -15.3082   25.1361 C   0  0  0  0  0  0  0  0  0  0  0  0
    7.9320  -14.4741   26.2941 C   0  0  0  0  0  0  0  0  0  0  0  0
    8.0862  -14.8226   27.6175 C   0  0  0  0  0  0  0  0  0  0  0  0
    7.6801  -13.8185   28.4034 N   0  0  0  0  0  0  0  0  0  0  0  0
    7.2477  -12.7811   27.6204 C   0  0  0  0  0  0  0  0  0  0  0  0
    6.7491  -11.5439   27.9511 C   0  0  0  0  0  0  0  0  0  0  0  0
    6.3868  -10.6591   26.9815 C   0  0  0  0  0  0  0  0  0  0  0  0
    6.5393  -11.0511   25.6713 C   0  0  0  0  0  0  0  0  0  0  0  0
    7.0386  -12.2909   25.3258 C   0  0  0  0  0  0  0  0  0  0  0  0
    7.4102  -13.2017   26.3074 C   0  0  0  0  0  0  0  0  0  0  0  0
    7.3296  -16.1332   23.0454 C   0  0  0  0  0  0  0  0  0  0  0  0
    7.7546  -17.2591   22.7116 O   0  0  0  0  0  0  0  0  0  0  0  0
    7.1716  -15.0821   22.1009 N   0  0  0  0  0  0  0  0  0  0  0  0
    7.6485  -15.3225   20.7600 C   0  0  1  0  0  0  0  0  0  0  0  0
    7.4393  -14.0521   19.9018 C   0  0  0  0  0  0  0  0  0  0  0  0
    7.8204  -14.3080   18.4949 C   0  0  0  0  0  0  0  0  0  0  0  0
    8.3486  -15.4465   17.9380 C   0  0  0  0  0  0  0  0  0  0  0  0
    8.5393  -15.2306   16.6278 N   0  0  0  0  0  0  0  0  0  0  0  0
    8.1391  -13.9794   16.3610 C   0  0  0  0  0  0  0  0  0  0  0  0
    7.7011  -13.4168   17.4983 N   0  0  0  0  0  0  0  0  0  0  0  0
    9.1028  -15.6140   20.6975 C   0  0  0  0  0  0  0  0  0  0  0  0
    9.9299  -14.8483   21.3027 O   0  0  0  0  0  0  0  0  0  0  0  0
    9.6811  -16.7024   20.0061 N   0  0  0  0  0  0  0  0  0  0  0  0
   11.1272  -16.9680   20.0113 C   0  0  1  0  0  0  0  0  0  0  0  0
   11.5205  -17.8244   21.1548 C   0  0  0  0  0  0  0  0  0  0  0  0
   12.9382  -18.2142   21.3065 C   0  0  0  0  0  0  0  0  0  0  0  0
   13.3494  -19.0203   22.4400 C   0  0  0  0  0  0  0  0  0  0  0  0
   12.5551  -19.6562   23.1401 O   0  0  0  0  0  0  0  0  0  0  0  0
   11.6210  -17.3274   18.7012 C   0  0  0  0  0  0  0  0  0  0  0  0
   10.7882  -17.7756   17.6532 O   0  0  0  0  0  0  0  0  0  0  0  0
   14.7056  -19.1288   22.8176 O   0  0  0  0  0  0  0  0  0  0  0  0
   12.8413  -17.2688   18.4068 O   0  0  0  0  0  0  0  0  0  0  0  0
  2  3  1  0
  2  1  1  1
  3  4  1  0
  4 12  1  0
  5  6  1  0
  5  4  2  0
  6  7  1  0
  7  8  2  0
  8  9  1  0
 10  9  2  0
 11 10  1  0
 12  7  1  0
 12 11  2  0
 13  2  1  0
 14 13  2  0
 15 13  1  0
 16 23  1  0
 16 15  1  0
 16 17  1  6
 18 22  1  0
 18 17  1  0
 19 18  2  0
 20 19  1  0
 20 21  1  0
 21 22  2  0
 23 24  2  0
 25 26  1  0
 25 23  1  0
 26 27  1  1
 28 27  1  0
 29 28  1  0
 29 33  1  0
 30 29  2  0
 31 32  1  0
 31 26  1  0
 34 31  2  0
M  END
$$$$
