WHE.pdb
     RDKit          3D

 34 36  0  0  1  0  0  0  0  0999 V2000
    6.1228  -16.9132   23.6054 N   0  0  0  0  0  0  0  0  0  0  0  0
    7.1249  -15.9135   23.4684 C   0  0  1  0  0  0  0  0  0  0  0  0
    7.8240  -15.7372   24.8170 C   0  0  0  0  0  0  0  0  0  0  0  0
    7.1210  -14.8442   25.7296 C   0  0  0  0  0  0  0  0  0  0  0  0
    6.0587  -15.1717   26.5426 C   0  0  0  0  0  0  0  0  0  0  0  0
    5.6487  -14.0897   27.2146 N   0  0  0  0  0  0  0  0  0  0  0  0
    6.4288  -13.0198   26.8637 C   0  0  0  0  0  0  0  0  0  0  0  0
    6.4084  -11.7097   27.2783 C   0  0  0  0  0  0  0  0  0  0  0  0
    7.3061  -10.8115   26.7869 C   0  0  0  0  0  0  0  0  0  0  0  0
    8.2246  -11.2654   25.8683 C   0  0  0  0  0  0  0  0  0  0  0  0
    8.2556  -12.5786   25.4435 C   0  0  0  0  0  0  0  0  0  0  0  0
    7.3433  -13.5030   25.9377 C   0  0  0  0  0  0  0  0  0  0  0  0
    8.2053  -16.3262   22.5001 C   0  0  0  0  0  0  0  0  0  0  0  0
    8.5077  -17.5378   22.4831 O   0  0  0  0  0  0  0  0  0  0  0  0
    8.8449  -15.3827   21.6502 N   0  0  0  0  0  0  0  0  0  0  0  0
    9.9014  -15.8724   20.7975 C   0  0  1  0  0  0  0  0  0  0  0  0
   10.3087  -14.7679   19.7933 C   0  0  0  0  0  0  0  0  0  0  0  0
    9.2857  -14.6277   18.7333 C   0  0  0  0  0  0  0  0  0  0  0  0
    8.4375  -15.5788   18.2223 C   0  0  0  0  0  0  0  0  0  0  0  0
    7.6791  -15.0079   17.2743 N   0  0  0  0  0  0  0  0  0  0  0  0
    8.0406  -13.7200   17.1876 C   0  0  0  0  0  0  0  0  0  0  0  0
    9.0195  -13.4878   18.0762 N   0  0  0  0  0  0  0  0  0  0  0  0
   11.1408  -16.2184   21.5379 C   0  0  0  0  0  0  0  0  0  0  0  0
   11.6887  -15.3485   22.2992 O   0  0  0  0  0  0  0  0  0  0  0  0
   11.7963  -17.4690   21.4792 N   0  0  0  0  0  0  0  0  0  0  0  0
   13.0037  -17.7699   22.2622 C   0  0  1  0  0  0  0  0  0  0  0  0
   13.0270  -19.1831   22.7075 C   0  0  0  0  0  0  0  0  0  0  0  0
   14.2368  -19.7058   23.3768 C   0  0  0  0  0  0  0  0  0  0  0  0
   14.1235  -20.3653   24.6637 C   0  0  0  0  0  0  0  0  0  0  0  0
   13.0410  -20.6765   25.1701 O   0  0  0  0  0  0  0  0  0  0  0  0
   14.1994  -17.2389   21.6479 C   0  0  0  0  0  0  0  0  0  0  0  0
   15.2100  -16.5665   22.3685 O   0  0  0  0  0  0  0  0  0  0  0  0
   15.2635  -20.6974   25.4278 O   0  0  0  0  0  0  0  0  0  0  0  0
   14.4184  -17.3375   20.4144 O   0  0  0  0  0  0  0  0  0  0  0  0
  2  3  1  0
  2  1  1  1
  3  4  1  0
  4 12  1  0
  5  6  1  0
  5  4  2  0
  6  7  1  0
  7  8  2  0
  8  9  1  0
 10  9  2  0
 11 10  1  0
 12  7  1  0
 12 11  2  0
 13  2  1  0
 14 13  2  0
 15 13  1  0
 16 23  1  0
 16 15  1  0
 16 17  1  6
 18 22  1  0
 18 17  1  0
 19 18  2  0
 20 19  1  0
 20 21  1  0
 21 22  2  0
 23 24  2  0
 25 26  1  0
 25 23  1  0
 26 27  1  6
 28 27  1  0
 29 28  1  0
 29 33  1  0
 30 29  2  0
 31 32  1  0
 31 26  1  0
 34 31  2  0
M  END
$$$$
