FGE.pdb
     RDKit          3D

 25 25  0  0  1  0  0  0  0  0999 V2000
   25.6679  -20.6318   -7.3442 N   0  0  0  0  0  0  0  0  0  0  0  0
   26.7771  -20.2010   -8.1753 C   0  0  1  0  0  0  0  0  0  0  0  0
   28.0207  -20.9069   -7.7108 C   0  0  0  0  0  0  0  0  0  0  0  0
   28.3947  -20.3007   -6.3784 C   0  0  0  0  0  0  0  0  0  0  0  0
   28.1441  -18.9751   -6.1165 C   0  0  0  0  0  0  0  0  0  0  0  0
   28.4968  -18.4571   -4.9027 C   0  0  0  0  0  0  0  0  0  0  0  0
   29.1024  -19.2363   -3.9262 C   0  0  0  0  0  0  0  0  0  0  0  0
   29.3581  -20.5680   -4.1797 C   0  0  0  0  0  0  0  0  0  0  0  0
   28.9940  -21.0648   -5.4080 C   0  0  0  0  0  0  0  0  0  0  0  0
   26.4290  -20.4145   -9.5802 C   0  0  0  0  0  0  0  0  0  0  0  0
   27.3196  -20.6012  -10.4482 O   0  0  0  0  0  0  0  0  0  0  0  0
   25.0661  -20.4228  -10.0456 N   0  0  0  0  0  0  0  0  0  0  0  0
   24.6859  -20.6013  -11.4101 C   0  0  0  0  0  0  0  0  0  0  0  0
   23.2202  -20.6042  -11.6438 C   0  0  0  0  0  0  0  0  0  0  0  0
   22.4343  -20.9625  -10.7453 O   0  0  0  0  0  0  0  0  0  0  0  0
   22.7144  -20.1973  -12.8955 N   0  0  0  0  0  0  0  0  0  0  0  0
   21.2879  -20.1374  -13.2266 C   0  0  1  0  0  0  0  0  0  0  0  0
   21.1673  -19.4249  -14.5176 C   0  0  0  0  0  0  0  0  0  0  0  0
   21.4682  -20.1797  -15.7621 C   0  0  0  0  0  0  0  0  0  0  0  0
   21.3052  -19.2873  -16.9370 C   0  0  0  0  0  0  0  0  0  0  0  0
   21.6112  -19.6327  -18.1134 O   0  0  0  0  0  0  0  0  0  0  0  0
   20.5582  -21.3608  -12.9889 C   0  0  0  0  0  0  0  0  0  0  0  0
   19.2572  -21.4516  -12.5084 O   0  0  0  0  0  0  0  0  0  0  0  0
   20.7916  -18.0189  -16.7258 O   0  0  0  0  0  0  0  0  0  0  0  0
   21.1373  -22.4615  -13.2235 O   0  0  0  0  0  0  0  0  0  0  0  0
  2  1  1  1
  2 10  1  0
  3  2  1  0
  4  3  1  0
  4  9  2  0
  5  4  1  0
  6  5  2  0
  6  7  1  0
  7  8  2  0
  8  9  1  0
 10 11  2  0
 12 13  1  0
 12 10  1  0
 13 14  1  0
 14 16  1  0
 15 14  2  0
 16 17  1  0
 17 22  1  0
 17 18  1  6
 19 18  1  0
 19 20  1  0
 20 21  2  0
 20 24  1  0
 22 25  2  0
 22 23  1  0
M  END
$$$$
