FGE.pdb
     RDKit          3D

 25 25  0  0  1  0  0  0  0  0999 V2000
   25.5271  -20.3256   -7.4920 N   0  0  0  0  0  0  0  0  0  0  0  0
   26.7595  -20.2533   -8.2552 C   0  0  1  0  0  0  0  0  0  0  0  0
   27.8470  -20.9282   -7.4661 C   0  0  0  0  0  0  0  0  0  0  0  0
   28.1264  -20.0503   -6.2686 C   0  0  0  0  0  0  0  0  0  0  0  0
   28.0478  -18.6820   -6.3693 C   0  0  0  0  0  0  0  0  0  0  0  0
   28.3087  -17.9164   -5.2686 C   0  0  0  0  0  0  0  0  0  0  0  0
   28.6516  -18.4859   -4.0496 C   0  0  0  0  0  0  0  0  0  0  0  0
   28.7331  -19.8585   -3.9387 C   0  0  0  0  0  0  0  0  0  0  0  0
   28.4661  -20.6061   -5.0602 C   0  0  0  0  0  0  0  0  0  0  0  0
   26.5253  -20.8058   -9.5895 C   0  0  0  0  0  0  0  0  0  0  0  0
   25.6858  -21.7238   -9.7734 O   0  0  0  0  0  0  0  0  0  0  0  0
   27.2322  -20.3384  -10.7539 N   0  0  0  0  0  0  0  0  0  0  0  0
   27.1108  -20.9192  -12.0525 C   0  0  0  0  0  0  0  0  0  0  0  0
   25.8567  -20.5714  -12.7659 C   0  0  0  0  0  0  0  0  0  0  0  0
   25.6033  -19.3886  -13.0655 O   0  0  0  0  0  0  0  0  0  0  0  0
   24.9445  -21.5911  -13.1070 N   0  0  0  0  0  0  0  0  0  0  0  0
   23.7566  -21.3876  -13.9411 C   0  0  1  0  0  0  0  0  0  0  0  0
   23.7058  -22.5035  -14.9111 C   0  0  0  0  0  0  0  0  0  0  0  0
   23.2992  -23.8434  -14.4128 C   0  0  0  0  0  0  0  0  0  0  0  0
   23.4985  -24.8535  -15.4821 C   0  0  0  0  0  0  0  0  0  0  0  0
   24.4986  -25.6247  -15.5248 O   0  0  0  0  0  0  0  0  0  0  0  0
   22.5722  -20.9823  -13.2210 C   0  0  0  0  0  0  0  0  0  0  0  0
   22.3598  -21.1309  -11.8555 O   0  0  0  0  0  0  0  0  0  0  0  0
   22.5381  -24.9499  -16.4749 O   0  0  0  0  0  0  0  0  0  0  0  0
   21.6261  -20.4495  -13.8713 O   0  0  0  0  0  0  0  0  0  0  0  0
  2  1  1  1
  2 10  1  0
  3  2  1  0
  4  3  1  0
  4  9  2  0
  5  4  1  0
  6  5  2  0
  6  7  1  0
  7  8  2  0
  8  9  1  0
 10 11  2  0
 12 13  1  0
 12 10  1  0
 13 14  1  0
 14 16  1  0
 15 14  2  0
 16 17  1  0
 17 22  1  0
 17 18  1  1
 19 18  1  0
 19 20  1  0
 20 21  2  0
 20 24  1  0
 22 25  2  0
 22 23  1  0
M  END
$$$$
