FGE.pdb
     RDKit          3D

 25 25  0  0  1  0  0  0  0  0999 V2000
   16.4721  -15.8573    5.2863 N   0  0  0  0  0  0  0  0  0  0  0  0
   17.5215  -16.2585    4.3673 C   0  0  1  0  0  0  0  0  0  0  0  0
   18.8015  -15.5905    4.7872 C   0  0  0  0  0  0  0  0  0  0  0  0
   18.6936  -14.1415    4.3735 C   0  0  0  0  0  0  0  0  0  0  0  0
   18.9319  -13.1348    5.2781 C   0  0  0  0  0  0  0  0  0  0  0  0
   18.8236  -11.8348    4.8729 C   0  0  0  0  0  0  0  0  0  0  0  0
   18.4787  -11.5044    3.5692 C   0  0  0  0  0  0  0  0  0  0  0  0
   18.2376  -12.5079    2.6539 C   0  0  0  0  0  0  0  0  0  0  0  0
   18.3529  -13.8069    3.0864 C   0  0  0  0  0  0  0  0  0  0  0  0
   17.5718  -17.7197    4.3123 C   0  0  0  0  0  0  0  0  0  0  0  0
   17.8487  -18.3983    5.3341 O   0  0  0  0  0  0  0  0  0  0  0  0
   17.3116  -18.4563    3.1024 N   0  0  0  0  0  0  0  0  0  0  0  0
   17.7659  -19.7881    2.8612 C   0  0  0  0  0  0  0  0  0  0  0  0
   17.0375  -20.8328    3.6233 C   0  0  0  0  0  0  0  0  0  0  0  0
   16.1132  -20.5243    4.4003 O   0  0  0  0  0  0  0  0  0  0  0  0
   17.3966  -22.1872    3.4650 N   0  0  0  0  0  0  0  0  0  0  0  0
   16.7771  -23.2941    4.1992 C   0  0  1  0  0  0  0  0  0  0  0  0
   16.1938  -24.2127    3.1968 C   0  0  0  0  0  0  0  0  0  0  0  0
   15.3263  -25.3170    3.6836 C   0  0  0  0  0  0  0  0  0  0  0  0
   15.6709  -26.5720    2.9696 C   0  0  0  0  0  0  0  0  0  0  0  0
   16.4884  -26.6159    2.0071 O   0  0  0  0  0  0  0  0  0  0  0  0
   17.5600  -23.8052    5.2999 C   0  0  0  0  0  0  0  0  0  0  0  0
   18.9455  -23.7617    5.4018 O   0  0  0  0  0  0  0  0  0  0  0  0
   15.0648  -27.7457    3.3850 O   0  0  0  0  0  0  0  0  0  0  0  0
   16.9532  -24.3536    6.2657 O   0  0  0  0  0  0  0  0  0  0  0  0
  2  1  1  1
  2 10  1  0
  3  2  1  0
  4  3  1  0
  4  9  2  0
  5  4  1  0
  6  5  2  0
  6  7  1  0
  7  8  2  0
  8  9  1  0
 10 11  2  0
 12 13  1  0
 12 10  1  0
 13 14  1  0
 14 16  1  0
 15 14  2  0
 16 17  1  0
 17 22  1  0
 17 18  1  6
 19 18  1  0
 19 20  1  0
 20 21  2  0
 20 24  1  0
 22 25  2  0
 22 23  1  0
M  END
$$$$
