FGE.pdb
     RDKit          3D

 25 25  0  0  1  0  0  0  0  0999 V2000
   24.7522    1.0401   -3.6890 N   0  0  0  0  0  0  0  0  0  0  0  0
   24.4944    1.9541   -2.5914 C   0  0  1  0  0  0  0  0  0  0  0  0
   25.4321    1.6197   -1.4647 C   0  0  0  0  0  0  0  0  0  0  0  0
   25.0238    0.2608   -0.9457 C   0  0  0  0  0  0  0  0  0  0  0  0
   25.9085   -0.7907   -0.9627 C   0  0  0  0  0  0  0  0  0  0  0  0
   25.5074   -2.0073   -0.4885 C   0  0  0  0  0  0  0  0  0  0  0  0
   24.2276   -2.2087    0.0107 C   0  0  0  0  0  0  0  0  0  0  0  0
   23.3323   -1.1594    0.0318 C   0  0  0  0  0  0  0  0  0  0  0  0
   23.7601    0.0538   -0.4509 C   0  0  0  0  0  0  0  0  0  0  0  0
   24.5824    3.3280   -3.0865 C   0  0  0  0  0  0  0  0  0  0  0  0
   24.3017    4.3041   -2.3450 O   0  0  0  0  0  0  0  0  0  0  0  0
   24.9892    3.6393   -4.4325 N   0  0  0  0  0  0  0  0  0  0  0  0
   25.0902    4.9648   -4.9533 C   0  0  0  0  0  0  0  0  0  0  0  0
   25.4837    5.0346   -6.3826 C   0  0  0  0  0  0  0  0  0  0  0  0
   26.6807    4.9432   -6.7172 O   0  0  0  0  0  0  0  0  0  0  0  0
   24.4917    5.2062   -7.3699 N   0  0  0  0  0  0  0  0  0  0  0  0
   24.6962    4.9414   -8.7968 C   0  0  1  0  0  0  0  0  0  0  0  0
   25.3375    3.6129   -8.9085 C   0  0  0  0  0  0  0  0  0  0  0  0
   24.5507    2.4212   -8.4965 C   0  0  0  0  0  0  0  0  0  0  0  0
   25.3276    1.1890   -8.7818 C   0  0  0  0  0  0  0  0  0  0  0  0
   25.1530    0.4880   -9.8186 O   0  0  0  0  0  0  0  0  0  0  0  0
   23.5824    5.2960   -9.6450 C   0  0  0  0  0  0  0  0  0  0  0  0
   22.3329    5.7227   -9.2109 O   0  0  0  0  0  0  0  0  0  0  0  0
   26.2880    0.7969   -7.8647 O   0  0  0  0  0  0  0  0  0  0  0  0
   23.7306    5.2103  -10.8991 O   0  0  0  0  0  0  0  0  0  0  0  0
  2  1  1  6
  2 10  1  0
  3  2  1  0
  4  3  1  0
  4  9  2  0
  5  4  1  0
  6  5  2  0
  6  7  1  0
  7  8  2  0
  8  9  1  0
 10 11  2  0
 12 13  1  0
 12 10  1  0
 13 14  1  0
 14 16  1  0
 15 14  2  0
 16 17  1  0
 17 22  1  0
 17 18  1  1
 19 18  1  0
 19 20  1  0
 20 21  2  0
 20 24  1  0
 22 25  2  0
 22 23  1  0
M  END
$$$$
