FGE.pdb
     RDKit          3D

 25 25  0  0  1  0  0  0  0  0999 V2000
   22.8667  -31.9643   -2.5692 N   0  0  0  0  0  0  0  0  0  0  0  0
   24.0016  -31.0789   -2.7556 C   0  0  1  0  0  0  0  0  0  0  0  0
   24.2841  -30.3876   -1.4506 C   0  0  0  0  0  0  0  0  0  0  0  0
   23.1029  -29.4889   -1.1682 C   0  0  0  0  0  0  0  0  0  0  0  0
   22.1049  -29.8911   -0.3132 C   0  0  0  0  0  0  0  0  0  0  0  0
   21.0493  -29.0559   -0.0809 C   0  0  0  0  0  0  0  0  0  0  0  0
   20.9588  -27.8101   -0.6871 C   0  0  0  0  0  0  0  0  0  0  0  0
   21.9556  -27.3975   -1.5468 C   0  0  0  0  0  0  0  0  0  0  0  0
   23.0064  -28.2558   -1.7638 C   0  0  0  0  0  0  0  0  0  0  0  0
   25.1181  -31.8472   -3.3066 C   0  0  0  0  0  0  0  0  0  0  0  0
   26.2604  -31.3356   -3.4280 O   0  0  0  0  0  0  0  0  0  0  0  0
   24.9771  -33.2144   -3.7367 N   0  0  0  0  0  0  0  0  0  0  0  0
   26.0570  -34.0241   -4.2018 C   0  0  0  0  0  0  0  0  0  0  0  0
   27.1659  -34.1867   -3.2288 C   0  0  0  0  0  0  0  0  0  0  0  0
   27.1907  -33.5198   -2.1764 O   0  0  0  0  0  0  0  0  0  0  0  0
   28.2005  -35.1056   -3.5002 N   0  0  0  0  0  0  0  0  0  0  0  0
   29.1535  -35.5915   -2.4983 C   0  0  1  0  0  0  0  0  0  0  0  0
   28.3864  -35.8759   -1.2656 C   0  0  0  0  0  0  0  0  0  0  0  0
   29.1257  -36.4063   -0.0904 C   0  0  0  0  0  0  0  0  0  0  0  0
   29.2281  -35.3525    0.9500 C   0  0  0  0  0  0  0  0  0  0  0  0
   28.2227  -34.8693    1.5438 O   0  0  0  0  0  0  0  0  0  0  0  0
   30.1271  -36.5354   -2.9951 C   0  0  0  0  0  0  0  0  0  0  0  0
   31.4788  -36.5554   -2.6725 O   0  0  0  0  0  0  0  0  0  0  0  0
   30.4881  -34.8833    1.2808 O   0  0  0  0  0  0  0  0  0  0  0  0
   29.7402  -37.4283   -3.8044 O   0  0  0  0  0  0  0  0  0  0  0  0
  2  1  1  1
  2 10  1  0
  3  2  1  0
  4  3  1  0
  4  9  2  0
  5  4  1  0
  6  5  2  0
  6  7  1  0
  7  8  2  0
  8  9  1  0
 10 11  2  0
 12 13  1  0
 12 10  1  0
 13 14  1  0
 14 16  1  0
 15 14  2  0
 16 17  1  0
 17 22  1  0
 17 18  1  1
 19 18  1  0
 19 20  1  0
 20 21  2  0
 20 24  1  0
 22 25  2  0
 22 23  1  0
M  END
$$$$
