CVL.pdb
     RDKit          3D

 22 21  0  0  1  0  0  0  0  0999 V2000
   17.5212  -12.5490  -16.2205 N   0  0  0  0  0  0  0  0  0  0  0  0
   18.2203  -11.3866  -16.6779 C   0  0  1  0  0  0  0  0  0  0  0  0
   17.3027  -10.3451  -17.2423 C   0  0  0  0  0  0  0  0  0  0  0  0
   16.5365  -10.8359  -18.7863 S   0  0  0  0  0  0  0  0  0  0  0  0
   18.9823  -10.7273  -15.5573 C   0  0  0  0  0  0  0  0  0  0  0  0
   18.4490  -10.6214  -14.4234 O   0  0  0  0  0  0  0  0  0  0  0  0
   22.9965  -10.1863  -16.0413 C   0  0  0  0  0  0  0  0  0  0  0  0
   22.3922  -10.2416  -14.6573 C   0  0  1  0  0  0  0  0  0  0  0  0
   23.3672   -9.6924  -13.6734 C   0  0  0  0  0  0  0  0  0  0  0  0
   21.0365   -9.5836  -14.6519 C   0  0  2  0  0  0  0  0  0  0  0  0
   20.2957  -10.2221  -15.7594 N   0  0  0  0  0  0  0  0  0  0  0  0
   21.2034   -8.1405  -15.0567 C   0  0  0  0  0  0  0  0  0  0  0  0
   21.6774   -7.8537  -16.1910 O   0  0  0  0  0  0  0  0  0  0  0  0
   19.5213   -5.3540  -17.2297 C   0  0  0  0  0  0  0  0  0  0  0  0
   18.9793   -5.4898  -15.8414 C   0  0  2  0  0  0  0  0  0  0  0  0
   17.5636   -5.0705  -15.7370 C   0  0  0  0  0  0  0  0  0  0  0  0
   19.8359   -5.0076  -14.7481 C   0  0  0  0  0  0  0  0  0  0  0  0
   21.1476   -5.6958  -14.6229 C   0  0  2  0  0  0  0  0  0  0  0  0
   20.8408   -7.0850  -14.1990 N   0  0  0  0  0  0  0  0  0  0  0  0
   22.1072   -5.1697  -13.6692 C   0  0  0  0  0  0  0  0  0  0  0  0
   22.6892   -4.0413  -13.8819 O   0  0  0  0  0  0  0  0  0  0  0  0
   22.5049   -5.7593  -12.4693 O   0  0  0  0  0  0  0  0  0  0  0  0
  2  1  1  1
  2  3  1  0
  4  3  1  0
  5  2  1  0
  5  6  2  0
  8  7  1  6
  8 10  1  0
  9  8  1  0
 10 11  1  6
 10 12  1  0
 11  5  1  0
 12 19  1  0
 13 12  2  0
 15 16  1  6
 15 14  1  0
 17 15  1  0
 18 17  1  1
 19 18  1  0
 20 22  1  0
 20 18  1  0
 21 20  2  0
M  END
$$$$
