CVL.pdb
     RDKit          3D

 22 21  0  0  1  0  0  0  0  0999 V2000
   16.1109  -11.2083  -14.7425 N   0  0  0  0  0  0  0  0  0  0  0  0
   16.8591  -10.2389  -15.4840 C   0  0  1  0  0  0  0  0  0  0  0  0
   16.0288   -9.0631  -15.9002 C   0  0  0  0  0  0  0  0  0  0  0  0
   14.7332   -9.4854  -17.0641 S   0  0  0  0  0  0  0  0  0  0  0  0
   18.0050   -9.6914  -14.6728 C   0  0  0  0  0  0  0  0  0  0  0  0
   17.8876   -9.5888  -13.4249 O   0  0  0  0  0  0  0  0  0  0  0  0
   21.7658   -9.0791  -16.4669 C   0  0  0  0  0  0  0  0  0  0  0  0
   21.5670   -9.3693  -14.9972 C   0  0  1  0  0  0  0  0  0  0  0  0
   22.8115   -9.0217  -14.2553 C   0  0  0  0  0  0  0  0  0  0  0  0
   20.3138   -8.6986  -14.4966 C   0  0  2  0  0  0  0  0  0  0  0  0
   19.2185   -9.2881  -15.2939 N   0  0  0  0  0  0  0  0  0  0  0  0
   20.3607   -7.2432  -14.8886 C   0  0  0  0  0  0  0  0  0  0  0  0
   21.2314   -6.4810  -14.3840 O   0  0  0  0  0  0  0  0  0  0  0  0
   21.3149   -4.5587  -18.2849 C   0  0  0  0  0  0  0  0  0  0  0  0
   19.9965   -5.2450  -18.4589 C   0  0  2  0  0  0  0  0  0  0  0  0
   19.4788   -5.1459  -19.8421 C   0  0  0  0  0  0  0  0  0  0  0  0
   18.9871   -5.0098  -17.4161 C   0  0  0  0  0  0  0  0  0  0  0  0
   19.4562   -5.2271  -16.0224 C   0  0  2  0  0  0  0  0  0  0  0  0
   19.4526   -6.6970  -15.8150 N   0  0  0  0  0  0  0  0  0  0  0  0
   18.6779   -4.6501  -14.9414 C   0  0  0  0  0  0  0  0  0  0  0  0
   17.7040   -5.3065  -14.4143 O   0  0  0  0  0  0  0  0  0  0  0  0
   18.8604   -3.3987  -14.3532 O   0  0  0  0  0  0  0  0  0  0  0  0
  2  1  1  1
  2  3  1  0
  4  3  1  0
  5  2  1  0
  5  6  2  0
  8  7  1  6
  8 10  1  0
  9  8  1  0
 10 11  1  6
 10 12  1  0
 11  5  1  0
 12 19  1  0
 13 12  2  0
 15 16  1  6
 15 14  1  0
 17 15  1  0
 18 17  1  6
 19 18  1  0
 20 22  1  0
 20 18  1  0
 21 20  2  0
M  END
$$$$
