CVL.pdb
     RDKit          3D

 22 21  0  0  1  0  0  0  0  0999 V2000
   15.5470  -13.6323  -13.4699 N   0  0  0  0  0  0  0  0  0  0  0  0
   14.8602  -12.4912  -12.9452 C   0  0  1  0  0  0  0  0  0  0  0  0
   13.9887  -12.8292  -11.7741 C   0  0  0  0  0  0  0  0  0  0  0  0
   12.5869  -13.8587  -12.2061 S   0  0  0  0  0  0  0  0  0  0  0  0
   15.8277  -11.4372  -12.4721 C   0  0  0  0  0  0  0  0  0  0  0  0
   16.8549  -11.7808  -11.8331 O   0  0  0  0  0  0  0  0  0  0  0  0
   17.9205   -9.3889  -14.3936 C   0  0  0  0  0  0  0  0  0  0  0  0
   17.0576   -8.4167  -13.6229 C   0  0  1  0  0  0  0  0  0  0  0  0
   15.9730   -7.9118  -14.5112 C   0  0  0  0  0  0  0  0  0  0  0  0
   16.5912   -9.0403  -12.3328 C   0  0  2  0  0  0  0  0  0  0  0  0
   15.5996  -10.0589  -12.7355 N   0  0  0  0  0  0  0  0  0  0  0  0
   15.8157   -8.0071  -11.5548 C   0  0  0  0  0  0  0  0  0  0  0  0
   14.5866   -8.1809  -11.3252 O   0  0  0  0  0  0  0  0  0  0  0  0
   14.4144   -6.6610   -6.6156 C   0  0  0  0  0  0  0  0  0  0  0  0
   14.5365   -6.0026   -7.9539 C   0  0  2  0  0  0  0  0  0  0  0  0
   13.2506   -5.4542   -8.4404 C   0  0  0  0  0  0  0  0  0  0  0  0
   15.3135   -6.7209   -8.9745 C   0  0  0  0  0  0  0  0  0  0  0  0
   15.6286   -5.9360  -10.1970 C   0  0  2  0  0  0  0  0  0  0  0  0
   16.4266   -6.8370  -11.0661 N   0  0  0  0  0  0  0  0  0  0  0  0
   16.3961   -4.7132  -10.0453 C   0  0  0  0  0  0  0  0  0  0  0  0
   17.6830   -4.7446  -10.0463 O   0  0  0  0  0  0  0  0  0  0  0  0
   15.8922   -3.4213   -9.8955 O   0  0  0  0  0  0  0  0  0  0  0  0
  2  1  1  1
  2  3  1  0
  4  3  1  0
  5  2  1  0
  5  6  2  0
  8  7  1  6
  8 10  1  0
  9  8  1  0
 10 11  1  6
 10 12  1  0
 11  5  1  0
 12 19  1  0
 13 12  2  0
 15 16  1  6
 15 14  1  0
 17 15  1  0
 18 17  1  1
 19 18  1  0
 20 22  1  0
 20 18  1  0
 21 20  2  0
M  END
$$$$
