ITP.pdb
     RDKit          3D

 23 23  0  0  1  0  0  0  0  0999 V2000
    8.4114  -12.7196   17.4617 C   0  0  0  0  0  0  0  0  0  0  0  0
    8.7546  -13.9873   18.1832 C   0  0  0  0  0  0  0  0  0  0  0  0
    8.0420  -14.0646   19.5049 C   0  0  2  0  0  0  0  0  0  0  0  0
    8.3169  -12.8437   20.3575 C   0  0  0  0  0  0  0  0  0  0  0  0
    8.2055  -15.3416   20.2544 C   0  0  2  0  0  0  0  0  0  0  0  0
    7.6316  -16.4406   19.4349 N   0  0  0  0  0  0  0  0  0  0  0  0
    7.5346  -15.4256   21.5519 C   0  0  0  0  0  0  0  0  0  0  0  0
    6.3098  -15.8075   21.6503 O   0  0  0  0  0  0  0  0  0  0  0  0
    6.1906  -17.1123   23.1065 C   0  0  0  0  0  0  0  0  0  0  0  0
    7.0992  -16.7041   24.2206 C   0  0  1  0  0  0  0  0  0  0  0  0
    8.3963  -17.2562   24.0615 O   0  0  0  0  0  0  0  0  0  0  0  0
    7.3337  -15.1848   24.0723 C   0  0  2  0  0  0  0  0  0  0  0  0
    8.1071  -15.1177   22.8150 N   0  0  0  0  0  0  0  0  0  0  0  0
    8.1659  -14.7392   25.2142 C   0  0  0  0  0  0  0  0  0  0  0  0
    9.2671  -15.3431   25.3766 O   0  0  0  0  0  0  0  0  0  0  0  0
    7.7397  -13.6872   26.0739 N   0  0  0  0  0  0  0  0  0  0  0  0
    6.5395  -12.9260   25.9536 C   0  0  0  0  0  0  0  0  0  0  0  0
    6.2157  -12.6215   27.4262 C   0  0  0  0  0  0  0  0  0  0  0  0
    7.6291  -12.2600   27.9242 C   0  0  0  0  0  0  0  0  0  0  0  0
    8.5145  -13.2128   27.1696 C   0  0  1  0  0  0  0  0  0  0  0  0
    8.9515  -14.3401   28.0324 C   0  0  0  0  0  0  0  0  0  0  0  0
    8.3568  -15.4282   27.9673 O   0  0  0  0  0  0  0  0  0  0  0  0
   10.0059  -14.1778   28.8952 O   0  0  0  0  0  0  0  0  0  0  0  0
  1  2  1  0
  3  5  1  0
  3  2  1  0
  3  4  1  1
  5  7  1  0
  5  6  1  6
  7  8  2  0
 10 11  1  0
 10  9  1  6
 10 12  1  0
 12 13  1  6
 13  7  1  0
 14 12  1  0
 14 15  2  0
 16 20  1  0
 16 14  1  0
 17 16  1  0
 18 17  1  0
 18 19  1  0
 19 20  1  0
 20 21  1  1
 21 22  2  0
 21 23  1  0
M  END
$$$$
