ITP.pdb
     RDKit          3D

 23 23  0  0  1  0  0  0  0  0999 V2000
    6.0757  -11.5164   27.7204 C   0  0  0  0  0  0  0  0  0  0  0  0
    6.0868  -12.9525   27.2932 C   0  0  0  0  0  0  0  0  0  0  0  0
    7.0682  -13.1746   26.1760 C   0  0  2  0  0  0  0  0  0  0  0  0
    6.7637  -12.2918   24.9840 C   0  0  0  0  0  0  0  0  0  0  0  0
    7.3064  -14.5955   25.7970 C   0  0  2  0  0  0  0  0  0  0  0  0
    7.8077  -15.3202   26.9937 N   0  0  0  0  0  0  0  0  0  0  0  0
    8.2990  -14.8321   24.7484 C   0  0  0  0  0  0  0  0  0  0  0  0
    9.5560  -14.8951   25.0164 O   0  0  0  0  0  0  0  0  0  0  0  0
   10.6307  -16.3003   23.8945 C   0  0  0  0  0  0  0  0  0  0  0  0
    9.7108  -16.5338   22.7401 C   0  0  1  0  0  0  0  0  0  0  0  0
    8.5789  -17.2978   23.1244 O   0  0  0  0  0  0  0  0  0  0  0  0
    9.1087  -15.1623   22.3638 C   0  0  2  0  0  0  0  0  0  0  0  0
    8.0320  -15.0176   23.3655 N   0  0  0  0  0  0  0  0  0  0  0  0
    8.5349  -15.2752   21.0026 C   0  0  0  0  0  0  0  0  0  0  0  0
    8.1571  -16.4300   20.6458 O   0  0  0  0  0  0  0  0  0  0  0  0
    8.4190  -14.1391   20.1522 N   0  0  0  0  0  0  0  0  0  0  0  0
    8.7128  -12.7866   20.4973 C   0  0  0  0  0  0  0  0  0  0  0  0
    9.2082  -12.2238   19.1543 C   0  0  0  0  0  0  0  0  0  0  0  0
    8.1579  -12.8514   18.2166 C   0  0  0  0  0  0  0  0  0  0  0  0
    7.9263  -14.2097   18.8186 C   0  0  1  0  0  0  0  0  0  0  0  0
    8.6338  -15.2667   18.0515 C   0  0  0  0  0  0  0  0  0  0  0  0
    9.7216  -15.7001   18.4648 O   0  0  0  0  0  0  0  0  0  0  0  0
    8.0868  -15.7595   16.8937 O   0  0  0  0  0  0  0  0  0  0  0  0
  1  2  1  0
  3  5  1  0
  3  2  1  0
  3  4  1  6
  5  7  1  0
  5  6  1  1
  7  8  2  0
 10 11  1  0
 10  9  1  1
 10 12  1  0
 12 13  1  1
 13  7  1  0
 14 12  1  0
 14 15  2  0
 16 20  1  0
 16 14  1  0
 17 16  1  0
 18 17  1  0
 18 19  1  0
 19 20  1  0
 20 21  1  6
 21 22  2  0
 21 23  1  0
M  END
$$$$
