ITP.pdb
     RDKit          3D

 23 23  0  0  1  0  0  0  0  0999 V2000
    8.0242  -12.5133   18.5801 C   0  0  0  0  0  0  0  0  0  0  0  0
    8.2290  -13.9197   19.0547 C   0  0  0  0  0  0  0  0  0  0  0  0
    7.9577  -14.0355   20.5291 C   0  0  2  0  0  0  0  0  0  0  0  0
    8.7905  -13.0541   21.3268 C   0  0  0  0  0  0  0  0  0  0  0  0
    7.9983  -15.4159   21.0879 C   0  0  2  0  0  0  0  0  0  0  0  0
    6.9878  -16.2387   20.3733 N   0  0  0  0  0  0  0  0  0  0  0  0
    7.6831  -15.5521   22.5102 C   0  0  0  0  0  0  0  0  0  0  0  0
    6.4664  -15.6040   22.9257 O   0  0  0  0  0  0  0  0  0  0  0  0
    6.1844  -16.8237   24.2236 C   0  0  0  0  0  0  0  0  0  0  0  0
    7.4182  -17.0223   25.0432 C   0  0  1  0  0  0  0  0  0  0  0  0
    8.2990  -17.9556   24.4381 O   0  0  0  0  0  0  0  0  0  0  0  0
    8.2078  -15.6959   24.9910 C   0  0  2  0  0  0  0  0  0  0  0  0
    8.6209  -15.6434   23.5732 N   0  0  0  0  0  0  0  0  0  0  0  0
    9.3930  -15.8371   25.8688 C   0  0  0  0  0  0  0  0  0  0  0  0
   10.1635  -16.8109   25.6206 O   0  0  0  0  0  0  0  0  0  0  0  0
    9.6413  -14.9200   26.9293 N   0  0  0  0  0  0  0  0  0  0  0  0
    8.8881  -13.7470   27.2313 C   0  0  0  0  0  0  0  0  0  0  0  0
    9.0269  -13.6740   28.7614 C   0  0  0  0  0  0  0  0  0  0  0  0
   10.5260  -14.0080   28.8935 C   0  0  0  0  0  0  0  0  0  0  0  0
   10.7456  -15.0374   27.8197 C   0  0  1  0  0  0  0  0  0  0  0  0
   10.8169  -16.4062   28.3921 C   0  0  0  0  0  0  0  0  0  0  0  0
    9.7974  -17.1147   28.4156 O   0  0  0  0  0  0  0  0  0  0  0  0
   12.0029  -16.8824   28.8912 O   0  0  0  0  0  0  0  0  0  0  0  0
  1  2  1  0
  3  5  1  0
  3  2  1  0
  3  4  1  1
  5  7  1  0
  5  6  1  6
  7  8  2  0
 10 11  1  0
 10  9  1  6
 10 12  1  0
 12 13  1  6
 13  7  1  0
 14 12  1  0
 14 15  2  0
 16 20  1  0
 16 14  1  0
 17 16  1  0
 18 17  1  0
 18 19  1  0
 19 20  1  0
 20 21  1  1
 21 22  2  0
 21 23  1  0
M  END
$$$$
