ITP.pdb
     RDKit          3D

 23 23  0  0  1  0  0  0  0  0999 V2000
   13.5743  -19.8169   24.2555 C   0  0  0  0  0  0  0  0  0  0  0  0
   12.5898  -19.4608   23.1835 C   0  0  0  0  0  0  0  0  0  0  0  0
   11.9581  -18.1237   23.4550 C   0  0  2  0  0  0  0  0  0  0  0  0
   11.4295  -18.0352   24.8713 C   0  0  0  0  0  0  0  0  0  0  0  0
   10.9731  -17.6555   22.4403 C   0  0  2  0  0  0  0  0  0  0  0  0
   11.6663  -17.5522   21.1297 N   0  0  0  0  0  0  0  0  0  0  0  0
   10.3726  -16.3417   22.6733 C   0  0  0  0  0  0  0  0  0  0  0  0
   11.0843  -15.2697   22.6750 O   0  0  0  0  0  0  0  0  0  0  0  0
    7.7858  -14.2257   20.9679 C   0  0  0  0  0  0  0  0  0  0  0  0
    7.2702  -14.6050   22.3183 C   0  0  1  0  0  0  0  0  0  0  0  0
    6.7247  -15.9147   22.3168 O   0  0  0  0  0  0  0  0  0  0  0  0
    8.4978  -14.7273   23.2474 C   0  0  2  0  0  0  0  0  0  0  0  0
    8.9979  -16.0774   22.9145 N   0  0  0  0  0  0  0  0  0  0  0  0
    8.0148  -14.6869   24.6474 C   0  0  0  0  0  0  0  0  0  0  0  0
    7.6855  -15.7967   25.1608 O   0  0  0  0  0  0  0  0  0  0  0  0
    7.9315  -13.4604   25.3659 N   0  0  0  0  0  0  0  0  0  0  0  0
    8.4594  -12.1997   24.9578 C   0  0  0  0  0  0  0  0  0  0  0  0
    7.4424  -11.2232   25.5726 C   0  0  0  0  0  0  0  0  0  0  0  0
    7.2714  -11.8781   26.9576 C   0  0  0  0  0  0  0  0  0  0  0  0
    7.3344  -13.3494   26.6532 C   0  0  1  0  0  0  0  0  0  0  0  0
    5.9800  -13.9592   26.6596 C   0  0  0  0  0  0  0  0  0  0  0  0
    5.4292  -14.2402   25.5828 O   0  0  0  0  0  0  0  0  0  0  0  0
    5.3437  -14.2094   27.8491 O   0  0  0  0  0  0  0  0  0  0  0  0
  1  2  1  0
  3  5  1  0
  3  2  1  0
  3  4  1  1
  5  7  1  0
  5  6  1  6
  7  8  2  0
 10 11  1  0
 10  9  1  6
 10 12  1  0
 12 13  1  6
 13  7  1  0
 14 12  1  0
 14 15  2  0
 16 20  1  0
 16 14  1  0
 17 16  1  0
 18 17  1  0
 18 19  1  0
 19 20  1  0
 20 21  1  6
 21 22  2  0
 21 23  1  0
M  END
$$$$
