ITP.pdb
     RDKit          3D

 23 23  0  0  1  0  0  0  0  0999 V2000
    7.0370  -11.4497   27.2895 C   0  0  0  0  0  0  0  0  0  0  0  0
    6.2550  -12.6220   26.7799 C   0  0  0  0  0  0  0  0  0  0  0  0
    7.0973  -13.4799   25.8771 C   0  0  2  0  0  0  0  0  0  0  0  0
    7.7926  -12.6546   24.8148 C   0  0  0  0  0  0  0  0  0  0  0  0
    6.4264  -14.6889   25.3226 C   0  0  2  0  0  0  0  0  0  0  0  0
    5.9338  -15.5116   26.4580 N   0  0  0  0  0  0  0  0  0  0  0  0
    7.2587  -15.5845   24.5188 C   0  0  0  0  0  0  0  0  0  0  0  0
    7.9791  -16.5005   25.0644 O   0  0  0  0  0  0  0  0  0  0  0  0
    8.6361  -17.1893   20.0571 C   0  0  0  0  0  0  0  0  0  0  0  0
    7.7796  -16.3128   20.9123 C   0  0  1  0  0  0  0  0  0  0  0  0
    6.4272  -16.7416   20.9048 O   0  0  0  0  0  0  0  0  0  0  0  0
    8.2225  -16.5438   22.3737 C   0  0  2  0  0  0  0  0  0  0  0  0
    7.3812  -15.5727   23.1036 N   0  0  0  0  0  0  0  0  0  0  0  0
    9.6522  -16.1702   22.4803 C   0  0  0  0  0  0  0  0  0  0  0  0
    9.9960  -15.0934   21.9093 O   0  0  0  0  0  0  0  0  0  0  0  0
   10.5788  -16.9855   23.1903 N   0  0  0  0  0  0  0  0  0  0  0  0
   10.2795  -18.1765   23.9160 C   0  0  0  0  0  0  0  0  0  0  0  0
   11.5711  -18.9896   23.7250 C   0  0  0  0  0  0  0  0  0  0  0  0
   12.6074  -17.8704   23.9483 C   0  0  0  0  0  0  0  0  0  0  0  0
   11.9616  -16.6709   23.3117 C   0  0  1  0  0  0  0  0  0  0  0  0
   12.5546  -16.3828   21.9806 C   0  0  0  0  0  0  0  0  0  0  0  0
   11.9788  -16.7789   20.9543 O   0  0  0  0  0  0  0  0  0  0  0  0
   13.7313  -15.6832   21.8884 O   0  0  0  0  0  0  0  0  0  0  0  0
  1  2  1  0
  3  5  1  0
  3  2  1  0
  3  4  1  6
  5  7  1  0
  5  6  1  1
  7  8  2  0
 10 11  1  0
 10  9  1  6
 10 12  1  0
 12 13  1  1
 13  7  1  0
 14 12  1  0
 14 15  2  0
 16 20  1  0
 16 14  1  0
 17 16  1  0
 18 17  1  0
 18 19  1  0
 19 20  1  0
 20 21  1  6
 21 22  2  0
 21 23  1  0
M  END
$$$$
