ITP.pdb
     RDKit          3D

 23 23  0  0  1  0  0  0  0  0999 V2000
    8.7527  -11.6819   19.1628 C   0  0  0  0  0  0  0  0  0  0  0  0
    9.0534  -12.8188   20.0915 C   0  0  0  0  0  0  0  0  0  0  0  0
    8.6551  -14.1335   19.4801 C   0  0  2  0  0  0  0  0  0  0  0  0
    7.2577  -14.0765   18.8995 C   0  0  0  0  0  0  0  0  0  0  0  0
    8.8793  -15.3364   20.3298 C   0  0  2  0  0  0  0  0  0  0  0  0
    8.5194  -16.5412   19.5375 N   0  0  0  0  0  0  0  0  0  0  0  0
    8.0894  -15.4222   21.5584 C   0  0  0  0  0  0  0  0  0  0  0  0
    6.8918  -15.8928   21.5545 O   0  0  0  0  0  0  0  0  0  0  0  0
    6.4592  -16.9679   22.9844 C   0  0  0  0  0  0  0  0  0  0  0  0
    7.3425  -16.6086   24.1351 C   0  0  1  0  0  0  0  0  0  0  0  0
    8.6309  -17.1873   24.0013 O   0  0  0  0  0  0  0  0  0  0  0  0
    7.6164  -15.0921   24.0319 C   0  0  2  0  0  0  0  0  0  0  0  0
    8.5085  -15.0236   22.8558 N   0  0  0  0  0  0  0  0  0  0  0  0
    8.3422  -14.6765   25.2548 C   0  0  0  0  0  0  0  0  0  0  0  0
    9.4161  -15.2973   25.5094 O   0  0  0  0  0  0  0  0  0  0  0  0
    7.8489  -13.6334   26.0890 N   0  0  0  0  0  0  0  0  0  0  0  0
    6.6859  -12.8403   25.8588 C   0  0  0  0  0  0  0  0  0  0  0  0
    6.2115  -12.5603   27.2950 C   0  0  0  0  0  0  0  0  0  0  0  0
    7.5703  -12.2449   27.9510 C   0  0  0  0  0  0  0  0  0  0  0  0
    8.5109  -13.2024   27.2731 C   0  0  1  0  0  0  0  0  0  0  0  0
    8.8267  -14.3589   28.1501 C   0  0  0  0  0  0  0  0  0  0  0  0
    8.1994  -15.4217   28.0129 O   0  0  0  0  0  0  0  0  0  0  0  0
    9.8058  -14.2510   29.1052 O   0  0  0  0  0  0  0  0  0  0  0  0
  1  2  1  0
  3  5  1  0
  3  2  1  0
  3  4  1  1
  5  7  1  0
  5  6  1  6
  7  8  2  0
 10 11  1  0
 10  9  1  6
 10 12  1  0
 12 13  1  6
 13  7  1  0
 14 12  1  0
 14 15  2  0
 16 20  1  0
 16 14  1  0
 17 16  1  0
 18 17  1  0
 18 19  1  0
 19 20  1  0
 20 21  1  1
 21 22  2  0
 21 23  1  0
M  END
$$$$
