ITP.pdb
     RDKit          3D

 23 23  0  0  1  0  0  0  0  0999 V2000
    5.8366  -10.3690   26.4221 C   0  0  0  0  0  0  0  0  0  0  0  0
    5.3659  -11.6804   25.8707 C   0  0  0  0  0  0  0  0  0  0  0  0
    6.4771  -12.6933   25.8677 C   0  0  2  0  0  0  0  0  0  0  0  0
    7.7561  -12.1146   25.2999 C   0  0  0  0  0  0  0  0  0  0  0  0
    6.1381  -14.0237   25.2894 C   0  0  2  0  0  0  0  0  0  0  0  0
    4.8858  -14.5052   25.9285 N   0  0  0  0  0  0  0  0  0  0  0  0
    7.1190  -15.0905   25.4910 C   0  0  0  0  0  0  0  0  0  0  0  0
    7.0921  -15.8372   26.5386 O   0  0  0  0  0  0  0  0  0  0  0  0
    8.1246  -17.6563   22.9141 C   0  0  0  0  0  0  0  0  0  0  0  0
    9.3932  -17.0708   23.4443 C   0  0  1  0  0  0  0  0  0  0  0  0
    9.7512  -15.8889   22.7460 O   0  0  0  0  0  0  0  0  0  0  0  0
    9.0905  -16.5674   24.8727 C   0  0  2  0  0  0  0  0  0  0  0  0
    8.1780  -15.4354   24.6093 N   0  0  0  0  0  0  0  0  0  0  0  0
   10.3596  -16.0806   25.4621 C   0  0  0  0  0  0  0  0  0  0  0  0
   11.3637  -16.0539   24.6910 O   0  0  0  0  0  0  0  0  0  0  0  0
   10.4325  -15.6668   26.8225 N   0  0  0  0  0  0  0  0  0  0  0  0
    9.3314  -15.3889   27.6856 C   0  0  0  0  0  0  0  0  0  0  0  0
    9.8927  -15.8156   29.0527 C   0  0  0  0  0  0  0  0  0  0  0  0
   11.3058  -15.2092   28.9440 C   0  0  0  0  0  0  0  0  0  0  0  0
   11.6607  -15.4193   27.4980 C   0  0  1  0  0  0  0  0  0  0  0  0
   12.5922  -16.5644   27.3329 C   0  0  0  0  0  0  0  0  0  0  0  0
   13.8028  -16.4076   27.5606 O   0  0  0  0  0  0  0  0  0  0  0  0
   12.1157  -17.7868   26.9314 O   0  0  0  0  0  0  0  0  0  0  0  0
  1  2  1  0
  3  5  1  0
  3  2  1  0
  3  4  1  6
  5  7  1  0
  5  6  1  1
  7  8  2  0
 10 11  1  0
 10  9  1  6
 10 12  1  0
 12 13  1  6
 13  7  1  0
 14 12  1  0
 14 15  2  0
 16 20  1  0
 16 14  1  0
 17 16  1  0
 18 17  1  0
 18 19  1  0
 19 20  1  0
 20 21  1  1
 21 22  2  0
 21 23  1  0
M  END
$$$$
