ITP.pdb
     RDKit          3D

 23 23  0  0  1  0  0  0  0  0999 V2000
    6.9569  -11.0688   27.6045 C   0  0  0  0  0  0  0  0  0  0  0  0
    6.1147  -11.9335   26.7167 C   0  0  0  0  0  0  0  0  0  0  0  0
    6.9361  -13.0290   26.0954 C   0  0  2  0  0  0  0  0  0  0  0  0
    8.2253  -12.4934   25.5088 C   0  0  0  0  0  0  0  0  0  0  0  0
    6.2081  -13.9333   25.1619 C   0  0  2  0  0  0  0  0  0  0  0  0
    5.0650  -14.5380   25.8942 N   0  0  0  0  0  0  0  0  0  0  0  0
    6.9693  -15.0594   24.6201 C   0  0  0  0  0  0  0  0  0  0  0  0
    7.2781  -16.0733   25.3498 O   0  0  0  0  0  0  0  0  0  0  0  0
    6.8434  -16.2462   20.8822 C   0  0  0  0  0  0  0  0  0  0  0  0
    8.2705  -16.1589   21.3171 C   0  0  1  0  0  0  0  0  0  0  0  0
    8.7937  -14.8545   21.1229 O   0  0  0  0  0  0  0  0  0  0  0  0
    8.2811  -16.3262   22.8524 C   0  0  2  0  0  0  0  0  0  0  0  0
    7.4461  -15.1876   23.2882 N   0  0  0  0  0  0  0  0  0  0  0  0
    9.6761  -16.1515   23.3196 C   0  0  0  0  0  0  0  0  0  0  0  0
   10.2211  -15.0386   23.0588 O   0  0  0  0  0  0  0  0  0  0  0  0
   10.3553  -17.1860   24.0237 N   0  0  0  0  0  0  0  0  0  0  0  0
    9.7703  -18.3660   24.5713 C   0  0  0  0  0  0  0  0  0  0  0  0
   10.9183  -19.3792   24.4240 C   0  0  0  0  0  0  0  0  0  0  0  0
   12.0942  -18.4941   24.8827 C   0  0  0  0  0  0  0  0  0  0  0  0
   11.7458  -17.1419   24.3250 C   0  0  1  0  0  0  0  0  0  0  0  0
   12.5392  -16.8414   23.1058 C   0  0  0  0  0  0  0  0  0  0  0  0
   11.9983  -16.9096   21.9901 O   0  0  0  0  0  0  0  0  0  0  0  0
   13.8612  -16.4909   23.2141 O   0  0  0  0  0  0  0  0  0  0  0  0
  1  2  1  0
  3  5  1  0
  3  2  1  0
  3  4  1  6
  5  7  1  0
  5  6  1  1
  7  8  2  0
 10 11  1  0
 10  9  1  1
 10 12  1  0
 12 13  1  1
 13  7  1  0
 14 12  1  0
 14 15  2  0
 16 20  1  0
 16 14  1  0
 17 16  1  0
 18 17  1  0
 18 19  1  0
 19 20  1  0
 20 21  1  6
 21 22  2  0
 21 23  1  0
M  END
$$$$
