HEK.pdb
     RDKit          3D

 29 29  0  0  1  0  0  0  0  0999 V2000
    8.3302  -16.8666   18.1574 N   0  0  0  0  0  0  0  0  0  0  0  0
    9.5454  -16.1128   18.3257 C   0  0  1  0  0  0  0  0  0  0  0  0
    9.1835  -14.7225   18.7382 C   0  0  0  0  0  0  0  0  0  0  0  0
    8.3696  -14.1070   17.6586 C   0  0  0  0  0  0  0  0  0  0  0  0
    7.0841  -13.6094   17.7288 C   0  0  0  0  0  0  0  0  0  0  0  0
    6.6916  -13.1335   16.5303 N   0  0  0  0  0  0  0  0  0  0  0  0
    7.7108  -13.3229   15.7016 C   0  0  0  0  0  0  0  0  0  0  0  0
    8.7361  -13.9091   16.3587 N   0  0  0  0  0  0  0  0  0  0  0  0
   10.5099  -16.7638   19.2361 C   0  0  0  0  0  0  0  0  0  0  0  0
   10.0648  -17.6030   20.0613 O   0  0  0  0  0  0  0  0  0  0  0  0
   11.8930  -16.5183   19.2528 N   0  0  0  0  0  0  0  0  0  0  0  0
   12.8519  -17.2440   20.1015 C   0  0  1  0  0  0  0  0  0  0  0  0
   14.1262  -17.4830   19.3554 C   0  0  0  0  0  0  0  0  0  0  0  0
   15.1059  -18.2238   20.2170 C   0  0  0  0  0  0  0  0  0  0  0  0
   16.4092  -18.4219   19.4955 C   0  0  0  0  0  0  0  0  0  0  0  0
   16.8912  -17.5741   18.7095 O   0  0  0  0  0  0  0  0  0  0  0  0
   12.9910  -16.6069   21.4038 C   0  0  0  0  0  0  0  0  0  0  0  0
   13.3538  -15.4217   21.5277 O   0  0  0  0  0  0  0  0  0  0  0  0
   17.0887  -19.5985   19.7244 O   0  0  0  0  0  0  0  0  0  0  0  0
   12.7228  -17.2890   22.6326 N   0  0  0  0  0  0  0  0  0  0  0  0
   12.9120  -16.6836   23.9322 C   0  0  1  0  0  0  0  0  0  0  0  0
   12.3279  -17.5436   25.0412 C   0  0  0  0  0  0  0  0  0  0  0  0
   12.5343  -16.9580   26.3857 C   0  0  0  0  0  0  0  0  0  0  0  0
   12.0979  -17.8410   27.5126 C   0  0  0  0  0  0  0  0  0  0  0  0
   12.1375  -17.2165   28.8771 C   0  0  0  0  0  0  0  0  0  0  0  0
   11.7937  -18.0820   29.9533 N   0  0  0  0  0  0  0  0  0  0  0  0
   14.3530  -16.4738   24.2105 C   0  0  0  0  0  0  0  0  0  0  0  0
   14.8168  -15.3869   24.9325 O   0  0  0  0  0  0  0  0  0  0  0  0
   15.1956  -17.3004   23.7845 O   0  0  0  0  0  0  0  0  0  0  0  0
  2  1  1  1
  3  2  1  0
  4  3  1  0
  4  8  1  0
  5  6  1  0
  5  4  2  0
  6  7  1  0
  7  8  2  0
  9 10  2  0
  9  2  1  0
 11  9  1  0
 12 11  1  0
 12 13  1  6
 14 13  1  0
 15 14  1  0
 16 15  2  0
 17 12  1  0
 18 17  2  0
 19 15  1  0
 20 17  1  0
 21 27  1  0
 21 20  1  0
 21 22  1  1
 23 22  1  0
 24 23  1  0
 25 24  1  0
 26 25  1  0
 27 28  1  0
 29 27  2  0
M  END
$$$$
