HEK.pdb
     RDKit          3D

 29 29  0  0  1  0  0  0  0  0999 V2000
    8.6154  -17.4651   19.2464 N   0  0  0  0  0  0  0  0  0  0  0  0
    8.9019  -16.4359   20.2118 C   0  0  1  0  0  0  0  0  0  0  0  0
    7.7355  -15.5028   20.2648 C   0  0  0  0  0  0  0  0  0  0  0  0
    7.9405  -14.4336   19.2541 C   0  0  0  0  0  0  0  0  0  0  0  0
    8.9553  -14.3106   18.3267 C   0  0  0  0  0  0  0  0  0  0  0  0
    8.7908  -13.1966   17.5859 N   0  0  0  0  0  0  0  0  0  0  0  0
    7.6858  -12.6120   18.0312 C   0  0  0  0  0  0  0  0  0  0  0  0
    7.1536  -13.3393   19.0384 N   0  0  0  0  0  0  0  0  0  0  0  0
    9.2865  -16.9720   21.5337 C   0  0  0  0  0  0  0  0  0  0  0  0
    8.3741  -17.4258   22.2720 O   0  0  0  0  0  0  0  0  0  0  0  0
   10.5985  -17.0155   22.0340 N   0  0  0  0  0  0  0  0  0  0  0  0
   10.9624  -17.5500   23.3563 C   0  0  1  0  0  0  0  0  0  0  0  0
   12.3075  -18.2020   23.2989 C   0  0  0  0  0  0  0  0  0  0  0  0
   12.2291  -19.4980   22.5472 C   0  0  0  0  0  0  0  0  0  0  0  0
   13.5766  -20.1602   22.4816 C   0  0  0  0  0  0  0  0  0  0  0  0
   13.9814  -20.9732   23.3440 O   0  0  0  0  0  0  0  0  0  0  0  0
   10.7898  -16.5458   24.3969 C   0  0  0  0  0  0  0  0  0  0  0  0
   11.5166  -15.5371   24.4732 O   0  0  0  0  0  0  0  0  0  0  0  0
   14.3880  -19.8433   21.4139 O   0  0  0  0  0  0  0  0  0  0  0  0
    9.7781  -16.6400   25.4043 N   0  0  0  0  0  0  0  0  0  0  0  0
    9.7177  -15.7606   26.5508 C   0  0  1  0  0  0  0  0  0  0  0  0
    8.3074  -15.2453   26.7877 C   0  0  0  0  0  0  0  0  0  0  0  0
    8.2425  -13.7669   26.8452 C   0  0  0  0  0  0  0  0  0  0  0  0
    6.8734  -13.2231   27.1094 C   0  0  0  0  0  0  0  0  0  0  0  0
    6.7826  -11.7297   27.2325 C   0  0  0  0  0  0  0  0  0  0  0  0
    5.4720  -11.2140   27.4368 N   0  0  0  0  0  0  0  0  0  0  0  0
   10.1738  -16.4603   27.7757 C   0  0  0  0  0  0  0  0  0  0  0  0
   10.5180  -17.8018   27.7770 O   0  0  0  0  0  0  0  0  0  0  0  0
   10.2566  -15.8302   28.8577 O   0  0  0  0  0  0  0  0  0  0  0  0
  2  1  1  6
  3  2  1  0
  4  3  1  0
  4  8  1  0
  5  6  1  0
  5  4  2  0
  6  7  1  0
  7  8  2  0
  9 10  2  0
  9  2  1  0
 11  9  1  0
 12 11  1  0
 12 13  1  6
 14 13  1  0
 15 14  1  0
 16 15  2  0
 17 12  1  0
 18 17  2  0
 19 15  1  0
 20 17  1  0
 21 27  1  0
 21 20  1  0
 21 22  1  1
 23 22  1  0
 24 23  1  0
 25 24  1  0
 26 25  1  0
 27 28  1  0
 29 27  2  0
M  END
$$$$
