HEK.pdb
     RDKit          3D

 29 29  0  0  1  0  0  0  0  0999 V2000
    8.5578  -17.1012   18.7723 N   0  0  0  0  0  0  0  0  0  0  0  0
    8.8576  -16.0685   19.7300 C   0  0  1  0  0  0  0  0  0  0  0  0
    7.8219  -14.9979   19.6071 C   0  0  0  0  0  0  0  0  0  0  0  0
    7.9357  -14.3839   18.2592 C   0  0  0  0  0  0  0  0  0  0  0  0
    8.5386  -13.1940   17.9048 C   0  0  0  0  0  0  0  0  0  0  0  0
    8.4300  -12.9818   16.5782 N   0  0  0  0  0  0  0  0  0  0  0  0
    7.7666  -14.0210   16.0870 C   0  0  0  0  0  0  0  0  0  0  0  0
    7.4568  -14.8817   17.0819 N   0  0  0  0  0  0  0  0  0  0  0  0
    9.0120  -16.5819   21.1067 C   0  0  0  0  0  0  0  0  0  0  0  0
    7.9676  -16.7891   21.7773 O   0  0  0  0  0  0  0  0  0  0  0  0
   10.2404  -16.8586   21.7295 N   0  0  0  0  0  0  0  0  0  0  0  0
   10.3809  -17.2700   23.1358 C   0  0  1  0  0  0  0  0  0  0  0  0
   11.6017  -18.1171   23.3080 C   0  0  0  0  0  0  0  0  0  0  0  0
   11.7530  -18.5314   24.7420 C   0  0  0  0  0  0  0  0  0  0  0  0
   13.0476  -19.2650   24.9526 C   0  0  0  0  0  0  0  0  0  0  0  0
   14.1408  -18.8704   24.4858 O   0  0  0  0  0  0  0  0  0  0  0  0
   10.2715  -16.1279   24.0329 C   0  0  0  0  0  0  0  0  0  0  0  0
   11.0022  -15.1251   23.9231 O   0  0  0  0  0  0  0  0  0  0  0  0
   13.0064  -20.4235   25.6975 O   0  0  0  0  0  0  0  0  0  0  0  0
    9.3220  -16.0705   25.1017 N   0  0  0  0  0  0  0  0  0  0  0  0
    9.1147  -14.8925   25.9146 C   0  0  1  0  0  0  0  0  0  0  0  0
    7.7255  -14.3098   25.7124 C   0  0  0  0  0  0  0  0  0  0  0  0
    7.4772  -13.1203   26.5591 C   0  0  0  0  0  0  0  0  0  0  0  0
    6.1033  -12.5435   26.4183 C   0  0  0  0  0  0  0  0  0  0  0  0
    5.8627  -11.2572   27.1539 C   0  0  0  0  0  0  0  0  0  0  0  0
    4.5360  -10.7484   27.0732 N   0  0  0  0  0  0  0  0  0  0  0  0
    9.2865  -15.2084   27.3529 C   0  0  0  0  0  0  0  0  0  0  0  0
    9.5177  -16.4968   27.8052 O   0  0  0  0  0  0  0  0  0  0  0  0
    9.2232  -14.2883   28.2038 O   0  0  0  0  0  0  0  0  0  0  0  0
  2  1  1  6
  3  2  1  0
  4  3  1  0
  4  8  1  0
  5  6  1  0
  5  4  2  0
  6  7  1  0
  7  8  2  0
  9 10  2  0
  9  2  1  0
 11  9  1  0
 12 11  1  0
 12 13  1  6
 14 13  1  0
 15 14  1  0
 16 15  2  0
 17 12  1  0
 18 17  2  0
 19 15  1  0
 20 17  1  0
 21 27  1  0
 21 20  1  0
 21 22  1  1
 23 22  1  0
 24 23  1  0
 25 24  1  0
 26 25  1  0
 27 28  1  0
 29 27  2  0
M  END
$$$$
