HEK.pdb
     RDKit          3D

 29 29  0  0  1  0  0  0  0  0999 V2000
   10.0440  -15.8036   18.0352 N   0  0  0  0  0  0  0  0  0  0  0  0
    8.9841  -15.2086   18.8073 C   0  0  1  0  0  0  0  0  0  0  0  0
    7.7057  -15.3624   18.0485 C   0  0  0  0  0  0  0  0  0  0  0  0
    7.9064  -14.8352   16.6743 C   0  0  0  0  0  0  0  0  0  0  0  0
    8.1125  -13.5298   16.2761 C   0  0  0  0  0  0  0  0  0  0  0  0
    8.2496  -13.4564   14.9372 N   0  0  0  0  0  0  0  0  0  0  0  0
    8.1330  -14.6974   14.4815 C   0  0  0  0  0  0  0  0  0  0  0  0
    7.9253  -15.5485   15.5107 N   0  0  0  0  0  0  0  0  0  0  0  0
    8.9133  -15.7255   20.1895 C   0  0  0  0  0  0  0  0  0  0  0  0
    7.8824  -15.4650   20.8624 O   0  0  0  0  0  0  0  0  0  0  0  0
    9.9123  -16.4897   20.8153 N   0  0  0  0  0  0  0  0  0  0  0  0
    9.7965  -17.0522   22.1706 C   0  0  1  0  0  0  0  0  0  0  0  0
   10.7650  -18.1782   22.3483 C   0  0  0  0  0  0  0  0  0  0  0  0
   10.4294  -19.3084   21.4204 C   0  0  0  0  0  0  0  0  0  0  0  0
   11.4141  -20.4337   21.5705 C   0  0  0  0  0  0  0  0  0  0  0  0
   12.4018  -20.3798   22.3388 O   0  0  0  0  0  0  0  0  0  0  0  0
    9.8500  -16.0058   23.1822 C   0  0  0  0  0  0  0  0  0  0  0  0
   10.8517  -15.2817   23.3360 O   0  0  0  0  0  0  0  0  0  0  0  0
   11.2008  -21.5681   20.8181 O   0  0  0  0  0  0  0  0  0  0  0  0
    8.7627  -15.7310   24.0708 N   0  0  0  0  0  0  0  0  0  0  0  0
    8.7940  -14.6743   25.0575 C   0  0  1  0  0  0  0  0  0  0  0  0
    7.4616  -13.9476   25.1424 C   0  0  0  0  0  0  0  0  0  0  0  0
    7.4431  -12.9121   26.2010 C   0  0  0  0  0  0  0  0  0  0  0  0
    6.1142  -12.2495   26.3874 C   0  0  0  0  0  0  0  0  0  0  0  0
    6.0771  -11.1483   27.4070 C   0  0  0  0  0  0  0  0  0  0  0  0
    4.8059  -10.5376   27.5980 N   0  0  0  0  0  0  0  0  0  0  0  0
    9.1196  -15.2157   26.3987 C   0  0  0  0  0  0  0  0  0  0  0  0
    9.6116  -14.4190   27.4190 O   0  0  0  0  0  0  0  0  0  0  0  0
    8.9495  -16.4363   26.6349 O   0  0  0  0  0  0  0  0  0  0  0  0
  2  1  1  6
  3  2  1  0
  4  3  1  0
  4  8  1  0
  5  6  1  0
  5  4  2  0
  6  7  1  0
  7  8  2  0
  9 10  2  0
  9  2  1  0
 11  9  1  0
 12 11  1  0
 12 13  1  1
 14 13  1  0
 15 14  1  0
 16 15  2  0
 17 12  1  0
 18 17  2  0
 19 15  1  0
 20 17  1  0
 21 27  1  0
 21 20  1  0
 21 22  1  1
 23 22  1  0
 24 23  1  0
 25 24  1  0
 26 25  1  0
 27 28  1  0
 29 27  2  0
M  END
$$$$
