CFW.pdb
     RDKit          3D

 32 34  0  0  1  0  0  0  0  0999 V2000
    5.2554  -19.5005   22.3168 N   0  0  0  0  0  0  0  0  0  0  0  0
    5.9743  -18.8111   23.3456 C   0  0  1  0  0  0  0  0  0  0  0  0
    6.6929  -19.7761   24.2571 C   0  0  0  0  0  0  0  0  0  0  0  0
    7.3561  -18.8278   25.6616 S   0  0  0  0  0  0  0  0  0  0  0  0
    6.8625  -17.8092   22.7455 C   0  0  0  0  0  0  0  0  0  0  0  0
    7.4558  -18.0725   21.6723 O   0  0  0  0  0  0  0  0  0  0  0  0
    7.1003  -16.5248   23.3177 N   0  0  0  0  0  0  0  0  0  0  0  0
    7.9228  -15.5163   22.6541 C   0  0  1  0  0  0  0  0  0  0  0  0
    7.3513  -14.1426   22.8044 C   0  0  0  0  0  0  0  0  0  0  0  0
    7.1902  -13.7465   24.2318 C   0  0  0  0  0  0  0  0  0  0  0  0
    7.0507  -14.7122   25.2106 C   0  0  0  0  0  0  0  0  0  0  0  0
    6.9012  -14.3814   26.5418 C   0  0  0  0  0  0  0  0  0  0  0  0
    6.8839  -13.0665   26.9574 C   0  0  0  0  0  0  0  0  0  0  0  0
    7.0225  -12.0964   25.9858 C   0  0  0  0  0  0  0  0  0  0  0  0
    7.1719  -12.4341   24.6548 C   0  0  0  0  0  0  0  0  0  0  0  0
    9.3123  -15.6101   23.1870 C   0  0  0  0  0  0  0  0  0  0  0  0
   10.0536  -14.5895   23.1604 O   0  0  0  0  0  0  0  0  0  0  0  0
    9.8333  -16.7966   23.7209 N   0  0  0  0  0  0  0  0  0  0  0  0
   11.2852  -16.9955   23.9598 C   0  0  1  0  0  0  0  0  0  0  0  0
   11.6166  -16.0325   25.0611 C   0  0  0  0  0  0  0  0  0  0  0  0
   11.0076  -16.2707   26.3661 C   0  0  0  0  0  0  0  0  0  0  0  0
   10.6990  -17.5406   26.8554 C   0  0  0  0  0  0  0  0  0  0  0  0
   10.1213  -17.3899   28.0547 N   0  0  0  0  0  0  0  0  0  0  0  0
   10.0523  -16.0906   28.3433 C   0  0  0  0  0  0  0  0  0  0  0  0
    9.5735  -15.3907   29.4391 C   0  0  0  0  0  0  0  0  0  0  0  0
    9.6207  -14.0223   29.5359 C   0  0  0  0  0  0  0  0  0  0  0  0
   10.1776  -13.3291   28.4763 C   0  0  0  0  0  0  0  0  0  0  0  0
   10.6619  -13.9700   27.3759 C   0  0  0  0  0  0  0  0  0  0  0  0
   10.6001  -15.3541   27.3052 C   0  0  0  0  0  0  0  0  0  0  0  0
   11.5588  -18.3760   24.3501 C   0  0  0  0  0  0  0  0  0  0  0  0
   12.7848  -18.7126   24.5138 O   0  0  0  0  0  0  0  0  0  0  0  0
   10.6432  -19.3641   24.5695 O   0  0  0  0  0  0  0  0  0  0  0  0
  2  1  1  6
  3  2  1  0
  4  3  1  0
  5  2  1  0
  6  5  2  0
  7  5  1  0
  8  7  1  0
  8  9  1  1
 10  9  1  0
 11 10  2  0
 12 11  1  0
 13 12  2  0
 13 14  1  0
 14 15  2  0
 15 10  1  0
 16 18  1  0
 16  8  1  0
 17 16  2  0
 19 18  1  0
 19 30  1  0
 19 20  1  1
 21 22  2  0
 21 20  1  0
 23 22  1  0
 24 29  2  0
 24 23  1  0
 25 24  1  0
 26 27  1  0
 26 25  2  0
 27 28  2  0
 28 29  1  0
 29 21  1  0
 30 32  1  0
 31 30  2  0
M  END
$$$$
