CFW.pdb
     RDKit          3D

 32 34  0  0  1  0  0  0  0  0999 V2000
    8.1205  -19.1592   20.0225 N   0  0  0  0  0  0  0  0  0  0  0  0
    8.7107  -18.0279   19.3727 C   0  0  1  0  0  0  0  0  0  0  0  0
    8.0605  -17.7580   18.0375 C   0  0  0  0  0  0  0  0  0  0  0  0
    7.7010  -19.3625   17.2579 S   0  0  0  0  0  0  0  0  0  0  0  0
    8.6885  -16.8697   20.2734 C   0  0  0  0  0  0  0  0  0  0  0  0
    9.2934  -15.8206   19.9466 O   0  0  0  0  0  0  0  0  0  0  0  0
    8.0073  -16.8601   21.5262 N   0  0  0  0  0  0  0  0  0  0  0  0
    8.0795  -15.7256   22.4436 C   0  0  1  0  0  0  0  0  0  0  0  0
    6.9984  -15.7725   23.4757 C   0  0  0  0  0  0  0  0  0  0  0  0
    6.9913  -14.5642   24.3476 C   0  0  0  0  0  0  0  0  0  0  0  0
    7.4162  -13.3460   23.8523 C   0  0  0  0  0  0  0  0  0  0  0  0
    7.4215  -12.2068   24.6308 C   0  0  0  0  0  0  0  0  0  0  0  0
    7.0013  -12.2327   25.9441 C   0  0  0  0  0  0  0  0  0  0  0  0
    6.5757  -13.4456   26.4460 C   0  0  0  0  0  0  0  0  0  0  0  0
    6.5727  -14.5824   25.6615 C   0  0  0  0  0  0  0  0  0  0  0  0
    9.4399  -15.6931   23.0534 C   0  0  0  0  0  0  0  0  0  0  0  0
   10.1536  -14.6619   22.9151 O   0  0  0  0  0  0  0  0  0  0  0  0
    9.9629  -16.7712   23.7804 N   0  0  0  0  0  0  0  0  0  0  0  0
   11.3720  -16.8119   24.2468 C   0  0  1  0  0  0  0  0  0  0  0  0
   11.4469  -15.7454   25.2989 C   0  0  0  0  0  0  0  0  0  0  0  0
   11.0694  -16.1175   26.6590 C   0  0  0  0  0  0  0  0  0  0  0  0
   11.0377  -17.4341   27.1201 C   0  0  0  0  0  0  0  0  0  0  0  0
   10.6143  -17.4145   28.3910 N   0  0  0  0  0  0  0  0  0  0  0  0
   10.3794  -16.1531   28.7511 C   0  0  0  0  0  0  0  0  0  0  0  0
    9.9508  -15.5728   29.9341 C   0  0  0  0  0  0  0  0  0  0  0  0
    9.7921  -14.2186   30.0926 C   0  0  0  0  0  0  0  0  0  0  0  0
   10.0799  -13.4135   29.0052 C   0  0  0  0  0  0  0  0  0  0  0  0
   10.5038  -13.9346   27.8199 C   0  0  0  0  0  0  0  0  0  0  0  0
   10.6544  -15.3073   27.6884 C   0  0  0  0  0  0  0  0  0  0  0  0
   11.6973  -18.1284   24.7893 C   0  0  0  0  0  0  0  0  0  0  0  0
   10.7309  -18.9531   24.9601 O   0  0  0  0  0  0  0  0  0  0  0  0
   12.9335  -18.5910   25.1361 O   0  0  0  0  0  0  0  0  0  0  0  0
  2  1  1  1
  3  2  1  0
  4  3  1  0
  5  2  1  0
  6  5  2  0
  7  5  1  0
  8  7  1  0
  8  9  1  1
 10  9  1  0
 11 10  2  0
 12 11  1  0
 13 12  2  0
 13 14  1  0
 14 15  2  0
 15 10  1  0
 16 18  1  0
 16  8  1  0
 17 16  2  0
 19 18  1  0
 19 30  1  0
 19 20  1  1
 21 22  2  0
 21 20  1  0
 23 22  1  0
 24 29  2  0
 24 23  1  0
 25 24  1  0
 26 27  1  0
 26 25  2  0
 27 28  2  0
 28 29  1  0
 29 21  1  0
 30 32  1  0
 31 30  2  0
M  END
$$$$
