CFW.pdb
     RDKit          3D

 32 34  0  0  1  0  0  0  0  0999 V2000
    8.4661  -19.1453   19.4523 N   0  0  0  0  0  0  0  0  0  0  0  0
    8.1052  -18.7365   20.7764 C   0  0  1  0  0  0  0  0  0  0  0  0
    8.1276  -19.9001   21.7376 C   0  0  0  0  0  0  0  0  0  0  0  0
    7.4217  -19.3329   23.3161 S   0  0  0  0  0  0  0  0  0  0  0  0
    8.9547  -17.6177   21.2001 C   0  0  0  0  0  0  0  0  0  0  0  0
   10.1465  -17.5649   20.8126 O   0  0  0  0  0  0  0  0  0  0  0  0
    8.5017  -16.5615   22.0443 N   0  0  0  0  0  0  0  0  0  0  0  0
    9.3568  -15.4349   22.4099 C   0  0  1  0  0  0  0  0  0  0  0  0
    8.5837  -14.1596   22.5193 C   0  0  0  0  0  0  0  0  0  0  0  0
    8.0092  -13.7288   21.2137 C   0  0  0  0  0  0  0  0  0  0  0  0
    8.7496  -12.9397   20.3539 C   0  0  0  0  0  0  0  0  0  0  0  0
    8.2498  -12.5239   19.1369 C   0  0  0  0  0  0  0  0  0  0  0  0
    6.9834  -12.8785   18.7218 C   0  0  0  0  0  0  0  0  0  0  0  0
    6.2378  -13.6663   19.5749 C   0  0  0  0  0  0  0  0  0  0  0  0
    6.7439  -14.0793   20.7919 C   0  0  0  0  0  0  0  0  0  0  0  0
   10.0712  -15.7712   23.6749 C   0  0  0  0  0  0  0  0  0  0  0  0
   11.1366  -15.1599   23.9631 O   0  0  0  0  0  0  0  0  0  0  0  0
    9.6034  -16.7477   24.5647 N   0  0  0  0  0  0  0  0  0  0  0  0
   10.2755  -17.0398   25.8561 C   0  0  1  0  0  0  0  0  0  0  0  0
    9.8635  -15.9110   26.7540 C   0  0  0  0  0  0  0  0  0  0  0  0
    8.5003  -15.4076   26.6159 C   0  0  0  0  0  0  0  0  0  0  0  0
    7.4216  -16.1964   26.2144 C   0  0  0  0  0  0  0  0  0  0  0  0
    6.3371  -15.4119   26.1581 N   0  0  0  0  0  0  0  0  0  0  0  0
    6.6799  -14.1715   26.5045 C   0  0  0  0  0  0  0  0  0  0  0  0
    5.9618  -12.9931   26.6295 C   0  0  0  0  0  0  0  0  0  0  0  0
    6.5268  -11.8074   27.0283 C   0  0  0  0  0  0  0  0  0  0  0  0
    7.8802  -11.8128   27.3142 C   0  0  0  0  0  0  0  0  0  0  0  0
    8.6310  -12.9445   27.2064 C   0  0  0  0  0  0  0  0  0  0  0  0
    8.0332  -14.1286   26.8001 C   0  0  0  0  0  0  0  0  0  0  0  0
    9.8428  -18.3321   26.3814 C   0  0  0  0  0  0  0  0  0  0  0  0
   10.3829  -18.7388   27.4705 O   0  0  0  0  0  0  0  0  0  0  0  0
    8.9100  -19.1680   25.8395 O   0  0  0  0  0  0  0  0  0  0  0  0
  2  1  1  6
  3  2  1  0
  4  3  1  0
  5  2  1  0
  6  5  2  0
  7  5  1  0
  8  7  1  0
  8  9  1  1
 10  9  1  0
 11 10  2  0
 12 11  1  0
 13 12  2  0
 13 14  1  0
 14 15  2  0
 15 10  1  0
 16 18  1  0
 16  8  1  0
 17 16  2  0
 19 18  1  0
 19 30  1  0
 19 20  1  1
 21 22  2  0
 21 20  1  0
 23 22  1  0
 24 29  2  0
 24 23  1  0
 25 24  1  0
 26 27  1  0
 26 25  2  0
 27 28  2  0
 28 29  1  0
 29 21  1  0
 30 32  1  0
 31 30  2  0
M  END
$$$$
