CFW.pdb
     RDKit          3D

 32 34  0  0  1  0  0  0  0  0999 V2000
    8.6921  -17.3497   18.3758 N   0  0  0  0  0  0  0  0  0  0  0  0
    8.7822  -17.7491   19.7480 C   0  0  1  0  0  0  0  0  0  0  0  0
    9.9917  -18.6191   19.9904 C   0  0  0  0  0  0  0  0  0  0  0  0
    9.9729  -19.1256   21.7381 S   0  0  0  0  0  0  0  0  0  0  0  0
    8.7360  -16.5657   20.6142 C   0  0  0  0  0  0  0  0  0  0  0  0
    9.3768  -15.5371   20.2905 O   0  0  0  0  0  0  0  0  0  0  0  0
    7.9919  -16.5084   21.8293 N   0  0  0  0  0  0  0  0  0  0  0  0
    7.9701  -15.3169   22.6743 C   0  0  1  0  0  0  0  0  0  0  0  0
    6.6668  -15.1651   23.3917 C   0  0  0  0  0  0  0  0  0  0  0  0
    6.7035  -14.0827   24.4151 C   0  0  0  0  0  0  0  0  0  0  0  0
    6.3425  -14.3484   25.7225 C   0  0  0  0  0  0  0  0  0  0  0  0
    6.3662  -13.3708   26.6959 C   0  0  0  0  0  0  0  0  0  0  0  0
    6.7527  -12.0789   26.4069 C   0  0  0  0  0  0  0  0  0  0  0  0
    7.1144  -11.8057   25.1035 C   0  0  0  0  0  0  0  0  0  0  0  0
    7.0886  -12.7888   24.1336 C   0  0  0  0  0  0  0  0  0  0  0  0
    9.1267  -15.3789   23.6135 C   0  0  0  0  0  0  0  0  0  0  0  0
    9.4634  -14.3410   24.2469 O   0  0  0  0  0  0  0  0  0  0  0  0
    9.8617  -16.5536   23.8231 N   0  0  0  0  0  0  0  0  0  0  0  0
   11.1606  -16.5659   24.5425 C   0  0  1  0  0  0  0  0  0  0  0  0
   10.9071  -17.4132   25.7541 C   0  0  0  0  0  0  0  0  0  0  0  0
   10.1267  -16.8202   26.8358 C   0  0  0  0  0  0  0  0  0  0  0  0
    8.8528  -17.2576   27.2001 C   0  0  0  0  0  0  0  0  0  0  0  0
    8.4177  -16.4732   28.1952 N   0  0  0  0  0  0  0  0  0  0  0  0
    9.3537  -15.5665   28.4744 C   0  0  0  0  0  0  0  0  0  0  0  0
    9.4300  -14.5438   29.4061 C   0  0  0  0  0  0  0  0  0  0  0  0
   10.5233  -13.7238   29.5343 C   0  0  0  0  0  0  0  0  0  0  0  0
   11.5890  -13.9478   28.6813 C   0  0  0  0  0  0  0  0  0  0  0  0
   11.5635  -14.9395   27.7475 C   0  0  0  0  0  0  0  0  0  0  0  0
   10.4446  -15.7525   27.6402 C   0  0  0  0  0  0  0  0  0  0  0  0
   12.2111  -17.1308   23.6996 C   0  0  0  0  0  0  0  0  0  0  0  0
   13.4130  -17.0867   24.1430 O   0  0  0  0  0  0  0  0  0  0  0  0
   12.0567  -17.7149   22.4758 O   0  0  0  0  0  0  0  0  0  0  0  0
  2  1  1  6
  3  2  1  0
  4  3  1  0
  5  2  1  0
  6  5  2  0
  7  5  1  0
  8  7  1  0
  8  9  1  1
 10  9  1  0
 11 10  2  0
 12 11  1  0
 13 12  2  0
 13 14  1  0
 14 15  2  0
 15 10  1  0
 16 18  1  0
 16  8  1  0
 17 16  2  0
 19 18  1  0
 19 30  1  0
 19 20  1  1
 21 22  2  0
 21 20  1  0
 23 22  1  0
 24 29  2  0
 24 23  1  0
 25 24  1  0
 26 27  1  0
 26 25  2  0
 27 28  2  0
 28 29  1  0
 29 21  1  0
 30 32  1  0
 31 30  2  0
M  END
$$$$
