CFW.pdb
     RDKit          3D

 32 34  0  0  1  0  0  0  0  0999 V2000
    7.4207  -21.6709   21.9137 N   0  0  0  0  0  0  0  0  0  0  0  0
    7.1415  -20.5998   22.8221 C   0  0  1  0  0  0  0  0  0  0  0  0
    7.6783  -20.8934   24.2021 C   0  0  0  0  0  0  0  0  0  0  0  0
    7.0316  -19.6234   25.3337 S   0  0  0  0  0  0  0  0  0  0  0  0
    7.6337  -19.3346   22.2653 C   0  0  0  0  0  0  0  0  0  0  0  0
    8.7410  -19.3074   21.6767 O   0  0  0  0  0  0  0  0  0  0  0  0
    6.9172  -18.1048   22.3526 N   0  0  0  0  0  0  0  0  0  0  0  0
    7.4581  -16.8496   21.8368 C   0  0  1  0  0  0  0  0  0  0  0  0
    6.5518  -15.6938   22.1178 C   0  0  0  0  0  0  0  0  0  0  0  0
    7.0027  -14.4413   21.4484 C   0  0  0  0  0  0  0  0  0  0  0  0
    7.1614  -13.2794   22.1798 C   0  0  0  0  0  0  0  0  0  0  0  0
    7.5787  -12.1025   21.5928 C   0  0  0  0  0  0  0  0  0  0  0  0
    7.8573  -12.0322   20.2439 C   0  0  0  0  0  0  0  0  0  0  0  0
    7.7010  -13.1882   19.5069 C   0  0  0  0  0  0  0  0  0  0  0  0
    7.2830  -14.3633   20.1003 C   0  0  0  0  0  0  0  0  0  0  0  0
    8.8210  -16.6490   22.4078 C   0  0  0  0  0  0  0  0  0  0  0  0
    9.7259  -16.1500   21.6838 O   0  0  0  0  0  0  0  0  0  0  0  0
    9.1407  -16.9954   23.7276 N   0  0  0  0  0  0  0  0  0  0  0  0
   10.3833  -16.5333   24.3964 C   0  0  1  0  0  0  0  0  0  0  0  0
   10.0943  -15.1116   24.7775 C   0  0  0  0  0  0  0  0  0  0  0  0
    8.8294  -14.8426   25.4545 C   0  0  0  0  0  0  0  0  0  0  0  0
    8.0397  -15.8329   26.0398 C   0  0  0  0  0  0  0  0  0  0  0  0
    6.9414  -15.2450   26.5327 N   0  0  0  0  0  0  0  0  0  0  0  0
    7.0019  -13.9365   26.2873 C   0  0  0  0  0  0  0  0  0  0  0  0
    6.1575  -12.8794   26.5862 C   0  0  0  0  0  0  0  0  0  0  0  0
    6.4327  -11.5784   26.2462 C   0  0  0  0  0  0  0  0  0  0  0  0
    7.6162  -11.3342   25.5730 C   0  0  0  0  0  0  0  0  0  0  0  0
    8.4802  -12.3385   25.2550 C   0  0  0  0  0  0  0  0  0  0  0  0
    8.1755  -13.6443   25.6107 C   0  0  0  0  0  0  0  0  0  0  0  0
   10.6751  -17.3567   25.5669 C   0  0  0  0  0  0  0  0  0  0  0  0
   11.7967  -17.1678   26.1582 O   0  0  0  0  0  0  0  0  0  0  0  0
    9.8751  -18.3166   26.1157 O   0  0  0  0  0  0  0  0  0  0  0  0
  2  1  1  6
  3  2  1  0
  4  3  1  0
  5  2  1  0
  6  5  2  0
  7  5  1  0
  8  7  1  0
  8  9  1  1
 10  9  1  0
 11 10  2  0
 12 11  1  0
 13 12  2  0
 13 14  1  0
 14 15  2  0
 15 10  1  0
 16 18  1  0
 16  8  1  0
 17 16  2  0
 19 18  1  0
 19 30  1  0
 19 20  1  1
 21 22  2  0
 21 20  1  0
 23 22  1  0
 24 29  2  0
 24 23  1  0
 25 24  1  0
 26 27  1  0
 26 25  2  0
 27 28  2  0
 28 29  1  0
 29 21  1  0
 30 32  1  0
 31 30  2  0
M  END
$$$$
