CFW.pdb
     RDKit          3D

 32 34  0  0  1  0  0  0  0  0999 V2000
    8.7348  -21.3344   20.7646 N   0  0  0  0  0  0  0  0  0  0  0  0
    8.0013  -20.4551   21.6245 C   0  0  1  0  0  0  0  0  0  0  0  0
    8.1623  -20.8417   23.0748 C   0  0  0  0  0  0  0  0  0  0  0  0
    9.7979  -20.2660   23.6269 S   0  0  0  0  0  0  0  0  0  0  0  0
    8.3771  -19.0636   21.3500 C   0  0  0  0  0  0  0  0  0  0  0  0
    9.4583  -18.8194   20.7630 O   0  0  0  0  0  0  0  0  0  0  0  0
    7.5730  -17.9444   21.7165 N   0  0  0  0  0  0  0  0  0  0  0  0
    7.9539  -16.5718   21.3925 C   0  0  1  0  0  0  0  0  0  0  0  0
    6.7710  -15.6577   21.3569 C   0  0  0  0  0  0  0  0  0  0  0  0
    7.1317  -14.2767   20.9291 C   0  0  0  0  0  0  0  0  0  0  0  0
    7.3706  -14.0010   19.5961 C   0  0  0  0  0  0  0  0  0  0  0  0
    7.7051  -12.7339   19.1646 C   0  0  0  0  0  0  0  0  0  0  0  0
    7.8169  -11.6807   20.0481 C   0  0  0  0  0  0  0  0  0  0  0  0
    7.5800  -11.9481   21.3809 C   0  0  0  0  0  0  0  0  0  0  0  0
    7.2454  -13.2188   21.8065 C   0  0  0  0  0  0  0  0  0  0  0  0
    8.9853  -16.1211   22.3705 C   0  0  0  0  0  0  0  0  0  0  0  0
    9.7938  -15.2108   22.0393 O   0  0  0  0  0  0  0  0  0  0  0  0
    9.0945  -16.6725   23.6544 N   0  0  0  0  0  0  0  0  0  0  0  0
   10.0446  -16.1516   24.6696 C   0  0  1  0  0  0  0  0  0  0  0  0
    9.2718  -16.1855   25.9548 C   0  0  0  0  0  0  0  0  0  0  0  0
    8.0619  -15.3724   26.0314 C   0  0  0  0  0  0  0  0  0  0  0  0
    6.7746  -15.8837   25.8629 C   0  0  0  0  0  0  0  0  0  0  0  0
    5.9113  -14.8636   25.9576 N   0  0  0  0  0  0  0  0  0  0  0  0
    6.5910  -13.7385   26.1776 C   0  0  0  0  0  0  0  0  0  0  0  0
    6.2026  -12.4221   26.3674 C   0  0  0  0  0  0  0  0  0  0  0  0
    7.0912  -11.4029   26.6031 C   0  0  0  0  0  0  0  0  0  0  0  0
    8.4347  -11.7291   26.6492 C   0  0  0  0  0  0  0  0  0  0  0  0
    8.8684  -13.0078   26.4682 C   0  0  0  0  0  0  0  0  0  0  0  0
    7.9474  -14.0177   26.2308 C   0  0  0  0  0  0  0  0  0  0  0  0
   11.2385  -16.9903   24.7361 C   0  0  0  0  0  0  0  0  0  0  0  0
   12.1577  -16.6467   25.5609 O   0  0  0  0  0  0  0  0  0  0  0  0
   11.4898  -18.1199   24.0125 O   0  0  0  0  0  0  0  0  0  0  0  0
  2  1  1  6
  3  2  1  0
  4  3  1  0
  5  2  1  0
  6  5  2  0
  7  5  1  0
  8  7  1  0
  8  9  1  1
 10  9  1  0
 11 10  2  0
 12 11  1  0
 13 12  2  0
 13 14  1  0
 14 15  2  0
 15 10  1  0
 16 18  1  0
 16  8  1  0
 17 16  2  0
 19 18  1  0
 19 30  1  0
 19 20  1  1
 21 22  2  0
 21 20  1  0
 23 22  1  0
 24 29  2  0
 24 23  1  0
 25 24  1  0
 26 27  1  0
 26 25  2  0
 27 28  2  0
 28 29  1  0
 29 21  1  0
 30 32  1  0
 31 30  2  0
M  END
$$$$
