CFW.pdb
     RDKit          3D

 32 34  0  0  1  0  0  0  0  0999 V2000
   10.3155  -16.5173   17.3875 N   0  0  0  0  0  0  0  0  0  0  0  0
    9.5432  -17.2123   18.3729 C   0  0  1  0  0  0  0  0  0  0  0  0
    9.9653  -18.6572   18.4853 C   0  0  0  0  0  0  0  0  0  0  0  0
    8.6890  -19.6751   17.6812 S   0  0  0  0  0  0  0  0  0  0  0  0
    9.5999  -16.4905   19.6491 C   0  0  0  0  0  0  0  0  0  0  0  0
   10.6947  -16.0272   20.0492 O   0  0  0  0  0  0  0  0  0  0  0  0
    8.4635  -16.2768   20.4835 N   0  0  0  0  0  0  0  0  0  0  0  0
    8.5712  -15.6617   21.8042 C   0  0  1  0  0  0  0  0  0  0  0  0
    7.2583  -15.1261   22.2794 C   0  0  0  0  0  0  0  0  0  0  0  0
    7.3616  -14.4657   23.6111 C   0  0  0  0  0  0  0  0  0  0  0  0
    7.7445  -13.1409   23.7032 C   0  0  0  0  0  0  0  0  0  0  0  0
    7.8491  -12.4975   24.9192 C   0  0  0  0  0  0  0  0  0  0  0  0
    7.5751  -13.1503   26.1028 C   0  0  0  0  0  0  0  0  0  0  0  0
    7.1924  -14.4734   26.0191 C   0  0  0  0  0  0  0  0  0  0  0  0
    7.0895  -15.1118   24.7986 C   0  0  0  0  0  0  0  0  0  0  0  0
    9.1472  -16.6616   22.7488 C   0  0  0  0  0  0  0  0  0  0  0  0
    8.8498  -17.8803   22.6141 O   0  0  0  0  0  0  0  0  0  0  0  0
   10.0131  -16.2995   23.7895 N   0  0  0  0  0  0  0  0  0  0  0  0
   10.8619  -17.2872   24.5029 C   0  0  1  0  0  0  0  0  0  0  0  0
   11.5012  -16.4993   25.6078 C   0  0  0  0  0  0  0  0  0  0  0  0
   10.8770  -16.5641   26.9257 C   0  0  0  0  0  0  0  0  0  0  0  0
   10.6789  -17.7522   27.6301 C   0  0  0  0  0  0  0  0  0  0  0  0
   10.0511  -17.4517   28.7748 N   0  0  0  0  0  0  0  0  0  0  0  0
    9.8458  -16.1358   28.8251 C   0  0  0  0  0  0  0  0  0  0  0  0
    9.2657  -15.3058   29.7708 C   0  0  0  0  0  0  0  0  0  0  0  0
    9.1754  -13.9443   29.6216 C   0  0  0  0  0  0  0  0  0  0  0  0
    9.6954  -13.3962   28.4629 C   0  0  0  0  0  0  0  0  0  0  0  0
   10.2752  -14.1686   27.5021 C   0  0  0  0  0  0  0  0  0  0  0  0
   10.3517  -15.5423   27.6795 C   0  0  0  0  0  0  0  0  0  0  0  0
   10.0498  -18.3840   25.0229 C   0  0  0  0  0  0  0  0  0  0  0  0
   10.6660  -19.4022   25.4992 O   0  0  0  0  0  0  0  0  0  0  0  0
    8.6872  -18.4483   25.0655 O   0  0  0  0  0  0  0  0  0  0  0  0
  2  1  1  6
  3  2  1  0
  4  3  1  0
  5  2  1  0
  6  5  2  0
  7  5  1  0
  8  7  1  0
  8  9  1  1
 10  9  1  0
 11 10  2  0
 12 11  1  0
 13 12  2  0
 13 14  1  0
 14 15  2  0
 15 10  1  0
 16 18  1  0
 16  8  1  0
 17 16  2  0
 19 18  1  0
 19 30  1  0
 19 20  1  1
 21 22  2  0
 21 20  1  0
 23 22  1  0
 24 29  2  0
 24 23  1  0
 25 24  1  0
 26 27  1  0
 26 25  2  0
 27 28  2  0
 28 29  1  0
 29 21  1  0
 30 32  1  0
 31 30  2  0
M  END
$$$$
