WYD.pdb
     RDKit          3D

 35 37  0  0  1  0  0  0  0  0999 V2000
    6.6405  -18.1298   25.7275 N   0  0  0  0  0  0  0  0  0  0  0  0
    7.2160  -16.8430   25.4184 C   0  0  1  0  0  0  0  0  0  0  0  0
    8.5670  -16.6119   26.0503 C   0  0  0  0  0  0  0  0  0  0  0  0
    8.5591  -15.5438   27.0516 C   0  0  0  0  0  0  0  0  0  0  0  0
    9.0094  -15.6797   28.3510 C   0  0  0  0  0  0  0  0  0  0  0  0
    8.8697  -14.4911   28.9589 N   0  0  0  0  0  0  0  0  0  0  0  0
    8.3456  -13.5805   28.1116 C   0  0  0  0  0  0  0  0  0  0  0  0
    8.0061  -12.2622   28.2233 C   0  0  0  0  0  0  0  0  0  0  0  0
    7.4726  -11.5814   27.1655 C   0  0  0  0  0  0  0  0  0  0  0  0
    7.2732  -12.2286   25.9714 C   0  0  0  0  0  0  0  0  0  0  0  0
    7.6130  -13.5648   25.8440 C   0  0  0  0  0  0  0  0  0  0  0  0
    8.1500  -14.2407   26.9141 C   0  0  0  0  0  0  0  0  0  0  0  0
    7.4009  -16.6853   23.9577 C   0  0  0  0  0  0  0  0  0  0  0  0
    7.5048  -17.7237   23.2595 O   0  0  0  0  0  0  0  0  0  0  0  0
    8.4439  -13.5204   15.7529 O   0  0  0  0  0  0  0  0  0  0  0  0
    8.1976  -13.6389   17.1211 C   0  0  0  0  0  0  0  0  0  0  0  0
    8.8594  -12.8031   17.9945 C   0  0  0  0  0  0  0  0  0  0  0  0
    8.6277  -12.9057   19.3605 C   0  0  0  0  0  0  0  0  0  0  0  0
    7.7497  -13.8214   19.9003 C   0  0  0  0  0  0  0  0  0  0  0  0
    7.4768  -13.9605   21.3303 C   0  0  0  0  0  0  0  0  0  0  0  0
    7.6947  -15.3470   21.8719 C   0  0  2  0  0  0  0  0  0  0  0  0
    7.4689  -15.4341   23.2908 N   0  0  0  0  0  0  0  0  0  0  0  0
    9.0967  -15.7457   21.5679 C   0  0  0  0  0  0  0  0  0  0  0  0
    9.4283  -16.0122   20.3846 O   0  0  0  0  0  0  0  0  0  0  0  0
    7.0955  -14.6513   19.0044 C   0  0  0  0  0  0  0  0  0  0  0  0
    7.3151  -14.5616   17.6439 C   0  0  0  0  0  0  0  0  0  0  0  0
   10.0837  -15.8306   22.6163 N   0  0  0  0  0  0  0  0  0  0  0  0
   11.4764  -16.0117   22.3555 C   0  0  1  0  0  0  0  0  0  0  0  0
   12.1270  -14.7245   21.9533 C   0  0  0  0  0  0  0  0  0  0  0  0
   12.8497  -14.7911   20.6648 C   0  0  0  0  0  0  0  0  0  0  0  0
   12.8101  -15.8348   19.9740 O   0  0  0  0  0  0  0  0  0  0  0  0
   12.1866  -16.6801   23.4566 C   0  0  0  0  0  0  0  0  0  0  0  0
   13.4906  -17.0916   23.3270 O   0  0  0  0  0  0  0  0  0  0  0  0
   13.5786  -13.7089   20.2012 O   0  0  0  0  0  0  0  0  0  0  0  0
   11.5879  -16.8783   24.5369 O   0  0  0  0  0  0  0  0  0  0  0  0
  2  3  1  0
  2  1  1  6
  3  4  1  0
  4  5  2  0
  6  5  1  0
  7  6  1  0
  8  7  2  0
  9  8  1  0
 10 11  1  0
 10  9  2  0
 11 12  2  0
 12  7  1  0
 12  4  1  0
 13  2  1  0
 13 22  1  0
 14 13  2  0
 16 15  1  0
 16 17  2  0
 18 17  1  0
 19 18  2  0
 20 19  1  0
 21 20  1  1
 21 23  1  0
 21 22  1  0
 23 27  1  0
 24 23  2  0
 25 26  2  0
 25 19  1  0
 26 16  1  0
 27 28  1  0
 28 29  1  1
 29 30  1  0
 30 31  2  0
 32 33  1  0
 32 28  1  0
 34 30  1  0
 35 32  2  0
M  END
$$$$
