WYD.pdb
     RDKit          3D

 35 37  0  0  1  0  0  0  0  0999 V2000
    7.9097  -16.6181   21.5328 N   0  0  0  0  0  0  0  0  0  0  0  0
    8.5526  -15.3342   21.6789 C   0  0  1  0  0  0  0  0  0  0  0  0
    7.5894  -14.1899   21.8812 C   0  0  0  0  0  0  0  0  0  0  0  0
    6.8534  -14.2735   23.1440 C   0  0  0  0  0  0  0  0  0  0  0  0
    6.3118  -15.4337   23.6641 C   0  0  0  0  0  0  0  0  0  0  0  0
    5.7391  -15.1272   24.8388 N   0  0  0  0  0  0  0  0  0  0  0  0
    5.8823  -13.8129   25.1109 C   0  0  0  0  0  0  0  0  0  0  0  0
    5.4920  -13.0072   26.1426 C   0  0  0  0  0  0  0  0  0  0  0  0
    5.7819  -11.6719   26.1404 C   0  0  0  0  0  0  0  0  0  0  0  0
    6.4752  -11.1285   25.0875 C   0  0  0  0  0  0  0  0  0  0  0  0
    6.8772  -11.9336   24.0352 C   0  0  0  0  0  0  0  0  0  0  0  0
    6.5813  -13.2762   24.0472 C   0  0  0  0  0  0  0  0  0  0  0  0
    9.4634  -15.3305   22.8463 C   0  0  0  0  0  0  0  0  0  0  0  0
   10.3171  -14.4135   22.9271 O   0  0  0  0  0  0  0  0  0  0  0  0
   12.6032  -15.4641   31.0256 O   0  0  0  0  0  0  0  0  0  0  0  0
   11.8355  -15.6528   29.8760 C   0  0  0  0  0  0  0  0  0  0  0  0
   11.5983  -14.5781   29.0465 C   0  0  0  0  0  0  0  0  0  0  0  0
   10.8362  -14.7457   27.8971 C   0  0  0  0  0  0  0  0  0  0  0  0
   10.2923  -15.9595   27.5345 C   0  0  0  0  0  0  0  0  0  0  0  0
    9.4865  -16.1781   26.3339 C   0  0  0  0  0  0  0  0  0  0  0  0
   10.2716  -16.1768   25.0506 C   0  0  2  0  0  0  0  0  0  0  0  0
    9.4362  -16.2980   23.8847 N   0  0  0  0  0  0  0  0  0  0  0  0
   11.2290  -17.3163   25.0946 C   0  0  0  0  0  0  0  0  0  0  0  0
   10.8121  -18.4901   24.9230 O   0  0  0  0  0  0  0  0  0  0  0  0
   10.5432  -17.0261   28.3824 C   0  0  0  0  0  0  0  0  0  0  0  0
   11.2989  -16.8754   29.5286 C   0  0  0  0  0  0  0  0  0  0  0  0
   12.6338  -17.0912   25.3324 N   0  0  0  0  0  0  0  0  0  0  0  0
   13.6049  -18.1375   25.2815 C   0  0  1  0  0  0  0  0  0  0  0  0
   14.9253  -17.6315   24.7894 C   0  0  0  0  0  0  0  0  0  0  0  0
   14.8365  -16.8053   23.5661 C   0  0  0  0  0  0  0  0  0  0  0  0
   15.3201  -15.6503   23.5502 O   0  0  0  0  0  0  0  0  0  0  0  0
   13.7230  -18.8761   26.5481 C   0  0  0  0  0  0  0  0  0  0  0  0
   13.0877  -18.4527   27.6899 O   0  0  0  0  0  0  0  0  0  0  0  0
   14.2215  -17.2891   22.4238 O   0  0  0  0  0  0  0  0  0  0  0  0
   14.4190  -19.9147   26.5856 O   0  0  0  0  0  0  0  0  0  0  0  0
  2  3  1  0
  2  1  1  1
  3  4  1  0
  4  5  2  0
  6  5  1  0
  7  6  1  0
  8  7  2  0
  9  8  1  0
 10 11  1  0
 10  9  2  0
 11 12  2  0
 12  7  1  0
 12  4  1  0
 13  2  1  0
 13 22  1  0
 14 13  2  0
 16 15  1  0
 16 17  2  0
 18 17  1  0
 19 18  2  0
 20 19  1  0
 21 20  1  1
 21 23  1  0
 21 22  1  0
 23 27  1  0
 24 23  2  0
 25 26  2  0
 25 19  1  0
 26 16  1  0
 27 28  1  0
 28 29  1  1
 29 30  1  0
 30 31  2  0
 32 33  1  0
 32 28  1  0
 34 30  1  0
 35 32  2  0
M  END
$$$$
