WYD.pdb
     RDKit          3D

 35 37  0  0  1  0  0  0  0  0999 V2000
    6.2110  -16.9618   26.3454 N   0  0  0  0  0  0  0  0  0  0  0  0
    6.6080  -16.3665   25.0920 C   0  0  1  0  0  0  0  0  0  0  0  0
    8.0137  -15.8168   25.0967 C   0  0  0  0  0  0  0  0  0  0  0  0
    8.2540  -14.8602   26.1787 C   0  0  0  0  0  0  0  0  0  0  0  0
    9.2520  -14.9791   27.1272 C   0  0  0  0  0  0  0  0  0  0  0  0
    9.1795  -13.9087   27.9338 N   0  0  0  0  0  0  0  0  0  0  0  0
    8.1742  -13.0920   27.5538 C   0  0  0  0  0  0  0  0  0  0  0  0
    7.6818  -11.9076   28.0234 C   0  0  0  0  0  0  0  0  0  0  0  0
    6.6173  -11.2999   27.4197 C   0  0  0  0  0  0  0  0  0  0  0  0
    6.0313  -11.8854   26.3249 C   0  0  0  0  0  0  0  0  0  0  0  0
    6.5204  -13.0858   25.8382 C   0  0  0  0  0  0  0  0  0  0  0  0
    7.5925  -13.6889   26.4522 C   0  0  0  0  0  0  0  0  0  0  0  0
    6.5466  -17.3584   23.9944 C   0  0  0  0  0  0  0  0  0  0  0  0
    5.4789  -17.9998   23.8362 O   0  0  0  0  0  0  0  0  0  0  0  0
    8.0641  -12.1597   17.5297 O   0  0  0  0  0  0  0  0  0  0  0  0
    7.9270  -12.9578   18.6658 C   0  0  0  0  0  0  0  0  0  0  0  0
    8.1149  -12.3909   19.9078 C   0  0  0  0  0  0  0  0  0  0  0  0
    7.9829  -13.1691   21.0512 C   0  0  0  0  0  0  0  0  0  0  0  0
    7.6664  -14.5101   21.0068 C   0  0  0  0  0  0  0  0  0  0  0  0
    7.5170  -15.3630   22.1853 C   0  0  0  0  0  0  0  0  0  0  0  0
    7.8784  -16.8055   21.9575 C   0  0  2  0  0  0  0  0  0  0  0  0
    7.6182  -17.6344   23.1052 N   0  0  0  0  0  0  0  0  0  0  0  0
    9.3267  -16.8699   21.6181 C   0  0  0  0  0  0  0  0  0  0  0  0
    9.6835  -16.9639   20.4161 O   0  0  0  0  0  0  0  0  0  0  0  0
    7.4819  -15.0594   19.7484 C   0  0  0  0  0  0  0  0  0  0  0  0
    7.6096  -14.2989   18.6026 C   0  0  0  0  0  0  0  0  0  0  0  0
   10.3301  -16.8255   22.6534 N   0  0  0  0  0  0  0  0  0  0  0  0
   11.7291  -16.9170   22.3800 C   0  0  1  0  0  0  0  0  0  0  0  0
   12.2813  -15.6031   21.9213 C   0  0  0  0  0  0  0  0  0  0  0  0
   13.7063  -15.6519   21.5287 C   0  0  0  0  0  0  0  0  0  0  0  0
   14.5788  -15.1293   22.2593 O   0  0  0  0  0  0  0  0  0  0  0  0
   12.4978  -17.4910   23.4950 C   0  0  0  0  0  0  0  0  0  0  0  0
   13.8034  -17.8880   23.3398 O   0  0  0  0  0  0  0  0  0  0  0  0
   14.1001  -16.2717   20.3548 O   0  0  0  0  0  0  0  0  0  0  0  0
   11.9484  -17.6204   24.6113 O   0  0  0  0  0  0  0  0  0  0  0  0
  2  3  1  0
  2  1  1  1
  3  4  1  0
  4  5  2  0
  6  5  1  0
  7  6  1  0
  8  7  2  0
  9  8  1  0
 10 11  1  0
 10  9  2  0
 11 12  2  0
 12  7  1  0
 12  4  1  0
 13  2  1  0
 13 22  1  0
 14 13  2  0
 16 15  1  0
 16 17  2  0
 18 17  1  0
 19 18  2  0
 20 19  1  0
 21 20  1  1
 21 23  1  0
 21 22  1  0
 23 27  1  0
 24 23  2  0
 25 26  2  0
 25 19  1  0
 26 16  1  0
 27 28  1  0
 28 29  1  1
 29 30  1  0
 30 31  2  0
 32 33  1  0
 32 28  1  0
 34 30  1  0
 35 32  2  0
M  END
$$$$
