WYD.pdb
     RDKit          3D

 35 37  0  0  1  0  0  0  0  0999 V2000
    5.8101  -17.6699   23.7596 N   0  0  0  0  0  0  0  0  0  0  0  0
    6.8079  -16.6376   23.9063 C   0  0  1  0  0  0  0  0  0  0  0  0
    7.3526  -16.5113   25.3082 C   0  0  0  0  0  0  0  0  0  0  0  0
    7.0274  -15.2306   25.9389 C   0  0  0  0  0  0  0  0  0  0  0  0
    5.7486  -14.7277   26.0854 C   0  0  0  0  0  0  0  0  0  0  0  0
    5.8421  -13.5529   26.7279 N   0  0  0  0  0  0  0  0  0  0  0  0
    7.1303  -13.2638   27.0088 C   0  0  0  0  0  0  0  0  0  0  0  0
    7.7579  -12.2196   27.6264 C   0  0  0  0  0  0  0  0  0  0  0  0
    9.1173  -12.1975   27.7628 C   0  0  0  0  0  0  0  0  0  0  0  0
    9.8667  -13.2382   27.2730 C   0  0  0  0  0  0  0  0  0  0  0  0
    9.2436  -14.3032   26.6448 C   0  0  0  0  0  0  0  0  0  0  0  0
    7.8751  -14.3164   26.5133 C   0  0  0  0  0  0  0  0  0  0  0  0
    7.9688  -16.8973   23.0245 C   0  0  0  0  0  0  0  0  0  0  0  0
    8.1670  -18.0760   22.6399 O   0  0  0  0  0  0  0  0  0  0  0  0
    6.1800  -13.1521   17.2829 O   0  0  0  0  0  0  0  0  0  0  0  0
    7.1813  -13.5912   18.1498 C   0  0  0  0  0  0  0  0  0  0  0  0
    7.8161  -14.7860   17.8876 C   0  0  0  0  0  0  0  0  0  0  0  0
    8.8156  -15.2403   18.7389 C   0  0  0  0  0  0  0  0  0  0  0  0
    9.2147  -14.5417   19.8584 C   0  0  0  0  0  0  0  0  0  0  0  0
   10.2622  -14.9839   20.7782 C   0  0  0  0  0  0  0  0  0  0  0  0
    9.8948  -16.1848   21.6064 C   0  0  2  0  0  0  0  0  0  0  0  0
    8.8766  -15.8994   22.5830 N   0  0  0  0  0  0  0  0  0  0  0  0
   11.1243  -16.6618   22.2976 C   0  0  0  0  0  0  0  0  0  0  0  0
   12.0954  -17.0886   21.6223 O   0  0  0  0  0  0  0  0  0  0  0  0
    8.5634  -13.3436   20.1029 C   0  0  0  0  0  0  0  0  0  0  0  0
    7.5680  -12.8787   19.2661 C   0  0  0  0  0  0  0  0  0  0  0  0
   11.2172  -16.6409   23.7368 N   0  0  0  0  0  0  0  0  0  0  0  0
   12.3290  -17.1861   24.4488 C   0  0  1  0  0  0  0  0  0  0  0  0
   13.3550  -16.1361   24.7431 C   0  0  0  0  0  0  0  0  0  0  0  0
   14.4741  -16.0990   23.7771 C   0  0  0  0  0  0  0  0  0  0  0  0
   15.6581  -16.1199   24.1842 O   0  0  0  0  0  0  0  0  0  0  0  0
   11.9321  -17.9360   25.6503 C   0  0  0  0  0  0  0  0  0  0  0  0
   12.8365  -18.6852   26.3625 O   0  0  0  0  0  0  0  0  0  0  0  0
   14.2360  -16.0407   22.4143 O   0  0  0  0  0  0  0  0  0  0  0  0
   10.7418  -17.8899   26.0322 O   0  0  0  0  0  0  0  0  0  0  0  0
  2  3  1  0
  2  1  1  1
  3  4  1  0
  4  5  2  0
  6  5  1  0
  7  6  1  0
  8  7  2  0
  9  8  1  0
 10 11  1  0
 10  9  2  0
 11 12  2  0
 12  7  1  0
 12  4  1  0
 13  2  1  0
 13 22  1  0
 14 13  2  0
 16 15  1  0
 16 17  2  0
 18 17  1  0
 19 18  2  0
 20 19  1  0
 21 20  1  1
 21 23  1  0
 21 22  1  0
 23 27  1  0
 24 23  2  0
 25 26  2  0
 25 19  1  0
 26 16  1  0
 27 28  1  0
 28 29  1  1
 29 30  1  0
 30 31  2  0
 32 33  1  0
 32 28  1  0
 34 30  1  0
 35 32  2  0
M  END
$$$$
