WYD.pdb
     RDKit          3D

 35 37  0  0  1  0  0  0  0  0999 V2000
    7.5662  -19.4719   26.7440 N   0  0  0  0  0  0  0  0  0  0  0  0
    8.1503  -18.2008   26.3889 C   0  0  1  0  0  0  0  0  0  0  0  0
    9.6554  -18.1703   26.4971 C   0  0  0  0  0  0  0  0  0  0  0  0
   10.1340  -17.4145   27.6561 C   0  0  0  0  0  0  0  0  0  0  0  0
   10.5885  -17.9806   28.8320 C   0  0  0  0  0  0  0  0  0  0  0  0
   10.9644  -16.9832   29.6477 N   0  0  0  0  0  0  0  0  0  0  0  0
   10.7749  -15.7852   29.0555 C   0  0  0  0  0  0  0  0  0  0  0  0
   10.9819  -14.4909   29.4397 C   0  0  0  0  0  0  0  0  0  0  0  0
   10.6795  -13.4525   28.6046 C   0  0  0  0  0  0  0  0  0  0  0  0
   10.1596  -13.7100   27.3605 C   0  0  0  0  0  0  0  0  0  0  0  0
    9.9448  -15.0173   26.9579 C   0  0  0  0  0  0  0  0  0  0  0  0
   10.2532  -16.0551   27.8053 C   0  0  0  0  0  0  0  0  0  0  0  0
    7.8205  -17.8412   24.9910 C   0  0  0  0  0  0  0  0  0  0  0  0
    7.6420  -18.7720   24.1674 O   0  0  0  0  0  0  0  0  0  0  0  0
    6.5310  -11.6241   27.5736 O   0  0  0  0  0  0  0  0  0  0  0  0
    6.6287  -12.4056   26.4219 C   0  0  0  0  0  0  0  0  0  0  0  0
    5.8923  -13.5674   26.3379 C   0  0  0  0  0  0  0  0  0  0  0  0
    5.9760  -14.3593   25.1994 C   0  0  0  0  0  0  0  0  0  0  0  0
    6.7760  -14.0355   24.1243 C   0  0  0  0  0  0  0  0  0  0  0  0
    6.8912  -14.8400   22.9085 C   0  0  0  0  0  0  0  0  0  0  0  0
    7.4390  -16.2237   23.1291 C   0  0  2  0  0  0  0  0  0  0  0  0
    7.6920  -16.5093   24.5171 N   0  0  0  0  0  0  0  0  0  0  0  0
    8.7074  -16.3456   22.3589 C   0  0  0  0  0  0  0  0  0  0  0  0
    8.6835  -16.2943   21.1028 O   0  0  0  0  0  0  0  0  0  0  0  0
    7.5074  -12.8637   24.2300 C   0  0  0  0  0  0  0  0  0  0  0  0
    7.4349  -12.0660   25.3551 C   0  0  0  0  0  0  0  0  0  0  0  0
    9.9683  -16.5224   23.0367 N   0  0  0  0  0  0  0  0  0  0  0  0
   11.1934  -16.7619   22.3424 C   0  0  1  0  0  0  0  0  0  0  0  0
   12.2061  -15.7008   22.6431 C   0  0  0  0  0  0  0  0  0  0  0  0
   13.4876  -15.8693   21.9245 C   0  0  0  0  0  0  0  0  0  0  0  0
   14.4096  -16.5477   22.4323 O   0  0  0  0  0  0  0  0  0  0  0  0
   11.7209  -18.1183   22.5555 C   0  0  0  0  0  0  0  0  0  0  0  0
   12.0744  -18.9266   21.5028 O   0  0  0  0  0  0  0  0  0  0  0  0
   13.6910  -15.2847   20.6859 O   0  0  0  0  0  0  0  0  0  0  0  0
   11.8503  -18.5455   23.7241 O   0  0  0  0  0  0  0  0  0  0  0  0
  2  3  1  0
  2  1  1  6
  3  4  1  0
  4  5  2  0
  6  5  1  0
  7  6  1  0
  8  7  2  0
  9  8  1  0
 10 11  1  0
 10  9  2  0
 11 12  2  0
 12  7  1  0
 12  4  1  0
 13  2  1  0
 13 22  1  0
 14 13  2  0
 16 15  1  0
 16 17  2  0
 18 17  1  0
 19 18  2  0
 20 19  1  0
 21 20  1  1
 21 23  1  0
 21 22  1  0
 23 27  1  0
 24 23  2  0
 25 26  2  0
 25 19  1  0
 26 16  1  0
 27 28  1  0
 28 29  1  1
 29 30  1  0
 30 31  2  0
 32 33  1  0
 32 28  1  0
 34 30  1  0
 35 32  2  0
M  END
$$$$
