WYD.pdb
     RDKit          3D

 35 37  0  0  1  0  0  0  0  0999 V2000
    7.0200  -18.0988   25.9013 N   0  0  0  0  0  0  0  0  0  0  0  0
    7.2468  -16.7454   25.4544 C   0  0  1  0  0  0  0  0  0  0  0  0
    8.5211  -16.1342   25.9842 C   0  0  0  0  0  0  0  0  0  0  0  0
    8.2895  -15.1382   27.0319 C   0  0  0  0  0  0  0  0  0  0  0  0
    8.6170  -15.3062   28.3639 C   0  0  0  0  0  0  0  0  0  0  0  0
    8.2818  -14.1800   29.0129 N   0  0  0  0  0  0  0  0  0  0  0  0
    7.7472  -13.2796   28.1612 C   0  0  0  0  0  0  0  0  0  0  0  0
    7.2506  -12.0150   28.3026 C   0  0  0  0  0  0  0  0  0  0  0  0
    6.7543  -11.3304   27.2292 C   0  0  0  0  0  0  0  0  0  0  0  0
    6.7529  -11.9191   25.9891 C   0  0  0  0  0  0  0  0  0  0  0  0
    7.2534  -13.2003   25.8313 C   0  0  0  0  0  0  0  0  0  0  0  0
    7.7513  -13.8805   26.9175 C   0  0  0  0  0  0  0  0  0  0  0  0
    7.3323  -16.6853   23.9774 C   0  0  0  0  0  0  0  0  0  0  0  0
    7.7753  -17.6905   23.3694 O   0  0  0  0  0  0  0  0  0  0  0  0
    8.6055  -13.3728   15.8563 O   0  0  0  0  0  0  0  0  0  0  0  0
    8.2021  -13.5543   17.1796 C   0  0  0  0  0  0  0  0  0  0  0  0
    8.6875  -12.7037   18.1492 C   0  0  0  0  0  0  0  0  0  0  0  0
    8.2977  -12.8681   19.4725 C   0  0  0  0  0  0  0  0  0  0  0  0
    7.4303  -13.8610   19.8755 C   0  0  0  0  0  0  0  0  0  0  0  0
    6.9945  -14.0669   21.2562 C   0  0  0  0  0  0  0  0  0  0  0  0
    7.4067  -15.3876   21.8470 C   0  0  2  0  0  0  0  0  0  0  0  0
    6.9455  -15.5629   23.1992 N   0  0  0  0  0  0  0  0  0  0  0  0
    8.8936  -15.4620   21.8171 C   0  0  0  0  0  0  0  0  0  0  0  0
    9.5698  -14.7859   22.6335 O   0  0  0  0  0  0  0  0  0  0  0  0
    6.9547  -14.7045   18.8847 C   0  0  0  0  0  0  0  0  0  0  0  0
    7.3329  -14.5539   17.5650 C   0  0  0  0  0  0  0  0  0  0  0  0
    9.5714  -16.3025   20.8607 N   0  0  0  0  0  0  0  0  0  0  0  0
   10.9940  -16.4167   20.8020 C   0  0  1  0  0  0  0  0  0  0  0  0
   11.4387  -17.8224   21.0630 C   0  0  0  0  0  0  0  0  0  0  0  0
   12.8986  -18.0253   20.9422 C   0  0  0  0  0  0  0  0  0  0  0  0
   13.3486  -19.0930   20.4673 O   0  0  0  0  0  0  0  0  0  0  0  0
   11.5654  -15.8677   19.5627 C   0  0  0  0  0  0  0  0  0  0  0  0
   12.7935  -15.2528   19.5473 O   0  0  0  0  0  0  0  0  0  0  0  0
   13.7891  -17.0461   21.3489 O   0  0  0  0  0  0  0  0  0  0  0  0
   10.9167  -15.9634   18.4976 O   0  0  0  0  0  0  0  0  0  0  0  0
  2  3  1  0
  2  1  1  6
  3  4  1  0
  4  5  2  0
  6  5  1  0
  7  6  1  0
  8  7  2  0
  9  8  1  0
 10 11  1  0
 10  9  2  0
 11 12  2  0
 12  7  1  0
 12  4  1  0
 13  2  1  0
 13 22  1  0
 14 13  2  0
 16 15  1  0
 16 17  2  0
 18 17  1  0
 19 18  2  0
 20 19  1  0
 21 20  1  1
 21 23  1  0
 21 22  1  0
 23 27  1  0
 24 23  2  0
 25 26  2  0
 25 19  1  0
 26 16  1  0
 27 28  1  0
 28 29  1  6
 29 30  1  0
 30 31  2  0
 32 33  1  0
 32 28  1  0
 34 30  1  0
 35 32  2  0
M  END
$$$$
