WYD.pdb
     RDKit          3D

 35 37  0  0  1  0  0  0  0  0999 V2000
    9.1141  -17.2989   20.4518 N   0  0  0  0  0  0  0  0  0  0  0  0
    8.9379  -16.1531   21.3114 C   0  0  1  0  0  0  0  0  0  0  0  0
    7.4934  -15.8251   21.6013 C   0  0  0  0  0  0  0  0  0  0  0  0
    7.3182  -14.5288   22.2586 C   0  0  0  0  0  0  0  0  0  0  0  0
    7.3855  -13.3060   21.6182 C   0  0  0  0  0  0  0  0  0  0  0  0
    7.1505  -12.3518   22.5326 N   0  0  0  0  0  0  0  0  0  0  0  0
    6.9320  -12.8982   23.7473 C   0  0  0  0  0  0  0  0  0  0  0  0
    6.6598  -12.3880   24.9847 C   0  0  0  0  0  0  0  0  0  0  0  0
    6.4900  -13.2103   26.0627 C   0  0  0  0  0  0  0  0  0  0  0  0
    6.5938  -14.5699   25.9035 C   0  0  0  0  0  0  0  0  0  0  0  0
    6.8691  -15.1008   24.6547 C   0  0  0  0  0  0  0  0  0  0  0  0
    7.0375  -14.2649   23.5762 C   0  0  0  0  0  0  0  0  0  0  0  0
    9.5921  -16.3714   22.6217 C   0  0  0  0  0  0  0  0  0  0  0  0
    9.6564  -17.5455   23.0620 O   0  0  0  0  0  0  0  0  0  0  0  0
   11.3276  -15.9732   31.1053 O   0  0  0  0  0  0  0  0  0  0  0  0
   11.1579  -15.6019   29.7712 C   0  0  0  0  0  0  0  0  0  0  0  0
   11.9533  -16.1850   28.8085 C   0  0  0  0  0  0  0  0  0  0  0  0
   11.7996  -15.8286   27.4745 C   0  0  0  0  0  0  0  0  0  0  0  0
   10.8712  -14.9003   27.0539 C   0  0  0  0  0  0  0  0  0  0  0  0
   10.6770  -14.4988   25.6612 C   0  0  0  0  0  0  0  0  0  0  0  0
   10.8082  -15.6207   24.6675 C   0  0  2  0  0  0  0  0  0  0  0  0
   10.1537  -15.3385   23.4170 N   0  0  0  0  0  0  0  0  0  0  0  0
   10.2139  -16.8444   25.2727 C   0  0  0  0  0  0  0  0  0  0  0  0
    8.9647  -16.9508   25.3688 O   0  0  0  0  0  0  0  0  0  0  0  0
   10.0825  -14.3268   28.0379 C   0  0  0  0  0  0  0  0  0  0  0  0
   10.2232  -14.6707   29.3681 C   0  0  0  0  0  0  0  0  0  0  0  0
   11.0548  -17.9138   25.7521 N   0  0  0  0  0  0  0  0  0  0  0  0
   10.5317  -19.1483   26.2448 C   0  0  1  0  0  0  0  0  0  0  0  0
   10.5848  -20.2183   25.1989 C   0  0  0  0  0  0  0  0  0  0  0  0
   10.1217  -21.5425   25.6669 C   0  0  0  0  0  0  0  0  0  0  0  0
    9.7756  -21.7029   26.8596 O   0  0  0  0  0  0  0  0  0  0  0  0
   11.1480  -19.5703   27.5120 C   0  0  0  0  0  0  0  0  0  0  0  0
   10.3968  -19.7817   28.6423 O   0  0  0  0  0  0  0  0  0  0  0  0
   10.0625  -22.6221   24.8019 O   0  0  0  0  0  0  0  0  0  0  0  0
   12.3863  -19.7405   27.5608 O   0  0  0  0  0  0  0  0  0  0  0  0
  2  3  1  0
  2  1  1  6
  3  4  1  0
  4  5  2  0
  6  5  1  0
  7  6  1  0
  8  7  2  0
  9  8  1  0
 10 11  1  0
 10  9  2  0
 11 12  2  0
 12  7  1  0
 12  4  1  0
 13  2  1  0
 13 22  1  0
 14 13  2  0
 16 15  1  0
 16 17  2  0
 18 17  1  0
 19 18  2  0
 20 19  1  0
 21 20  1  1
 21 23  1  0
 21 22  1  0
 23 27  1  0
 24 23  2  0
 25 26  2  0
 25 19  1  0
 26 16  1  0
 27 28  1  0
 28 29  1  6
 29 30  1  0
 30 31  2  0
 32 33  1  0
 32 28  1  0
 34 30  1  0
 35 32  2  0
M  END
$$$$
