WYD.pdb
     RDKit          3D

 35 37  0  0  1  0  0  0  0  0999 V2000
    6.0865  -18.0745   23.5445 N   0  0  0  0  0  0  0  0  0  0  0  0
    6.8358  -16.8582   23.7497 C   0  0  1  0  0  0  0  0  0  0  0  0
    7.3180  -16.6714   25.1677 C   0  0  0  0  0  0  0  0  0  0  0  0
    6.7723  -15.4732   25.8080 C   0  0  0  0  0  0  0  0  0  0  0  0
    5.5307  -15.3986   26.4102 C   0  0  0  0  0  0  0  0  0  0  0  0
    5.3900  -14.1590   26.9055 N   0  0  0  0  0  0  0  0  0  0  0  0
    6.4884  -13.4165   26.6526 C   0  0  0  0  0  0  0  0  0  0  0  0
    6.8488  -12.1277   26.9259 C   0  0  0  0  0  0  0  0  0  0  0  0
    8.0596  -11.6363   26.5263 C   0  0  0  0  0  0  0  0  0  0  0  0
    8.9291  -12.4469   25.8398 C   0  0  0  0  0  0  0  0  0  0  0  0
    8.5769  -13.7555   25.5562 C   0  0  0  0  0  0  0  0  0  0  0  0
    7.3566  -14.2407   25.9633 C   0  0  0  0  0  0  0  0  0  0  0  0
    8.0392  -16.8286   22.8875 C   0  0  0  0  0  0  0  0  0  0  0  0
    8.4213  -17.9060   22.3683 O   0  0  0  0  0  0  0  0  0  0  0  0
    6.5810  -13.4550   16.7384 O   0  0  0  0  0  0  0  0  0  0  0  0
    7.4688  -13.6955   17.7875 C   0  0  0  0  0  0  0  0  0  0  0  0
    7.5550  -12.7796   18.8137 C   0  0  0  0  0  0  0  0  0  0  0  0
    8.4331  -13.0011   19.8673 C   0  0  0  0  0  0  0  0  0  0  0  0
    9.2415  -14.1154   19.9413 C   0  0  0  0  0  0  0  0  0  0  0  0
   10.1770  -14.3862   21.0323 C   0  0  0  0  0  0  0  0  0  0  0  0
    9.9427  -15.6922   21.7413 C   0  0  2  0  0  0  0  0  0  0  0  0
    8.7934  -15.6591   22.6073 N   0  0  0  0  0  0  0  0  0  0  0  0
   11.1578  -16.0064   22.5424 C   0  0  0  0  0  0  0  0  0  0  0  0
   12.2855  -16.0250   21.9865 O   0  0  0  0  0  0  0  0  0  0  0  0
    9.1387  -15.0227   18.8994 C   0  0  0  0  0  0  0  0  0  0  0  0
    8.2707  -14.8167   17.8452 C   0  0  0  0  0  0  0  0  0  0  0  0
   11.0586  -16.2908   23.9530 N   0  0  0  0  0  0  0  0  0  0  0  0
   12.1790  -16.6944   24.7419 C   0  0  1  0  0  0  0  0  0  0  0  0
   11.9571  -16.4008   26.1932 C   0  0  0  0  0  0  0  0  0  0  0  0
   10.9436  -17.2654   26.8352 C   0  0  0  0  0  0  0  0  0  0  0  0
    9.9893  -17.7214   26.1647 O   0  0  0  0  0  0  0  0  0  0  0  0
   12.5769  -18.0907   24.5057 C   0  0  0  0  0  0  0  0  0  0  0  0
   13.7728  -18.5857   24.9652 O   0  0  0  0  0  0  0  0  0  0  0  0
   11.0295  -17.5846   28.1798 O   0  0  0  0  0  0  0  0  0  0  0  0
   11.8070  -18.8449   23.8708 O   0  0  0  0  0  0  0  0  0  0  0  0
  2  3  1  0
  2  1  1  1
  3  4  1  0
  4  5  2  0
  6  5  1  0
  7  6  1  0
  8  7  2  0
  9  8  1  0
 10 11  1  0
 10  9  2  0
 11 12  2  0
 12  7  1  0
 12  4  1  0
 13  2  1  0
 13 22  1  0
 14 13  2  0
 16 15  1  0
 16 17  2  0
 18 17  1  0
 19 18  2  0
 20 19  1  0
 21 20  1  1
 21 23  1  0
 21 22  1  0
 23 27  1  0
 24 23  2  0
 25 26  2  0
 25 19  1  0
 26 16  1  0
 27 28  1  0
 28 29  1  1
 29 30  1  0
 30 31  2  0
 32 33  1  0
 32 28  1  0
 34 30  1  0
 35 32  2  0
M  END
$$$$
