MFF.pdb
     RDKit          3D

 31 32  0  0  1  0  0  0  0  0999 V2000
   29.9459  -35.1808  -18.9495 C   0  0  0  0  0  0  0  0  0  0  0  0
   31.6290  -34.9182  -18.3748 S   0  0  0  0  0  0  0  0  0  0  0  0
   32.2684  -33.2908  -18.8172 C   0  0  0  0  0  0  0  0  0  0  0  0
   31.5312  -32.1938  -18.0561 C   0  0  0  0  0  0  0  0  0  0  0  0
   31.8152  -30.9040  -18.7873 C   0  0  2  0  0  0  0  0  0  0  0  0
   32.7762  -30.1775  -17.9819 N   0  0  0  0  0  0  0  0  0  0  0  0
   30.6231  -30.0969  -19.0381 C   0  0  0  0  0  0  0  0  0  0  0  0
   30.3876  -29.1385  -18.2591 O   0  0  0  0  0  0  0  0  0  0  0  0
   29.7081  -30.3149  -20.0988 N   0  0  0  0  0  0  0  0  0  0  0  0
   28.5818  -29.4578  -20.2567 C   0  0  1  0  0  0  0  0  0  0  0  0
   28.2802  -29.1256  -21.6995 C   0  0  0  0  0  0  0  0  0  0  0  0
   27.1818  -28.1615  -21.8794 C   0  0  0  0  0  0  0  0  0  0  0  0
   25.8957  -28.6249  -22.0501 C   0  0  0  0  0  0  0  0  0  0  0  0
   24.8360  -27.7325  -22.2231 C   0  0  0  0  0  0  0  0  0  0  0  0
   25.0758  -26.3672  -22.2239 C   0  0  0  0  0  0  0  0  0  0  0  0
   26.3439  -25.8967  -22.0560 C   0  0  0  0  0  0  0  0  0  0  0  0
   27.3850  -26.8035  -21.8852 C   0  0  0  0  0  0  0  0  0  0  0  0
   27.3467  -29.9646  -19.6325 C   0  0  0  0  0  0  0  0  0  0  0  0
   27.0377  -31.1662  -19.8219 O   0  0  0  0  0  0  0  0  0  0  0  0
   26.4702  -29.1937  -18.8259 N   0  0  0  0  0  0  0  0  0  0  0  0
   25.3063  -29.7968  -18.1582 C   0  0  1  0  0  0  0  0  0  0  0  0
   25.5637  -29.7053  -16.6843 C   0  0  0  0  0  0  0  0  0  0  0  0
   26.4969  -30.7188  -16.1587 C   0  0  0  0  0  0  0  0  0  0  0  0
   27.8371  -30.4137  -16.0646 C   0  0  0  0  0  0  0  0  0  0  0  0
   28.7684  -31.3100  -15.5782 C   0  0  0  0  0  0  0  0  0  0  0  0
   28.3645  -32.5561  -15.1679 C   0  0  0  0  0  0  0  0  0  0  0  0
   27.0175  -32.8740  -15.2580 C   0  0  0  0  0  0  0  0  0  0  0  0
   26.1002  -31.9709  -15.7449 C   0  0  0  0  0  0  0  0  0  0  0  0
   24.1014  -29.0299  -18.5561 C   0  0  0  0  0  0  0  0  0  0  0  0
   24.1430  -27.6475  -18.6585 O   0  0  0  0  0  0  0  0  0  0  0  0
   23.0083  -29.5957  -18.8127 O   0  0  0  0  0  0  0  0  0  0  0  0
  2  1  1  0
  3  4  1  0
  3  2  1  0
  5  4  1  0
  5  6  1  1
  7  5  1  0
  7  8  2  0
  9  7  1  0
 10  9  1  0
 10 11  1  6
 12 11  1  0
 12 17  1  0
 13 12  2  0
 14 13  1  0
 14 15  2  0
 15 16  1  0
 16 17  2  0
 18 10  1  0
 19 18  2  0
 20 18  1  0
 21 20  1  0
 21 29  1  0
 21 22  1  1
 23 22  1  0
 23 24  2  0
 25 24  1  0
 26 25  2  0
 27 28  2  0
 27 26  1  0
 28 23  1  0
 29 30  1  0
 31 29  2  0
M  END
$$$$
