MFF.pdb
     RDKit          3D

 31 32  0  0  1  0  0  0  0  0999 V2000
   22.6385  -20.4988  -20.5596 C   0  0  0  0  0  0  0  0  0  0  0  0
   24.1549  -19.5646  -20.8049 S   0  0  0  0  0  0  0  0  0  0  0  0
   25.6307  -20.5125  -20.3847 C   0  0  0  0  0  0  0  0  0  0  0  0
   25.3170  -21.5608  -19.3223 C   0  0  0  0  0  0  0  0  0  0  0  0
   26.4117  -21.4590  -18.2877 C   0  0  2  0  0  0  0  0  0  0  0  0
   27.4241  -22.4253  -18.6637 N   0  0  0  0  0  0  0  0  0  0  0  0
   25.9497  -21.6871  -16.9203 C   0  0  0  0  0  0  0  0  0  0  0  0
   25.4122  -22.7931  -16.6583 O   0  0  0  0  0  0  0  0  0  0  0  0
   26.0629  -20.7503  -15.8622 N   0  0  0  0  0  0  0  0  0  0  0  0
   25.4224  -21.0017  -14.6154 C   0  0  1  0  0  0  0  0  0  0  0  0
   26.0662  -20.2785  -13.4554 C   0  0  0  0  0  0  0  0  0  0  0  0
   25.4663  -20.5850  -12.1460 C   0  0  0  0  0  0  0  0  0  0  0  0
   25.9673  -21.6290  -11.3996 C   0  0  0  0  0  0  0  0  0  0  0  0
   25.4168  -21.9412  -10.1552 C   0  0  0  0  0  0  0  0  0  0  0  0
   24.3565  -21.1965   -9.6624 C   0  0  0  0  0  0  0  0  0  0  0  0
   23.8522  -20.1613  -10.3915 C   0  0  0  0  0  0  0  0  0  0  0  0
   24.4158  -19.8674  -11.6291 C   0  0  0  0  0  0  0  0  0  0  0  0
   23.9807  -20.6963  -14.6060 C   0  0  0  0  0  0  0  0  0  0  0  0
   23.6241  -19.5161  -14.8413 O   0  0  0  0  0  0  0  0  0  0  0  0
   22.9532  -21.6406  -14.3495 N   0  0  0  0  0  0  0  0  0  0  0  0
   21.5625  -21.2219  -14.1153 C   0  0  1  0  0  0  0  0  0  0  0  0
   20.7425  -21.8275  -15.2142 C   0  0  0  0  0  0  0  0  0  0  0  0
   20.4614  -20.9212  -16.3430 C   0  0  0  0  0  0  0  0  0  0  0  0
   19.3976  -20.0501  -16.2565 C   0  0  0  0  0  0  0  0  0  0  0  0
   19.0770  -19.1696  -17.2712 C   0  0  0  0  0  0  0  0  0  0  0  0
   19.8335  -19.1458  -18.4162 C   0  0  0  0  0  0  0  0  0  0  0  0
   20.9071  -20.0184  -18.5140 C   0  0  0  0  0  0  0  0  0  0  0  0
   21.2153  -20.8906  -17.4950 C   0  0  0  0  0  0  0  0  0  0  0  0
   21.1519  -21.7220  -12.7813 C   0  0  0  0  0  0  0  0  0  0  0  0
   20.1462  -21.0894  -12.0660 O   0  0  0  0  0  0  0  0  0  0  0  0
   21.6930  -22.7263  -12.2526 O   0  0  0  0  0  0  0  0  0  0  0  0
  2  1  1  0
  3  4  1  0
  3  2  1  0
  5  4  1  0
  5  6  1  6
  7  5  1  0
  7  8  2  0
  9  7  1  0
 10  9  1  0
 10 11  1  1
 12 11  1  0
 12 17  1  0
 13 12  2  0
 14 13  1  0
 14 15  2  0
 15 16  1  0
 16 17  2  0
 18 10  1  0
 19 18  2  0
 20 18  1  0
 21 20  1  0
 21 29  1  0
 21 22  1  6
 23 22  1  0
 23 24  2  0
 25 24  1  0
 26 25  2  0
 27 28  2  0
 27 26  1  0
 28 23  1  0
 29 30  1  0
 31 29  2  0
M  END
$$$$
