MFF.pdb
     RDKit          3D

 31 32  0  0  1  0  0  0  0  0999 V2000
   25.2800  -19.1319  -19.9278 C   0  0  0  0  0  0  0  0  0  0  0  0
   26.9738  -19.6038  -20.3026 S   0  0  0  0  0  0  0  0  0  0  0  0
   27.2357  -21.3859  -20.2084 C   0  0  0  0  0  0  0  0  0  0  0  0
   26.4954  -21.9798  -19.0146 C   0  0  0  0  0  0  0  0  0  0  0  0
   27.4069  -21.8129  -17.8227 C   0  0  2  0  0  0  0  0  0  0  0  0
   28.4911  -22.7582  -17.9984 N   0  0  0  0  0  0  0  0  0  0  0  0
   26.7375  -22.0139  -16.5394 C   0  0  0  0  0  0  0  0  0  0  0  0
   26.3788  -23.1811  -16.2401 O   0  0  0  0  0  0  0  0  0  0  0  0
   26.4609  -20.9863  -15.6026 N   0  0  0  0  0  0  0  0  0  0  0  0
   25.6982  -21.2724  -14.4345 C   0  0  1  0  0  0  0  0  0  0  0  0
   25.9655  -20.3157  -13.2961 C   0  0  0  0  0  0  0  0  0  0  0  0
   25.1971  -20.6036  -12.0734 C   0  0  0  0  0  0  0  0  0  0  0  0
   23.9868  -19.9772  -11.8713 C   0  0  0  0  0  0  0  0  0  0  0  0
   23.2382  -20.2318  -10.7207 C   0  0  0  0  0  0  0  0  0  0  0  0
   23.7135  -21.1222   -9.7704 C   0  0  0  0  0  0  0  0  0  0  0  0
   24.9095  -21.7480   -9.9590 C   0  0  0  0  0  0  0  0  0  0  0  0
   25.6391  -21.4797  -11.1128 C   0  0  0  0  0  0  0  0  0  0  0  0
   24.2430  -21.3228  -14.6624 C   0  0  0  0  0  0  0  0  0  0  0  0
   23.6787  -20.2966  -15.1136 O   0  0  0  0  0  0  0  0  0  0  0  0
   23.4210  -22.4512  -14.4093 N   0  0  0  0  0  0  0  0  0  0  0  0
   21.9550  -22.3740  -14.5049 C   0  0  1  0  0  0  0  0  0  0  0  0
   21.4850  -23.7195  -14.9692 C   0  0  0  0  0  0  0  0  0  0  0  0
   20.0196  -23.8749  -15.0214 C   0  0  0  0  0  0  0  0  0  0  0  0
   19.3358  -23.4305  -16.1318 C   0  0  0  0  0  0  0  0  0  0  0  0
   17.9649  -23.5467  -16.2530 C   0  0  0  0  0  0  0  0  0  0  0  0
   17.2384  -24.1233  -15.2412 C   0  0  0  0  0  0  0  0  0  0  0  0
   17.9165  -24.5745  -14.1186 C   0  0  0  0  0  0  0  0  0  0  0  0
   19.2831  -24.4523  -14.0111 C   0  0  0  0  0  0  0  0  0  0  0  0
   21.4253  -22.0383  -13.1615 C   0  0  0  0  0  0  0  0  0  0  0  0
   20.4231  -21.0916  -13.0111 O   0  0  0  0  0  0  0  0  0  0  0  0
   21.8588  -22.5914  -12.1188 O   0  0  0  0  0  0  0  0  0  0  0  0
  2  1  1  0
  3  4  1  0
  3  2  1  0
  5  4  1  0
  5  6  1  6
  7  5  1  0
  7  8  2  0
  9  7  1  0
 10  9  1  0
 10 11  1  1
 12 11  1  0
 12 17  1  0
 13 12  2  0
 14 13  1  0
 14 15  2  0
 15 16  1  0
 16 17  2  0
 18 10  1  0
 19 18  2  0
 20 18  1  0
 21 20  1  0
 21 29  1  0
 21 22  1  1
 23 22  1  0
 23 24  2  0
 25 24  1  0
 26 25  2  0
 27 28  2  0
 27 26  1  0
 28 23  1  0
 29 30  1  0
 31 29  2  0
M  END
$$$$
