MFF.pdb
     RDKit          3D

 31 32  0  0  1  0  0  0  0  0999 V2000
   13.4621  -12.1517  -15.3091 C   0  0  0  0  0  0  0  0  0  0  0  0
   14.0716  -11.3627  -16.8051 S   0  0  0  0  0  0  0  0  0  0  0  0
   15.8090  -10.8934  -16.6848 C   0  0  0  0  0  0  0  0  0  0  0  0
   16.2141  -10.6839  -15.2295 C   0  0  0  0  0  0  0  0  0  0  0  0
   17.6777  -10.3143  -15.2441 C   0  0  2  0  0  0  0  0  0  0  0  0
   18.4121  -11.5499  -15.4291 N   0  0  0  0  0  0  0  0  0  0  0  0
   18.1188   -9.6164  -14.0384 C   0  0  0  0  0  0  0  0  0  0  0  0
   18.3198  -10.3012  -13.0033 O   0  0  0  0  0  0  0  0  0  0  0  0
   18.3378   -8.2186  -13.9482 N   0  0  0  0  0  0  0  0  0  0  0  0
   18.7766   -7.6431  -12.7217 C   0  0  1  0  0  0  0  0  0  0  0  0
   20.1498   -7.0192  -12.8110 C   0  0  0  0  0  0  0  0  0  0  0  0
   21.2372   -7.9852  -13.0406 C   0  0  0  0  0  0  0  0  0  0  0  0
   21.7300   -8.7142  -11.9806 C   0  0  0  0  0  0  0  0  0  0  0  0
   22.7609   -9.6364  -12.1705 C   0  0  0  0  0  0  0  0  0  0  0  0
   23.2963   -9.8232  -13.4355 C   0  0  0  0  0  0  0  0  0  0  0  0
   22.8171   -9.1078  -14.4921 C   0  0  0  0  0  0  0  0  0  0  0  0
   21.7895   -8.1942  -14.2804 C   0  0  0  0  0  0  0  0  0  0  0  0
   17.8513   -6.6427  -12.1604 C   0  0  0  0  0  0  0  0  0  0  0  0
   17.3107   -5.8287  -12.9481 O   0  0  0  0  0  0  0  0  0  0  0  0
   17.5199   -6.5256  -10.7857 N   0  0  0  0  0  0  0  0  0  0  0  0
   16.6075   -5.4792  -10.2993 C   0  0  1  0  0  0  0  0  0  0  0  0
   15.2315   -5.8686  -10.7485 C   0  0  0  0  0  0  0  0  0  0  0  0
   14.6477   -7.0115  -10.0223 C   0  0  0  0  0  0  0  0  0  0  0  0
   13.8357   -6.7730   -8.9352 C   0  0  0  0  0  0  0  0  0  0  0  0
   13.2506   -7.7924   -8.2100 C   0  0  0  0  0  0  0  0  0  0  0  0
   13.4736   -9.0983   -8.5692 C   0  0  0  0  0  0  0  0  0  0  0  0
   14.2894   -9.3501   -9.6622 C   0  0  0  0  0  0  0  0  0  0  0  0
   14.8661   -8.3244  -10.3760 C   0  0  0  0  0  0  0  0  0  0  0  0
   16.7119   -5.4311   -8.8211 C   0  0  0  0  0  0  0  0  0  0  0  0
   15.9903   -4.4998   -8.0896 O   0  0  0  0  0  0  0  0  0  0  0  0
   17.4500   -6.2226   -8.1809 O   0  0  0  0  0  0  0  0  0  0  0  0
  2  1  1  0
  3  4  1  0
  3  2  1  0
  5  4  1  0
  5  6  1  1
  7  5  1  0
  7  8  2  0
  9  7  1  0
 10  9  1  0
 10 11  1  6
 12 11  1  0
 12 17  1  0
 13 12  2  0
 14 13  1  0
 14 15  2  0
 15 16  1  0
 16 17  2  0
 18 10  1  0
 19 18  2  0
 20 18  1  0
 21 20  1  0
 21 29  1  0
 21 22  1  1
 23 22  1  0
 23 24  2  0
 25 24  1  0
 26 25  2  0
 27 28  2  0
 27 26  1  0
 28 23  1  0
 29 30  1  0
 31 29  2  0
M  END
$$$$
