MFF.pdb
     RDKit          3D

 31 32  0  0  1  0  0  0  0  0999 V2000
   27.9572  -15.6153  -17.8705 C   0  0  0  0  0  0  0  0  0  0  0  0
   27.3889  -13.9168  -17.7149 S   0  0  0  0  0  0  0  0  0  0  0  0
   28.1429  -13.0567  -16.3203 C   0  0  0  0  0  0  0  0  0  0  0  0
   27.4866  -11.6972  -16.1032 C   0  0  0  0  0  0  0  0  0  0  0  0
   27.7603  -10.8888  -17.3485 C   0  0  2  0  0  0  0  0  0  0  0  0
   29.1838  -10.6179  -17.3584 N   0  0  0  0  0  0  0  0  0  0  0  0
   26.9891   -9.6500  -17.4252 C   0  0  0  0  0  0  0  0  0  0  0  0
   27.2347   -8.7516  -16.5806 O   0  0  0  0  0  0  0  0  0  0  0  0
   25.9801   -9.3844  -18.3850 N   0  0  0  0  0  0  0  0  0  0  0  0
   25.3135   -8.1259  -18.3895 C   0  0  1  0  0  0  0  0  0  0  0  0
   25.0149   -7.6119  -19.7786 C   0  0  0  0  0  0  0  0  0  0  0  0
   24.3343   -6.3064  -19.8051 C   0  0  0  0  0  0  0  0  0  0  0  0
   25.0620   -5.1589  -19.5777 C   0  0  0  0  0  0  0  0  0  0  0  0
   24.4414   -3.9084  -19.5967 C   0  0  0  0  0  0  0  0  0  0  0  0
   23.0809   -3.8162  -19.8462 C   0  0  0  0  0  0  0  0  0  0  0  0
   22.3503   -4.9443  -20.0726 C   0  0  0  0  0  0  0  0  0  0  0  0
   22.9888   -6.1801  -20.0491 C   0  0  0  0  0  0  0  0  0  0  0  0
   24.0624   -8.1039  -17.6110 C   0  0  0  0  0  0  0  0  0  0  0  0
   23.2256   -9.0180  -17.8094 O   0  0  0  0  0  0  0  0  0  0  0  0
   23.7254   -7.1208  -16.6449 N   0  0  0  0  0  0  0  0  0  0  0  0
   22.5711   -7.2854  -15.7480 C   0  0  1  0  0  0  0  0  0  0  0  0
   22.9084   -6.5617  -14.4794 C   0  0  0  0  0  0  0  0  0  0  0  0
   22.8707   -5.0911  -14.5814 C   0  0  0  0  0  0  0  0  0  0  0  0
   23.9698   -4.4234  -15.0756 C   0  0  0  0  0  0  0  0  0  0  0  0
   24.0052   -3.0488  -15.2044 C   0  0  0  0  0  0  0  0  0  0  0  0
   22.9154   -2.3018  -14.8321 C   0  0  0  0  0  0  0  0  0  0  0  0
   21.8033   -2.9637  -14.3333 C   0  0  0  0  0  0  0  0  0  0  0  0
   21.7817   -4.3342  -14.2103 C   0  0  0  0  0  0  0  0  0  0  0  0
   21.3840   -6.7012  -16.4171 C   0  0  0  0  0  0  0  0  0  0  0  0
   21.5289   -5.8601  -17.5102 O   0  0  0  0  0  0  0  0  0  0  0  0
   20.2140   -6.9419  -16.0243 O   0  0  0  0  0  0  0  0  0  0  0  0
  2  1  1  0
  3  4  1  0
  3  2  1  0
  5  4  1  0
  5  6  1  1
  7  5  1  0
  7  8  2  0
  9  7  1  0
 10  9  1  0
 10 11  1  6
 12 11  1  0
 12 17  1  0
 13 12  2  0
 14 13  1  0
 14 15  2  0
 15 16  1  0
 16 17  2  0
 18 10  1  0
 19 18  2  0
 20 18  1  0
 21 20  1  0
 21 29  1  0
 21 22  1  1
 23 22  1  0
 23 24  2  0
 25 24  1  0
 26 25  2  0
 27 28  2  0
 27 26  1  0
 28 23  1  0
 29 30  1  0
 31 29  2  0
M  END
$$$$
