MFF.pdb
     RDKit          3D

 31 32  0  0  1  0  0  0  0  0999 V2000
   25.5123  -20.5546   -6.7199 C   0  0  0  0  0  0  0  0  0  0  0  0
   27.2701  -20.4197   -7.0727 S   0  0  0  0  0  0  0  0  0  0  0  0
   27.6685  -20.8265   -8.7842 C   0  0  0  0  0  0  0  0  0  0  0  0
   26.4648  -20.5923   -9.6910 C   0  0  0  0  0  0  0  0  0  0  0  0
   26.8554  -21.1026  -11.0570 C   0  0  2  0  0  0  0  0  0  0  0  0
   28.1792  -20.5791  -11.3286 N   0  0  0  0  0  0  0  0  0  0  0  0
   25.9165  -20.7306  -12.1130 C   0  0  0  0  0  0  0  0  0  0  0  0
   25.8465  -19.5177  -12.4368 O   0  0  0  0  0  0  0  0  0  0  0  0
   25.0745  -21.6391  -12.8028 N   0  0  0  0  0  0  0  0  0  0  0  0
   24.2912  -21.1902  -13.9040 C   0  0  1  0  0  0  0  0  0  0  0  0
   24.8658  -21.5806  -15.2457 C   0  0  0  0  0  0  0  0  0  0  0  0
   26.1100  -20.8756  -15.5970 C   0  0  0  0  0  0  0  0  0  0  0  0
   26.0405  -19.6660  -16.2527 C   0  0  0  0  0  0  0  0  0  0  0  0
   27.2046  -18.9768  -16.5978 C   0  0  0  0  0  0  0  0  0  0  0  0
   28.4436  -19.5111  -16.2797 C   0  0  0  0  0  0  0  0  0  0  0  0
   28.5252  -20.7071  -15.6313 C   0  0  0  0  0  0  0  0  0  0  0  0
   27.3526  -21.3769  -15.2968 C   0  0  0  0  0  0  0  0  0  0  0  0
   22.8843  -21.6268  -13.8604 C   0  0  0  0  0  0  0  0  0  0  0  0
   22.6331  -22.7704  -13.4084 O   0  0  0  0  0  0  0  0  0  0  0  0
   21.7797  -20.8485  -14.2935 N   0  0  0  0  0  0  0  0  0  0  0  0
   20.4064  -21.3750  -14.2624 C   0  0  1  0  0  0  0  0  0  0  0  0
   19.5509  -20.3032  -13.6571 C   0  0  0  0  0  0  0  0  0  0  0  0
   19.8282  -20.0241  -12.2360 C   0  0  0  0  0  0  0  0  0  0  0  0
   19.3532  -20.8904  -11.2758 C   0  0  0  0  0  0  0  0  0  0  0  0
   19.5775  -20.6963   -9.9270 C   0  0  0  0  0  0  0  0  0  0  0  0
   20.2982  -19.6063   -9.5066 C   0  0  0  0  0  0  0  0  0  0  0  0
   20.7814  -18.7276  -10.4647 C   0  0  0  0  0  0  0  0  0  0  0  0
   20.5503  -18.9333  -11.8057 C   0  0  0  0  0  0  0  0  0  0  0  0
   20.0019  -21.6824  -15.6553 C   0  0  0  0  0  0  0  0  0  0  0  0
   20.7841  -21.2770  -16.7263 O   0  0  0  0  0  0  0  0  0  0  0  0
   18.9468  -22.3142  -15.9169 O   0  0  0  0  0  0  0  0  0  0  0  0
  2  1  1  0
  3  4  1  0
  3  2  1  0
  5  4  1  0
  5  6  1  6
  7  5  1  0
  7  8  2  0
  9  7  1  0
 10  9  1  0
 10 11  1  6
 12 11  1  0
 12 17  1  0
 13 12  2  0
 14 13  1  0
 14 15  2  0
 15 16  1  0
 16 17  2  0
 18 10  1  0
 19 18  2  0
 20 18  1  0
 21 20  1  0
 21 29  1  0
 21 22  1  6
 23 22  1  0
 23 24  2  0
 25 24  1  0
 26 25  2  0
 27 28  2  0
 27 26  1  0
 28 23  1  0
 29 30  1  0
 31 29  2  0
M  END
$$$$
