VAV.pdb
     RDKit          3D

 20 19  0  0  1  0  0  0  0  0999 V2000
   22.1297  -18.5305   14.7949 C   0  0  0  0  0  0  0  0  0  0  0  0
   23.2509  -18.3229   13.8208 C   0  0  1  0  0  0  0  0  0  0  0  0
   23.7747  -19.6745   13.3191 C   0  0  0  0  0  0  0  0  0  0  0  0
   22.8459  -17.5410   12.6006 C   0  0  2  0  0  0  0  0  0  0  0  0
   21.6814  -18.1833   12.0240 N   0  0  0  0  0  0  0  0  0  0  0  0
   23.9240  -17.3936   11.6135 C   0  0  0  0  0  0  0  0  0  0  0  0
   24.0107  -18.0287   10.5523 O   0  0  0  0  0  0  0  0  0  0  0  0
   26.5981  -14.8301   11.2498 C   0  0  0  0  0  0  0  0  0  0  0  0
   26.0900  -16.2537   11.0079 C   0  0  2  0  0  0  0  0  0  0  0  0
   24.9604  -16.4467   11.8865 N   0  0  0  0  0  0  0  0  0  0  0  0
   27.2086  -17.1616   11.3691 C   0  0  0  0  0  0  0  0  0  0  0  0
   27.2616  -17.6060   12.5433 O   0  0  0  0  0  0  0  0  0  0  0  0
   30.3569  -18.2175    8.5278 C   0  0  0  0  0  0  0  0  0  0  0  0
   29.8763  -19.1472    9.6065 C   0  0  1  0  0  0  0  0  0  0  0  0
   31.0007  -20.0811    9.9699 C   0  0  0  0  0  0  0  0  0  0  0  0
   29.3058  -18.4322   10.7939 C   0  0  2  0  0  0  0  0  0  0  0  0
   28.2186  -17.5536   10.4623 N   0  0  0  0  0  0  0  0  0  0  0  0
   30.3884  -17.6182   11.4005 C   0  0  0  0  0  0  0  0  0  0  0  0
   30.4860  -16.3712   11.1487 O   0  0  0  0  0  0  0  0  0  0  0  0
   31.3260  -18.1753   12.2555 O   0  0  0  0  0  0  0  0  0  0  0  0
  2  1  1  1
  2  4  1  0
  3  2  1  0
  4  5  1  6
  6 10  1  0
  6  4  1  0
  7  6  2  0
  9  8  1  1
  9 11  1  0
  9 10  1  0
 11 17  1  0
 12 11  2  0
 14 13  1  6
 14 16  1  0
 15 14  1  0
 16 18  1  0
 16 17  1  6
 18 19  2  0
 18 20  1  0
M  END
$$$$
