VAV.pdb
     RDKit          3D

 20 19  0  0  1  0  0  0  0  0999 V2000
   14.6232  -13.4704  -13.6500 C   0  0  0  0  0  0  0  0  0  0  0  0
   15.0642  -12.6555  -12.4709 C   0  0  1  0  0  0  0  0  0  0  0  0
   16.5553  -12.8860  -12.1946 C   0  0  0  0  0  0  0  0  0  0  0  0
   14.8896  -11.1740  -12.6688 C   0  0  2  0  0  0  0  0  0  0  0  0
   15.6016  -10.7968  -13.8737 N   0  0  0  0  0  0  0  0  0  0  0  0
   15.3205  -10.3729  -11.5152 C   0  0  0  0  0  0  0  0  0  0  0  0
   14.8612  -10.4709  -10.3678 O   0  0  0  0  0  0  0  0  0  0  0  0
   18.0190   -7.7724  -11.2067 C   0  0  0  0  0  0  0  0  0  0  0  0
   16.7631   -8.4775  -10.6882 C   0  0  2  0  0  0  0  0  0  0  0  0
   16.3496   -9.4009  -11.7185 N   0  0  0  0  0  0  0  0  0  0  0  0
   15.7449   -7.4159  -10.4827 C   0  0  0  0  0  0  0  0  0  0  0  0
   15.0408   -7.0661  -11.4630 O   0  0  0  0  0  0  0  0  0  0  0  0
   13.1824   -6.9802   -7.3321 C   0  0  0  0  0  0  0  0  0  0  0  0
   13.9761   -5.7427   -7.6442 C   0  0  1  0  0  0  0  0  0  0  0  0
   15.0218   -5.5622   -6.5753 C   0  0  0  0  0  0  0  0  0  0  0  0
   14.5515   -5.7414   -9.0283 C   0  0  2  0  0  0  0  0  0  0  0  0
   15.5244   -6.7764   -9.2423 N   0  0  0  0  0  0  0  0  0  0  0  0
   15.2151   -4.4319   -9.2459 C   0  0  0  0  0  0  0  0  0  0  0  0
   14.5269   -3.3649   -9.3716 O   0  0  0  0  0  0  0  0  0  0  0  0
   16.5942   -4.3183   -9.3202 O   0  0  0  0  0  0  0  0  0  0  0  0
  2  1  1  6
  2  4  1  0
  3  2  1  0
  4  5  1  6
  6 10  1  0
  6  4  1  0
  7  6  2  0
  9  8  1  6
  9 11  1  0
  9 10  1  0
 11 17  1  0
 12 11  2  0
 14 13  1  1
 14 16  1  0
 15 14  1  0
 16 18  1  0
 16 17  1  1
 18 19  2  0
 18 20  1  0
M  END
$$$$
