VAV.pdb
     RDKit          3D

 20 19  0  0  1  0  0  0  0  0999 V2000
   20.8017  -13.2661  -17.7492 C   0  0  0  0  0  0  0  0  0  0  0  0
   20.3828  -12.3419  -16.6449 C   0  0  1  0  0  0  0  0  0  0  0  0
   21.5087  -12.2048  -15.6123 C   0  0  0  0  0  0  0  0  0  0  0  0
   20.0645  -10.9496  -17.1187 C   0  0  2  0  0  0  0  0  0  0  0  0
   21.2258  -10.4395  -17.8202 N   0  0  0  0  0  0  0  0  0  0  0  0
   19.6457  -10.0441  -16.0402 C   0  0  0  0  0  0  0  0  0  0  0  0
   18.6259  -10.1826  -15.3489 O   0  0  0  0  0  0  0  0  0  0  0  0
   21.3298   -7.1550  -14.3849 C   0  0  0  0  0  0  0  0  0  0  0  0
   20.0543   -7.8473  -14.8722 C   0  0  2  0  0  0  0  0  0  0  0  0
   20.4703   -8.9108  -15.7559 N   0  0  0  0  0  0  0  0  0  0  0  0
   19.2762   -6.8169  -15.6060 C   0  0  0  0  0  0  0  0  0  0  0  0
   19.5544   -6.6058  -16.8132 O   0  0  0  0  0  0  0  0  0  0  0  0
   15.6397   -5.1091  -13.9684 C   0  0  0  0  0  0  0  0  0  0  0  0
   15.9571   -5.2534  -15.4304 C   0  0  1  0  0  0  0  0  0  0  0  0
   15.1071   -4.2795  -16.2034 C   0  0  0  0  0  0  0  0  0  0  0  0
   17.4187   -5.1208  -15.7351 C   0  0  2  0  0  0  0  0  0  0  0  0
   18.2378   -6.0593  -15.0195 N   0  0  0  0  0  0  0  0  0  0  0  0
   17.8429   -3.7514  -15.3514 C   0  0  0  0  0  0  0  0  0  0  0  0
   18.3895   -3.5311  -14.2197 O   0  0  0  0  0  0  0  0  0  0  0  0
   17.6637   -2.6696  -16.1988 O   0  0  0  0  0  0  0  0  0  0  0  0
  2  1  1  6
  2  4  1  0
  3  2  1  0
  4  5  1  1
  6 10  1  0
  6  4  1  0
  7  6  2  0
  9  8  1  6
  9 11  1  0
  9 10  1  0
 11 17  1  0
 12 11  2  0
 14 13  1  1
 14 16  1  0
 15 14  1  0
 16 18  1  0
 16 17  1  1
 18 19  2  0
 18 20  1  0
M  END
$$$$
