VAV.pdb
     RDKit          3D

 20 19  0  0  1  0  0  0  0  0999 V2000
   15.2376  -13.3206  -15.6198 C   0  0  0  0  0  0  0  0  0  0  0  0
   15.8380  -12.6039  -14.4473 C   0  0  1  0  0  0  0  0  0  0  0  0
   17.3075  -12.2657  -14.7281 C   0  0  0  0  0  0  0  0  0  0  0  0
   15.1529  -11.3030  -14.1267 C   0  0  2  0  0  0  0  0  0  0  0  0
   15.1631  -10.4855  -15.3236 N   0  0  0  0  0  0  0  0  0  0  0  0
   15.7452  -10.5937  -12.9846 C   0  0  0  0  0  0  0  0  0  0  0  0
   15.8224  -11.0400  -11.8305 O   0  0  0  0  0  0  0  0  0  0  0  0
   17.9816   -7.6639  -12.7984 C   0  0  0  0  0  0  0  0  0  0  0  0
   16.8681   -8.4942  -12.1548 C   0  0  2  0  0  0  0  0  0  0  0  0
   16.2778   -9.2856  -13.2086 N   0  0  0  0  0  0  0  0  0  0  0  0
   15.8892   -7.5221  -11.6048 C   0  0  0  0  0  0  0  0  0  0  0  0
   15.0156   -7.0528  -12.3767 O   0  0  0  0  0  0  0  0  0  0  0  0
   13.7457   -7.8499   -8.2405 C   0  0  0  0  0  0  0  0  0  0  0  0
   14.4981   -6.5507   -8.3099 C   0  0  1  0  0  0  0  0  0  0  0  0
   15.6502   -6.6122   -7.3418 C   0  0  0  0  0  0  0  0  0  0  0  0
   14.9240   -6.1864   -9.7001 C   0  0  2  0  0  0  0  0  0  0  0  0
   15.8866   -7.0951  -10.2581 N   0  0  0  0  0  0  0  0  0  0  0  0
   15.5382   -4.8363   -9.6507 C   0  0  0  0  0  0  0  0  0  0  0  0
   16.8013   -4.6902   -9.7571 O   0  0  0  0  0  0  0  0  0  0  0  0
   14.7716   -3.6933   -9.4886 O   0  0  0  0  0  0  0  0  0  0  0  0
  2  1  1  6
  2  4  1  0
  3  2  1  0
  4  5  1  6
  6 10  1  0
  6  4  1  0
  7  6  2  0
  9  8  1  6
  9 11  1  0
  9 10  1  0
 11 17  1  0
 12 11  2  0
 14 13  1  6
 14 16  1  0
 15 14  1  0
 16 18  1  0
 16 17  1  1
 18 19  2  0
 18 20  1  0
M  END
$$$$
