VAV.pdb
     RDKit          3D

 20 19  0  0  1  0  0  0  0  0999 V2000
   16.4772  -13.6644  -16.9127 C   0  0  0  0  0  0  0  0  0  0  0  0
   17.2905  -13.4987  -18.1617 C   0  0  1  0  0  0  0  0  0  0  0  0
   16.4982  -13.9901  -19.3797 C   0  0  0  0  0  0  0  0  0  0  0  0
   17.6677  -12.0696  -18.4445 C   0  0  2  0  0  0  0  0  0  0  0  0
   18.3267  -12.0280  -19.7348 N   0  0  0  0  0  0  0  0  0  0  0  0
   18.4985  -11.4633  -17.3954 C   0  0  0  0  0  0  0  0  0  0  0  0
   18.2215  -11.4474  -16.1870 O   0  0  0  0  0  0  0  0  0  0  0  0
   21.8117   -9.6892  -17.6364 C   0  0  0  0  0  0  0  0  0  0  0  0
   20.6084  -10.1997  -16.8396 C   0  0  2  0  0  0  0  0  0  0  0  0
   19.7248  -10.8397  -17.7856 N   0  0  0  0  0  0  0  0  0  0  0  0
   19.9692   -9.0017  -16.2380 C   0  0  0  0  0  0  0  0  0  0  0  0
   19.2471   -8.2792  -16.9700 O   0  0  0  0  0  0  0  0  0  0  0  0
   17.6364   -8.5148  -13.1539 C   0  0  0  0  0  0  0  0  0  0  0  0
   18.8719   -7.6715  -13.0079 C   0  0  1  0  0  0  0  0  0  0  0  0
   19.7569   -8.2958  -11.9613 C   0  0  0  0  0  0  0  0  0  0  0  0
   19.5831   -7.4331  -14.3056 C   0  0  2  0  0  0  0  0  0  0  0  0
   20.1291   -8.6291  -14.8846 N   0  0  0  0  0  0  0  0  0  0  0  0
   20.7019   -6.4929  -14.0473 C   0  0  0  0  0  0  0  0  0  0  0  0
   21.9121   -6.8964  -14.0736 O   0  0  0  0  0  0  0  0  0  0  0  0
   20.4781   -5.1537  -13.7704 O   0  0  0  0  0  0  0  0  0  0  0  0
  2  1  1  1
  2  4  1  0
  3  2  1  0
  4  5  1  6
  6 10  1  0
  6  4  1  0
  7  6  2  0
  9  8  1  6
  9 11  1  0
  9 10  1  0
 11 17  1  0
 12 11  2  0
 14 13  1  6
 14 16  1  0
 15 14  1  0
 16 18  1  0
 16 17  1  1
 18 19  2  0
 18 20  1  0
M  END
$$$$
