VAV.pdb
     RDKit          3D

 20 19  0  0  1  0  0  0  0  0999 V2000
   16.1366  -15.5801  -19.0753 C   0  0  0  0  0  0  0  0  0  0  0  0
   17.3409  -14.6893  -19.0040 C   0  0  1  0  0  0  0  0  0  0  0  0
   17.4859  -13.8883  -20.3040 C   0  0  0  0  0  0  0  0  0  0  0  0
   17.2755  -13.6836  -17.8864 C   0  0  2  0  0  0  0  0  0  0  0  0
   16.0066  -12.9897  -17.9830 N   0  0  0  0  0  0  0  0  0  0  0  0
   18.4043  -12.7434  -17.8763 C   0  0  0  0  0  0  0  0  0  0  0  0
   19.5952  -13.0607  -17.7407 O   0  0  0  0  0  0  0  0  0  0  0  0
   18.5072   -9.0461  -18.5246 C   0  0  0  0  0  0  0  0  0  0  0  0
   19.1512  -10.3393  -18.0184 C   0  0  2  0  0  0  0  0  0  0  0  0
   18.1206  -11.3507  -18.0343 N   0  0  0  0  0  0  0  0  0  0  0  0
   19.6062  -10.0624  -16.6320 C   0  0  0  0  0  0  0  0  0  0  0  0
   18.7689  -10.1531  -15.6994 O   0  0  0  0  0  0  0  0  0  0  0  0
   23.8007   -9.8491  -15.5826 C   0  0  0  0  0  0  0  0  0  0  0  0
   22.6751  -10.1958  -14.6490 C   0  0  1  0  0  0  0  0  0  0  0  0
   23.1400   -9.9714  -13.2341 C   0  0  0  0  0  0  0  0  0  0  0  0
   21.4000   -9.4738  -14.9648 C   0  0  2  0  0  0  0  0  0  0  0  0
   20.9322   -9.7017  -16.3038 N   0  0  0  0  0  0  0  0  0  0  0  0
   21.6465   -8.0193  -14.8033 C   0  0  0  0  0  0  0  0  0  0  0  0
   21.9210   -7.2883  -15.8124 O   0  0  0  0  0  0  0  0  0  0  0  0
   21.5889   -7.4046  -13.5626 O   0  0  0  0  0  0  0  0  0  0  0  0
  2  1  1  6
  2  4  1  0
  3  2  1  0
  4  5  1  6
  6 10  1  0
  6  4  1  0
  7  6  2  0
  9  8  1  1
  9 11  1  0
  9 10  1  0
 11 17  1  0
 12 11  2  0
 14 13  1  6
 14 16  1  0
 15 14  1  0
 16 18  1  0
 16 17  1  6
 18 19  2  0
 18 20  1  0
M  END
$$$$
