VAV.pdb
     RDKit          3D

 20 19  0  0  1  0  0  0  0  0999 V2000
   14.9971  -10.4741  -12.5628 C   0  0  0  0  0  0  0  0  0  0  0  0
   16.3144  -10.4160  -11.8483 C   0  0  1  0  0  0  0  0  0  0  0  0
   17.4214  -11.0108  -12.7277 C   0  0  0  0  0  0  0  0  0  0  0  0
   16.7467   -9.0164  -11.5039 C   0  0  2  0  0  0  0  0  0  0  0  0
   17.9272   -9.1060  -10.6676 N   0  0  0  0  0  0  0  0  0  0  0  0
   15.6927   -8.2172  -10.8645 C   0  0  0  0  0  0  0  0  0  0  0  0
   14.5719   -7.9986  -11.3473 O   0  0  0  0  0  0  0  0  0  0  0  0
   15.4170   -6.7938   -7.4220 C   0  0  0  0  0  0  0  0  0  0  0  0
   15.0373   -6.7723   -8.9049 C   0  0  2  0  0  0  0  0  0  0  0  0
   15.9688   -7.6410   -9.5851 N   0  0  0  0  0  0  0  0  0  0  0  0
   15.1938   -5.3653   -9.3540 C   0  0  0  0  0  0  0  0  0  0  0  0
   16.3278   -4.9838   -9.7382 O   0  0  0  0  0  0  0  0  0  0  0  0
   12.8252   -3.3571  -11.9234 C   0  0  0  0  0  0  0  0  0  0  0  0
   13.0339   -2.6302  -10.6246 C   0  0  1  0  0  0  0  0  0  0  0  0
   11.7712   -2.7332   -9.8099 C   0  0  0  0  0  0  0  0  0  0  0  0
   14.2489   -3.0899   -9.8769 C   0  0  2  0  0  0  0  0  0  0  0  0
   14.1348   -4.4303   -9.3727 N   0  0  0  0  0  0  0  0  0  0  0  0
   14.4474   -2.1780   -8.7231 C   0  0  0  0  0  0  0  0  0  0  0  0
   14.8872   -0.9929   -8.8966 O   0  0  0  0  0  0  0  0  0  0  0  0
   14.1658   -2.5743   -7.4253 O   0  0  0  0  0  0  0  0  0  0  0  0
  2  1  1  6
  2  4  1  0
  3  2  1  0
  4  5  1  1
  6 10  1  0
  6  4  1  0
  7  6  2  0
  9  8  1  1
  9 11  1  0
  9 10  1  0
 11 17  1  0
 12 11  2  0
 14 13  1  6
 14 16  1  0
 15 14  1  0
 16 18  1  0
 16 17  1  1
 18 19  2  0
 18 20  1  0
M  END
$$$$
