EAD.pdb
     RDKit          3D

 23 22  0  0  1  0  0  0  0  0999 V2000
    8.1841  -14.7625   19.1305 N   0  0  0  0  0  0  0  0  0  0  0  0
    7.5342  -15.3665   20.2244 C   0  0  1  0  0  0  0  0  0  0  0  0
    7.2948  -16.8358   20.1805 C   0  0  0  0  0  0  0  0  0  0  0  0
    6.9588  -17.3468   18.8328 C   0  0  0  0  0  0  0  0  0  0  0  0
    6.6703  -18.7791   18.7902 C   0  0  0  0  0  0  0  0  0  0  0  0
    5.4542  -19.1433   19.0396 O   0  0  0  0  0  0  0  0  0  0  0  0
    8.2266  -15.0945   21.5509 C   0  0  0  0  0  0  0  0  0  0  0  0
    9.4808  -15.2307   21.4584 O   0  0  0  0  0  0  0  0  0  0  0  0
    7.5362  -19.7801   18.5193 O   0  0  0  0  0  0  0  0  0  0  0  0
    7.4187  -13.8260   25.0211 C   0  0  0  0  0  0  0  0  0  0  0  0
    8.2123  -14.5770   23.9981 C   0  0  2  0  0  0  0  0  0  0  0  0
    7.5950  -14.7387   22.7304 N   0  0  0  0  0  0  0  0  0  0  0  0
    8.7884  -15.7949   24.6189 C   0  0  0  0  0  0  0  0  0  0  0  0
    8.1696  -16.8681   24.6791 O   0  0  0  0  0  0  0  0  0  0  0  0
   10.0987  -15.8084   25.1924 N   0  0  0  0  0  0  0  0  0  0  0  0
   10.6450  -17.0606   25.7607 C   0  0  1  0  0  0  0  0  0  0  0  0
   12.1309  -17.1155   25.5438 C   0  0  0  0  0  0  0  0  0  0  0  0
   12.5374  -17.0602   24.1363 C   0  0  0  0  0  0  0  0  0  0  0  0
   12.3772  -18.0550   23.3671 O   0  0  0  0  0  0  0  0  0  0  0  0
   10.2545  -17.0950   27.1886 C   0  0  0  0  0  0  0  0  0  0  0  0
   10.5175  -18.2264   27.9436 O   0  0  0  0  0  0  0  0  0  0  0  0
   13.1080  -15.9401   23.5934 O   0  0  0  0  0  0  0  0  0  0  0  0
    9.6942  -16.1464   27.7570 O   0  0  0  0  0  0  0  0  0  0  0  0
  2  3  1  0
  2  1  1  6
  3  4  1  0
  4  5  1  0
  5  6  2  0
  5  9  1  0
  7  8  2  0
  7  2  1  0
 11 10  1  1
 11 13  1  0
 11 12  1  0
 12  7  1  0
 13 15  1  0
 14 13  2  0
 15 16  1  0
 16 17  1  1
 17 18  1  0
 18 19  2  0
 18 22  1  0
 20 16  1  0
 21 20  1  0
 23 20  2  0
M  END
$$$$
