EAD.pdb
     RDKit          3D

 23 22  0  0  1  0  0  0  0  0999 V2000
    8.2255  -16.4058   17.3948 N   0  0  0  0  0  0  0  0  0  0  0  0
    7.4294  -16.5424   18.5485 C   0  0  1  0  0  0  0  0  0  0  0  0
    6.9535  -17.9036   18.9213 C   0  0  0  0  0  0  0  0  0  0  0  0
    6.2287  -18.6016   17.8359 C   0  0  0  0  0  0  0  0  0  0  0  0
    5.6583  -19.8890   18.2282 C   0  0  0  0  0  0  0  0  0  0  0  0
    5.0134  -20.5489   17.3215 O   0  0  0  0  0  0  0  0  0  0  0  0
    8.0877  -15.9729   19.7956 C   0  0  0  0  0  0  0  0  0  0  0  0
    9.3280  -16.2203   19.8221 O   0  0  0  0  0  0  0  0  0  0  0  0
    5.7249  -20.4770   19.4426 O   0  0  0  0  0  0  0  0  0  0  0  0
    7.1561  -13.9029   22.8379 C   0  0  0  0  0  0  0  0  0  0  0  0
    8.0280  -14.7772   21.9918 C   0  0  2  0  0  0  0  0  0  0  0  0
    7.4416  -15.2659   20.7953 N   0  0  0  0  0  0  0  0  0  0  0  0
    8.7114  -15.7724   22.8537 C   0  0  0  0  0  0  0  0  0  0  0  0
    8.2631  -16.9142   23.0371 O   0  0  0  0  0  0  0  0  0  0  0  0
    9.9349  -15.4764   23.5333 N   0  0  0  0  0  0  0  0  0  0  0  0
   10.6102  -16.5235   24.3313 C   0  0  1  0  0  0  0  0  0  0  0  0
   12.0985  -16.3214   24.2858 C   0  0  0  0  0  0  0  0  0  0  0  0
   12.8656  -17.3154   25.0428 C   0  0  0  0  0  0  0  0  0  0  0  0
   12.2904  -18.2800   25.6306 O   0  0  0  0  0  0  0  0  0  0  0  0
   10.0464  -16.4573   25.6988 C   0  0  0  0  0  0  0  0  0  0  0  0
   10.2342  -17.5184   26.5694 O   0  0  0  0  0  0  0  0  0  0  0  0
   14.2288  -17.2452   25.1512 O   0  0  0  0  0  0  0  0  0  0  0  0
    9.4027  -15.4833   26.1159 O   0  0  0  0  0  0  0  0  0  0  0  0
  2  3  1  0
  2  1  1  6
  3  4  1  0
  4  5  1  0
  5  6  2  0
  5  9  1  0
  7  8  2  0
  7  2  1  0
 11 10  1  1
 11 13  1  0
 11 12  1  0
 12  7  1  0
 13 15  1  0
 14 13  2  0
 15 16  1  0
 16 17  1  1
 17 18  1  0
 18 19  2  0
 18 22  1  0
 20 16  1  0
 21 20  1  0
 23 20  2  0
M  END
$$$$
