EAD.pdb
     RDKit          3D

 23 22  0  0  1  0  0  0  0  0999 V2000
    6.3668  -15.9777   19.0683 N   0  0  0  0  0  0  0  0  0  0  0  0
    7.7748  -15.9541   19.0430 C   0  0  1  0  0  0  0  0  0  0  0  0
    8.4492  -15.1985   17.9510 C   0  0  0  0  0  0  0  0  0  0  0  0
    7.5128  -14.5459   17.0088 C   0  0  0  0  0  0  0  0  0  0  0  0
    7.9492  -14.5753   15.6141 C   0  0  0  0  0  0  0  0  0  0  0  0
    8.8811  -13.7464   15.2703 O   0  0  0  0  0  0  0  0  0  0  0  0
    8.3840  -15.4473   20.3410 C   0  0  0  0  0  0  0  0  0  0  0  0
    9.6448  -15.3750   20.2670 O   0  0  0  0  0  0  0  0  0  0  0  0
    7.4862  -15.3753   14.6289 O   0  0  0  0  0  0  0  0  0  0  0  0
    7.3553  -13.9761   23.6585 C   0  0  0  0  0  0  0  0  0  0  0  0
    8.2311  -14.7766   22.7458 C   0  0  2  0  0  0  0  0  0  0  0  0
    7.6774  -15.0980   21.4792 N   0  0  0  0  0  0  0  0  0  0  0  0
    8.8459  -15.8918   23.5067 C   0  0  0  0  0  0  0  0  0  0  0  0
    8.2726  -16.9786   23.6755 O   0  0  0  0  0  0  0  0  0  0  0  0
   10.1435  -15.7833   24.0989 N   0  0  0  0  0  0  0  0  0  0  0  0
   10.7328  -16.9411   24.8071 C   0  0  1  0  0  0  0  0  0  0  0  0
   12.2311  -16.8980   24.6999 C   0  0  0  0  0  0  0  0  0  0  0  0
   12.7326  -16.6923   23.3377 C   0  0  0  0  0  0  0  0  0  0  0  0
   12.3598  -17.4364   22.3815 O   0  0  0  0  0  0  0  0  0  0  0  0
   10.2386  -16.8933   26.2020 C   0  0  0  0  0  0  0  0  0  0  0  0
    9.5838  -15.7610   26.6584 O   0  0  0  0  0  0  0  0  0  0  0  0
   13.6232  -15.6959   23.0393 O   0  0  0  0  0  0  0  0  0  0  0  0
   10.3811  -17.8313   27.0000 O   0  0  0  0  0  0  0  0  0  0  0  0
  2  3  1  0
  2  1  1  1
  3  4  1  0
  4  5  1  0
  5  6  2  0
  5  9  1  0
  7  8  2  0
  7  2  1  0
 11 10  1  1
 11 13  1  0
 11 12  1  0
 12  7  1  0
 13 15  1  0
 14 13  2  0
 15 16  1  0
 16 17  1  1
 17 18  1  0
 18 19  2  0
 18 22  1  0
 20 16  1  0
 21 20  1  0
 23 20  2  0
M  END
$$$$
