EAD.pdb
     RDKit          3D

 23 22  0  0  1  0  0  0  0  0999 V2000
    8.0743  -15.6734   15.5046 N   0  0  0  0  0  0  0  0  0  0  0  0
    8.5543  -16.2721   16.6857 C   0  0  1  0  0  0  0  0  0  0  0  0
    9.7420  -17.1659   16.5925 C   0  0  0  0  0  0  0  0  0  0  0  0
   10.7822  -16.6823   15.6574 C   0  0  0  0  0  0  0  0  0  0  0  0
   11.9439  -17.5626   15.5466 C   0  0  0  0  0  0  0  0  0  0  0  0
   11.7174  -18.8357   15.5089 O   0  0  0  0  0  0  0  0  0  0  0  0
    8.8753  -15.2615   17.7760 C   0  0  0  0  0  0  0  0  0  0  0  0
   10.1131  -15.2336   18.0356 O   0  0  0  0  0  0  0  0  0  0  0  0
   13.2430  -17.1979   15.4802 O   0  0  0  0  0  0  0  0  0  0  0  0
    7.0836  -12.7043   19.9352 C   0  0  0  0  0  0  0  0  0  0  0  0
    8.2194  -13.5812   19.5088 C   0  0  2  0  0  0  0  0  0  0  0  0
    7.9540  -14.4557   18.4231 N   0  0  0  0  0  0  0  0  0  0  0  0
    8.8550  -14.1810   20.7075 C   0  0  0  0  0  0  0  0  0  0  0  0
    9.2697  -13.4958   21.6546 O   0  0  0  0  0  0  0  0  0  0  0  0
    9.0331  -15.5934   20.8469 N   0  0  0  0  0  0  0  0  0  0  0  0
    9.5776  -16.1501   22.1051 C   0  0  1  0  0  0  0  0  0  0  0  0
    9.1868  -17.5951   22.2367 C   0  0  0  0  0  0  0  0  0  0  0  0
    9.7702  -18.2743   23.3975 C   0  0  0  0  0  0  0  0  0  0  0  0
   11.0240  -18.4254   23.5082 O   0  0  0  0  0  0  0  0  0  0  0  0
   11.0422  -15.9342   22.0764 C   0  0  0  0  0  0  0  0  0  0  0  0
   11.7627  -15.9670   23.2592 O   0  0  0  0  0  0  0  0  0  0  0  0
    8.9921  -18.7761   24.4065 O   0  0  0  0  0  0  0  0  0  0  0  0
   11.6717  -15.7223   21.0297 O   0  0  0  0  0  0  0  0  0  0  0  0
  2  3  1  0
  2  1  1  6
  3  4  1  0
  4  5  1  0
  5  6  2  0
  5  9  1  0
  7  8  2  0
  7  2  1  0
 11 10  1  1
 11 13  1  0
 11 12  1  0
 12  7  1  0
 13 15  1  0
 14 13  2  0
 15 16  1  0
 16 17  1  6
 17 18  1  0
 18 19  2  0
 18 22  1  0
 20 16  1  0
 21 20  1  0
 23 20  2  0
M  END
$$$$
