EAD.pdb
     RDKit          3D

 23 22  0  0  1  0  0  0  0  0999 V2000
    7.5177  -18.1290   19.5449 N   0  0  0  0  0  0  0  0  0  0  0  0
    8.6476  -17.4050   19.1170 C   0  0  1  0  0  0  0  0  0  0  0  0
    8.8863  -17.2684   17.6534 C   0  0  0  0  0  0  0  0  0  0  0  0
    7.6548  -17.0370   16.8657 C   0  0  0  0  0  0  0  0  0  0  0  0
    7.8608  -17.0365   15.4186 C   0  0  0  0  0  0  0  0  0  0  0  0
    9.0680  -17.2278   14.9948 O   0  0  0  0  0  0  0  0  0  0  0  0
    8.6989  -15.9945   19.6832 C   0  0  0  0  0  0  0  0  0  0  0  0
    7.8430  -15.2411   19.1354 O   0  0  0  0  0  0  0  0  0  0  0  0
    6.9266  -16.8555   14.4597 O   0  0  0  0  0  0  0  0  0  0  0  0
    7.7642  -14.8088   22.2011 C   0  0  0  0  0  0  0  0  0  0  0  0
    9.1989  -15.1833   21.9959 C   0  0  2  0  0  0  0  0  0  0  0  0
    9.5598  -15.5561   20.6750 N   0  0  0  0  0  0  0  0  0  0  0  0
    9.6312  -16.0916   23.0863 C   0  0  0  0  0  0  0  0  0  0  0  0
    9.0769  -17.1790   23.3062 O   0  0  0  0  0  0  0  0  0  0  0  0
   10.7177  -15.7683   23.9587 N   0  0  0  0  0  0  0  0  0  0  0  0
   11.1994  -16.7644   24.9411 C   0  0  1  0  0  0  0  0  0  0  0  0
   12.6597  -16.5443   25.2190 C   0  0  0  0  0  0  0  0  0  0  0  0
   13.5179  -16.6227   24.0329 C   0  0  0  0  0  0  0  0  0  0  0  0
   13.2564  -17.4228   23.0851 O   0  0  0  0  0  0  0  0  0  0  0  0
   10.3435  -16.6370   26.1426 C   0  0  0  0  0  0  0  0  0  0  0  0
    9.4192  -15.6079   26.2193 O   0  0  0  0  0  0  0  0  0  0  0  0
   14.6354  -15.8430   23.8978 O   0  0  0  0  0  0  0  0  0  0  0  0
   10.4099  -17.4179   27.1031 O   0  0  0  0  0  0  0  0  0  0  0  0
  2  3  1  0
  2  1  1  6
  3  4  1  0
  4  5  1  0
  5  6  2  0
  5  9  1  0
  7  8  2  0
  7  2  1  0
 11 10  1  6
 11 13  1  0
 11 12  1  0
 12  7  1  0
 13 15  1  0
 14 13  2  0
 15 16  1  0
 16 17  1  1
 17 18  1  0
 18 19  2  0
 18 22  1  0
 20 16  1  0
 21 20  1  0
 23 20  2  0
M  END
$$$$
