EAD.pdb
     RDKit          3D

 23 22  0  0  1  0  0  0  0  0999 V2000
   10.7365  -17.0289   16.3237 N   0  0  0  0  0  0  0  0  0  0  0  0
   11.3480  -17.8765   17.2679 C   0  0  1  0  0  0  0  0  0  0  0  0
   12.5904  -18.5957   16.8714 C   0  0  0  0  0  0  0  0  0  0  0  0
   13.1667  -18.1317   15.5896 C   0  0  0  0  0  0  0  0  0  0  0  0
   14.3734  -18.8485   15.1812 C   0  0  0  0  0  0  0  0  0  0  0  0
   14.2135  -19.9011   14.4462 O   0  0  0  0  0  0  0  0  0  0  0  0
   11.6711  -17.1727   18.5767 C   0  0  0  0  0  0  0  0  0  0  0  0
   12.8080  -16.6192   18.5399 O   0  0  0  0  0  0  0  0  0  0  0  0
   15.6521  -18.5378   15.4867 O   0  0  0  0  0  0  0  0  0  0  0  0
   10.0178  -16.4449   21.9164 C   0  0  0  0  0  0  0  0  0  0  0  0
   11.1283  -16.4626   20.9129 C   0  0  2  0  0  0  0  0  0  0  0  0
   10.8473  -17.1225   19.6883 N   0  0  0  0  0  0  0  0  0  0  0  0
   12.3974  -16.8258   21.5897 C   0  0  0  0  0  0  0  0  0  0  0  0
   12.9037  -17.9540   21.4944 O   0  0  0  0  0  0  0  0  0  0  0  0
   13.1196  -15.8948   22.4008 N   0  0  0  0  0  0  0  0  0  0  0  0
   14.3465  -16.3251   23.1072 C   0  0  1  0  0  0  0  0  0  0  0  0
   15.3914  -15.2487   23.0199 C   0  0  0  0  0  0  0  0  0  0  0  0
   16.6453  -15.5680   23.7092 C   0  0  0  0  0  0  0  0  0  0  0  0
   17.1439  -14.7770   24.5651 O   0  0  0  0  0  0  0  0  0  0  0  0
   13.9534  -16.6558   24.4960 C   0  0  0  0  0  0  0  0  0  0  0  0
   14.7684  -17.4729   25.2624 O   0  0  0  0  0  0  0  0  0  0  0  0
   17.3319  -16.7261   23.4589 O   0  0  0  0  0  0  0  0  0  0  0  0
   12.9136  -16.2318   25.0211 O   0  0  0  0  0  0  0  0  0  0  0  0
  2  3  1  0
  2  1  1  6
  3  4  1  0
  4  5  1  0
  5  6  2  0
  5  9  1  0
  7  8  2  0
  7  2  1  0
 11 10  1  1
 11 13  1  0
 11 12  1  0
 12  7  1  0
 13 15  1  0
 14 13  2  0
 15 16  1  0
 16 17  1  1
 17 18  1  0
 18 19  2  0
 18 22  1  0
 20 16  1  0
 21 20  1  0
 23 20  2  0
M  END
$$$$
