EAD.pdb
     RDKit          3D

 23 22  0  0  1  0  0  0  0  0999 V2000
    7.5468  -17.7752   17.9500 N   0  0  0  0  0  0  0  0  0  0  0  0
    8.8687  -17.2895   17.9696 C   0  0  1  0  0  0  0  0  0  0  0  0
    9.5125  -16.9407   16.6727 C   0  0  0  0  0  0  0  0  0  0  0  0
    8.5562  -16.5179   15.6252 C   0  0  0  0  0  0  0  0  0  0  0  0
    8.7433  -17.1861   14.3386 C   0  0  0  0  0  0  0  0  0  0  0  0
    9.8528  -17.8279   14.1634 O   0  0  0  0  0  0  0  0  0  0  0  0
    9.0408  -16.0712   18.8635 C   0  0  0  0  0  0  0  0  0  0  0  0
   10.2549  -15.7279   18.9547 O   0  0  0  0  0  0  0  0  0  0  0  0
    7.8832  -17.2107   13.2972 O   0  0  0  0  0  0  0  0  0  0  0  0
    6.9146  -13.6741   20.8974 C   0  0  0  0  0  0  0  0  0  0  0  0
    8.1717  -14.3707   20.4789 C   0  0  2  0  0  0  0  0  0  0  0  0
    8.0193  -15.3967   19.5103 N   0  0  0  0  0  0  0  0  0  0  0  0
    8.9736  -14.7036   21.6817 C   0  0  0  0  0  0  0  0  0  0  0  0
    9.2153  -13.8741   22.5715 O   0  0  0  0  0  0  0  0  0  0  0  0
    9.5236  -16.0073   21.8915 N   0  0  0  0  0  0  0  0  0  0  0  0
   10.3497  -16.2781   23.0888 C   0  0  1  0  0  0  0  0  0  0  0  0
    9.8249  -17.4876   23.8098 C   0  0  0  0  0  0  0  0  0  0  0  0
   10.6272  -17.8951   24.9672 C   0  0  0  0  0  0  0  0  0  0  0  0
   11.6107  -17.1996   25.3620 O   0  0  0  0  0  0  0  0  0  0  0  0
   11.7483  -16.4267   22.6258 C   0  0  0  0  0  0  0  0  0  0  0  0
   12.7813  -16.4055   23.5486 O   0  0  0  0  0  0  0  0  0  0  0  0
   10.3543  -19.0398   25.6675 O   0  0  0  0  0  0  0  0  0  0  0  0
   12.0511  -16.5729   21.4326 O   0  0  0  0  0  0  0  0  0  0  0  0
  2  3  1  0
  2  1  1  6
  3  4  1  0
  4  5  1  0
  5  6  2  0
  5  9  1  0
  7  8  2  0
  7  2  1  0
 11 10  1  1
 11 13  1  0
 11 12  1  0
 12  7  1  0
 13 15  1  0
 14 13  2  0
 15 16  1  0
 16 17  1  6
 17 18  1  0
 18 19  2  0
 18 22  1  0
 20 16  1  0
 21 20  1  0
 23 20  2  0
M  END
$$$$
