EAD.pdb
     RDKit          3D

 23 22  0  0  1  0  0  0  0  0999 V2000
    8.5210  -17.3746   17.3895 N   0  0  0  0  0  0  0  0  0  0  0  0
    7.7595  -17.3397   18.5739 C   0  0  1  0  0  0  0  0  0  0  0  0
    7.1532  -18.6096   19.0617 C   0  0  0  0  0  0  0  0  0  0  0  0
    8.1420  -19.6730   19.3477 C   0  0  0  0  0  0  0  0  0  0  0  0
    7.5499  -20.9625   19.6990 C   0  0  0  0  0  0  0  0  0  0  0  0
    7.8146  -21.4319   20.8751 O   0  0  0  0  0  0  0  0  0  0  0  0
    8.5232  -16.7598   19.7543 C   0  0  0  0  0  0  0  0  0  0  0  0
    9.7139  -17.1852   19.7934 O   0  0  0  0  0  0  0  0  0  0  0  0
    6.7502  -21.7321   18.9289 O   0  0  0  0  0  0  0  0  0  0  0  0
    7.9356  -14.3618   22.6415 C   0  0  0  0  0  0  0  0  0  0  0  0
    8.7195  -15.2950   21.7724 C   0  0  2  0  0  0  0  0  0  0  0  0
    8.0114  -15.8739   20.6871 N   0  0  0  0  0  0  0  0  0  0  0  0
    9.5036  -16.2208   22.6260 C   0  0  0  0  0  0  0  0  0  0  0  0
    9.1028  -17.3574   22.9189 O   0  0  0  0  0  0  0  0  0  0  0  0
   10.7761  -15.8590   23.1702 N   0  0  0  0  0  0  0  0  0  0  0  0
   11.5357  -16.8319   23.9861 C   0  0  1  0  0  0  0  0  0  0  0  0
   12.9998  -16.4953   23.9525 C   0  0  0  0  0  0  0  0  0  0  0  0
   13.5738  -16.4339   22.6048 C   0  0  0  0  0  0  0  0  0  0  0  0
   13.3790  -17.3635   21.7653 O   0  0  0  0  0  0  0  0  0  0  0  0
   10.9539  -16.8036   25.3474 C   0  0  0  0  0  0  0  0  0  0  0  0
   11.4193  -17.6848   26.3097 O   0  0  0  0  0  0  0  0  0  0  0  0
   14.3441  -15.3783   22.1958 O   0  0  0  0  0  0  0  0  0  0  0  0
   10.0549  -16.0174   25.6798 O   0  0  0  0  0  0  0  0  0  0  0  0
  2  3  1  0
  2  1  1  6
  3  4  1  0
  4  5  1  0
  5  6  2  0
  5  9  1  0
  7  8  2  0
  7  2  1  0
 11 10  1  1
 11 13  1  0
 11 12  1  0
 12  7  1  0
 13 15  1  0
 14 13  2  0
 15 16  1  0
 16 17  1  1
 17 18  1  0
 18 19  2  0
 18 22  1  0
 20 16  1  0
 21 20  1  0
 23 20  2  0
M  END
$$$$
