SYM.pdb
     RDKit          3D

 27 27  0  0  1  0  0  0  0  0999 V2000
    9.2164  -19.6549   22.5423 O   0  0  0  0  0  0  0  0  0  0  0  0
    7.9827  -19.5419   21.9038 C   0  0  0  0  0  0  0  0  0  0  0  0
    8.0904  -18.5998   20.6970 C   0  0  2  0  0  0  0  0  0  0  0  0
    8.5492  -19.3741   19.5937 N   0  0  0  0  0  0  0  0  0  0  0  0
    9.0440  -17.4915   21.0463 C   0  0  0  0  0  0  0  0  0  0  0  0
   10.2505  -17.5755   20.7025 O   0  0  0  0  0  0  0  0  0  0  0  0
    7.1354  -12.7250   16.6511 O   0  0  0  0  0  0  0  0  0  0  0  0
    7.5163  -13.0332   17.9493 C   0  0  0  0  0  0  0  0  0  0  0  0
    8.7989  -12.8309   18.4043 C   0  0  0  0  0  0  0  0  0  0  0  0
    9.1704  -13.1394   19.6951 C   0  0  0  0  0  0  0  0  0  0  0  0
    8.2563  -13.6758   20.6089 C   0  0  0  0  0  0  0  0  0  0  0  0
    8.7132  -14.0151   21.9584 C   0  0  0  0  0  0  0  0  0  0  0  0
    9.5134  -15.2546   22.1200 C   0  0  2  0  0  0  0  0  0  0  0  0
    8.6008  -16.3624   21.7532 N   0  0  0  0  0  0  0  0  0  0  0  0
    9.9671  -15.4936   23.5008 C   0  0  0  0  0  0  0  0  0  0  0  0
   10.8547  -14.6776   23.9529 O   0  0  0  0  0  0  0  0  0  0  0  0
    6.9813  -13.8678   20.1283 C   0  0  0  0  0  0  0  0  0  0  0  0
    6.6072  -13.5600   18.8372 C   0  0  0  0  0  0  0  0  0  0  0  0
   11.1881  -14.0856   29.5315 C   0  0  0  0  0  0  0  0  0  0  0  0
    9.7705  -13.8958   28.4493 S   0  0  0  0  0  0  0  0  0  0  0  0
    9.0434  -15.4553   27.9643 C   0  0  0  0  0  0  0  0  0  0  0  0
    8.8819  -15.6931   26.5191 C   0  0  0  0  0  0  0  0  0  0  0  0
    9.9444  -16.4621   25.7760 C   0  0  2  0  0  0  0  0  0  0  0  0
    9.5194  -16.5147   24.3586 N   0  0  0  0  0  0  0  0  0  0  0  0
   10.1161  -17.8113   26.3011 C   0  0  0  0  0  0  0  0  0  0  0  0
    9.6171  -18.7957   25.7072 O   0  0  0  0  0  0  0  0  0  0  0  0
   10.8247  -18.1359   27.4696 O   0  0  0  0  0  0  0  0  0  0  0  0
  2  1  1  0
  3  2  1  0
  3  5  1  0
  3  4  1  6
  5  6  2  0
  8  7  1  0
  8 18  2  0
  9  8  1  0
 10  9  2  0
 10 11  1  0
 11 17  2  0
 13 12  1  1
 12 11  1  0
 14  5  1  0
 14 13  1  0
 15 24  1  0
 15 13  1  0
 16 15  2  0
 17 18  1  0
 20 21  1  0
 20 19  1  0
 21 22  1  0
 23 24  1  0
 23 22  1  1
 25 23  1  0
 26 25  2  0
 27 25  1  0
M  END
$$$$
