SYM.pdb
     RDKit          3D

 27 27  0  0  1  0  0  0  0  0999 V2000
   11.0631  -19.5145   20.7042 O   0  0  0  0  0  0  0  0  0  0  0  0
   11.4460  -18.7649   19.5933 C   0  0  0  0  0  0  0  0  0  0  0  0
   10.4245  -17.6519   19.3223 C   0  0  2  0  0  0  0  0  0  0  0  0
   10.8659  -16.9424   18.1694 N   0  0  0  0  0  0  0  0  0  0  0  0
   10.3534  -16.7696   20.5372 C   0  0  0  0  0  0  0  0  0  0  0  0
   11.2677  -15.9345   20.7557 O   0  0  0  0  0  0  0  0  0  0  0  0
    5.6767  -12.2899   26.7207 O   0  0  0  0  0  0  0  0  0  0  0  0
    6.1516  -13.0752   25.6801 C   0  0  0  0  0  0  0  0  0  0  0  0
    6.0019  -14.4428   25.6668 C   0  0  0  0  0  0  0  0  0  0  0  0
    6.4761  -15.2169   24.6298 C   0  0  0  0  0  0  0  0  0  0  0  0
    7.1358  -14.6459   23.5357 C   0  0  0  0  0  0  0  0  0  0  0  0
    7.6478  -15.5189   22.4770 C   0  0  0  0  0  0  0  0  0  0  0  0
    9.0799  -15.9039   22.5385 C   0  0  2  0  0  0  0  0  0  0  0  0
    9.2756  -16.8684   21.4313 N   0  0  0  0  0  0  0  0  0  0  0  0
    9.4599  -16.5826   23.7893 C   0  0  0  0  0  0  0  0  0  0  0  0
    9.9176  -17.7798   23.6659 O   0  0  0  0  0  0  0  0  0  0  0  0
    7.2719  -13.2772   23.5741 C   0  0  0  0  0  0  0  0  0  0  0  0
    6.7983  -12.5005   24.6106 C   0  0  0  0  0  0  0  0  0  0  0  0
   10.3839  -12.8505   29.0257 C   0  0  0  0  0  0  0  0  0  0  0  0
   11.3312  -14.2890   29.5256 S   0  0  0  0  0  0  0  0  0  0  0  0
   11.3184  -15.5967   28.3066 C   0  0  0  0  0  0  0  0  0  0  0  0
   10.4254  -15.4176   27.1483 C   0  0  0  0  0  0  0  0  0  0  0  0
   10.3777  -16.4835   26.0834 C   0  0  2  0  0  0  0  0  0  0  0  0
    9.3745  -16.0451   25.0865 N   0  0  0  0  0  0  0  0  0  0  0  0
   10.0133  -17.7870   26.6254 C   0  0  0  0  0  0  0  0  0  0  0  0
   10.8838  -18.5352   27.1286 O   0  0  0  0  0  0  0  0  0  0  0  0
    8.7125  -18.3166   26.6418 O   0  0  0  0  0  0  0  0  0  0  0  0
  2  1  1  0
  3  2  1  0
  3  5  1  0
  3  4  1  6
  5  6  2  0
  8  7  1  0
  8 18  2  0
  9  8  1  0
 10  9  2  0
 10 11  1  0
 11 17  2  0
 13 12  1  1
 12 11  1  0
 14  5  1  0
 14 13  1  0
 15 24  1  0
 15 13  1  0
 16 15  2  0
 17 18  1  0
 20 21  1  0
 20 19  1  0
 21 22  1  0
 23 24  1  0
 23 22  1  1
 25 23  1  0
 26 25  2  0
 27 25  1  0
M  END
$$$$
