SYM.pdb
     RDKit          3D

 27 27  0  0  1  0  0  0  0  0999 V2000
    9.8806  -20.2583   20.4704 O   0  0  0  0  0  0  0  0  0  0  0  0
   10.7427  -19.1633   20.4573 C   0  0  0  0  0  0  0  0  0  0  0  0
   10.0617  -17.9554   19.7994 C   0  0  2  0  0  0  0  0  0  0  0  0
   10.8198  -17.6192   18.6420 N   0  0  0  0  0  0  0  0  0  0  0  0
   10.0245  -16.8322   20.7977 C   0  0  0  0  0  0  0  0  0  0  0  0
   11.0547  -16.1387   20.9948 O   0  0  0  0  0  0  0  0  0  0  0  0
    6.1279  -11.9758   27.3167 O   0  0  0  0  0  0  0  0  0  0  0  0
    6.4391  -12.8278   26.2667 C   0  0  0  0  0  0  0  0  0  0  0  0
    7.1476  -12.4053   25.1655 C   0  0  0  0  0  0  0  0  0  0  0  0
    7.4533  -13.2570   24.1260 C   0  0  0  0  0  0  0  0  0  0  0  0
    7.0555  -14.5986   24.1410 C   0  0  0  0  0  0  0  0  0  0  0  0
    7.3795  -15.4511   22.9950 C   0  0  0  0  0  0  0  0  0  0  0  0
    8.7946  -15.4918   22.5492 C   0  0  2  0  0  0  0  0  0  0  0  0
    8.8501  -16.5491   21.5130 N   0  0  0  0  0  0  0  0  0  0  0  0
    9.7427  -15.8644   23.6131 C   0  0  0  0  0  0  0  0  0  0  0  0
   10.7426  -15.0709   23.7821 O   0  0  0  0  0  0  0  0  0  0  0  0
    6.3489  -14.9948   25.2533 C   0  0  0  0  0  0  0  0  0  0  0  0
    6.0418  -14.1445   26.2947 C   0  0  0  0  0  0  0  0  0  0  0  0
   11.4668  -13.5434   29.9327 C   0  0  0  0  0  0  0  0  0  0  0  0
   10.5539  -13.8071   28.4116 S   0  0  0  0  0  0  0  0  0  0  0  0
   10.9009  -15.3863   27.6490 C   0  0  0  0  0  0  0  0  0  0  0  0
   10.2170  -15.6750   26.3761 C   0  0  0  0  0  0  0  0  0  0  0  0
   10.4620  -16.9953   25.6912 C   0  0  2  0  0  0  0  0  0  0  0  0
    9.6510  -16.9897   24.4524 N   0  0  0  0  0  0  0  0  0  0  0  0
   10.0915  -18.1281   26.5310 C   0  0  0  0  0  0  0  0  0  0  0  0
    8.9353  -18.6092   26.4802 O   0  0  0  0  0  0  0  0  0  0  0  0
   10.9482  -18.7700   27.4403 O   0  0  0  0  0  0  0  0  0  0  0  0
  2  1  1  0
  3  2  1  0
  3  5  1  0
  3  4  1  6
  5  6  2  0
  8  7  1  0
  8 18  2  0
  9  8  1  0
 10  9  2  0
 10 11  1  0
 11 17  2  0
 13 12  1  1
 12 11  1  0
 14  5  1  0
 14 13  1  0
 15 24  1  0
 15 13  1  0
 16 15  2  0
 17 18  1  0
 20 21  1  0
 20 19  1  0
 21 22  1  0
 23 24  1  0
 23 22  1  1
 25 23  1  0
 26 25  2  0
 27 25  1  0
M  END
$$$$
