SYM.pdb
     RDKit          3D

 27 27  0  0  1  0  0  0  0  0999 V2000
    7.9447  -14.9387   19.9376 O   0  0  0  0  0  0  0  0  0  0  0  0
    8.9214  -15.8614   19.5670 C   0  0  0  0  0  0  0  0  0  0  0  0
    8.5516  -17.2625   20.0726 C   0  0  2  0  0  0  0  0  0  0  0  0
    7.3177  -17.6227   19.4601 N   0  0  0  0  0  0  0  0  0  0  0  0
    8.4461  -17.2116   21.5712 C   0  0  0  0  0  0  0  0  0  0  0  0
    7.3222  -17.0528   22.1121 O   0  0  0  0  0  0  0  0  0  0  0  0
   11.7094  -18.6968   29.8420 O   0  0  0  0  0  0  0  0  0  0  0  0
   11.4608  -18.5875   28.4814 C   0  0  0  0  0  0  0  0  0  0  0  0
   12.3817  -18.0553   27.6086 C   0  0  0  0  0  0  0  0  0  0  0  0
   12.1282  -17.9496   26.2581 C   0  0  0  0  0  0  0  0  0  0  0  0
   10.9160  -18.3807   25.7074 C   0  0  0  0  0  0  0  0  0  0  0  0
   10.6870  -18.2151   24.2704 C   0  0  0  0  0  0  0  0  0  0  0  0
    9.5125  -17.4100   23.8516 C   0  0  2  0  0  0  0  0  0  0  0  0
    9.5907  -17.3396   22.3740 N   0  0  0  0  0  0  0  0  0  0  0  0
    9.5262  -16.0284   24.3620 C   0  0  0  0  0  0  0  0  0  0  0  0
   10.3454  -15.2206   23.7837 O   0  0  0  0  0  0  0  0  0  0  0  0
   10.0133  -18.9087   26.6018 C   0  0  0  0  0  0  0  0  0  0  0  0
   10.2647  -19.0154   27.9535 C   0  0  0  0  0  0  0  0  0  0  0  0
    5.0338  -11.4676   25.7148 C   0  0  0  0  0  0  0  0  0  0  0  0
    6.0516  -11.4935   27.1914 S   0  0  0  0  0  0  0  0  0  0  0  0
    7.6584  -12.2301   26.9240 C   0  0  0  0  0  0  0  0  0  0  0  0
    7.6915  -13.5040   26.1843 C   0  0  0  0  0  0  0  0  0  0  0  0
    9.0212  -14.1498   25.8887 C   0  0  2  0  0  0  0  0  0  0  0  0
    8.7316  -15.5190   25.4051 N   0  0  0  0  0  0  0  0  0  0  0  0
    9.8812  -14.2020   27.0648 C   0  0  0  0  0  0  0  0  0  0  0  0
   10.3920  -13.1560   27.5292 O   0  0  0  0  0  0  0  0  0  0  0  0
   10.2116  -15.3717   27.7688 O   0  0  0  0  0  0  0  0  0  0  0  0
  2  1  1  0
  3  2  1  0
  3  5  1  0
  3  4  1  6
  5  6  2  0
  8  7  1  0
  8 18  2  0
  9  8  1  0
 10  9  2  0
 10 11  1  0
 11 17  2  0
 13 12  1  1
 12 11  1  0
 14  5  1  0
 14 13  1  0
 15 24  1  0
 15 13  1  0
 16 15  2  0
 17 18  1  0
 20 21  1  0
 20 19  1  0
 21 22  1  0
 23 24  1  0
 23 22  1  1
 25 23  1  0
 26 25  2  0
 27 25  1  0
M  END
$$$$
