SYM.pdb
     RDKit          3D

 27 27  0  0  1  0  0  0  0  0999 V2000
    8.1822  -14.1899   20.1028 O   0  0  0  0  0  0  0  0  0  0  0  0
    7.2165  -15.1167   19.7145 C   0  0  0  0  0  0  0  0  0  0  0  0
    7.7665  -16.5443   19.8372 C   0  0  2  0  0  0  0  0  0  0  0  0
    6.7647  -17.4287   19.3457 N   0  0  0  0  0  0  0  0  0  0  0  0
    8.0909  -16.8032   21.2819 C   0  0  0  0  0  0  0  0  0  0  0  0
    7.1701  -17.1040   22.0835 O   0  0  0  0  0  0  0  0  0  0  0  0
   12.3004  -21.3936   27.1411 O   0  0  0  0  0  0  0  0  0  0  0  0
   12.0219  -20.4513   26.1614 C   0  0  0  0  0  0  0  0  0  0  0  0
   12.1890  -19.1023   26.3735 C   0  0  0  0  0  0  0  0  0  0  0  0
   11.9104  -18.1717   25.3959 C   0  0  0  0  0  0  0  0  0  0  0  0
   11.4418  -18.5566   24.1347 C   0  0  0  0  0  0  0  0  0  0  0  0
   11.1310  -17.5237   23.1440 C   0  0  0  0  0  0  0  0  0  0  0  0
    9.7663  -16.9407   23.1663 C   0  0  2  0  0  0  0  0  0  0  0  0
    9.4129  -16.7127   21.7459 N   0  0  0  0  0  0  0  0  0  0  0  0
    9.6858  -15.6419   23.8565 C   0  0  0  0  0  0  0  0  0  0  0  0
    9.4459  -14.6199   23.1110 O   0  0  0  0  0  0  0  0  0  0  0  0
   11.2837  -19.9108   23.9492 C   0  0  0  0  0  0  0  0  0  0  0  0
   11.5618  -20.8439   24.9259 C   0  0  0  0  0  0  0  0  0  0  0  0
    6.5749  -10.8558   25.3099 C   0  0  0  0  0  0  0  0  0  0  0  0
    6.8305  -12.2438   26.4166 S   0  0  0  0  0  0  0  0  0  0  0  0
    6.4346  -13.8193   25.6703 C   0  0  0  0  0  0  0  0  0  0  0  0
    7.5690  -14.6518   25.2325 C   0  0  0  0  0  0  0  0  0  0  0  0
    8.9118  -14.4734   25.8938 C   0  0  2  0  0  0  0  0  0  0  0  0
    9.8393  -15.4230   25.2377 N   0  0  0  0  0  0  0  0  0  0  0  0
    8.8578  -14.7311   27.3278 C   0  0  0  0  0  0  0  0  0  0  0  0
    8.8767  -13.7836   28.1479 O   0  0  0  0  0  0  0  0  0  0  0  0
    8.7812  -16.0052   27.9140 O   0  0  0  0  0  0  0  0  0  0  0  0
  2  1  1  0
  3  2  1  0
  3  5  1  0
  3  4  1  1
  5  6  2  0
  8  7  1  0
  8 18  2  0
  9  8  1  0
 10  9  2  0
 10 11  1  0
 11 17  2  0
 13 12  1  6
 12 11  1  0
 14  5  1  0
 14 13  1  0
 15 24  1  0
 15 13  1  0
 16 15  2  0
 17 18  1  0
 20 21  1  0
 20 19  1  0
 21 22  1  0
 23 24  1  0
 23 22  1  6
 25 23  1  0
 26 25  2  0
 27 25  1  0
M  END
$$$$
