SYM.pdb
     RDKit          3D

 27 27  0  0  1  0  0  0  0  0999 V2000
   10.7827  -19.9321   19.1077 O   0  0  0  0  0  0  0  0  0  0  0  0
   11.0553  -18.9906   20.0987 C   0  0  0  0  0  0  0  0  0  0  0  0
   10.6928  -17.5814   19.6107 C   0  0  2  0  0  0  0  0  0  0  0  0
   11.7219  -17.1630   18.7201 N   0  0  0  0  0  0  0  0  0  0  0  0
   10.5803  -16.6807   20.8089 C   0  0  0  0  0  0  0  0  0  0  0  0
   11.5795  -16.0171   21.1861 O   0  0  0  0  0  0  0  0  0  0  0  0
    5.9571  -12.3638   27.2235 O   0  0  0  0  0  0  0  0  0  0  0  0
    6.3926  -13.0903   26.1246 C   0  0  0  0  0  0  0  0  0  0  0  0
    6.1484  -14.4380   25.9935 C   0  0  0  0  0  0  0  0  0  0  0  0
    6.5840  -15.1536   24.8992 C   0  0  0  0  0  0  0  0  0  0  0  0
    7.2989  -14.5405   23.8641 C   0  0  0  0  0  0  0  0  0  0  0  0
    7.7656  -15.3552   22.7401 C   0  0  0  0  0  0  0  0  0  0  0  0
    9.2141  -15.6728   22.6782 C   0  0  2  0  0  0  0  0  0  0  0  0
    9.3699  -16.5728   21.5119 N   0  0  0  0  0  0  0  0  0  0  0  0
    9.7163  -16.3912   23.8619 C   0  0  0  0  0  0  0  0  0  0  0  0
    9.6114  -17.6742   23.8308 O   0  0  0  0  0  0  0  0  0  0  0  0
    7.5292  -13.1929   24.0201 C   0  0  0  0  0  0  0  0  0  0  0  0
    7.0945  -12.4747   25.1142 C   0  0  0  0  0  0  0  0  0  0  0  0
    9.7438  -13.2948   30.1859 C   0  0  0  0  0  0  0  0  0  0  0  0
   10.8316  -13.7310   28.8283 S   0  0  0  0  0  0  0  0  0  0  0  0
   10.5980  -15.4069   28.2517 C   0  0  0  0  0  0  0  0  0  0  0  0
   11.4305  -15.8420   27.1163 C   0  0  0  0  0  0  0  0  0  0  0  0
   10.8224  -16.7165   26.0496 C   0  0  2  0  0  0  0  0  0  0  0  0
   10.2973  -15.8096   25.0035 N   0  0  0  0  0  0  0  0  0  0  0  0
    9.7517  -17.5573   26.5715 C   0  0  0  0  0  0  0  0  0  0  0  0
   10.0129  -18.5551   27.2834 O   0  0  0  0  0  0  0  0  0  0  0  0
    8.3814  -17.3484   26.3447 O   0  0  0  0  0  0  0  0  0  0  0  0
  2  1  1  0
  3  2  1  0
  3  5  1  0
  3  4  1  6
  5  6  2  0
  8  7  1  0
  8 18  2  0
  9  8  1  0
 10  9  2  0
 10 11  1  0
 11 17  2  0
 13 12  1  1
 12 11  1  0
 14  5  1  0
 14 13  1  0
 15 24  1  0
 15 13  1  0
 16 15  2  0
 17 18  1  0
 20 21  1  0
 20 19  1  0
 21 22  1  0
 23 24  1  0
 23 22  1  1
 25 23  1  0
 26 25  2  0
 27 25  1  0
M  END
$$$$
