SYM.pdb
     RDKit          3D

 27 27  0  0  1  0  0  0  0  0999 V2000
    9.8460  -19.2039   23.1997 O   0  0  0  0  0  0  0  0  0  0  0  0
    8.9435  -19.6698   22.2452 C   0  0  0  0  0  0  0  0  0  0  0  0
    8.9786  -18.7778   20.9969 C   0  0  2  0  0  0  0  0  0  0  0  0
    9.8330  -19.4085   20.0484 N   0  0  0  0  0  0  0  0  0  0  0  0
    9.4843  -17.4207   21.3997 C   0  0  0  0  0  0  0  0  0  0  0  0
   10.6953  -17.1300   21.2270 O   0  0  0  0  0  0  0  0  0  0  0  0
    6.8580  -13.4203   16.3944 O   0  0  0  0  0  0  0  0  0  0  0  0
    7.1025  -13.6157   17.7462 C   0  0  0  0  0  0  0  0  0  0  0  0
    7.8508  -12.7332   18.4906 C   0  0  0  0  0  0  0  0  0  0  0  0
    8.0899  -12.9334   19.8330 C   0  0  0  0  0  0  0  0  0  0  0  0
    7.5803  -14.0494   20.5062 C   0  0  0  0  0  0  0  0  0  0  0  0
    7.8921  -14.2293   21.9258 C   0  0  0  0  0  0  0  0  0  0  0  0
    9.0516  -15.0899   22.2695 C   0  0  2  0  0  0  0  0  0  0  0  0
    8.6174  -16.4736   21.9676 N   0  0  0  0  0  0  0  0  0  0  0  0
    9.4248  -15.0437   23.6936 C   0  0  0  0  0  0  0  0  0  0  0  0
    9.0774  -13.9824   24.3346 O   0  0  0  0  0  0  0  0  0  0  0  0
    6.8358  -14.9155   19.7388 C   0  0  0  0  0  0  0  0  0  0  0  0
    6.5953  -14.7173   18.3954 C   0  0  0  0  0  0  0  0  0  0  0  0
   11.2309  -13.8133   29.0329 C   0  0  0  0  0  0  0  0  0  0  0  0
    9.5034  -13.8291   28.5512 S   0  0  0  0  0  0  0  0  0  0  0  0
    8.9537  -15.4242   27.9600 C   0  0  0  0  0  0  0  0  0  0  0  0
    9.0206  -15.6539   26.5060 C   0  0  0  0  0  0  0  0  0  0  0  0
   10.3668  -15.8132   25.8467 C   0  0  2  0  0  0  0  0  0  0  0  0
   10.1112  -16.0436   24.4065 N   0  0  0  0  0  0  0  0  0  0  0  0
   11.1264  -16.9240   26.4077 C   0  0  0  0  0  0  0  0  0  0  0  0
   11.8562  -16.7554   27.4125 O   0  0  0  0  0  0  0  0  0  0  0  0
   11.1208  -18.2365   25.9076 O   0  0  0  0  0  0  0  0  0  0  0  0
  2  1  1  0
  3  2  1  0
  3  5  1  0
  3  4  1  6
  5  6  2  0
  8  7  1  0
  8 18  2  0
  9  8  1  0
 10  9  2  0
 10 11  1  0
 11 17  2  0
 13 12  1  1
 12 11  1  0
 14  5  1  0
 14 13  1  0
 15 24  1  0
 15 13  1  0
 16 15  2  0
 17 18  1  0
 20 21  1  0
 20 19  1  0
 21 22  1  0
 23 24  1  0
 23 22  1  1
 25 23  1  0
 26 25  2  0
 27 25  1  0
M  END
$$$$
