SYM.pdb
     RDKit          3D

 27 27  0  0  1  0  0  0  0  0999 V2000
    9.5839  -15.8384   19.3152 O   0  0  0  0  0  0  0  0  0  0  0  0
    9.8897  -17.1756   19.0682 C   0  0  0  0  0  0  0  0  0  0  0  0
    8.6182  -18.0333   19.1239 C   0  0  2  0  0  0  0  0  0  0  0  0
    7.7493  -17.5714   18.0949 N   0  0  0  0  0  0  0  0  0  0  0  0
    8.0076  -17.8849   20.4894 C   0  0  0  0  0  0  0  0  0  0  0  0
    6.9285  -17.2538   20.6247 O   0  0  0  0  0  0  0  0  0  0  0  0
    7.4812  -19.9747   29.2453 O   0  0  0  0  0  0  0  0  0  0  0  0
    7.7363  -19.8917   27.8840 C   0  0  0  0  0  0  0  0  0  0  0  0
    8.9905  -19.6179   27.3888 C   0  0  0  0  0  0  0  0  0  0  0  0
    9.2369  -19.5368   26.0353 C   0  0  0  0  0  0  0  0  0  0  0  0
    8.2183  -19.7301   25.0954 C   0  0  0  0  0  0  0  0  0  0  0  0
    8.5294  -19.6006   23.6702 C   0  0  0  0  0  0  0  0  0  0  0  0
    8.0082  -18.4058   22.9604 C   0  0  2  0  0  0  0  0  0  0  0  0
    8.6303  -18.4444   21.6165 N   0  0  0  0  0  0  0  0  0  0  0  0
    8.3885  -17.1286   23.5878 C   0  0  0  0  0  0  0  0  0  0  0  0
    9.5870  -16.7195   23.3548 O   0  0  0  0  0  0  0  0  0  0  0  0
    6.9745  -20.0023   25.6171 C   0  0  0  0  0  0  0  0  0  0  0  0
    6.7254  -20.0839   26.9711 C   0  0  0  0  0  0  0  0  0  0  0  0
    6.0812  -10.3294   27.0548 C   0  0  0  0  0  0  0  0  0  0  0  0
    5.6964  -11.9609   26.4170 S   0  0  0  0  0  0  0  0  0  0  0  0
    7.1400  -12.8546   25.8572 C   0  0  0  0  0  0  0  0  0  0  0  0
    6.9165  -14.2061   25.3142 C   0  0  0  0  0  0  0  0  0  0  0  0
    8.0958  -15.0074   24.8246 C   0  0  2  0  0  0  0  0  0  0  0  0
    7.5693  -16.3250   24.4015 N   0  0  0  0  0  0  0  0  0  0  0  0
    9.1116  -15.1783   25.8564 C   0  0  0  0  0  0  0  0  0  0  0  0
    9.0096  -16.0926   26.7074 O   0  0  0  0  0  0  0  0  0  0  0  0
   10.2566  -14.3773   25.9988 O   0  0  0  0  0  0  0  0  0  0  0  0
  2  1  1  0
  3  2  1  0
  3  5  1  0
  3  4  1  6
  5  6  2  0
  8  7  1  0
  8 18  2  0
  9  8  1  0
 10  9  2  0
 10 11  1  0
 11 17  2  0
 13 12  1  1
 12 11  1  0
 14  5  1  0
 14 13  1  0
 15 24  1  0
 15 13  1  0
 16 15  2  0
 17 18  1  0
 20 21  1  0
 20 19  1  0
 21 22  1  0
 23 24  1  0
 23 22  1  1
 25 23  1  0
 26 25  2  0
 27 25  1  0
M  END
$$$$
