SYM.pdb
     RDKit          3D

 27 27  0  0  1  0  0  0  0  0999 V2000
    6.5271  -18.1111   24.4001 O   0  0  0  0  0  0  0  0  0  0  0  0
    6.1628  -18.8326   23.2646 C   0  0  0  0  0  0  0  0  0  0  0  0
    6.2467  -17.9428   22.0169 C   0  0  2  0  0  0  0  0  0  0  0  0
    5.9923  -18.7712   20.8871 N   0  0  0  0  0  0  0  0  0  0  0  0
    7.6161  -17.3246   21.9685 C   0  0  0  0  0  0  0  0  0  0  0  0
    8.5720  -17.9655   21.4621 O   0  0  0  0  0  0  0  0  0  0  0  0
    7.6742  -13.8914   16.3071 O   0  0  0  0  0  0  0  0  0  0  0  0
    7.9787  -13.9189   17.6605 C   0  0  0  0  0  0  0  0  0  0  0  0
    9.2022  -14.3402   18.1280 C   0  0  0  0  0  0  0  0  0  0  0  0
    9.4980  -14.3650   19.4738 C   0  0  0  0  0  0  0  0  0  0  0  0
    8.5633  -13.9609   20.4338 C   0  0  0  0  0  0  0  0  0  0  0  0
    8.9195  -14.0381   21.8523 C   0  0  0  0  0  0  0  0  0  0  0  0
    9.1673  -15.3849   22.4246 C   0  0  2  0  0  0  0  0  0  0  0  0
    7.8388  -16.0376   22.4835 N   0  0  0  0  0  0  0  0  0  0  0  0
    9.7086  -15.3585   23.7943 C   0  0  0  0  0  0  0  0  0  0  0  0
   10.5299  -14.4026   24.0588 O   0  0  0  0  0  0  0  0  0  0  0  0
    7.3486  -13.5444   19.9395 C   0  0  0  0  0  0  0  0  0  0  0  0
    7.0502  -13.5187   18.5933 C   0  0  0  0  0  0  0  0  0  0  0  0
    6.4103  -12.7939   27.4754 C   0  0  0  0  0  0  0  0  0  0  0  0
    7.9900  -12.7707   28.3243 S   0  0  0  0  0  0  0  0  0  0  0  0
    9.0044  -14.1969   27.9594 C   0  0  0  0  0  0  0  0  0  0  0  0
    9.0296  -14.6545   26.5590 C   0  0  0  0  0  0  0  0  0  0  0  0
    9.8005  -15.9008   26.2052 C   0  0  2  0  0  0  0  0  0  0  0  0
    9.4080  -16.2671   24.8253 N   0  0  0  0  0  0  0  0  0  0  0  0
    9.5171  -17.0012   27.1187 C   0  0  0  0  0  0  0  0  0  0  0  0
    9.8685  -16.9401   28.3202 O   0  0  0  0  0  0  0  0  0  0  0  0
    8.8521  -18.1875   26.7677 O   0  0  0  0  0  0  0  0  0  0  0  0
  2  1  1  0
  3  2  1  0
  3  5  1  0
  3  4  1  6
  5  6  2  0
  8  7  1  0
  8 18  2  0
  9  8  1  0
 10  9  2  0
 10 11  1  0
 11 17  2  0
 13 12  1  1
 12 11  1  0
 14  5  1  0
 14 13  1  0
 15 24  1  0
 15 13  1  0
 16 15  2  0
 17 18  1  0
 20 21  1  0
 20 19  1  0
 21 22  1  0
 23 24  1  0
 23 22  1  1
 25 23  1  0
 26 25  2  0
 27 25  1  0
M  END
$$$$
