SYM.pdb
     RDKit          3D

 27 27  0  0  1  0  0  0  0  0999 V2000
    9.8283  -16.4932   19.5431 O   0  0  0  0  0  0  0  0  0  0  0  0
    8.7230  -16.7715   18.7411 C   0  0  0  0  0  0  0  0  0  0  0  0
    8.0245  -18.0514   19.2199 C   0  0  2  0  0  0  0  0  0  0  0  0
    6.9407  -18.3014   18.3309 N   0  0  0  0  0  0  0  0  0  0  0  0
    7.5593  -17.8356   20.6329 C   0  0  0  0  0  0  0  0  0  0  0  0
    6.4618  -17.2605   20.8471 O   0  0  0  0  0  0  0  0  0  0  0  0
    7.9881  -19.6372   29.4570 O   0  0  0  0  0  0  0  0  0  0  0  0
    8.0749  -19.5864   28.0731 C   0  0  0  0  0  0  0  0  0  0  0  0
    9.2754  -19.6937   27.4097 C   0  0  0  0  0  0  0  0  0  0  0  0
    9.3544  -19.6424   26.0347 C   0  0  0  0  0  0  0  0  0  0  0  0
    8.2115  -19.4778   25.2440 C   0  0  0  0  0  0  0  0  0  0  0  0
    8.3570  -19.3977   23.7889 C   0  0  0  0  0  0  0  0  0  0  0  0
    7.8654  -18.1688   23.1173 C   0  0  2  0  0  0  0  0  0  0  0  0
    8.3384  -18.2699   21.7171 N   0  0  0  0  0  0  0  0  0  0  0  0
    8.4138  -16.9233   23.6810 C   0  0  0  0  0  0  0  0  0  0  0  0
    9.6307  -16.6471   23.3631 O   0  0  0  0  0  0  0  0  0  0  0  0
    7.0247  -19.3732   25.9323 C   0  0  0  0  0  0  0  0  0  0  0  0
    6.9432  -19.4243   27.3081 C   0  0  0  0  0  0  0  0  0  0  0  0
    5.0809  -12.0717   27.0498 C   0  0  0  0  0  0  0  0  0  0  0  0
    6.4974  -11.3207   26.2459 S   0  0  0  0  0  0  0  0  0  0  0  0
    7.7996  -12.4900   25.8812 C   0  0  0  0  0  0  0  0  0  0  0  0
    7.3938  -13.7688   25.2716 C   0  0  0  0  0  0  0  0  0  0  0  0
    8.4492  -14.7898   24.9307 C   0  0  2  0  0  0  0  0  0  0  0  0
    7.7348  -16.0193   24.5180 N   0  0  0  0  0  0  0  0  0  0  0  0
    9.3272  -15.0720   26.0599 C   0  0  0  0  0  0  0  0  0  0  0  0
    9.0187  -15.9435   26.9062 O   0  0  0  0  0  0  0  0  0  0  0  0
   10.5520  -14.4305   26.3068 O   0  0  0  0  0  0  0  0  0  0  0  0
  2  1  1  0
  3  2  1  0
  3  5  1  0
  3  4  1  6
  5  6  2  0
  8  7  1  0
  8 18  2  0
  9  8  1  0
 10  9  2  0
 10 11  1  0
 11 17  2  0
 13 12  1  1
 12 11  1  0
 14  5  1  0
 14 13  1  0
 15 24  1  0
 15 13  1  0
 16 15  2  0
 17 18  1  0
 20 21  1  0
 20 19  1  0
 21 22  1  0
 23 24  1  0
 23 22  1  1
 25 23  1  0
 26 25  2  0
 27 25  1  0
M  END
$$$$
