SYM.pdb
     RDKit          3D

 27 27  0  0  1  0  0  0  0  0999 V2000
   10.8186  -19.2912   20.3839 O   0  0  0  0  0  0  0  0  0  0  0  0
    9.7719  -18.8239   19.5910 C   0  0  0  0  0  0  0  0  0  0  0  0
    9.9533  -17.3292   19.2938 C   0  0  2  0  0  0  0  0  0  0  0  0
   11.1679  -17.1858   18.5648 N   0  0  0  0  0  0  0  0  0  0  0  0
    9.9870  -16.5880   20.6011 C   0  0  0  0  0  0  0  0  0  0  0  0
   11.0690  -16.0963   21.0115 O   0  0  0  0  0  0  0  0  0  0  0  0
    6.0195  -12.0609   27.3088 O   0  0  0  0  0  0  0  0  0  0  0  0
    6.3585  -12.8312   26.2056 C   0  0  0  0  0  0  0  0  0  0  0  0
    6.8858  -12.2795   25.0608 C   0  0  0  0  0  0  0  0  0  0  0  0
    7.2203  -13.0505   23.9685 C   0  0  0  0  0  0  0  0  0  0  0  0
    7.0386  -14.4381   23.9719 C   0  0  0  0  0  0  0  0  0  0  0  0
    7.3812  -15.2048   22.7720 C   0  0  0  0  0  0  0  0  0  0  0  0
    8.7940  -15.6297   22.6099 C   0  0  2  0  0  0  0  0  0  0  0  0
    8.8214  -16.4391   21.3695 N   0  0  0  0  0  0  0  0  0  0  0  0
    9.2881  -16.4814   23.7054 C   0  0  0  0  0  0  0  0  0  0  0  0
    9.0993  -17.7474   23.5658 O   0  0  0  0  0  0  0  0  0  0  0  0
    6.5101  -14.9638   25.1285 C   0  0  0  0  0  0  0  0  0  0  0  0
    6.1746  -14.1943   26.2227 C   0  0  0  0  0  0  0  0  0  0  0  0
   10.5326  -13.4506   29.6581 C   0  0  0  0  0  0  0  0  0  0  0  0
   10.9788  -14.0295   28.0203 S   0  0  0  0  0  0  0  0  0  0  0  0
   11.1349  -15.8077   27.9222 C   0  0  0  0  0  0  0  0  0  0  0  0
   11.5462  -16.3687   26.6232 C   0  0  0  0  0  0  0  0  0  0  0  0
   10.5226  -17.0687   25.7660 C   0  0  2  0  0  0  0  0  0  0  0  0
    9.9435  -16.0419   24.8700 N   0  0  0  0  0  0  0  0  0  0  0  0
    9.4727  -17.6933   26.5618 C   0  0  0  0  0  0  0  0  0  0  0  0
    8.3470  -17.1532   26.6700 O   0  0  0  0  0  0  0  0  0  0  0  0
    9.6038  -18.9071   27.2563 O   0  0  0  0  0  0  0  0  0  0  0  0
  2  1  1  0
  3  2  1  0
  3  5  1  0
  3  4  1  1
  5  6  2  0
  8  7  1  0
  8 18  2  0
  9  8  1  0
 10  9  2  0
 10 11  1  0
 11 17  2  0
 13 12  1  1
 12 11  1  0
 14  5  1  0
 14 13  1  0
 15 24  1  0
 15 13  1  0
 16 15  2  0
 17 18  1  0
 20 21  1  0
 20 19  1  0
 21 22  1  0
 23 24  1  0
 23 22  1  1
 25 23  1  0
 26 25  2  0
 27 25  1  0
M  END
$$$$
