KPK.pdb
     RDKit          3D

 26 26  0  0  1  0  0  0  0  0999 V2000
   45.8011  -20.4603   -9.1782 N   0  0  0  0  0  0  0  0  0  0  0  0
   46.4271  -19.3702   -9.9217 C   0  0  1  0  0  0  0  0  0  0  0  0
   45.7093  -19.3147  -11.2429 C   0  0  0  0  0  0  0  0  0  0  0  0
   45.9395  -20.4611  -12.1609 C   0  0  0  0  0  0  0  0  0  0  0  0
   45.1449  -20.2482  -13.4429 C   0  0  0  0  0  0  0  0  0  0  0  0
   45.2877  -21.3556  -14.4316 C   0  0  0  0  0  0  0  0  0  0  0  0
   44.4149  -21.0350  -15.5745 N   0  0  0  0  0  0  0  0  0  0  0  0
   46.3279  -18.1441   -9.1219 C   0  0  0  0  0  0  0  0  0  0  0  0
   45.4051  -18.1730   -8.2149 O   0  0  0  0  0  0  0  0  0  0  0  0
   47.1199  -16.9835   -9.2507 N   0  0  0  0  0  0  0  0  0  0  0  0
   48.1161  -16.8324  -10.3085 C   0  0  0  0  0  0  0  0  0  0  0  0
   49.0809  -15.7969   -9.8209 C   0  0  0  0  0  0  0  0  0  0  0  0
   48.5515  -15.2836   -8.5305 C   0  0  0  0  0  0  0  0  0  0  0  0
   47.1159  -15.7983   -8.4795 C   0  0  1  0  0  0  0  0  0  0  0  0
   46.2556  -14.7111   -9.0438 C   0  0  0  0  0  0  0  0  0  0  0  0
   46.1604  -14.6442  -10.2957 O   0  0  0  0  0  0  0  0  0  0  0  0
   45.5918  -13.8137   -8.1698 N   0  0  0  0  0  0  0  0  0  0  0  0
   44.4866  -12.9692   -8.6646 C   0  0  1  0  0  0  0  0  0  0  0  0
   43.4936  -12.7470   -7.5558 C   0  0  0  0  0  0  0  0  0  0  0  0
   42.3504  -11.8688   -7.8768 C   0  0  0  0  0  0  0  0  0  0  0  0
   41.3784  -11.5814   -6.7876 C   0  0  0  0  0  0  0  0  0  0  0  0
   40.2874  -10.6132   -7.1261 C   0  0  0  0  0  0  0  0  0  0  0  0
   39.3259  -10.4981   -6.0525 N   0  0  0  0  0  0  0  0  0  0  0  0
   45.0426  -11.7263   -9.2354 C   0  0  0  0  0  0  0  0  0  0  0  0
   44.3858  -11.0358  -10.2731 O   0  0  0  0  0  0  0  0  0  0  0  0
   46.1152  -11.2165   -8.8404 O   0  0  0  0  0  0  0  0  0  0  0  0
  2  3  1  0
  2  1  1  1
  4  3  1  0
  4  5  1  0
  6  5  1  0
  6  7  1  0
  8  2  1  0
  9  8  2  0
 10 14  1  0
 10  8  1  0
 11 12  1  0
 11 10  1  0
 12 13  1  0
 13 14  1  0
 14 15  1  6
 16 15  2  0
 17 15  1  0
 18 17  1  0
 18 24  1  0
 18 19  1  1
 20 19  1  0
 21 20  1  0
 22 21  1  0
 22 23  1  0
 24 25  1  0
 26 24  2  0
M  END
$$$$
