KPK.pdb
     RDKit          3D

 26 26  0  0  1  0  0  0  0  0999 V2000
   28.3295  -20.0717  -17.9891 N   0  0  0  0  0  0  0  0  0  0  0  0
   28.6676  -19.4660  -16.7038 C   0  0  1  0  0  0  0  0  0  0  0  0
   28.0813  -18.0807  -16.7407 C   0  0  0  0  0  0  0  0  0  0  0  0
   26.6992  -17.9696  -17.2765 C   0  0  0  0  0  0  0  0  0  0  0  0
   25.7030  -18.3233  -16.1798 C   0  0  0  0  0  0  0  0  0  0  0  0
   24.2800  -18.2924  -16.6252 C   0  0  0  0  0  0  0  0  0  0  0  0
   23.4608  -18.7793  -15.5015 N   0  0  0  0  0  0  0  0  0  0  0  0
   28.1432  -20.3218  -15.6336 C   0  0  0  0  0  0  0  0  0  0  0  0
   27.3120  -21.2287  -16.0359 O   0  0  0  0  0  0  0  0  0  0  0  0
   28.4543  -20.2448  -14.2596 N   0  0  0  0  0  0  0  0  0  0  0  0
   29.3668  -19.2387  -13.7216 C   0  0  0  0  0  0  0  0  0  0  0  0
   29.8593  -19.7844  -12.4176 C   0  0  0  0  0  0  0  0  0  0  0  0
   29.1249  -21.0531  -12.1727 C   0  0  0  0  0  0  0  0  0  0  0  0
   27.9807  -21.0282  -13.1819 C   0  0  1  0  0  0  0  0  0  0  0  0
   26.8033  -20.4348  -12.4730 C   0  0  0  0  0  0  0  0  0  0  0  0
   26.7276  -19.1804  -12.4342 O   0  0  0  0  0  0  0  0  0  0  0  0
   25.8350  -21.2856  -11.8829 N   0  0  0  0  0  0  0  0  0  0  0  0
   24.5574  -20.7342  -11.3899 C   0  0  1  0  0  0  0  0  0  0  0  0
   23.4183  -21.3582  -12.1501 C   0  0  0  0  0  0  0  0  0  0  0  0
   22.0616  -20.9417  -11.7410 C   0  0  0  0  0  0  0  0  0  0  0  0
   20.9142  -21.4777  -12.5219 C   0  0  0  0  0  0  0  0  0  0  0  0
   19.5642  -20.9551  -12.1390 C   0  0  0  0  0  0  0  0  0  0  0  0
   18.5188  -21.5340  -12.9528 N   0  0  0  0  0  0  0  0  0  0  0  0
   24.4804  -20.9193   -9.9271 C   0  0  0  0  0  0  0  0  0  0  0  0
   23.8844  -19.9519   -9.0941 O   0  0  0  0  0  0  0  0  0  0  0  0
   24.9329  -21.9302   -9.3444 O   0  0  0  0  0  0  0  0  0  0  0  0
  2  3  1  0
  2  1  1  6
  4  3  1  0
  4  5  1  0
  6  5  1  0
  6  7  1  0
  8  2  1  0
  9  8  2  0
 10 14  1  0
 10  8  1  0
 11 12  1  0
 11 10  1  0
 12 13  1  0
 13 14  1  0
 14 15  1  1
 16 15  2  0
 17 15  1  0
 18 17  1  0
 18 24  1  0
 18 19  1  6
 20 19  1  0
 21 20  1  0
 22 21  1  0
 22 23  1  0
 24 25  1  0
 26 24  2  0
M  END
$$$$
