KPK.pdb
     RDKit          3D

 26 26  0  0  1  0  0  0  0  0999 V2000
   28.0181  -20.5205  -15.8596 N   0  0  0  0  0  0  0  0  0  0  0  0
   27.4310  -19.9038  -14.6729 C   0  0  1  0  0  0  0  0  0  0  0  0
   26.9814  -18.5349  -15.1065 C   0  0  0  0  0  0  0  0  0  0  0  0
   28.0529  -17.6041  -15.5483 C   0  0  0  0  0  0  0  0  0  0  0  0
   27.4223  -16.3139  -16.0566 C   0  0  0  0  0  0  0  0  0  0  0  0
   28.4138  -15.2976  -16.5130 C   0  0  0  0  0  0  0  0  0  0  0  0
   27.6523  -14.1354  -17.0034 N   0  0  0  0  0  0  0  0  0  0  0  0
   26.3551  -20.7717  -14.1812 C   0  0  0  0  0  0  0  0  0  0  0  0
   25.9348  -21.6399  -15.0442 O   0  0  0  0  0  0  0  0  0  0  0  0
   25.7633  -20.7430  -12.9008 N   0  0  0  0  0  0  0  0  0  0  0  0
   26.1853  -19.8006  -11.8673 C   0  0  0  0  0  0  0  0  0  0  0  0
   25.7615  -20.4018  -10.5636 C   0  0  0  0  0  0  0  0  0  0  0  0
   24.9938  -21.6338  -10.8827 C   0  0  0  0  0  0  0  0  0  0  0  0
   24.7068  -21.5236  -12.3773 C   0  0  1  0  0  0  0  0  0  0  0  0
   23.3598  -20.8832  -12.5041 C   0  0  0  0  0  0  0  0  0  0  0  0
   23.2683  -19.6691  -12.1903 O   0  0  0  0  0  0  0  0  0  0  0  0
   22.2575  -21.6474  -12.9630 N   0  0  0  0  0  0  0  0  0  0  0  0
   20.9426  -21.0101  -13.1734 C   0  0  1  0  0  0  0  0  0  0  0  0
   20.1857  -21.7658  -14.2322 C   0  0  0  0  0  0  0  0  0  0  0  0
   19.2748  -20.9637  -15.0738 C   0  0  0  0  0  0  0  0  0  0  0  0
   18.4372  -21.6911  -16.0653 C   0  0  0  0  0  0  0  0  0  0  0  0
   17.6419  -20.8339  -17.0007 C   0  0  0  0  0  0  0  0  0  0  0  0
   16.9840  -21.6238  -18.0173 N   0  0  0  0  0  0  0  0  0  0  0  0
   20.2370  -20.9129  -11.8801 C   0  0  0  0  0  0  0  0  0  0  0  0
   19.3699  -19.8398  -11.5946 O   0  0  0  0  0  0  0  0  0  0  0  0
   20.3632  -21.7633  -10.9706 O   0  0  0  0  0  0  0  0  0  0  0  0
  2  3  1  0
  2  1  1  6
  4  3  1  0
  4  5  1  0
  6  5  1  0
  6  7  1  0
  8  2  1  0
  9  8  2  0
 10 14  1  0
 10  8  1  0
 11 12  1  0
 11 10  1  0
 12 13  1  0
 13 14  1  0
 14 15  1  1
 16 15  2  0
 17 15  1  0
 18 17  1  0
 18 24  1  0
 18 19  1  6
 20 19  1  0
 21 20  1  0
 22 21  1  0
 22 23  1  0
 24 25  1  0
 26 24  2  0
M  END
$$$$
