KPK.pdb
     RDKit          3D

 26 26  0  0  1  0  0  0  0  0999 V2000
   21.0473  -27.3791  -17.0714 N   0  0  0  0  0  0  0  0  0  0  0  0
   21.6196  -26.9854  -15.7866 C   0  0  1  0  0  0  0  0  0  0  0  0
   21.9842  -25.5329  -15.9321 C   0  0  0  0  0  0  0  0  0  0  0  0
   23.0710  -25.2250  -16.8985 C   0  0  0  0  0  0  0  0  0  0  0  0
   24.4115  -25.6213  -16.2932 C   0  0  0  0  0  0  0  0  0  0  0  0
   25.5752  -25.3759  -17.1931 C   0  0  0  0  0  0  0  0  0  0  0  0
   26.7790  -25.8498  -16.4879 N   0  0  0  0  0  0  0  0  0  0  0  0
   20.6365  -27.2649  -14.7340 C   0  0  0  0  0  0  0  0  0  0  0  0
   19.4041  -27.1797  -15.1200 O   0  0  0  0  0  0  0  0  0  0  0  0
   20.9076  -27.6049  -13.3918 N   0  0  0  0  0  0  0  0  0  0  0  0
   22.2690  -27.6938  -12.8693 C   0  0  0  0  0  0  0  0  0  0  0  0
   22.1887  -28.5679  -11.6567 C   0  0  0  0  0  0  0  0  0  0  0  0
   20.7510  -28.8733  -11.4361 C   0  0  0  0  0  0  0  0  0  0  0  0
   20.0126  -27.8843  -12.3332 C   0  0  1  0  0  0  0  0  0  0  0  0
   19.6926  -26.6961  -11.4809 C   0  0  0  0  0  0  0  0  0  0  0  0
   20.6276  -25.8899  -11.2435 O   0  0  0  0  0  0  0  0  0  0  0  0
   18.3774  -26.5222  -10.9812 N   0  0  0  0  0  0  0  0  0  0  0  0
   17.9869  -25.2559  -10.3304 C   0  0  1  0  0  0  0  0  0  0  0  0
   17.2062  -24.4148  -11.3040 C   0  0  0  0  0  0  0  0  0  0  0  0
   16.7878  -23.0838  -10.8194 C   0  0  0  0  0  0  0  0  0  0  0  0
   16.0430  -22.2112  -11.7669 C   0  0  0  0  0  0  0  0  0  0  0  0
   15.6766  -20.8536  -11.2522 C   0  0  0  0  0  0  0  0  0  0  0  0
   15.0336  -20.0539  -12.2707 N   0  0  0  0  0  0  0  0  0  0  0  0
   17.2656  -25.5555   -9.0774 C   0  0  0  0  0  0  0  0  0  0  0  0
   17.3738  -24.7190   -7.9490 O   0  0  0  0  0  0  0  0  0  0  0  0
   16.5255  -26.5555   -8.9409 O   0  0  0  0  0  0  0  0  0  0  0  0
  2  3  1  0
  2  1  1  6
  4  3  1  0
  4  5  1  0
  6  5  1  0
  6  7  1  0
  8  2  1  0
  9  8  2  0
 10 14  1  0
 10  8  1  0
 11 12  1  0
 11 10  1  0
 12 13  1  0
 13 14  1  0
 14 15  1  1
 16 15  2  0
 17 15  1  0
 18 17  1  0
 18 24  1  0
 18 19  1  6
 20 19  1  0
 21 20  1  0
 22 21  1  0
 22 23  1  0
 24 25  1  0
 26 24  2  0
M  END
$$$$
