KPK.pdb
     RDKit          3D

 26 26  0  0  1  0  0  0  0  0999 V2000
   15.1528  -13.8382  -10.6459 N   0  0  0  0  0  0  0  0  0  0  0  0
   14.5696  -12.7695  -11.4527 C   0  0  1  0  0  0  0  0  0  0  0  0
   13.4073  -12.2453  -10.6538 C   0  0  0  0  0  0  0  0  0  0  0  0
   12.0559  -12.6494  -11.1231 C   0  0  0  0  0  0  0  0  0  0  0  0
   11.1090  -12.7215   -9.9321 C   0  0  0  0  0  0  0  0  0  0  0  0
    9.6934  -13.0081  -10.3041 C   0  0  0  0  0  0  0  0  0  0  0  0
    8.9092  -13.0215   -9.0568 N   0  0  0  0  0  0  0  0  0  0  0  0
   15.6128  -11.7771  -11.7347 C   0  0  0  0  0  0  0  0  0  0  0  0
   16.4039  -11.5381  -10.7386 O   0  0  0  0  0  0  0  0  0  0  0  0
   15.8197  -11.0888  -12.9488 N   0  0  0  0  0  0  0  0  0  0  0  0
   15.0038  -11.3368  -14.1350 C   0  0  0  0  0  0  0  0  0  0  0  0
   15.8208  -10.8746  -15.3011 C   0  0  0  0  0  0  0  0  0  0  0  0
   17.0548  -10.2571  -14.7490 C   0  0  0  0  0  0  0  0  0  0  0  0
   16.7551  -10.0761  -13.2639 C   0  0  1  0  0  0  0  0  0  0  0  0
   16.2203   -8.6870  -13.1056 C   0  0  0  0  0  0  0  0  0  0  0  0
   14.9730   -8.5407  -13.1638 O   0  0  0  0  0  0  0  0  0  0  0  0
   17.1158   -7.6074  -12.9000 N   0  0  0  0  0  0  0  0  0  0  0  0
   16.6884   -6.4170  -12.1385 C   0  0  1  0  0  0  0  0  0  0  0  0
   16.2184   -6.8407  -10.7730 C   0  0  0  0  0  0  0  0  0  0  0  0
   15.8472   -5.7500   -9.8489 C   0  0  0  0  0  0  0  0  0  0  0  0
   14.9729   -6.0952   -8.6956 C   0  0  0  0  0  0  0  0  0  0  0  0
   14.5366   -4.9455   -7.8411 C   0  0  0  0  0  0  0  0  0  0  0  0
   13.6350   -5.3721   -6.7945 N   0  0  0  0  0  0  0  0  0  0  0  0
   17.7876   -5.4314  -12.1200 C   0  0  0  0  0  0  0  0  0  0  0  0
   17.5324   -4.0461  -12.0959 O   0  0  0  0  0  0  0  0  0  0  0  0
   18.9955   -5.7592  -12.1251 O   0  0  0  0  0  0  0  0  0  0  0  0
  2  3  1  0
  2  1  1  1
  4  3  1  0
  4  5  1  0
  6  5  1  0
  6  7  1  0
  8  2  1  0
  9  8  2  0
 10 14  1  0
 10  8  1  0
 11 12  1  0
 11 10  1  0
 12 13  1  0
 13 14  1  0
 14 15  1  6
 16 15  2  0
 17 15  1  0
 18 17  1  0
 18 24  1  0
 18 19  1  1
 20 19  1  0
 21 20  1  0
 22 21  1  0
 22 23  1  0
 24 25  1  0
 26 24  2  0
M  END
$$$$
