KPK.pdb
     RDKit          3D

 26 26  0  0  1  0  0  0  0  0999 V2000
   26.1422  -23.1393  -17.6615 N   0  0  0  0  0  0  0  0  0  0  0  0
   26.1313  -21.7381  -17.2496 C   0  0  1  0  0  0  0  0  0  0  0  0
   24.7747  -21.2123  -17.6329 C   0  0  0  0  0  0  0  0  0  0  0  0
   24.7329  -20.3090  -18.8127 C   0  0  0  0  0  0  0  0  0  0  0  0
   24.8710  -18.8650  -18.3476 C   0  0  0  0  0  0  0  0  0  0  0  0
   25.7953  -18.0477  -19.1854 C   0  0  0  0  0  0  0  0  0  0  0  0
   25.8891  -16.7171  -18.5597 N   0  0  0  0  0  0  0  0  0  0  0  0
   26.4273  -21.6727  -15.8140 C   0  0  0  0  0  0  0  0  0  0  0  0
   26.0487  -22.7134  -15.1441 O   0  0  0  0  0  0  0  0  0  0  0  0
   27.0635  -20.6162  -15.1286 N   0  0  0  0  0  0  0  0  0  0  0  0
   27.4620  -19.3802  -15.7978 C   0  0  0  0  0  0  0  0  0  0  0  0
   28.5356  -18.7782  -14.9460 C   0  0  0  0  0  0  0  0  0  0  0  0
   28.6540  -19.6274  -13.7320 C   0  0  0  0  0  0  0  0  0  0  0  0
   27.4057  -20.5044  -13.7611 C   0  0  1  0  0  0  0  0  0  0  0  0
   26.3747  -19.8018  -12.9340 C   0  0  0  0  0  0  0  0  0  0  0  0
   25.8091  -18.8028  -13.4466 O   0  0  0  0  0  0  0  0  0  0  0  0
   26.0763  -20.2741  -11.6311 N   0  0  0  0  0  0  0  0  0  0  0  0
   24.6766  -20.5070  -11.2234 C   0  0  1  0  0  0  0  0  0  0  0  0
   23.9999  -21.3846  -12.2415 C   0  0  0  0  0  0  0  0  0  0  0  0
   22.7560  -20.8504  -12.8321 C   0  0  0  0  0  0  0  0  0  0  0  0
   21.4696  -21.4412  -12.3739 C   0  0  0  0  0  0  0  0  0  0  0  0
   20.2364  -20.9147  -13.0405 C   0  0  0  0  0  0  0  0  0  0  0  0
   19.0356  -21.4195  -12.4132 N   0  0  0  0  0  0  0  0  0  0  0  0
   24.6542  -21.0478   -9.8497 C   0  0  0  0  0  0  0  0  0  0  0  0
   25.5086  -22.0977   -9.4590 O   0  0  0  0  0  0  0  0  0  0  0  0
   23.8869  -20.6152   -8.9606 O   0  0  0  0  0  0  0  0  0  0  0  0
  2  3  1  0
  2  1  1  1
  4  3  1  0
  4  5  1  0
  6  5  1  0
  6  7  1  0
  8  2  1  0
  9  8  2  0
 10 14  1  0
 10  8  1  0
 11 12  1  0
 11 10  1  0
 12 13  1  0
 13 14  1  0
 14 15  1  1
 16 15  2  0
 17 15  1  0
 18 17  1  0
 18 24  1  0
 18 19  1  6
 20 19  1  0
 21 20  1  0
 22 21  1  0
 22 23  1  0
 24 25  1  0
 26 24  2  0
M  END
$$$$
