KPK.pdb
     RDKit          3D

 26 26  0  0  1  0  0  0  0  0999 V2000
   19.3057  -13.6722  -16.3137 N   0  0  0  0  0  0  0  0  0  0  0  0
   20.2636  -12.6320  -16.6792 C   0  0  1  0  0  0  0  0  0  0  0  0
   20.0463  -12.3767  -18.1460 C   0  0  0  0  0  0  0  0  0  0  0  0
   20.3545  -13.5081  -19.0595 C   0  0  0  0  0  0  0  0  0  0  0  0
   20.2327  -13.0383  -20.5034 C   0  0  0  0  0  0  0  0  0  0  0  0
   20.4477  -14.1186  -21.5089 C   0  0  0  0  0  0  0  0  0  0  0  0
   20.2308  -13.5247  -22.8398 N   0  0  0  0  0  0  0  0  0  0  0  0
   20.0368  -11.4667  -15.8171 C   0  0  0  0  0  0  0  0  0  0  0  0
   18.7968  -11.2705  -15.5021 O   0  0  0  0  0  0  0  0  0  0  0  0
   21.0140  -10.5777  -15.3218 N   0  0  0  0  0  0  0  0  0  0  0  0
   22.4403  -10.7666  -15.5748 C   0  0  0  0  0  0  0  0  0  0  0  0
   23.1535  -10.0100  -14.4978 C   0  0  0  0  0  0  0  0  0  0  0  0
   22.1157   -9.2984  -13.7069 C   0  0  0  0  0  0  0  0  0  0  0  0
   20.8561   -9.3951  -14.5627 C   0  0  1  0  0  0  0  0  0  0  0  0
   20.8077   -8.1473  -15.3881 C   0  0  0  0  0  0  0  0  0  0  0  0
   21.6161   -8.0602  -16.3472 O   0  0  0  0  0  0  0  0  0  0  0  0
   19.8745   -7.1286  -15.0699 N   0  0  0  0  0  0  0  0  0  0  0  0
   19.6692   -5.9905  -15.9874 C   0  0  1  0  0  0  0  0  0  0  0  0
   18.1975   -5.6940  -16.0929 C   0  0  0  0  0  0  0  0  0  0  0  0
   17.3519   -6.7892  -16.6097 C   0  0  0  0  0  0  0  0  0  0  0  0
   16.4118   -7.4387  -15.6568 C   0  0  0  0  0  0  0  0  0  0  0  0
   15.5630   -8.5346  -16.2233 C   0  0  0  0  0  0  0  0  0  0  0  0
   14.7550   -9.1637  -15.2027 N   0  0  0  0  0  0  0  0  0  0  0  0
   20.4846   -4.8465  -15.5328 C   0  0  0  0  0  0  0  0  0  0  0  0
   20.7669   -3.7605  -16.3848 O   0  0  0  0  0  0  0  0  0  0  0  0
   20.9690   -4.7712  -14.3813 O   0  0  0  0  0  0  0  0  0  0  0  0
  2  3  1  0
  2  1  1  1
  4  3  1  0
  4  5  1  0
  6  5  1  0
  6  7  1  0
  8  2  1  0
  9  8  2  0
 10 14  1  0
 10  8  1  0
 11 12  1  0
 11 10  1  0
 12 13  1  0
 13 14  1  0
 14 15  1  6
 16 15  2  0
 17 15  1  0
 18 17  1  0
 18 24  1  0
 18 19  1  1
 20 19  1  0
 21 20  1  0
 22 21  1  0
 22 23  1  0
 24 25  1  0
 26 24  2  0
M  END
$$$$
