KPK.pdb
     RDKit          3D

 26 26  0  0  1  0  0  0  0  0999 V2000
   27.8630  -21.4182  -15.1597 N   0  0  0  0  0  0  0  0  0  0  0  0
   27.4450  -20.7023  -13.9572 C   0  0  1  0  0  0  0  0  0  0  0  0
   27.2351  -19.2755  -14.3860 C   0  0  0  0  0  0  0  0  0  0  0  0
   27.9119  -18.8644  -15.6441 C   0  0  0  0  0  0  0  0  0  0  0  0
   26.8661  -18.6325  -16.7270 C   0  0  0  0  0  0  0  0  0  0  0  0
   27.4418  -18.2536  -18.0497 C   0  0  0  0  0  0  0  0  0  0  0  0
   26.3121  -18.0268  -18.9679 N   0  0  0  0  0  0  0  0  0  0  0  0
   26.2493  -21.3588  -13.4167 C   0  0  0  0  0  0  0  0  0  0  0  0
   25.8446  -22.3780  -14.1041 O   0  0  0  0  0  0  0  0  0  0  0  0
   25.5319  -20.9901  -12.2591 N   0  0  0  0  0  0  0  0  0  0  0  0
   25.9493  -19.8827  -11.4025 C   0  0  0  0  0  0  0  0  0  0  0  0
   25.3212  -20.1353  -10.0674 C   0  0  0  0  0  0  0  0  0  0  0  0
   24.4525  -21.3321  -10.2157 C   0  0  0  0  0  0  0  0  0  0  0  0
   24.3413  -21.5338  -11.7240 C   0  0  1  0  0  0  0  0  0  0  0  0
   23.1002  -20.8176  -12.1570 C   0  0  0  0  0  0  0  0  0  0  0  0
   23.2109  -19.5998  -12.4490 O   0  0  0  0  0  0  0  0  0  0  0  0
   21.8697  -21.5187  -12.2226 N   0  0  0  0  0  0  0  0  0  0  0  0
   20.6999  -20.9136  -12.8895 C   0  0  1  0  0  0  0  0  0  0  0  0
   19.7752  -22.0036  -13.3605 C   0  0  0  0  0  0  0  0  0  0  0  0
   20.0067  -22.5015  -14.7316 C   0  0  0  0  0  0  0  0  0  0  0  0
   19.2156  -23.6805  -15.1765 C   0  0  0  0  0  0  0  0  0  0  0  0
   19.5403  -24.2063  -16.5405 C   0  0  0  0  0  0  0  0  0  0  0  0
   18.7238  -25.3507  -16.8780 N   0  0  0  0  0  0  0  0  0  0  0  0
   20.0696  -19.9397  -11.9762 C   0  0  0  0  0  0  0  0  0  0  0  0
   19.2734  -18.8842  -12.4630 O   0  0  0  0  0  0  0  0  0  0  0  0
   20.2013  -19.9891  -10.7326 O   0  0  0  0  0  0  0  0  0  0  0  0
  2  3  1  0
  2  1  1  6
  4  3  1  0
  4  5  1  0
  6  5  1  0
  6  7  1  0
  8  2  1  0
  9  8  2  0
 10 14  1  0
 10  8  1  0
 11 12  1  0
 11 10  1  0
 12 13  1  0
 13 14  1  0
 14 15  1  6
 16 15  2  0
 17 15  1  0
 18 17  1  0
 18 24  1  0
 18 19  1  1
 20 19  1  0
 21 20  1  0
 22 21  1  0
 22 23  1  0
 24 25  1  0
 26 24  2  0
M  END
$$$$
