KPK.pdb
     RDKit          3D

 26 26  0  0  1  0  0  0  0  0999 V2000
   20.7509  -15.6658  -17.0643 N   0  0  0  0  0  0  0  0  0  0  0  0
   21.5139  -14.4778  -17.4378 C   0  0  1  0  0  0  0  0  0  0  0  0
   21.0243  -14.0945  -18.8079 C   0  0  0  0  0  0  0  0  0  0  0  0
   20.9019  -15.2017  -19.7921 C   0  0  0  0  0  0  0  0  0  0  0  0
   20.4008  -14.6447  -21.1184 C   0  0  0  0  0  0  0  0  0  0  0  0
   20.1393  -15.6891  -22.1505 C   0  0  0  0  0  0  0  0  0  0  0  0
   19.6385  -14.9988  -23.3520 N   0  0  0  0  0  0  0  0  0  0  0  0
   21.3112  -13.4519  -16.4086 C   0  0  0  0  0  0  0  0  0  0  0  0
   20.1242  -13.4421  -15.8928 O   0  0  0  0  0  0  0  0  0  0  0  0
   22.2601  -12.5133  -15.9511 N   0  0  0  0  0  0  0  0  0  0  0  0
   23.6281  -12.4744  -16.4626 C   0  0  0  0  0  0  0  0  0  0  0  0
   24.4398  -11.7782  -15.4151 C   0  0  0  0  0  0  0  0  0  0  0  0
   23.4933  -11.3228  -14.3637 C   0  0  0  0  0  0  0  0  0  0  0  0
   22.1164  -11.4733  -15.0038 C   0  0  1  0  0  0  0  0  0  0  0  0
   21.7826  -10.1452  -15.6082 C   0  0  0  0  0  0  0  0  0  0  0  0
   22.3565   -9.8426  -16.6851 O   0  0  0  0  0  0  0  0  0  0  0  0
   20.8524   -9.2921  -14.9627 N   0  0  0  0  0  0  0  0  0  0  0  0
   20.4192   -8.0361  -15.6063 C   0  0  1  0  0  0  0  0  0  0  0  0
   18.9316   -7.8782  -15.4413 C   0  0  0  0  0  0  0  0  0  0  0  0
   18.0944   -8.8914  -16.1150 C   0  0  0  0  0  0  0  0  0  0  0  0
   17.1465   -9.6692  -15.2722 C   0  0  0  0  0  0  0  0  0  0  0  0
   16.4173  -10.7784  -15.9651 C   0  0  0  0  0  0  0  0  0  0  0  0
   15.6158  -11.5479  -15.0401 N   0  0  0  0  0  0  0  0  0  0  0  0
   21.2096   -6.9137  -15.0628 C   0  0  0  0  0  0  0  0  0  0  0  0
   22.1685   -7.1125  -14.0500 O   0  0  0  0  0  0  0  0  0  0  0  0
   21.0792   -5.7342  -15.4605 O   0  0  0  0  0  0  0  0  0  0  0  0
  2  3  1  0
  2  1  1  1
  4  3  1  0
  4  5  1  0
  6  5  1  0
  6  7  1  0
  8  2  1  0
  9  8  2  0
 10 14  1  0
 10  8  1  0
 11 12  1  0
 11 10  1  0
 12 13  1  0
 13 14  1  0
 14 15  1  6
 16 15  2  0
 17 15  1  0
 18 17  1  0
 18 24  1  0
 18 19  1  1
 20 19  1  0
 21 20  1  0
 22 21  1  0
 22 23  1  0
 24 25  1  0
 26 24  2  0
M  END
$$$$
