KPK.pdb
     RDKit          3D

 26 26  0  0  1  0  0  0  0  0999 V2000
   21.6743  -20.4219  -12.4183 N   0  0  0  0  0  0  0  0  0  0  0  0
   22.9101  -21.1987  -12.4707 C   0  0  1  0  0  0  0  0  0  0  0  0
   22.6649  -22.2844  -13.4832 C   0  0  0  0  0  0  0  0  0  0  0  0
   21.5046  -22.0829  -14.3901 C   0  0  0  0  0  0  0  0  0  0  0  0
   20.2234  -22.0368  -13.5675 C   0  0  0  0  0  0  0  0  0  0  0  0
   18.9936  -21.8075  -14.3795 C   0  0  0  0  0  0  0  0  0  0  0  0
   17.8554  -21.7663  -13.4448 N   0  0  0  0  0  0  0  0  0  0  0  0
   24.0154  -20.2929  -12.8034 C   0  0  0  0  0  0  0  0  0  0  0  0
   23.6433  -19.1005  -13.1420 O   0  0  0  0  0  0  0  0  0  0  0  0
   25.3929  -20.5972  -12.7863 N   0  0  0  0  0  0  0  0  0  0  0  0
   25.9065  -21.8599  -12.2606 C   0  0  0  0  0  0  0  0  0  0  0  0
   27.3393  -21.6072  -11.9085 C   0  0  0  0  0  0  0  0  0  0  0  0
   27.6577  -20.2243  -12.3505 C   0  0  0  0  0  0  0  0  0  0  0  0
   26.4905  -19.8384  -13.2544 C   0  0  1  0  0  0  0  0  0  0  0  0
   26.9077  -20.1747  -14.6521 C   0  0  0  0  0  0  0  0  0  0  0  0
   26.6500  -21.3335  -15.0662 O   0  0  0  0  0  0  0  0  0  0  0  0
   27.5637  -19.1994  -15.4447 N   0  0  0  0  0  0  0  0  0  0  0  0
   26.9345  -18.6957  -16.6816 C   0  0  1  0  0  0  0  0  0  0  0  0
   25.5630  -18.1644  -16.3630 C   0  0  0  0  0  0  0  0  0  0  0  0
   24.7928  -17.6335  -17.5060 C   0  0  0  0  0  0  0  0  0  0  0  0
   23.9664  -18.5961  -18.2833 C   0  0  0  0  0  0  0  0  0  0  0  0
   23.2039  -18.0187  -19.4354 C   0  0  0  0  0  0  0  0  0  0  0  0
   22.3772  -19.0148  -20.0793 N   0  0  0  0  0  0  0  0  0  0  0  0
   27.8317  -17.7098  -17.3165 C   0  0  0  0  0  0  0  0  0  0  0  0
   28.4425  -16.6835  -16.5691 O   0  0  0  0  0  0  0  0  0  0  0  0
   28.1011  -17.7229  -18.5386 O   0  0  0  0  0  0  0  0  0  0  0  0
  2  3  1  0
  2  1  1  6
  4  3  1  0
  4  5  1  0
  6  5  1  0
  6  7  1  0
  8  2  1  0
  9  8  2  0
 10 14  1  0
 10  8  1  0
 11 12  1  0
 11 10  1  0
 12 13  1  0
 13 14  1  0
 14 15  1  6
 16 15  2  0
 17 15  1  0
 18 17  1  0
 18 24  1  0
 18 19  1  1
 20 19  1  0
 21 20  1  0
 22 21  1  0
 22 23  1  0
 24 25  1  0
 26 24  2  0
M  END
$$$$
