CLN.pdb
     RDKit          3D

 23 22  0  0  1  0  0  0  0  0999 V2000
    7.1707  -16.3406   21.2176 N   0  0  0  0  0  0  0  0  0  0  0  0
    6.9450  -16.4620   22.6420 C   0  0  1  0  0  0  0  0  0  0  0  0
    7.1165  -17.9051   23.0636 C   0  0  0  0  0  0  0  0  0  0  0  0
    5.6921  -18.4163   24.0542 S   0  0  0  0  0  0  0  0  0  0  0  0
    7.8324  -15.5629   23.3972 C   0  0  0  0  0  0  0  0  0  0  0  0
    8.9624  -15.2809   22.9208 O   0  0  0  0  0  0  0  0  0  0  0  0
    6.9036  -11.5758   24.7724 C   0  0  0  0  0  0  0  0  0  0  0  0
    6.3864  -12.7277   25.6642 C   0  0  2  0  0  0  0  0  0  0  0  0
    5.4325  -12.0935   26.6262 C   0  0  0  0  0  0  0  0  0  0  0  0
    7.5930  -13.3273   26.2645 C   0  0  0  0  0  0  0  0  0  0  0  0
    8.4506  -14.1961   25.4037 C   0  0  2  0  0  0  0  0  0  0  0  0
    7.4757  -15.0028   24.6296 N   0  0  0  0  0  0  0  0  0  0  0  0
    9.3204  -15.1480   26.1054 C   0  0  0  0  0  0  0  0  0  0  0  0
   10.2377  -14.7262   26.8443 O   0  0  0  0  0  0  0  0  0  0  0  0
   11.1327  -19.1038   28.9283 N   0  0  0  0  0  0  0  0  0  0  0  0
    9.9101  -19.4094   28.2805 C   0  0  0  0  0  0  0  0  0  0  0  0
    9.4863  -20.5856   28.3255 O   0  0  0  0  0  0  0  0  0  0  0  0
    9.1794  -18.3475   27.5799 C   0  0  0  0  0  0  0  0  0  0  0  0
   10.0110  -17.5101   26.6569 C   0  0  2  0  0  0  0  0  0  0  0  0
    9.1562  -16.5483   25.9770 N   0  0  0  0  0  0  0  0  0  0  0  0
   10.6908  -18.4133   25.7183 C   0  0  0  0  0  0  0  0  0  0  0  0
   10.3546  -18.4315   24.5212 O   0  0  0  0  0  0  0  0  0  0  0  0
   11.6967  -19.2370   26.1623 O   0  0  0  0  0  0  0  0  0  0  0  0
  2  1  1  6
  2  3  1  0
  4  3  1  0
  5  2  1  0
  6  5  2  0
  8  7  1  6
  8 10  1  0
  9  8  1  0
 11 10  1  1
 11 12  1  0
 12  5  1  0
 13 11  1  0
 13 20  1  0
 14 13  2  0
 15 16  1  0
 16 17  2  0
 19 18  1  1
 18 16  1  0
 19 20  1  0
 19 21  1  0
 21 23  1  0
 22 21  2  0
M  END
$$$$
