CLN.pdb
     RDKit          3D

 23 22  0  0  1  0  0  0  0  0999 V2000
    9.2897  -18.3193   17.0318 N   0  0  0  0  0  0  0  0  0  0  0  0
    8.6160  -18.2258   18.3093 C   0  0  1  0  0  0  0  0  0  0  0  0
    8.6280  -19.5765   18.9915 C   0  0  0  0  0  0  0  0  0  0  0  0
    7.7919  -19.4510   20.5903 S   0  0  0  0  0  0  0  0  0  0  0  0
    9.2219  -17.1825   19.1522 C   0  0  0  0  0  0  0  0  0  0  0  0
   10.4758  -17.0898   19.1999 O   0  0  0  0  0  0  0  0  0  0  0  0
    8.9114  -12.6319   19.2846 C   0  0  0  0  0  0  0  0  0  0  0  0
    7.6874  -13.4787   19.7021 C   0  0  2  0  0  0  0  0  0  0  0  0
    6.5669  -12.5040   19.8808 C   0  0  0  0  0  0  0  0  0  0  0  0
    8.1079  -14.1971   20.9198 C   0  0  0  0  0  0  0  0  0  0  0  0
    9.1254  -15.2819   20.7817 C   0  0  2  0  0  0  0  0  0  0  0  0
    8.4629  -16.2818   19.9089 N   0  0  0  0  0  0  0  0  0  0  0  0
    9.4978  -15.9831   22.0165 C   0  0  0  0  0  0  0  0  0  0  0  0
    8.6529  -16.6886   22.6114 O   0  0  0  0  0  0  0  0  0  0  0  0
   12.9022  -19.9887   23.5776 N   0  0  0  0  0  0  0  0  0  0  0  0
   11.7514  -19.2473   23.9432 C   0  0  0  0  0  0  0  0  0  0  0  0
   11.2000  -19.4984   25.0377 O   0  0  0  0  0  0  0  0  0  0  0  0
   11.2409  -18.2131   23.0363 C   0  0  0  0  0  0  0  0  0  0  0  0
   11.2980  -16.8159   23.5741 C   0  0  2  0  0  0  0  0  0  0  0  0
   10.7987  -15.8912   22.5674 N   0  0  0  0  0  0  0  0  0  0  0  0
   12.6903  -16.5336   23.9489 C   0  0  0  0  0  0  0  0  0  0  0  0
   13.4211  -15.8863   23.1787 O   0  0  0  0  0  0  0  0  0  0  0  0
   13.1847  -16.9842   25.1489 O   0  0  0  0  0  0  0  0  0  0  0  0
  2  1  1  6
  2  3  1  0
  4  3  1  0
  5  2  1  0
  6  5  2  0
  8  7  1  1
  8 10  1  0
  9  8  1  0
 11 10  1  1
 11 12  1  0
 12  5  1  0
 13 11  1  0
 13 20  1  0
 14 13  2  0
 15 16  1  0
 16 17  2  0
 19 18  1  6
 18 16  1  0
 19 20  1  0
 19 21  1  0
 21 23  1  0
 22 21  2  0
M  END
$$$$
