CLN.pdb
     RDKit          3D

 23 22  0  0  1  0  0  0  0  0999 V2000
    6.9236  -17.1042   20.7570 N   0  0  0  0  0  0  0  0  0  0  0  0
    6.6845  -17.1787   22.1825 C   0  0  1  0  0  0  0  0  0  0  0  0
    7.1201  -18.5315   22.7020 C   0  0  0  0  0  0  0  0  0  0  0  0
    6.4783  -18.7686   24.3763 S   0  0  0  0  0  0  0  0  0  0  0  0
    7.3584  -16.0784   22.8905 C   0  0  0  0  0  0  0  0  0  0  0  0
    8.4359  -15.6243   22.4256 O   0  0  0  0  0  0  0  0  0  0  0  0
    8.1499  -12.1596   26.1738 C   0  0  0  0  0  0  0  0  0  0  0  0
    6.6253  -12.4007   26.0892 C   0  0  2  0  0  0  0  0  0  0  0  0
    6.0990  -12.1296   27.4629 C   0  0  0  0  0  0  0  0  0  0  0  0
    6.4764  -13.7885   25.6118 C   0  0  0  0  0  0  0  0  0  0  0  0
    7.5076  -14.3252   24.6740 C   0  0  2  0  0  0  0  0  0  0  0  0
    6.8532  -15.5092   24.0656 N   0  0  0  0  0  0  0  0  0  0  0  0
    8.7546  -14.8019   25.2848 C   0  0  0  0  0  0  0  0  0  0  0  0
    9.4051  -14.0482   26.0426 O   0  0  0  0  0  0  0  0  0  0  0  0
   11.4492  -18.2009   28.0161 N   0  0  0  0  0  0  0  0  0  0  0  0
   10.0846  -17.8903   28.2375 C   0  0  0  0  0  0  0  0  0  0  0  0
    9.5462  -18.2798   29.2975 O   0  0  0  0  0  0  0  0  0  0  0  0
    9.3449  -17.1266   27.2266 C   0  0  0  0  0  0  0  0  0  0  0  0
   10.1200  -16.8030   25.9859 C   0  0  2  0  0  0  0  0  0  0  0  0
    9.2557  -16.1043   25.0463 N   0  0  0  0  0  0  0  0  0  0  0  0
   10.6375  -18.0635   25.4362 C   0  0  0  0  0  0  0  0  0  0  0  0
   11.4643  -18.7296   26.0836 O   0  0  0  0  0  0  0  0  0  0  0  0
   10.2088  -18.5060   24.2083 O   0  0  0  0  0  0  0  0  0  0  0  0
  2  1  1  6
  2  3  1  0
  4  3  1  0
  5  2  1  0
  6  5  2  0
  8  7  1  1
  8 10  1  0
  9  8  1  0
 11 10  1  1
 11 12  1  0
 12  5  1  0
 13 11  1  0
 13 20  1  0
 14 13  2  0
 15 16  1  0
 16 17  2  0
 19 18  1  1
 18 16  1  0
 19 20  1  0
 19 21  1  0
 21 23  1  0
 22 21  2  0
M  END
$$$$
