CLN.pdb
     RDKit          3D

 23 22  0  0  1  0  0  0  0  0999 V2000
    7.4556  -15.1268   20.4373 N   0  0  0  0  0  0  0  0  0  0  0  0
    6.9439  -15.7286   21.6500 C   0  0  1  0  0  0  0  0  0  0  0  0
    6.9086  -17.2335   21.4961 C   0  0  0  0  0  0  0  0  0  0  0  0
    6.3174  -17.9822   23.0327 S   0  0  0  0  0  0  0  0  0  0  0  0
    7.7363  -15.3174   22.8201 C   0  0  0  0  0  0  0  0  0  0  0  0
    8.9883  -15.2492   22.7146 O   0  0  0  0  0  0  0  0  0  0  0  0
    7.9962  -11.7307   25.3876 C   0  0  0  0  0  0  0  0  0  0  0  0
    6.7257  -12.5997   25.5303 C   0  0  2  0  0  0  0  0  0  0  0  0
    5.7882  -11.8036   26.3817 C   0  0  0  0  0  0  0  0  0  0  0  0
    7.1888  -13.8740   26.1115 C   0  0  0  0  0  0  0  0  0  0  0  0
    8.0050  -14.7842   25.2533 C   0  0  2  0  0  0  0  0  0  0  0  0
    7.1581  -14.9964   24.0540 N   0  0  0  0  0  0  0  0  0  0  0  0
    8.2909  -16.1137   25.8063 C   0  0  0  0  0  0  0  0  0  0  0  0
    7.3517  -16.9069   26.0389 O   0  0  0  0  0  0  0  0  0  0  0  0
   12.0796  -17.9104   23.7970 N   0  0  0  0  0  0  0  0  0  0  0  0
   11.1183  -18.5578   24.6122 C   0  0  0  0  0  0  0  0  0  0  0  0
   10.2482  -19.2688   24.0623 O   0  0  0  0  0  0  0  0  0  0  0  0
   11.1680  -18.3788   26.0675 C   0  0  0  0  0  0  0  0  0  0  0  0
    9.9144  -17.8341   26.6810 C   0  0  2  0  0  0  0  0  0  0  0  0
    9.6111  -16.5397   26.0889 N   0  0  0  0  0  0  0  0  0  0  0  0
   10.1235  -17.7478   28.1328 C   0  0  0  0  0  0  0  0  0  0  0  0
   10.0787  -16.6428   28.7015 O   0  0  0  0  0  0  0  0  0  0  0  0
   10.3684  -18.8864   28.8615 O   0  0  0  0  0  0  0  0  0  0  0  0
  2  1  1  6
  2  3  1  0
  4  3  1  0
  5  2  1  0
  6  5  2  0
  8  7  1  1
  8 10  1  0
  9  8  1  0
 11 10  1  1
 11 12  1  0
 12  5  1  0
 13 11  1  0
 13 20  1  0
 14 13  2  0
 15 16  1  0
 16 17  2  0
 19 18  1  6
 18 16  1  0
 19 20  1  0
 19 21  1  0
 21 23  1  0
 22 21  2  0
M  END
$$$$
