CLN.pdb
     RDKit          3D

 23 22  0  0  1  0  0  0  0  0999 V2000
    7.0294  -15.5959   21.1574 N   0  0  0  0  0  0  0  0  0  0  0  0
    8.3635  -15.0451   21.2646 C   0  0  1  0  0  0  0  0  0  0  0  0
    8.4251  -13.7158   20.5444 C   0  0  0  0  0  0  0  0  0  0  0  0
    7.8725  -13.9306   18.8356 S   0  0  0  0  0  0  0  0  0  0  0  0
    8.7745  -14.9234   22.6726 C   0  0  0  0  0  0  0  0  0  0  0  0
    9.9831  -14.6935   22.9367 O   0  0  0  0  0  0  0  0  0  0  0  0
    8.3450  -12.2391   26.4403 C   0  0  0  0  0  0  0  0  0  0  0  0
    7.0960  -12.8135   25.7335 C   0  0  2  0  0  0  0  0  0  0  0  0
    5.9227  -12.2055   26.4343 C   0  0  0  0  0  0  0  0  0  0  0  0
    7.2206  -14.2786   25.8522 C   0  0  0  0  0  0  0  0  0  0  0  0
    8.3504  -14.9492   25.1416 C   0  0  2  0  0  0  0  0  0  0  0  0
    7.8773  -15.0524   23.7394 N   0  0  0  0  0  0  0  0  0  0  0  0
    8.6724  -16.3135   25.5778 C   0  0  0  0  0  0  0  0  0  0  0  0
    7.7923  -17.2022   25.5453 O   0  0  0  0  0  0  0  0  0  0  0  0
   10.3244  -18.5291   23.6989 N   0  0  0  0  0  0  0  0  0  0  0  0
   11.5683  -18.6041   24.3732 C   0  0  0  0  0  0  0  0  0  0  0  0
   12.5994  -18.8358   23.7037 O   0  0  0  0  0  0  0  0  0  0  0  0
   11.6143  -18.4098   25.8267 C   0  0  0  0  0  0  0  0  0  0  0  0
   10.3112  -18.0185   26.4541 C   0  0  2  0  0  0  0  0  0  0  0  0
    9.9631  -16.6676   26.0394 N   0  0  0  0  0  0  0  0  0  0  0  0
   10.4600  -18.1335   27.9113 C   0  0  0  0  0  0  0  0  0  0  0  0
   10.4253  -17.1129   28.6210 O   0  0  0  0  0  0  0  0  0  0  0  0
   10.6372  -19.3670   28.4896 O   0  0  0  0  0  0  0  0  0  0  0  0
  2  1  1  1
  2  3  1  0
  4  3  1  0
  5  2  1  0
  6  5  2  0
  8  7  1  1
  8 10  1  0
  9  8  1  0
 11 10  1  1
 11 12  1  0
 12  5  1  0
 13 11  1  0
 13 20  1  0
 14 13  2  0
 15 16  1  0
 16 17  2  0
 19 18  1  6
 18 16  1  0
 19 20  1  0
 19 21  1  0
 21 23  1  0
 22 21  2  0
M  END
$$$$
