CLN.pdb
     RDKit          3D

 23 22  0  0  1  0  0  0  0  0999 V2000
   -2.1562  -25.1308   23.5084 N   0  0  0  0  0  0  0  0  0  0  0  0
   -3.3998  -24.3938   23.4387 C   0  0  1  0  0  0  0  0  0  0  0  0
   -4.5587  -25.3216   23.7317 C   0  0  0  0  0  0  0  0  0  0  0  0
   -4.5469  -25.7644   25.4853 S   0  0  0  0  0  0  0  0  0  0  0  0
   -3.3818  -23.2375   24.3490 C   0  0  0  0  0  0  0  0  0  0  0  0
   -2.4196  -23.1072   25.1493 O   0  0  0  0  0  0  0  0  0  0  0  0
   -2.3565  -19.4881   23.5640 C   0  0  0  0  0  0  0  0  0  0  0  0
   -3.8014  -19.8242   23.1295 C   0  0  2  0  0  0  0  0  0  0  0  0
   -4.2127  -18.7167   22.2120 C   0  0  0  0  0  0  0  0  0  0  0  0
   -4.5702  -19.9317   24.3838 C   0  0  0  0  0  0  0  0  0  0  0  0
   -4.3035  -21.1000   25.2755 C   0  0  2  0  0  0  0  0  0  0  0  0
   -4.3923  -22.2688   24.3664 N   0  0  0  0  0  0  0  0  0  0  0  0
   -5.2752  -21.3299   26.3516 C   0  0  0  0  0  0  0  0  0  0  0  0
   -6.0481  -20.4099   26.7002 O   0  0  0  0  0  0  0  0  0  0  0  0
   -8.8932  -21.7851   28.2618 N   0  0  0  0  0  0  0  0  0  0  0  0
   -8.7427  -23.0896   27.7297 C   0  0  0  0  0  0  0  0  0  0  0  0
   -9.7617  -23.6929   27.3261 O   0  0  0  0  0  0  0  0  0  0  0  0
   -7.4072  -23.6937   27.6663 C   0  0  0  0  0  0  0  0  0  0  0  0
   -6.2898  -22.8078   28.1256 C   0  0  2  0  0  0  0  0  0  0  0  0
   -5.3737  -22.5745   27.0191 N   0  0  0  0  0  0  0  0  0  0  0  0
   -5.6330  -23.4642   29.2643 C   0  0  0  0  0  0  0  0  0  0  0  0
   -4.8355  -24.3977   29.0668 O   0  0  0  0  0  0  0  0  0  0  0  0
   -5.8994  -23.0474   30.5460 O   0  0  0  0  0  0  0  0  0  0  0  0
  2  1  1  1
  2  3  1  0
  4  3  1  0
  5  2  1  0
  6  5  2  0
  8  7  1  1
  8 10  1  0
  9  8  1  0
 11 10  1  6
 11 12  1  0
 12  5  1  0
 13 11  1  0
 13 20  1  0
 14 13  2  0
 15 16  1  0
 16 17  2  0
 19 18  1  6
 18 16  1  0
 19 20  1  0
 19 21  1  0
 21 23  1  0
 22 21  2  0
M  END
$$$$
