CLN.pdb
     RDKit          3D

 23 22  0  0  1  0  0  0  0  0999 V2000
    8.2436  -14.5698   19.4385 N   0  0  0  0  0  0  0  0  0  0  0  0
    7.2810  -14.7347   20.5067 C   0  0  1  0  0  0  0  0  0  0  0  0
    6.6460  -16.1050   20.4129 C   0  0  0  0  0  0  0  0  0  0  0  0
    7.9087  -17.3730   20.6757 S   0  0  0  0  0  0  0  0  0  0  0  0
    7.9048  -14.5101   21.8207 C   0  0  0  0  0  0  0  0  0  0  0  0
    9.1565  -14.5878   21.9222 O   0  0  0  0  0  0  0  0  0  0  0  0
    5.8471  -12.3906   27.1066 C   0  0  0  0  0  0  0  0  0  0  0  0
    7.1540  -12.9369   26.4875 C   0  0  2  0  0  0  0  0  0  0  0  0
    8.1566  -11.8359   26.6298 C   0  0  0  0  0  0  0  0  0  0  0  0
    6.8044  -13.3058   25.1027 C   0  0  0  0  0  0  0  0  0  0  0  0
    7.8466  -13.9745   24.2674 C   0  0  2  0  0  0  0  0  0  0  0  0
    7.1652  -14.2121   22.9714 N   0  0  0  0  0  0  0  0  0  0  0  0
    8.3167  -15.2822   24.7409 C   0  0  0  0  0  0  0  0  0  0  0  0
    7.5354  -16.2593   24.7496 O   0  0  0  0  0  0  0  0  0  0  0  0
   10.4267  -17.8064   23.1565 N   0  0  0  0  0  0  0  0  0  0  0  0
   11.6091  -17.5491   23.8937 C   0  0  0  0  0  0  0  0  0  0  0  0
   12.7133  -17.7938   23.3589 O   0  0  0  0  0  0  0  0  0  0  0  0
   11.5085  -17.0071   25.2533 C   0  0  0  0  0  0  0  0  0  0  0  0
   10.1115  -16.7517   25.7307 C   0  0  2  0  0  0  0  0  0  0  0  0
    9.6430  -15.4829   25.1934 N   0  0  0  0  0  0  0  0  0  0  0  0
   10.1279  -16.7631   27.1998 C   0  0  0  0  0  0  0  0  0  0  0  0
    9.9737  -15.7024   27.8303 O   0  0  0  0  0  0  0  0  0  0  0  0
   10.3134  -17.9442   27.8766 O   0  0  0  0  0  0  0  0  0  0  0  0
  2  1  1  6
  2  3  1  0
  4  3  1  0
  5  2  1  0
  6  5  2  0
  8  7  1  1
  8 10  1  0
  9  8  1  0
 11 10  1  1
 11 12  1  0
 12  5  1  0
 13 11  1  0
 13 20  1  0
 14 13  2  0
 15 16  1  0
 16 17  2  0
 19 18  1  6
 18 16  1  0
 19 20  1  0
 19 21  1  0
 21 23  1  0
 22 21  2  0
M  END
$$$$
