GRR.pdb
     RDKit          3D

 27 26  0  0  1  0  0  0  0  0999 V2000
   25.1311  -21.0018   -8.8618 N   0  0  0  0  0  0  0  0  0  0  0  0
   25.7584  -21.1905  -10.1422 C   0  0  0  0  0  0  0  0  0  0  0  0
   25.1563  -20.3463  -11.2005 C   0  0  0  0  0  0  0  0  0  0  0  0
   24.0743  -19.7674  -10.9449 O   0  0  0  0  0  0  0  0  0  0  0  0
   29.2105  -22.0666  -15.9311 N   0  0  0  0  0  0  0  0  0  0  0  0
   28.5949  -21.3935  -17.0487 C   0  0  0  0  0  0  0  0  0  0  0  0
   28.3320  -22.0431  -18.1077 N   0  0  0  0  0  0  0  0  0  0  0  0
   28.2789  -20.0078  -16.9833 N   0  0  0  0  0  0  0  0  0  0  0  0
   28.3515  -19.2543  -15.7551 C   0  0  0  0  0  0  0  0  0  0  0  0
   27.4332  -19.7868  -14.6753 C   0  0  0  0  0  0  0  0  0  0  0  0
   26.1568  -19.0209  -14.5879 C   0  0  0  0  0  0  0  0  0  0  0  0
   25.1781  -19.4864  -13.5692 C   0  0  2  0  0  0  0  0  0  0  0  0
   25.7491  -20.1794  -12.4532 N   0  0  0  0  0  0  0  0  0  0  0  0
   24.1735  -20.3244  -14.2985 C   0  0  0  0  0  0  0  0  0  0  0  0
   24.3193  -21.5676  -14.2160 O   0  0  0  0  0  0  0  0  0  0  0  0
   27.8701  -21.5714  -18.9074 N   0  0  0  0  0  0  0  0  0  0  0  0
   18.0345  -22.1336  -10.6902 C   0  0  0  0  0  0  0  0  0  0  0  0
   17.8440  -23.1909  -11.6316 N   0  0  0  0  0  0  0  0  0  0  0  0
   16.7992  -23.9339  -11.5693 N   0  0  0  0  0  0  0  0  0  0  0  0
   18.8341  -23.4028  -12.6386 C   0  0  0  0  0  0  0  0  0  0  0  0
   20.0648  -22.6609  -12.5796 C   0  0  0  0  0  0  0  0  0  0  0  0
   20.1263  -21.6614  -13.7236 C   0  0  0  0  0  0  0  0  0  0  0  0
   21.4375  -20.9456  -13.7550 C   0  0  1  0  0  0  0  0  0  0  0  0
   21.8824  -20.5854  -15.1511 N   0  0  0  0  0  0  0  0  0  0  0  0
   23.1184  -19.7988  -15.0388 C   0  0  0  0  0  0  0  0  0  0  0  0
   20.8921  -19.7429  -15.8397 O   0  0  0  0  0  0  0  0  0  0  0  0
   21.0848  -18.5126  -15.9454 O   0  0  0  0  0  0  0  0  0  0  0  0
  2  1  1  0
  3  2  1  0
  4  3  2  0
  6  8  1  0
  6  5  1  0
  7  6  2  0
  9  8  1  0
 10 11  1  0
 10  9  1  0
 12 11  1  6
 12 13  1  0
 13  3  1  0
 14 15  2  0
 14 12  1  0
 16 17  1  0
 17 18  2  0
 19 17  1  0
 19 20  1  0
 21 20  1  0
 22 21  1  0
 23 22  1  6
 23 24  1  0
 24 14  1  0
 25 27  1  0
 25 23  1  0
 26 25  2  0
M  END
$$$$
