GRR.pdb
     RDKit          3D

 27 26  0  0  1  0  0  0  0  0999 V2000
   23.1936  -20.3149   -7.7716 N   0  0  0  0  0  0  0  0  0  0  0  0
   24.4577  -20.5588   -8.4127 C   0  0  0  0  0  0  0  0  0  0  0  0
   24.3769  -20.4535   -9.8884 C   0  0  0  0  0  0  0  0  0  0  0  0
   23.2390  -20.4238  -10.4132 O   0  0  0  0  0  0  0  0  0  0  0  0
   27.1327  -19.5008  -17.4093 N   0  0  0  0  0  0  0  0  0  0  0  0
   27.5544  -18.2237  -16.8878 C   0  0  0  0  0  0  0  0  0  0  0  0
   27.4476  -17.1833  -17.6081 N   0  0  0  0  0  0  0  0  0  0  0  0
   28.0923  -18.1118  -15.5753 N   0  0  0  0  0  0  0  0  0  0  0  0
   28.2187  -19.2449  -14.6913 C   0  0  0  0  0  0  0  0  0  0  0  0
   26.8854  -19.7644  -14.1958 C   0  0  0  0  0  0  0  0  0  0  0  0
   26.8028  -19.7851  -12.7070 C   0  0  0  0  0  0  0  0  0  0  0  0
   25.5225  -20.2698  -12.1254 C   0  0  2  0  0  0  0  0  0  0  0  0
   25.5121  -20.3874  -10.6978 N   0  0  0  0  0  0  0  0  0  0  0  0
   25.2164  -21.5714  -12.8000 C   0  0  0  0  0  0  0  0  0  0  0  0
   25.8993  -22.5602  -12.4399 O   0  0  0  0  0  0  0  0  0  0  0  0
   27.8259  -16.2772  -17.2743 N   0  0  0  0  0  0  0  0  0  0  0  0
   20.3073  -26.8352  -16.0732 C   0  0  0  0  0  0  0  0  0  0  0  0
   19.4460  -25.7847  -15.6315 N   0  0  0  0  0  0  0  0  0  0  0  0
   18.3447  -26.0583  -15.0318 N   0  0  0  0  0  0  0  0  0  0  0  0
   19.8337  -24.4310  -15.8690 C   0  0  0  0  0  0  0  0  0  0  0  0
   21.0532  -24.1654  -16.5836 C   0  0  0  0  0  0  0  0  0  0  0  0
   22.2457  -24.3107  -15.6518 C   0  0  0  0  0  0  0  0  0  0  0  0
   22.7054  -22.9841  -15.1404 C   0  0  2  0  0  0  0  0  0  0  0  0
   23.8904  -23.0855  -14.2118 N   0  0  0  0  0  0  0  0  0  0  0  0
   24.2371  -21.7254  -13.7771 C   0  0  0  0  0  0  0  0  0  0  0  0
   25.0718  -23.6389  -14.8921 O   0  0  0  0  0  0  0  0  0  0  0  0
   25.4073  -24.8263  -14.6936 O   0  0  0  0  0  0  0  0  0  0  0  0
  2  1  1  0
  3  2  1  0
  4  3  2  0
  6  8  1  0
  6  5  1  0
  7  6  2  0
  9  8  1  0
 10 11  1  0
 10  9  1  0
 12 11  1  6
 12 13  1  0
 13  3  1  0
 14 15  2  0
 14 12  1  0
 16 17  1  0
 17 18  2  0
 19 17  1  0
 19 20  1  0
 21 20  1  0
 22 21  1  0
 23 22  1  1
 23 24  1  0
 24 14  1  0
 25 27  1  0
 25 23  1  0
 26 25  2  0
M  END
$$$$
