GRR.pdb
     RDKit          3D

 27 26  0  0  1  0  0  0  0  0999 V2000
   28.1911  -21.5199  -16.4527 N   0  0  0  0  0  0  0  0  0  0  0  0
   27.5184  -22.1148  -15.3292 C   0  0  0  0  0  0  0  0  0  0  0  0
   26.0708  -22.3149  -15.5737 C   0  0  0  0  0  0  0  0  0  0  0  0
   25.4921  -21.5217  -16.3529 O   0  0  0  0  0  0  0  0  0  0  0  0
   19.3397  -26.1491  -13.0631 N   0  0  0  0  0  0  0  0  0  0  0  0
   20.5221  -26.7680  -12.5154 C   0  0  0  0  0  0  0  0  0  0  0  0
   20.5546  -27.0853  -11.2862 N   0  0  0  0  0  0  0  0  0  0  0  0
   21.6570  -27.0271  -13.3334 N   0  0  0  0  0  0  0  0  0  0  0  0
   21.6976  -26.6805  -14.7332 C   0  0  0  0  0  0  0  0  0  0  0  0
   22.0332  -25.2240  -14.9759 C   0  0  0  0  0  0  0  0  0  0  0  0
   23.4720  -24.9240  -14.7238 C   0  0  0  0  0  0  0  0  0  0  0  0
   23.9330  -23.5573  -15.0871 C   0  0  2  0  0  0  0  0  0  0  0  0
   25.3447  -23.3438  -14.9717 N   0  0  0  0  0  0  0  0  0  0  0  0
   23.1482  -22.6055  -14.2378 C   0  0  0  0  0  0  0  0  0  0  0  0
   23.7322  -22.1497  -13.2255 O   0  0  0  0  0  0  0  0  0  0  0  0
   21.3993  -27.5345  -10.8860 N   0  0  0  0  0  0  0  0  0  0  0  0
   24.5539  -15.6502  -16.7812 C   0  0  0  0  0  0  0  0  0  0  0  0
   25.0637  -16.6463  -15.8933 N   0  0  0  0  0  0  0  0  0  0  0  0
   26.3247  -16.7308  -15.6692 N   0  0  0  0  0  0  0  0  0  0  0  0
   24.1465  -17.5411  -15.2631 C   0  0  0  0  0  0  0  0  0  0  0  0
   22.7745  -17.5581  -15.6941 C   0  0  0  0  0  0  0  0  0  0  0  0
   21.9553  -18.4653  -14.7901 C   0  0  0  0  0  0  0  0  0  0  0  0
   22.2673  -19.9062  -15.0330 C   0  0  2  0  0  0  0  0  0  0  0  0
   21.4353  -20.8425  -14.1917 N   0  0  0  0  0  0  0  0  0  0  0  0
   21.8408  -22.2171  -14.5162 C   0  0  0  0  0  0  0  0  0  0  0  0
   20.0017  -20.7276  -14.5019 O   0  0  0  0  0  0  0  0  0  0  0  0
   19.4976  -21.4395  -15.3970 O   0  0  0  0  0  0  0  0  0  0  0  0
  2  1  1  0
  3  2  1  0
  4  3  2  0
  6  8  1  0
  6  5  1  0
  7  6  2  0
  9  8  1  0
 10 11  1  0
 10  9  1  0
 12 11  1  1
 12 13  1  0
 13  3  1  0
 14 15  2  0
 14 12  1  0
 16 17  1  0
 17 18  2  0
 19 17  1  0
 19 20  1  0
 21 20  1  0
 22 21  1  0
 23 22  1  1
 23 24  1  0
 24 14  1  0
 25 27  1  0
 25 23  1  0
 26 25  2  0
M  END
$$$$
