GRR.pdb
     RDKit          3D

 27 26  0  0  1  0  0  0  0  0999 V2000
   25.2616  -25.3793  -15.3516 N   0  0  0  0  0  0  0  0  0  0  0  0
   24.5392  -24.3954  -16.1123 C   0  0  0  0  0  0  0  0  0  0  0  0
   23.7329  -23.4940  -15.2564 C   0  0  0  0  0  0  0  0  0  0  0  0
   23.4946  -23.8586  -14.0810 O   0  0  0  0  0  0  0  0  0  0  0  0
   18.9168  -17.6632  -14.5019 N   0  0  0  0  0  0  0  0  0  0  0  0
   19.7758  -16.5395  -14.2181 C   0  0  0  0  0  0  0  0  0  0  0  0
   19.3304  -15.5620  -13.5409 N   0  0  0  0  0  0  0  0  0  0  0  0
   21.1181  -16.5086  -14.6890 N   0  0  0  0  0  0  0  0  0  0  0  0
   21.6828  -17.5686  -15.4881 C   0  0  0  0  0  0  0  0  0  0  0  0
   21.7952  -18.8812  -14.7414 C   0  0  0  0  0  0  0  0  0  0  0  0
   22.4206  -19.9525  -15.5690 C   0  0  0  0  0  0  0  0  0  0  0  0
   22.5763  -21.2808  -14.9179 C   0  0  2  0  0  0  0  0  0  0  0  0
   23.2393  -22.2709  -15.7130 N   0  0  0  0  0  0  0  0  0  0  0  0
   21.2031  -21.7152  -14.5072 C   0  0  0  0  0  0  0  0  0  0  0  0
   20.4051  -21.9921  -15.4347 O   0  0  0  0  0  0  0  0  0  0  0  0
   19.9303  -14.7350  -13.3628 N   0  0  0  0  0  0  0  0  0  0  0  0
   20.1607  -28.5589  -11.1528 C   0  0  0  0  0  0  0  0  0  0  0  0
   19.3809  -27.5323  -10.5376 N   0  0  0  0  0  0  0  0  0  0  0  0
   18.9421  -27.6809   -9.3406 N   0  0  0  0  0  0  0  0  0  0  0  0
   19.1016  -26.3433  -11.2775 C   0  0  0  0  0  0  0  0  0  0  0  0
   18.4146  -25.2587  -10.6294 C   0  0  0  0  0  0  0  0  0  0  0  0
   18.2453  -24.0972  -11.5956 C   0  0  0  0  0  0  0  0  0  0  0  0
   19.5629  -23.4999  -11.9695 C   0  0  1  0  0  0  0  0  0  0  0  0
   19.4362  -22.3280  -12.9115 N   0  0  0  0  0  0  0  0  0  0  0  0
   20.7889  -21.8223  -13.1827 C   0  0  0  0  0  0  0  0  0  0  0  0
   18.6718  -21.2240  -12.3102 O   0  0  0  0  0  0  0  0  0  0  0  0
   19.2726  -20.2596  -11.7898 O   0  0  0  0  0  0  0  0  0  0  0  0
  2  1  1  0
  3  2  1  0
  4  3  2  0
  6  8  1  0
  6  5  1  0
  7  6  2  0
  9  8  1  0
 10 11  1  0
 10  9  1  0
 12 11  1  6
 12 13  1  0
 13  3  1  0
 14 15  2  0
 14 12  1  0
 16 17  1  0
 17 18  2  0
 19 17  1  0
 19 20  1  0
 21 20  1  0
 22 21  1  0
 23 22  1  6
 23 24  1  0
 24 14  1  0
 25 27  1  0
 25 23  1  0
 26 25  2  0
M  END
$$$$
