GRR.pdb
     RDKit          3D

 27 26  0  0  1  0  0  0  0  0999 V2000
   26.0915  -21.5687   -9.5122 N   0  0  0  0  0  0  0  0  0  0  0  0
   25.0418  -20.6959   -9.9649 C   0  0  0  0  0  0  0  0  0  0  0  0
   24.4510  -21.1357  -11.2504 C   0  0  0  0  0  0  0  0  0  0  0  0
   24.9230  -22.1627  -11.7924 O   0  0  0  0  0  0  0  0  0  0  0  0
   16.8375  -20.4045  -11.7250 N   0  0  0  0  0  0  0  0  0  0  0  0
   17.0078  -21.7804  -12.1235 C   0  0  0  0  0  0  0  0  0  0  0  0
   15.9944  -22.5406  -12.2105 N   0  0  0  0  0  0  0  0  0  0  0  0
   18.2985  -22.3011  -12.4191 N   0  0  0  0  0  0  0  0  0  0  0  0
   19.2535  -21.5879  -13.2319 C   0  0  0  0  0  0  0  0  0  0  0  0
   20.3570  -20.9397  -12.4225 C   0  0  0  0  0  0  0  0  0  0  0  0
   21.3941  -20.3039  -13.2848 C   0  0  0  0  0  0  0  0  0  0  0  0
   22.7866  -20.7973  -13.1122 C   0  0  2  0  0  0  0  0  0  0  0  0
   23.4015  -20.4513  -11.8655 N   0  0  0  0  0  0  0  0  0  0  0  0
   23.5656  -20.2871  -14.2852 C   0  0  0  0  0  0  0  0  0  0  0  0
   23.9505  -19.0948  -14.2229 O   0  0  0  0  0  0  0  0  0  0  0  0
   16.1136  -23.5430  -12.4482 N   0  0  0  0  0  0  0  0  0  0  0  0
   29.1267  -23.9315  -17.1259 C   0  0  0  0  0  0  0  0  0  0  0  0
   29.6582  -22.8667  -17.9160 N   0  0  0  0  0  0  0  0  0  0  0  0
   30.9247  -22.6633  -17.9620 N   0  0  0  0  0  0  0  0  0  0  0  0
   28.7564  -22.0378  -18.6501 C   0  0  0  0  0  0  0  0  0  0  0  0
   27.3477  -22.3251  -18.6089 C   0  0  0  0  0  0  0  0  0  0  0  0
   26.5942  -21.1529  -18.0010 C   0  0  0  0  0  0  0  0  0  0  0  0
   25.6115  -21.6087  -16.9719 C   0  0  2  0  0  0  0  0  0  0  0  0
   24.7674  -20.4861  -16.4207 N   0  0  0  0  0  0  0  0  0  0  0  0
   23.8717  -21.0557  -15.4046 C   0  0  0  0  0  0  0  0  0  0  0  0
   23.9182  -19.8807  -17.4586 O   0  0  0  0  0  0  0  0  0  0  0  0
   22.6989  -20.1516  -17.5038 O   0  0  0  0  0  0  0  0  0  0  0  0
  2  1  1  0
  3  2  1  0
  4  3  2  0
  6  8  1  0
  6  5  1  0
  7  6  2  0
  9  8  1  0
 10 11  1  0
 10  9  1  0
 12 11  1  1
 12 13  1  0
 13  3  1  0
 14 15  2  0
 14 12  1  0
 16 17  1  0
 17 18  2  0
 19 17  1  0
 19 20  1  0
 21 20  1  0
 22 21  1  0
 23 22  1  1
 23 24  1  0
 24 14  1  0
 25 27  1  0
 25 23  1  0
 26 25  2  0
M  END
$$$$
