GRR.pdb
     RDKit          3D

 27 26  0  0  1  0  0  0  0  0999 V2000
   28.7399  -22.8396  -17.2867 N   0  0  0  0  0  0  0  0  0  0  0  0
   27.6588  -21.9681  -17.6613 C   0  0  0  0  0  0  0  0  0  0  0  0
   26.7020  -21.7400  -16.5533 C   0  0  0  0  0  0  0  0  0  0  0  0
   26.0429  -22.7210  -16.1356 O   0  0  0  0  0  0  0  0  0  0  0  0
   26.1237  -22.2956  -10.3623 N   0  0  0  0  0  0  0  0  0  0  0  0
   25.4215  -21.0530  -10.5714 C   0  0  0  0  0  0  0  0  0  0  0  0
   24.5033  -20.7056   -9.7658 N   0  0  0  0  0  0  0  0  0  0  0  0
   25.7412  -20.2090  -11.6713 N   0  0  0  0  0  0  0  0  0  0  0  0
   27.0846  -20.0759  -12.1800 C   0  0  0  0  0  0  0  0  0  0  0  0
   27.1933  -19.0863  -13.3210 C   0  0  0  0  0  0  0  0  0  0  0  0
   25.9299  -18.9858  -14.1068 C   0  0  0  0  0  0  0  0  0  0  0  0
   25.5758  -20.1675  -14.9378 C   0  0  2  0  0  0  0  0  0  0  0  0
   26.5162  -20.4853  -15.9705 N   0  0  0  0  0  0  0  0  0  0  0  0
   24.2060  -19.9063  -15.4842 C   0  0  0  0  0  0  0  0  0  0  0  0
   24.0920  -18.9256  -16.2581 O   0  0  0  0  0  0  0  0  0  0  0  0
   23.9395  -19.8557   -9.9534 N   0  0  0  0  0  0  0  0  0  0  0  0
   23.6912  -25.9183  -16.3898 C   0  0  0  0  0  0  0  0  0  0  0  0
   24.0023  -24.9719  -15.3660 N   0  0  0  0  0  0  0  0  0  0  0  0
   25.1069  -25.0576  -14.7180 N   0  0  0  0  0  0  0  0  0  0  0  0
   23.0644  -23.9336  -15.0803 C   0  0  0  0  0  0  0  0  0  0  0  0
   21.7763  -23.9562  -15.7196 C   0  0  0  0  0  0  0  0  0  0  0  0
   21.0094  -22.6849  -15.3923 C   0  0  0  0  0  0  0  0  0  0  0  0
   21.2511  -21.6217  -16.4139 C   0  0  1  0  0  0  0  0  0  0  0  0
   21.8122  -20.3509  -15.8250 N   0  0  0  0  0  0  0  0  0  0  0  0
   23.0905  -20.6815  -15.1803 C   0  0  0  0  0  0  0  0  0  0  0  0
   20.9318  -19.7955  -14.7851 O   0  0  0  0  0  0  0  0  0  0  0  0
   19.8128  -19.3337  -15.0959 O   0  0  0  0  0  0  0  0  0  0  0  0
  2  1  1  0
  3  2  1  0
  4  3  2  0
  6  8  1  0
  6  5  1  0
  7  6  2  0
  9  8  1  0
 10 11  1  0
 10  9  1  0
 12 11  1  6
 12 13  1  0
 13  3  1  0
 14 15  2  0
 14 12  1  0
 16 17  1  0
 17 18  2  0
 19 17  1  0
 19 20  1  0
 21 20  1  0
 22 21  1  0
 23 22  1  6
 23 24  1  0
 24 14  1  0
 25 27  1  0
 25 23  1  0
 26 25  2  0
M  END
$$$$
