GRR.pdb
     RDKit          3D

 27 26  0  0  1  0  0  0  0  0999 V2000
   27.6971  -16.8980  -17.1631 N   0  0  0  0  0  0  0  0  0  0  0  0
   26.9936  -16.9112  -15.9087 C   0  0  0  0  0  0  0  0  0  0  0  0
   26.8486  -18.2766  -15.3522 C   0  0  0  0  0  0  0  0  0  0  0  0
   26.7232  -19.2285  -16.1579 O   0  0  0  0  0  0  0  0  0  0  0  0
   30.3614  -23.0178  -10.4653 N   0  0  0  0  0  0  0  0  0  0  0  0
   30.2768  -21.7631   -9.7586 C   0  0  0  0  0  0  0  0  0  0  0  0
   31.1894  -21.4411   -8.9363 N   0  0  0  0  0  0  0  0  0  0  0  0
   29.1818  -20.8790   -9.9676 N   0  0  0  0  0  0  0  0  0  0  0  0
   27.8147  -21.3374  -10.0138 C   0  0  0  0  0  0  0  0  0  0  0  0
   27.2241  -21.3077  -11.4078 C   0  0  0  0  0  0  0  0  0  0  0  0
   27.2155  -19.9353  -11.9909 C   0  0  0  0  0  0  0  0  0  0  0  0
   26.6457  -19.8047  -13.3586 C   0  0  2  0  0  0  0  0  0  0  0  0
   26.8475  -18.5297  -13.9795 N   0  0  0  0  0  0  0  0  0  0  0  0
   25.1934  -20.1536  -13.2477 C   0  0  0  0  0  0  0  0  0  0  0  0
   24.4332  -19.2492  -12.8259 O   0  0  0  0  0  0  0  0  0  0  0  0
   31.1684  -20.5145   -8.4711 N   0  0  0  0  0  0  0  0  0  0  0  0
   19.7851  -23.0755   -8.1995 C   0  0  0  0  0  0  0  0  0  0  0  0
   19.6879  -22.0730   -9.2124 N   0  0  0  0  0  0  0  0  0  0  0  0
   18.5427  -21.7400   -9.6870 N   0  0  0  0  0  0  0  0  0  0  0  0
   20.8844  -21.4518   -9.6832 C   0  0  0  0  0  0  0  0  0  0  0  0
   20.8003  -20.4730  -10.7336 C   0  0  0  0  0  0  0  0  0  0  0  0
   21.2463  -21.0839  -12.0524 C   0  0  0  0  0  0  0  0  0  0  0  0
   22.7327  -21.0439  -12.1991 C   0  0  1  0  0  0  0  0  0  0  0  0
   23.2118  -21.5822  -13.5247 N   0  0  0  0  0  0  0  0  0  0  0  0
   24.6685  -21.3984  -13.5833 C   0  0  0  0  0  0  0  0  0  0  0  0
   22.6343  -20.8403  -14.6565 O   0  0  0  0  0  0  0  0  0  0  0  0
   21.4164  -20.9469  -14.9163 O   0  0  0  0  0  0  0  0  0  0  0  0
  2  1  1  0
  3  2  1  0
  4  3  2  0
  6  8  1  0
  6  5  1  0
  7  6  2  0
  9  8  1  0
 10 11  1  0
 10  9  1  0
 12 11  1  1
 12 13  1  0
 13  3  1  0
 14 15  2  0
 14 12  1  0
 16 17  1  0
 17 18  2  0
 19 17  1  0
 19 20  1  0
 21 20  1  0
 22 21  1  0
 23 22  1  1
 23 24  1  0
 24 14  1  0
 25 27  1  0
 25 23  1  0
 26 25  2  0
M  END
$$$$
