GRR.pdb
     RDKit          3D

 27 26  0  0  1  0  0  0  0  0999 V2000
   18.1619  -24.3655  -12.8121 N   0  0  0  0  0  0  0  0  0  0  0  0
   19.3362  -24.3119  -13.6408 C   0  0  0  0  0  0  0  0  0  0  0  0
   20.0685  -23.0308  -13.5075 C   0  0  0  0  0  0  0  0  0  0  0  0
   19.3963  -21.9751  -13.4376 O   0  0  0  0  0  0  0  0  0  0  0  0
   28.6080  -20.6909  -12.2957 N   0  0  0  0  0  0  0  0  0  0  0  0
   27.6523  -20.0251  -13.1468 C   0  0  0  0  0  0  0  0  0  0  0  0
   28.0613  -19.2654  -14.0786 N   0  0  0  0  0  0  0  0  0  0  0  0
   26.2539  -20.2053  -12.9561 N   0  0  0  0  0  0  0  0  0  0  0  0
   25.7165  -21.0371  -11.9071 C   0  0  0  0  0  0  0  0  0  0  0  0
   24.2032  -21.0914  -11.9073 C   0  0  0  0  0  0  0  0  0  0  0  0
   23.6680  -21.9832  -12.9758 C   0  0  0  0  0  0  0  0  0  0  0  0
   22.2464  -21.7717  -13.3589 C   0  0  2  0  0  0  0  0  0  0  0  0
   21.4619  -22.9661  -13.4583 N   0  0  0  0  0  0  0  0  0  0  0  0
   22.2636  -21.0008  -14.6428 C   0  0  0  0  0  0  0  0  0  0  0  0
   22.4829  -21.6608  -15.6868 O   0  0  0  0  0  0  0  0  0  0  0  0
   27.3804  -18.7826  -14.6940 N   0  0  0  0  0  0  0  0  0  0  0  0
   19.4869  -12.9805  -17.1683 C   0  0  0  0  0  0  0  0  0  0  0  0
   19.8815  -13.6200  -18.3832 N   0  0  0  0  0  0  0  0  0  0  0  0
   19.6619  -13.0545  -19.5144 N   0  0  0  0  0  0  0  0  0  0  0  0
   20.5224  -14.8942  -18.3138 C   0  0  0  0  0  0  0  0  0  0  0  0
   20.6379  -15.5530  -17.0406 C   0  0  0  0  0  0  0  0  0  0  0  0
   21.3389  -16.8917  -17.2080 C   0  0  0  0  0  0  0  0  0  0  0  0
   21.3790  -17.6529  -15.9228 C   0  0  1  0  0  0  0  0  0  0  0  0
   22.0535  -18.9965  -16.0509 N   0  0  0  0  0  0  0  0  0  0  0  0
   22.0521  -19.6273  -14.7239 C   0  0  0  0  0  0  0  0  0  0  0  0
   23.4582  -18.8649  -16.4682 O   0  0  0  0  0  0  0  0  0  0  0  0
   23.7505  -18.8597  -17.6834 O   0  0  0  0  0  0  0  0  0  0  0  0
  2  1  1  0
  3  2  1  0
  4  3  2  0
  6  8  1  0
  6  5  1  0
  7  6  2  0
  9  8  1  0
 10 11  1  0
 10  9  1  0
 12 11  1  6
 12 13  1  0
 13  3  1  0
 14 15  2  0
 14 12  1  0
 16 17  1  0
 17 18  2  0
 19 17  1  0
 19 20  1  0
 21 20  1  0
 22 21  1  0
 23 22  1  6
 23 24  1  0
 24 14  1  0
 25 27  1  0
 25 23  1  0
 26 25  2  0
M  END
$$$$
