GRR.pdb
     RDKit          3D

 27 26  0  0  1  0  0  0  0  0999 V2000
   26.4127  -23.8780  -14.8592 N   0  0  0  0  0  0  0  0  0  0  0  0
   26.2791  -22.5715  -14.2728 C   0  0  0  0  0  0  0  0  0  0  0  0
   24.9072  -22.3067  -13.7800 C   0  0  0  0  0  0  0  0  0  0  0  0
   23.9464  -22.7477  -14.4534 O   0  0  0  0  0  0  0  0  0  0  0  0
   20.8082  -22.3887   -6.4460 N   0  0  0  0  0  0  0  0  0  0  0  0
   20.5046  -22.8555   -7.7768 C   0  0  0  0  0  0  0  0  0  0  0  0
   19.8127  -23.9090   -7.9317 N   0  0  0  0  0  0  0  0  0  0  0  0
   20.9721  -22.1526   -8.9221 N   0  0  0  0  0  0  0  0  0  0  0  0
   21.7699  -20.9547   -8.8230 C   0  0  0  0  0  0  0  0  0  0  0  0
   22.0327  -20.3023  -10.1640 C   0  0  0  0  0  0  0  0  0  0  0  0
   23.3643  -20.6728  -10.7236 C   0  0  0  0  0  0  0  0  0  0  0  0
   23.3682  -21.2186  -12.1072 C   0  0  2  0  0  0  0  0  0  0  0  0
   24.6575  -21.5923  -12.6071 N   0  0  0  0  0  0  0  0  0  0  0  0
   22.7061  -20.1894  -12.9707 C   0  0  0  0  0  0  0  0  0  0  0  0
   23.3966  -19.1864  -13.2720 O   0  0  0  0  0  0  0  0  0  0  0  0
   19.5915  -24.2516   -8.8852 N   0  0  0  0  0  0  0  0  0  0  0  0
   23.1506  -18.8653  -19.1859 C   0  0  0  0  0  0  0  0  0  0  0  0
   22.1377  -17.9235  -19.5428 N   0  0  0  0  0  0  0  0  0  0  0  0
   21.8388  -17.7290  -20.7758 N   0  0  0  0  0  0  0  0  0  0  0  0
   21.4675  -17.2070  -18.5052 C   0  0  0  0  0  0  0  0  0  0  0  0
   21.6374  -17.6266  -17.1400 C   0  0  0  0  0  0  0  0  0  0  0  0
   20.8758  -18.9190  -16.8933 C   0  0  0  0  0  0  0  0  0  0  0  0
   21.4735  -19.7002  -15.7685 C   0  0  1  0  0  0  0  0  0  0  0  0
   20.9246  -19.3096  -14.4185 N   0  0  0  0  0  0  0  0  0  0  0  0
   21.3995  -20.2962  -13.4387 C   0  0  0  0  0  0  0  0  0  0  0  0
   19.4539  -19.3470  -14.3951 O   0  0  0  0  0  0  0  0  0  0  0  0
   18.8619  -20.3689  -13.9863 O   0  0  0  0  0  0  0  0  0  0  0  0
  2  1  1  0
  3  2  1  0
  4  3  2  0
  6  8  1  0
  6  5  1  0
  7  6  2  0
  9  8  1  0
 10 11  1  0
 10  9  1  0
 12 11  1  1
 12 13  1  0
 13  3  1  0
 14 15  2  0
 14 12  1  0
 16 17  1  0
 17 18  2  0
 19 17  1  0
 19 20  1  0
 21 20  1  0
 22 21  1  0
 23 22  1  1
 23 24  1  0
 24 14  1  0
 25 27  1  0
 25 23  1  0
 26 25  2  0
M  END
$$$$
