RKA.pdb
     RDKit          3D

 26 25  0  0  1  0  0  0  0  0999 V2000
    7.7201  -13.3486   15.9418 N   0  0  0  0  0  0  0  0  0  0  0  0
    8.2577  -13.1253   17.2445 C   0  0  0  0  0  0  0  0  0  0  0  0
    7.9387  -12.0634   17.8699 N   0  0  0  0  0  0  0  0  0  0  0  0
    9.1308  -14.0586   17.8461 N   0  0  0  0  0  0  0  0  0  0  0  0
    8.5786  -15.1847   18.5906 C   0  0  0  0  0  0  0  0  0  0  0  0
    7.2693  -14.8560   19.2082 C   0  0  0  0  0  0  0  0  0  0  0  0
    7.3093  -14.7593   20.6756 C   0  0  0  0  0  0  0  0  0  0  0  0
    8.2699  -15.6326   21.3683 C   0  0  2  0  0  0  0  0  0  0  0  0
    8.3948  -16.9582   20.8163 N   0  0  0  0  0  0  0  0  0  0  0  0
    7.9581  -15.7181   22.8461 C   0  0  0  0  0  0  0  0  0  0  0  0
    7.6845  -14.6837   23.5061 O   0  0  0  0  0  0  0  0  0  0  0  0
    8.4158  -11.7919   18.7430 N   0  0  0  0  0  0  0  0  0  0  0  0
    7.9621  -16.9485   23.5360 C   0  0  1  0  0  0  0  0  0  0  0  0
    7.7757  -16.9947   24.9894 C   0  0  0  0  0  0  0  0  0  0  0  0
    7.6035  -18.3942   25.4638 C   0  0  0  0  0  0  0  0  0  0  0  0
    7.5912  -18.5207   26.9580 C   0  0  0  0  0  0  0  0  0  0  0  0
    7.4254  -20.0007   27.3568 C   0  0  0  0  0  0  0  0  0  0  0  0
    7.5407  -20.0724   28.8787 N   0  0  0  0  0  0  0  0  0  0  0  0
    7.3231  -21.4214   29.3410 C   0  0  0  0  0  0  0  0  0  0  0  0
    8.8590  -16.2888   25.6816 O   0  0  0  0  0  0  0  0  0  0  0  0
   10.0495  -16.5933   25.4954 C   0  0  0  0  0  0  0  0  0  0  0  0
    9.3368  -13.2091   27.7685 C   0  0  2  0  0  0  0  0  0  0  0  0
    9.6709  -14.6210   27.3500 N   0  0  0  0  0  0  0  0  0  0  0  0
    8.5971  -15.2256   26.5958 C   0  0  0  0  0  0  0  0  0  0  0  0
   10.0301  -15.3979   28.5477 O   0  0  0  0  0  0  0  0  0  0  0  0
    9.3691  -16.4117   28.9046 O   0  0  0  0  0  0  0  0  0  0  0  0
  2  1  1  0
  2  3  2  0
  4  2  1  0
  5  4  1  0
  6  5  1  0
  7  6  1  0
  8  7  1  0
  8  9  1  6
 10  8  1  0
 11 10  2  0
 12 10  1  0
 13 14  1  1
 13 12  1  0
 15 16  1  0
 15 14  1  0
 17 16  1  0
 18 17  1  0
 19 13  1  0
 19 23  1  0
 20 19  2  0
 22 24  1  0
 22 23  1  0
 22 21  1  6
 24 26  1  0
 25 24  2  0
M  END
$$$$
