RKA.pdb
     RDKit          3D

 26 25  0  0  1  0  0  0  0  0999 V2000
    8.0482  -14.7337   15.8814 N   0  0  0  0  0  0  0  0  0  0  0  0
    7.6211  -13.8882   16.9485 C   0  0  0  0  0  0  0  0  0  0  0  0
    8.0792  -12.7026   17.0176 N   0  0  0  0  0  0  0  0  0  0  0  0
    6.7036  -14.3438   17.9211 N   0  0  0  0  0  0  0  0  0  0  0  0
    7.1983  -14.8483   19.1971 C   0  0  0  0  0  0  0  0  0  0  0  0
    8.0536  -16.0497   19.0273 C   0  0  0  0  0  0  0  0  0  0  0  0
    8.6285  -16.5552   20.2836 C   0  0  0  0  0  0  0  0  0  0  0  0
    9.8832  -15.9316   20.7329 C   0  0  2  0  0  0  0  0  0  0  0  0
   11.0805  -16.6563   20.3878 N   0  0  0  0  0  0  0  0  0  0  0  0
    9.8544  -15.6652   22.2217 C   0  0  0  0  0  0  0  0  0  0  0  0
   10.7019  -16.1933   22.9855 O   0  0  0  0  0  0  0  0  0  0  0  0
    7.8454  -12.0829   17.8082 N   0  0  0  0  0  0  0  0  0  0  0  0
    8.8860  -14.8230   22.8070 C   0  0  1  0  0  0  0  0  0  0  0  0
    8.8996  -14.5512   24.2475 C   0  0  0  0  0  0  0  0  0  0  0  0
    7.8280  -13.5894   24.6219 C   0  0  0  0  0  0  0  0  0  0  0  0
    7.7165  -13.3661   26.1006 C   0  0  0  0  0  0  0  0  0  0  0  0
    6.6271  -12.3143   26.3905 C   0  0  0  0  0  0  0  0  0  0  0  0
    6.5196  -12.1845   27.9091 N   0  0  0  0  0  0  0  0  0  0  0  0
    5.4413  -11.2957   28.2672 C   0  0  0  0  0  0  0  0  0  0  0  0
    8.8403  -15.7972   25.0188 O   0  0  0  0  0  0  0  0  0  0  0  0
    7.8424  -16.5367   24.9736 C   0  0  0  0  0  0  0  0  0  0  0  0
   10.8842  -18.4160   26.3162 C   0  0  2  0  0  0  0  0  0  0  0  0
    9.8099  -17.4106   26.6561 N   0  0  0  0  0  0  0  0  0  0  0  0
    9.9199  -16.2153   25.8520 C   0  0  0  0  0  0  0  0  0  0  0  0
    9.8635  -17.1296   28.1001 O   0  0  0  0  0  0  0  0  0  0  0  0
    9.9748  -15.9538   28.5441 O   0  0  0  0  0  0  0  0  0  0  0  0
  2  1  1  0
  2  3  2  0
  4  2  1  0
  5  4  1  0
  6  5  1  0
  7  6  1  0
  8  7  1  0
  8  9  1  1
 10  8  1  0
 11 10  2  0
 12 10  1  0
 13 14  1  1
 13 12  1  0
 15 16  1  0
 15 14  1  0
 17 16  1  0
 18 17  1  0
 19 13  1  0
 19 23  1  0
 20 19  2  0
 22 24  1  0
 22 23  1  0
 22 21  1  6
 24 26  1  0
 25 24  2  0
M  END
$$$$
