RKA.pdb
     RDKit          3D

 26 25  0  0  1  0  0  0  0  0999 V2000
   13.8792  -14.0253   19.6825 N   0  0  0  0  0  0  0  0  0  0  0  0
   12.7358  -14.7606   20.1161 C   0  0  0  0  0  0  0  0  0  0  0  0
   12.8732  -15.9865   20.4303 N   0  0  0  0  0  0  0  0  0  0  0  0
   11.4638  -14.1524   20.2025 N   0  0  0  0  0  0  0  0  0  0  0  0
   10.6794  -13.9488   18.9898 C   0  0  0  0  0  0  0  0  0  0  0  0
    9.7214  -12.8234   19.1283 C   0  0  0  0  0  0  0  0  0  0  0  0
    8.6983  -13.0348   20.1642 C   0  0  0  0  0  0  0  0  0  0  0  0
    7.9401  -14.2940   20.0953 C   0  0  2  0  0  0  0  0  0  0  0  0
    6.8513  -14.2976   19.1508 N   0  0  0  0  0  0  0  0  0  0  0  0
    7.4362  -14.6998   21.4627 C   0  0  0  0  0  0  0  0  0  0  0  0
    6.2958  -14.3477   21.8578 O   0  0  0  0  0  0  0  0  0  0  0  0
   12.1321  -16.4970   20.9340 N   0  0  0  0  0  0  0  0  0  0  0  0
    8.2168  -15.4808   22.3403 C   0  0  2  0  0  0  0  0  0  0  0  0
    7.6917  -15.8956   23.6447 C   0  0  0  0  0  0  0  0  0  0  0  0
    8.0701  -17.3011   23.9528 C   0  0  0  0  0  0  0  0  0  0  0  0
    7.6793  -17.7353   25.3340 C   0  0  0  0  0  0  0  0  0  0  0  0
    8.2091  -19.1576   25.6051 C   0  0  0  0  0  0  0  0  0  0  0  0
    7.6462  -19.5976   26.9557 N   0  0  0  0  0  0  0  0  0  0  0  0
    8.2111  -20.8643   27.3524 C   0  0  0  0  0  0  0  0  0  0  0  0
    8.0922  -14.9552   24.6965 O   0  0  0  0  0  0  0  0  0  0  0  0
    9.2900  -14.7137   24.9237 C   0  0  0  0  0  0  0  0  0  0  0  0
    6.3943  -12.4391   26.9400 C   0  0  2  0  0  0  0  0  0  0  0  0
    7.5463  -13.3018   26.4832 N   0  0  0  0  0  0  0  0  0  0  0  0
    7.1300  -14.2781   25.5028 C   0  0  0  0  0  0  0  0  0  0  0  0
    8.1755  -13.9163   27.6637 O   0  0  0  0  0  0  0  0  0  0  0  0
    8.1092  -15.1575   27.8811 O   0  0  0  0  0  0  0  0  0  0  0  0
  2  1  1  0
  2  3  2  0
  4  2  1  0
  5  4  1  0
  6  5  1  0
  7  6  1  0
  8  7  1  0
  8  9  1  6
 10  8  1  0
 11 10  2  0
 12 10  1  0
 13 14  1  6
 13 12  1  0
 15 16  1  0
 15 14  1  0
 17 16  1  0
 18 17  1  0
 19 13  1  0
 19 23  1  0
 20 19  2  0
 22 24  1  0
 22 23  1  0
 22 21  1  6
 24 26  1  0
 25 24  2  0
M  END
$$$$
