RKA.pdb
     RDKit          3D

 26 25  0  0  1  0  0  0  0  0999 V2000
    7.4594  -12.8259   16.9489 N   0  0  0  0  0  0  0  0  0  0  0  0
    7.8605  -14.0205   16.2795 C   0  0  0  0  0  0  0  0  0  0  0  0
    8.1088  -13.9751   15.0318 N   0  0  0  0  0  0  0  0  0  0  0  0
    7.9864  -15.2430   16.9760 N   0  0  0  0  0  0  0  0  0  0  0  0
    7.9299  -15.2502   18.4334 C   0  0  0  0  0  0  0  0  0  0  0  0
    8.2711  -13.9259   19.0108 C   0  0  0  0  0  0  0  0  0  0  0  0
    8.1818  -13.8739   20.4783 C   0  0  0  0  0  0  0  0  0  0  0  0
    9.2816  -14.5004   21.2287 C   0  0  2  0  0  0  0  0  0  0  0  0
    9.8983  -15.6281   20.5763 N   0  0  0  0  0  0  0  0  0  0  0  0
    8.8355  -14.8919   22.6202 C   0  0  0  0  0  0  0  0  0  0  0  0
    8.1062  -14.1265   23.3004 O   0  0  0  0  0  0  0  0  0  0  0  0
    8.4029  -14.8164   14.5129 N   0  0  0  0  0  0  0  0  0  0  0  0
    9.2159  -16.1181   23.2045 C   0  0  1  0  0  0  0  0  0  0  0  0
    8.7726  -16.4753   24.5555 C   0  0  0  0  0  0  0  0  0  0  0  0
    8.9017  -17.9382   24.7931 C   0  0  0  0  0  0  0  0  0  0  0  0
    8.5363  -18.3510   26.1877 C   0  0  0  0  0  0  0  0  0  0  0  0
    8.6669  -19.8804   26.3322 C   0  0  0  0  0  0  0  0  0  0  0  0
    8.2495  -20.2350   27.7586 N   0  0  0  0  0  0  0  0  0  0  0  0
    8.2925  -21.6628   27.9597 C   0  0  0  0  0  0  0  0  0  0  0  0
    9.4668  -15.6714   25.5669 O   0  0  0  0  0  0  0  0  0  0  0  0
   10.7077  -15.6502   25.6335 C   0  0  0  0  0  0  0  0  0  0  0  0
    8.7027  -12.8965   27.9467 C   0  0  2  0  0  0  0  0  0  0  0  0
    9.4581  -14.1372   27.5341 N   0  0  0  0  0  0  0  0  0  0  0  0
    8.7530  -14.8811   26.5158 C   0  0  0  0  0  0  0  0  0  0  0  0
    9.7374  -14.9430   28.7340 O   0  0  0  0  0  0  0  0  0  0  0  0
    9.2844  -16.1130   28.8684 O   0  0  0  0  0  0  0  0  0  0  0  0
  2  1  1  0
  2  3  2  0
  4  2  1  0
  5  4  1  0
  6  5  1  0
  7  6  1  0
  8  7  1  0
  8  9  1  6
 10  8  1  0
 11 10  2  0
 12 10  1  0
 13 14  1  1
 13 12  1  0
 15 16  1  0
 15 14  1  0
 17 16  1  0
 18 17  1  0
 19 13  1  0
 19 23  1  0
 20 19  2  0
 22 24  1  0
 22 23  1  0
 22 21  1  6
 24 26  1  0
 25 24  2  0
M  END
$$$$
