RKA.pdb
     RDKit          3D

 26 25  0  0  1  0  0  0  0  0999 V2000
    6.8905  -12.8050   19.2888 N   0  0  0  0  0  0  0  0  0  0  0  0
    8.0662  -13.1864   18.5759 C   0  0  0  0  0  0  0  0  0  0  0  0
    7.9963  -13.3555   17.3161 N   0  0  0  0  0  0  0  0  0  0  0  0
    9.2972  -13.3763   19.2422 N   0  0  0  0  0  0  0  0  0  0  0  0
   10.2433  -14.3654   18.7384 C   0  0  0  0  0  0  0  0  0  0  0  0
    9.7488  -15.7531   18.9213 C   0  0  0  0  0  0  0  0  0  0  0  0
   10.5621  -16.5594   19.8449 C   0  0  0  0  0  0  0  0  0  0  0  0
    9.8426  -17.2478   20.9282 C   0  0  2  0  0  0  0  0  0  0  0  0
    8.4665  -17.5648   20.6392 N   0  0  0  0  0  0  0  0  0  0  0  0
    9.9299  -16.4661   22.2203 C   0  0  0  0  0  0  0  0  0  0  0  0
   11.0457  -16.1645   22.7149 O   0  0  0  0  0  0  0  0  0  0  0  0
    8.7924  -13.7348   16.7813 N   0  0  0  0  0  0  0  0  0  0  0  0
    8.7756  -16.0486   22.9153 C   0  0  1  0  0  0  0  0  0  0  0  0
    8.8828  -15.3810   24.2161 C   0  0  0  0  0  0  0  0  0  0  0  0
    7.7321  -14.4665   24.4461 C   0  0  0  0  0  0  0  0  0  0  0  0
    7.8242  -13.7036   25.7338 C   0  0  0  0  0  0  0  0  0  0  0  0
    6.6391  -12.7241   25.8479 C   0  0  0  0  0  0  0  0  0  0  0  0
    6.7899  -11.9880   27.1783 N   0  0  0  0  0  0  0  0  0  0  0  0
    5.7959  -10.9497   27.2992 C   0  0  0  0  0  0  0  0  0  0  0  0
    9.0577  -16.3578   25.2961 O   0  0  0  0  0  0  0  0  0  0  0  0
    8.1304  -17.1095   25.6420 C   0  0  0  0  0  0  0  0  0  0  0  0
   11.9260  -18.1266   26.7978 C   0  0  2  0  0  0  0  0  0  0  0  0
   10.5161  -17.5951   26.8980 N   0  0  0  0  0  0  0  0  0  0  0  0
   10.2940  -16.4891   25.9953 C   0  0  0  0  0  0  0  0  0  0  0  0
   10.2397  -17.2462   28.3012 O   0  0  0  0  0  0  0  0  0  0  0  0
    9.9202  -16.0745   28.6436 O   0  0  0  0  0  0  0  0  0  0  0  0
  2  1  1  0
  2  3  2  0
  4  2  1  0
  5  4  1  0
  6  5  1  0
  7  6  1  0
  8  7  1  0
  8  9  1  6
 10  8  1  0
 11 10  2  0
 12 10  1  0
 13 14  1  1
 13 12  1  0
 15 16  1  0
 15 14  1  0
 17 16  1  0
 18 17  1  0
 19 13  1  0
 19 23  1  0
 20 19  2  0
 22 24  1  0
 22 23  1  0
 22 21  1  6
 24 26  1  0
 25 24  2  0
M  END
$$$$
