RKA.pdb
     RDKit          3D

 26 25  0  0  1  0  0  0  0  0999 V2000
   16.3230  -19.3977   17.4187 N   0  0  0  0  0  0  0  0  0  0  0  0
   16.0054  -20.7009   17.9055 C   0  0  0  0  0  0  0  0  0  0  0  0
   16.8379  -21.2968   18.6621 N   0  0  0  0  0  0  0  0  0  0  0  0
   14.7897  -21.3339   17.5638 N   0  0  0  0  0  0  0  0  0  0  0  0
   13.6367  -21.2027   18.4473 C   0  0  0  0  0  0  0  0  0  0  0  0
   13.3858  -19.7904   18.8299 C   0  0  0  0  0  0  0  0  0  0  0  0
   12.2525  -19.6142   19.7512 C   0  0  0  0  0  0  0  0  0  0  0  0
   11.0043  -19.0952   19.1698 C   0  0  2  0  0  0  0  0  0  0  0  0
   11.0052  -18.9775   17.7332 N   0  0  0  0  0  0  0  0  0  0  0  0
   10.6243  -17.7707   19.7941 C   0  0  0  0  0  0  0  0  0  0  0  0
   11.4844  -16.8695   19.9629 O   0  0  0  0  0  0  0  0  0  0  0  0
   16.6109  -22.2023   19.1004 N   0  0  0  0  0  0  0  0  0  0  0  0
    9.3040  -17.4963   20.2080 C   0  0  1  0  0  0  0  0  0  0  0  0
    8.9412  -16.1770   20.7344 C   0  0  0  0  0  0  0  0  0  0  0  0
    7.5040  -15.8792   20.4911 C   0  0  0  0  0  0  0  0  0  0  0  0
    7.0902  -14.5149   20.9561 C   0  0  0  0  0  0  0  0  0  0  0  0
    7.4304  -13.4683   19.8763 C   0  0  0  0  0  0  0  0  0  0  0  0
    6.7753  -12.1547   20.3005 N   0  0  0  0  0  0  0  0  0  0  0  0
    6.9559  -11.1465   19.2848 C   0  0  0  0  0  0  0  0  0  0  0  0
    9.3167  -16.0524   22.1467 O   0  0  0  0  0  0  0  0  0  0  0  0
    9.2292  -14.9660   22.7438 C   0  0  0  0  0  0  0  0  0  0  0  0
    9.9360  -18.3063   25.0572 C   0  0  2  0  0  0  0  0  0  0  0  0
   10.1459  -17.0225   24.2904 N   0  0  0  0  0  0  0  0  0  0  0  0
    9.7972  -17.1672   22.8957 C   0  0  0  0  0  0  0  0  0  0  0  0
   11.5354  -16.5765   24.4842 O   0  0  0  0  0  0  0  0  0  0  0  0
   12.3258  -16.4248   23.5124 O   0  0  0  0  0  0  0  0  0  0  0  0
  2  1  1  0
  2  3  2  0
  4  2  1  0
  5  4  1  0
  6  5  1  0
  7  6  1  0
  8  7  1  0
  8  9  1  6
 10  8  1  0
 11 10  2  0
 12 10  1  0
 13 14  1  1
 13 12  1  0
 15 16  1  0
 15 14  1  0
 17 16  1  0
 18 17  1  0
 19 13  1  0
 19 23  1  0
 20 19  2  0
 22 24  1  0
 22 23  1  0
 22 21  1  1
 24 26  1  0
 25 24  2  0
M  END
$$$$
