RKA.pdb
     RDKit          3D

 26 25  0  0  1  0  0  0  0  0999 V2000
    9.0690  -19.8665   16.4350 N   0  0  0  0  0  0  0  0  0  0  0  0
    7.8208  -20.4641   16.7826 C   0  0  0  0  0  0  0  0  0  0  0  0
    6.9982  -20.7580   15.8566 N   0  0  0  0  0  0  0  0  0  0  0  0
    7.4877  -20.7335   18.1287 N   0  0  0  0  0  0  0  0  0  0  0  0
    8.1721  -20.0144   19.1973 C   0  0  0  0  0  0  0  0  0  0  0  0
    7.9778  -18.5463   19.0942 C   0  0  0  0  0  0  0  0  0  0  0  0
    8.6444  -17.7801   20.1586 C   0  0  0  0  0  0  0  0  0  0  0  0
    8.5110  -16.3159   20.0999 C   0  0  2  0  0  0  0  0  0  0  0  0
    9.2715  -15.6771   19.0552 N   0  0  0  0  0  0  0  0  0  0  0  0
    8.8419  -15.6866   21.4351 C   0  0  0  0  0  0  0  0  0  0  0  0
   10.0278  -15.6472   21.8507 O   0  0  0  0  0  0  0  0  0  0  0  0
    6.0576  -21.1225   16.0711 N   0  0  0  0  0  0  0  0  0  0  0  0
    7.8443  -15.1251   22.2592 C   0  0  2  0  0  0  0  0  0  0  0  0
    8.1848  -14.5482   23.5632 C   0  0  0  0  0  0  0  0  0  0  0  0
    7.0747  -13.7051   24.0830 C   0  0  0  0  0  0  0  0  0  0  0  0
    7.3448  -13.1353   25.4436 C   0  0  0  0  0  0  0  0  0  0  0  0
    6.2355  -12.1332   25.8210 C   0  0  0  0  0  0  0  0  0  0  0  0
    6.5762  -11.5853   27.2061 N   0  0  0  0  0  0  0  0  0  0  0  0
    5.5386  -10.6968   27.6695 C   0  0  0  0  0  0  0  0  0  0  0  0
    8.5976  -15.5910   24.5083 O   0  0  0  0  0  0  0  0  0  0  0  0
    7.8145  -16.4900   24.8592 C   0  0  0  0  0  0  0  0  0  0  0  0
   11.7563  -16.9937   25.9001 C   0  0  2  0  0  0  0  0  0  0  0  0
   10.2891  -16.6517   26.0042 N   0  0  0  0  0  0  0  0  0  0  0  0
    9.9104  -15.6209   25.0654 C   0  0  0  0  0  0  0  0  0  0  0  0
    9.9848  -16.2889   27.3980 O   0  0  0  0  0  0  0  0  0  0  0  0
    9.4566  -15.1824   27.6961 O   0  0  0  0  0  0  0  0  0  0  0  0
  2  1  1  0
  2  3  2  0
  4  2  1  0
  5  4  1  0
  6  5  1  0
  7  6  1  0
  8  7  1  0
  8  9  1  6
 10  8  1  0
 11 10  2  0
 12 10  1  0
 13 14  1  6
 13 12  1  0
 15 16  1  0
 15 14  1  0
 17 16  1  0
 18 17  1  0
 19 13  1  0
 19 23  1  0
 20 19  2  0
 22 24  1  0
 22 23  1  0
 22 21  1  6
 24 26  1  0
 25 24  2  0
M  END
$$$$
