RKA.pdb
     RDKit          3D

 26 25  0  0  1  0  0  0  0  0999 V2000
    8.0842  -12.0198   17.4580 N   0  0  0  0  0  0  0  0  0  0  0  0
    7.9153  -13.2492   16.7536 C   0  0  0  0  0  0  0  0  0  0  0  0
    8.4710  -13.3906   15.6171 N   0  0  0  0  0  0  0  0  0  0  0  0
    7.1475  -14.3039   17.2954 N   0  0  0  0  0  0  0  0  0  0  0  0
    6.6561  -14.2065   18.6652 C   0  0  0  0  0  0  0  0  0  0  0  0
    7.7423  -14.3867   19.6609 C   0  0  0  0  0  0  0  0  0  0  0  0
    7.2805  -14.3685   21.0576 C   0  0  0  0  0  0  0  0  0  0  0  0
    8.2925  -14.6401   22.0906 C   0  0  2  0  0  0  0  0  0  0  0  0
    9.3826  -15.4830   21.6677 N   0  0  0  0  0  0  0  0  0  0  0  0
    7.6552  -15.2109   23.3382 C   0  0  0  0  0  0  0  0  0  0  0  0
    6.6361  -14.6744   23.8423 O   0  0  0  0  0  0  0  0  0  0  0  0
    8.4114  -14.2799   15.0983 N   0  0  0  0  0  0  0  0  0  0  0  0
    8.1730  -16.3555   23.9797 C   0  0  1  0  0  0  0  0  0  0  0  0
    7.6115  -16.8222   25.2509 C   0  0  0  0  0  0  0  0  0  0  0  0
    7.7822  -18.2920   25.4052 C   0  0  0  0  0  0  0  0  0  0  0  0
    7.1453  -18.8397   26.6475 C   0  0  0  0  0  0  0  0  0  0  0  0
    7.9078  -20.0948   27.1170 C   0  0  0  0  0  0  0  0  0  0  0  0
    7.1639  -20.6446   28.3332 N   0  0  0  0  0  0  0  0  0  0  0  0
    7.6717  -21.9460   28.6928 C   0  0  0  0  0  0  0  0  0  0  0  0
    8.1621  -16.0641   26.3793 O   0  0  0  0  0  0  0  0  0  0  0  0
    7.7081  -16.1974   27.5285 C   0  0  0  0  0  0  0  0  0  0  0  0
    8.7822  -13.4257   27.8919 C   0  0  1  0  0  0  0  0  0  0  0  0
    9.7748  -14.4212   27.3405 N   0  0  0  0  0  0  0  0  0  0  0  0
    9.2386  -15.1437   26.2101 C   0  0  0  0  0  0  0  0  0  0  0  0
   10.2072  -15.3122   28.4296 O   0  0  0  0  0  0  0  0  0  0  0  0
   10.7588  -14.8662   29.4732 O   0  0  0  0  0  0  0  0  0  0  0  0
  2  1  1  0
  2  3  2  0
  4  2  1  0
  5  4  1  0
  6  5  1  0
  7  6  1  0
  8  7  1  0
  8  9  1  6
 10  8  1  0
 11 10  2  0
 12 10  1  0
 13 14  1  6
 13 12  1  0
 15 16  1  0
 15 14  1  0
 17 16  1  0
 18 17  1  0
 19 13  1  0
 19 23  1  0
 20 19  2  0
 22 24  1  0
 22 23  1  0
 22 21  1  6
 24 26  1  0
 25 24  2  0
M  END
$$$$
