RKA.pdb
     RDKit          3D

 26 25  0  0  1  0  0  0  0  0999 V2000
    9.5065  -14.7953   17.5090 N   0  0  0  0  0  0  0  0  0  0  0  0
    8.5083  -13.9033   17.0149 C   0  0  0  0  0  0  0  0  0  0  0  0
    8.4049  -13.7280   15.7583 N   0  0  0  0  0  0  0  0  0  0  0  0
    7.6391  -13.2185   17.8929 N   0  0  0  0  0  0  0  0  0  0  0  0
    7.7327  -13.4560   19.3289 C   0  0  0  0  0  0  0  0  0  0  0  0
    6.9198  -14.6229   19.7547 C   0  0  0  0  0  0  0  0  0  0  0  0
    7.6291  -15.5488   20.6514 C   0  0  0  0  0  0  0  0  0  0  0  0
    6.8555  -16.6884   21.1690 C   0  0  2  0  0  0  0  0  0  0  0  0
    5.5298  -16.8236   20.6193 N   0  0  0  0  0  0  0  0  0  0  0  0
    6.7849  -16.6553   22.6797 C   0  0  0  0  0  0  0  0  0  0  0  0
    5.7620  -16.2187   23.2658 O   0  0  0  0  0  0  0  0  0  0  0  0
    7.7687  -13.0168   15.3670 N   0  0  0  0  0  0  0  0  0  0  0  0
    7.8523  -17.1076   23.4833 C   0  0  2  0  0  0  0  0  0  0  0  0
    7.7783  -17.0263   24.9452 C   0  0  0  0  0  0  0  0  0  0  0  0
    8.5014  -18.1594   25.5826 C   0  0  0  0  0  0  0  0  0  0  0  0
    8.5290  -18.0831   27.0800 C   0  0  0  0  0  0  0  0  0  0  0  0
    9.3024  -19.2882   27.6515 C   0  0  0  0  0  0  0  0  0  0  0  0
    9.2029  -19.2058   29.1740 N   0  0  0  0  0  0  0  0  0  0  0  0
    9.9536  -20.2726   29.7899 C   0  0  0  0  0  0  0  0  0  0  0  0
    8.2371  -15.7179   25.4234 O   0  0  0  0  0  0  0  0  0  0  0  0
    9.3149  -15.2326   25.0394 C   0  0  0  0  0  0  0  0  0  0  0  0
    6.7494  -12.7423   27.1278 C   0  0  2  0  0  0  0  0  0  0  0  0
    7.9107  -13.6306   26.7504 N   0  0  0  0  0  0  0  0  0  0  0  0
    7.4708  -14.9463   26.3465 C   0  0  0  0  0  0  0  0  0  0  0  0
    8.8615  -13.6705   27.8735 O   0  0  0  0  0  0  0  0  0  0  0  0
    9.1085  -14.7394   28.4969 O   0  0  0  0  0  0  0  0  0  0  0  0
  2  1  1  0
  2  3  2  0
  4  2  1  0
  5  4  1  0
  6  5  1  0
  7  6  1  0
  8  7  1  0
  8  9  1  6
 10  8  1  0
 11 10  2  0
 12 10  1  0
 13 14  1  6
 13 12  1  0
 15 16  1  0
 15 14  1  0
 17 16  1  0
 18 17  1  0
 19 13  1  0
 19 23  1  0
 20 19  2  0
 22 24  1  0
 22 23  1  0
 22 21  1  6
 24 26  1  0
 25 24  2  0
M  END
$$$$
