RKA.pdb
     RDKit          3D

 26 25  0  0  1  0  0  0  0  0999 V2000
   14.6485  -13.9810   18.1060 N   0  0  0  0  0  0  0  0  0  0  0  0
   14.2288  -14.4325   19.3929 C   0  0  0  0  0  0  0  0  0  0  0  0
   15.0867  -14.5081   20.3303 N   0  0  0  0  0  0  0  0  0  0  0  0
   12.8855  -14.7926   19.6402 N   0  0  0  0  0  0  0  0  0  0  0  0
   11.8848  -14.6002   18.5967 C   0  0  0  0  0  0  0  0  0  0  0  0
   10.5291  -15.0085   19.0427 C   0  0  0  0  0  0  0  0  0  0  0  0
    9.5222  -15.0059   17.9701 C   0  0  0  0  0  0  0  0  0  0  0  0
    8.2428  -14.3428   18.2680 C   0  0  2  0  0  0  0  0  0  0  0  0
    8.2064  -12.9318   17.9756 N   0  0  0  0  0  0  0  0  0  0  0  0
    7.8288  -14.5815   19.7032 C   0  0  0  0  0  0  0  0  0  0  0  0
    7.4953  -13.6221   20.4439 O   0  0  0  0  0  0  0  0  0  0  0  0
   14.8555  -14.9480   21.2341 N   0  0  0  0  0  0  0  0  0  0  0  0
    7.8007  -15.8761   20.2626 C   0  0  2  0  0  0  0  0  0  0  0  0
    7.1682  -16.1185   21.5628 C   0  0  0  0  0  0  0  0  0  0  0  0
    6.6068  -17.4942   21.6379 C   0  0  0  0  0  0  0  0  0  0  0  0
    5.4154  -17.7019   20.7511 C   0  0  0  0  0  0  0  0  0  0  0  0
    4.9983  -19.1860   20.7737 C   0  0  0  0  0  0  0  0  0  0  0  0
    3.7382  -19.3125   19.9189 N   0  0  0  0  0  0  0  0  0  0  0  0
    3.3016  -20.6860   19.8588 C   0  0  0  0  0  0  0  0  0  0  0  0
    8.0929  -15.8209   22.6615 O   0  0  0  0  0  0  0  0  0  0  0  0
    9.2920  -16.1420   22.6002 C   0  0  0  0  0  0  0  0  0  0  0  0
    8.0735  -13.7537   25.8102 C   0  0  2  0  0  0  0  0  0  0  0  0
    8.5989  -14.8355   24.8969 N   0  0  0  0  0  0  0  0  0  0  0  0
    7.6604  -15.1525   23.8451 C   0  0  0  0  0  0  0  0  0  0  0  0
    8.9574  -16.0092   25.7098 O   0  0  0  0  0  0  0  0  0  0  0  0
    8.3702  -17.1174   25.5712 O   0  0  0  0  0  0  0  0  0  0  0  0
  2  1  1  0
  2  3  2  0
  4  2  1  0
  5  4  1  0
  6  5  1  0
  7  6  1  0
  8  7  1  0
  8  9  1  1
 10  8  1  0
 11 10  2  0
 12 10  1  0
 13 14  1  6
 13 12  1  0
 15 16  1  0
 15 14  1  0
 17 16  1  0
 18 17  1  0
 19 13  1  0
 19 23  1  0
 20 19  2  0
 22 24  1  0
 22 23  1  0
 22 21  1  6
 24 26  1  0
 25 24  2  0
M  END
$$$$
