RVT.pdb
     RDKit          3D

 26 25  0  0  1  0  0  0  0  0999 V2000
    2.1946  -20.9895   18.7217 N   0  0  0  0  0  0  0  0  0  0  0  0
    2.8932  -21.0475   17.4661 C   0  0  0  0  0  0  0  0  0  0  0  0
    2.4993  -21.8725   16.5677 N   0  0  0  0  0  0  0  0  0  0  0  0
    4.0134  -20.2184   17.1810 N   0  0  0  0  0  0  0  0  0  0  0  0
    4.5315  -19.2611   18.1289 C   0  0  0  0  0  0  0  0  0  0  0  0
    5.5531  -19.7939   19.0544 C   0  0  0  0  0  0  0  0  0  0  0  0
    6.8007  -19.0420   19.2648 C   0  0  0  0  0  0  0  0  0  0  0  0
    7.1054  -17.8519   18.4444 C   0  0  2  0  0  0  0  0  0  0  0  0
    8.0672  -18.1760   17.3854 N   0  0  0  0  0  0  0  0  0  0  0  0
    7.9074  -16.9155   19.3371 C   0  0  0  0  0  0  0  0  0  0  0  0
    9.1478  -17.1200   19.4116 O   0  0  0  0  0  0  0  0  0  0  0  0
    2.9730  -22.0146   15.6570 C   0  0  0  0  0  0  0  0  0  0  0  0
    7.1164  -12.9156   19.8579 C   0  0  1  0  0  0  0  0  0  0  0  0
    7.5319  -13.6392   21.0962 C   0  0  0  0  0  0  0  0  0  0  0  0
    8.4239  -12.7792   21.9779 C   0  0  2  0  0  0  0  0  0  0  0  0
    8.1688  -14.9887   20.8368 N   0  0  0  0  0  0  0  0  0  0  0  0
    7.3396  -15.8562   20.0647 C   0  0  0  0  0  0  0  0  0  0  0  0
    8.5804  -15.5407   22.1527 O   0  0  0  0  0  0  0  0  0  0  0  0
    7.6580  -15.8028   22.9585 C   0  0  0  0  0  0  0  0  0  0  0  0
    9.4386  -18.7337   23.2798 C   0  0  2  0  0  0  0  0  0  0  0  0
   10.6824  -17.8984   23.5422 O   0  0  0  0  0  0  0  0  0  0  0  0
   11.6950  -18.1789   22.6316 C   0  0  2  0  0  0  0  0  0  0  0  0
   10.3995  -16.4491   23.6830 N   0  0  0  0  0  0  0  0  0  0  0  0
    9.9359  -15.7729   22.5132 C   0  0  0  0  0  0  0  0  0  0  0  0
   11.5479  -15.7862   24.3730 O   0  0  0  0  0  0  0  0  0  0  0  0
   11.8922  -16.0279   25.6900 O   0  0  0  0  0  0  0  0  0  0  0  0
  1  2  1  0
  2  3  2  0
  4  2  1  0
  5  4  1  0
  6  7  1  0
  6  5  1  0
  7  8  1  0
  8 10  1  0
  8  9  1  6
 10 11  2  0
 13 14  1  6
 13 12  1  0
 15 13  1  0
 15 16  1  6
 16 10  1  0
 17 15  1  0
 18 17  2  0
 20 19  1  1
 20 21  1  0
 20 22  1  0
 22 23  1  1
 23 17  1  0
 24 22  1  0
 24 25  1  0
 26 24  2  0
M  END
$$$$
