RVT.pdb
     RDKit          3D

 26 25  0  0  1  0  0  0  0  0999 V2000
    7.8643  -12.8847   15.3991 N   0  0  0  0  0  0  0  0  0  0  0  0
    8.2047  -13.4965   16.6552 C   0  0  0  0  0  0  0  0  0  0  0  0
    8.9682  -12.8687   17.4711 N   0  0  0  0  0  0  0  0  0  0  0  0
    7.7231  -14.7817   17.0294 N   0  0  0  0  0  0  0  0  0  0  0  0
    7.8375  -15.2916   18.3748 C   0  0  0  0  0  0  0  0  0  0  0  0
    6.9924  -14.6042   19.3735 C   0  0  0  0  0  0  0  0  0  0  0  0
    7.4854  -14.4449   20.7511 C   0  0  0  0  0  0  0  0  0  0  0  0
    7.6130  -15.6169   21.6413 C   0  0  2  0  0  0  0  0  0  0  0  0
    6.2942  -16.1177   22.0430 N   0  0  0  0  0  0  0  0  0  0  0  0
    8.1760  -15.0925   22.9547 C   0  0  0  0  0  0  0  0  0  0  0  0
    9.3832  -14.7337   22.9562 O   0  0  0  0  0  0  0  0  0  0  0  0
    9.2947  -13.2510   18.3774 C   0  0  0  0  0  0  0  0  0  0  0  0
    6.4896  -12.5512   25.4031 C   0  0  1  0  0  0  0  0  0  0  0  0
    7.1359  -13.6544   26.1743 C   0  0  0  0  0  0  0  0  0  0  0  0
    7.8654  -13.1305   27.4015 C   0  0  2  0  0  0  0  0  0  0  0  0
    8.0429  -14.5379   25.3432 N   0  0  0  0  0  0  0  0  0  0  0  0
    7.4265  -14.9916   24.1387 C   0  0  0  0  0  0  0  0  0  0  0  0
    8.5328  -15.6234   26.2307 O   0  0  0  0  0  0  0  0  0  0  0  0
    7.6739  -16.1831   26.9502 C   0  0  0  0  0  0  0  0  0  0  0  0
   12.0381  -19.0844   27.0990 C   0  0  2  0  0  0  0  0  0  0  0  0
   11.5857  -17.8391   26.3516 O   0  0  0  0  0  0  0  0  0  0  0  0
   11.4393  -18.0784   24.9898 C   0  0  1  0  0  0  0  0  0  0  0  0
   10.4076  -17.1794   26.9655 N   0  0  0  0  0  0  0  0  0  0  0  0
    9.8932  -16.0322   26.2871 C   0  0  0  0  0  0  0  0  0  0  0  0
   10.6575  -16.9808   28.4258 O   0  0  0  0  0  0  0  0  0  0  0  0
   10.6225  -18.0046   29.3543 O   0  0  0  0  0  0  0  0  0  0  0  0
  1  2  1  0
  2  3  2  0
  4  2  1  0
  5  4  1  0
  6  7  1  0
  6  5  1  0
  7  8  1  0
  8 10  1  0
  8  9  1  1
 10 11  2  0
 13 14  1  1
 13 12  1  0
 15 13  1  0
 15 16  1  6
 16 10  1  0
 17 15  1  0
 18 17  2  0
 20 19  1  6
 20 21  1  0
 20 22  1  0
 22 23  1  1
 23 17  1  0
 24 22  1  0
 24 25  1  0
 26 24  2  0
M  END
$$$$
