RVT.pdb
     RDKit          3D

 26 25  0  0  1  0  0  0  0  0999 V2000
   11.5905  -20.1577   12.0385 N   0  0  0  0  0  0  0  0  0  0  0  0
   10.9975  -18.8756   11.7699 C   0  0  0  0  0  0  0  0  0  0  0  0
   10.2772  -18.7261   10.7203 N   0  0  0  0  0  0  0  0  0  0  0  0
   11.1814  -17.7581   12.6308 N   0  0  0  0  0  0  0  0  0  0  0  0
   10.9776  -17.8360   14.0576 C   0  0  0  0  0  0  0  0  0  0  0  0
    9.7014  -17.2638   14.5349 C   0  0  0  0  0  0  0  0  0  0  0  0
    9.3869  -17.2966   15.9723 C   0  0  0  0  0  0  0  0  0  0  0  0
    9.4047  -18.5741   16.7140 C   0  0  2  0  0  0  0  0  0  0  0  0
    8.2380  -19.3954   16.3739 N   0  0  0  0  0  0  0  0  0  0  0  0
    9.1413  -18.2220   18.1713 C   0  0  0  0  0  0  0  0  0  0  0  0
    7.9372  -18.1386   18.5304 O   0  0  0  0  0  0  0  0  0  0  0  0
    9.7434  -17.8667   10.4955 C   0  0  0  0  0  0  0  0  0  0  0  0
   10.9184  -19.9183   21.2492 C   0  0  1  0  0  0  0  0  0  0  0  0
   10.8017  -18.4416   21.4371 C   0  0  0  0  0  0  0  0  0  0  0  0
   10.4809  -18.0815   22.8793 C   0  0  2  0  0  0  0  0  0  0  0  0
    9.8309  -17.7742   20.4852 N   0  0  0  0  0  0  0  0  0  0  0  0
   10.1579  -17.9922   19.1134 C   0  0  0  0  0  0  0  0  0  0  0  0
    9.7432  -16.3445   20.8775 O   0  0  0  0  0  0  0  0  0  0  0  0
   10.8095  -15.6890   20.8307 C   0  0  0  0  0  0  0  0  0  0  0  0
    8.3657  -13.0446   19.5649 C   0  0  2  0  0  0  0  0  0  0  0  0
    7.5962  -13.4794   20.8029 O   0  0  0  0  0  0  0  0  0  0  0  0
    6.3432  -13.9886   20.4803 C   0  0  2  0  0  0  0  0  0  0  0  0
    8.3784  -14.3616   21.7029 N   0  0  0  0  0  0  0  0  0  0  0  0
    8.5341  -15.7196   21.2881 C   0  0  0  0  0  0  0  0  0  0  0  0
    7.8945  -14.1895   23.1067 O   0  0  0  0  0  0  0  0  0  0  0  0
    7.4359  -15.2316   23.8912 O   0  0  0  0  0  0  0  0  0  0  0  0
  1  2  1  0
  2  3  2  0
  4  2  1  0
  5  4  1  0
  6  7  1  0
  6  5  1  0
  7  8  1  0
  8 10  1  0
  8  9  1  6
 10 11  2  0
 13 14  1  1
 13 12  1  0
 15 13  1  0
 15 16  1  1
 16 10  1  0
 17 15  1  0
 18 17  2  0
 20 19  1  1
 20 21  1  0
 20 22  1  0
 22 23  1  1
 23 17  1  0
 24 22  1  0
 24 25  1  0
 26 24  2  0
M  END
$$$$
