RVT.pdb
     RDKit          3D

 26 25  0  0  1  0  0  0  0  0999 V2000
    8.5123  -15.0524   16.7970 N   0  0  0  0  0  0  0  0  0  0  0  0
    7.8276  -13.8625   16.3688 C   0  0  0  0  0  0  0  0  0  0  0  0
    7.5757  -13.6989   15.1228 N   0  0  0  0  0  0  0  0  0  0  0  0
    7.4166  -12.8522   17.2821 N   0  0  0  0  0  0  0  0  0  0  0  0
    7.6482  -12.9503   18.7034 C   0  0  0  0  0  0  0  0  0  0  0  0
    7.3618  -14.2765   19.2893 C   0  0  0  0  0  0  0  0  0  0  0  0
    7.7190  -14.5394   20.6926 C   0  0  0  0  0  0  0  0  0  0  0  0
    8.8386  -13.8154   21.3289 C   0  0  2  0  0  0  0  0  0  0  0  0
   10.1300  -14.3569   20.8928 N   0  0  0  0  0  0  0  0  0  0  0  0
    8.8068  -14.1960   22.8024 C   0  0  0  0  0  0  0  0  0  0  0  0
    9.7974  -14.8320   23.2498 O   0  0  0  0  0  0  0  0  0  0  0  0
    7.1315  -12.8523   14.7228 C   0  0  0  0  0  0  0  0  0  0  0  0
    6.6780  -11.8371   25.4669 C   0  0  1  0  0  0  0  0  0  0  0  0
    6.8431  -13.2669   25.8645 C   0  0  0  0  0  0  0  0  0  0  0  0
    7.0752  -13.4116   27.3605 C   0  0  2  0  0  0  0  0  0  0  0  0
    7.9067  -14.0059   25.0792 N   0  0  0  0  0  0  0  0  0  0  0  0
    7.7467  -13.8760   23.6671 C   0  0  0  0  0  0  0  0  0  0  0  0
    7.9218  -15.4074   25.5707 O   0  0  0  0  0  0  0  0  0  0  0  0
    6.8539  -16.0505   25.4489 C   0  0  0  0  0  0  0  0  0  0  0  0
    9.2576  -18.5243   24.3866 C   0  0  2  0  0  0  0  0  0  0  0  0
    9.9094  -18.3118   25.7445 O   0  0  0  0  0  0  0  0  0  0  0  0
   11.2613  -18.0086   25.6271 C   0  0  2  0  0  0  0  0  0  0  0  0
    9.1655  -17.3674   26.6134 N   0  0  0  0  0  0  0  0  0  0  0  0
    9.0659  -16.0192   26.1519 C   0  0  0  0  0  0  0  0  0  0  0  0
    9.6436  -17.5110   28.0223 O   0  0  0  0  0  0  0  0  0  0  0  0
    9.5261  -18.6774   28.7552 O   0  0  0  0  0  0  0  0  0  0  0  0
  1  2  1  0
  2  3  2  0
  4  2  1  0
  5  4  1  0
  6  7  1  0
  6  5  1  0
  7  8  1  0
  8 10  1  0
  8  9  1  6
 10 11  2  0
 13 14  1  1
 13 12  1  0
 15 13  1  0
 15 16  1  1
 16 10  1  0
 17 15  1  0
 18 17  2  0
 20 19  1  1
 20 21  1  0
 20 22  1  0
 22 23  1  1
 23 17  1  0
 24 22  1  0
 24 25  1  0
 26 24  2  0
M  END
$$$$
