RVT.pdb
     RDKit          3D

 26 25  0  0  1  0  0  0  0  0999 V2000
    8.3531  -20.5427   14.4545 N   0  0  0  0  0  0  0  0  0  0  0  0
    8.5202  -21.8665   14.9906 C   0  0  0  0  0  0  0  0  0  0  0  0
    8.7282  -22.8451   14.1894 N   0  0  0  0  0  0  0  0  0  0  0  0
    8.4626  -22.1337   16.3867 N   0  0  0  0  0  0  0  0  0  0  0  0
    8.3100  -21.0890   17.3710 C   0  0  0  0  0  0  0  0  0  0  0  0
    8.3144  -19.7157   16.8250 C   0  0  0  0  0  0  0  0  0  0  0  0
    8.1897  -18.5722   17.7430 C   0  0  0  0  0  0  0  0  0  0  0  0
    8.1748  -17.1904   17.2206 C   0  0  2  0  0  0  0  0  0  0  0  0
    9.1922  -17.0113   16.1793 N   0  0  0  0  0  0  0  0  0  0  0  0
    8.6992  -16.3068   18.3436 C   0  0  0  0  0  0  0  0  0  0  0  0
    9.9452  -16.2932   18.5256 O   0  0  0  0  0  0  0  0  0  0  0  0
    8.8437  -23.8306   14.4885 C   0  0  0  0  0  0  0  0  0  0  0  0
    7.2105  -12.7115   19.5236 C   0  0  1  0  0  0  0  0  0  0  0  0
    7.5946  -13.5979   20.6622 C   0  0  0  0  0  0  0  0  0  0  0  0
    8.2654  -12.8170   21.7816 C   0  0  2  0  0  0  0  0  0  0  0  0
    8.4347  -14.7914   20.2577 N   0  0  0  0  0  0  0  0  0  0  0  0
    7.8748  -15.5221   19.1673 C   0  0  0  0  0  0  0  0  0  0  0  0
    8.6713  -15.5977   21.4823 O   0  0  0  0  0  0  0  0  0  0  0  0
    7.6566  -15.9090   22.1473 C   0  0  0  0  0  0  0  0  0  0  0  0
    9.7267  -19.0769   22.0324 C   0  0  2  0  0  0  0  0  0  0  0  0
   10.7526  -18.2064   22.7420 O   0  0  0  0  0  0  0  0  0  0  0  0
   11.9834  -18.2269   22.0956 C   0  0  2  0  0  0  0  0  0  0  0  0
   10.2618  -16.8375   23.0345 N   0  0  0  0  0  0  0  0  0  0  0  0
    9.9630  -16.0124   21.9073 C   0  0  0  0  0  0  0  0  0  0  0  0
   11.1496  -16.2019   24.0553 O   0  0  0  0  0  0  0  0  0  0  0  0
   11.2458  -16.6380   25.3637 O   0  0  0  0  0  0  0  0  0  0  0  0
  1  2  1  0
  2  3  2  0
  4  2  1  0
  5  4  1  0
  6  7  1  0
  6  5  1  0
  7  8  1  0
  8 10  1  0
  8  9  1  6
 10 11  2  0
 13 14  1  6
 13 12  1  0
 15 13  1  0
 15 16  1  6
 16 10  1  0
 17 15  1  0
 18 17  2  0
 20 19  1  1
 20 21  1  0
 20 22  1  0
 22 23  1  1
 23 17  1  0
 24 22  1  0
 24 25  1  0
 26 24  2  0
M  END
$$$$
