RVT.pdb
     RDKit          3D

 26 25  0  0  1  0  0  0  0  0999 V2000
    8.3323  -17.8274   13.0764 N   0  0  0  0  0  0  0  0  0  0  0  0
    9.1434  -18.9654   12.7374 C   0  0  0  0  0  0  0  0  0  0  0  0
    8.8390  -19.6675   11.7092 N   0  0  0  0  0  0  0  0  0  0  0  0
   10.2789  -19.3449   13.5056 N   0  0  0  0  0  0  0  0  0  0  0  0
   10.6859  -18.6323   14.6930 C   0  0  0  0  0  0  0  0  0  0  0  0
    9.5777  -18.0491   15.4777 C   0  0  0  0  0  0  0  0  0  0  0  0
    9.8744  -17.3467   16.7366 C   0  0  0  0  0  0  0  0  0  0  0  0
    9.1211  -17.6643   17.9671 C   0  0  2  0  0  0  0  0  0  0  0  0
    7.6755  -17.5745   17.7361 N   0  0  0  0  0  0  0  0  0  0  0  0
    9.3699  -16.5091   18.9266 C   0  0  0  0  0  0  0  0  0  0  0  0
   10.5682  -16.2617   19.2246 O   0  0  0  0  0  0  0  0  0  0  0  0
    9.3446  -20.5232   11.4155 C   0  0  0  0  0  0  0  0  0  0  0  0
    7.4479  -12.9044   19.2691 C   0  0  1  0  0  0  0  0  0  0  0  0
    7.6299  -13.6381   20.5569 C   0  0  0  0  0  0  0  0  0  0  0  0
    7.9422  -12.6907   21.7048 C   0  0  2  0  0  0  0  0  0  0  0  0
    8.6469  -14.7584   20.4894 N   0  0  0  0  0  0  0  0  0  0  0  0
    8.3463  -15.7229   19.4816 C   0  0  0  0  0  0  0  0  0  0  0  0
    8.7753  -15.3186   21.8589 O   0  0  0  0  0  0  0  0  0  0  0  0
    7.7053  -15.5472   22.4684 C   0  0  0  0  0  0  0  0  0  0  0  0
   11.3638  -18.2799   22.3460 C   0  0  1  0  0  0  0  0  0  0  0  0
   10.3089  -17.8866   23.3689 O   0  0  0  0  0  0  0  0  0  0  0  0
   10.4098  -18.6418   24.5319 C   0  0  1  0  0  0  0  0  0  0  0  0
   10.2450  -16.4256   23.6169 N   0  0  0  0  0  0  0  0  0  0  0  0
   10.0260  -15.5938   22.4764 C   0  0  0  0  0  0  0  0  0  0  0  0
   11.4007  -16.0187   24.4732 O   0  0  0  0  0  0  0  0  0  0  0  0
   11.6267  -16.5195   25.7419 O   0  0  0  0  0  0  0  0  0  0  0  0
  1  2  1  0
  2  3  2  0
  4  2  1  0
  5  4  1  0
  6  7  1  0
  6  5  1  0
  7  8  1  0
  8 10  1  0
  8  9  1  6
 10 11  2  0
 13 14  1  6
 13 12  1  0
 15 13  1  0
 15 16  1  6
 16 10  1  0
 17 15  1  0
 18 17  2  0
 20 19  1  6
 20 21  1  0
 20 22  1  0
 22 23  1  6
 23 17  1  0
 24 22  1  0
 24 25  1  0
 26 24  2  0
M  END
$$$$
