RVT.pdb
     RDKit          3D

 26 25  0  0  1  0  0  0  0  0999 V2000
    4.4579  -19.8608   18.5784 N   0  0  0  0  0  0  0  0  0  0  0  0
    5.1372  -20.8719   17.8141 C   0  0  0  0  0  0  0  0  0  0  0  0
    4.4789  -21.5509   16.9490 N   0  0  0  0  0  0  0  0  0  0  0  0
    6.5220  -21.1498   17.9830 N   0  0  0  0  0  0  0  0  0  0  0  0
    7.3709  -20.3657   18.8479 C   0  0  0  0  0  0  0  0  0  0  0  0
    7.5724  -18.9662   18.4178 C   0  0  0  0  0  0  0  0  0  0  0  0
    8.7035  -18.6365   17.5357 C   0  0  0  0  0  0  0  0  0  0  0  0
    8.9723  -17.2348   17.1544 C   0  0  2  0  0  0  0  0  0  0  0  0
   10.2609  -17.1159   16.4640 N   0  0  0  0  0  0  0  0  0  0  0  0
    9.2283  -16.4837   18.4534 C   0  0  0  0  0  0  0  0  0  0  0  0
   10.3482  -16.6573   19.0026 O   0  0  0  0  0  0  0  0  0  0  0  0
    4.8822  -22.3141   16.3754 C   0  0  0  0  0  0  0  0  0  0  0  0
    7.4764  -12.7830   19.5512 C   0  0  2  0  0  0  0  0  0  0  0  0
    7.6247  -13.8385   20.5969 C   0  0  0  0  0  0  0  0  0  0  0  0
    7.9260  -13.2397   21.9620 C   0  0  2  0  0  0  0  0  0  0  0  0
    8.6296  -14.9162   20.2463 N   0  0  0  0  0  0  0  0  0  0  0  0
    8.2934  -15.6237   19.0535 C   0  0  0  0  0  0  0  0  0  0  0  0
    8.7899  -15.7752   21.4472 O   0  0  0  0  0  0  0  0  0  0  0  0
    7.8001  -16.4727   21.7676 C   0  0  0  0  0  0  0  0  0  0  0  0
   12.6086  -17.1543   22.5951 C   0  0  2  0  0  0  0  0  0  0  0  0
   11.2988  -17.7259   23.1163 O   0  0  0  0  0  0  0  0  0  0  0  0
   11.4957  -18.5416   24.2250 C   0  0  1  0  0  0  0  0  0  0  0  0
   10.2471  -16.6995   23.3175 N   0  0  0  0  0  0  0  0  0  0  0  0
    9.9851  -15.8298   22.2150 C   0  0  0  0  0  0  0  0  0  0  0  0
   10.4786  -16.0034   24.6200 O   0  0  0  0  0  0  0  0  0  0  0  0
   10.4858  -16.6496   25.8422 O   0  0  0  0  0  0  0  0  0  0  0  0
  1  2  1  0
  2  3  2  0
  4  2  1  0
  5  4  1  0
  6  7  1  0
  6  5  1  0
  7  8  1  0
  8 10  1  0
  8  9  1  6
 10 11  2  0
 13 14  1  6
 13 12  1  0
 15 13  1  0
 15 16  1  6
 16 10  1  0
 17 15  1  0
 18 17  2  0
 20 19  1  6
 20 21  1  0
 20 22  1  0
 22 23  1  6
 23 17  1  0
 24 22  1  0
 24 25  1  0
 26 24  2  0
M  END
$$$$
