NPT.pdb
     RDKit          3D

 23 23  0  0  1  0  0  0  0  0999 V2000
   17.7717  -13.6564  -16.5771 N   0  0  0  0  0  0  0  0  0  0  0  0
   19.1083  -13.1908  -16.4343 C   0  0  0  0  0  0  0  0  0  0  0  0
   20.0462  -14.0281  -16.4397 O   0  0  0  0  0  0  0  0  0  0  0  0
   19.4692  -11.7677  -16.2780 C   0  0  0  0  0  0  0  0  0  0  0  0
   18.1726  -10.9574  -16.2762 C   0  0  2  0  0  0  0  0  0  0  0  0
   17.5242  -11.0550  -17.5575 N   0  0  0  0  0  0  0  0  0  0  0  0
   18.4439   -9.5756  -15.8358 C   0  0  0  0  0  0  0  0  0  0  0  0
   18.6842   -8.7059  -16.7013 O   0  0  0  0  0  0  0  0  0  0  0  0
   18.4370   -9.2238  -14.4788 N   0  0  0  0  0  0  0  0  0  0  0  0
   18.2981  -10.1453  -13.3770 C   0  0  0  0  0  0  0  0  0  0  0  0
   18.3746   -9.3465  -12.0956 C   0  0  0  0  0  0  0  0  0  0  0  0
   18.0856   -7.9493  -12.5212 C   0  0  0  0  0  0  0  0  0  0  0  0
   18.5694   -7.8995  -13.9497 C   0  0  1  0  0  0  0  0  0  0  0  0
   19.9373   -7.3771  -13.9647 C   0  0  0  0  0  0  0  0  0  0  0  0
   20.8858   -8.0994  -13.6294 O   0  0  0  0  0  0  0  0  0  0  0  0
   21.5207   -5.8489  -17.1146 C   0  0  0  0  0  0  0  0  0  0  0  0
   21.7683   -4.9271  -15.9596 C   0  0  1  0  0  0  0  0  0  0  0  0
   20.8764   -3.8583  -16.0448 O   0  0  0  0  0  0  0  0  0  0  0  0
   21.5809   -5.5648  -14.6128 C   0  0  2  0  0  0  0  0  0  0  0  0
   20.2536   -6.0292  -14.3588 N   0  0  0  0  0  0  0  0  0  0  0  0
   22.1306   -4.7312  -13.5094 C   0  0  0  0  0  0  0  0  0  0  0  0
   23.4702   -4.3655  -13.4584 O   0  0  0  0  0  0  0  0  0  0  0  0
   21.4258   -4.3025  -12.5527 O   0  0  0  0  0  0  0  0  0  0  0  0
  2  4  1  0
  2  1  1  0
  3  2  2  0
  5  4  1  0
  5  6  1  6
  5  7  1  0
  7  8  2  0
  9  7  1  0
  9 13  1  0
 10  9  1  0
 11 10  1  0
 11 12  1  0
 12 13  1  0
 13 14  1  1
 14 20  1  0
 14 15  2  0
 17 16  1  6
 17 19  1  0
 18 17  1  0
 19 21  1  0
 19 20  1  1
 21 22  1  0
 23 21  2  0
M  END
$$$$
