NPT.pdb
     RDKit          3D

 23 23  0  0  1  0  0  0  0  0999 V2000
   28.8403  -18.1972  -18.6233 N   0  0  0  0  0  0  0  0  0  0  0  0
   27.6985  -17.6719  -17.9570 C   0  0  0  0  0  0  0  0  0  0  0  0
   27.3572  -16.4832  -18.1837 O   0  0  0  0  0  0  0  0  0  0  0  0
   26.8775  -18.4440  -17.0033 C   0  0  0  0  0  0  0  0  0  0  0  0
   27.4779  -19.8466  -16.9032 C   0  0  2  0  0  0  0  0  0  0  0  0
   27.3092  -20.5489  -18.1482 N   0  0  0  0  0  0  0  0  0  0  0  0
   26.9236  -20.5482  -15.7295 C   0  0  0  0  0  0  0  0  0  0  0  0
   25.9093  -21.2635  -15.8813 O   0  0  0  0  0  0  0  0  0  0  0  0
   27.5074  -20.4288  -14.4607 N   0  0  0  0  0  0  0  0  0  0  0  0
   28.6909  -19.6621  -14.1537 C   0  0  0  0  0  0  0  0  0  0  0  0
   28.9476  -19.7852  -12.6689 C   0  0  0  0  0  0  0  0  0  0  0  0
   28.1750  -20.9924  -12.2659 C   0  0  0  0  0  0  0  0  0  0  0  0
   27.0349  -21.0379  -13.2536 C   0  0  1  0  0  0  0  0  0  0  0  0
   25.8713  -20.3771  -12.6589 C   0  0  0  0  0  0  0  0  0  0  0  0
   25.8435  -19.1442  -12.5446 O   0  0  0  0  0  0  0  0  0  0  0  0
   22.6452  -20.3766  -14.1804 C   0  0  0  0  0  0  0  0  0  0  0  0
   22.3519  -20.7379  -12.7561 C   0  0  1  0  0  0  0  0  0  0  0  0
   22.0558  -22.0994  -12.6948 O   0  0  0  0  0  0  0  0  0  0  0  0
   23.4894  -20.4804  -11.8097 C   0  0  2  0  0  0  0  0  0  0  0  0
   24.7211  -21.1006  -12.1841 N   0  0  0  0  0  0  0  0  0  0  0  0
   23.1147  -20.7317  -10.3916 C   0  0  0  0  0  0  0  0  0  0  0  0
   22.0145  -20.1227   -9.8004 O   0  0  0  0  0  0  0  0  0  0  0  0
   23.7634  -21.5075   -9.6345 O   0  0  0  0  0  0  0  0  0  0  0  0
  2  4  1  0
  2  1  1  0
  3  2  2  0
  5  4  1  0
  5  6  1  6
  5  7  1  0
  7  8  2  0
  9  7  1  0
  9 13  1  0
 10  9  1  0
 11 10  1  0
 11 12  1  0
 12 13  1  0
 13 14  1  1
 14 20  1  0
 14 15  2  0
 17 16  1  6
 17 19  1  0
 18 17  1  0
 19 21  1  0
 19 20  1  6
 21 22  1  0
 23 21  2  0
M  END
$$$$
