NPT.pdb
     RDKit          3D

 23 23  0  0  1  0  0  0  0  0999 V2000
   37.0801   -8.8105   -8.9797 N   0  0  0  0  0  0  0  0  0  0  0  0
   38.2689   -8.0622   -8.7553 C   0  0  0  0  0  0  0  0  0  0  0  0
   38.3609   -6.9080   -9.2454 O   0  0  0  0  0  0  0  0  0  0  0  0
   39.4173   -8.5613   -7.9731 C   0  0  0  0  0  0  0  0  0  0  0  0
   39.0804   -9.9778   -7.5060 C   0  0  2  0  0  0  0  0  0  0  0  0
   37.9531   -9.9506   -6.6116 N   0  0  0  0  0  0  0  0  0  0  0  0
   40.2842  -10.6226   -6.9475 C   0  0  0  0  0  0  0  0  0  0  0  0
   40.4247  -10.6585   -5.7056 O   0  0  0  0  0  0  0  0  0  0  0  0
   41.2630  -11.1900   -7.7753 N   0  0  0  0  0  0  0  0  0  0  0  0
   41.2161  -11.2332   -9.2170 C   0  0  0  0  0  0  0  0  0  0  0  0
   42.4823  -11.9037   -9.6995 C   0  0  0  0  0  0  0  0  0  0  0  0
   42.9843  -12.6348   -8.5035 C   0  0  0  0  0  0  0  0  0  0  0  0
   42.4746  -11.8185   -7.3411 C   0  0  1  0  0  0  0  0  0  0  0  0
   43.5239  -10.8853   -6.9260 C   0  0  0  0  0  0  0  0  0  0  0  0
   43.7675   -9.8775   -7.6033 O   0  0  0  0  0  0  0  0  0  0  0  0
   43.5484   -9.1264   -3.6385 C   0  0  0  0  0  0  0  0  0  0  0  0
   44.9395   -9.6487   -3.8312 C   0  0  1  0  0  0  0  0  0  0  0  0
   45.1266  -10.7387   -2.9815 O   0  0  0  0  0  0  0  0  0  0  0  0
   45.2347  -10.1106   -5.2294 C   0  0  2  0  0  0  0  0  0  0  0  0
   44.3144  -11.0779   -5.7385 N   0  0  0  0  0  0  0  0  0  0  0  0
   46.6582  -10.5068   -5.4068 C   0  0  0  0  0  0  0  0  0  0  0  0
   47.0222  -11.7773   -5.8356 O   0  0  0  0  0  0  0  0  0  0  0  0
   47.6243   -9.7244   -5.1824 O   0  0  0  0  0  0  0  0  0  0  0  0
  2  4  1  0
  2  1  1  0
  3  2  2  0
  5  4  1  0
  5  6  1  1
  5  7  1  0
  7  8  2  0
  9  7  1  0
  9 13  1  0
 10  9  1  0
 11 10  1  0
 11 12  1  0
 12 13  1  0
 13 14  1  6
 14 20  1  0
 14 15  2  0
 17 16  1  6
 17 19  1  0
 18 17  1  0
 19 21  1  0
 19 20  1  1
 21 22  1  0
 23 21  2  0
M  END
$$$$
