NPT.pdb
     RDKit          3D

 23 23  0  0  1  0  0  0  0  0999 V2000
   15.6406  -11.1847  -17.8214 N   0  0  0  0  0  0  0  0  0  0  0  0
   15.5638  -10.2076  -16.7904 C   0  0  0  0  0  0  0  0  0  0  0  0
   14.4323   -9.7991  -16.4247 O   0  0  0  0  0  0  0  0  0  0  0  0
   16.7440   -9.6348  -16.1131 C   0  0  0  0  0  0  0  0  0  0  0  0
   17.8878  -10.6413  -16.2430 C   0  0  2  0  0  0  0  0  0  0  0  0
   17.5719  -11.8473  -15.5237 N   0  0  0  0  0  0  0  0  0  0  0  0
   19.1603  -10.0106  -15.8432 C   0  0  0  0  0  0  0  0  0  0  0  0
   19.4690   -9.9969  -14.6317 O   0  0  0  0  0  0  0  0  0  0  0  0
   20.0205   -9.4326  -16.7872 N   0  0  0  0  0  0  0  0  0  0  0  0
   19.8700   -9.5205  -18.2198 C   0  0  0  0  0  0  0  0  0  0  0  0
   20.9951   -8.7321  -18.8507 C   0  0  0  0  0  0  0  0  0  0  0  0
   22.0086   -8.6147  -17.7664 C   0  0  0  0  0  0  0  0  0  0  0  0
   21.1890   -8.6557  -16.5000 C   0  0  1  0  0  0  0  0  0  0  0  0
   20.9116   -7.2822  -16.0750 C   0  0  0  0  0  0  0  0  0  0  0  0
   20.0479   -6.6107  -16.6556 O   0  0  0  0  0  0  0  0  0  0  0  0
   20.2020   -6.3002  -12.3813 C   0  0  0  0  0  0  0  0  0  0  0  0
   21.1604   -5.3083  -12.9666 C   0  0  1  0  0  0  0  0  0  0  0  0
   22.4313   -5.5604  -12.4504 O   0  0  0  0  0  0  0  0  0  0  0  0
   21.2628   -5.3620  -14.4641 C   0  0  2  0  0  0  0  0  0  0  0  0
   21.6072   -6.6466  -14.9868 N   0  0  0  0  0  0  0  0  0  0  0  0
   22.1005   -4.2621  -15.0147 C   0  0  0  0  0  0  0  0  0  0  0  0
   21.7706   -2.9241  -14.8369 O   0  0  0  0  0  0  0  0  0  0  0  0
   23.1581   -4.4657  -15.6749 O   0  0  0  0  0  0  0  0  0  0  0  0
  2  4  1  0
  2  1  1  0
  3  2  2  0
  5  4  1  0
  5  6  1  1
  5  7  1  0
  7  8  2  0
  9  7  1  0
  9 13  1  0
 10  9  1  0
 11 10  1  0
 11 12  1  0
 12 13  1  0
 13 14  1  6
 14 20  1  0
 14 15  2  0
 17 16  1  1
 17 19  1  0
 18 17  1  0
 19 21  1  0
 19 20  1  1
 21 22  1  0
 23 21  2  0
M  END
$$$$
