NPT.pdb
     RDKit          3D

 23 23  0  0  1  0  0  0  0  0999 V2000
   15.1870  -12.6100  -15.8178 N   0  0  0  0  0  0  0  0  0  0  0  0
   15.6028  -11.7202  -14.7887 C   0  0  0  0  0  0  0  0  0  0  0  0
   15.0216  -11.7671  -13.6747 O   0  0  0  0  0  0  0  0  0  0  0  0
   16.6878  -10.7317  -14.9475 C   0  0  0  0  0  0  0  0  0  0  0  0
   17.2749  -10.9077  -16.3483 C   0  0  2  0  0  0  0  0  0  0  0  0
   17.7965  -12.2401  -16.5042 N   0  0  0  0  0  0  0  0  0  0  0  0
   18.2518   -9.8364  -16.6222 C   0  0  0  0  0  0  0  0  0  0  0  0
   19.4709  -10.1114  -16.5835 O   0  0  0  0  0  0  0  0  0  0  0  0
   17.8422   -8.5297  -16.9222 N   0  0  0  0  0  0  0  0  0  0  0  0
   16.4734   -8.0922  -17.0544 C   0  0  0  0  0  0  0  0  0  0  0  0
   16.4898   -6.6097  -17.3502 C   0  0  0  0  0  0  0  0  0  0  0  0
   17.8730   -6.3522  -17.8373 C   0  0  0  0  0  0  0  0  0  0  0  0
   18.7019   -7.4060  -17.1447 C   0  0  1  0  0  0  0  0  0  0  0  0
   19.2708   -6.8298  -15.9246 C   0  0  0  0  0  0  0  0  0  0  0  0
   18.5820   -6.7312  -14.9000 O   0  0  0  0  0  0  0  0  0  0  0  0
   22.2879   -8.3875  -14.3293 C   0  0  0  0  0  0  0  0  0  0  0  0
   22.5402   -6.9120  -14.3942 C   0  0  1  0  0  0  0  0  0  0  0  0
   23.4110   -6.6561  -15.4531 O   0  0  0  0  0  0  0  0  0  0  0  0
   21.3054   -6.0862  -14.6159 C   0  0  2  0  0  0  0  0  0  0  0  0
   20.6275   -6.3556  -15.8446 N   0  0  0  0  0  0  0  0  0  0  0  0
   21.5446   -4.6357  -14.3850 C   0  0  0  0  0  0  0  0  0  0  0  0
   21.9931   -4.1474  -13.1639 O   0  0  0  0  0  0  0  0  0  0  0  0
   21.3586   -3.7567  -15.2731 O   0  0  0  0  0  0  0  0  0  0  0  0
  2  4  1  0
  2  1  1  0
  3  2  2  0
  5  4  1  0
  5  6  1  1
  5  7  1  0
  7  8  2  0
  9  7  1  0
  9 13  1  0
 10  9  1  0
 11 10  1  0
 11 12  1  0
 12 13  1  0
 13 14  1  1
 14 20  1  0
 14 15  2  0
 17 16  1  6
 17 19  1  0
 18 17  1  0
 19 21  1  0
 19 20  1  6
 21 22  1  0
 23 21  2  0
M  END
$$$$
