NPT.pdb
     RDKit          3D

 23 23  0  0  1  0  0  0  0  0999 V2000
   14.8082  -17.0949    4.0961 N   0  0  0  0  0  0  0  0  0  0  0  0
   15.9100  -17.9845    3.9606 C   0  0  0  0  0  0  0  0  0  0  0  0
   16.9120  -17.6127    3.2983 O   0  0  0  0  0  0  0  0  0  0  0  0
   15.9526  -19.3348    4.5561 C   0  0  0  0  0  0  0  0  0  0  0  0
   16.2576  -20.3277    3.4340 C   0  0  2  0  0  0  0  0  0  0  0  0
   15.1845  -20.3378    2.4748 N   0  0  0  0  0  0  0  0  0  0  0  0
   16.5745  -21.6504    4.0056 C   0  0  0  0  0  0  0  0  0  0  0  0
   15.6384  -22.3578    4.4375 O   0  0  0  0  0  0  0  0  0  0  0  0
   17.8924  -22.1236    4.0723 N   0  0  0  0  0  0  0  0  0  0  0  0
   19.0641  -21.3974    3.6453 C   0  0  0  0  0  0  0  0  0  0  0  0
   20.2709  -22.2643    3.9244 C   0  0  0  0  0  0  0  0  0  0  0  0
   19.7078  -23.6352    4.0669 C   0  0  0  0  0  0  0  0  0  0  0  0
   18.3067  -23.3990    4.5754 C   0  0  1  0  0  0  0  0  0  0  0  0
   18.3138  -23.4987    6.0363 C   0  0  0  0  0  0  0  0  0  0  0  0
   18.5162  -22.4931    6.7303 O   0  0  0  0  0  0  0  0  0  0  0  0
   18.0983  -27.3582    8.3703 C   0  0  0  0  0  0  0  0  0  0  0  0
   17.3512  -26.0911    8.6559 C   0  0  1  0  0  0  0  0  0  0  0  0
   17.2041  -25.9635   10.0369 O   0  0  0  0  0  0  0  0  0  0  0  0
   18.0339  -24.8493    8.1583 C   0  0  2  0  0  0  0  0  0  0  0  0
   18.0925  -24.7376    6.7349 N   0  0  0  0  0  0  0  0  0  0  0  0
   19.3483  -24.6220    8.8181 C   0  0  0  0  0  0  0  0  0  0  0  0
   20.5515  -24.8036    8.1471 O   0  0  0  0  0  0  0  0  0  0  0  0
   19.4609  -24.2523   10.0207 O   0  0  0  0  0  0  0  0  0  0  0  0
  2  4  1  0
  2  1  1  0
  3  2  2  0
  5  4  1  0
  5  6  1  6
  5  7  1  0
  7  8  2  0
  9  7  1  0
  9 13  1  0
 10  9  1  0
 11 10  1  0
 11 12  1  0
 12 13  1  0
 13 14  1  1
 14 20  1  0
 14 15  2  0
 17 16  1  1
 17 19  1  0
 18 17  1  0
 19 21  1  0
 19 20  1  6
 21 22  1  0
 23 21  2  0
M  END
$$$$
