NPT.pdb
     RDKit          3D

 23 23  0  0  1  0  0  0  0  0999 V2000
   19.1224  -12.5439  -19.2790 N   0  0  0  0  0  0  0  0  0  0  0  0
   18.3947  -11.3827  -18.8975 C   0  0  0  0  0  0  0  0  0  0  0  0
   17.3058  -11.1324  -19.4741 O   0  0  0  0  0  0  0  0  0  0  0  0
   18.8427  -10.4398  -17.8535 C   0  0  0  0  0  0  0  0  0  0  0  0
   19.0252  -11.2328  -16.5590 C   0  0  2  0  0  0  0  0  0  0  0  0
   17.7742  -11.8192  -16.1555 N   0  0  0  0  0  0  0  0  0  0  0  0
   19.6566  -10.3814  -15.5326 C   0  0  0  0  0  0  0  0  0  0  0  0
   18.9242   -9.6843  -14.7972 O   0  0  0  0  0  0  0  0  0  0  0  0
   21.0483  -10.3405  -15.3687 N   0  0  0  0  0  0  0  0  0  0  0  0
   21.9997  -11.1469  -16.0948 C   0  0  0  0  0  0  0  0  0  0  0  0
   23.3842  -10.7590  -15.6274 C   0  0  0  0  0  0  0  0  0  0  0  0
   23.1502  -10.0818  -14.3223 C   0  0  0  0  0  0  0  0  0  0  0  0
   21.7668   -9.4956  -14.4625 C   0  0  1  0  0  0  0  0  0  0  0  0
   21.8882   -8.1040  -14.9016 C   0  0  0  0  0  0  0  0  0  0  0  0
   22.2749   -7.8422  -16.0486 O   0  0  0  0  0  0  0  0  0  0  0  0
   19.2772   -5.7558  -15.5856 C   0  0  0  0  0  0  0  0  0  0  0  0
   20.1660   -5.0446  -14.6112 C   0  0  1  0  0  0  0  0  0  0  0  0
   19.5782   -5.1047  -13.3478 O   0  0  0  0  0  0  0  0  0  0  0  0
   21.5444   -5.6296  -14.4958 C   0  0  2  0  0  0  0  0  0  0  0  0
   21.5745   -6.9868  -14.0498 N   0  0  0  0  0  0  0  0  0  0  0  0
   22.4744   -4.7450  -13.7427 C   0  0  0  0  0  0  0  0  0  0  0  0
   22.7909   -3.4647  -14.1801 O   0  0  0  0  0  0  0  0  0  0  0  0
   23.0348   -5.0923  -12.6652 O   0  0  0  0  0  0  0  0  0  0  0  0
  2  4  1  0
  2  1  1  0
  3  2  2  0
  5  4  1  0
  5  6  1  1
  5  7  1  0
  7  8  2  0
  9  7  1  0
  9 13  1  0
 10  9  1  0
 11 10  1  0
 11 12  1  0
 12 13  1  0
 13 14  1  6
 14 20  1  0
 14 15  2  0
 17 16  1  6
 17 19  1  0
 18 17  1  0
 19 21  1  0
 19 20  1  1
 21 22  1  0
 23 21  2  0
M  END
$$$$
