NPT.pdb
     RDKit          3D

 23 23  0  0  1  0  0  0  0  0999 V2000
   16.5972  -11.6315  -17.5816 N   0  0  0  0  0  0  0  0  0  0  0  0
   16.0137  -10.4205  -17.1161 C   0  0  0  0  0  0  0  0  0  0  0  0
   14.8224  -10.1631  -17.4250 O   0  0  0  0  0  0  0  0  0  0  0  0
   16.7275   -9.4333  -16.2821 C   0  0  0  0  0  0  0  0  0  0  0  0
   17.4966  -10.2027  -15.2077 C   0  0  2  0  0  0  0  0  0  0  0  0
   16.5818  -10.7662  -14.2498 N   0  0  0  0  0  0  0  0  0  0  0  0
   18.5377   -9.3388  -14.6188 C   0  0  0  0  0  0  0  0  0  0  0  0
   18.2099   -8.5268  -13.7263 O   0  0  0  0  0  0  0  0  0  0  0  0
   19.8736   -9.4113  -15.0373 N   0  0  0  0  0  0  0  0  0  0  0  0
   20.3786  -10.2764  -16.0761 C   0  0  0  0  0  0  0  0  0  0  0  0
   21.8595  -10.0083  -16.2198 C   0  0  0  0  0  0  0  0  0  0  0  0
   22.2329   -9.3399  -14.9429 C   0  0  0  0  0  0  0  0  0  0  0  0
   20.9643   -8.6434  -14.5154 C   0  0  1  0  0  0  0  0  0  0  0  0
   21.0071   -7.2576  -14.9864 C   0  0  0  0  0  0  0  0  0  0  0  0
   20.9224   -7.0059  -16.1961 O   0  0  0  0  0  0  0  0  0  0  0  0
   18.6997   -4.3948  -13.7660 C   0  0  0  0  0  0  0  0  0  0  0  0
   20.1221   -3.9258  -13.7209 C   0  0  1  0  0  0  0  0  0  0  0  0
   20.5543   -3.9443  -12.3950 O   0  0  0  0  0  0  0  0  0  0  0  0
   21.0739   -4.7714  -14.5176 C   0  0  2  0  0  0  0  0  0  0  0  0
   21.1470   -6.1349  -14.0965 N   0  0  0  0  0  0  0  0  0  0  0  0
   22.4096   -4.1328  -14.6682 C   0  0  0  0  0  0  0  0  0  0  0  0
   23.5680   -4.7206  -14.1748 O   0  0  0  0  0  0  0  0  0  0  0  0
   22.5819   -3.0240  -15.2485 O   0  0  0  0  0  0  0  0  0  0  0  0
  2  4  1  0
  2  1  1  0
  3  2  2  0
  5  4  1  0
  5  6  1  1
  5  7  1  0
  7  8  2  0
  9  7  1  0
  9 13  1  0
 10  9  1  0
 11 10  1  0
 11 12  1  0
 12 13  1  0
 13 14  1  6
 14 20  1  0
 14 15  2  0
 17 16  1  1
 17 19  1  0
 18 17  1  0
 19 21  1  0
 19 20  1  1
 21 22  1  0
 23 21  2  0
M  END
$$$$
