NPT.pdb
     RDKit          3D

 23 23  0  0  1  0  0  0  0  0999 V2000
   15.6795  -11.4089  -16.4853 N   0  0  0  0  0  0  0  0  0  0  0  0
   15.8061  -10.0258  -16.7928 C   0  0  0  0  0  0  0  0  0  0  0  0
   15.1552   -9.5575  -17.7612 O   0  0  0  0  0  0  0  0  0  0  0  0
   16.6649   -9.0924  -16.0371 C   0  0  0  0  0  0  0  0  0  0  0  0
   17.3675   -9.8928  -14.9399 C   0  0  2  0  0  0  0  0  0  0  0  0
   16.4127  -10.3307  -13.9560 N   0  0  0  0  0  0  0  0  0  0  0  0
   18.4924   -9.1122  -14.3903 C   0  0  0  0  0  0  0  0  0  0  0  0
   18.2636   -8.2928  -13.4741 O   0  0  0  0  0  0  0  0  0  0  0  0
   19.7995   -9.2712  -14.8714 N   0  0  0  0  0  0  0  0  0  0  0  0
   20.2020  -10.1873  -15.9113 C   0  0  0  0  0  0  0  0  0  0  0  0
   21.6866  -10.0085  -16.1338 C   0  0  0  0  0  0  0  0  0  0  0  0
   22.1608   -9.3341  -14.8941 C   0  0  0  0  0  0  0  0  0  0  0  0
   20.9566   -8.5560  -14.4231 C   0  0  1  0  0  0  0  0  0  0  0  0
   21.0542   -7.1860  -14.9308 C   0  0  0  0  0  0  0  0  0  0  0  0
   21.0817   -6.9720  -16.1503 O   0  0  0  0  0  0  0  0  0  0  0  0
   18.5711   -4.5046  -14.5709 C   0  0  0  0  0  0  0  0  0  0  0  0
   19.8674   -3.9166  -14.1029 C   0  0  1  0  0  0  0  0  0  0  0  0
   19.8634   -3.8852  -12.7086 O   0  0  0  0  0  0  0  0  0  0  0  0
   21.0828   -4.6867  -14.5334 C   0  0  2  0  0  0  0  0  0  0  0  0
   21.1225   -6.0367  -14.0668 N   0  0  0  0  0  0  0  0  0  0  0  0
   22.3455   -3.9417  -14.2783 C   0  0  0  0  0  0  0  0  0  0  0  0
   23.3201   -4.4177  -13.4097 O   0  0  0  0  0  0  0  0  0  0  0  0
   22.6167   -2.8367  -14.8273 O   0  0  0  0  0  0  0  0  0  0  0  0
  2  4  1  0
  2  1  1  0
  3  2  2  0
  5  4  1  0
  5  6  1  1
  5  7  1  0
  7  8  2  0
  9  7  1  0
  9 13  1  0
 10  9  1  0
 11 10  1  0
 11 12  1  0
 12 13  1  0
 13 14  1  6
 14 20  1  0
 14 15  2  0
 17 16  1  1
 17 19  1  0
 18 17  1  0
 19 21  1  0
 19 20  1  1
 21 22  1  0
 23 21  2  0
M  END
$$$$
