DGW.pdb
     RDKit          3D

 27 28  0  0  1  0  0  0  0  0999 V2000
   26.1487  -19.3046  -15.3844 N   0  0  0  0  0  0  0  0  0  0  0  0
   27.2619  -20.1073  -15.8404 C   0  0  1  0  0  0  0  0  0  0  0  0
   28.2459  -19.2344  -16.6342 C   0  0  0  0  0  0  0  0  0  0  0  0
   27.6312  -18.8904  -17.9314 C   0  0  0  0  0  0  0  0  0  0  0  0
   26.4675  -19.2653  -18.1890 O   0  0  0  0  0  0  0  0  0  0  0  0
   27.9760  -20.6298  -14.6327 C   0  0  0  0  0  0  0  0  0  0  0  0
   29.1275  -21.1055  -14.7737 O   0  0  0  0  0  0  0  0  0  0  0  0
   28.3383  -18.1542  -18.8636 O   0  0  0  0  0  0  0  0  0  0  0  0
   27.3058  -20.5552  -13.3958 N   0  0  0  0  0  0  0  0  0  0  0  0
   27.9681  -20.8662  -12.1786 C   0  0  0  0  0  0  0  0  0  0  0  0
   27.1442  -20.6684  -10.9571 C   0  0  0  0  0  0  0  0  0  0  0  0
   26.9828  -19.5077  -10.5017 O   0  0  0  0  0  0  0  0  0  0  0  0
   26.5290  -21.7357  -10.2806 N   0  0  0  0  0  0  0  0  0  0  0  0
   25.6385  -21.6132   -9.1339 C   0  0  1  0  0  0  0  0  0  0  0  0
   26.3885  -21.7394   -7.8545 C   0  0  0  0  0  0  0  0  0  0  0  0
   26.9372  -20.4583   -7.3913 C   0  0  0  0  0  0  0  0  0  0  0  0
   26.6959  -19.2195   -7.9696 C   0  0  0  0  0  0  0  0  0  0  0  0
   27.3582  -18.2667   -7.3368 N   0  0  0  0  0  0  0  0  0  0  0  0
   28.0534  -18.8495   -6.3244 C   0  0  0  0  0  0  0  0  0  0  0  0
   28.8867  -18.3377   -5.3466 C   0  0  0  0  0  0  0  0  0  0  0  0
   29.4670  -19.1318   -4.4031 C   0  0  0  0  0  0  0  0  0  0  0  0
   29.2045  -20.4886   -4.4379 C   0  0  0  0  0  0  0  0  0  0  0  0
   28.3829  -21.0543   -5.3887 C   0  0  0  0  0  0  0  0  0  0  0  0
   27.8141  -20.2013   -6.3320 C   0  0  0  0  0  0  0  0  0  0  0  0
   24.7230  -20.5036   -9.1704 C   0  0  0  0  0  0  0  0  0  0  0  0
   23.7395  -20.4908   -8.3395 O   0  0  0  0  0  0  0  0  0  0  0  0
   24.7924  -19.4199  -10.0186 O   0  0  0  0  0  0  0  0  0  0  0  0
  2  1  1  1
  2  6  1  0
  3  4  1  0
  3  2  1  0
  4  5  2  0
  6  9  1  0
  7  6  2  0
  8  4  1  0
  9 10  1  0
 10 11  1  0
 11 13  1  0
 11 12  2  0
 13 14  1  0
 14 25  1  0
 14 15  1  1
 16 15  1  0
 17 16  2  0
 18 17  1  0
 19 24  2  0
 19 18  1  0
 20 19  1  0
 21 20  2  0
 21 22  1  0
 22 23  2  0
 23 24  1  0
 24 16  1  0
 25 26  2  0
 25 27  1  0
M  END
$$$$
