DGW.pdb
     RDKit          3D

 27 28  0  0  1  0  0  0  0  0999 V2000
   26.5939  -20.8624  -16.6250 N   0  0  0  0  0  0  0  0  0  0  0  0
   27.7270  -21.5918  -16.1001 C   0  0  1  0  0  0  0  0  0  0  0  0
   29.0000  -21.2038  -16.8675 C   0  0  0  0  0  0  0  0  0  0  0  0
   28.8037  -21.5173  -18.2966 C   0  0  0  0  0  0  0  0  0  0  0  0
   29.7220  -21.2980  -19.1150 O   0  0  0  0  0  0  0  0  0  0  0  0
   27.9080  -21.1906  -14.6691 C   0  0  0  0  0  0  0  0  0  0  0  0
   28.8723  -21.6704  -14.0272 O   0  0  0  0  0  0  0  0  0  0  0  0
   27.6069  -22.0534  -18.7338 O   0  0  0  0  0  0  0  0  0  0  0  0
   26.9751  -20.2878  -14.1220 N   0  0  0  0  0  0  0  0  0  0  0  0
   27.0941  -19.8248  -12.7847 C   0  0  0  0  0  0  0  0  0  0  0  0
   26.2657  -20.5651  -11.7969 C   0  0  0  0  0  0  0  0  0  0  0  0
   25.6063  -21.5680  -12.1714 O   0  0  0  0  0  0  0  0  0  0  0  0
   26.1867  -20.1888  -10.4451 N   0  0  0  0  0  0  0  0  0  0  0  0
   25.3076  -20.7854   -9.4481 C   0  0  1  0  0  0  0  0  0  0  0  0
   25.6720  -20.3413   -8.0750 C   0  0  0  0  0  0  0  0  0  0  0  0
   27.1035  -20.5021   -7.7894 C   0  0  0  0  0  0  0  0  0  0  0  0
   28.0169  -21.1737   -8.5905 C   0  0  0  0  0  0  0  0  0  0  0  0
   29.2198  -21.1657   -8.0428 N   0  0  0  0  0  0  0  0  0  0  0  0
   29.1337  -20.4890   -6.8670 C   0  0  0  0  0  0  0  0  0  0  0  0
   30.0721  -20.1629   -5.9050 C   0  0  0  0  0  0  0  0  0  0  0  0
   29.7485  -19.4420   -4.7945 C   0  0  0  0  0  0  0  0  0  0  0  0
   28.4377  -19.0311   -4.6397 C   0  0  0  0  0  0  0  0  0  0  0  0
   27.4603  -19.3270   -5.5650 C   0  0  0  0  0  0  0  0  0  0  0  0
   27.8403  -20.0670   -6.6827 C   0  0  0  0  0  0  0  0  0  0  0  0
   23.8992  -20.7124   -9.7341 C   0  0  0  0  0  0  0  0  0  0  0  0
   23.4937  -19.8624  -10.6121 O   0  0  0  0  0  0  0  0  0  0  0  0
   22.9116  -21.4811   -9.1575 O   0  0  0  0  0  0  0  0  0  0  0  0
  2  1  1  6
  2  6  1  0
  3  4  1  0
  3  2  1  0
  4  5  2  0
  6  9  1  0
  7  6  2  0
  8  4  1  0
  9 10  1  0
 10 11  1  0
 11 13  1  0
 11 12  2  0
 13 14  1  0
 14 25  1  0
 14 15  1  1
 16 15  1  0
 17 16  2  0
 18 17  1  0
 19 24  2  0
 19 18  1  0
 20 19  1  0
 21 20  2  0
 21 22  1  0
 22 23  2  0
 23 24  1  0
 24 16  1  0
 25 26  2  0
 25 27  1  0
M  END
$$$$
