DGW.pdb
     RDKit          3D

 27 28  0  0  1  0  0  0  0  0999 V2000
   25.1831  -19.9901  -15.9850 N   0  0  0  0  0  0  0  0  0  0  0  0
   26.5472  -19.5749  -15.7436 C   0  0  1  0  0  0  0  0  0  0  0  0
   26.7436  -18.1251  -16.2124 C   0  0  0  0  0  0  0  0  0  0  0  0
   26.8294  -18.1131  -17.6860 C   0  0  0  0  0  0  0  0  0  0  0  0
   27.1502  -17.0636  -18.2834 O   0  0  0  0  0  0  0  0  0  0  0  0
   26.7863  -19.6207  -14.2664 C   0  0  0  0  0  0  0  0  0  0  0  0
   26.0662  -18.9179  -13.5183 O   0  0  0  0  0  0  0  0  0  0  0  0
   26.5562  -19.2593  -18.4087 O   0  0  0  0  0  0  0  0  0  0  0  0
   27.8167  -20.4598  -13.7983 N   0  0  0  0  0  0  0  0  0  0  0  0
   28.1247  -20.5475  -12.4147 C   0  0  0  0  0  0  0  0  0  0  0  0
   27.0500  -21.1422  -11.5773 C   0  0  0  0  0  0  0  0  0  0  0  0
   26.2828  -22.0040  -12.0769 O   0  0  0  0  0  0  0  0  0  0  0  0
   26.8517  -20.7794  -10.2341 N   0  0  0  0  0  0  0  0  0  0  0  0
   25.8722  -21.3697   -9.3314 C   0  0  1  0  0  0  0  0  0  0  0  0
   26.4709  -21.6517   -7.9981 C   0  0  0  0  0  0  0  0  0  0  0  0
   26.9444  -20.4371   -7.3220 C   0  0  0  0  0  0  0  0  0  0  0  0
   26.6978  -19.1346   -7.7340 C   0  0  0  0  0  0  0  0  0  0  0  0
   27.2852  -18.2662   -6.9290 N   0  0  0  0  0  0  0  0  0  0  0  0
   27.9342  -18.9707   -5.9645 C   0  0  0  0  0  0  0  0  0  0  0  0
   28.6854  -18.5840   -4.8697 C   0  0  0  0  0  0  0  0  0  0  0  0
   29.2314  -19.4906   -4.0110 C   0  0  0  0  0  0  0  0  0  0  0  0
   29.0186  -20.8344   -4.2553 C   0  0  0  0  0  0  0  0  0  0  0  0
   28.2793  -21.2781   -5.3303 C   0  0  0  0  0  0  0  0  0  0  0  0
   27.7426  -20.3130   -6.1798 C   0  0  0  0  0  0  0  0  0  0  0  0
   24.5970  -20.7056   -9.2733 C   0  0  0  0  0  0  0  0  0  0  0  0
   23.6746  -21.2101   -8.5301 O   0  0  0  0  0  0  0  0  0  0  0  0
   24.2503  -19.5514   -9.9414 O   0  0  0  0  0  0  0  0  0  0  0  0
  2  1  1  1
  2  6  1  0
  3  4  1  0
  3  2  1  0
  4  5  2  0
  6  9  1  0
  7  6  2  0
  8  4  1  0
  9 10  1  0
 10 11  1  0
 11 13  1  0
 11 12  2  0
 13 14  1  0
 14 25  1  0
 14 15  1  1
 16 15  1  0
 17 16  2  0
 18 17  1  0
 19 24  2  0
 19 18  1  0
 20 19  1  0
 21 20  2  0
 21 22  1  0
 22 23  2  0
 23 24  1  0
 24 16  1  0
 25 26  2  0
 25 27  1  0
M  END
$$$$
