DGW.pdb
     RDKit          3D

 27 28  0  0  1  0  0  0  0  0999 V2000
   26.0540  -18.1617  -20.6385 N   0  0  0  0  0  0  0  0  0  0  0  0
   27.3555  -18.7700  -20.8047 C   0  0  1  0  0  0  0  0  0  0  0  0
   28.3373  -17.7503  -21.4017 C   0  0  0  0  0  0  0  0  0  0  0  0
   27.7976  -17.2741  -22.6905 C   0  0  0  0  0  0  0  0  0  0  0  0
   27.9062  -16.0698  -23.0053 O   0  0  0  0  0  0  0  0  0  0  0  0
   27.8574  -19.1574  -19.4484 C   0  0  0  0  0  0  0  0  0  0  0  0
   28.0485  -20.3719  -19.2019 O   0  0  0  0  0  0  0  0  0  0  0  0
   27.1718  -18.1559  -23.5517 O   0  0  0  0  0  0  0  0  0  0  0  0
   28.0886  -18.1242  -18.5190 N   0  0  0  0  0  0  0  0  0  0  0  0
   28.6552  -18.3921  -17.2446 C   0  0  0  0  0  0  0  0  0  0  0  0
   27.7135  -18.9884  -16.2610 C   0  0  0  0  0  0  0  0  0  0  0  0
   26.5257  -19.2179  -16.6033 O   0  0  0  0  0  0  0  0  0  0  0  0
   28.0977  -19.3116  -14.9483 N   0  0  0  0  0  0  0  0  0  0  0  0
   27.2051  -19.7668  -13.8906 C   0  0  1  0  0  0  0  0  0  0  0  0
   27.8818  -19.7355  -12.5652 C   0  0  0  0  0  0  0  0  0  0  0  0
   26.9327  -19.7528  -11.4446 C   0  0  0  0  0  0  0  0  0  0  0  0
   26.8993  -18.8394  -10.3997 C   0  0  0  0  0  0  0  0  0  0  0  0
   25.9467  -19.1457   -9.5361 N   0  0  0  0  0  0  0  0  0  0  0  0
   25.3257  -20.2677   -9.9869 C   0  0  0  0  0  0  0  0  0  0  0  0
   24.2643  -21.0086   -9.5001 C   0  0  0  0  0  0  0  0  0  0  0  0
   23.7919  -22.1089  -10.1510 C   0  0  0  0  0  0  0  0  0  0  0  0
   24.4031  -22.4829  -11.3332 C   0  0  0  0  0  0  0  0  0  0  0  0
   25.4644  -21.7834  -11.8654 C   0  0  0  0  0  0  0  0  0  0  0  0
   25.9115  -20.6665  -11.1627 C   0  0  0  0  0  0  0  0  0  0  0  0
   25.8889  -19.1853  -13.8913 C   0  0  0  0  0  0  0  0  0  0  0  0
   25.7707  -17.9319  -13.6217 O   0  0  0  0  0  0  0  0  0  0  0  0
   24.7094  -19.8435  -14.1640 O   0  0  0  0  0  0  0  0  0  0  0  0
  2  1  1  1
  2  6  1  0
  3  4  1  0
  3  2  1  0
  4  5  2  0
  6  9  1  0
  7  6  2  0
  8  4  1  0
  9 10  1  0
 10 11  1  0
 11 13  1  0
 11 12  2  0
 13 14  1  0
 14 25  1  0
 14 15  1  1
 16 15  1  0
 17 16  2  0
 18 17  1  0
 19 24  2  0
 19 18  1  0
 20 19  1  0
 21 20  2  0
 21 22  1  0
 22 23  2  0
 23 24  1  0
 24 16  1  0
 25 26  2  0
 25 27  1  0
M  END
$$$$
