DGW.pdb
     RDKit          3D

 27 28  0  0  1  0  0  0  0  0999 V2000
   27.6000  -18.9016  -17.4996 N   0  0  0  0  0  0  0  0  0  0  0  0
   26.3708  -18.6329  -16.7868 C   0  0  1  0  0  0  0  0  0  0  0  0
   25.3251  -18.0487  -17.7488 C   0  0  0  0  0  0  0  0  0  0  0  0
   25.8217  -16.7547  -18.2565 C   0  0  0  0  0  0  0  0  0  0  0  0
   26.8337  -16.2307  -17.7442 O   0  0  0  0  0  0  0  0  0  0  0  0
   25.8467  -19.9360  -16.2684 C   0  0  0  0  0  0  0  0  0  0  0  0
   24.6717  -19.9813  -15.8329 O   0  0  0  0  0  0  0  0  0  0  0  0
   25.1713  -16.1193  -19.2978 O   0  0  0  0  0  0  0  0  0  0  0  0
   26.7129  -21.0465  -16.3008 N   0  0  0  0  0  0  0  0  0  0  0  0
   26.3674  -22.2698  -15.6675 C   0  0  0  0  0  0  0  0  0  0  0  0
   26.7425  -22.3513  -14.2314 C   0  0  0  0  0  0  0  0  0  0  0  0
   27.9225  -22.0896  -13.8849 O   0  0  0  0  0  0  0  0  0  0  0  0
   25.8241  -22.7122  -13.2306 N   0  0  0  0  0  0  0  0  0  0  0  0
   25.6277  -22.0138  -11.9671 C   0  0  1  0  0  0  0  0  0  0  0  0
   26.8888  -21.3716  -11.5059 C   0  0  0  0  0  0  0  0  0  0  0  0
   26.7785  -20.8164  -10.1508 C   0  0  0  0  0  0  0  0  0  0  0  0
   25.6278  -20.2817   -9.5878 C   0  0  0  0  0  0  0  0  0  0  0  0
   25.8628  -19.8398   -8.3645 N   0  0  0  0  0  0  0  0  0  0  0  0
   27.1732  -20.0710   -8.0865 C   0  0  0  0  0  0  0  0  0  0  0  0
   27.9471  -19.8340   -6.9652 C   0  0  0  0  0  0  0  0  0  0  0  0
   29.2643  -20.1795   -6.9098 C   0  0  0  0  0  0  0  0  0  0  0  0
   29.8295  -20.7849   -8.0165 C   0  0  0  0  0  0  0  0  0  0  0  0
   29.1075  -21.0453   -9.1611 C   0  0  0  0  0  0  0  0  0  0  0  0
   27.7650  -20.6727   -9.1694 C   0  0  0  0  0  0  0  0  0  0  0  0
   24.4742  -21.1563  -11.9006 C   0  0  0  0  0  0  0  0  0  0  0  0
   24.3327  -20.2458  -12.7999 O   0  0  0  0  0  0  0  0  0  0  0  0
   23.4734  -21.2116  -10.9551 O   0  0  0  0  0  0  0  0  0  0  0  0
  2  1  1  6
  2  6  1  0
  3  4  1  0
  3  2  1  0
  4  5  2  0
  6  9  1  0
  7  6  2  0
  8  4  1  0
  9 10  1  0
 10 11  1  0
 11 13  1  0
 11 12  2  0
 13 14  1  0
 14 25  1  0
 14 15  1  6
 16 15  1  0
 17 16  2  0
 18 17  1  0
 19 24  2  0
 19 18  1  0
 20 19  1  0
 21 20  2  0
 21 22  1  0
 22 23  2  0
 23 24  1  0
 24 16  1  0
 25 26  2  0
 25 27  1  0
M  END
$$$$
