DGW.pdb
     RDKit          3D

 27 28  0  0  1  0  0  0  0  0999 V2000
   25.3227  -17.5210  -14.6379 N   0  0  0  0  0  0  0  0  0  0  0  0
   25.4360  -18.7926  -15.3173 C   0  0  1  0  0  0  0  0  0  0  0  0
   25.8436  -18.5690  -16.7816 C   0  0  0  0  0  0  0  0  0  0  0  0
   24.7287  -17.9057  -17.4859 C   0  0  0  0  0  0  0  0  0  0  0  0
   24.9617  -16.9704  -18.2809 O   0  0  0  0  0  0  0  0  0  0  0  0
   26.5228  -19.5753  -14.6481 C   0  0  0  0  0  0  0  0  0  0  0  0
   26.6821  -20.7774  -14.9670 O   0  0  0  0  0  0  0  0  0  0  0  0
   23.4263  -18.3156  -17.2695 O   0  0  0  0  0  0  0  0  0  0  0  0
   27.3113  -18.9084  -13.6898 N   0  0  0  0  0  0  0  0  0  0  0  0
   28.3624  -19.5756  -13.0065 C   0  0  0  0  0  0  0  0  0  0  0  0
   27.9121  -20.5718  -11.9991 C   0  0  0  0  0  0  0  0  0  0  0  0
   28.3923  -21.7335  -12.0213 O   0  0  0  0  0  0  0  0  0  0  0  0
   26.9613  -20.2679  -11.0098 N   0  0  0  0  0  0  0  0  0  0  0  0
   26.3945  -21.2146  -10.0582 C   0  0  1  0  0  0  0  0  0  0  0  0
   27.3365  -21.4789   -8.9365 C   0  0  0  0  0  0  0  0  0  0  0  0
   27.3999  -20.3688   -7.9772 C   0  0  0  0  0  0  0  0  0  0  0  0
   26.7629  -19.1432   -8.1162 C   0  0  0  0  0  0  0  0  0  0  0  0
   27.0414  -18.3487   -7.0972 N   0  0  0  0  0  0  0  0  0  0  0  0
   27.8682  -19.0273   -6.2584 C   0  0  0  0  0  0  0  0  0  0  0  0
   28.4499  -18.6959   -5.0484 C   0  0  0  0  0  0  0  0  0  0  0  0
   29.2432  -19.5680   -4.3647 C   0  0  0  0  0  0  0  0  0  0  0  0
   29.4635  -20.8188   -4.9106 C   0  0  0  0  0  0  0  0  0  0  0  0
   28.9106  -21.2039   -6.1127 C   0  0  0  0  0  0  0  0  0  0  0  0
   28.1078  -20.2770   -6.7741 C   0  0  0  0  0  0  0  0  0  0  0  0
   25.0442  -20.9460   -9.6396 C   0  0  0  0  0  0  0  0  0  0  0  0
   24.4662  -21.7857   -8.8530 O   0  0  0  0  0  0  0  0  0  0  0  0
   24.2851  -19.8524   -9.9951 O   0  0  0  0  0  0  0  0  0  0  0  0
  2  1  1  1
  2  6  1  0
  3  4  1  0
  3  2  1  0
  4  5  2  0
  6  9  1  0
  7  6  2  0
  8  4  1  0
  9 10  1  0
 10 11  1  0
 11 13  1  0
 11 12  2  0
 13 14  1  0
 14 25  1  0
 14 15  1  1
 16 15  1  0
 17 16  2  0
 18 17  1  0
 19 24  2  0
 19 18  1  0
 20 19  1  0
 21 20  2  0
 21 22  1  0
 22 23  2  0
 23 24  1  0
 24 16  1  0
 25 26  2  0
 25 27  1  0
M  END
$$$$
