REE.pdb
     RDKit          3D

 30 29  0  0  1  0  0  0  0  0999 V2000
    7.7445  -11.4635   20.4708 N   0  0  0  0  0  0  0  0  0  0  0  0
    8.4544  -12.3970   19.6415 C   0  0  0  0  0  0  0  0  0  0  0  0
    8.9783  -11.9719   18.5647 N   0  0  0  0  0  0  0  0  0  0  0  0
    8.5860  -13.7597   19.9921 N   0  0  0  0  0  0  0  0  0  0  0  0
    8.2006  -14.7646   19.0208 C   0  0  0  0  0  0  0  0  0  0  0  0
    7.0237  -15.5665   19.4237 C   0  0  0  0  0  0  0  0  0  0  0  0
    7.3959  -16.7296   20.2819 C   0  0  0  0  0  0  0  0  0  0  0  0
    7.6881  -18.0304   19.5979 C   0  0  2  0  0  0  0  0  0  0  0  0
    6.4892  -18.7267   19.3333 N   0  0  0  0  0  0  0  0  0  0  0  0
    8.6271  -18.7615   20.4879 C   0  0  0  0  0  0  0  0  0  0  0  0
    8.1552  -19.6595   21.2345 O   0  0  0  0  0  0  0  0  0  0  0  0
    9.4412  -12.5394   17.8333 N   0  0  0  0  0  0  0  0  0  0  0  0
   10.0203  -18.5009   20.5391 C   0  0  2  0  0  0  0  0  0  0  0  0
   10.9154  -19.2764   21.3852 C   0  0  0  0  0  0  0  0  0  0  0  0
   11.7610  -20.1283   20.4308 C   0  0  0  0  0  0  0  0  0  0  0  0
   12.6980  -20.9475   21.3276 C   0  0  0  0  0  0  0  0  0  0  0  0
   13.5291  -21.8653   20.4998 O   0  0  0  0  0  0  0  0  0  0  0  0
   12.9642  -22.8518   19.9491 C   0  0  0  0  0  0  0  0  0  0  0  0
   11.7434  -18.4415   22.2506 O   0  0  0  0  0  0  0  0  0  0  0  0
   12.4441  -17.5278   21.7336 O   0  0  0  0  0  0  0  0  0  0  0  0
   14.8693  -21.5943   20.3760 N   0  0  0  0  0  0  0  0  0  0  0  0
   11.7530  -18.6584   23.6336 C   0  0  2  0  0  0  0  0  0  0  0  0
   12.6100  -17.9046   24.5262 C   0  0  0  0  0  0  0  0  0  0  0  0
   12.2551  -18.1292   25.9617 C   0  0  0  0  0  0  0  0  0  0  0  0
   12.8220  -19.3338   26.6128 C   0  0  0  0  0  0  0  0  0  0  0  0
   12.4619  -19.5428   28.0198 O   0  0  0  0  0  0  0  0  0  0  0  0
   11.6836  -18.7382   28.5827 C   0  0  0  0  0  0  0  0  0  0  0  0
   14.0314  -18.1308   24.1909 O   0  0  0  0  0  0  0  0  0  0  0  0
   14.4166  -19.2189   23.7017 O   0  0  0  0  0  0  0  0  0  0  0  0
   12.9458  -20.6051   28.7773 O   0  0  0  0  0  0  0  0  0  0  0  0
  1  2  1  0
  2  3  2  0
  4  2  1  0
  4  5  1  0
  6  5  1  0
  7  6  1  0
  8  9  1  1
  8  7  1  0
 10  8  1  0
 10 12  1  0
 11 10  2  0
 13 12  1  0
 13 18  1  0
 13 14  1  6
 15 14  1  0
 16 17  2  0
 16 15  1  0
 18 19  2  0
 20 16  1  0
 21 18  1  0
 21 22  1  0
 22 27  1  0
 23 24  1  0
 22 23  1  6
 25 24  1  0
 25 29  1  0
 26 25  2  0
 27 28  2  0
 27 30  1  0
M  END
$$$$
