REE.pdb
     RDKit          3D

 30 29  0  0  1  0  0  0  0  0999 V2000
    6.2072  -17.5166   14.9379 N   0  0  0  0  0  0  0  0  0  0  0  0
    7.0846  -16.3904   14.7799 C   0  0  0  0  0  0  0  0  0  0  0  0
    7.1714  -15.8478   13.6342 N   0  0  0  0  0  0  0  0  0  0  0  0
    7.8417  -15.8750   15.8562 N   0  0  0  0  0  0  0  0  0  0  0  0
    7.5456  -16.3413   17.1966 C   0  0  0  0  0  0  0  0  0  0  0  0
    8.4053  -15.7430   18.2422 C   0  0  0  0  0  0  0  0  0  0  0  0
    7.6671  -15.5071   19.5179 C   0  0  0  0  0  0  0  0  0  0  0  0
    7.5680  -14.0954   20.0104 C   0  0  2  0  0  0  0  0  0  0  0  0
    8.2369  -13.2192   19.1290 N   0  0  0  0  0  0  0  0  0  0  0  0
    8.1200  -14.1013   21.3902 C   0  0  0  0  0  0  0  0  0  0  0  0
    9.3723  -14.1067   21.5254 O   0  0  0  0  0  0  0  0  0  0  0  0
    7.8257  -15.0977   13.3504 N   0  0  0  0  0  0  0  0  0  0  0  0
    7.3127  -14.1012   22.5563 C   0  0  1  0  0  0  0  0  0  0  0  0
    7.8924  -14.0630   23.8908 C   0  0  0  0  0  0  0  0  0  0  0  0
    6.7997  -13.4978   24.8064 C   0  0  0  0  0  0  0  0  0  0  0  0
    7.4610  -13.3209   26.1793 C   0  0  0  0  0  0  0  0  0  0  0  0
    6.5025  -12.6995   27.1350 O   0  0  0  0  0  0  0  0  0  0  0  0
    5.3219  -12.4815   26.7424 C   0  0  0  0  0  0  0  0  0  0  0  0
    8.3617  -15.3695   24.3433 O   0  0  0  0  0  0  0  0  0  0  0  0
    7.6411  -16.3850   24.1375 O   0  0  0  0  0  0  0  0  0  0  0  0
    6.9494  -12.3936   28.3966 N   0  0  0  0  0  0  0  0  0  0  0  0
    9.5955  -15.4842   24.9948 C   0  0  2  0  0  0  0  0  0  0  0  0
   10.1716  -16.7697   25.3336 C   0  0  0  0  0  0  0  0  0  0  0  0
   11.6335  -16.8250   25.0225 C   0  0  0  0  0  0  0  0  0  0  0  0
   12.3698  -18.0309   25.4693 C   0  0  0  0  0  0  0  0  0  0  0  0
   12.6518  -19.0390   24.4411 O   0  0  0  0  0  0  0  0  0  0  0  0
   12.6096  -20.2546   24.7421 C   0  0  0  0  0  0  0  0  0  0  0  0
    9.8121  -17.1485   26.7161 O   0  0  0  0  0  0  0  0  0  0  0  0
    9.5763  -16.2773   27.5863 O   0  0  0  0  0  0  0  0  0  0  0  0
   12.9692  -18.7135   23.1259 O   0  0  0  0  0  0  0  0  0  0  0  0
  1  2  1  0
  2  3  2  0
  4  2  1  0
  4  5  1  0
  6  5  1  0
  7  6  1  0
  8  9  1  6
  8  7  1  0
 10  8  1  0
 10 12  1  0
 11 10  2  0
 13 12  1  0
 13 18  1  0
 13 14  1  6
 15 14  1  0
 16 17  2  0
 16 15  1  0
 18 19  2  0
 20 16  1  0
 21 18  1  0
 21 22  1  0
 22 27  1  0
 23 24  1  0
 22 23  1  1
 25 24  1  0
 25 29  1  0
 26 25  2  0
 27 28  2  0
 27 30  1  0
M  END
$$$$
