REE.pdb
     RDKit          3D

 30 29  0  0  1  0  0  0  0  0999 V2000
    7.5448  -12.6263   20.6010 N   0  0  0  0  0  0  0  0  0  0  0  0
    8.2306  -12.8490   19.3588 C   0  0  0  0  0  0  0  0  0  0  0  0
    7.7959  -12.2678   18.3158 N   0  0  0  0  0  0  0  0  0  0  0  0
    9.3661  -13.6858   19.2705 N   0  0  0  0  0  0  0  0  0  0  0  0
    9.7271  -14.4865   20.4238 C   0  0  0  0  0  0  0  0  0  0  0  0
    9.3894  -15.9208   20.2863 C   0  0  0  0  0  0  0  0  0  0  0  0
    9.8137  -16.7204   21.4731 C   0  0  0  0  0  0  0  0  0  0  0  0
    9.5353  -18.1926   21.4526 C   0  0  2  0  0  0  0  0  0  0  0  0
    8.1915  -18.4337   21.0946 N   0  0  0  0  0  0  0  0  0  0  0  0
    9.9011  -18.6995   22.8008 C   0  0  0  0  0  0  0  0  0  0  0  0
    9.0744  -18.5375   23.7372 O   0  0  0  0  0  0  0  0  0  0  0  0
    8.1844  -12.3370   17.3589 N   0  0  0  0  0  0  0  0  0  0  0  0
   11.1274  -19.3529   23.0852 C   0  0  2  0  0  0  0  0  0  0  0  0
   11.4854  -19.7582   24.4365 C   0  0  0  0  0  0  0  0  0  0  0  0
   12.6606  -20.7317   24.2847 C   0  0  0  0  0  0  0  0  0  0  0  0
   12.0304  -22.0965   23.9790 C   0  0  0  0  0  0  0  0  0  0  0  0
   13.0918  -23.1304   23.8288 O   0  0  0  0  0  0  0  0  0  0  0  0
   14.2977  -22.7711   23.9394 C   0  0  0  0  0  0  0  0  0  0  0  0
   11.8207  -18.6280   25.2979 O   0  0  0  0  0  0  0  0  0  0  0  0
   12.7488  -17.8462   24.9505 O   0  0  0  0  0  0  0  0  0  0  0  0
   12.7074  -24.4242   23.5771 N   0  0  0  0  0  0  0  0  0  0  0  0
   11.1166  -18.4221   26.4902 C   0  0  1  0  0  0  0  0  0  0  0  0
   11.3938  -17.3010   27.3652 C   0  0  0  0  0  0  0  0  0  0  0  0
   10.4022  -16.1955   27.1862 C   0  0  0  0  0  0  0  0  0  0  0  0
   10.5083  -15.0423   28.1108 C   0  0  0  0  0  0  0  0  0  0  0  0
    9.6078  -13.9138   27.8489 O   0  0  0  0  0  0  0  0  0  0  0  0
    9.6373  -12.9141   28.6037 C   0  0  0  0  0  0  0  0  0  0  0  0
   11.5692  -17.7638   28.7577 O   0  0  0  0  0  0  0  0  0  0  0  0
   11.0641  -18.8417   29.1510 O   0  0  0  0  0  0  0  0  0  0  0  0
    8.7066  -13.8920   26.7889 O   0  0  0  0  0  0  0  0  0  0  0  0
  1  2  1  0
  2  3  2  0
  4  2  1  0
  4  5  1  0
  6  5  1  0
  7  6  1  0
  8  9  1  1
  8  7  1  0
 10  8  1  0
 10 12  1  0
 11 10  2  0
 13 12  1  0
 13 18  1  0
 13 14  1  6
 15 14  1  0
 16 17  2  0
 16 15  1  0
 18 19  2  0
 20 16  1  0
 21 18  1  0
 21 22  1  0
 22 27  1  0
 23 24  1  0
 22 23  1  6
 25 24  1  0
 25 29  1  0
 26 25  2  0
 27 28  2  0
 27 30  1  0
M  END
$$$$
