REE.pdb
     RDKit          3D

 30 29  0  0  1  0  0  0  0  0999 V2000
    7.3482  -12.2043   20.4744 N   0  0  0  0  0  0  0  0  0  0  0  0
    7.8351  -12.6525   19.1996 C   0  0  0  0  0  0  0  0  0  0  0  0
    7.0401  -12.6341   18.2086 N   0  0  0  0  0  0  0  0  0  0  0  0
    9.1624  -13.1043   19.0223 N   0  0  0  0  0  0  0  0  0  0  0  0
    9.7015  -14.0580   19.9718 C   0  0  0  0  0  0  0  0  0  0  0  0
    8.7431  -15.1131   20.3703 C   0  0  0  0  0  0  0  0  0  0  0  0
    8.7814  -15.3906   21.8364 C   0  0  0  0  0  0  0  0  0  0  0  0
    9.7991  -16.3737   22.3294 C   0  0  2  0  0  0  0  0  0  0  0  0
   10.2284  -17.2073   21.2745 N   0  0  0  0  0  0  0  0  0  0  0  0
    9.1555  -17.1041   23.4523 C   0  0  0  0  0  0  0  0  0  0  0  0
    8.7547  -16.4336   24.4404 O   0  0  0  0  0  0  0  0  0  0  0  0
    7.2712  -12.8505   17.2232 N   0  0  0  0  0  0  0  0  0  0  0  0
    8.9706  -18.5102   23.4678 C   0  0  1  0  0  0  0  0  0  0  0  0
    8.4848  -19.2072   24.6495 C   0  0  0  0  0  0  0  0  0  0  0  0
    7.7560  -20.4531   24.1314 C   0  0  0  0  0  0  0  0  0  0  0  0
    7.1736  -21.1384   25.3741 C   0  0  0  0  0  0  0  0  0  0  0  0
    5.8971  -21.8250   25.0314 O   0  0  0  0  0  0  0  0  0  0  0  0
    5.0790  -21.2266   24.2777 C   0  0  0  0  0  0  0  0  0  0  0  0
    9.5520  -19.5490   25.5855 O   0  0  0  0  0  0  0  0  0  0  0  0
    9.2684  -20.2041   26.6264 O   0  0  0  0  0  0  0  0  0  0  0  0
    5.6718  -23.0751   25.5521 N   0  0  0  0  0  0  0  0  0  0  0  0
   10.8685  -19.1517   25.3233 C   0  0  1  0  0  0  0  0  0  0  0  0
   11.9774  -19.5554   26.1639 C   0  0  0  0  0  0  0  0  0  0  0  0
   13.2880  -19.4366   25.4531 C   0  0  0  0  0  0  0  0  0  0  0  0
   13.9353  -18.1036   25.4568 C   0  0  0  0  0  0  0  0  0  0  0  0
   14.6114  -17.7055   24.2168 O   0  0  0  0  0  0  0  0  0  0  0  0
   14.5962  -16.5028   23.8656 C   0  0  0  0  0  0  0  0  0  0  0  0
   11.9109  -18.8693   27.4712 O   0  0  0  0  0  0  0  0  0  0  0  0
   11.0926  -17.9418   27.6754 O   0  0  0  0  0  0  0  0  0  0  0  0
   15.2808  -18.6064   23.3944 O   0  0  0  0  0  0  0  0  0  0  0  0
  1  2  1  0
  2  3  2  0
  4  2  1  0
  4  5  1  0
  6  5  1  0
  7  6  1  0
  8  9  1  6
  8  7  1  0
 10  8  1  0
 10 12  1  0
 11 10  2  0
 13 12  1  0
 13 18  1  0
 13 14  1  1
 15 14  1  0
 16 17  2  0
 16 15  1  0
 18 19  2  0
 20 16  1  0
 21 18  1  0
 21 22  1  0
 22 27  1  0
 23 24  1  0
 22 23  1  1
 25 24  1  0
 25 29  1  0
 26 25  2  0
 27 28  2  0
 27 30  1  0
M  END
$$$$
