REE.pdb
     RDKit          3D

 30 29  0  0  1  0  0  0  0  0999 V2000
    8.7172  -13.3379   17.6557 N   0  0  0  0  0  0  0  0  0  0  0  0
    8.0235  -13.1686   18.9020 C   0  0  0  0  0  0  0  0  0  0  0  0
    8.1489  -12.0646   19.5184 N   0  0  0  0  0  0  0  0  0  0  0  0
    7.2112  -14.1867   19.4506 N   0  0  0  0  0  0  0  0  0  0  0  0
    7.4100  -15.5497   18.9982 C   0  0  0  0  0  0  0  0  0  0  0  0
    8.3505  -16.3273   19.8357 C   0  0  0  0  0  0  0  0  0  0  0  0
    7.8551  -16.5025   21.2328 C   0  0  0  0  0  0  0  0  0  0  0  0
    7.0123  -17.7069   21.5234 C   0  0  2  0  0  0  0  0  0  0  0  0
    5.7200  -17.5453   20.9794 N   0  0  0  0  0  0  0  0  0  0  0  0
    7.0291  -17.8742   23.0000 C   0  0  0  0  0  0  0  0  0  0  0  0
    6.4247  -17.0179   23.6985 O   0  0  0  0  0  0  0  0  0  0  0  0
    7.6439  -11.7694   20.3723 N   0  0  0  0  0  0  0  0  0  0  0  0
    7.6876  -18.9436   23.6591 C   0  0  1  0  0  0  0  0  0  0  0  0
    7.7821  -19.0087   25.1100 C   0  0  0  0  0  0  0  0  0  0  0  0
    7.4982  -20.4687   25.4835 C   0  0  0  0  0  0  0  0  0  0  0  0
    7.6290  -20.5381   27.0104 C   0  0  0  0  0  0  0  0  0  0  0  0
    7.3484  -21.9207   27.4878 O   0  0  0  0  0  0  0  0  0  0  0  0
    6.1538  -22.3305   27.4670 C   0  0  0  0  0  0  0  0  0  0  0  0
    9.0756  -18.5577   25.6153 O   0  0  0  0  0  0  0  0  0  0  0  0
   10.1306  -19.0220   25.1011 O   0  0  0  0  0  0  0  0  0  0  0  0
    8.4025  -22.6824   27.9277 N   0  0  0  0  0  0  0  0  0  0  0  0
    9.1347  -17.6224   26.6553 C   0  0  2  0  0  0  0  0  0  0  0  0
   10.3929  -17.1299   27.1784 C   0  0  0  0  0  0  0  0  0  0  0  0
   10.4318  -15.6353   27.2219 C   0  0  0  0  0  0  0  0  0  0  0  0
    9.3706  -14.9587   28.0043 C   0  0  0  0  0  0  0  0  0  0  0  0
    9.4255  -13.4929   28.0428 O   0  0  0  0  0  0  0  0  0  0  0  0
    8.6856  -12.8694   28.8389 C   0  0  0  0  0  0  0  0  0  0  0  0
   10.7201  -17.8011   28.4537 O   0  0  0  0  0  0  0  0  0  0  0  0
   11.8038  -17.5789   29.0436 O   0  0  0  0  0  0  0  0  0  0  0  0
   10.2697  -12.7433   27.2293 O   0  0  0  0  0  0  0  0  0  0  0  0
  1  2  1  0
  2  3  2  0
  4  2  1  0
  4  5  1  0
  6  5  1  0
  7  6  1  0
  8  9  1  1
  8  7  1  0
 10  8  1  0
 10 12  1  0
 11 10  2  0
 13 12  1  0
 13 18  1  0
 13 14  1  1
 15 14  1  0
 16 17  2  0
 16 15  1  0
 18 19  2  0
 20 16  1  0
 21 18  1  0
 21 22  1  0
 22 27  1  0
 23 24  1  0
 22 23  1  6
 25 24  1  0
 25 29  1  0
 26 25  2  0
 27 28  2  0
 27 30  1  0
M  END
$$$$
