REE.pdb
     RDKit          3D

 30 29  0  0  1  0  0  0  0  0999 V2000
    7.8023  -13.2996   18.7695 N   0  0  0  0  0  0  0  0  0  0  0  0
    7.9820  -12.5080   19.9545 C   0  0  0  0  0  0  0  0  0  0  0  0
    8.0706  -11.2465   19.8309 N   0  0  0  0  0  0  0  0  0  0  0  0
    8.0576  -13.0911   21.2396 N   0  0  0  0  0  0  0  0  0  0  0  0
    7.3231  -14.3160   21.4881 C   0  0  0  0  0  0  0  0  0  0  0  0
    7.7299  -15.4444   20.6211 C   0  0  0  0  0  0  0  0  0  0  0  0
    6.9309  -16.6778   20.8820 C   0  0  0  0  0  0  0  0  0  0  0  0
    7.3062  -17.9187   20.1306 C   0  0  2  0  0  0  0  0  0  0  0  0
    6.4714  -18.9927   20.5072 N   0  0  0  0  0  0  0  0  0  0  0  0
    8.7478  -18.1483   20.4091 C   0  0  0  0  0  0  0  0  0  0  0  0
    9.0512  -18.8746   21.3924 O   0  0  0  0  0  0  0  0  0  0  0  0
    8.1482  -10.5517   20.5942 N   0  0  0  0  0  0  0  0  0  0  0  0
    9.7938  -17.5940   19.6280 C   0  0  2  0  0  0  0  0  0  0  0  0
   11.1948  -17.8425   19.9346 C   0  0  0  0  0  0  0  0  0  0  0  0
   11.9807  -17.3949   18.6962 C   0  0  0  0  0  0  0  0  0  0  0  0
   12.0606  -18.6291   17.7886 C   0  0  0  0  0  0  0  0  0  0  0  0
   12.8164  -18.3055   16.5467 O   0  0  0  0  0  0  0  0  0  0  0  0
   13.8534  -18.9774   16.2846 C   0  0  0  0  0  0  0  0  0  0  0  0
   11.6419  -17.1550   21.1427 O   0  0  0  0  0  0  0  0  0  0  0  0
   11.2756  -15.9637   21.3416 O   0  0  0  0  0  0  0  0  0  0  0  0
   12.3489  -17.2920   15.7473 N   0  0  0  0  0  0  0  0  0  0  0  0
   12.4646  -17.8166   22.0621 C   0  0  1  0  0  0  0  0  0  0  0  0
   12.8662  -17.2081   23.3141 C   0  0  0  0  0  0  0  0  0  0  0  0
   12.3700  -17.9814   24.4943 C   0  0  0  0  0  0  0  0  0  0  0  0
   12.8274  -17.5336   25.8309 C   0  0  0  0  0  0  0  0  0  0  0  0
   12.3308  -18.3007   26.9789 O   0  0  0  0  0  0  0  0  0  0  0  0
   11.3402  -19.0542   26.8344 C   0  0  0  0  0  0  0  0  0  0  0  0
   14.3183  -16.9335   23.3125 O   0  0  0  0  0  0  0  0  0  0  0  0
   15.0815  -17.4863   22.4858 O   0  0  0  0  0  0  0  0  0  0  0  0
   12.9101  -18.2365   28.2425 O   0  0  0  0  0  0  0  0  0  0  0  0
  1  2  1  0
  2  3  2  0
  4  2  1  0
  4  5  1  0
  6  5  1  0
  7  6  1  0
  8  9  1  1
  8  7  1  0
 10  8  1  0
 10 12  1  0
 11 10  2  0
 13 12  1  0
 13 18  1  0
 13 14  1  6
 15 14  1  0
 16 17  2  0
 16 15  1  0
 18 19  2  0
 20 16  1  0
 21 18  1  0
 21 22  1  0
 22 27  1  0
 23 24  1  0
 22 23  1  1
 25 24  1  0
 25 29  1  0
 26 25  2  0
 27 28  2  0
 27 30  1  0
M  END
$$$$
