REE.pdb
     RDKit          3D

 30 29  0  0  1  0  0  0  0  0999 V2000
    8.9939  -13.7166   20.7874 N   0  0  0  0  0  0  0  0  0  0  0  0
    8.4247  -13.3730   19.5141 C   0  0  0  0  0  0  0  0  0  0  0  0
    8.5950  -12.1930   19.0746 N   0  0  0  0  0  0  0  0  0  0  0  0
    7.6922  -14.3059   18.7457 N   0  0  0  0  0  0  0  0  0  0  0  0
    6.5566  -14.9670   19.3580 C   0  0  0  0  0  0  0  0  0  0  0  0
    6.8373  -16.3505   19.8025 C   0  0  0  0  0  0  0  0  0  0  0  0
    6.4117  -16.5912   21.2127 C   0  0  0  0  0  0  0  0  0  0  0  0
    5.6654  -17.8573   21.5050 C   0  0  2  0  0  0  0  0  0  0  0  0
    4.3562  -17.7880   20.9823 N   0  0  0  0  0  0  0  0  0  0  0  0
    5.7182  -18.0351   22.9795 C   0  0  0  0  0  0  0  0  0  0  0  0
    4.8114  -17.5011   23.6717 O   0  0  0  0  0  0  0  0  0  0  0  0
    8.3253  -11.8327   18.1426 N   0  0  0  0  0  0  0  0  0  0  0  0
    6.7323  -18.7715   23.6434 C   0  0  2  0  0  0  0  0  0  0  0  0
    6.8699  -18.7537   25.0922 C   0  0  0  0  0  0  0  0  0  0  0  0
    6.6636  -20.2024   25.5508 C   0  0  0  0  0  0  0  0  0  0  0  0
    7.8310  -20.9964   24.9507 C   0  0  0  0  0  0  0  0  0  0  0  0
    7.7587  -22.4205   25.3809 O   0  0  0  0  0  0  0  0  0  0  0  0
    6.6493  -23.0177   25.2906 C   0  0  0  0  0  0  0  0  0  0  0  0
    8.1549  -18.2191   25.5337 O   0  0  0  0  0  0  0  0  0  0  0  0
    9.1532  -18.3105   24.7669 O   0  0  0  0  0  0  0  0  0  0  0  0
    8.9018  -23.0146   25.8553 N   0  0  0  0  0  0  0  0  0  0  0  0
    8.2680  -17.6147   26.7914 C   0  0  2  0  0  0  0  0  0  0  0  0
    9.4784  -16.9415   27.2169 C   0  0  0  0  0  0  0  0  0  0  0  0
    9.1839  -15.6442   27.9006 C   0  0  0  0  0  0  0  0  0  0  0  0
   10.3373  -14.9084   28.4700 C   0  0  0  0  0  0  0  0  0  0  0  0
   10.0491  -13.5869   29.0388 O   0  0  0  0  0  0  0  0  0  0  0  0
    8.8622  -13.1912   29.1073 C   0  0  0  0  0  0  0  0  0  0  0  0
   10.3437  -17.8667   27.9779 O   0  0  0  0  0  0  0  0  0  0  0  0
   11.5647  -17.6303   28.1355 O   0  0  0  0  0  0  0  0  0  0  0  0
   11.0393  -12.7332   29.5152 O   0  0  0  0  0  0  0  0  0  0  0  0
  1  2  1  0
  2  3  2  0
  4  2  1  0
  4  5  1  0
  6  5  1  0
  7  6  1  0
  8  9  1  1
  8  7  1  0
 10  8  1  0
 10 12  1  0
 11 10  2  0
 13 12  1  0
 13 18  1  0
 13 14  1  6
 15 14  1  0
 16 17  2  0
 16 15  1  0
 18 19  2  0
 20 16  1  0
 21 18  1  0
 21 22  1  0
 22 27  1  0
 23 24  1  0
 22 23  1  1
 25 24  1  0
 25 29  1  0
 26 25  2  0
 27 28  2  0
 27 30  1  0
M  END
$$$$
