LQS.pdb
     RDKit          3D

 24 23  0  0  1  0  0  0  0  0999 V2000
    8.5475  -11.8439   19.6932 C   0  0  0  0  0  0  0  0  0  0  0  0
    8.1566  -13.0917   18.9300 C   0  0  2  0  0  0  0  0  0  0  0  0
    6.6642  -13.2018   18.9593 C   0  0  0  0  0  0  0  0  0  0  0  0
    8.8733  -14.3115   19.4308 C   0  0  0  0  0  0  0  0  0  0  0  0
   10.2321  -13.9401   19.9312 C   0  0  2  0  0  0  0  0  0  0  0  0
   11.0319  -13.3881   18.8790 N   0  0  0  0  0  0  0  0  0  0  0  0
   10.9102  -15.0627   20.6321 C   0  0  0  0  0  0  0  0  0  0  0  0
   10.2255  -15.8505   21.3336 O   0  0  0  0  0  0  0  0  0  0  0  0
   15.8858  -14.3625   18.7692 N   0  0  0  0  0  0  0  0  0  0  0  0
   14.8729  -15.2569   18.3323 C   0  0  0  0  0  0  0  0  0  0  0  0
   14.2382  -14.9299   17.3010 O   0  0  0  0  0  0  0  0  0  0  0  0
   14.5519  -16.5114   19.0243 C   0  0  0  0  0  0  0  0  0  0  0  0
   14.3934  -16.3953   20.5021 C   0  0  0  0  0  0  0  0  0  0  0  0
   12.9990  -16.4299   21.0280 C   0  0  2  0  0  0  0  0  0  0  0  0
   12.3130  -15.2469   20.5140 N   0  0  0  0  0  0  0  0  0  0  0  0
   13.0264  -16.4190   22.5079 C   0  0  0  0  0  0  0  0  0  0  0  0
   13.6599  -15.6348   23.2275 O   0  0  0  0  0  0  0  0  0  0  0  0
   10.0424  -18.5037   24.3200 O   0  0  0  0  0  0  0  0  0  0  0  0
   10.7537  -17.5895   25.0602 C   0  0  0  0  0  0  0  0  0  0  0  0
   12.2233  -17.5155   24.6279 C   0  0  2  0  0  0  0  0  0  0  0  0
   12.2424  -17.4148   23.2018 N   0  0  0  0  0  0  0  0  0  0  0  0
   12.8778  -18.7268   25.1414 C   0  0  0  0  0  0  0  0  0  0  0  0
   12.9207  -19.0074   26.4908 O   0  0  0  0  0  0  0  0  0  0  0  0
   13.4104  -19.5264   24.3418 O   0  0  0  0  0  0  0  0  0  0  0  0
  2  1  1  1
  3  2  1  0
  4  2  1  0
  4  5  1  0
  5  6  1  6
  7  5  1  0
  7  8  2  0
  9 10  1  0
 10 12  1  0
 11 10  2  0
 12 13  1  0
 14 13  1  6
 14 15  1  0
 15  7  1  0
 16 14  1  0
 17 16  2  0
 18 19  1  0
 20 19  1  6
 20 21  1  0
 21 16  1  0
 22 23  1  0
 22 20  1  0
 24 22  2  0
M  END
$$$$
