LQS.pdb
     RDKit          3D

 24 23  0  0  1  0  0  0  0  0999 V2000
    9.1699  -12.2838   19.3134 C   0  0  0  0  0  0  0  0  0  0  0  0
    8.1927  -13.4304   19.1622 C   0  0  2  0  0  0  0  0  0  0  0  0
    6.9312  -12.8860   18.5685 C   0  0  0  0  0  0  0  0  0  0  0  0
    7.9942  -14.1804   20.4469 C   0  0  0  0  0  0  0  0  0  0  0  0
    9.3065  -14.3769   21.1353 C   0  0  2  0  0  0  0  0  0  0  0  0
   10.2149  -15.1106   20.3060 N   0  0  0  0  0  0  0  0  0  0  0  0
    9.1588  -14.9779   22.4875 C   0  0  0  0  0  0  0  0  0  0  0  0
    8.2288  -14.5824   23.2360 O   0  0  0  0  0  0  0  0  0  0  0  0
   11.9576  -20.4598   23.7739 N   0  0  0  0  0  0  0  0  0  0  0  0
   10.8289  -20.1286   22.9784 C   0  0  0  0  0  0  0  0  0  0  0  0
   10.4717  -20.9762   22.1255 O   0  0  0  0  0  0  0  0  0  0  0  0
   10.0889  -18.8677   23.1141 C   0  0  0  0  0  0  0  0  0  0  0  0
   10.6037  -17.9427   24.1637 C   0  0  0  0  0  0  0  0  0  0  0  0
    9.9517  -16.6050   24.2518 C   0  0  2  0  0  0  0  0  0  0  0  0
   10.0541  -15.9859   22.9325 N   0  0  0  0  0  0  0  0  0  0  0  0
   10.6409  -15.7833   25.2720 C   0  0  0  0  0  0  0  0  0  0  0  0
   11.8279  -15.4300   25.2549 O   0  0  0  0  0  0  0  0  0  0  0  0
    8.2560  -13.6189   27.6408 O   0  0  0  0  0  0  0  0  0  0  0  0
    9.6025  -13.3490   27.7023 C   0  0  0  0  0  0  0  0  0  0  0  0
   10.4532  -14.6075   27.4910 C   0  0  2  0  0  0  0  0  0  0  0  0
    9.8695  -15.3388   26.4100 N   0  0  0  0  0  0  0  0  0  0  0  0
   10.4518  -15.3391   28.7654 C   0  0  0  0  0  0  0  0  0  0  0  0
   10.9262  -14.7670   29.9269 O   0  0  0  0  0  0  0  0  0  0  0  0
   10.0115  -16.5083   28.8050 O   0  0  0  0  0  0  0  0  0  0  0  0
  2  1  1  1
  3  2  1  0
  4  2  1  0
  4  5  1  0
  5  6  1  6
  7  5  1  0
  7  8  2  0
  9 10  1  0
 10 12  1  0
 11 10  2  0
 12 13  1  0
 14 13  1  6
 14 15  1  0
 15  7  1  0
 16 14  1  0
 17 16  2  0
 18 19  1  0
 20 19  1  1
 20 21  1  0
 21 16  1  0
 22 23  1  0
 22 20  1  0
 24 22  2  0
M  END
$$$$
