LQS.pdb
     RDKit          3D

 24 23  0  0  1  0  0  0  0  0999 V2000
    9.5676  -12.0648   19.7587 C   0  0  0  0  0  0  0  0  0  0  0  0
    8.4735  -12.9957   19.2806 C   0  0  2  0  0  0  0  0  0  0  0  0
    7.1685  -12.2719   19.3966 C   0  0  0  0  0  0  0  0  0  0  0  0
    8.5068  -14.3203   19.9853 C   0  0  0  0  0  0  0  0  0  0  0  0
    9.9106  -14.8291   20.0571 C   0  0  2  0  0  0  0  0  0  0  0  0
   10.4015  -15.1628   18.7537 N   0  0  0  0  0  0  0  0  0  0  0  0
   10.0654  -15.9462   21.0265 C   0  0  0  0  0  0  0  0  0  0  0  0
    9.5064  -15.8649   22.1501 O   0  0  0  0  0  0  0  0  0  0  0  0
   10.8379  -22.8655   21.9961 N   0  0  0  0  0  0  0  0  0  0  0  0
   10.7426  -21.5052   21.5994 C   0  0  0  0  0  0  0  0  0  0  0  0
    9.6009  -21.0855   21.2934 O   0  0  0  0  0  0  0  0  0  0  0  0
   11.8978  -20.6011   21.5358 C   0  0  0  0  0  0  0  0  0  0  0  0
   11.6571  -19.3180   20.8161 C   0  0  0  0  0  0  0  0  0  0  0  0
   10.9519  -18.2481   21.5779 C   0  0  2  0  0  0  0  0  0  0  0  0
   10.8337  -17.0922   20.6922 N   0  0  0  0  0  0  0  0  0  0  0  0
   11.7317  -17.9044   22.7881 C   0  0  0  0  0  0  0  0  0  0  0  0
   12.8279  -17.3286   22.8197 O   0  0  0  0  0  0  0  0  0  0  0  0
   11.4518  -17.9042   27.6569 O   0  0  0  0  0  0  0  0  0  0  0  0
   10.8681  -17.9158   26.4124 C   0  0  0  0  0  0  0  0  0  0  0  0
   11.8998  -18.1016   25.2930 C   0  0  2  0  0  0  0  0  0  0  0  0
   11.1762  -18.2686   24.0713 N   0  0  0  0  0  0  0  0  0  0  0  0
   12.7159  -19.2679   25.6579 C   0  0  0  0  0  0  0  0  0  0  0  0
   13.7576  -19.1676   26.5559 O   0  0  0  0  0  0  0  0  0  0  0  0
   12.4656  -20.3805   25.1462 O   0  0  0  0  0  0  0  0  0  0  0  0
  2  1  1  1
  3  2  1  0
  4  2  1  0
  4  5  1  0
  5  6  1  6
  7  5  1  0
  7  8  2  0
  9 10  1  0
 10 12  1  0
 11 10  2  0
 12 13  1  0
 14 13  1  6
 14 15  1  0
 15  7  1  0
 16 14  1  0
 17 16  2  0
 18 19  1  0
 20 19  1  1
 20 21  1  0
 21 16  1  0
 22 23  1  0
 22 20  1  0
 24 22  2  0
M  END
$$$$
