LQS.pdb
     RDKit          3D

 24 23  0  0  1  0  0  0  0  0999 V2000
    9.6108  -14.1280   20.0603 C   0  0  0  0  0  0  0  0  0  0  0  0
    8.4852  -14.0382   19.0517 C   0  0  2  0  0  0  0  0  0  0  0  0
    8.1328  -12.5935   18.8810 C   0  0  0  0  0  0  0  0  0  0  0  0
    7.3238  -14.9155   19.4174 C   0  0  0  0  0  0  0  0  0  0  0  0
    7.7738  -16.0095   20.3313 C   0  0  2  0  0  0  0  0  0  0  0  0
    7.6300  -17.2902   19.7064 N   0  0  0  0  0  0  0  0  0  0  0  0
    7.1154  -15.9494   21.6633 C   0  0  0  0  0  0  0  0  0  0  0  0
    5.8857  -16.1979   21.7512 O   0  0  0  0  0  0  0  0  0  0  0  0
    8.2357  -19.1702   26.5170 N   0  0  0  0  0  0  0  0  0  0  0  0
    9.2626  -18.4319   25.8712 C   0  0  0  0  0  0  0  0  0  0  0  0
   10.4284  -18.8851   25.9666 O   0  0  0  0  0  0  0  0  0  0  0  0
    9.0158  -17.1947   25.1200 C   0  0  0  0  0  0  0  0  0  0  0  0
    7.5873  -16.9354   24.7816 C   0  0  0  0  0  0  0  0  0  0  0  0
    7.2776  -15.6147   24.1634 C   0  0  2  0  0  0  0  0  0  0  0  0
    7.8615  -15.6159   22.8242 N   0  0  0  0  0  0  0  0  0  0  0  0
    7.8591  -14.5320   24.9885 C   0  0  0  0  0  0  0  0  0  0  0  0
    9.0398  -14.1579   24.9875 O   0  0  0  0  0  0  0  0  0  0  0  0
    5.2025  -12.8083   27.6424 O   0  0  0  0  0  0  0  0  0  0  0  0
    6.1790  -11.9698   27.1597 C   0  0  0  0  0  0  0  0  0  0  0  0
    7.4247  -12.7384   26.7019 C   0  0  2  0  0  0  0  0  0  0  0  0
    6.9779  -13.8287   25.8921 N   0  0  0  0  0  0  0  0  0  0  0  0
    8.1334  -13.1601   27.9181 C   0  0  0  0  0  0  0  0  0  0  0  0
    8.5980  -12.2434   28.8376 O   0  0  0  0  0  0  0  0  0  0  0  0
    8.3233  -14.3771   28.1309 O   0  0  0  0  0  0  0  0  0  0  0  0
  2  1  1  1
  3  2  1  0
  4  2  1  0
  4  5  1  0
  5  6  1  6
  7  5  1  0
  7  8  2  0
  9 10  1  0
 10 12  1  0
 11 10  2  0
 12 13  1  0
 14 13  1  1
 14 15  1  0
 15  7  1  0
 16 14  1  0
 17 16  2  0
 18 19  1  0
 20 19  1  1
 20 21  1  0
 21 16  1  0
 22 23  1  0
 22 20  1  0
 24 22  2  0
M  END
$$$$
