LQS.pdb
     RDKit          3D

 24 23  0  0  1  0  0  0  0  0999 V2000
    9.1117  -12.9855   19.2642 C   0  0  0  0  0  0  0  0  0  0  0  0
    7.7533  -13.3451   19.8280 C   0  0  2  0  0  0  0  0  0  0  0  0
    6.9273  -12.0977   19.8724 C   0  0  0  0  0  0  0  0  0  0  0  0
    7.8558  -14.0620   21.1425 C   0  0  0  0  0  0  0  0  0  0  0  0
    8.6767  -15.3019   20.9890 C   0  0  2  0  0  0  0  0  0  0  0  0
    8.0521  -16.2208   20.0853 N   0  0  0  0  0  0  0  0  0  0  0  0
    9.0152  -15.9290   22.2942 C   0  0  0  0  0  0  0  0  0  0  0  0
    8.0998  -16.4550   22.9776 O   0  0  0  0  0  0  0  0  0  0  0  0
   13.4984  -19.8048   21.6146 N   0  0  0  0  0  0  0  0  0  0  0  0
   13.2498  -19.0793   22.8099 C   0  0  0  0  0  0  0  0  0  0  0  0
   14.2113  -18.9578   23.6061 O   0  0  0  0  0  0  0  0  0  0  0  0
   11.9472  -18.4859   23.1367 C   0  0  0  0  0  0  0  0  0  0  0  0
   12.0092  -17.2084   23.9026 C   0  0  0  0  0  0  0  0  0  0  0  0
   10.7250  -16.4713   24.0752 C   0  0  2  0  0  0  0  0  0  0  0  0
   10.3538  -15.9363   22.7673 N   0  0  0  0  0  0  0  0  0  0  0  0
   10.9081  -15.3783   25.0565 C   0  0  0  0  0  0  0  0  0  0  0  0
   11.5156  -14.3151   24.8706 O   0  0  0  0  0  0  0  0  0  0  0  0
    8.2399  -14.1269   27.3320 O   0  0  0  0  0  0  0  0  0  0  0  0
    9.4963  -13.5773   27.4269 C   0  0  0  0  0  0  0  0  0  0  0  0
   10.5943  -14.6478   27.4459 C   0  0  2  0  0  0  0  0  0  0  0  0
   10.3279  -15.5493   26.3686 N   0  0  0  0  0  0  0  0  0  0  0  0
   10.5449  -15.2823   28.7704 C   0  0  0  0  0  0  0  0  0  0  0  0
   10.7226  -14.5532   29.9273 O   0  0  0  0  0  0  0  0  0  0  0  0
   10.3373  -16.5118   28.8582 O   0  0  0  0  0  0  0  0  0  0  0  0
  2  1  1  1
  3  2  1  0
  4  2  1  0
  4  5  1  0
  5  6  1  6
  7  5  1  0
  7  8  2  0
  9 10  1  0
 10 12  1  0
 11 10  2  0
 12 13  1  0
 14 13  1  6
 14 15  1  0
 15  7  1  0
 16 14  1  0
 17 16  2  0
 18 19  1  0
 20 19  1  1
 20 21  1  0
 21 16  1  0
 22 23  1  0
 22 20  1  0
 24 22  2  0
M  END
$$$$
