LQS.pdb
     RDKit          3D

 24 23  0  0  1  0  0  0  0  0999 V2000
    6.1449  -12.8502   26.6383 C   0  0  0  0  0  0  0  0  0  0  0  0
    7.1326  -13.2529   25.5637 C   0  0  2  0  0  0  0  0  0  0  0  0
    8.1698  -12.1784   25.4644 C   0  0  0  0  0  0  0  0  0  0  0  0
    6.4564  -13.5770   24.2637 C   0  0  0  0  0  0  0  0  0  0  0  0
    7.4359  -14.1858   23.3127 C   0  0  2  0  0  0  0  0  0  0  0  0
    6.8759  -14.2911   21.9986 N   0  0  0  0  0  0  0  0  0  0  0  0
    7.9819  -15.4790   23.8036 C   0  0  0  0  0  0  0  0  0  0  0  0
    7.2019  -16.4521   23.9651 O   0  0  0  0  0  0  0  0  0  0  0  0
   13.0683  -17.8366   21.5636 N   0  0  0  0  0  0  0  0  0  0  0  0
   11.7141  -17.6876   21.1627 C   0  0  0  0  0  0  0  0  0  0  0  0
   11.4709  -17.8152   19.9388 O   0  0  0  0  0  0  0  0  0  0  0  0
   10.6228  -17.3976   22.1012 C   0  0  0  0  0  0  0  0  0  0  0  0
   11.0429  -17.2025   23.5181 C   0  0  0  0  0  0  0  0  0  0  0  0
    9.9633  -16.8872   24.4965 C   0  0  2  0  0  0  0  0  0  0  0  0
    9.3659  -15.6181   24.0879 N   0  0  0  0  0  0  0  0  0  0  0  0
   10.5404  -16.7821   25.8556 C   0  0  0  0  0  0  0  0  0  0  0  0
   11.3717  -15.9488   26.2408 O   0  0  0  0  0  0  0  0  0  0  0  0
    9.0834  -19.5514   28.5903 O   0  0  0  0  0  0  0  0  0  0  0  0
    9.8252  -18.5075   29.0899 C   0  0  0  0  0  0  0  0  0  0  0  0
   10.8243  -17.9651   28.0605 C   0  0  2  0  0  0  0  0  0  0  0  0
   10.1033  -17.7382   26.8468 N   0  0  0  0  0  0  0  0  0  0  0  0
   11.8894  -18.9694   27.9334 C   0  0  0  0  0  0  0  0  0  0  0  0
   12.6883  -19.3139   29.0033 O   0  0  0  0  0  0  0  0  0  0  0  0
   12.0817  -19.5289   26.8323 O   0  0  0  0  0  0  0  0  0  0  0  0
  2  1  1  1
  3  2  1  0
  4  2  1  0
  4  5  1  0
  5  6  1  6
  7  5  1  0
  7  8  2  0
  9 10  1  0
 10 12  1  0
 11 10  2  0
 12 13  1  0
 14 13  1  6
 14 15  1  0
 15  7  1  0
 16 14  1  0
 17 16  2  0
 18 19  1  0
 20 19  1  1
 20 21  1  0
 21 16  1  0
 22 23  1  0
 22 20  1  0
 24 22  2  0
M  END
$$$$
