LQS.pdb
     RDKit          3D

 24 23  0  0  1  0  0  0  0  0999 V2000
    8.2011  -11.6570   19.7419 C   0  0  0  0  0  0  0  0  0  0  0  0
    7.9598  -12.9786   19.0438 C   0  0  2  0  0  0  0  0  0  0  0  0
    6.5042  -13.0626   18.7054 C   0  0  0  0  0  0  0  0  0  0  0  0
    8.4746  -14.1429   19.8386 C   0  0  0  0  0  0  0  0  0  0  0  0
    9.8816  -13.8863   20.2736 C   0  0  2  0  0  0  0  0  0  0  0  0
   10.6302  -13.2459   19.2339 N   0  0  0  0  0  0  0  0  0  0  0  0
   10.5535  -15.1093   20.7876 C   0  0  0  0  0  0  0  0  0  0  0  0
    9.8682  -15.9838   21.3767 O   0  0  0  0  0  0  0  0  0  0  0  0
   15.7861  -14.8483   18.8342 N   0  0  0  0  0  0  0  0  0  0  0  0
   14.8598  -15.6611   18.1284 C   0  0  0  0  0  0  0  0  0  0  0  0
   14.8850  -15.5882   16.8764 O   0  0  0  0  0  0  0  0  0  0  0  0
   13.9026  -16.5552   18.7920 C   0  0  0  0  0  0  0  0  0  0  0  0
   13.9481  -16.5356   20.2819 C   0  0  0  0  0  0  0  0  0  0  0  0
   12.6358  -16.5280   20.9891 C   0  0  2  0  0  0  0  0  0  0  0  0
   11.9512  -15.2919   20.6180 N   0  0  0  0  0  0  0  0  0  0  0  0
   12.8596  -16.5853   22.4512 C   0  0  0  0  0  0  0  0  0  0  0  0
   13.6432  -15.8833   23.1048 O   0  0  0  0  0  0  0  0  0  0  0  0
    9.9845  -18.4679   24.6017 O   0  0  0  0  0  0  0  0  0  0  0  0
   10.9004  -17.6916   25.2711 C   0  0  0  0  0  0  0  0  0  0  0  0
   12.2858  -17.7387   24.6149 C   0  0  2  0  0  0  0  0  0  0  0  0
   12.0975  -17.5500   23.2103 N   0  0  0  0  0  0  0  0  0  0  0  0
   12.8746  -19.0399   24.9605 C   0  0  0  0  0  0  0  0  0  0  0  0
   13.2378  -19.3471   26.2548 O   0  0  0  0  0  0  0  0  0  0  0  0
   13.0534  -19.8935   24.0651 O   0  0  0  0  0  0  0  0  0  0  0  0
  2  1  1  1
  3  2  1  0
  4  2  1  0
  4  5  1  0
  5  6  1  6
  7  5  1  0
  7  8  2  0
  9 10  1  0
 10 12  1  0
 11 10  2  0
 12 13  1  0
 14 13  1  6
 14 15  1  0
 15  7  1  0
 16 14  1  0
 17 16  2  0
 18 19  1  0
 20 19  1  1
 20 21  1  0
 21 16  1  0
 22 23  1  0
 22 20  1  0
 24 22  2  0
M  END
$$$$
