EPA.pdb
     RDKit          3D

 22 22  0  0  1  0  0  0  0  0999 V2000
    9.7140  -15.8412   15.2259 N   0  0  0  0  0  0  0  0  0  0  0  0
    8.7557  -15.4895   16.2463 C   0  0  1  0  0  0  0  0  0  0  0  0
    7.8570  -16.6671   16.4844 C   0  0  0  0  0  0  0  0  0  0  0  0
    8.5642  -17.9398   16.8279 C   0  0  0  0  0  0  0  0  0  0  0  0
    7.6765  -19.0776   17.0494 C   0  0  0  0  0  0  0  0  0  0  0  0
    6.4521  -19.0006   16.8956 O   0  0  0  0  0  0  0  0  0  0  0  0
    9.4337  -15.1870   17.5578 C   0  0  0  0  0  0  0  0  0  0  0  0
   10.6321  -15.5403   17.6446 O   0  0  0  0  0  0  0  0  0  0  0  0
    8.2141  -20.2910   17.4463 O   0  0  0  0  0  0  0  0  0  0  0  0
    8.8120  -14.5543   18.6432 N   0  0  0  0  0  0  0  0  0  0  0  0
    7.4030  -14.2941   18.7880 C   0  0  0  0  0  0  0  0  0  0  0  0
    7.2627  -13.3608   19.9906 C   0  0  0  0  0  0  0  0  0  0  0  0
    8.6828  -12.8249   20.1776 C   0  0  0  0  0  0  0  0  0  0  0  0
    9.4786  -14.0533   19.8005 C   0  0  1  0  0  0  0  0  0  0  0  0
    9.4289  -14.9780   20.9626 C   0  0  0  0  0  0  0  0  0  0  0  0
    8.4653  -15.7549   21.1784 O   0  0  0  0  0  0  0  0  0  0  0  0
   12.3460  -16.6102   22.2352 C   0  0  0  0  0  0  0  0  0  0  0  0
   10.9473  -16.2107   22.5614 C   0  0  2  0  0  0  0  0  0  0  0  0
   10.4998  -15.0157   21.8946 N   0  0  0  0  0  0  0  0  0  0  0  0
   10.7929  -16.1431   24.0293 C   0  0  0  0  0  0  0  0  0  0  0  0
   11.1281  -17.1796   24.6780 O   0  0  0  0  0  0  0  0  0  0  0  0
   10.3233  -15.0644   24.7297 O   0  0  0  0  0  0  0  0  0  0  0  0
  2  1  1  6
  3  4  1  0
  3  2  1  0
  4  5  1  0
  5  9  1  0
  5  6  2  0
  7 10  1  0
  7  2  1  0
  8  7  2  0
 10 14  1  0
 11 12  1  0
 11 10  1  0
 12 13  1  0
 13 14  1  0
 14 15  1  1
 15 19  1  0
 15 16  2  0
 18 17  1  1
 18 20  1  0
 19 18  1  0
 20 22  1  0
 21 20  2  0
M  END
$$$$
