EPA.pdb
     RDKit          3D

 22 22  0  0  1  0  0  0  0  0999 V2000
    9.2590  -15.4382   20.8787 N   0  0  0  0  0  0  0  0  0  0  0  0
    8.3356  -15.5993   21.9763 C   0  0  1  0  0  0  0  0  0  0  0  0
    8.2754  -17.0534   22.3409 C   0  0  0  0  0  0  0  0  0  0  0  0
    9.5896  -17.6654   22.7097 C   0  0  0  0  0  0  0  0  0  0  0  0
    9.5042  -19.0615   23.1283 C   0  0  0  0  0  0  0  0  0  0  0  0
    8.5822  -19.4844   23.8352 O   0  0  0  0  0  0  0  0  0  0  0  0
    8.8054  -14.8619   23.2038 C   0  0  0  0  0  0  0  0  0  0  0  0
   10.0373  -14.6463   23.2706 O   0  0  0  0  0  0  0  0  0  0  0  0
   10.4853  -19.9524   22.7253 O   0  0  0  0  0  0  0  0  0  0  0  0
    7.9629  -14.4227   24.2346 N   0  0  0  0  0  0  0  0  0  0  0  0
    6.5368  -14.6086   24.3102 C   0  0  0  0  0  0  0  0  0  0  0  0
    6.0527  -13.7312   25.4647 C   0  0  0  0  0  0  0  0  0  0  0  0
    7.2263  -12.7760   25.6863 C   0  0  0  0  0  0  0  0  0  0  0  0
    8.3809  -13.7070   25.3954 C   0  0  1  0  0  0  0  0  0  0  0  0
    8.5584  -14.5681   26.5934 C   0  0  0  0  0  0  0  0  0  0  0  0
    8.3137  -15.8006   26.5927 O   0  0  0  0  0  0  0  0  0  0  0  0
   10.4870  -13.7338   29.7758 C   0  0  0  0  0  0  0  0  0  0  0  0
   10.1398  -14.5275   28.5627 C   0  0  2  0  0  0  0  0  0  0  0  0
    9.0240  -14.0108   27.8138 N   0  0  0  0  0  0  0  0  0  0  0  0
    9.9706  -15.9450   28.9438 C   0  0  0  0  0  0  0  0  0  0  0  0
   10.9557  -16.4924   29.5245 O   0  0  0  0  0  0  0  0  0  0  0  0
    8.8497  -16.6990   28.7207 O   0  0  0  0  0  0  0  0  0  0  0  0
  2  1  1  6
  3  4  1  0
  3  2  1  0
  4  5  1  0
  5  9  1  0
  5  6  2  0
  7 10  1  0
  7  2  1  0
  8  7  2  0
 10 14  1  0
 11 12  1  0
 11 10  1  0
 12 13  1  0
 13 14  1  0
 14 15  1  1
 15 19  1  0
 15 16  2  0
 18 17  1  1
 18 20  1  0
 19 18  1  0
 20 22  1  0
 21 20  2  0
M  END
$$$$
