EPA.pdb
     RDKit          3D

 22 22  0  0  1  0  0  0  0  0999 V2000
    8.0244  -14.1399   21.0543 N   0  0  0  0  0  0  0  0  0  0  0  0
    7.2725  -14.0837   22.2851 C   0  0  1  0  0  0  0  0  0  0  0  0
    6.4559  -15.3367   22.4040 C   0  0  0  0  0  0  0  0  0  0  0  0
    6.9722  -16.5018   21.6206 C   0  0  0  0  0  0  0  0  0  0  0  0
    7.0801  -17.7394   22.3878 C   0  0  0  0  0  0  0  0  0  0  0  0
    7.8617  -17.8620   23.3380 O   0  0  0  0  0  0  0  0  0  0  0  0
    8.1830  -14.0419   23.4852 C   0  0  0  0  0  0  0  0  0  0  0  0
    9.3820  -14.3315   23.2686 O   0  0  0  0  0  0  0  0  0  0  0  0
    6.2839  -18.8206   22.0479 O   0  0  0  0  0  0  0  0  0  0  0  0
    7.7689  -13.7077   24.7821 N   0  0  0  0  0  0  0  0  0  0  0  0
    6.4104  -13.5311   25.2264 C   0  0  0  0  0  0  0  0  0  0  0  0
    6.4949  -12.9197   26.6250 C   0  0  0  0  0  0  0  0  0  0  0  0
    7.9331  -12.4037   26.6885 C   0  0  0  0  0  0  0  0  0  0  0  0
    8.6339  -13.4813   25.8935 C   0  0  1  0  0  0  0  0  0  0  0  0
    8.7747  -14.6599   26.7874 C   0  0  0  0  0  0  0  0  0  0  0  0
    7.8136  -15.4131   27.0836 O   0  0  0  0  0  0  0  0  0  0  0  0
   11.6205  -16.8699   27.3386 C   0  0  0  0  0  0  0  0  0  0  0  0
   10.3709  -16.2756   27.8932 C   0  0  2  0  0  0  0  0  0  0  0  0
   10.0366  -14.9837   27.3527 N   0  0  0  0  0  0  0  0  0  0  0  0
   10.4459  -16.2805   29.3688 C   0  0  0  0  0  0  0  0  0  0  0  0
   10.2943  -15.1604   29.9430 O   0  0  0  0  0  0  0  0  0  0  0  0
   10.6632  -17.3843   30.1493 O   0  0  0  0  0  0  0  0  0  0  0  0
  2  1  1  6
  3  4  1  0
  3  2  1  0
  4  5  1  0
  5  9  1  0
  5  6  2  0
  7 10  1  0
  7  2  1  0
  8  7  2  0
 10 14  1  0
 11 12  1  0
 11 10  1  0
 12 13  1  0
 13 14  1  0
 14 15  1  1
 15 19  1  0
 15 16  2  0
 18 17  1  6
 18 20  1  0
 19 18  1  0
 20 22  1  0
 21 20  2  0
M  END
$$$$
