EPA.pdb
     RDKit          3D

 22 22  0  0  1  0  0  0  0  0999 V2000
    9.5259  -15.3989   14.6606 N   0  0  0  0  0  0  0  0  0  0  0  0
    8.6393  -15.1660   15.7755 C   0  0  1  0  0  0  0  0  0  0  0  0
    7.7869  -16.3851   15.9712 C   0  0  0  0  0  0  0  0  0  0  0  0
    8.5422  -17.6388   16.2803 C   0  0  0  0  0  0  0  0  0  0  0  0
    7.6957  -18.7898   16.5807 C   0  0  0  0  0  0  0  0  0  0  0  0
    7.7132  -19.3542   17.6807 O   0  0  0  0  0  0  0  0  0  0  0  0
    9.4069  -14.9613   17.0561 C   0  0  0  0  0  0  0  0  0  0  0  0
   10.6123  -15.3001   17.0277 O   0  0  0  0  0  0  0  0  0  0  0  0
    6.8390  -19.2753   15.6064 O   0  0  0  0  0  0  0  0  0  0  0  0
    8.8584  -14.4309   18.2320 N   0  0  0  0  0  0  0  0  0  0  0  0
    7.4598  -14.2201   18.5031 C   0  0  0  0  0  0  0  0  0  0  0  0
    7.3940  -13.3864   19.7828 C   0  0  0  0  0  0  0  0  0  0  0  0
    8.8129  -12.8291   19.9035 C   0  0  0  0  0  0  0  0  0  0  0  0
    9.6022  -14.0032   19.3715 C   0  0  1  0  0  0  0  0  0  0  0  0
    9.6618  -15.0157   20.4574 C   0  0  0  0  0  0  0  0  0  0  0  0
    8.7592  -15.8689   20.6479 O   0  0  0  0  0  0  0  0  0  0  0  0
   12.5962  -16.3687   22.3479 C   0  0  0  0  0  0  0  0  0  0  0  0
   11.1302  -16.1984   22.1385 C   0  0  2  0  0  0  0  0  0  0  0  0
   10.7727  -15.0541   21.3412 N   0  0  0  0  0  0  0  0  0  0  0  0
   10.4479  -16.2229   23.4489 C   0  0  0  0  0  0  0  0  0  0  0  0
    9.7338  -15.2137   23.7297 O   0  0  0  0  0  0  0  0  0  0  0  0
   10.5273  -17.2357   24.3668 O   0  0  0  0  0  0  0  0  0  0  0  0
  2  1  1  6
  3  4  1  0
  3  2  1  0
  4  5  1  0
  5  9  1  0
  5  6  2  0
  7 10  1  0
  7  2  1  0
  8  7  2  0
 10 14  1  0
 11 12  1  0
 11 10  1  0
 12 13  1  0
 13 14  1  0
 14 15  1  1
 15 19  1  0
 15 16  2  0
 18 17  1  1
 18 20  1  0
 19 18  1  0
 20 22  1  0
 21 20  2  0
M  END
$$$$
