EPA.pdb
     RDKit          3D

 22 22  0  0  1  0  0  0  0  0999 V2000
    8.6916  -17.2675   16.6655 N   0  0  0  0  0  0  0  0  0  0  0  0
    7.9312  -17.0612   17.8748 C   0  0  1  0  0  0  0  0  0  0  0  0
    7.4350  -18.3913   18.3602 C   0  0  0  0  0  0  0  0  0  0  0  0
    8.4610  -19.4798   18.3734 C   0  0  0  0  0  0  0  0  0  0  0  0
    7.9855  -20.7449   18.9258 C   0  0  0  0  0  0  0  0  0  0  0  0
    6.9171  -21.2593   18.5755 O   0  0  0  0  0  0  0  0  0  0  0  0
    8.7891  -16.4891   18.9738 C   0  0  0  0  0  0  0  0  0  0  0  0
   10.0262  -16.5763   18.7994 O   0  0  0  0  0  0  0  0  0  0  0  0
    8.7502  -21.4007   19.8767 O   0  0  0  0  0  0  0  0  0  0  0  0
    8.2888  -15.8876   20.1371 N   0  0  0  0  0  0  0  0  0  0  0  0
    6.9053  -15.8029   20.5279 C   0  0  0  0  0  0  0  0  0  0  0  0
    6.8546  -14.8363   21.7112 C   0  0  0  0  0  0  0  0  0  0  0  0
    8.1999  -14.1145   21.6236 C   0  0  0  0  0  0  0  0  0  0  0  0
    9.0751  -15.2482   21.1408 C   0  0  1  0  0  0  0  0  0  0  0  0
    9.3561  -16.1125   22.3165 C   0  0  0  0  0  0  0  0  0  0  0  0
    8.5679  -17.0076   22.7120 O   0  0  0  0  0  0  0  0  0  0  0  0
   12.6173  -16.9213   23.9968 C   0  0  0  0  0  0  0  0  0  0  0  0
   11.1306  -16.9673   23.8981 C   0  0  2  0  0  0  0  0  0  0  0  0
   10.5593  -15.9510   23.0532 N   0  0  0  0  0  0  0  0  0  0  0  0
   10.5550  -16.9751   25.2589 C   0  0  0  0  0  0  0  0  0  0  0  0
    9.7624  -16.0262   25.5394 O   0  0  0  0  0  0  0  0  0  0  0  0
   10.8089  -17.9133   26.2233 O   0  0  0  0  0  0  0  0  0  0  0  0
  2  1  1  6
  3  4  1  0
  3  2  1  0
  4  5  1  0
  5  9  1  0
  5  6  2  0
  7 10  1  0
  7  2  1  0
  8  7  2  0
 10 14  1  0
 11 12  1  0
 11 10  1  0
 12 13  1  0
 13 14  1  0
 14 15  1  1
 15 19  1  0
 15 16  2  0
 18 17  1  1
 18 20  1  0
 19 18  1  0
 20 22  1  0
 21 20  2  0
M  END
$$$$
