EPA.pdb
     RDKit          3D

 22 22  0  0  1  0  0  0  0  0999 V2000
    9.4731  -15.3403   14.6127 N   0  0  0  0  0  0  0  0  0  0  0  0
    8.6154  -15.2469   15.7698 C   0  0  1  0  0  0  0  0  0  0  0  0
    8.0088  -16.5951   16.0254 C   0  0  0  0  0  0  0  0  0  0  0  0
    8.9912  -17.7185   16.1289 C   0  0  0  0  0  0  0  0  0  0  0  0
    8.3866  -19.0211   16.3924 C   0  0  0  0  0  0  0  0  0  0  0  0
    7.1638  -19.1741   16.4930 O   0  0  0  0  0  0  0  0  0  0  0  0
    9.3960  -14.8794   17.0055 C   0  0  0  0  0  0  0  0  0  0  0  0
   10.6356  -15.0427   16.9343 O   0  0  0  0  0  0  0  0  0  0  0  0
    9.2020  -20.1314   16.5367 O   0  0  0  0  0  0  0  0  0  0  0  0
    8.8238  -14.3832   18.1851 N   0  0  0  0  0  0  0  0  0  0  0  0
    7.4177  -14.2181   18.4491 C   0  0  0  0  0  0  0  0  0  0  0  0
    7.3184  -13.4060   19.7404 C   0  0  0  0  0  0  0  0  0  0  0  0
    8.7192  -12.8086   19.8797 C   0  0  0  0  0  0  0  0  0  0  0  0
    9.5467  -13.9506   19.3361 C   0  0  1  0  0  0  0  0  0  0  0  0
    9.6291  -14.9771   20.4074 C   0  0  0  0  0  0  0  0  0  0  0  0
    8.7552  -15.8646   20.5736 O   0  0  0  0  0  0  0  0  0  0  0  0
   12.6579  -16.2410   22.1896 C   0  0  0  0  0  0  0  0  0  0  0  0
   11.1800  -16.1598   22.0127 C   0  0  2  0  0  0  0  0  0  0  0  0
   10.7297  -14.9898   21.3046 N   0  0  0  0  0  0  0  0  0  0  0  0
   10.5253  -16.3249   23.3269 C   0  0  0  0  0  0  0  0  0  0  0  0
    9.7435  -15.3938   23.6863 O   0  0  0  0  0  0  0  0  0  0  0  0
   10.6962  -17.3891   24.1713 O   0  0  0  0  0  0  0  0  0  0  0  0
  2  1  1  6
  3  4  1  0
  3  2  1  0
  4  5  1  0
  5  9  1  0
  5  6  2  0
  7 10  1  0
  7  2  1  0
  8  7  2  0
 10 14  1  0
 11 12  1  0
 11 10  1  0
 12 13  1  0
 13 14  1  0
 14 15  1  1
 15 19  1  0
 15 16  2  0
 18 17  1  1
 18 20  1  0
 19 18  1  0
 20 22  1  0
 21 20  2  0
M  END
$$$$
