EPA.pdb
     RDKit          3D

 22 22  0  0  1  0  0  0  0  0999 V2000
    8.3231  -15.2552   13.8074 N   0  0  0  0  0  0  0  0  0  0  0  0
    7.8723  -15.1713   15.1760 C   0  0  1  0  0  0  0  0  0  0  0  0
    7.4888  -16.5463   15.6381 C   0  0  0  0  0  0  0  0  0  0  0  0
    8.5657  -17.5767   15.5112 C   0  0  0  0  0  0  0  0  0  0  0  0
    8.1705  -18.9134   15.9458 C   0  0  0  0  0  0  0  0  0  0  0  0
    8.9829  -19.8383   16.0608 O   0  0  0  0  0  0  0  0  0  0  0  0
    8.9723  -14.6960   16.0900 C   0  0  0  0  0  0  0  0  0  0  0  0
   10.1299  -14.7343   15.6135 O   0  0  0  0  0  0  0  0  0  0  0  0
    6.8411  -19.1656   16.2423 O   0  0  0  0  0  0  0  0  0  0  0  0
    8.7704  -14.2313   17.3970 N   0  0  0  0  0  0  0  0  0  0  0  0
    7.5417  -14.2936   18.1457 C   0  0  0  0  0  0  0  0  0  0  0  0
    7.7554  -13.4300   19.3890 C   0  0  0  0  0  0  0  0  0  0  0  0
    8.9812  -12.5934   19.0202 C   0  0  0  0  0  0  0  0  0  0  0  0
    9.7593  -13.6086   18.2149 C   0  0  1  0  0  0  0  0  0  0  0  0
   10.3990  -14.5354   19.1844 C   0  0  0  0  0  0  0  0  0  0  0  0
    9.8136  -15.5411   19.6584 O   0  0  0  0  0  0  0  0  0  0  0  0
   14.0179  -15.0716   20.1285 C   0  0  0  0  0  0  0  0  0  0  0  0
   12.5514  -15.3047   20.2598 C   0  0  2  0  0  0  0  0  0  0  0  0
   11.7317  -14.3091   19.6196 N   0  0  0  0  0  0  0  0  0  0  0  0
   12.2172  -15.4949   21.6865 C   0  0  0  0  0  0  0  0  0  0  0  0
   11.3782  -14.6828   22.1803 O   0  0  0  0  0  0  0  0  0  0  0  0
   12.7365  -16.4650   22.5014 O   0  0  0  0  0  0  0  0  0  0  0  0
  2  1  1  6
  3  4  1  0
  3  2  1  0
  4  5  1  0
  5  9  1  0
  5  6  2  0
  7 10  1  0
  7  2  1  0
  8  7  2  0
 10 14  1  0
 11 12  1  0
 11 10  1  0
 12 13  1  0
 13 14  1  0
 14 15  1  1
 15 19  1  0
 15 16  2  0
 18 17  1  1
 18 20  1  0
 19 18  1  0
 20 22  1  0
 21 20  2  0
M  END
$$$$
