EPA.pdb
     RDKit          3D

 22 22  0  0  1  0  0  0  0  0999 V2000
   13.2591  -14.2723   17.9780 N   0  0  0  0  0  0  0  0  0  0  0  0
   11.9292  -14.8078   18.1451 C   0  0  1  0  0  0  0  0  0  0  0  0
   12.0243  -16.3019   18.2430 C   0  0  0  0  0  0  0  0  0  0  0  0
   11.2379  -17.0519   17.2150 C   0  0  0  0  0  0  0  0  0  0  0  0
   11.8251  -18.3311   16.8269 C   0  0  0  0  0  0  0  0  0  0  0  0
   12.0366  -19.2359   17.6426 O   0  0  0  0  0  0  0  0  0  0  0  0
   11.2989  -14.3267   19.4267 C   0  0  0  0  0  0  0  0  0  0  0  0
   12.0789  -14.1832   20.3960 O   0  0  0  0  0  0  0  0  0  0  0  0
   12.1611  -18.5496   15.5010 O   0  0  0  0  0  0  0  0  0  0  0  0
    9.9346  -14.0434   19.5805 N   0  0  0  0  0  0  0  0  0  0  0  0
    8.9089  -14.2138   18.5841 C   0  0  0  0  0  0  0  0  0  0  0  0
    7.6606  -13.5241   19.1344 C   0  0  0  0  0  0  0  0  0  0  0  0
    8.2200  -12.6375   20.2478 C   0  0  0  0  0  0  0  0  0  0  0  0
    9.3253  -13.5302   20.7637 C   0  0  1  0  0  0  0  0  0  0  0  0
    8.6848  -14.5748   21.6042 C   0  0  0  0  0  0  0  0  0  0  0  0
    8.1089  -15.5826   21.1228 O   0  0  0  0  0  0  0  0  0  0  0  0
    9.1232  -15.2043   25.3319 C   0  0  0  0  0  0  0  0  0  0  0  0
    8.8683  -15.5833   23.9129 C   0  0  2  0  0  0  0  0  0  0  0  0
    8.7028  -14.4660   23.0200 N   0  0  0  0  0  0  0  0  0  0  0  0
    7.7383  -16.5338   23.8612 C   0  0  0  0  0  0  0  0  0  0  0  0
    7.8873  -17.6193   24.4992 O   0  0  0  0  0  0  0  0  0  0  0  0
    6.5628  -16.3344   23.1880 O   0  0  0  0  0  0  0  0  0  0  0  0
  2  1  1  1
  3  4  1  0
  3  2  1  0
  4  5  1  0
  5  9  1  0
  5  6  2  0
  7 10  1  0
  7  2  1  0
  8  7  2  0
 10 14  1  0
 11 12  1  0
 11 10  1  0
 12 13  1  0
 13 14  1  0
 14 15  1  1
 15 19  1  0
 15 16  2  0
 18 17  1  1
 18 20  1  0
 19 18  1  0
 20 22  1  0
 21 20  2  0
M  END
$$$$
