EPA.pdb
     RDKit          3D

 22 22  0  0  1  0  0  0  0  0999 V2000
    9.1774  -15.9941   15.2980 N   0  0  0  0  0  0  0  0  0  0  0  0
    8.3787  -15.5972   16.4327 C   0  0  1  0  0  0  0  0  0  0  0  0
    7.5860  -16.7832   16.8977 C   0  0  0  0  0  0  0  0  0  0  0  0
    7.4514  -17.8837   15.8935 C   0  0  0  0  0  0  0  0  0  0  0  0
    7.5762  -19.2258   16.4549 C   0  0  0  0  0  0  0  0  0  0  0  0
    8.6091  -19.8961   16.3419 O   0  0  0  0  0  0  0  0  0  0  0  0
    9.2423  -15.1695   17.5914 C   0  0  0  0  0  0  0  0  0  0  0  0
   10.4593  -15.4491   17.4949 O   0  0  0  0  0  0  0  0  0  0  0  0
    6.5062  -19.7775   17.1400 O   0  0  0  0  0  0  0  0  0  0  0  0
    8.7678  -14.4999   18.7279 N   0  0  0  0  0  0  0  0  0  0  0  0
    7.3971  -14.1587   19.0084 C   0  0  0  0  0  0  0  0  0  0  0  0
    7.4296  -13.2167   20.2120 C   0  0  0  0  0  0  0  0  0  0  0  0
    8.8895  -12.7632   20.2545 C   0  0  0  0  0  0  0  0  0  0  0  0
    9.5727  -14.0361   19.8102 C   0  0  1  0  0  0  0  0  0  0  0  0
    9.5851  -14.9543   20.9785 C   0  0  0  0  0  0  0  0  0  0  0  0
    8.5776  -15.6099   21.3445 O   0  0  0  0  0  0  0  0  0  0  0  0
   12.4466  -16.5508   22.8499 C   0  0  0  0  0  0  0  0  0  0  0  0
   11.0064  -16.2390   22.6249 C   0  0  2  0  0  0  0  0  0  0  0  0
   10.7700  -15.1265   21.7420 N   0  0  0  0  0  0  0  0  0  0  0  0
   10.3333  -16.0900   23.9318 C   0  0  0  0  0  0  0  0  0  0  0  0
   10.4970  -17.0363   24.7594 O   0  0  0  0  0  0  0  0  0  0  0  0
    9.5596  -15.0255   24.3098 O   0  0  0  0  0  0  0  0  0  0  0  0
  2  1  1  6
  3  4  1  0
  3  2  1  0
  4  5  1  0
  5  9  1  0
  5  6  2  0
  7 10  1  0
  7  2  1  0
  8  7  2  0
 10 14  1  0
 11 12  1  0
 11 10  1  0
 12 13  1  0
 13 14  1  0
 14 15  1  1
 15 19  1  0
 15 16  2  0
 18 17  1  1
 18 20  1  0
 19 18  1  0
 20 22  1  0
 21 20  2  0
M  END
$$$$
