EPA.pdb
     RDKit          3D

 22 22  0  0  1  0  0  0  0  0999 V2000
    8.0918  -14.5111   21.1758 N   0  0  0  0  0  0  0  0  0  0  0  0
    7.3794  -14.5451   22.4306 C   0  0  1  0  0  0  0  0  0  0  0  0
    6.8859  -15.9429   22.6624 C   0  0  0  0  0  0  0  0  0  0  0  0
    6.2637  -16.5971   21.4697 C   0  0  0  0  0  0  0  0  0  0  0  0
    5.9150  -18.0008   21.6699 C   0  0  0  0  0  0  0  0  0  0  0  0
    6.0166  -18.5568   22.7696 O   0  0  0  0  0  0  0  0  0  0  0  0
    8.2843  -14.2055   23.5869 C   0  0  0  0  0  0  0  0  0  0  0  0
    9.5122  -14.3177   23.3677 O   0  0  0  0  0  0  0  0  0  0  0  0
    5.4530  -18.7453   20.5971 O   0  0  0  0  0  0  0  0  0  0  0  0
    7.8355  -13.7867   24.8472 N   0  0  0  0  0  0  0  0  0  0  0  0
    6.4637  -13.6513   25.2641 C   0  0  0  0  0  0  0  0  0  0  0  0
    6.4957  -12.9194   26.6058 C   0  0  0  0  0  0  0  0  0  0  0  0
    7.9014  -12.3181   26.6362 C   0  0  0  0  0  0  0  0  0  0  0  0
    8.6721  -13.4174   25.9418 C   0  0  1  0  0  0  0  0  0  0  0  0
    8.8681  -14.5056   26.9344 C   0  0  0  0  0  0  0  0  0  0  0  0
    7.9235  -15.2049   27.3790 O   0  0  0  0  0  0  0  0  0  0  0  0
   11.8570  -16.5818   27.6183 C   0  0  0  0  0  0  0  0  0  0  0  0
   10.5315  -16.0491   28.0443 C   0  0  2  0  0  0  0  0  0  0  0  0
   10.1669  -14.8003   27.4276 N   0  0  0  0  0  0  0  0  0  0  0  0
   10.4817  -15.9986   29.5202 C   0  0  0  0  0  0  0  0  0  0  0  0
   10.7523  -17.0772   30.1289 O   0  0  0  0  0  0  0  0  0  0  0  0
   10.1706  -14.8939   30.2669 O   0  0  0  0  0  0  0  0  0  0  0  0
  2  1  1  6
  3  4  1  0
  3  2  1  0
  4  5  1  0
  5  9  1  0
  5  6  2  0
  7 10  1  0
  7  2  1  0
  8  7  2  0
 10 14  1  0
 11 12  1  0
 11 10  1  0
 12 13  1  0
 13 14  1  0
 14 15  1  1
 15 19  1  0
 15 16  2  0
 18 17  1  1
 18 20  1  0
 19 18  1  0
 20 22  1  0
 21 20  2  0
M  END
$$$$
