EPA.pdb
     RDKit          3D

 22 22  0  0  1  0  0  0  0  0999 V2000
    7.6812  -15.5060   21.5154 N   0  0  0  0  0  0  0  0  0  0  0  0
    7.0783  -15.3112   22.8122 C   0  0  1  0  0  0  0  0  0  0  0  0
    6.6462  -16.6460   23.3439 C   0  0  0  0  0  0  0  0  0  0  0  0
    5.7662  -17.4345   22.4266 C   0  0  0  0  0  0  0  0  0  0  0  0
    5.7943  -18.8754   22.6608 C   0  0  0  0  0  0  0  0  0  0  0  0
    6.2078  -19.3653   23.7181 O   0  0  0  0  0  0  0  0  0  0  0  0
    8.0673  -14.7484   23.8003 C   0  0  0  0  0  0  0  0  0  0  0  0
    9.2753  -14.8932   23.5032 O   0  0  0  0  0  0  0  0  0  0  0  0
    5.3444  -19.7332   21.6707 O   0  0  0  0  0  0  0  0  0  0  0  0
    7.7143  -14.0962   24.9899 N   0  0  0  0  0  0  0  0  0  0  0  0
    6.3772  -13.8471   25.4634 C   0  0  0  0  0  0  0  0  0  0  0  0
    6.5149  -12.8868   26.6449 C   0  0  0  0  0  0  0  0  0  0  0  0
    7.9298  -12.3321   26.4742 C   0  0  0  0  0  0  0  0  0  0  0  0
    8.6311  -13.5609   25.9426 C   0  0  1  0  0  0  0  0  0  0  0  0
    8.8761  -14.4580   27.1016 C   0  0  0  0  0  0  0  0  0  0  0  0
    7.9580  -15.0820   27.6902 O   0  0  0  0  0  0  0  0  0  0  0  0
   12.0550  -16.2353   27.8722 C   0  0  0  0  0  0  0  0  0  0  0  0
   10.6560  -15.8572   28.2218 C   0  0  2  0  0  0  0  0  0  0  0  0
   10.1939  -14.6455   27.5965 N   0  0  0  0  0  0  0  0  0  0  0  0
   10.5132  -15.8369   29.6924 C   0  0  0  0  0  0  0  0  0  0  0  0
   10.1450  -14.7378   30.2061 O   0  0  0  0  0  0  0  0  0  0  0  0
   10.7446  -16.8969   30.5275 O   0  0  0  0  0  0  0  0  0  0  0  0
  2  1  1  6
  3  4  1  0
  3  2  1  0
  4  5  1  0
  5  9  1  0
  5  6  2  0
  7 10  1  0
  7  2  1  0
  8  7  2  0
 10 14  1  0
 11 12  1  0
 11 10  1  0
 12 13  1  0
 13 14  1  0
 14 15  1  1
 15 19  1  0
 15 16  2  0
 18 17  1  1
 18 20  1  0
 19 18  1  0
 20 22  1  0
 21 20  2  0
M  END
$$$$
