EPA.pdb
     RDKit          3D

 22 22  0  0  1  0  0  0  0  0999 V2000
    9.3282  -15.5390   20.9687 N   0  0  0  0  0  0  0  0  0  0  0  0
    8.4187  -15.5891   22.0883 C   0  0  1  0  0  0  0  0  0  0  0  0
    8.2799  -17.0168   22.5279 C   0  0  0  0  0  0  0  0  0  0  0  0
    8.1052  -18.0037   21.4174 C   0  0  0  0  0  0  0  0  0  0  0  0
    8.6164  -19.3384   21.7159 C   0  0  0  0  0  0  0  0  0  0  0  0
    7.9921  -20.1441   22.4158 O   0  0  0  0  0  0  0  0  0  0  0  0
    8.9551  -14.8204   23.2683 C   0  0  0  0  0  0  0  0  0  0  0  0
   10.1928  -14.6288   23.2755 O   0  0  0  0  0  0  0  0  0  0  0  0
    9.8429  -19.7263   21.2022 O   0  0  0  0  0  0  0  0  0  0  0  0
    8.1665  -14.3287   24.3179 N   0  0  0  0  0  0  0  0  0  0  0  0
    6.7346  -14.4317   24.4314 C   0  0  0  0  0  0  0  0  0  0  0  0
    6.3321  -13.5226   25.5927 C   0  0  0  0  0  0  0  0  0  0  0  0
    7.5641  -12.6357   25.7782 C   0  0  0  0  0  0  0  0  0  0  0  0
    8.6552  -13.6331   25.4632 C   0  0  1  0  0  0  0  0  0  0  0  0
    8.8140  -14.4976   26.6614 C   0  0  0  0  0  0  0  0  0  0  0  0
    8.2442  -15.6109   26.7825 O   0  0  0  0  0  0  0  0  0  0  0  0
   11.4920  -14.2284   29.3562 C   0  0  0  0  0  0  0  0  0  0  0  0
   10.5900  -14.9359   28.4034 C   0  0  2  0  0  0  0  0  0  0  0  0
    9.6389  -14.0824   27.7402 N   0  0  0  0  0  0  0  0  0  0  0  0
    9.9554  -16.0774   29.0943 C   0  0  0  0  0  0  0  0  0  0  0  0
    8.7020  -16.0021   29.2695 O   0  0  0  0  0  0  0  0  0  0  0  0
   10.6075  -17.1911   29.5518 O   0  0  0  0  0  0  0  0  0  0  0  0
  2  1  1  6
  3  4  1  0
  3  2  1  0
  4  5  1  0
  5  9  1  0
  5  6  2  0
  7 10  1  0
  7  2  1  0
  8  7  2  0
 10 14  1  0
 11 12  1  0
 11 10  1  0
 12 13  1  0
 13 14  1  0
 14 15  1  1
 15 19  1  0
 15 16  2  0
 18 17  1  1
 18 20  1  0
 19 18  1  0
 20 22  1  0
 21 20  2  0
M  END
$$$$
