EPA.pdb
     RDKit          3D

 22 22  0  0  1  0  0  0  0  0999 V2000
    8.4642  -15.4832   14.3908 N   0  0  0  0  0  0  0  0  0  0  0  0
    8.0292  -15.2976   15.7544 C   0  0  1  0  0  0  0  0  0  0  0  0
    7.6705  -16.6367   16.3282 C   0  0  0  0  0  0  0  0  0  0  0  0
    8.7648  -17.6555   16.2819 C   0  0  0  0  0  0  0  0  0  0  0  0
    8.4437  -18.9110   16.9546 C   0  0  0  0  0  0  0  0  0  0  0  0
    9.3118  -19.7339   17.2679 O   0  0  0  0  0  0  0  0  0  0  0  0
    9.1337  -14.7377   16.6134 C   0  0  0  0  0  0  0  0  0  0  0  0
   10.2723  -14.7201   16.0920 O   0  0  0  0  0  0  0  0  0  0  0  0
    7.1235  -19.2008   17.2572 O   0  0  0  0  0  0  0  0  0  0  0  0
    8.9553  -14.2546   17.9172 N   0  0  0  0  0  0  0  0  0  0  0  0
    7.7338  -14.2835   18.6794 C   0  0  0  0  0  0  0  0  0  0  0  0
    7.9783  -13.4109   19.9106 C   0  0  0  0  0  0  0  0  0  0  0  0
    9.2169  -12.6036   19.5195 C   0  0  0  0  0  0  0  0  0  0  0  0
    9.9654  -13.6434   18.7176 C   0  0  1  0  0  0  0  0  0  0  0  0
   10.5966  -14.5723   19.6906 C   0  0  0  0  0  0  0  0  0  0  0  0
    9.9713  -15.5099   20.2464 O   0  0  0  0  0  0  0  0  0  0  0  0
   14.2403  -15.3279   20.3293 C   0  0  0  0  0  0  0  0  0  0  0  0
   12.7788  -15.4857   20.5765 C   0  0  2  0  0  0  0  0  0  0  0  0
   11.9668  -14.4275   20.0344 N   0  0  0  0  0  0  0  0  0  0  0  0
   12.5526  -15.7029   22.0204 C   0  0  0  0  0  0  0  0  0  0  0  0
   13.2264  -16.6305   22.5615 O   0  0  0  0  0  0  0  0  0  0  0  0
   11.6852  -14.9904   22.8044 O   0  0  0  0  0  0  0  0  0  0  0  0
  2  1  1  6
  3  4  1  0
  3  2  1  0
  4  5  1  0
  5  9  1  0
  5  6  2  0
  7 10  1  0
  7  2  1  0
  8  7  2  0
 10 14  1  0
 11 12  1  0
 11 10  1  0
 12 13  1  0
 13 14  1  0
 14 15  1  1
 15 19  1  0
 15 16  2  0
 18 17  1  1
 18 20  1  0
 19 18  1  0
 20 22  1  0
 21 20  2  0
M  END
$$$$
