EPA.pdb
     RDKit          3D

 22 22  0  0  1  0  0  0  0  0999 V2000
    8.9193  -15.0305   20.8787 N   0  0  0  0  0  0  0  0  0  0  0  0
    7.9954  -15.1162   21.9842 C   0  0  1  0  0  0  0  0  0  0  0  0
    7.6984  -16.5630   22.2480 C   0  0  0  0  0  0  0  0  0  0  0  0
    8.8942  -17.4617   22.2481 C   0  0  0  0  0  0  0  0  0  0  0  0
    8.6007  -18.8498   22.5925 C   0  0  0  0  0  0  0  0  0  0  0  0
    8.0911  -19.6373   21.7869 O   0  0  0  0  0  0  0  0  0  0  0  0
    8.5961  -14.5576   23.2485 C   0  0  0  0  0  0  0  0  0  0  0  0
    9.8471  -14.5080   23.2804 O   0  0  0  0  0  0  0  0  0  0  0  0
    8.8993  -19.3117   23.8638 O   0  0  0  0  0  0  0  0  0  0  0  0
    7.8513  -14.1084   24.3479 N   0  0  0  0  0  0  0  0  0  0  0  0
    6.4189  -14.1591   24.4876 C   0  0  0  0  0  0  0  0  0  0  0  0
    6.0801  -13.3180   25.7184 C   0  0  0  0  0  0  0  0  0  0  0  0
    7.3529  -12.4986   25.9360 C   0  0  0  0  0  0  0  0  0  0  0  0
    8.3931  -13.5161   25.5269 C   0  0  1  0  0  0  0  0  0  0  0  0
    8.5389  -14.4686   26.6581 C   0  0  0  0  0  0  0  0  0  0  0  0
    8.1532  -15.6630   26.6012 O   0  0  0  0  0  0  0  0  0  0  0  0
   10.7937  -14.0025   29.6977 C   0  0  0  0  0  0  0  0  0  0  0  0
   10.2881  -14.6777   28.4686 C   0  0  2  0  0  0  0  0  0  0  0  0
    9.1365  -14.0486   27.8760 N   0  0  0  0  0  0  0  0  0  0  0  0
   10.0767  -16.1115   28.7560 C   0  0  0  0  0  0  0  0  0  0  0  0
   11.0702  -16.7428   29.2268 O   0  0  0  0  0  0  0  0  0  0  0  0
    8.9090  -16.7980   28.5557 O   0  0  0  0  0  0  0  0  0  0  0  0
  2  1  1  6
  3  4  1  0
  3  2  1  0
  4  5  1  0
  5  9  1  0
  5  6  2  0
  7 10  1  0
  7  2  1  0
  8  7  2  0
 10 14  1  0
 11 12  1  0
 11 10  1  0
 12 13  1  0
 13 14  1  0
 14 15  1  1
 15 19  1  0
 15 16  2  0
 18 17  1  1
 18 20  1  0
 19 18  1  0
 20 22  1  0
 21 20  2  0
M  END
$$$$
