GDG.pdb
     RDKit          3D

 17 16  0  0  1  0  0  0  0  0999 V2000
    7.3197  -19.8297   19.1858 N   0  0  0  0  0  0  0  0  0  0  0  0
    7.1783  -18.5922   19.9206 C   0  0  0  0  0  0  0  0  0  0  0  0
    8.4325  -18.3155   20.6630 C   0  0  0  0  0  0  0  0  0  0  0  0
    9.1237  -19.2252   21.1853 O   0  0  0  0  0  0  0  0  0  0  0  0
    8.8967  -16.9813   20.8065 N   0  0  0  0  0  0  0  0  0  0  0  0
   10.0179  -16.6871   21.6524 C   0  0  1  0  0  0  0  0  0  0  0  0
   10.5968  -15.3367   21.3592 C   0  0  0  0  0  0  0  0  0  0  0  0
   11.0227  -15.1548   19.9536 C   0  0  0  0  0  0  0  0  0  0  0  0
   11.8955  -15.8747   19.4057 O   0  0  0  0  0  0  0  0  0  0  0  0
    9.7005  -16.8702   23.0908 C   0  0  0  0  0  0  0  0  0  0  0  0
    9.0885  -15.9414   23.6980 O   0  0  0  0  0  0  0  0  0  0  0  0
   10.4603  -14.1593   19.1739 O   0  0  0  0  0  0  0  0  0  0  0  0
   10.0526  -18.0360   23.8092 N   0  0  0  0  0  0  0  0  0  0  0  0
   11.3993  -18.2637   24.2626 C   0  0  0  0  0  0  0  0  0  0  0  0
   11.5123  -18.0950   25.7406 C   0  0  0  0  0  0  0  0  0  0  0  0
   11.1287  -19.1509   26.5474 O   0  0  0  0  0  0  0  0  0  0  0  0
   11.9407  -17.0323   26.2503 O   0  0  0  0  0  0  0  0  0  0  0  0
  2  1  1  0
  3  2  1  0
  4  3  2  0
  5  3  1  0
  6 10  1  0
  6  5  1  0
  7  8  1  0
  6  7  1  1
  8  9  2  0
 10 13  1  0
 11 10  2  0
 12  8  1  0
 13 14  1  0
 14 15  1  0
 15 17  2  0
 15 16  1  0
M  END
$$$$
