GDG.pdb
     RDKit          3D

 17 16  0  0  1  0  0  0  0  0999 V2000
    7.0565  -15.8981   20.3524 N   0  0  0  0  0  0  0  0  0  0  0  0
    8.3241  -15.3006   20.7098 C   0  0  0  0  0  0  0  0  0  0  0  0
    9.1123  -16.2652   21.5154 C   0  0  0  0  0  0  0  0  0  0  0  0
    8.6340  -17.3509   21.9283 O   0  0  0  0  0  0  0  0  0  0  0  0
   10.4625  -15.9796   21.8494 N   0  0  0  0  0  0  0  0  0  0  0  0
   11.2492  -16.9318   22.5799 C   0  0  1  0  0  0  0  0  0  0  0  0
   12.6221  -17.0816   21.9990 C   0  0  0  0  0  0  0  0  0  0  0  0
   12.6441  -17.6976   20.6535 C   0  0  0  0  0  0  0  0  0  0  0  0
   12.6983  -17.0230   19.5941 O   0  0  0  0  0  0  0  0  0  0  0  0
   11.2757  -16.6408   24.0353 C   0  0  0  0  0  0  0  0  0  0  0  0
   11.3867  -15.4350   24.4090 O   0  0  0  0  0  0  0  0  0  0  0  0
   12.6042  -19.0737   20.5118 O   0  0  0  0  0  0  0  0  0  0  0  0
   11.1825  -17.6521   25.0190 N   0  0  0  0  0  0  0  0  0  0  0  0
   11.2060  -17.3411   26.4239 C   0  0  0  0  0  0  0  0  0  0  0  0
   11.1660  -18.5783   27.2565 C   0  0  0  0  0  0  0  0  0  0  0  0
   11.4305  -18.4614   28.6091 O   0  0  0  0  0  0  0  0  0  0  0  0
   10.9018  -19.6982   26.7579 O   0  0  0  0  0  0  0  0  0  0  0  0
  2  1  1  0
  3  2  1  0
  4  3  2  0
  5  3  1  0
  6 10  1  0
  6  5  1  0
  7  8  1  0
  6  7  1  6
  8  9  2  0
 10 13  1  0
 11 10  2  0
 12  8  1  0
 13 14  1  0
 14 15  1  0
 15 17  2  0
 15 16  1  0
M  END
$$$$
