GDG.pdb
     RDKit          3D

 17 16  0  0  1  0  0  0  0  0999 V2000
    6.6263  -13.3131   19.5092 N   0  0  0  0  0  0  0  0  0  0  0  0
    7.9719  -13.7156   19.1645 C   0  0  0  0  0  0  0  0  0  0  0  0
    8.4298  -14.7616   20.1116 C   0  0  0  0  0  0  0  0  0  0  0  0
    7.7639  -15.0964   21.1228 O   0  0  0  0  0  0  0  0  0  0  0  0
    9.6641  -15.4292   19.8946 N   0  0  0  0  0  0  0  0  0  0  0  0
   10.0666  -16.5113   20.7467 C   0  0  1  0  0  0  0  0  0  0  0  0
   11.0923  -17.3842   20.0905 C   0  0  0  0  0  0  0  0  0  0  0  0
   10.6285  -18.0245   18.8393 C   0  0  0  0  0  0  0  0  0  0  0  0
    9.6799  -18.8487   18.8048 O   0  0  0  0  0  0  0  0  0  0  0  0
   10.4937  -16.0415   22.0885 C   0  0  0  0  0  0  0  0  0  0  0  0
   11.4050  -15.1638   22.1602 O   0  0  0  0  0  0  0  0  0  0  0  0
   11.2397  -17.7305   17.6331 O   0  0  0  0  0  0  0  0  0  0  0  0
    9.9262  -16.5325   23.2869 N   0  0  0  0  0  0  0  0  0  0  0  0
   10.2509  -15.9571   24.5654 C   0  0  0  0  0  0  0  0  0  0  0  0
   10.7544  -16.9908   25.5159 C   0  0  0  0  0  0  0  0  0  0  0  0
   11.0661  -16.5939   26.8038 O   0  0  0  0  0  0  0  0  0  0  0  0
   10.8958  -18.1881   25.1710 O   0  0  0  0  0  0  0  0  0  0  0  0
  2  1  1  0
  3  2  1  0
  4  3  2  0
  5  3  1  0
  6 10  1  0
  6  5  1  0
  7  8  1  0
  6  7  1  6
  8  9  2  0
 10 13  1  0
 11 10  2  0
 12  8  1  0
 13 14  1  0
 14 15  1  0
 15 17  2  0
 15 16  1  0
M  END
$$$$
