GDG.pdb
     RDKit          3D

 17 16  0  0  1  0  0  0  0  0999 V2000
    8.5768  -13.6464   17.9211 N   0  0  0  0  0  0  0  0  0  0  0  0
    9.8040  -13.1605   18.5121 C   0  0  0  0  0  0  0  0  0  0  0  0
   10.7970  -14.2617   18.5583 C   0  0  0  0  0  0  0  0  0  0  0  0
   10.5934  -15.3785   18.0205 O   0  0  0  0  0  0  0  0  0  0  0  0
   12.0351  -14.0778   19.2286 N   0  0  0  0  0  0  0  0  0  0  0  0
   12.9681  -15.1618   19.3457 C   0  0  1  0  0  0  0  0  0  0  0  0
   14.3823  -14.7002   19.1684 C   0  0  0  0  0  0  0  0  0  0  0  0
   14.7254  -14.3265   17.7781 C   0  0  0  0  0  0  0  0  0  0  0  0
   15.3296  -13.2635   17.4858 O   0  0  0  0  0  0  0  0  0  0  0  0
   12.7751  -15.9372   20.5967 C   0  0  0  0  0  0  0  0  0  0  0  0
   13.3083  -17.0833   20.6862 O   0  0  0  0  0  0  0  0  0  0  0  0
   14.3832  -15.1559   16.7244 O   0  0  0  0  0  0  0  0  0  0  0  0
   12.0220  -15.4500   21.6898 N   0  0  0  0  0  0  0  0  0  0  0  0
   11.8906  -16.2026   22.9093 C   0  0  0  0  0  0  0  0  0  0  0  0
   13.1042  -16.0675   23.7663 C   0  0  0  0  0  0  0  0  0  0  0  0
   13.1019  -16.6911   25.0009 O   0  0  0  0  0  0  0  0  0  0  0  0
   14.1045  -15.4108   23.3909 O   0  0  0  0  0  0  0  0  0  0  0  0
  2  1  1  0
  3  2  1  0
  4  3  2  0
  5  3  1  0
  6 10  1  0
  6  5  1  0
  7  8  1  0
  6  7  1  1
  8  9  2  0
 10 13  1  0
 11 10  2  0
 12  8  1  0
 13 14  1  0
 14 15  1  0
 15 17  2  0
 15 16  1  0
M  END
$$$$
