GDG.pdb
     RDKit          3D

 17 16  0  0  1  0  0  0  0  0999 V2000
    5.2069  -21.0516   22.3591 N   0  0  0  0  0  0  0  0  0  0  0  0
    4.8482  -19.6512   22.3177 C   0  0  0  0  0  0  0  0  0  0  0  0
    5.9651  -18.8414   22.8631 C   0  0  0  0  0  0  0  0  0  0  0  0
    7.0678  -19.3453   23.1920 O   0  0  0  0  0  0  0  0  0  0  0  0
    5.8134  -17.4398   23.0322 N   0  0  0  0  0  0  0  0  0  0  0  0
    6.8638  -16.6593   23.6211 C   0  0  1  0  0  0  0  0  0  0  0  0
    6.8064  -15.2280   23.1821 C   0  0  0  0  0  0  0  0  0  0  0  0
    6.9265  -15.0403   21.7189 C   0  0  0  0  0  0  0  0  0  0  0  0
    7.9839  -15.2824   21.0837 O   0  0  0  0  0  0  0  0  0  0  0  0
    6.9086  -16.8002   25.0981 C   0  0  0  0  0  0  0  0  0  0  0  0
    5.8886  -16.4609   25.7692 O   0  0  0  0  0  0  0  0  0  0  0  0
    5.8506  -14.5789   20.9808 O   0  0  0  0  0  0  0  0  0  0  0  0
    8.0407  -17.2961   25.7849 N   0  0  0  0  0  0  0  0  0  0  0  0
    8.0280  -17.5009   27.2093 C   0  0  0  0  0  0  0  0  0  0  0  0
    9.3357  -18.0293   27.6954 C   0  0  0  0  0  0  0  0  0  0  0  0
    9.4424  -18.3744   29.0306 O   0  0  0  0  0  0  0  0  0  0  0  0
   10.3179  -18.1619   26.9271 O   0  0  0  0  0  0  0  0  0  0  0  0
  2  1  1  0
  3  2  1  0
  4  3  2  0
  5  3  1  0
  6 10  1  0
  6  5  1  0
  7  8  1  0
  6  7  1  1
  8  9  2  0
 10 13  1  0
 11 10  2  0
 12  8  1  0
 13 14  1  0
 14 15  1  0
 15 17  2  0
 15 16  1  0
M  END
$$$$
