GDG.pdb
     RDKit          3D

 17 16  0  0  1  0  0  0  0  0999 V2000
    7.4357  -16.4467   17.5331 N   0  0  0  0  0  0  0  0  0  0  0  0
    7.8440  -17.6944   18.1398 C   0  0  0  0  0  0  0  0  0  0  0  0
    7.0964  -17.8932   19.4056 C   0  0  0  0  0  0  0  0  0  0  0  0
    6.4032  -16.9868   19.9309 O   0  0  0  0  0  0  0  0  0  0  0  0
    7.1457  -19.1451   20.0739 N   0  0  0  0  0  0  0  0  0  0  0  0
    6.4718  -19.3287   21.3274 C   0  0  1  0  0  0  0  0  0  0  0  0
    5.7821  -20.6568   21.3989 C   0  0  0  0  0  0  0  0  0  0  0  0
    5.1328  -20.9304   22.7004 C   0  0  0  0  0  0  0  0  0  0  0  0
    4.2506  -20.1833   23.1941 O   0  0  0  0  0  0  0  0  0  0  0  0
    7.3665  -19.0888   22.4873 C   0  0  0  0  0  0  0  0  0  0  0  0
    8.5301  -19.5904   22.4674 O   0  0  0  0  0  0  0  0  0  0  0  0
    5.4844  -22.0473   23.4381 O   0  0  0  0  0  0  0  0  0  0  0  0
    6.9738  -18.3253   23.6108 N   0  0  0  0  0  0  0  0  0  0  0  0
    7.9092  -17.9720   24.6458 C   0  0  0  0  0  0  0  0  0  0  0  0
    7.6340  -18.7195   25.9071 C   0  0  0  0  0  0  0  0  0  0  0  0
    8.2560  -18.2918   27.0661 O   0  0  0  0  0  0  0  0  0  0  0  0
    6.8634  -19.7086   25.9305 O   0  0  0  0  0  0  0  0  0  0  0  0
  2  1  1  0
  3  2  1  0
  4  3  2  0
  5  3  1  0
  6 10  1  0
  6  5  1  0
  7  8  1  0
  6  7  1  6
  8  9  2  0
 10 13  1  0
 11 10  2  0
 12  8  1  0
 13 14  1  0
 14 15  1  0
 15 17  2  0
 15 16  1  0
M  END
$$$$
