GDG.pdb
     RDKit          3D

 17 16  0  0  1  0  0  0  0  0999 V2000
    6.5153  -13.2437   19.5029 N   0  0  0  0  0  0  0  0  0  0  0  0
    7.5817  -13.7386   18.6606 C   0  0  0  0  0  0  0  0  0  0  0  0
    8.3529  -14.7689   19.3985 C   0  0  0  0  0  0  0  0  0  0  0  0
    8.1742  -15.0012   20.6200 O   0  0  0  0  0  0  0  0  0  0  0  0
    9.3384  -15.5392   18.7266 N   0  0  0  0  0  0  0  0  0  0  0  0
   10.0733  -16.5531   19.4275 C   0  0  1  0  0  0  0  0  0  0  0  0
   10.7553  -17.4974   18.4853 C   0  0  0  0  0  0  0  0  0  0  0  0
    9.8320  -18.2239   17.5852 C   0  0  0  0  0  0  0  0  0  0  0  0
    9.7447  -17.9803   16.3551 O   0  0  0  0  0  0  0  0  0  0  0  0
   11.0040  -15.9800   20.4319 C   0  0  0  0  0  0  0  0  0  0  0  0
   11.6778  -14.9543   20.1160 O   0  0  0  0  0  0  0  0  0  0  0  0
    9.0110  -19.2219   18.0803 O   0  0  0  0  0  0  0  0  0  0  0  0
   11.1688  -16.5311   21.7236 N   0  0  0  0  0  0  0  0  0  0  0  0
   11.9763  -15.8818   22.7223 C   0  0  0  0  0  0  0  0  0  0  0  0
   12.0106  -16.6674   23.9901 C   0  0  0  0  0  0  0  0  0  0  0  0
   12.8906  -16.2679   24.9796 O   0  0  0  0  0  0  0  0  0  0  0  0
   11.2689  -17.6630   24.1671 O   0  0  0  0  0  0  0  0  0  0  0  0
  2  1  1  0
  3  2  1  0
  4  3  2  0
  5  3  1  0
  6 10  1  0
  6  5  1  0
  7  8  1  0
  6  7  1  6
  8  9  2  0
 10 13  1  0
 11 10  2  0
 12  8  1  0
 13 14  1  0
 14 15  1  0
 15 17  2  0
 15 16  1  0
M  END
$$$$
