GDG.pdb
     RDKit          3D

 17 16  0  0  1  0  0  0  0  0999 V2000
    7.0718  -12.8941   19.5796 N   0  0  0  0  0  0  0  0  0  0  0  0
    7.9180  -13.0013   18.4117 C   0  0  0  0  0  0  0  0  0  0  0  0
    8.3210  -14.4168   18.2251 C   0  0  0  0  0  0  0  0  0  0  0  0
    7.9761  -15.3281   19.0180 O   0  0  0  0  0  0  0  0  0  0  0  0
    9.1276  -14.7884   17.1173 N   0  0  0  0  0  0  0  0  0  0  0  0
    9.5756  -16.1431   16.9643 C   0  0  1  0  0  0  0  0  0  0  0  0
    9.9247  -16.4563   15.5414 C   0  0  0  0  0  0  0  0  0  0  0  0
    8.8139  -16.2440   14.5867 C   0  0  0  0  0  0  0  0  0  0  0  0
    7.7221  -16.8626   14.6605 O   0  0  0  0  0  0  0  0  0  0  0  0
   10.6706  -16.4831   17.9070 C   0  0  0  0  0  0  0  0  0  0  0  0
   11.6907  -15.7322   17.9452 O   0  0  0  0  0  0  0  0  0  0  0  0
    8.9429  -15.3336   13.5524 O   0  0  0  0  0  0  0  0  0  0  0  0
   10.6218  -17.6083   18.7619 N   0  0  0  0  0  0  0  0  0  0  0  0
   11.6770  -17.8887   19.6994 C   0  0  0  0  0  0  0  0  0  0  0  0
   11.4584  -19.1919   20.3918 C   0  0  0  0  0  0  0  0  0  0  0  0
   11.7662  -20.3530   19.7060 O   0  0  0  0  0  0  0  0  0  0  0  0
   11.0093  -19.2479   21.5614 O   0  0  0  0  0  0  0  0  0  0  0  0
  2  1  1  0
  3  2  1  0
  4  3  2  0
  5  3  1  0
  6 10  1  0
  6  5  1  0
  7  8  1  0
  6  7  1  6
  8  9  2  0
 10 13  1  0
 11 10  2  0
 12  8  1  0
 13 14  1  0
 14 15  1  0
 15 17  2  0
 15 16  1  0
M  END
$$$$
