NEG.pdb
     RDKit          3D

 22 21  0  0  1  0  0  0  0  0999 V2000
    6.7709  -13.8837   16.5723 N   0  0  0  0  0  0  0  0  0  0  0  0
    8.1913  -13.8336   16.6409 C   0  0  0  0  0  0  0  0  0  0  0  0
    8.9099  -13.5925   15.6183 O   0  0  0  0  0  0  0  0  0  0  0  0
    8.8976  -14.0630   17.9219 C   0  0  0  0  0  0  0  0  0  0  0  0
    7.9128  -14.3331   19.0525 C   0  0  2  0  0  0  0  0  0  0  0  0
    7.0860  -13.1566   19.2756 N   0  0  0  0  0  0  0  0  0  0  0  0
    8.5868  -14.7138   20.2929 C   0  0  0  0  0  0  0  0  0  0  0  0
    8.7612  -13.8504   21.1936 O   0  0  0  0  0  0  0  0  0  0  0  0
    9.0510  -16.0293   20.5141 N   0  0  0  0  0  0  0  0  0  0  0  0
    9.6511  -16.3847   21.8117 C   0  0  1  0  0  0  0  0  0  0  0  0
    9.1198  -17.7284   22.2181 C   0  0  0  0  0  0  0  0  0  0  0  0
    7.6747  -17.7626   22.5564 C   0  0  0  0  0  0  0  0  0  0  0  0
    7.2248  -19.1146   22.9530 C   0  0  0  0  0  0  0  0  0  0  0  0
    7.1503  -20.1007   22.1778 O   0  0  0  0  0  0  0  0  0  0  0  0
   11.1356  -16.4402   21.6717 C   0  0  0  0  0  0  0  0  0  0  0  0
   11.6134  -16.6771   20.5355 O   0  0  0  0  0  0  0  0  0  0  0  0
    6.8440  -19.3613   24.2806 O   0  0  0  0  0  0  0  0  0  0  0  0
   12.0133  -16.2385   22.7592 N   0  0  0  0  0  0  0  0  0  0  0  0
   13.4570  -16.2350   22.6092 C   0  0  0  0  0  0  0  0  0  0  0  0
   14.1591  -16.0193   23.8772 C   0  0  0  0  0  0  0  0  0  0  0  0
   13.4964  -15.7401   24.8990 O   0  0  0  0  0  0  0  0  0  0  0  0
   15.5381  -16.1127   23.9944 O   0  0  0  0  0  0  0  0  0  0  0  0
  1  2  1  0
  2  4  1  0
  2  3  2  0
  5  6  1  1
  5  4  1  0
  7  5  1  0
  7  8  2  0
  9  7  1  0
 10  9  1  0
 10 15  1  0
 10 11  1  6
 12 11  1  0
 12 13  1  0
 13 14  2  0
 15 16  2  0
 15 18  1  0
 17 13  1  0
 18 19  1  0
 19 20  1  0
 20 22  1  0
 21 20  2  0
M  END
$$$$
