NEG.pdb
     RDKit          3D

 22 21  0  0  1  0  0  0  0  0999 V2000
    7.3829  -12.4459   17.3953 N   0  0  0  0  0  0  0  0  0  0  0  0
    7.4294  -13.6917   16.7093 C   0  0  0  0  0  0  0  0  0  0  0  0
    7.0460  -13.8139   15.5017 O   0  0  0  0  0  0  0  0  0  0  0  0
    7.9326  -14.9105   17.3831 C   0  0  0  0  0  0  0  0  0  0  0  0
    8.3019  -14.6248   18.8333 C   0  0  2  0  0  0  0  0  0  0  0  0
    9.2398  -13.5138   18.8918 N   0  0  0  0  0  0  0  0  0  0  0  0
    8.8703  -15.7956   19.4995 C   0  0  0  0  0  0  0  0  0  0  0  0
    8.1916  -16.8540   19.5783 O   0  0  0  0  0  0  0  0  0  0  0  0
   10.1663  -15.7765   20.0605 N   0  0  0  0  0  0  0  0  0  0  0  0
   10.6672  -16.9573   20.7852 C   0  0  1  0  0  0  0  0  0  0  0  0
   12.0355  -17.2804   20.2596 C   0  0  0  0  0  0  0  0  0  0  0  0
   12.6662  -18.4937   20.8377 C   0  0  0  0  0  0  0  0  0  0  0  0
   14.0199  -18.7344   20.2925 C   0  0  0  0  0  0  0  0  0  0  0  0
   14.3259  -19.6839   19.5284 O   0  0  0  0  0  0  0  0  0  0  0  0
   10.7364  -16.6502   22.2437 C   0  0  0  0  0  0  0  0  0  0  0  0
   11.4238  -15.6653   22.6081 O   0  0  0  0  0  0  0  0  0  0  0  0
   15.0701  -17.8655   20.6248 O   0  0  0  0  0  0  0  0  0  0  0  0
   10.0643  -17.4192   23.2187 N   0  0  0  0  0  0  0  0  0  0  0  0
   10.1102  -17.1011   24.6342 C   0  0  0  0  0  0  0  0  0  0  0  0
   11.0911  -17.9075   25.3658 C   0  0  0  0  0  0  0  0  0  0  0  0
   11.7983  -18.7228   24.7363 O   0  0  0  0  0  0  0  0  0  0  0  0
   11.2709  -17.8044   26.7373 O   0  0  0  0  0  0  0  0  0  0  0  0
  1  2  1  0
  2  4  1  0
  2  3  2  0
  5  6  1  6
  5  4  1  0
  7  5  1  0
  7  8  2  0
  9  7  1  0
 10  9  1  0
 10 15  1  0
 10 11  1  6
 12 11  1  0
 12 13  1  0
 13 14  2  0
 15 16  2  0
 15 18  1  0
 17 13  1  0
 18 19  1  0
 19 20  1  0
 20 22  1  0
 21 20  2  0
M  END
$$$$
