NEG.pdb
     RDKit          3D

 22 21  0  0  1  0  0  0  0  0999 V2000
    2.2110  -19.1454   21.9139 N   0  0  0  0  0  0  0  0  0  0  0  0
    3.6075  -19.2077   21.6478 C   0  0  0  0  0  0  0  0  0  0  0  0
    4.0698  -19.2334   20.4622 O   0  0  0  0  0  0  0  0  0  0  0  0
    4.5899  -19.2452   22.7551 C   0  0  0  0  0  0  0  0  0  0  0  0
    5.3632  -17.9360   22.8493 C   0  0  2  0  0  0  0  0  0  0  0  0
    5.4651  -17.3295   21.5305 N   0  0  0  0  0  0  0  0  0  0  0  0
    6.6968  -18.1220   23.4192 C   0  0  0  0  0  0  0  0  0  0  0  0
    6.8404  -18.8556   24.4333 O   0  0  0  0  0  0  0  0  0  0  0  0
    7.8369  -17.5008   22.8634 N   0  0  0  0  0  0  0  0  0  0  0  0
    9.1292  -17.5805   23.5662 C   0  0  1  0  0  0  0  0  0  0  0  0
   10.2044  -17.1424   22.6151 C   0  0  0  0  0  0  0  0  0  0  0  0
   11.5742  -17.0945   23.1856 C   0  0  0  0  0  0  0  0  0  0  0  0
   12.5837  -16.6889   22.1836 C   0  0  0  0  0  0  0  0  0  0  0  0
   12.9390  -15.5037   21.9640 O   0  0  0  0  0  0  0  0  0  0  0  0
    9.1004  -16.6829   24.7578 C   0  0  0  0  0  0  0  0  0  0  0  0
    8.7397  -15.4922   24.5920 O   0  0  0  0  0  0  0  0  0  0  0  0
   13.2173  -17.6636   21.3981 O   0  0  0  0  0  0  0  0  0  0  0  0
    9.4609  -17.1192   26.0515 N   0  0  0  0  0  0  0  0  0  0  0  0
    9.4817  -16.2309   27.1992 C   0  0  0  0  0  0  0  0  0  0  0  0
   10.0439  -16.8627   28.3960 C   0  0  0  0  0  0  0  0  0  0  0  0
   10.4306  -18.0491   28.3321 O   0  0  0  0  0  0  0  0  0  0  0  0
   10.1672  -16.1962   29.6062 O   0  0  0  0  0  0  0  0  0  0  0  0
  1  2  1  0
  2  4  1  0
  2  3  2  0
  5  6  1  6
  5  4  1  0
  7  5  1  0
  7  8  2  0
  9  7  1  0
 10  9  1  0
 10 15  1  0
 10 11  1  6
 12 11  1  0
 12 13  1  0
 13 14  2  0
 15 16  2  0
 15 18  1  0
 17 13  1  0
 18 19  1  0
 19 20  1  0
 20 22  1  0
 21 20  2  0
M  END
$$$$
