NEG.pdb
     RDKit          3D

 22 21  0  0  1  0  0  0  0  0999 V2000
   -0.9758  -20.2668   21.5828 N   0  0  0  0  0  0  0  0  0  0  0  0
   -0.5149  -19.6726   22.7909 C   0  0  0  0  0  0  0  0  0  0  0  0
   -1.1752  -18.7671   23.3943 O   0  0  0  0  0  0  0  0  0  0  0  0
    0.7681  -20.0906   23.4007 C   0  0  0  0  0  0  0  0  0  0  0  0
    1.4266  -21.2002   22.5906 C   0  0  2  0  0  0  0  0  0  0  0  0
    0.5958  -22.3943   22.6266 N   0  0  0  0  0  0  0  0  0  0  0  0
    2.7718  -21.5115   23.0718 C   0  0  0  0  0  0  0  0  0  0  0  0
    2.9120  -22.2134   24.1085 O   0  0  0  0  0  0  0  0  0  0  0  0
    3.9267  -21.0468   22.4049 N   0  0  0  0  0  0  0  0  0  0  0  0
    5.2571  -21.5069   22.8391 C   0  0  1  0  0  0  0  0  0  0  0  0
    6.1977  -21.3755   21.6769 C   0  0  0  0  0  0  0  0  0  0  0  0
    7.5897  -21.8227   21.9343 C   0  0  0  0  0  0  0  0  0  0  0  0
    8.4445  -21.7110   20.7325 C   0  0  0  0  0  0  0  0  0  0  0  0
    8.9609  -22.6841   20.1278 O   0  0  0  0  0  0  0  0  0  0  0  0
    5.7255  -20.6630   23.9770 C   0  0  0  0  0  0  0  0  0  0  0  0
    5.5914  -19.4185   23.8839 O   0  0  0  0  0  0  0  0  0  0  0  0
    8.7265  -20.4473   20.1923 O   0  0  0  0  0  0  0  0  0  0  0  0
    6.3083  -21.2074   25.1423 N   0  0  0  0  0  0  0  0  0  0  0  0
    6.7888  -20.3822   26.2354 C   0  0  0  0  0  0  0  0  0  0  0  0
    8.1669  -20.6975   26.6215 C   0  0  0  0  0  0  0  0  0  0  0  0
    8.8203  -21.5097   25.9327 O   0  0  0  0  0  0  0  0  0  0  0  0
    8.7831  -20.1290   27.7266 O   0  0  0  0  0  0  0  0  0  0  0  0
  1  2  1  0
  2  4  1  0
  2  3  2  0
  5  6  1  1
  5  4  1  0
  7  5  1  0
  7  8  2  0
  9  7  1  0
 10  9  1  0
 10 15  1  0
 10 11  1  6
 12 11  1  0
 12 13  1  0
 13 14  2  0
 15 16  2  0
 15 18  1  0
 17 13  1  0
 18 19  1  0
 19 20  1  0
 20 22  1  0
 21 20  2  0
M  END
$$$$
