NEG.pdb
     RDKit          3D

 22 21  0  0  1  0  0  0  0  0999 V2000
    6.6285  -15.3936   15.9147 N   0  0  0  0  0  0  0  0  0  0  0  0
    7.6980  -14.6189   15.3848 C   0  0  0  0  0  0  0  0  0  0  0  0
    7.9360  -14.5591   14.1358 O   0  0  0  0  0  0  0  0  0  0  0  0
    8.5873  -13.8419   16.2782 C   0  0  0  0  0  0  0  0  0  0  0  0
    8.1673  -13.9880   17.7353 C   0  0  2  0  0  0  0  0  0  0  0  0
    7.0698  -13.0772   18.0241 N   0  0  0  0  0  0  0  0  0  0  0  0
    9.2760  -13.7442   18.6568 C   0  0  0  0  0  0  0  0  0  0  0  0
    9.6177  -12.5595   18.9152 O   0  0  0  0  0  0  0  0  0  0  0  0
    9.9801  -14.8034   19.2709 N   0  0  0  0  0  0  0  0  0  0  0  0
   11.1206  -14.5080   20.1552 C   0  0  1  0  0  0  0  0  0  0  0  0
   11.0066  -15.3820   21.3701 C   0  0  0  0  0  0  0  0  0  0  0  0
   12.1307  -15.2770   22.3341 C   0  0  0  0  0  0  0  0  0  0  0  0
   12.0183  -16.2598   23.4337 C   0  0  0  0  0  0  0  0  0  0  0  0
   11.1056  -17.1174   23.5373 O   0  0  0  0  0  0  0  0  0  0  0  0
   12.3942  -14.7958   19.4330 C   0  0  0  0  0  0  0  0  0  0  0  0
   12.5101  -15.9061   18.8594 O   0  0  0  0  0  0  0  0  0  0  0  0
   12.9773  -16.2733   24.4577 O   0  0  0  0  0  0  0  0  0  0  0  0
   13.4627  -13.8747   19.3724 N   0  0  0  0  0  0  0  0  0  0  0  0
   14.6280  -14.0825   18.5324 C   0  0  0  0  0  0  0  0  0  0  0  0
   15.7852  -14.5817   19.2801 C   0  0  0  0  0  0  0  0  0  0  0  0
   15.5955  -15.2434   20.3228 O   0  0  0  0  0  0  0  0  0  0  0  0
   17.0924  -14.3506   18.8778 O   0  0  0  0  0  0  0  0  0  0  0  0
  1  2  1  0
  2  4  1  0
  2  3  2  0
  5  6  1  1
  5  4  1  0
  7  5  1  0
  7  8  2  0
  9  7  1  0
 10  9  1  0
 10 15  1  0
 10 11  1  1
 12 11  1  0
 12 13  1  0
 13 14  2  0
 15 16  2  0
 15 18  1  0
 17 13  1  0
 18 19  1  0
 19 20  1  0
 20 22  1  0
 21 20  2  0
M  END
$$$$
