NEG.pdb
     RDKit          3D

 22 21  0  0  1  0  0  0  0  0999 V2000
    7.0722  -12.3892   18.7187 N   0  0  0  0  0  0  0  0  0  0  0  0
    7.7809  -13.6151   18.5773 C   0  0  0  0  0  0  0  0  0  0  0  0
    8.5173  -13.8583   17.5680 O   0  0  0  0  0  0  0  0  0  0  0  0
    7.6875  -14.6691   19.6131 C   0  0  0  0  0  0  0  0  0  0  0  0
    8.3127  -15.9719   19.1303 C   0  0  2  0  0  0  0  0  0  0  0  0
    7.5767  -16.4733   17.9795 N   0  0  0  0  0  0  0  0  0  0  0  0
    8.3523  -16.9881   20.1808 C   0  0  0  0  0  0  0  0  0  0  0  0
    7.2727  -17.4502   20.6369 O   0  0  0  0  0  0  0  0  0  0  0  0
    9.5723  -17.4713   20.7031 N   0  0  0  0  0  0  0  0  0  0  0  0
    9.5610  -18.5237   21.7340 C   0  0  1  0  0  0  0  0  0  0  0  0
    8.9395  -19.7530   21.1379 C   0  0  0  0  0  0  0  0  0  0  0  0
    9.5059  -20.1808   19.8340 C   0  0  0  0  0  0  0  0  0  0  0  0
    9.3506  -21.6340   19.6064 C   0  0  0  0  0  0  0  0  0  0  0  0
    8.2583  -22.2536   19.6531 O   0  0  0  0  0  0  0  0  0  0  0  0
   10.9609  -18.8118   22.1623 C   0  0  0  0  0  0  0  0  0  0  0  0
   11.8225  -19.0094   21.2712 O   0  0  0  0  0  0  0  0  0  0  0  0
   10.4765  -22.4183   19.3138 O   0  0  0  0  0  0  0  0  0  0  0  0
   11.3478  -18.8704   23.5190 N   0  0  0  0  0  0  0  0  0  0  0  0
   12.0762  -19.9950   24.0770 C   0  0  0  0  0  0  0  0  0  0  0  0
   12.4189  -19.8052   25.4891 C   0  0  0  0  0  0  0  0  0  0  0  0
   13.0113  -20.7208   26.0990 O   0  0  0  0  0  0  0  0  0  0  0  0
   12.1126  -18.6445   26.1840 O   0  0  0  0  0  0  0  0  0  0  0  0
  1  2  1  0
  2  4  1  0
  2  3  2  0
  5  6  1  6
  5  4  1  0
  7  5  1  0
  7  8  2  0
  9  7  1  0
 10  9  1  0
 10 15  1  0
 10 11  1  6
 12 11  1  0
 12 13  1  0
 13 14  2  0
 15 16  2  0
 15 18  1  0
 17 13  1  0
 18 19  1  0
 19 20  1  0
 20 22  1  0
 21 20  2  0
M  END
$$$$
