MFH.pdb
     RDKit          3D

 30 31  0  0  1  0  0  0  0  0999 V2000
    8.5067  -21.3263   22.2407 C   0  0  0  0  0  0  0  0  0  0  0  0
    8.2881  -21.2815   20.4311 S   0  0  0  0  0  0  0  0  0  0  0  0
    8.5857  -19.5757   19.9013 C   0  0  0  0  0  0  0  0  0  0  0  0
    8.5082  -18.6048   21.0576 C   0  0  0  0  0  0  0  0  0  0  0  0
    8.7056  -17.1719   20.6155 C   0  0  2  0  0  0  0  0  0  0  0  0
    9.8882  -17.1519   19.7724 N   0  0  0  0  0  0  0  0  0  0  0  0
    8.8892  -16.3592   21.8386 C   0  0  0  0  0  0  0  0  0  0  0  0
   10.0136  -16.1925   22.3636 O   0  0  0  0  0  0  0  0  0  0  0  0
    7.7661  -15.7499   22.4375 N   0  0  0  0  0  0  0  0  0  0  0  0
    7.9459  -14.9397   23.6229 C   0  0  1  0  0  0  0  0  0  0  0  0
    6.7781  -14.0299   23.8913 C   0  0  0  0  0  0  0  0  0  0  0  0
    6.9198  -13.2262   25.1049 C   0  0  0  0  0  0  0  0  0  0  0  0
    7.8990  -12.2460   25.1514 C   0  0  0  0  0  0  0  0  0  0  0  0
    8.1157  -11.4365   26.2420 C   0  0  0  0  0  0  0  0  0  0  0  0
    7.2943  -11.6282   27.3521 C   0  0  0  0  0  0  0  0  0  0  0  0
    6.3107  -12.5888   27.3492 C   0  0  0  0  0  0  0  0  0  0  0  0
    6.1411  -13.3658   26.2343 C   0  0  0  0  0  0  0  0  0  0  0  0
    8.0200  -15.9048   24.7796 C   0  0  0  0  0  0  0  0  0  0  0  0
    7.0133  -16.5953   25.1364 O   0  0  0  0  0  0  0  0  0  0  0  0
    9.2105  -16.0833   25.5163 N   0  0  0  0  0  0  0  0  0  0  0  0
    9.2371  -17.0270   26.6412 C   0  0  1  0  0  0  0  0  0  0  0  0
    9.6903  -18.3913   26.1638 C   0  0  0  0  0  0  0  0  0  0  0  0
    8.5790  -19.2023   25.6463 C   0  0  0  0  0  0  0  0  0  0  0  0
    7.2494  -18.8602   25.6726 C   0  0  0  0  0  0  0  0  0  0  0  0
    6.5545  -19.8663   25.1170 N   0  0  0  0  0  0  0  0  0  0  0  0
    7.4045  -20.8185   24.7478 C   0  0  0  0  0  0  0  0  0  0  0  0
    8.6493  -20.4067   25.0750 N   0  0  0  0  0  0  0  0  0  0  0  0
   10.0942  -16.4541   27.6926 C   0  0  0  0  0  0  0  0  0  0  0  0
   10.2097  -17.0209   28.8008 O   0  0  0  0  0  0  0  0  0  0  0  0
   10.7851  -15.2818   27.4708 O   0  0  0  0  0  0  0  0  0  0  0  0
  2  1  1  0
  3  2  1  0
  4  3  1  0
  5  4  1  0
  5  6  1  6
  7  5  1  0
  8  7  2  0
  9  7  1  0
 10  9  1  0
 11 12  1  0
 10 11  1  1
 12 13  2  0
 13 14  1  0
 15 14  2  0
 16 15  1  0
 17 16  2  0
 17 12  1  0
 18 10  1  0
 18 19  2  0
 20 18  1  0
 21 22  1  6
 21 20  1  0
 23 22  1  0
 24 23  2  0
 25 24  1  0
 25 26  1  0
 26 27  2  0
 27 23  1  0
 28 21  1  0
 29 28  2  0
 30 28  1  0
M  END
$$$$
