MFH.pdb
     RDKit          3D

 30 31  0  0  1  0  0  0  0  0999 V2000
    7.6795  -11.5740   19.8986 C   0  0  0  0  0  0  0  0  0  0  0  0
    7.3731  -12.7908   18.5756 S   0  0  0  0  0  0  0  0  0  0  0  0
    7.5465  -14.4349   19.3144 C   0  0  0  0  0  0  0  0  0  0  0  0
    8.7788  -14.5347   20.1846 C   0  0  0  0  0  0  0  0  0  0  0  0
    8.8917  -15.8812   20.8640 C   0  0  2  0  0  0  0  0  0  0  0  0
    7.5473  -16.4253   20.9435 N   0  0  0  0  0  0  0  0  0  0  0  0
    9.4690  -15.6457   22.2062 C   0  0  0  0  0  0  0  0  0  0  0  0
   10.6213  -15.1814   22.3621 O   0  0  0  0  0  0  0  0  0  0  0  0
    8.7025  -15.9517   23.3507 N   0  0  0  0  0  0  0  0  0  0  0  0
    9.2351  -15.6529   24.6625 C   0  0  1  0  0  0  0  0  0  0  0  0
    8.1671  -15.2890   25.6577 C   0  0  0  0  0  0  0  0  0  0  0  0
    8.6866  -14.8915   26.9657 C   0  0  0  0  0  0  0  0  0  0  0  0
    8.8058  -13.5419   27.2597 C   0  0  0  0  0  0  0  0  0  0  0  0
    9.2817  -13.0622   28.4577 C   0  0  0  0  0  0  0  0  0  0  0  0
    9.6600  -14.0015   29.4161 C   0  0  0  0  0  0  0  0  0  0  0  0
    9.5585  -15.3497   29.1666 C   0  0  0  0  0  0  0  0  0  0  0  0
    9.0773  -15.7690   27.9550 C   0  0  0  0  0  0  0  0  0  0  0  0
    9.8710  -16.9290   25.1543 C   0  0  0  0  0  0  0  0  0  0  0  0
    9.2033  -18.0056   25.2668 O   0  0  0  0  0  0  0  0  0  0  0  0
   11.2355  -16.9836   25.5111 N   0  0  0  0  0  0  0  0  0  0  0  0
   11.7980  -18.2269   26.0534 C   0  0  1  0  0  0  0  0  0  0  0  0
   13.2298  -18.3952   25.5883 C   0  0  0  0  0  0  0  0  0  0  0  0
   13.3266  -18.6125   24.1378 C   0  0  0  0  0  0  0  0  0  0  0  0
   12.3174  -19.0556   23.3188 C   0  0  0  0  0  0  0  0  0  0  0  0
   12.8051  -19.1335   22.0699 N   0  0  0  0  0  0  0  0  0  0  0  0
   14.0788  -18.7553   22.0854 C   0  0  0  0  0  0  0  0  0  0  0  0
   14.3964  -18.4354   23.3593 N   0  0  0  0  0  0  0  0  0  0  0  0
   11.6533  -18.1882   27.5183 C   0  0  0  0  0  0  0  0  0  0  0  0
   11.5664  -19.2459   28.1790 O   0  0  0  0  0  0  0  0  0  0  0  0
   11.6123  -16.9827   28.1860 O   0  0  0  0  0  0  0  0  0  0  0  0
  2  1  1  0
  3  2  1  0
  4  3  1  0
  5  4  1  0
  5  6  1  1
  7  5  1  0
  8  7  2  0
  9  7  1  0
 10  9  1  0
 11 12  1  0
 10 11  1  1
 12 13  2  0
 13 14  1  0
 15 14  2  0
 16 15  1  0
 17 16  2  0
 17 12  1  0
 18 10  1  0
 18 19  2  0
 20 18  1  0
 21 22  1  1
 21 20  1  0
 23 22  1  0
 24 23  2  0
 25 24  1  0
 25 26  1  0
 26 27  2  0
 27 23  1  0
 28 21  1  0
 29 28  2  0
 30 28  1  0
M  END
$$$$
