MFH.pdb
     RDKit          3D

 30 31  0  0  1  0  0  0  0  0999 V2000
    8.7607  -11.9739   18.7828 C   0  0  0  0  0  0  0  0  0  0  0  0
    7.9794  -13.3027   17.8089 S   0  0  0  0  0  0  0  0  0  0  0  0
    8.4500  -14.8731   18.5781 C   0  0  0  0  0  0  0  0  0  0  0  0
    9.1920  -14.6637   19.8785 C   0  0  0  0  0  0  0  0  0  0  0  0
    9.5626  -15.9711   20.5424 C   0  0  2  0  0  0  0  0  0  0  0  0
    8.3974  -16.8335   20.4509 N   0  0  0  0  0  0  0  0  0  0  0  0
    9.9093  -15.6639   21.9480 C   0  0  0  0  0  0  0  0  0  0  0  0
   11.0022  -15.1410   22.2641 O   0  0  0  0  0  0  0  0  0  0  0  0
    8.9840  -15.9670   22.9693 N   0  0  0  0  0  0  0  0  0  0  0  0
    8.8408  -15.0617   24.0891 C   0  0  1  0  0  0  0  0  0  0  0  0
    7.4610  -14.4708   24.1898 C   0  0  0  0  0  0  0  0  0  0  0  0
    7.2492  -13.6612   25.3892 C   0  0  0  0  0  0  0  0  0  0  0  0
    7.7033  -12.3514   25.4049 C   0  0  0  0  0  0  0  0  0  0  0  0
    7.5553  -11.5065   26.4800 C   0  0  0  0  0  0  0  0  0  0  0  0
    6.9102  -12.0145   27.6067 C   0  0  0  0  0  0  0  0  0  0  0  0
    6.4440  -13.3076   27.6343 C   0  0  0  0  0  0  0  0  0  0  0  0
    6.6199  -14.1033   26.5337 C   0  0  0  0  0  0  0  0  0  0  0  0
    9.0479  -15.8962   25.3282 C   0  0  0  0  0  0  0  0  0  0  0  0
    9.5305  -15.3975   26.3941 O   0  0  0  0  0  0  0  0  0  0  0  0
    8.7149  -17.2674   25.3585 N   0  0  0  0  0  0  0  0  0  0  0  0
    9.7691  -18.2693   25.5615 C   0  0  1  0  0  0  0  0  0  0  0  0
   10.8728  -18.0756   24.5422 C   0  0  0  0  0  0  0  0  0  0  0  0
   12.0154  -18.9703   24.7755 C   0  0  0  0  0  0  0  0  0  0  0  0
   13.0973  -19.1313   23.9454 C   0  0  0  0  0  0  0  0  0  0  0  0
   13.9124  -20.0411   24.5033 N   0  0  0  0  0  0  0  0  0  0  0  0
   13.3753  -20.4495   25.6480 C   0  0  0  0  0  0  0  0  0  0  0  0
   12.2081  -19.7886   25.8124 N   0  0  0  0  0  0  0  0  0  0  0  0
   10.2287  -18.1667   26.9567 C   0  0  0  0  0  0  0  0  0  0  0  0
    9.7146  -17.3376   27.7384 O   0  0  0  0  0  0  0  0  0  0  0  0
   11.2344  -18.9856   27.4244 O   0  0  0  0  0  0  0  0  0  0  0  0
  2  1  1  0
  3  2  1  0
  4  3  1  0
  5  4  1  0
  5  6  1  1
  7  5  1  0
  8  7  2  0
  9  7  1  0
 10  9  1  0
 11 12  1  0
 10 11  1  1
 12 13  2  0
 13 14  1  0
 15 14  2  0
 16 15  1  0
 17 16  2  0
 17 12  1  0
 18 10  1  0
 18 19  2  0
 20 18  1  0
 21 22  1  6
 21 20  1  0
 23 22  1  0
 24 23  2  0
 25 24  1  0
 25 26  1  0
 26 27  2  0
 27 23  1  0
 28 21  1  0
 29 28  2  0
 30 28  1  0
M  END
$$$$
