MFH.pdb
     RDKit          3D

 30 31  0  0  1  0  0  0  0  0999 V2000
    8.5821  -11.5202   20.1702 C   0  0  0  0  0  0  0  0  0  0  0  0
    7.7506  -12.5755   18.9374 S   0  0  0  0  0  0  0  0  0  0  0  0
    7.6324  -14.2354   19.6513 C   0  0  0  0  0  0  0  0  0  0  0  0
    8.7116  -14.4847   20.6803 C   0  0  0  0  0  0  0  0  0  0  0  0
    8.6607  -15.8915   21.2332 C   0  0  2  0  0  0  0  0  0  0  0  0
    7.2754  -16.3218   21.1591 N   0  0  0  0  0  0  0  0  0  0  0  0
    9.1423  -15.8286   22.6312 C   0  0  0  0  0  0  0  0  0  0  0  0
   10.3329  -15.5630   22.9129 O   0  0  0  0  0  0  0  0  0  0  0  0
    8.2366  -16.0747   23.6849 N   0  0  0  0  0  0  0  0  0  0  0  0
    8.7241  -16.1070   25.0470 C   0  0  1  0  0  0  0  0  0  0  0  0
    7.6887  -15.6730   26.0485 C   0  0  0  0  0  0  0  0  0  0  0  0
    7.4809  -14.2263   26.0968 C   0  0  0  0  0  0  0  0  0  0  0  0
    8.5478  -13.4045   26.4262 C   0  0  0  0  0  0  0  0  0  0  0  0
    8.4596  -12.0339   26.4995 C   0  0  0  0  0  0  0  0  0  0  0  0
    7.2199  -11.4586   26.2238 C   0  0  0  0  0  0  0  0  0  0  0  0
    6.1351  -12.2359   25.8930 C   0  0  0  0  0  0  0  0  0  0  0  0
    6.2825  -13.5961   25.8354 C   0  0  0  0  0  0  0  0  0  0  0  0
    9.0366  -17.5524   25.3432 C   0  0  0  0  0  0  0  0  0  0  0  0
    8.8484  -18.4655   24.4781 O   0  0  0  0  0  0  0  0  0  0  0  0
    9.5518  -17.9544   26.5942 N   0  0  0  0  0  0  0  0  0  0  0  0
   10.7920  -18.7385   26.6540 C   0  0  1  0  0  0  0  0  0  0  0  0
   11.9286  -17.9613   26.0226 C   0  0  0  0  0  0  0  0  0  0  0  0
   12.1794  -18.3646   24.6316 C   0  0  0  0  0  0  0  0  0  0  0  0
   11.4659  -19.2978   23.9206 C   0  0  0  0  0  0  0  0  0  0  0  0
   12.0117  -19.3883   22.6968 N   0  0  0  0  0  0  0  0  0  0  0  0
   13.0367  -18.5459   22.6239 C   0  0  0  0  0  0  0  0  0  0  0  0
   13.1370  -17.9177   23.8161 N   0  0  0  0  0  0  0  0  0  0  0  0
   11.0326  -19.0986   28.0614 C   0  0  0  0  0  0  0  0  0  0  0  0
   10.5922  -18.3833   28.9872 O   0  0  0  0  0  0  0  0  0  0  0  0
   11.7477  -20.2331   28.3812 O   0  0  0  0  0  0  0  0  0  0  0  0
  2  1  1  0
  3  2  1  0
  4  3  1  0
  5  4  1  0
  5  6  1  1
  7  5  1  0
  8  7  2  0
  9  7  1  0
 10  9  1  0
 11 12  1  0
 10 11  1  1
 12 13  2  0
 13 14  1  0
 15 14  2  0
 16 15  1  0
 17 16  2  0
 17 12  1  0
 18 10  1  0
 18 19  2  0
 20 18  1  0
 21 22  1  1
 21 20  1  0
 23 22  1  0
 24 23  2  0
 25 24  1  0
 25 26  1  0
 26 27  2  0
 27 23  1  0
 28 21  1  0
 29 28  2  0
 30 28  1  0
M  END
$$$$
