MFH.pdb
     RDKit          3D

 30 31  0  0  1  0  0  0  0  0999 V2000
    7.2590  -12.1467   19.1924 C   0  0  0  0  0  0  0  0  0  0  0  0
    7.8498  -12.9538   17.6678 S   0  0  0  0  0  0  0  0  0  0  0  0
    8.1674  -14.6897   18.0735 C   0  0  0  0  0  0  0  0  0  0  0  0
    7.4331  -15.1200   19.3230 C   0  0  0  0  0  0  0  0  0  0  0  0
    8.1739  -16.2008   20.0783 C   0  0  2  0  0  0  0  0  0  0  0  0
    7.2478  -17.3074   20.2436 N   0  0  0  0  0  0  0  0  0  0  0  0
    8.5787  -15.6244   21.3799 C   0  0  0  0  0  0  0  0  0  0  0  0
    9.5868  -14.8912   21.4976 O   0  0  0  0  0  0  0  0  0  0  0  0
    7.8091  -15.9057   22.5286 N   0  0  0  0  0  0  0  0  0  0  0  0
    8.2057  -15.3469   23.8032 C   0  0  1  0  0  0  0  0  0  0  0  0
    7.0468  -15.1554   24.7432 C   0  0  0  0  0  0  0  0  0  0  0  0
    7.3528  -14.3099   25.8965 C   0  0  0  0  0  0  0  0  0  0  0  0
    6.7578  -13.0613   25.9913 C   0  0  0  0  0  0  0  0  0  0  0  0
    6.9771  -12.1898   27.0326 C   0  0  0  0  0  0  0  0  0  0  0  0
    7.8493  -12.6040   28.0383 C   0  0  0  0  0  0  0  0  0  0  0  0
    8.4610  -13.8340   27.9845 C   0  0  0  0  0  0  0  0  0  0  0  0
    8.2046  -14.6601   26.9228 C   0  0  0  0  0  0  0  0  0  0  0  0
    9.1175  -16.3662   24.4391 C   0  0  0  0  0  0  0  0  0  0  0  0
    8.7506  -17.5716   24.6127 O   0  0  0  0  0  0  0  0  0  0  0  0
   10.4180  -16.0262   24.8692 N   0  0  0  0  0  0  0  0  0  0  0  0
   11.4589  -17.0603   24.9314 C   0  0  1  0  0  0  0  0  0  0  0  0
   11.6388  -17.6984   23.5694 C   0  0  0  0  0  0  0  0  0  0  0  0
   10.7168  -18.8220   23.3501 C   0  0  0  0  0  0  0  0  0  0  0  0
   10.3675  -19.7725   24.2775 C   0  0  0  0  0  0  0  0  0  0  0  0
    9.5170  -20.6290   23.6888 N   0  0  0  0  0  0  0  0  0  0  0  0
    9.3268  -20.2441   22.4313 C   0  0  0  0  0  0  0  0  0  0  0  0
   10.0666  -19.1320   22.2262 N   0  0  0  0  0  0  0  0  0  0  0  0
   12.6847  -16.4376   25.4587 C   0  0  0  0  0  0  0  0  0  0  0  0
   13.4765  -17.0915   26.1716 O   0  0  0  0  0  0  0  0  0  0  0  0
   12.9797  -15.1215   25.1732 O   0  0  0  0  0  0  0  0  0  0  0  0
  2  1  1  0
  3  2  1  0
  4  3  1  0
  5  4  1  0
  5  6  1  1
  7  5  1  0
  8  7  2  0
  9  7  1  0
 10  9  1  0
 11 12  1  0
 10 11  1  1
 12 13  2  0
 13 14  1  0
 15 14  2  0
 16 15  1  0
 17 16  2  0
 17 12  1  0
 18 10  1  0
 18 19  2  0
 20 18  1  0
 21 22  1  6
 21 20  1  0
 23 22  1  0
 24 23  2  0
 25 24  1  0
 25 26  1  0
 26 27  2  0
 27 23  1  0
 28 21  1  0
 29 28  2  0
 30 28  1  0
M  END
$$$$
