MFH.pdb
     RDKit          3D

 30 31  0  0  1  0  0  0  0  0999 V2000
    7.5354  -11.8847   18.6562 C   0  0  0  0  0  0  0  0  0  0  0  0
    7.6905  -13.1404   17.3433 S   0  0  0  0  0  0  0  0  0  0  0  0
    8.1852  -14.6879   18.1430 C   0  0  0  0  0  0  0  0  0  0  0  0
    8.8768  -14.4432   19.4650 C   0  0  0  0  0  0  0  0  0  0  0  0
    9.2149  -15.7319   20.1807 C   0  0  2  0  0  0  0  0  0  0  0  0
    8.0615  -16.6039   20.0426 N   0  0  0  0  0  0  0  0  0  0  0  0
    9.4777  -15.3890   21.5962 C   0  0  0  0  0  0  0  0  0  0  0  0
   10.5603  -14.8812   21.9673 O   0  0  0  0  0  0  0  0  0  0  0  0
    8.4814  -15.6394   22.5635 N   0  0  0  0  0  0  0  0  0  0  0  0
    8.6849  -15.1919   23.9245 C   0  0  1  0  0  0  0  0  0  0  0  0
    7.4328  -15.2612   24.7556 C   0  0  0  0  0  0  0  0  0  0  0  0
    7.3176  -14.1895   25.7440 C   0  0  0  0  0  0  0  0  0  0  0  0
    6.1305  -14.0472   26.4459 C   0  0  0  0  0  0  0  0  0  0  0  0
    5.9185  -13.0747   27.3952 C   0  0  0  0  0  0  0  0  0  0  0  0
    6.9680  -12.1933   27.6510 C   0  0  0  0  0  0  0  0  0  0  0  0
    8.1623  -12.2981   26.9782 C   0  0  0  0  0  0  0  0  0  0  0  0
    8.3161  -13.2868   26.0431 C   0  0  0  0  0  0  0  0  0  0  0  0
    9.6678  -16.1576   24.5377 C   0  0  0  0  0  0  0  0  0  0  0  0
   10.5707  -16.7211   23.8414 O   0  0  0  0  0  0  0  0  0  0  0  0
    9.6280  -16.4779   25.9117 N   0  0  0  0  0  0  0  0  0  0  0  0
   10.7395  -17.2203   26.5197 C   0  0  1  0  0  0  0  0  0  0  0  0
   12.0553  -16.5438   26.1944 C   0  0  0  0  0  0  0  0  0  0  0  0
   12.5977  -16.9671   24.8955 C   0  0  0  0  0  0  0  0  0  0  0  0
   11.8888  -17.5572   23.8782 C   0  0  0  0  0  0  0  0  0  0  0  0
   12.7415  -17.8006   22.8697 N   0  0  0  0  0  0  0  0  0  0  0  0
   13.9520  -17.3834   23.2248 C   0  0  0  0  0  0  0  0  0  0  0  0
   13.8599  -16.8711   24.4719 N   0  0  0  0  0  0  0  0  0  0  0  0
   10.4735  -17.3316   27.9637 C   0  0  0  0  0  0  0  0  0  0  0  0
    9.4728  -16.7815   28.4723 O   0  0  0  0  0  0  0  0  0  0  0  0
   11.3248  -18.0465   28.7792 O   0  0  0  0  0  0  0  0  0  0  0  0
  2  1  1  0
  3  2  1  0
  4  3  1  0
  5  4  1  0
  5  6  1  1
  7  5  1  0
  8  7  2  0
  9  7  1  0
 10  9  1  0
 11 12  1  0
 10 11  1  1
 12 13  2  0
 13 14  1  0
 15 14  2  0
 16 15  1  0
 17 16  2  0
 17 12  1  0
 18 10  1  0
 18 19  2  0
 20 18  1  0
 21 22  1  1
 21 20  1  0
 23 22  1  0
 24 23  2  0
 25 24  1  0
 25 26  1  0
 26 27  2  0
 27 23  1  0
 28 21  1  0
 29 28  2  0
 30 28  1  0
M  END
$$$$
