MFH.pdb
     RDKit          3D

 30 31  0  0  1  0  0  0  0  0999 V2000
    8.5626  -12.0503   18.7908 C   0  0  0  0  0  0  0  0  0  0  0  0
    7.8550  -13.5996   18.1401 S   0  0  0  0  0  0  0  0  0  0  0  0
    9.1922  -14.8200   18.1009 C   0  0  0  0  0  0  0  0  0  0  0  0
    9.4904  -15.3737   19.4757 C   0  0  0  0  0  0  0  0  0  0  0  0
   10.2534  -14.3906   20.3352 C   0  0  2  0  0  0  0  0  0  0  0  0
   11.6095  -14.3443   19.8170 N   0  0  0  0  0  0  0  0  0  0  0  0
   10.2131  -14.9016   21.7235 C   0  0  0  0  0  0  0  0  0  0  0  0
   11.2531  -15.2090   22.3493 O   0  0  0  0  0  0  0  0  0  0  0  0
    8.9669  -15.0498   22.3686 N   0  0  0  0  0  0  0  0  0  0  0  0
    8.7461  -14.4021   23.6436 C   0  0  1  0  0  0  0  0  0  0  0  0
    7.3361  -13.9042   23.8095 C   0  0  0  0  0  0  0  0  0  0  0  0
    7.0786  -13.2743   25.1039 C   0  0  0  0  0  0  0  0  0  0  0  0
    6.0716  -13.7822   25.9101 C   0  0  0  0  0  0  0  0  0  0  0  0
    5.7487  -13.2649   27.1430 C   0  0  0  0  0  0  0  0  0  0  0  0
    6.4868  -12.1692   27.5884 C   0  0  0  0  0  0  0  0  0  0  0  0
    7.4942  -11.6336   26.8213 C   0  0  0  0  0  0  0  0  0  0  0  0
    7.7712  -12.1906   25.6014 C   0  0  0  0  0  0  0  0  0  0  0  0
    8.9582  -15.4646   24.6927 C   0  0  0  0  0  0  0  0  0  0  0  0
    9.5610  -15.2123   25.7839 O   0  0  0  0  0  0  0  0  0  0  0  0
    8.4967  -16.7856   24.5087 N   0  0  0  0  0  0  0  0  0  0  0  0
    9.4457  -17.9046   24.5702 C   0  0  1  0  0  0  0  0  0  0  0  0
   10.5105  -17.7415   23.5052 C   0  0  0  0  0  0  0  0  0  0  0  0
   11.5183  -18.8105   23.5512 C   0  0  0  0  0  0  0  0  0  0  0  0
   11.6143  -19.7887   24.5100 C   0  0  0  0  0  0  0  0  0  0  0  0
   12.6688  -20.5624   24.2046 N   0  0  0  0  0  0  0  0  0  0  0  0
   13.2292  -20.0993   23.0924 C   0  0  0  0  0  0  0  0  0  0  0  0
   12.5188  -19.0213   22.6930 N   0  0  0  0  0  0  0  0  0  0  0  0
    9.9841  -17.9669   25.9394 C   0  0  0  0  0  0  0  0  0  0  0  0
   10.8708  -18.7955   26.2392 O   0  0  0  0  0  0  0  0  0  0  0  0
    9.5187  -17.1101   26.9141 O   0  0  0  0  0  0  0  0  0  0  0  0
  2  1  1  0
  3  2  1  0
  4  3  1  0
  5  4  1  0
  5  6  1  6
  7  5  1  0
  8  7  2  0
  9  7  1  0
 10  9  1  0
 11 12  1  0
 10 11  1  6
 12 13  2  0
 13 14  1  0
 15 14  2  0
 16 15  1  0
 17 16  2  0
 17 12  1  0
 18 10  1  0
 18 19  2  0
 20 18  1  0
 21 22  1  6
 21 20  1  0
 23 22  1  0
 24 23  2  0
 25 24  1  0
 25 26  1  0
 26 27  2  0
 27 23  1  0
 28 21  1  0
 29 28  2  0
 30 28  1  0
M  END
$$$$
