TYE.pdb
     RDKit          3D

 29 29  0  0  1  0  0  0  0  0999 V2000
   14.7825  -10.0796   -9.5661 C   0  0  0  0  0  0  0  0  0  0  0  0
   15.6336   -8.8926   -9.8645 C   0  0  1  0  0  0  0  0  0  0  0  0
   15.6980   -8.6792  -11.2247 O   0  0  0  0  0  0  0  0  0  0  0  0
   15.2041   -7.6392   -9.1106 C   0  0  2  0  0  0  0  0  0  0  0  0
   13.8884   -7.2515   -9.5169 N   0  0  0  0  0  0  0  0  0  0  0  0
   16.2131   -6.5559   -9.2311 C   0  0  0  0  0  0  0  0  0  0  0  0
   17.0440   -6.4249   -8.3221 O   0  0  0  0  0  0  0  0  0  0  0  0
   21.1459   -9.0506  -13.0707 O   0  0  0  0  0  0  0  0  0  0  0  0
   20.3159   -7.9529  -12.7901 C   0  0  0  0  0  0  0  0  0  0  0  0
   20.7792   -6.9301  -11.9939 C   0  0  0  0  0  0  0  0  0  0  0  0
   19.9616   -5.8492  -11.7176 C   0  0  0  0  0  0  0  0  0  0  0  0
   18.6799   -5.7338  -12.2045 C   0  0  0  0  0  0  0  0  0  0  0  0
   17.8252   -4.5651  -11.8929 C   0  0  0  0  0  0  0  0  0  0  0  0
   17.2171   -4.6351  -10.5295 C   0  0  2  0  0  0  0  0  0  0  0  0
   16.2682   -5.6727  -10.3288 N   0  0  0  0  0  0  0  0  0  0  0  0
   16.6150   -3.3288  -10.1677 C   0  0  0  0  0  0  0  0  0  0  0  0
   15.3946   -3.0986  -10.4701 O   0  0  0  0  0  0  0  0  0  0  0  0
   18.2375   -6.7779  -13.0041 C   0  0  0  0  0  0  0  0  0  0  0  0
   19.0406   -7.8614  -13.2881 C   0  0  0  0  0  0  0  0  0  0  0  0
   17.3101   -2.3067   -9.5008 N   0  0  0  0  0  0  0  0  0  0  0  0
   16.6576   -1.0269   -9.1316 C   0  0  1  0  0  0  0  0  0  0  0  0
   17.2592   -0.5862   -7.8321 C   0  0  0  0  0  0  0  0  0  0  0  0
   16.6898    0.7250   -7.3987 C   0  0  0  0  0  0  0  0  0  0  0  0
   17.2962    1.1841   -6.1078 C   0  0  0  0  0  0  0  0  0  0  0  0
   16.8365    2.1768   -5.5039 O   0  0  0  0  0  0  0  0  0  0  0  0
   16.7697   -0.0617  -10.2255 C   0  0  0  0  0  0  0  0  0  0  0  0
   15.6645    0.7831  -10.4524 O   0  0  0  0  0  0  0  0  0  0  0  0
   18.3747    0.4997   -5.5834 O   0  0  0  0  0  0  0  0  0  0  0  0
   17.7900    0.0355  -10.9484 O   0  0  0  0  0  0  0  0  0  0  0  0
  2  1  1  6
  2  4  1  0
  3  2  1  0
  4  5  1  6
  6  4  1  0
  6  7  2  0
  9  8  1  0
 10  9  2  0
 11 10  1  0
 12 11  2  0
 12 18  1  0
 14 13  1  6
 13 12  1  0
 14 15  1  0
 15  6  1  0
 16 14  1  0
 17 16  2  0
 18 19  2  0
 19  9  1  0
 20 16  1  0
 21 22  1  1
 21 20  1  0
 22 23  1  0
 23 24  1  0
 24 28  1  0
 25 24  2  0
 26 27  1  0
 26 21  1  0
 29 26  2  0
M  END
$$$$
