TYE.pdb
     RDKit          3D

 29 29  0  0  1  0  0  0  0  0999 V2000
   20.1697   -7.1769  -20.7429 C   0  0  0  0  0  0  0  0  0  0  0  0
   19.6533   -8.4957  -21.2078 C   0  0  1  0  0  0  0  0  0  0  0  0
   19.9148   -8.6662  -22.5504 O   0  0  0  0  0  0  0  0  0  0  0  0
   20.1598   -9.6680  -20.3752 C   0  0  2  0  0  0  0  0  0  0  0  0
   19.6573  -10.8976  -20.9062 N   0  0  0  0  0  0  0  0  0  0  0  0
   19.8732   -9.4766  -18.9304 C   0  0  0  0  0  0  0  0  0  0  0  0
   18.6975   -9.5599  -18.5498 O   0  0  0  0  0  0  0  0  0  0  0  0
   17.6760  -14.6421  -16.3080 O   0  0  0  0  0  0  0  0  0  0  0  0
   18.4907  -13.5104  -16.1405 C   0  0  0  0  0  0  0  0  0  0  0  0
   19.7054  -13.4399  -16.7840 C   0  0  0  0  0  0  0  0  0  0  0  0
   20.5076  -12.3253  -16.6189 C   0  0  0  0  0  0  0  0  0  0  0  0
   20.1532  -11.2558  -15.8291 C   0  0  0  0  0  0  0  0  0  0  0  0
   21.0315  -10.0741  -15.6694 C   0  0  0  0  0  0  0  0  0  0  0  0
   20.6744   -8.9539  -16.5920 C   0  0  2  0  0  0  0  0  0  0  0  0
   20.8745   -9.2054  -17.9754 N   0  0  0  0  0  0  0  0  0  0  0  0
   21.3911   -7.7163  -16.1990 C   0  0  0  0  0  0  0  0  0  0  0  0
   22.6280   -7.5902  -16.4955 O   0  0  0  0  0  0  0  0  0  0  0  0
   18.9244  -11.3521  -15.1919 C   0  0  0  0  0  0  0  0  0  0  0  0
   18.1143  -12.4563  -15.3467 C   0  0  0  0  0  0  0  0  0  0  0  0
   20.7893   -6.6511  -15.5091 N   0  0  0  0  0  0  0  0  0  0  0  0
   21.5111   -5.3834  -15.2411 C   0  0  1  0  0  0  0  0  0  0  0  0
   20.5519   -4.2656  -15.5156 C   0  0  0  0  0  0  0  0  0  0  0  0
   19.6033   -4.0854  -14.3758 C   0  0  0  0  0  0  0  0  0  0  0  0
   18.6226   -2.9862  -14.6498 C   0  0  0  0  0  0  0  0  0  0  0  0
   18.9383   -1.7902  -14.4729 O   0  0  0  0  0  0  0  0  0  0  0  0
   22.0806   -5.3946  -13.8934 C   0  0  0  0  0  0  0  0  0  0  0  0
   23.0036   -4.3772  -13.5779 O   0  0  0  0  0  0  0  0  0  0  0  0
   17.3572   -3.3031  -15.1023 O   0  0  0  0  0  0  0  0  0  0  0  0
   21.7821   -6.2571  -13.0331 O   0  0  0  0  0  0  0  0  0  0  0  0
  2  1  1  1
  2  4  1  0
  3  2  1  0
  4  5  1  6
  6  4  1  0
  6  7  2  0
  9  8  1  0
 10  9  2  0
 11 10  1  0
 12 11  2  0
 12 18  1  0
 14 13  1  1
 13 12  1  0
 14 15  1  0
 15  6  1  0
 16 14  1  0
 17 16  2  0
 18 19  2  0
 19  9  1  0
 20 16  1  0
 21 22  1  1
 21 20  1  0
 22 23  1  0
 23 24  1  0
 24 28  1  0
 25 24  2  0
 26 27  1  0
 26 21  1  0
 29 26  2  0
M  END
$$$$
