TYE.pdb
     RDKit          3D

 29 29  0  0  1  0  0  0  0  0999 V2000
   28.2122  -19.4674  -18.9476 C   0  0  0  0  0  0  0  0  0  0  0  0
   27.3595  -19.8389  -17.7827 C   0  0  1  0  0  0  0  0  0  0  0  0
   26.0264  -19.7882  -18.1294 O   0  0  0  0  0  0  0  0  0  0  0  0
   27.7368  -21.1801  -17.1640 C   0  0  2  0  0  0  0  0  0  0  0  0
   27.6393  -22.2158  -18.1458 N   0  0  0  0  0  0  0  0  0  0  0  0
   26.9593  -21.4500  -15.9276 C   0  0  0  0  0  0  0  0  0  0  0  0
   25.9508  -22.1638  -16.0134 O   0  0  0  0  0  0  0  0  0  0  0  0
   23.8997  -20.6666   -7.6166 O   0  0  0  0  0  0  0  0  0  0  0  0
   24.7306  -20.6784   -8.7489 C   0  0  0  0  0  0  0  0  0  0  0  0
   25.2034  -19.4925   -9.2635 C   0  0  0  0  0  0  0  0  0  0  0  0
   26.0215  -19.5043  -10.3788 C   0  0  0  0  0  0  0  0  0  0  0  0
   26.4000  -20.6615  -11.0197 C   0  0  0  0  0  0  0  0  0  0  0  0
   27.2773  -20.6458  -12.2128 C   0  0  0  0  0  0  0  0  0  0  0  0
   26.5674  -21.0526  -13.4634 C   0  0  2  0  0  0  0  0  0  0  0  0
   27.3151  -20.9327  -14.6651 N   0  0  0  0  0  0  0  0  0  0  0  0
   25.2890  -20.3119  -13.5928 C   0  0  0  0  0  0  0  0  0  0  0  0
   25.3146  -19.0706  -13.8967 O   0  0  0  0  0  0  0  0  0  0  0  0
   25.9099  -21.8425  -10.4810 C   0  0  0  0  0  0  0  0  0  0  0  0
   25.0937  -21.8466   -9.3704 C   0  0  0  0  0  0  0  0  0  0  0  0
   24.0258  -20.8950  -13.4003 N   0  0  0  0  0  0  0  0  0  0  0  0
   22.7836  -20.0849  -13.3799 C   0  0  1  0  0  0  0  0  0  0  0  0
   22.3586  -19.8967  -14.8043 C   0  0  0  0  0  0  0  0  0  0  0  0
   21.6332  -21.1017  -15.3076 C   0  0  0  0  0  0  0  0  0  0  0  0
   20.8958  -20.8046  -16.5776 C   0  0  0  0  0  0  0  0  0  0  0  0
   21.0603  -19.7180  -17.1721 O   0  0  0  0  0  0  0  0  0  0  0  0
   21.7829  -20.7054  -12.5113 C   0  0  0  0  0  0  0  0  0  0  0  0
   20.6932  -19.9051  -12.1132 O   0  0  0  0  0  0  0  0  0  0  0  0
   20.0257  -21.7449  -17.0929 O   0  0  0  0  0  0  0  0  0  0  0  0
   21.8615  -21.8945  -12.1201 O   0  0  0  0  0  0  0  0  0  0  0  0
  2  1  1  6
  2  4  1  0
  3  2  1  0
  4  5  1  6
  6  4  1  0
  6  7  2  0
  9  8  1  0
 10  9  2  0
 11 10  1  0
 12 11  2  0
 12 18  1  0
 14 13  1  1
 13 12  1  0
 14 15  1  0
 15  6  1  0
 16 14  1  0
 17 16  2  0
 18 19  2  0
 19  9  1  0
 20 16  1  0
 21 22  1  6
 21 20  1  0
 22 23  1  0
 23 24  1  0
 24 28  1  0
 25 24  2  0
 26 27  1  0
 26 21  1  0
 29 26  2  0
M  END
$$$$
