TYE.pdb
     RDKit          3D

 29 29  0  0  1  0  0  0  0  0999 V2000
   29.9816  -21.7830  -19.5835 C   0  0  0  0  0  0  0  0  0  0  0  0
   28.9130  -21.7797  -18.5442 C   0  0  1  0  0  0  0  0  0  0  0  0
   27.6699  -21.8546  -19.1351 O   0  0  0  0  0  0  0  0  0  0  0  0
   29.1042  -22.8550  -17.4807 C   0  0  2  0  0  0  0  0  0  0  0  0
   29.1187  -24.1487  -18.0911 N   0  0  0  0  0  0  0  0  0  0  0  0
   28.1131  -22.7205  -16.3826 C   0  0  0  0  0  0  0  0  0  0  0  0
   27.1740  -23.5269  -16.3385 O   0  0  0  0  0  0  0  0  0  0  0  0
   23.8728  -19.9426   -9.0941 O   0  0  0  0  0  0  0  0  0  0  0  0
   24.8439  -20.1719  -10.0825 C   0  0  0  0  0  0  0  0  0  0  0  0
   25.2198  -19.1490  -10.9233 C   0  0  0  0  0  0  0  0  0  0  0  0
   26.1761  -19.3749  -11.8968 C   0  0  0  0  0  0  0  0  0  0  0  0
   26.7890  -20.5933  -12.0782 C   0  0  0  0  0  0  0  0  0  0  0  0
   27.8103  -20.8084  -13.1290 C   0  0  0  0  0  0  0  0  0  0  0  0
   27.2684  -21.5073  -14.3338 C   0  0  2  0  0  0  0  0  0  0  0  0
   28.1918  -21.7206  -15.3916 N   0  0  0  0  0  0  0  0  0  0  0  0
   26.0739  -20.7940  -14.8477 C   0  0  0  0  0  0  0  0  0  0  0  0
   26.2213  -19.8943  -15.7437 O   0  0  0  0  0  0  0  0  0  0  0  0
   26.3921  -21.6071  -11.2180 C   0  0  0  0  0  0  0  0  0  0  0  0
   25.4406  -21.3970  -10.2433 C   0  0  0  0  0  0  0  0  0  0  0  0
   24.7643  -21.0463  -14.4073 N   0  0  0  0  0  0  0  0  0  0  0  0
   23.6006  -20.2949  -14.9377 C   0  0  1  0  0  0  0  0  0  0  0  0
   23.5312  -20.5736  -16.4082 C   0  0  0  0  0  0  0  0  0  0  0  0
   23.0396  -21.9605  -16.6652 C   0  0  0  0  0  0  0  0  0  0  0  0
   22.1482  -22.0101  -17.8684 C   0  0  0  0  0  0  0  0  0  0  0  0
   20.9302  -22.2630  -17.7506 O   0  0  0  0  0  0  0  0  0  0  0  0
   22.3907  -20.6290  -14.1857 C   0  0  0  0  0  0  0  0  0  0  0  0
   21.2448  -19.8464  -14.4324 O   0  0  0  0  0  0  0  0  0  0  0  0
   22.6828  -21.7730  -19.1192 O   0  0  0  0  0  0  0  0  0  0  0  0
   22.3418  -21.5639  -13.3512 O   0  0  0  0  0  0  0  0  0  0  0  0
  2  1  1  6
  2  4  1  0
  3  2  1  0
  4  5  1  6
  6  4  1  0
  6  7  2  0
  9  8  1  0
 10  9  2  0
 11 10  1  0
 12 11  2  0
 12 18  1  0
 14 13  1  1
 13 12  1  0
 14 15  1  0
 15  6  1  0
 16 14  1  0
 17 16  2  0
 18 19  2  0
 19  9  1  0
 20 16  1  0
 21 22  1  6
 21 20  1  0
 22 23  1  0
 23 24  1  0
 24 28  1  0
 25 24  2  0
 26 27  1  0
 26 21  1  0
 29 26  2  0
M  END
$$$$
