TYE.pdb
     RDKit          3D

 29 29  0  0  1  0  0  0  0  0999 V2000
   31.1570   -9.0172  -18.2713 C   0  0  0  0  0  0  0  0  0  0  0  0
   31.3357  -10.2599  -19.0750 C   0  0  1  0  0  0  0  0  0  0  0  0
   32.6655  -10.4393  -19.3903 O   0  0  0  0  0  0  0  0  0  0  0  0
   30.7349  -11.4956  -18.4145 C   0  0  2  0  0  0  0  0  0  0  0  0
   31.0764  -12.6651  -19.1642 N   0  0  0  0  0  0  0  0  0  0  0  0
   29.2766  -11.3366  -18.1815 C   0  0  0  0  0  0  0  0  0  0  0  0
   28.5043  -11.5642  -19.1228 O   0  0  0  0  0  0  0  0  0  0  0  0
   21.4137   -9.5192  -14.5193 O   0  0  0  0  0  0  0  0  0  0  0  0
   22.7744   -9.8162  -14.7007 C   0  0  0  0  0  0  0  0  0  0  0  0
   23.1582  -11.0979  -15.0241 C   0  0  0  0  0  0  0  0  0  0  0  0
   24.4983  -11.3903  -15.2026 C   0  0  0  0  0  0  0  0  0  0  0  0
   25.4952  -10.4509  -15.0727 C   0  0  0  0  0  0  0  0  0  0  0  0
   26.9232  -10.7909  -15.2692 C   0  0  0  0  0  0  0  0  0  0  0  0
   27.3747  -10.6151  -16.6830 C   0  0  2  0  0  0  0  0  0  0  0  0
   28.7328  -10.9398  -16.9427 N   0  0  0  0  0  0  0  0  0  0  0  0
   27.0927   -9.2342  -17.1446 C   0  0  0  0  0  0  0  0  0  0  0  0
   27.9673   -8.3215  -16.9547 O   0  0  0  0  0  0  0  0  0  0  0  0
   25.0815   -9.1673  -14.7464 C   0  0  0  0  0  0  0  0  0  0  0  0
   23.7501   -8.8609  -14.5653 C   0  0  0  0  0  0  0  0  0  0  0  0
   25.9047   -8.8540  -17.7902 N   0  0  0  0  0  0  0  0  0  0  0  0
   25.7191   -7.4944  -18.3532 C   0  0  1  0  0  0  0  0  0  0  0  0
   26.5665   -7.4103  -19.5861 C   0  0  0  0  0  0  0  0  0  0  0  0
   26.3479   -6.1141  -20.2956 C   0  0  0  0  0  0  0  0  0  0  0  0
   27.1938   -6.0166  -21.5284 C   0  0  0  0  0  0  0  0  0  0  0  0
   26.8414   -6.5735  -22.5901 O   0  0  0  0  0  0  0  0  0  0  0  0
   24.2975   -7.2156  -18.5580 C   0  0  0  0  0  0  0  0  0  0  0  0
   23.9112   -5.8616  -18.6214 O   0  0  0  0  0  0  0  0  0  0  0  0
   28.3749   -5.3026  -21.4863 O   0  0  0  0  0  0  0  0  0  0  0  0
   23.4347   -8.1183  -18.6757 O   0  0  0  0  0  0  0  0  0  0  0  0
  2  1  1  1
  2  4  1  0
  3  2  1  0
  4  5  1  6
  6  4  1  0
  6  7  2  0
  9  8  1  0
 10  9  2  0
 11 10  1  0
 12 11  2  0
 12 18  1  0
 14 13  1  1
 13 12  1  0
 14 15  1  0
 15  6  1  0
 16 14  1  0
 17 16  2  0
 18 19  2  0
 19  9  1  0
 20 16  1  0
 21 22  1  6
 21 20  1  0
 22 23  1  0
 23 24  1  0
 24 28  1  0
 25 24  2  0
 26 27  1  0
 26 21  1  0
 29 26  2  0
M  END
$$$$
