TYE.pdb
     RDKit          3D

 29 29  0  0  1  0  0  0  0  0999 V2000
   27.1294  -21.6040  -20.6288 C   0  0  0  0  0  0  0  0  0  0  0  0
   26.7384  -21.9524  -19.2331 C   0  0  1  0  0  0  0  0  0  0  0  0
   27.7822  -22.5773  -18.5850 O   0  0  0  0  0  0  0  0  0  0  0  0
   26.2069  -20.7625  -18.4421 C   0  0  2  0  0  0  0  0  0  0  0  0
   27.1942  -19.7285  -18.3926 N   0  0  0  0  0  0  0  0  0  0  0  0
   25.7021  -21.1748  -17.1074 C   0  0  0  0  0  0  0  0  0  0  0  0
   24.7561  -21.9728  -17.0593 O   0  0  0  0  0  0  0  0  0  0  0  0
   23.9745  -20.8130   -8.4125 O   0  0  0  0  0  0  0  0  0  0  0  0
   24.6345  -20.7229   -9.6490 C   0  0  0  0  0  0  0  0  0  0  0  0
   24.0819  -21.3104  -10.7644 C   0  0  0  0  0  0  0  0  0  0  0  0
   24.7321  -21.2216  -11.9820 C   0  0  0  0  0  0  0  0  0  0  0  0
   25.9291  -20.5637  -12.1475 C   0  0  0  0  0  0  0  0  0  0  0  0
   26.6045  -20.4839  -13.4631 C   0  0  0  0  0  0  0  0  0  0  0  0
   25.7341  -20.9305  -14.5929 C   0  0  2  0  0  0  0  0  0  0  0  0
   26.2482  -20.7011  -15.8969 N   0  0  0  0  0  0  0  0  0  0  0  0
   24.3852  -20.3256  -14.4726 C   0  0  0  0  0  0  0  0  0  0  0  0
   24.2580  -19.0579  -14.5751 O   0  0  0  0  0  0  0  0  0  0  0  0
   26.4644  -19.9807  -11.0079 C   0  0  0  0  0  0  0  0  0  0  0  0
   25.8283  -20.0608   -9.7879 C   0  0  0  0  0  0  0  0  0  0  0  0
   23.2138  -21.0677  -14.2495 N   0  0  0  0  0  0  0  0  0  0  0  0
   21.8878  -20.4172  -14.1139 C   0  0  1  0  0  0  0  0  0  0  0  0
   21.0601  -20.8600  -15.2817 C   0  0  0  0  0  0  0  0  0  0  0  0
   19.7185  -20.2034  -15.2636 C   0  0  0  0  0  0  0  0  0  0  0  0
   18.8485  -20.7073  -16.3745 C   0  0  0  0  0  0  0  0  0  0  0  0
   17.7989  -20.1055  -16.6865 O   0  0  0  0  0  0  0  0  0  0  0  0
   21.3099  -20.7033  -12.8005 C   0  0  0  0  0  0  0  0  0  0  0  0
   20.6327  -19.6500  -12.1537 O   0  0  0  0  0  0  0  0  0  0  0  0
   19.2145  -21.8499  -17.0580 O   0  0  0  0  0  0  0  0  0  0  0  0
   21.3955  -21.8254  -12.2467 O   0  0  0  0  0  0  0  0  0  0  0  0
  2  1  1  6
  2  4  1  0
  3  2  1  0
  4  5  1  1
  6  4  1  0
  6  7  2  0
  9  8  1  0
 10  9  2  0
 11 10  1  0
 12 11  2  0
 12 18  1  0
 14 13  1  1
 13 12  1  0
 14 15  1  0
 15  6  1  0
 16 14  1  0
 17 16  2  0
 18 19  2  0
 19  9  1  0
 20 16  1  0
 21 22  1  6
 21 20  1  0
 22 23  1  0
 23 24  1  0
 24 28  1  0
 25 24  2  0
 26 27  1  0
 26 21  1  0
 29 26  2  0
M  END
$$$$
