TYE.pdb
     RDKit          3D

 29 29  0  0  1  0  0  0  0  0999 V2000
   28.1325  -36.2771   -2.8698 C   0  0  0  0  0  0  0  0  0  0  0  0
   29.4927  -36.8842   -2.9278 C   0  0  1  0  0  0  0  0  0  0  0  0
   29.7705  -37.3157   -4.2071 O   0  0  0  0  0  0  0  0  0  0  0  0
   30.5843  -35.9685   -2.3857 C   0  0  2  0  0  0  0  0  0  0  0  0
   31.8672  -36.5721   -2.5755 N   0  0  0  0  0  0  0  0  0  0  0  0
   30.3125  -35.5650   -0.9823 C   0  0  0  0  0  0  0  0  0  0  0  0
   30.5420  -36.3841   -0.0819 O   0  0  0  0  0  0  0  0  0  0  0  0
   27.3021  -31.0523    6.0545 O   0  0  0  0  0  0  0  0  0  0  0  0
   27.7553  -31.3919    4.7692 C   0  0  0  0  0  0  0  0  0  0  0  0
   26.8547  -31.5125    3.7354 C   0  0  0  0  0  0  0  0  0  0  0  0
   27.3012  -31.8471    2.4697 C   0  0  0  0  0  0  0  0  0  0  0  0
   28.6266  -32.0718    2.1765 C   0  0  0  0  0  0  0  0  0  0  0  0
   29.0780  -32.4291    0.8119 C   0  0  0  0  0  0  0  0  0  0  0  0
   29.4108  -33.8791    0.6693 C   0  0  2  0  0  0  0  0  0  0  0  0
   29.8070  -34.2971   -0.6290 N   0  0  0  0  0  0  0  0  0  0  0  0
   28.2801  -34.7147    1.1414 C   0  0  0  0  0  0  0  0  0  0  0  0
   27.3890  -35.0895    0.3053 O   0  0  0  0  0  0  0  0  0  0  0  0
   29.5133  -31.9438    3.2360 C   0  0  0  0  0  0  0  0  0  0  0  0
   29.0833  -31.6112    4.5025 C   0  0  0  0  0  0  0  0  0  0  0  0
   28.1197  -35.1309    2.4732 N   0  0  0  0  0  0  0  0  0  0  0  0
   27.0159  -36.0319    2.8852 C   0  0  1  0  0  0  0  0  0  0  0  0
   27.1012  -37.2538    2.0222 C   0  0  0  0  0  0  0  0  0  0  0  0
   26.0889  -38.2709    2.4369 C   0  0  0  0  0  0  0  0  0  0  0  0
   26.2202  -39.5305    1.6362 C   0  0  0  0  0  0  0  0  0  0  0  0
   26.8334  -40.5177    2.0952 O   0  0  0  0  0  0  0  0  0  0  0  0
   27.0731  -36.2850    4.3252 C   0  0  0  0  0  0  0  0  0  0  0  0
   28.1413  -35.7035    5.0375 O   0  0  0  0  0  0  0  0  0  0  0  0
   25.6559  -39.5964    0.3777 O   0  0  0  0  0  0  0  0  0  0  0  0
   26.2252  -36.9839    4.9299 O   0  0  0  0  0  0  0  0  0  0  0  0
  2  1  1  6
  2  4  1  0
  3  2  1  0
  4  5  1  1
  6  4  1  0
  6  7  2  0
  9  8  1  0
 10  9  2  0
 11 10  1  0
 12 11  2  0
 12 18  1  0
 14 13  1  6
 13 12  1  0
 14 15  1  0
 15  6  1  0
 16 14  1  0
 17 16  2  0
 18 19  2  0
 19  9  1  0
 20 16  1  0
 21 22  1  6
 21 20  1  0
 22 23  1  0
 23 24  1  0
 24 28  1  0
 25 24  2  0
 26 27  1  0
 26 21  1  0
 29 26  2  0
M  END
$$$$
