SVF.pdb
     RDKit          3D

 25 25  0  0  1  0  0  0  0  0999 V2000
   29.4371  -22.1124  -14.8557 O   0  0  0  0  0  0  0  0  0  0  0  0
   28.2935  -22.6404  -15.4464 C   0  0  0  0  0  0  0  0  0  0  0  0
   27.3900  -21.4822  -15.8105 C   0  0  2  0  0  0  0  0  0  0  0  0
   28.0249  -20.5764  -16.7416 N   0  0  0  0  0  0  0  0  0  0  0  0
   26.9742  -20.7226  -14.6079 C   0  0  0  0  0  0  0  0  0  0  0  0
   27.3981  -19.5469  -14.3866 O   0  0  0  0  0  0  0  0  0  0  0  0
   23.7290  -22.3322  -12.4259 C   0  0  0  0  0  0  0  0  0  0  0  0
   23.9824  -20.8543  -12.5794 C   0  0  1  0  0  0  0  0  0  0  0  0
   23.3222  -20.1228  -11.4551 C   0  0  0  0  0  0  0  0  0  0  0  0
   25.4838  -20.5450  -12.6279 C   0  0  2  0  0  0  0  0  0  0  0  0
   26.0912  -21.2990  -13.6790 N   0  0  0  0  0  0  0  0  0  0  0  0
   26.0092  -20.9637  -11.2785 C   0  0  0  0  0  0  0  0  0  0  0  0
   26.2884  -22.1697  -11.0540 O   0  0  0  0  0  0  0  0  0  0  0  0
   26.2061  -20.0418  -10.2325 N   0  0  0  0  0  0  0  0  0  0  0  0
   26.7298  -20.4111   -8.9249 C   0  0  1  0  0  0  0  0  0  0  0  0
   27.7221  -19.3905   -8.4194 C   0  0  0  0  0  0  0  0  0  0  0  0
   28.1405  -19.5990   -7.0403 C   0  0  0  0  0  0  0  0  0  0  0  0
   29.1778  -20.4469   -6.7349 C   0  0  0  0  0  0  0  0  0  0  0  0
   29.6049  -20.6719   -5.4407 C   0  0  0  0  0  0  0  0  0  0  0  0
   28.9598  -20.0157   -4.4176 C   0  0  0  0  0  0  0  0  0  0  0  0
   27.9170  -19.1617   -4.7094 C   0  0  0  0  0  0  0  0  0  0  0  0
   27.4988  -18.9458   -6.0175 C   0  0  0  0  0  0  0  0  0  0  0  0
   25.5932  -20.5948   -7.9893 C   0  0  0  0  0  0  0  0  0  0  0  0
   24.5479  -19.9015   -8.0948 O   0  0  0  0  0  0  0  0  0  0  0  0
   25.6143  -21.5270   -6.9586 O   0  0  0  0  0  0  0  0  0  0  0  0
  2  1  1  0
  3  2  1  0
  3  4  1  6
  5  3  1  0
  5  6  2  0
  8  7  1  1
  8 10  1  0
  9  8  1  0
 10 12  1  0
 10 11  1  6
 11  5  1  0
 12 14  1  0
 13 12  2  0
 14 15  1  0
 15 23  1  0
 15 16  1  1
 17 16  1  0
 17 22  2  0
 18 17  1  0
 19 18  2  0
 19 20  1  0
 20 21  2  0
 21 22  1  0
 23 24  2  0
 23 25  1  0
M  END
$$$$
