SVF.pdb
     RDKit          3D

 25 25  0  0  1  0  0  0  0  0999 V2000
   42.3357  -11.5154   -9.2752 O   0  0  0  0  0  0  0  0  0  0  0  0
   41.7018  -10.5409   -8.5110 C   0  0  0  0  0  0  0  0  0  0  0  0
   42.7748   -9.6480   -7.9263 C   0  0  2  0  0  0  0  0  0  0  0  0
   43.5687  -10.3391   -6.9350 N   0  0  0  0  0  0  0  0  0  0  0  0
   42.1905   -8.4324   -7.3124 C   0  0  0  0  0  0  0  0  0  0  0  0
   41.6754   -8.4569   -6.1527 O   0  0  0  0  0  0  0  0  0  0  0  0
   42.7257   -4.7343   -9.3188 C   0  0  0  0  0  0  0  0  0  0  0  0
   42.4267   -4.8119   -7.8435 C   0  0  1  0  0  0  0  0  0  0  0  0
   41.7523   -3.5496   -7.4114 C   0  0  0  0  0  0  0  0  0  0  0  0
   41.5649   -6.0359   -7.5099 C   0  0  2  0  0  0  0  0  0  0  0  0
   42.1970   -7.2145   -8.0136 N   0  0  0  0  0  0  0  0  0  0  0  0
   40.2487   -5.7823   -8.1995 C   0  0  0  0  0  0  0  0  0  0  0  0
   40.1216   -6.0193   -9.4284 O   0  0  0  0  0  0  0  0  0  0  0  0
   39.1275   -5.2794   -7.5117 N   0  0  0  0  0  0  0  0  0  0  0  0
   37.8154   -5.1209   -8.1229 C   0  0  1  0  0  0  0  0  0  0  0  0
   36.7308   -5.7331   -7.2682 C   0  0  0  0  0  0  0  0  0  0  0  0
   36.8948   -7.1603   -7.0299 C   0  0  0  0  0  0  0  0  0  0  0  0
   36.8397   -7.6774   -5.7580 C   0  0  0  0  0  0  0  0  0  0  0  0
   36.9903   -9.0240   -5.4899 C   0  0  0  0  0  0  0  0  0  0  0  0
   37.2044   -9.8794   -6.5462 C   0  0  0  0  0  0  0  0  0  0  0  0
   37.2621   -9.3744   -7.8282 C   0  0  0  0  0  0  0  0  0  0  0  0
   37.1085   -8.0161   -8.0818 C   0  0  0  0  0  0  0  0  0  0  0  0
   37.5777   -3.6787   -8.3772 C   0  0  0  0  0  0  0  0  0  0  0  0
   38.2256   -2.7955   -7.7570 O   0  0  0  0  0  0  0  0  0  0  0  0
   36.6419   -3.2248   -9.2992 O   0  0  0  0  0  0  0  0  0  0  0  0
  2  1  1  0
  3  2  1  0
  3  4  1  1
  5  3  1  0
  5  6  2  0
  8  7  1  6
  8 10  1  0
  9  8  1  0
 10 12  1  0
 10 11  1  6
 11  5  1  0
 12 14  1  0
 13 12  2  0
 14 15  1  0
 15 23  1  0
 15 16  1  1
 17 16  1  0
 17 22  2  0
 18 17  1  0
 19 18  2  0
 19 20  1  0
 20 21  2  0
 21 22  1  0
 23 24  2  0
 23 25  1  0
M  END
$$$$
