SVF.pdb
     RDKit          3D

 25 25  0  0  1  0  0  0  0  0999 V2000
   27.8585  -16.7575  -15.0889 O   0  0  0  0  0  0  0  0  0  0  0  0
   28.2786  -18.0837  -15.0967 C   0  0  0  0  0  0  0  0  0  0  0  0
   27.0574  -18.9494  -15.3196 C   0  0  2  0  0  0  0  0  0  0  0  0
   26.2654  -18.4853  -16.4367 N   0  0  0  0  0  0  0  0  0  0  0  0
   26.2018  -18.9982  -14.1107 C   0  0  0  0  0  0  0  0  0  0  0  0
   25.2493  -18.1772  -13.9386 O   0  0  0  0  0  0  0  0  0  0  0  0
   23.7139  -21.0748  -13.2384 C   0  0  0  0  0  0  0  0  0  0  0  0
   24.6726  -21.2696  -12.0917 C   0  0  1  0  0  0  0  0  0  0  0  0
   25.4352  -22.5387  -12.2984 C   0  0  0  0  0  0  0  0  0  0  0  0
   25.6241  -20.0755  -11.9475 C   0  0  2  0  0  0  0  0  0  0  0  0
   26.4337  -19.9678  -13.1202 N   0  0  0  0  0  0  0  0  0  0  0  0
   26.4586  -20.3898  -10.7321 C   0  0  0  0  0  0  0  0  0  0  0  0
   27.5416  -21.0184  -10.8529 O   0  0  0  0  0  0  0  0  0  0  0  0
   26.0697  -20.0012   -9.4357 N   0  0  0  0  0  0  0  0  0  0  0  0
   26.8094  -20.3608   -8.2341 C   0  0  1  0  0  0  0  0  0  0  0  0
   27.5519  -19.1737   -7.6672 C   0  0  0  0  0  0  0  0  0  0  0  0
   28.2566  -19.4509   -6.4234 C   0  0  0  0  0  0  0  0  0  0  0  0
   27.7159  -19.1015   -5.2094 C   0  0  0  0  0  0  0  0  0  0  0  0
   28.3517  -19.3465   -4.0079 C   0  0  0  0  0  0  0  0  0  0  0  0
   29.5793  -19.9676   -4.0344 C   0  0  0  0  0  0  0  0  0  0  0  0
   30.1342  -20.3239   -5.2456 C   0  0  0  0  0  0  0  0  0  0  0  0
   29.4815  -20.0704   -6.4466 C   0  0  0  0  0  0  0  0  0  0  0  0
   25.8673  -20.9506   -7.2514 C   0  0  0  0  0  0  0  0  0  0  0  0
   24.6319  -20.7187   -7.3178 O   0  0  0  0  0  0  0  0  0  0  0  0
   26.2853  -21.7796   -6.2171 O   0  0  0  0  0  0  0  0  0  0  0  0
  2  1  1  0
  3  2  1  0
  3  4  1  6
  5  3  1  0
  5  6  2  0
  8  7  1  6
  8 10  1  0
  9  8  1  0
 10 12  1  0
 10 11  1  6
 11  5  1  0
 12 14  1  0
 13 12  2  0
 14 15  1  0
 15 23  1  0
 15 16  1  1
 17 16  1  0
 17 22  2  0
 18 17  1  0
 19 18  2  0
 19 20  1  0
 20 21  2  0
 21 22  1  0
 23 24  2  0
 23 25  1  0
M  END
$$$$
