SVF.pdb
     RDKit          3D

 25 25  0  0  1  0  0  0  0  0999 V2000
   20.4940  -20.8546   -9.8536 O   0  0  0  0  0  0  0  0  0  0  0  0
   20.1273  -19.9144  -10.8113 C   0  0  0  0  0  0  0  0  0  0  0  0
   19.6660  -20.6681  -12.0398 C   0  0  2  0  0  0  0  0  0  0  0  0
   18.7073  -21.6990  -11.7103 N   0  0  0  0  0  0  0  0  0  0  0  0
   20.8078  -21.2843  -12.7559 C   0  0  0  0  0  0  0  0  0  0  0  0
   21.0213  -22.5347  -12.7125 O   0  0  0  0  0  0  0  0  0  0  0  0
   21.9704  -19.4411  -16.0281 C   0  0  0  0  0  0  0  0  0  0  0  0
   22.5189  -20.8178  -15.7527 C   0  0  1  0  0  0  0  0  0  0  0  0
   23.7741  -21.0136  -16.5407 C   0  0  0  0  0  0  0  0  0  0  0  0
   22.7728  -21.0308  -14.2553 C   0  0  2  0  0  0  0  0  0  0  0  0
   21.6861  -20.4835  -13.5057 N   0  0  0  0  0  0  0  0  0  0  0  0
   24.0587  -20.2969  -13.9723 C   0  0  0  0  0  0  0  0  0  0  0  0
   24.0688  -19.0408  -13.9029 O   0  0  0  0  0  0  0  0  0  0  0  0
   25.2790  -20.9719  -13.7774 N   0  0  0  0  0  0  0  0  0  0  0  0
   26.5179  -20.3006  -13.4102 C   0  0  1  0  0  0  0  0  0  0  0  0
   27.1605  -20.9479  -12.2060 C   0  0  0  0  0  0  0  0  0  0  0  0
   26.4133  -20.7760  -10.9680 C   0  0  0  0  0  0  0  0  0  0  0  0
   25.6487  -21.7957  -10.4543 C   0  0  0  0  0  0  0  0  0  0  0  0
   24.9257  -21.6730   -9.2838 C   0  0  0  0  0  0  0  0  0  0  0  0
   24.9774  -20.4757   -8.6076 C   0  0  0  0  0  0  0  0  0  0  0  0
   25.7407  -19.4436   -9.1115 C   0  0  0  0  0  0  0  0  0  0  0  0
   26.4630  -19.5827  -10.2912 C   0  0  0  0  0  0  0  0  0  0  0  0
   27.4222  -20.2894  -14.5864 C   0  0  0  0  0  0  0  0  0  0  0  0
   27.3592  -21.1922  -15.4612 O   0  0  0  0  0  0  0  0  0  0  0  0
   28.3760  -19.2989  -14.7887 O   0  0  0  0  0  0  0  0  0  0  0  0
  2  1  1  0
  3  2  1  0
  3  4  1  1
  5  3  1  0
  5  6  2  0
  8  7  1  1
  8 10  1  0
  9  8  1  0
 10 12  1  0
 10 11  1  1
 11  5  1  0
 12 14  1  0
 13 12  2  0
 14 15  1  0
 15 23  1  0
 15 16  1  1
 17 16  1  0
 17 22  2  0
 18 17  1  0
 19 18  2  0
 19 20  1  0
 20 21  2  0
 21 22  1  0
 23 24  2  0
 23 25  1  0
M  END
$$$$
