SVF.pdb
     RDKit          3D

 25 25  0  0  1  0  0  0  0  0999 V2000
   16.0392  -11.2460  -17.9880 O   0  0  0  0  0  0  0  0  0  0  0  0
   16.5208  -10.7729  -16.7716 C   0  0  0  0  0  0  0  0  0  0  0  0
   17.6472  -11.6862  -16.3387 C   0  0  2  0  0  0  0  0  0  0  0  0
   17.1522  -12.8894  -15.7080 N   0  0  0  0  0  0  0  0  0  0  0  0
   18.5714  -10.9994  -15.4059 C   0  0  0  0  0  0  0  0  0  0  0  0
   18.2236  -10.7109  -14.2199 O   0  0  0  0  0  0  0  0  0  0  0  0
   22.5726  -10.2297  -16.7175 C   0  0  0  0  0  0  0  0  0  0  0  0
   22.2061  -10.3891  -15.2641 C   0  0  1  0  0  0  0  0  0  0  0  0
   23.1834   -9.6310  -14.4245 C   0  0  0  0  0  0  0  0  0  0  0  0
   20.7712   -9.9204  -14.9932 C   0  0  2  0  0  0  0  0  0  0  0  0
   19.8670  -10.6510  -15.8245 N   0  0  0  0  0  0  0  0  0  0  0  0
   20.7710   -8.4534  -15.3399 C   0  0  0  0  0  0  0  0  0  0  0  0
   20.7943   -8.0871  -16.5432 O   0  0  0  0  0  0  0  0  0  0  0  0
   20.7454   -7.4503  -14.3519 N   0  0  0  0  0  0  0  0  0  0  0  0
   20.7359   -6.0259  -14.6542 C   0  0  1  0  0  0  0  0  0  0  0  0
   20.1254   -5.2266  -13.5272 C   0  0  0  0  0  0  0  0  0  0  0  0
   20.0412   -3.7966  -13.7890 C   0  0  0  0  0  0  0  0  0  0  0  0
   21.1157   -2.9703  -13.5634 C   0  0  0  0  0  0  0  0  0  0  0  0
   21.0765   -1.6098  -13.7987 C   0  0  0  0  0  0  0  0  0  0  0  0
   19.9084   -1.0643  -14.2796 C   0  0  0  0  0  0  0  0  0  0  0  0
   18.8219   -1.8817  -14.5107 C   0  0  0  0  0  0  0  0  0  0  0  0
   18.8771   -3.2496  -14.2688 C   0  0  0  0  0  0  0  0  0  0  0  0
   22.1220   -5.5927  -14.9582 C   0  0  0  0  0  0  0  0  0  0  0  0
   22.3811   -4.9297  -15.9963 O   0  0  0  0  0  0  0  0  0  0  0  0
   23.1980   -5.8878  -14.1293 O   0  0  0  0  0  0  0  0  0  0  0  0
  2  1  1  0
  3  2  1  0
  3  4  1  1
  5  3  1  0
  5  6  2  0
  8  7  1  6
  8 10  1  0
  9  8  1  0
 10 12  1  0
 10 11  1  6
 11  5  1  0
 12 14  1  0
 13 12  2  0
 14 15  1  0
 15 23  1  0
 15 16  1  1
 17 16  1  0
 17 22  2  0
 18 17  1  0
 19 18  2  0
 19 20  1  0
 20 21  2  0
 21 22  1  0
 23 24  2  0
 23 25  1  0
M  END
$$$$
