SVF.pdb
     RDKit          3D

 25 25  0  0  1  0  0  0  0  0999 V2000
   13.5330  -20.6316    2.3946 O   0  0  0  0  0  0  0  0  0  0  0  0
   14.0088  -20.1362    1.1848 C   0  0  0  0  0  0  0  0  0  0  0  0
   15.3375  -20.8052    0.9069 C   0  0  2  0  0  0  0  0  0  0  0  0
   15.1974  -22.2356    0.7494 N   0  0  0  0  0  0  0  0  0  0  0  0
   16.3154  -20.5336    1.9868 C   0  0  0  0  0  0  0  0  0  0  0  0
   16.7887  -21.4681    2.7035 O   0  0  0  0  0  0  0  0  0  0  0  0
   19.5518  -18.3466    1.6445 C   0  0  0  0  0  0  0  0  0  0  0  0
   18.6515  -17.8175    2.7315 C   0  0  1  0  0  0  0  0  0  0  0  0
   17.8874  -16.6436    2.2091 C   0  0  0  0  0  0  0  0  0  0  0  0
   17.7010  -18.9036    3.2502 C   0  0  2  0  0  0  0  0  0  0  0  0
   16.7412  -19.2184    2.2393 N   0  0  0  0  0  0  0  0  0  0  0  0
   17.0418  -18.2949    4.4616 C   0  0  0  0  0  0  0  0  0  0  0  0
   15.9880  -17.6194    4.3367 O   0  0  0  0  0  0  0  0  0  0  0  0
   17.5667  -18.4531    5.7587 N   0  0  0  0  0  0  0  0  0  0  0  0
   16.9572  -17.8736    6.9474 C   0  0  1  0  0  0  0  0  0  0  0  0
   16.5349  -18.9423    7.9279 C   0  0  0  0  0  0  0  0  0  0  0  0
   15.8762  -18.4291    9.1209 C   0  0  0  0  0  0  0  0  0  0  0  0
   16.5601  -18.2923   10.3048 C   0  0  0  0  0  0  0  0  0  0  0  0
   15.9722  -17.8099   11.4579 C   0  0  0  0  0  0  0  0  0  0  0  0
   14.6442  -17.4526   11.4127 C   0  0  0  0  0  0  0  0  0  0  0  0
   13.9452  -17.5845   10.2312 C   0  0  0  0  0  0  0  0  0  0  0  0
   14.5513  -18.0718    9.0788 C   0  0  0  0  0  0  0  0  0  0  0  0
   17.9090  -16.9083    7.5503 C   0  0  0  0  0  0  0  0  0  0  0  0
   19.1472  -17.1351    7.5542 O   0  0  0  0  0  0  0  0  0  0  0  0
   17.4975  -15.7171    8.1363 O   0  0  0  0  0  0  0  0  0  0  0  0
  2  1  1  0
  3  2  1  0
  3  4  1  1
  5  3  1  0
  5  6  2  0
  8  7  1  6
  8 10  1  0
  9  8  1  0
 10 12  1  0
 10 11  1  6
 11  5  1  0
 12 14  1  0
 13 12  2  0
 14 15  1  0
 15 23  1  0
 15 16  1  1
 17 16  1  0
 17 22  2  0
 18 17  1  0
 19 18  2  0
 19 20  1  0
 20 21  2  0
 21 22  1  0
 23 24  2  0
 23 25  1  0
M  END
$$$$
