SVF.pdb
     RDKit          3D

 25 25  0  0  1  0  0  0  0  0999 V2000
   26.2407  -11.8669  -16.2308 O   0  0  0  0  0  0  0  0  0  0  0  0
   25.2607  -12.2721  -15.3303 C   0  0  0  0  0  0  0  0  0  0  0  0
   24.0137  -12.5941  -16.1251 C   0  0  2  0  0  0  0  0  0  0  0  0
   24.3100  -13.4008  -17.2878 N   0  0  0  0  0  0  0  0  0  0  0  0
   23.3170  -11.3607  -16.5603 C   0  0  0  0  0  0  0  0  0  0  0  0
   23.5309  -10.8450  -17.7001 O   0  0  0  0  0  0  0  0  0  0  0  0
   19.7866  -10.5709  -14.7497 C   0  0  0  0  0  0  0  0  0  0  0  0
   20.1565   -9.8729  -16.0334 C   0  0  1  0  0  0  0  0  0  0  0  0
   19.3530   -8.6186  -16.1603 C   0  0  0  0  0  0  0  0  0  0  0  0
   21.6588   -9.5700  -16.0940 C   0  0  2  0  0  0  0  0  0  0  0  0
   22.3945  -10.7323  -15.7064 N   0  0  0  0  0  0  0  0  0  0  0  0
   21.8656   -8.4396  -15.1184 C   0  0  0  0  0  0  0  0  0  0  0  0
   21.8276   -8.6571  -13.8799 O   0  0  0  0  0  0  0  0  0  0  0  0
   22.1052   -7.1185  -15.5428 N   0  0  0  0  0  0  0  0  0  0  0  0
   22.4299   -6.0294  -14.6324 C   0  0  1  0  0  0  0  0  0  0  0  0
   23.8884   -5.6476  -14.7266 C   0  0  0  0  0  0  0  0  0  0  0  0
   24.3082   -5.2226  -16.0546 C   0  0  0  0  0  0  0  0  0  0  0  0
   24.1852   -3.9128  -16.4514 C   0  0  0  0  0  0  0  0  0  0  0  0
   24.5711   -3.4695  -17.7013 C   0  0  0  0  0  0  0  0  0  0  0  0
   25.1010   -4.3837  -18.5827 C   0  0  0  0  0  0  0  0  0  0  0  0
   25.2304   -5.7018  -18.1981 C   0  0  0  0  0  0  0  0  0  0  0  0
   24.8371   -6.1324  -16.9361 C   0  0  0  0  0  0  0  0  0  0  0  0
   21.5336   -4.8826  -14.9202 C   0  0  0  0  0  0  0  0  0  0  0  0
   20.8510   -4.8425  -15.9769 O   0  0  0  0  0  0  0  0  0  0  0  0
   21.3967   -3.8033  -14.0552 O   0  0  0  0  0  0  0  0  0  0  0  0
  2  1  1  0
  3  2  1  0
  3  4  1  6
  5  3  1  0
  5  6  2  0
  8  7  1  1
  8 10  1  0
  9  8  1  0
 10 12  1  0
 10 11  1  1
 11  5  1  0
 12 14  1  0
 13 12  2  0
 14 15  1  0
 15 23  1  0
 15 16  1  6
 17 16  1  0
 17 22  2  0
 18 17  1  0
 19 18  2  0
 19 20  1  0
 20 21  2  0
 21 22  1  0
 23 24  2  0
 23 25  1  0
M  END
$$$$
