SVF.pdb
     RDKit          3D

 25 25  0  0  1  0  0  0  0  0999 V2000
   25.0166  -16.6820  -14.0249 O   0  0  0  0  0  0  0  0  0  0  0  0
   26.3392  -16.5222  -13.6242 C   0  0  0  0  0  0  0  0  0  0  0  0
   27.1694  -17.5474  -14.3659 C   0  0  2  0  0  0  0  0  0  0  0  0
   26.9461  -17.4900  -15.7932 N   0  0  0  0  0  0  0  0  0  0  0  0
   26.8837  -18.9211  -13.8892 C   0  0  0  0  0  0  0  0  0  0  0  0
   26.1483  -19.7142  -14.5532 O   0  0  0  0  0  0  0  0  0  0  0  0
   28.9471  -21.4738  -13.9340 C   0  0  0  0  0  0  0  0  0  0  0  0
   28.5652  -21.5026  -12.4761 C   0  0  1  0  0  0  0  0  0  0  0  0
   29.6920  -20.9530  -11.6617 C   0  0  0  0  0  0  0  0  0  0  0  0
   27.2711  -20.7204  -12.2200 C   0  0  2  0  0  0  0  0  0  0  0  0
   27.4297  -19.3755  -12.6766 N   0  0  0  0  0  0  0  0  0  0  0  0
   27.0761  -20.7729  -10.7262 C   0  0  0  0  0  0  0  0  0  0  0  0
   28.0567  -20.6171   -9.9537 O   0  0  0  0  0  0  0  0  0  0  0  0
   25.8136  -20.9940  -10.1430 N   0  0  0  0  0  0  0  0  0  0  0  0
   25.5648  -20.9085   -8.7108 C   0  0  1  0  0  0  0  0  0  0  0  0
   26.0610  -19.6002   -8.1416 C   0  0  0  0  0  0  0  0  0  0  0  0
   26.9650  -19.7481   -7.0096 C   0  0  0  0  0  0  0  0  0  0  0  0
   27.5639  -18.6539   -6.4332 C   0  0  0  0  0  0  0  0  0  0  0  0
   28.4268  -18.7515   -5.3590 C   0  0  0  0  0  0  0  0  0  0  0  0
   28.6941  -20.0011   -4.8486 C   0  0  0  0  0  0  0  0  0  0  0  0
   28.1000  -21.1083   -5.4170 C   0  0  0  0  0  0  0  0  0  0  0  0
   27.2335  -20.9935   -6.4981 C   0  0  0  0  0  0  0  0  0  0  0  0
   24.1157  -21.1099   -8.4646 C   0  0  0  0  0  0  0  0  0  0  0  0
   23.2630  -20.8301   -9.3472 O   0  0  0  0  0  0  0  0  0  0  0  0
   23.6220  -21.6108   -7.2658 O   0  0  0  0  0  0  0  0  0  0  0  0
  2  1  1  0
  3  2  1  0
  3  4  1  6
  5  3  1  0
  5  6  2  0
  8  7  1  6
  8 10  1  0
  9  8  1  0
 10 12  1  0
 10 11  1  1
 11  5  1  0
 12 14  1  0
 13 12  2  0
 14 15  1  0
 15 23  1  0
 15 16  1  6
 17 16  1  0
 17 22  2  0
 18 17  1  0
 19 18  2  0
 19 20  1  0
 20 21  2  0
 21 22  1  0
 23 24  2  0
 23 25  1  0
M  END
$$$$
