QAI.pdb
     RDKit          3D

 23 22  0  0  1  0  0  0  0  0999 V2000
   10.1176  -12.5904   18.3140 N   0  0  0  0  0  0  0  0  0  0  0  0
    8.9987  -13.1769   17.6224 C   0  0  0  0  0  0  0  0  0  0  0  0
    9.2903  -13.7701   16.5551 O   0  0  0  0  0  0  0  0  0  0  0  0
    7.6308  -13.0825   18.1362 C   0  0  0  0  0  0  0  0  0  0  0  0
    7.4060  -13.7300   19.4712 C   0  0  0  0  0  0  0  0  0  0  0  0
    7.8011  -15.1842   19.5032 C   0  0  2  0  0  0  0  0  0  0  0  0
    6.9861  -15.9855   18.6121 N   0  0  0  0  0  0  0  0  0  0  0  0
    7.7894  -15.7130   20.8899 C   0  0  0  0  0  0  0  0  0  0  0  0
    6.6934  -15.6830   21.5015 O   0  0  0  0  0  0  0  0  0  0  0  0
    9.8392  -17.8775   23.1319 C   0  0  0  0  0  0  0  0  0  0  0  0
    8.8889  -16.7301   22.9008 C   0  0  2  0  0  0  0  0  0  0  0  0
    8.9062  -16.2385   21.5577 N   0  0  0  0  0  0  0  0  0  0  0  0
    9.0837  -15.6432   23.9011 C   0  0  0  0  0  0  0  0  0  0  0  0
   10.0129  -14.8273   23.6944 O   0  0  0  0  0  0  0  0  0  0  0  0
    6.4628  -11.1804   26.5433 C   0  0  0  0  0  0  0  0  0  0  0  0
    7.4225  -12.3152   26.8978 C   0  0  0  0  0  0  0  0  0  0  0  0
    7.2431  -13.4832   25.9704 C   0  0  2  0  0  0  0  0  0  0  0  0
    5.9451  -14.2144   26.2455 C   0  0  0  0  0  0  0  0  0  0  0  0
    8.4299  -14.3654   25.9880 C   0  0  2  0  0  0  0  0  0  0  0  0
    8.2859  -15.4917   25.0493 N   0  0  0  0  0  0  0  0  0  0  0  0
    8.8387  -14.8807   27.2896 C   0  0  0  0  0  0  0  0  0  0  0  0
    8.8127  -16.2732   27.5464 O   0  0  0  0  0  0  0  0  0  0  0  0
    9.2264  -14.1534   28.2347 O   0  0  0  0  0  0  0  0  0  0  0  0
  2  1  1  0
  3  2  2  0
  4  2  1  0
  5  6  1  0
  5  4  1  0
  6  7  1  6
  8  9  2  0
  8  6  1  0
 11 10  1  6
 11 13  1  0
 11 12  1  0
 12  8  1  0
 13 20  1  0
 14 13  2  0
 16 15  1  0
 17 19  1  0
 17 16  1  0
 17 18  1  1
 19 21  1  0
 19 20  1  6
 21 23  2  0
 21 22  1  0
M  END
$$$$
