QAI.pdb
     RDKit          3D

 23 22  0  0  1  0  0  0  0  0999 V2000
   10.6122  -13.2817   18.4411 N   0  0  0  0  0  0  0  0  0  0  0  0
    9.5435  -13.1420   17.4858 C   0  0  0  0  0  0  0  0  0  0  0  0
    9.9035  -13.1720   16.2835 O   0  0  0  0  0  0  0  0  0  0  0  0
    8.1480  -12.9796   17.8984 C   0  0  0  0  0  0  0  0  0  0  0  0
    7.8477  -13.3995   19.3075 C   0  0  0  0  0  0  0  0  0  0  0  0
    8.2565  -14.8190   19.6071 C   0  0  2  0  0  0  0  0  0  0  0  0
    7.7185  -15.7525   18.6378 N   0  0  0  0  0  0  0  0  0  0  0  0
    7.9004  -15.1978   20.9973 C   0  0  0  0  0  0  0  0  0  0  0  0
    7.0846  -14.4566   21.5982 O   0  0  0  0  0  0  0  0  0  0  0  0
    8.2508  -18.1532   23.3012 C   0  0  0  0  0  0  0  0  0  0  0  0
    8.0323  -16.6907   23.0075 C   0  0  2  0  0  0  0  0  0  0  0  0
    8.4069  -16.3149   21.6792 N   0  0  0  0  0  0  0  0  0  0  0  0
    8.6650  -15.8210   24.0386 C   0  0  0  0  0  0  0  0  0  0  0  0
    9.8743  -15.5281   23.8846 O   0  0  0  0  0  0  0  0  0  0  0  0
    5.7640  -12.0990   27.2160 C   0  0  0  0  0  0  0  0  0  0  0  0
    6.4600  -13.4074   26.8442 C   0  0  0  0  0  0  0  0  0  0  0  0
    7.8233  -13.1490   26.2691 C   0  0  2  0  0  0  0  0  0  0  0  0
    7.7398  -12.3558   24.9811 C   0  0  0  0  0  0  0  0  0  0  0  0
    8.5933  -14.4048   26.1372 C   0  0  2  0  0  0  0  0  0  0  0  0
    7.9796  -15.3205   25.1599 N   0  0  0  0  0  0  0  0  0  0  0  0
    8.8621  -15.1360   27.3701 C   0  0  0  0  0  0  0  0  0  0  0  0
    8.4129  -16.4705   27.5210 O   0  0  0  0  0  0  0  0  0  0  0  0
    9.4857  -14.6512   28.3440 O   0  0  0  0  0  0  0  0  0  0  0  0
  2  1  1  0
  3  2  2  0
  4  2  1  0
  5  6  1  0
  5  4  1  0
  6  7  1  6
  8  9  2  0
  8  6  1  0
 11 10  1  1
 11 13  1  0
 11 12  1  0
 12  8  1  0
 13 20  1  0
 14 13  2  0
 16 15  1  0
 17 19  1  0
 17 16  1  0
 17 18  1  6
 19 21  1  0
 19 20  1  6
 21 23  2  0
 21 22  1  0
M  END
$$$$
