QAI.pdb
     RDKit          3D

 23 22  0  0  1  0  0  0  0  0999 V2000
   10.6522  -13.0675   18.2468 N   0  0  0  0  0  0  0  0  0  0  0  0
   10.2831  -13.0551   19.6389 C   0  0  0  0  0  0  0  0  0  0  0  0
   11.2400  -13.1944   20.4396 O   0  0  0  0  0  0  0  0  0  0  0  0
    8.8947  -12.8905   20.0738 C   0  0  0  0  0  0  0  0  0  0  0  0
    7.8842  -13.6739   19.2880 C   0  0  0  0  0  0  0  0  0  0  0  0
    7.9898  -15.1629   19.4972 C   0  0  2  0  0  0  0  0  0  0  0  0
    7.0376  -15.8919   18.6835 N   0  0  0  0  0  0  0  0  0  0  0  0
    7.8715  -15.5124   20.9348 C   0  0  0  0  0  0  0  0  0  0  0  0
    6.9219  -14.9931   21.5708 O   0  0  0  0  0  0  0  0  0  0  0  0
    9.0674  -18.2199   23.2119 C   0  0  0  0  0  0  0  0  0  0  0  0
    8.5252  -16.8356   22.9619 C   0  0  2  0  0  0  0  0  0  0  0  0
    8.7382  -16.3738   21.6250 N   0  0  0  0  0  0  0  0  0  0  0  0
    9.0118  -15.8612   23.9786 C   0  0  0  0  0  0  0  0  0  0  0  0
   10.1128  -15.3017   23.7624 O   0  0  0  0  0  0  0  0  0  0  0  0
    5.8877  -12.1234   25.9438 C   0  0  0  0  0  0  0  0  0  0  0  0
    7.0353  -13.0104   25.4635 C   0  0  0  0  0  0  0  0  0  0  0  0
    7.7197  -13.6808   26.6204 C   0  0  2  0  0  0  0  0  0  0  0  0
    8.1842  -12.6711   27.6498 C   0  0  0  0  0  0  0  0  0  0  0  0
    8.7955  -14.5823   26.1541 C   0  0  2  0  0  0  0  0  0  0  0  0
    8.3046  -15.5443   25.1521 N   0  0  0  0  0  0  0  0  0  0  0  0
    9.5322  -15.3041   27.1851 C   0  0  0  0  0  0  0  0  0  0  0  0
    9.1560  -16.6223   27.5409 O   0  0  0  0  0  0  0  0  0  0  0  0
   10.5122  -14.8251   27.8036 O   0  0  0  0  0  0  0  0  0  0  0  0
  2  1  1  0
  3  2  2  0
  4  2  1  0
  5  6  1  0
  5  4  1  0
  6  7  1  6
  8  9  2  0
  8  6  1  0
 11 10  1  6
 11 13  1  0
 11 12  1  0
 12  8  1  0
 13 20  1  0
 14 13  2  0
 16 15  1  0
 17 19  1  0
 17 16  1  0
 17 18  1  1
 19 21  1  0
 19 20  1  6
 21 23  2  0
 21 22  1  0
M  END
$$$$
