QAI.pdb
     RDKit          3D

 23 22  0  0  1  0  0  0  0  0999 V2000
    7.2908  -12.7313   16.4810 N   0  0  0  0  0  0  0  0  0  0  0  0
    7.6713  -14.1082   16.2981 C   0  0  0  0  0  0  0  0  0  0  0  0
    7.2181  -14.6472   15.2588 O   0  0  0  0  0  0  0  0  0  0  0  0
    8.5233  -14.8134   17.2577 C   0  0  0  0  0  0  0  0  0  0  0  0
    8.8833  -14.0296   18.4858 C   0  0  0  0  0  0  0  0  0  0  0  0
    9.7485  -14.7979   19.4517 C   0  0  2  0  0  0  0  0  0  0  0  0
   10.3060  -15.9910   18.8468 N   0  0  0  0  0  0  0  0  0  0  0  0
    9.0131  -15.1039   20.7041 C   0  0  0  0  0  0  0  0  0  0  0  0
    8.3737  -14.1622   21.2336 O   0  0  0  0  0  0  0  0  0  0  0  0
    8.2021  -18.1296   22.8441 C   0  0  0  0  0  0  0  0  0  0  0  0
    8.2199  -16.6614   22.5019 C   0  0  2  0  0  0  0  0  0  0  0  0
    8.9832  -16.3593   21.3306 N   0  0  0  0  0  0  0  0  0  0  0  0
    8.6254  -15.8285   23.6688 C   0  0  0  0  0  0  0  0  0  0  0  0
    9.8531  -15.7001   23.8885 O   0  0  0  0  0  0  0  0  0  0  0  0
    6.9282  -10.8882   26.6852 C   0  0  0  0  0  0  0  0  0  0  0  0
    7.5763  -12.2560   26.8937 C   0  0  0  0  0  0  0  0  0  0  0  0
    7.0976  -13.2422   25.8668 C   0  0  2  0  0  0  0  0  0  0  0  0
    5.7409  -13.8082   26.2327 C   0  0  0  0  0  0  0  0  0  0  0  0
    8.1180  -14.2813   25.6089 C   0  0  2  0  0  0  0  0  0  0  0  0
    7.7093  -15.1890   24.5229 N   0  0  0  0  0  0  0  0  0  0  0  0
    8.5439  -15.0743   26.7563 C   0  0  0  0  0  0  0  0  0  0  0  0
    8.0953  -16.4090   26.9077 O   0  0  0  0  0  0  0  0  0  0  0  0
    9.3075  -14.6446   27.6534 O   0  0  0  0  0  0  0  0  0  0  0  0
  2  1  1  0
  3  2  2  0
  4  2  1  0
  5  6  1  0
  5  4  1  0
  6  7  1  6
  8  9  2  0
  8  6  1  0
 11 10  1  1
 11 13  1  0
 11 12  1  0
 12  8  1  0
 13 20  1  0
 14 13  2  0
 16 15  1  0
 17 19  1  0
 17 16  1  0
 17 18  1  1
 19 21  1  0
 19 20  1  6
 21 23  2  0
 21 22  1  0
M  END
$$$$
