QAI.pdb
     RDKit          3D

 23 22  0  0  1  0  0  0  0  0999 V2000
   14.1396  -14.2874   20.6838 N   0  0  0  0  0  0  0  0  0  0  0  0
   13.6044  -14.1651   19.3523 C   0  0  0  0  0  0  0  0  0  0  0  0
   14.4568  -13.9331   18.4603 O   0  0  0  0  0  0  0  0  0  0  0  0
   12.1736  -14.3043   19.0736 C   0  0  0  0  0  0  0  0  0  0  0  0
   11.5139  -15.4930   19.7091 C   0  0  0  0  0  0  0  0  0  0  0  0
   10.0490  -15.6120   19.3747 C   0  0  2  0  0  0  0  0  0  0  0  0
    9.6430  -14.6466   18.3730 N   0  0  0  0  0  0  0  0  0  0  0  0
    9.2111  -15.5273   20.5969 C   0  0  0  0  0  0  0  0  0  0  0  0
    8.7874  -14.3903   20.9190 O   0  0  0  0  0  0  0  0  0  0  0  0
    7.2667  -17.8491   22.8119 C   0  0  0  0  0  0  0  0  0  0  0  0
    7.9669  -16.5461   22.5206 C   0  0  2  0  0  0  0  0  0  0  0  0
    8.8635  -16.6180   21.4086 N   0  0  0  0  0  0  0  0  0  0  0  0
    8.6219  -15.9886   23.7372 C   0  0  0  0  0  0  0  0  0  0  0  0
    9.8387  -16.2398   23.9050 O   0  0  0  0  0  0  0  0  0  0  0  0
    5.9506  -12.0703   26.6418 C   0  0  0  0  0  0  0  0  0  0  0  0
    6.5637  -13.3331   26.0385 C   0  0  0  0  0  0  0  0  0  0  0  0
    8.0218  -13.4423   26.3823 C   0  0  2  0  0  0  0  0  0  0  0  0
    8.8017  -12.2473   25.8736 C   0  0  0  0  0  0  0  0  0  0  0  0
    8.5785  -14.7392   25.9400 C   0  0  2  0  0  0  0  0  0  0  0  0
    7.9493  -15.2053   24.6921 N   0  0  0  0  0  0  0  0  0  0  0  0
    8.5587  -15.8227   26.9159 C   0  0  0  0  0  0  0  0  0  0  0  0
    9.3717  -15.7558   28.0735 O   0  0  0  0  0  0  0  0  0  0  0  0
    7.8474  -16.8490   26.8009 O   0  0  0  0  0  0  0  0  0  0  0  0
  2  1  1  0
  3  2  2  0
  4  2  1  0
  5  6  1  0
  5  4  1  0
  6  7  1  6
  8  9  2  0
  8  6  1  0
 11 10  1  1
 11 13  1  0
 11 12  1  0
 12  8  1  0
 13 20  1  0
 14 13  2  0
 16 15  1  0
 17 19  1  0
 17 16  1  0
 17 18  1  6
 19 21  1  0
 19 20  1  6
 21 23  2  0
 21 22  1  0
M  END
$$$$
