QAI.pdb
     RDKit          3D

 23 22  0  0  1  0  0  0  0  0999 V2000
    8.0639  -12.4222   18.0032 N   0  0  0  0  0  0  0  0  0  0  0  0
    8.5241  -13.5629   17.2540 C   0  0  0  0  0  0  0  0  0  0  0  0
    8.9102  -13.3068   16.0872 O   0  0  0  0  0  0  0  0  0  0  0  0
    8.5367  -14.9125   17.8218 C   0  0  0  0  0  0  0  0  0  0  0  0
    7.9730  -15.0253   19.2081 C   0  0  0  0  0  0  0  0  0  0  0  0
    7.8856  -16.4463   19.7029 C   0  0  2  0  0  0  0  0  0  0  0  0
    7.0869  -17.2767   18.8238 N   0  0  0  0  0  0  0  0  0  0  0  0
    7.4006  -16.4975   21.1046 C   0  0  0  0  0  0  0  0  0  0  0  0
    6.3072  -15.9315   21.3498 O   0  0  0  0  0  0  0  0  0  0  0  0
    7.6067  -18.5262   24.1289 C   0  0  0  0  0  0  0  0  0  0  0  0
    7.6101  -17.1484   23.5170 C   0  0  2  0  0  0  0  0  0  0  0  0
    8.0721  -17.1279   22.1635 N   0  0  0  0  0  0  0  0  0  0  0  0
    8.3327  -16.1667   24.3738 C   0  0  0  0  0  0  0  0  0  0  0  0
    9.5583  -16.0075   24.1627 O   0  0  0  0  0  0  0  0  0  0  0  0
    5.7692  -11.7192   25.9954 C   0  0  0  0  0  0  0  0  0  0  0  0
    6.7608  -12.7788   25.5175 C   0  0  0  0  0  0  0  0  0  0  0  0
    7.5428  -13.3443   26.6686 C   0  0  2  0  0  0  0  0  0  0  0  0
    8.2652  -12.2556   27.4353 C   0  0  0  0  0  0  0  0  0  0  0  0
    8.4322  -14.4385   26.2227 C   0  0  2  0  0  0  0  0  0  0  0  0
    7.7138  -15.4214   25.3932 N   0  0  0  0  0  0  0  0  0  0  0  0
    9.1688  -15.1441   27.2650 C   0  0  0  0  0  0  0  0  0  0  0  0
    8.8080  -16.4656   27.6243 O   0  0  0  0  0  0  0  0  0  0  0  0
   10.1354  -14.6476   27.8908 O   0  0  0  0  0  0  0  0  0  0  0  0
  2  1  1  0
  3  2  2  0
  4  2  1  0
  5  6  1  0
  5  4  1  0
  6  7  1  6
  8  9  2  0
  8  6  1  0
 11 10  1  1
 11 13  1  0
 11 12  1  0
 12  8  1  0
 13 20  1  0
 14 13  2  0
 16 15  1  0
 17 19  1  0
 17 16  1  0
 17 18  1  6
 19 21  1  0
 19 20  1  1
 21 23  2  0
 21 22  1  0
M  END
$$$$
