QAI.pdb
     RDKit          3D

 23 22  0  0  1  0  0  0  0  0999 V2000
   11.8782  -13.6253   20.0149 N   0  0  0  0  0  0  0  0  0  0  0  0
   11.4516  -13.3170   18.6743 C   0  0  0  0  0  0  0  0  0  0  0  0
   12.2673  -13.6356   17.7747 O   0  0  0  0  0  0  0  0  0  0  0  0
   10.1621  -12.6818   18.3954 C   0  0  0  0  0  0  0  0  0  0  0  0
    9.0566  -13.0415   19.3445 C   0  0  0  0  0  0  0  0  0  0  0  0
    8.5590  -14.4538   19.1730 C   0  0  2  0  0  0  0  0  0  0  0  0
    7.4660  -14.5304   18.2244 N   0  0  0  0  0  0  0  0  0  0  0  0
    8.2010  -15.0590   20.4801 C   0  0  0  0  0  0  0  0  0  0  0  0
    7.1201  -14.6903   21.0013 O   0  0  0  0  0  0  0  0  0  0  0  0
    9.2428  -17.9356   22.6614 C   0  0  0  0  0  0  0  0  0  0  0  0
    8.6269  -16.5796   22.4278 C   0  0  2  0  0  0  0  0  0  0  0  0
    8.9787  -16.0044   21.1663 N   0  0  0  0  0  0  0  0  0  0  0  0
    8.8907  -15.6515   23.5632 C   0  0  0  0  0  0  0  0  0  0  0  0
    9.9736  -15.0198   23.5536 O   0  0  0  0  0  0  0  0  0  0  0  0
    6.6548  -11.2683   26.8803 C   0  0  0  0  0  0  0  0  0  0  0  0
    7.6187  -12.4537   26.8885 C   0  0  0  0  0  0  0  0  0  0  0  0
    7.2788  -13.4331   25.8015 C   0  0  2  0  0  0  0  0  0  0  0  0
    5.8463  -13.9123   25.9159 C   0  0  0  0  0  0  0  0  0  0  0  0
    8.2646  -14.5343   25.7484 C   0  0  2  0  0  0  0  0  0  0  0  0
    7.9951  -15.4538   24.6293 N   0  0  0  0  0  0  0  0  0  0  0  0
    8.4393  -15.3110   26.9703 C   0  0  0  0  0  0  0  0  0  0  0  0
    9.1256  -14.7553   28.0775 O   0  0  0  0  0  0  0  0  0  0  0  0
    8.0099  -16.4798   27.1184 O   0  0  0  0  0  0  0  0  0  0  0  0
  2  1  1  0
  3  2  2  0
  4  2  1  0
  5  6  1  0
  5  4  1  0
  6  7  1  6
  8  9  2  0
  8  6  1  0
 11 10  1  1
 11 13  1  0
 11 12  1  0
 12  8  1  0
 13 20  1  0
 14 13  2  0
 16 15  1  0
 17 19  1  0
 17 16  1  0
 17 18  1  1
 19 21  1  0
 19 20  1  6
 21 23  2  0
 21 22  1  0
M  END
$$$$
