QAI.pdb
     RDKit          3D

 23 22  0  0  1  0  0  0  0  0999 V2000
    8.1352  -12.7154   17.5018 N   0  0  0  0  0  0  0  0  0  0  0  0
    8.1814  -13.2269   18.8473 C   0  0  0  0  0  0  0  0  0  0  0  0
    8.8496  -12.5333   19.6527 O   0  0  0  0  0  0  0  0  0  0  0  0
    7.4959  -14.4618   19.2337 C   0  0  0  0  0  0  0  0  0  0  0  0
    8.2816  -15.7215   19.0143 C   0  0  0  0  0  0  0  0  0  0  0  0
    7.5613  -16.9621   19.4769 C   0  0  2  0  0  0  0  0  0  0  0  0
    6.4601  -17.3065   18.6001 N   0  0  0  0  0  0  0  0  0  0  0  0
    7.1248  -16.8336   20.8897 C   0  0  0  0  0  0  0  0  0  0  0  0
    6.1021  -16.1393   21.1087 O   0  0  0  0  0  0  0  0  0  0  0  0
    7.3327  -18.6630   24.0639 C   0  0  0  0  0  0  0  0  0  0  0  0
    7.3111  -17.3418   23.3380 C   0  0  2  0  0  0  0  0  0  0  0  0
    7.7691  -17.4280   21.9857 N   0  0  0  0  0  0  0  0  0  0  0  0
    8.0194  -16.2794   24.1059 C   0  0  0  0  0  0  0  0  0  0  0  0
    9.2413  -16.1178   23.8766 O   0  0  0  0  0  0  0  0  0  0  0  0
    7.0559  -10.9369   27.0154 C   0  0  0  0  0  0  0  0  0  0  0  0
    7.9627  -12.1399   26.7607 C   0  0  0  0  0  0  0  0  0  0  0  0
    7.2101  -13.2490   26.0826 C   0  0  2  0  0  0  0  0  0  0  0  0
    5.9608  -13.6227   26.8537 C   0  0  0  0  0  0  0  0  0  0  0  0
    8.0948  -14.4006   25.8028 C   0  0  2  0  0  0  0  0  0  0  0  0
    7.3907  -15.4615   25.0617 N   0  0  0  0  0  0  0  0  0  0  0  0
    8.7748  -14.9926   26.9491 C   0  0  0  0  0  0  0  0  0  0  0  0
    9.8825  -14.3364   27.5391 O   0  0  0  0  0  0  0  0  0  0  0  0
    8.4379  -16.0819   27.4709 O   0  0  0  0  0  0  0  0  0  0  0  0
  2  1  1  0
  3  2  2  0
  4  2  1  0
  5  6  1  0
  5  4  1  0
  6  7  1  6
  8  9  2  0
  8  6  1  0
 11 10  1  1
 11 13  1  0
 11 12  1  0
 12  8  1  0
 13 20  1  0
 14 13  2  0
 16 15  1  0
 17 19  1  0
 17 16  1  0
 17 18  1  1
 19 21  1  0
 19 20  1  1
 21 23  2  0
 21 22  1  0
M  END
$$$$
