DAI.pdb
     RDKit          3D

 22 21  0  0  1  0  0  0  0  0999 V2000
    9.3466  -16.1698   19.3327 N   0  0  0  0  0  0  0  0  0  0  0  0
    7.9406  -16.0274   19.6411 C   0  0  1  0  0  0  0  0  0  0  0  0
    7.1737  -16.9419   18.7078 C   0  0  0  0  0  0  0  0  0  0  0  0
    7.9651  -17.0395   17.4552 C   0  0  0  0  0  0  0  0  0  0  0  0
    9.2204  -16.9655   17.5058 O   0  0  0  0  0  0  0  0  0  0  0  0
    7.7302  -16.3114   21.0597 C   0  0  0  0  0  0  0  0  0  0  0  0
    6.5760  -16.2272   21.5473 O   0  0  0  0  0  0  0  0  0  0  0  0
    7.3641  -17.2095   16.2253 O   0  0  0  0  0  0  0  0  0  0  0  0
    9.1110  -18.3331   23.6585 C   0  0  0  0  0  0  0  0  0  0  0  0
    8.4950  -16.9977   23.3451 C   0  0  2  0  0  0  0  0  0  0  0  0
    8.7736  -16.6889   21.9576 N   0  0  0  0  0  0  0  0  0  0  0  0
    9.0247  -15.9282   24.2612 C   0  0  0  0  0  0  0  0  0  0  0  0
   10.0836  -15.3906   23.8857 O   0  0  0  0  0  0  0  0  0  0  0  0
    5.9556  -11.9349   26.0549 C   0  0  0  0  0  0  0  0  0  0  0  0
    7.1399  -12.8029   25.5876 C   0  0  0  0  0  0  0  0  0  0  0  0
    7.7455  -13.5321   26.7373 C   0  0  2  0  0  0  0  0  0  0  0  0
    8.2619  -12.4924   27.7101 C   0  0  0  0  0  0  0  0  0  0  0  0
    8.7684  -14.5686   26.3964 C   0  0  2  0  0  0  0  0  0  0  0  0
    8.3879  -15.5622   25.4378 N   0  0  0  0  0  0  0  0  0  0  0  0
    9.6161  -15.0383   27.4748 C   0  0  0  0  0  0  0  0  0  0  0  0
   10.5466  -14.3439   28.1794 O   0  0  0  0  0  0  0  0  0  0  0  0
    9.4696  -16.2733   27.8106 O   0  0  0  0  0  0  0  0  0  0  0  0
  2  6  1  0
  2  1  1  6
  2  3  1  0
  3  4  1  0
  4  5  2  0
  4  8  1  0
  6  7  2  0
 10  9  1  1
 10 12  1  0
 11 10  1  0
 11  6  1  0
 12 19  1  0
 12 13  2  0
 15 14  1  0
 16 15  1  0
 16 17  1  1
 18 16  1  0
 18 19  1  1
 20 21  1  0
 20 18  1  0
 22 20  2  0
M  END
$$$$
