DAI.pdb
     RDKit          3D

 22 21  0  0  1  0  0  0  0  0999 V2000
   10.0233  -14.9699   18.5389 N   0  0  0  0  0  0  0  0  0  0  0  0
   10.7762  -15.1803   19.7559 C   0  0  1  0  0  0  0  0  0  0  0  0
   11.7498  -14.0277   19.8955 C   0  0  0  0  0  0  0  0  0  0  0  0
   12.9710  -14.4024   19.1385 C   0  0  0  0  0  0  0  0  0  0  0  0
   12.9263  -14.4744   17.8829 O   0  0  0  0  0  0  0  0  0  0  0  0
    9.8473  -15.3147   20.8767 C   0  0  0  0  0  0  0  0  0  0  0  0
    9.0582  -14.3761   21.1478 O   0  0  0  0  0  0  0  0  0  0  0  0
   14.1648  -14.6780   19.7723 O   0  0  0  0  0  0  0  0  0  0  0  0
    8.5160  -18.0751   22.9610 C   0  0  0  0  0  0  0  0  0  0  0  0
    8.7300  -16.6081   22.7092 C   0  0  2  0  0  0  0  0  0  0  0  0
    9.7701  -16.4708   21.7105 N   0  0  0  0  0  0  0  0  0  0  0  0
    9.0919  -15.8875   23.9794 C   0  0  0  0  0  0  0  0  0  0  0  0
   10.3095  -15.6775   24.1368 O   0  0  0  0  0  0  0  0  0  0  0  0
    5.8476  -11.8690   25.7902 C   0  0  0  0  0  0  0  0  0  0  0  0
    7.0570  -12.7451   25.4103 C   0  0  0  0  0  0  0  0  0  0  0  0
    7.3612  -13.7226   26.4931 C   0  0  2  0  0  0  0  0  0  0  0  0
    7.7593  -12.9285   27.7197 C   0  0  0  0  0  0  0  0  0  0  0  0
    8.3420  -14.7994   26.1535 C   0  0  2  0  0  0  0  0  0  0  0  0
    8.1467  -15.4839   24.9109 N   0  0  0  0  0  0  0  0  0  0  0  0
    8.8235  -15.6215   27.2465 C   0  0  0  0  0  0  0  0  0  0  0  0
    9.7009  -15.2890   28.2285 O   0  0  0  0  0  0  0  0  0  0  0  0
    8.3607  -16.8225   27.2954 O   0  0  0  0  0  0  0  0  0  0  0  0
  2  6  1  0
  2  1  1  6
  2  3  1  0
  3  4  1  0
  4  5  2  0
  4  8  1  0
  6  7  2  0
 10  9  1  1
 10 12  1  0
 11 10  1  0
 11  6  1  0
 12 19  1  0
 12 13  2  0
 15 14  1  0
 16 15  1  0
 16 17  1  1
 18 16  1  0
 18 19  1  6
 20 21  1  0
 20 18  1  0
 22 20  2  0
M  END
$$$$
