DAI.pdb
     RDKit          3D

 22 21  0  0  1  0  0  0  0  0999 V2000
    9.3256  -16.8838   19.4375 N   0  0  0  0  0  0  0  0  0  0  0  0
    8.2888  -15.9177   19.7275 C   0  0  1  0  0  0  0  0  0  0  0  0
    7.1803  -16.1199   18.7145 C   0  0  0  0  0  0  0  0  0  0  0  0
    7.7162  -17.0239   17.6656 C   0  0  0  0  0  0  0  0  0  0  0  0
    8.7782  -16.7172   17.0640 O   0  0  0  0  0  0  0  0  0  0  0  0
    7.8623  -16.0752   21.1169 C   0  0  0  0  0  0  0  0  0  0  0  0
    6.8832  -15.4165   21.5466 O   0  0  0  0  0  0  0  0  0  0  0  0
    7.0818  -18.2003   17.3243 O   0  0  0  0  0  0  0  0  0  0  0  0
    8.3239  -18.4660   23.8879 C   0  0  0  0  0  0  0  0  0  0  0  0
    8.0187  -17.0732   23.4101 C   0  0  2  0  0  0  0  0  0  0  0  0
    8.4979  -16.9501   22.0488 N   0  0  0  0  0  0  0  0  0  0  0  0
    8.6479  -16.0425   24.3075 C   0  0  0  0  0  0  0  0  0  0  0  0
    9.7785  -15.6572   23.9545 O   0  0  0  0  0  0  0  0  0  0  0  0
    5.6608  -11.9231   25.9321 C   0  0  0  0  0  0  0  0  0  0  0  0
    6.8990  -12.7333   25.5020 C   0  0  0  0  0  0  0  0  0  0  0  0
    7.4958  -13.4436   26.6680 C   0  0  2  0  0  0  0  0  0  0  0  0
    8.0745  -12.3909   27.5904 C   0  0  0  0  0  0  0  0  0  0  0  0
    8.4672  -14.5351   26.3492 C   0  0  2  0  0  0  0  0  0  0  0  0
    8.0228  -15.5527   25.4447 N   0  0  0  0  0  0  0  0  0  0  0  0
    9.3224  -14.9925   27.4270 C   0  0  0  0  0  0  0  0  0  0  0  0
   10.3481  -14.3344   28.0266 O   0  0  0  0  0  0  0  0  0  0  0  0
    9.0803  -16.1752   27.8762 O   0  0  0  0  0  0  0  0  0  0  0  0
  2  6  1  0
  2  1  1  6
  2  3  1  0
  3  4  1  0
  4  5  2  0
  4  8  1  0
  6  7  2  0
 10  9  1  1
 10 12  1  0
 11 10  1  0
 11  6  1  0
 12 19  1  0
 12 13  2  0
 15 14  1  0
 16 15  1  0
 16 17  1  1
 18 16  1  0
 18 19  1  1
 20 21  1  0
 20 18  1  0
 22 20  2  0
M  END
$$$$
