DAI.pdb
     RDKit          3D

 22 21  0  0  1  0  0  0  0  0999 V2000
    8.7226  -18.1182   19.5208 N   0  0  0  0  0  0  0  0  0  0  0  0
    8.3600  -16.7185   19.5626 C   0  0  1  0  0  0  0  0  0  0  0  0
    7.4635  -16.4436   18.3724 C   0  0  0  0  0  0  0  0  0  0  0  0
    8.2230  -16.8432   17.1607 C   0  0  0  0  0  0  0  0  0  0  0  0
    8.0457  -17.9863   16.6649 O   0  0  0  0  0  0  0  0  0  0  0  0
    7.7432  -16.4218   20.8543 C   0  0  0  0  0  0  0  0  0  0  0  0
    7.3097  -15.2663   21.0869 O   0  0  0  0  0  0  0  0  0  0  0  0
    9.1264  -15.9950   16.5547 O   0  0  0  0  0  0  0  0  0  0  0  0
    6.5942  -18.3005   23.8676 C   0  0  0  0  0  0  0  0  0  0  0  0
    6.9614  -17.0273   23.1568 C   0  0  2  0  0  0  0  0  0  0  0  0
    7.5938  -17.3796   21.9021 N   0  0  0  0  0  0  0  0  0  0  0  0
    7.8651  -16.1743   24.0050 C   0  0  0  0  0  0  0  0  0  0  0  0
    9.0837  -16.3634   23.8303 O   0  0  0  0  0  0  0  0  0  0  0  0
    6.1372  -11.4319   27.2735 C   0  0  0  0  0  0  0  0  0  0  0  0
    6.3414  -12.8837   26.7993 C   0  0  0  0  0  0  0  0  0  0  0  0
    7.5901  -13.0053   25.9953 C   0  0  2  0  0  0  0  0  0  0  0  0
    7.3588  -12.2755   24.6885 C   0  0  0  0  0  0  0  0  0  0  0  0
    8.1181  -14.3912   25.8021 C   0  0  2  0  0  0  0  0  0  0  0  0
    7.3854  -15.2448   24.9159 N   0  0  0  0  0  0  0  0  0  0  0  0
    8.6927  -15.0457   26.9613 C   0  0  0  0  0  0  0  0  0  0  0  0
    9.6823  -14.5993   27.7773 O   0  0  0  0  0  0  0  0  0  0  0  0
    8.2028  -16.1994   27.2583 O   0  0  0  0  0  0  0  0  0  0  0  0
  2  6  1  0
  2  1  1  1
  2  3  1  0
  3  4  1  0
  4  5  2  0
  4  8  1  0
  6  7  2  0
 10  9  1  1
 10 12  1  0
 11 10  1  0
 11  6  1  0
 12 19  1  0
 12 13  2  0
 15 14  1  0
 16 15  1  0
 16 17  1  6
 18 16  1  0
 18 19  1  1
 20 21  1  0
 20 18  1  0
 22 20  2  0
M  END
$$$$
