DRW.pdb
     RDKit          3D

 34 35  0  0  1  0  0  0  0  0999 V2000
   31.6491  -22.0271  -20.1868 N   0  0  0  0  0  0  0  0  0  0  0  0
   30.8344  -22.8600  -19.2932 C   0  0  1  0  0  0  0  0  0  0  0  0
   31.6905  -23.2363  -18.1348 C   0  0  0  0  0  0  0  0  0  0  0  0
   32.7384  -24.2051  -18.4509 C   0  0  0  0  0  0  0  0  0  0  0  0
   33.9430  -23.9901  -18.6439 O   0  0  0  0  0  0  0  0  0  0  0  0
   29.6166  -22.0814  -18.8905 C   0  0  0  0  0  0  0  0  0  0  0  0
   29.5414  -20.8559  -18.9866 O   0  0  0  0  0  0  0  0  0  0  0  0
   32.3391  -25.5523  -18.5506 O   0  0  0  0  0  0  0  0  0  0  0  0
   23.9457  -25.8992  -15.9957 N   0  0  0  0  0  0  0  0  0  0  0  0
   24.0836  -26.3076  -17.3504 C   0  0  0  0  0  0  0  0  0  0  0  0
   23.7196  -27.4827  -17.7253 N   0  0  0  0  0  0  0  0  0  0  0  0
   24.6403  -25.3723  -18.2864 N   0  0  0  0  0  0  0  0  0  0  0  0
   26.0525  -25.0701  -18.1324 C   0  0  0  0  0  0  0  0  0  0  0  0
   26.4860  -24.1666  -19.2690 C   0  0  0  0  0  0  0  0  0  0  0  0
   26.1584  -22.7364  -18.8920 C   0  0  0  0  0  0  0  0  0  0  0  0
   27.2489  -22.1386  -18.0319 C   0  0  2  0  0  0  0  0  0  0  0  0
   28.4914  -22.7711  -18.3731 N   0  0  0  0  0  0  0  0  0  0  0  0
   26.9132  -22.4817  -16.6045 C   0  0  0  0  0  0  0  0  0  0  0  0
   27.1979  -23.6281  -16.1798 O   0  0  0  0  0  0  0  0  0  0  0  0
   23.9123  -27.7755  -18.6978 N   0  0  0  0  0  0  0  0  0  0  0  0
   26.2946  -21.5639  -15.7389 C   0  0  2  0  0  0  0  0  0  0  0  0
   25.8491  -21.8917  -14.3723 C   0  0  0  0  0  0  0  0  0  0  0  0
   26.0181  -20.7317  -13.4682 C   0  0  0  0  0  0  0  0  0  0  0  0
   25.5437  -19.4837  -14.0753 C   0  0  0  0  0  0  0  0  0  0  0  0
   24.2553  -18.9586  -13.9476 N   0  0  0  0  0  0  0  0  0  0  0  0
   24.1428  -17.8224  -14.6698 C   0  0  0  0  0  0  0  0  0  0  0  0
   25.3276  -17.5796  -15.2741 C   0  0  0  0  0  0  0  0  0  0  0  0
   25.7668  -16.5693  -16.0952 C   0  0  0  0  0  0  0  0  0  0  0  0
   27.0667  -16.5322  -16.5800 C   0  0  0  0  0  0  0  0  0  0  0  0
   27.9369  -17.5435  -16.2219 C   0  0  0  0  0  0  0  0  0  0  0  0
   27.4893  -18.5496  -15.4016 C   0  0  0  0  0  0  0  0  0  0  0  0
   26.1851  -18.5931  -14.9121 C   0  0  0  0  0  0  0  0  0  0  0  0
   24.5286  -22.4953  -14.4597 O   0  0  0  0  0  0  0  0  0  0  0  0
   24.0118  -23.0636  -13.4575 O   0  0  0  0  0  0  0  0  0  0  0  0
  2  1  1  6
  3  2  1  0
  4  3  1  0
  5  4  2  0
  6 17  1  0
  6  2  1  0
  7  6  2  0
  8  4  1  0
  9 10  1  0
 10 12  1  0
 10 11  2  0
 12 13  1  0
 13 14  1  0
 14 15  1  0
 16 17  1  0
 16 15  1  6
 18 16  1  0
 19 18  2  0
 20 18  1  0
 21 20  1  0
 22 23  1  0
 21 22  1  6
 23 24  2  0
 25 24  1  0
 26 25  1  0
 27 26  2  0
 28 27  1  0
 29 30  1  0
 29 28  2  0
 30 31  2  0
 31 26  1  0
 31 23  1  0
 32 21  1  0
 32 34  1  0
 33 32  2  0
M  END
$$$$
