DRW.pdb
     RDKit          3D

 34 35  0  0  1  0  0  0  0  0999 V2000
   26.6516  -19.7816  -18.7841 N   0  0  0  0  0  0  0  0  0  0  0  0
   27.4771  -19.8103  -17.5701 C   0  0  1  0  0  0  0  0  0  0  0  0
   28.6654  -18.9494  -17.8214 C   0  0  0  0  0  0  0  0  0  0  0  0
   29.7640  -19.6262  -18.5082 C   0  0  0  0  0  0  0  0  0  0  0  0
   29.8068  -20.7975  -18.9091 O   0  0  0  0  0  0  0  0  0  0  0  0
   26.6461  -19.3355  -16.4145 C   0  0  0  0  0  0  0  0  0  0  0  0
   26.1601  -18.2055  -16.3568 O   0  0  0  0  0  0  0  0  0  0  0  0
   30.9214  -18.8602  -18.7486 O   0  0  0  0  0  0  0  0  0  0  0  0
   23.6302  -24.3194  -13.6750 N   0  0  0  0  0  0  0  0  0  0  0  0
   22.7771  -23.2482  -13.2936 C   0  0  0  0  0  0  0  0  0  0  0  0
   22.2631  -23.2017  -12.1157 N   0  0  0  0  0  0  0  0  0  0  0  0
   22.5059  -22.2214  -14.2596 N   0  0  0  0  0  0  0  0  0  0  0  0
   23.2161  -22.3215  -15.5225 C   0  0  0  0  0  0  0  0  0  0  0  0
   24.0755  -21.0861  -15.6994 C   0  0  0  0  0  0  0  0  0  0  0  0
   24.2280  -20.4148  -14.3500 C   0  0  0  0  0  0  0  0  0  0  0  0
   25.6251  -19.8639  -14.1729 C   0  0  2  0  0  0  0  0  0  0  0  0
   26.3990  -20.2142  -15.3299 N   0  0  0  0  0  0  0  0  0  0  0  0
   26.2164  -20.5570  -12.9737 C   0  0  0  0  0  0  0  0  0  0  0  0
   26.3094  -21.8087  -12.9891 O   0  0  0  0  0  0  0  0  0  0  0  0
   21.6895  -22.3818  -11.8562 N   0  0  0  0  0  0  0  0  0  0  0  0
   26.6639  -19.8500  -11.8449 C   0  0  2  0  0  0  0  0  0  0  0  0
   27.1621  -20.4920  -10.6148 C   0  0  0  0  0  0  0  0  0  0  0  0
   27.8792  -19.5171   -9.7623 C   0  0  0  0  0  0  0  0  0  0  0  0
   28.5157  -20.1567   -8.6060 C   0  0  0  0  0  0  0  0  0  0  0  0
   29.4142  -21.2252   -8.6633 N   0  0  0  0  0  0  0  0  0  0  0  0
   29.7724  -21.5986   -7.4154 C   0  0  0  0  0  0  0  0  0  0  0  0
   29.1331  -20.8021   -6.5295 C   0  0  0  0  0  0  0  0  0  0  0  0
   29.1461  -20.7335   -5.1573 C   0  0  0  0  0  0  0  0  0  0  0  0
   28.4012  -19.7899   -4.4639 C   0  0  0  0  0  0  0  0  0  0  0  0
   27.6275  -18.8983   -5.1815 C   0  0  0  0  0  0  0  0  0  0  0  0
   27.6199  -18.9746   -6.5526 C   0  0  0  0  0  0  0  0  0  0  0  0
   28.3650  -19.9202   -7.2547 C   0  0  0  0  0  0  0  0  0  0  0  0
   26.0645  -21.2360  -10.0166 O   0  0  0  0  0  0  0  0  0  0  0  0
   26.2675  -22.3552   -9.4683 O   0  0  0  0  0  0  0  0  0  0  0  0
  2  1  1  6
  3  2  1  0
  4  3  1  0
  5  4  2  0
  6 17  1  0
  6  2  1  0
  7  6  2  0
  8  4  1  0
  9 10  1  0
 10 12  1  0
 10 11  2  0
 12 13  1  0
 13 14  1  0
 14 15  1  0
 16 17  1  0
 16 15  1  6
 18 16  1  0
 19 18  2  0
 20 18  1  0
 21 20  1  0
 22 23  1  0
 21 22  1  1
 23 24  2  0
 25 24  1  0
 26 25  1  0
 27 26  2  0
 28 27  1  0
 29 30  1  0
 29 28  2  0
 30 31  2  0
 31 26  1  0
 31 23  1  0
 32 21  1  0
 32 34  1  0
 33 32  2  0
M  END
$$$$
