DRW.pdb
     RDKit          3D

 34 35  0  0  1  0  0  0  0  0999 V2000
   15.0759  -22.7381    1.2407 N   0  0  0  0  0  0  0  0  0  0  0  0
   14.9702  -22.1825    2.5957 C   0  0  1  0  0  0  0  0  0  0  0  0
   15.7912  -23.0416    3.4925 C   0  0  0  0  0  0  0  0  0  0  0  0
   15.2382  -24.3756    3.7192 C   0  0  0  0  0  0  0  0  0  0  0  0
   15.7063  -25.4660    3.3635 O   0  0  0  0  0  0  0  0  0  0  0  0
   15.4360  -20.7565    2.5664 C   0  0  0  0  0  0  0  0  0  0  0  0
   16.0842  -20.2811    1.6334 O   0  0  0  0  0  0  0  0  0  0  0  0
   14.0231  -24.4397    4.4289 O   0  0  0  0  0  0  0  0  0  0  0  0
   11.2444  -13.8507    6.0495 N   0  0  0  0  0  0  0  0  0  0  0  0
   11.7287  -13.5499    4.7473 C   0  0  0  0  0  0  0  0  0  0  0  0
   11.1541  -12.6588    4.0195 N   0  0  0  0  0  0  0  0  0  0  0  0
   12.8756  -14.2683    4.2685 N   0  0  0  0  0  0  0  0  0  0  0  0
   12.7512  -15.7141    4.2087 C   0  0  0  0  0  0  0  0  0  0  0  0
   14.1123  -16.3102    3.9122 C   0  0  0  0  0  0  0  0  0  0  0  0
   13.9879  -17.8197    3.9416 C   0  0  0  0  0  0  0  0  0  0  0  0
   15.3140  -18.4795    3.6374 C   0  0  2  0  0  0  0  0  0  0  0  0
   15.1254  -19.9023    3.6543 N   0  0  0  0  0  0  0  0  0  0  0  0
   16.2509  -18.1074    4.7562 C   0  0  0  0  0  0  0  0  0  0  0  0
   15.9999  -18.5248    5.9131 O   0  0  0  0  0  0  0  0  0  0  0  0
   11.4954  -12.5097    3.0552 N   0  0  0  0  0  0  0  0  0  0  0  0
   17.3901  -17.3121    4.5464 C   0  0  2  0  0  0  0  0  0  0  0  0
   18.2536  -16.8076    5.6295 C   0  0  0  0  0  0  0  0  0  0  0  0
   19.5422  -16.3146    5.0927 C   0  0  0  0  0  0  0  0  0  0  0  0
   20.3073  -15.5639    6.0938 C   0  0  0  0  0  0  0  0  0  0  0  0
   21.0267  -16.1246    7.1522 N   0  0  0  0  0  0  0  0  0  0  0  0
   21.5752  -15.1495    7.9094 C   0  0  0  0  0  0  0  0  0  0  0  0
   21.2376  -13.9531    7.3780 C   0  0  0  0  0  0  0  0  0  0  0  0
   21.5344  -12.6584    7.7296 C   0  0  0  0  0  0  0  0  0  0  0  0
   21.0750  -11.5756    6.9929 C   0  0  0  0  0  0  0  0  0  0  0  0
   20.2981  -11.8153    5.8761 C   0  0  0  0  0  0  0  0  0  0  0  0
   20.0057  -13.1122    5.5326 C   0  0  0  0  0  0  0  0  0  0  0  0
   20.4632  -14.2038    6.2685 C   0  0  0  0  0  0  0  0  0  0  0  0
   17.4679  -15.8967    6.4473 O   0  0  0  0  0  0  0  0  0  0  0  0
   17.5764  -15.9029    7.7053 O   0  0  0  0  0  0  0  0  0  0  0  0
  2  1  1  6
  3  2  1  0
  4  3  1  0
  5  4  2  0
  6 17  1  0
  6  2  1  0
  7  6  2  0
  8  4  1  0
  9 10  1  0
 10 12  1  0
 10 11  2  0
 12 13  1  0
 13 14  1  0
 14 15  1  0
 16 17  1  0
 16 15  1  1
 18 16  1  0
 19 18  2  0
 20 18  1  0
 21 20  1  0
 22 23  1  0
 21 22  1  6
 23 24  2  0
 25 24  1  0
 26 25  1  0
 27 26  2  0
 28 27  1  0
 29 30  1  0
 29 28  2  0
 30 31  2  0
 31 26  1  0
 31 23  1  0
 32 21  1  0
 32 34  1  0
 33 32  2  0
M  END
$$$$
