DRW.pdb
     RDKit          3D

 34 35  0  0  1  0  0  0  0  0999 V2000
   19.0016  -21.1172   11.7259 N   0  0  0  0  0  0  0  0  0  0  0  0
   18.1334  -20.1574   11.0325 C   0  0  1  0  0  0  0  0  0  0  0  0
   18.6373  -18.7932   11.3508 C   0  0  0  0  0  0  0  0  0  0  0  0
   18.0651  -18.2081   12.5620 C   0  0  0  0  0  0  0  0  0  0  0  0
   17.2781  -18.7307   13.3633 O   0  0  0  0  0  0  0  0  0  0  0  0
   18.1603  -20.4616    9.5634 C   0  0  0  0  0  0  0  0  0  0  0  0
   19.1964  -20.7220    8.9508 O   0  0  0  0  0  0  0  0  0  0  0  0
   18.4500  -16.8871   12.8639 O   0  0  0  0  0  0  0  0  0  0  0  0
   15.2365  -24.9320    4.9212 N   0  0  0  0  0  0  0  0  0  0  0  0
   14.8232  -25.6406    6.0821 C   0  0  0  0  0  0  0  0  0  0  0  0
   15.0235  -26.9066    6.1882 N   0  0  0  0  0  0  0  0  0  0  0  0
   14.1766  -24.9041    7.1309 N   0  0  0  0  0  0  0  0  0  0  0  0
   14.1511  -23.4596    6.9823 C   0  0  0  0  0  0  0  0  0  0  0  0
   15.5471  -22.9191    7.2167 C   0  0  0  0  0  0  0  0  0  0  0  0
   15.4809  -21.4057    7.2006 C   0  0  0  0  0  0  0  0  0  0  0  0
   16.8455  -20.8004    7.4414 C   0  0  2  0  0  0  0  0  0  0  0  0
   16.9470  -20.4528    8.8304 N   0  0  0  0  0  0  0  0  0  0  0  0
   16.9098  -19.5361    6.6257 C   0  0  0  0  0  0  0  0  0  0  0  0
   16.2207  -18.5517    6.9888 O   0  0  0  0  0  0  0  0  0  0  0  0
   14.7354  -27.3836    7.0588 N   0  0  0  0  0  0  0  0  0  0  0  0
   17.7121  -19.4252    5.4775 C   0  0  2  0  0  0  0  0  0  0  0  0
   17.7893  -18.2143    4.6401 C   0  0  0  0  0  0  0  0  0  0  0  0
   19.1882  -17.9313    4.2469 C   0  0  0  0  0  0  0  0  0  0  0  0
   19.2942  -16.7371    3.4020 C   0  0  0  0  0  0  0  0  0  0  0  0
   18.5118  -15.5859    3.5237 N   0  0  0  0  0  0  0  0  0  0  0  0
   18.8388  -14.6978    2.5596 C   0  0  0  0  0  0  0  0  0  0  0  0
   19.8215  -15.2320    1.8001 C   0  0  0  0  0  0  0  0  0  0  0  0
   20.5241  -14.7619    0.7170 C   0  0  0  0  0  0  0  0  0  0  0  0
   21.5243  -15.5099    0.1118 C   0  0  0  0  0  0  0  0  0  0  0  0
   21.8152  -16.7613    0.6193 C   0  0  0  0  0  0  0  0  0  0  0  0
   21.1076  -17.2235    1.7016 C   0  0  0  0  0  0  0  0  0  0  0  0
   20.1016  -16.4777    2.3132 C   0  0  0  0  0  0  0  0  0  0  0  0
   16.7991  -18.3329    3.5812 O   0  0  0  0  0  0  0  0  0  0  0  0
   16.7123  -19.3893    2.8950 O   0  0  0  0  0  0  0  0  0  0  0  0
  2  1  1  1
  3  2  1  0
  4  3  1  0
  5  4  2  0
  6 17  1  0
  6  2  1  0
  7  6  2  0
  8  4  1  0
  9 10  1  0
 10 12  1  0
 10 11  2  0
 12 13  1  0
 13 14  1  0
 14 15  1  0
 16 17  1  0
 16 15  1  1
 18 16  1  0
 19 18  2  0
 20 18  1  0
 21 20  1  0
 22 23  1  0
 21 22  1  1
 23 24  2  0
 25 24  1  0
 26 25  1  0
 27 26  2  0
 28 27  1  0
 29 30  1  0
 29 28  2  0
 30 31  2  0
 31 26  1  0
 31 23  1  0
 32 21  1  0
 32 34  1  0
 33 32  2  0
M  END
$$$$
