DRW.pdb
     RDKit          3D

 34 35  0  0  1  0  0  0  0  0999 V2000
   27.1195  -19.9286  -16.9166 N   0  0  0  0  0  0  0  0  0  0  0  0
   26.9388  -20.9816  -15.9094 C   0  0  1  0  0  0  0  0  0  0  0  0
   28.2816  -21.5578  -15.6245 C   0  0  0  0  0  0  0  0  0  0  0  0
   28.8620  -22.3088  -16.7362 C   0  0  0  0  0  0  0  0  0  0  0  0
   28.3666  -23.2608  -17.3548 O   0  0  0  0  0  0  0  0  0  0  0  0
   26.2931  -20.3786  -14.6966 C   0  0  0  0  0  0  0  0  0  0  0  0
   26.5957  -19.2689  -14.2568 O   0  0  0  0  0  0  0  0  0  0  0  0
   30.1429  -21.9080  -17.1642 O   0  0  0  0  0  0  0  0  0  0  0  0
   18.8694  -20.2786  -10.6361 N   0  0  0  0  0  0  0  0  0  0  0  0
   19.2036  -20.1602  -12.0127 C   0  0  0  0  0  0  0  0  0  0  0  0
   18.4847  -19.4488  -12.8071 N   0  0  0  0  0  0  0  0  0  0  0  0
   20.3645  -20.8567  -12.4902 N   0  0  0  0  0  0  0  0  0  0  0  0
   21.1734  -21.5245  -11.4857 C   0  0  0  0  0  0  0  0  0  0  0  0
   22.5518  -20.8953  -11.4703 C   0  0  0  0  0  0  0  0  0  0  0  0
   23.2533  -21.2533  -12.7644 C   0  0  0  0  0  0  0  0  0  0  0  0
   24.6377  -20.6475  -12.8167 C   0  0  2  0  0  0  0  0  0  0  0  0
   25.2867  -21.1055  -14.0122 N   0  0  0  0  0  0  0  0  0  0  0  0
   25.3912  -21.1829  -11.6277 C   0  0  0  0  0  0  0  0  0  0  0  0
   25.6321  -22.4136  -11.5744 O   0  0  0  0  0  0  0  0  0  0  0  0
   18.7159  -19.4427  -13.8147 N   0  0  0  0  0  0  0  0  0  0  0  0
   25.8297  -20.3524  -10.5826 C   0  0  2  0  0  0  0  0  0  0  0  0
   26.5900  -20.8310   -9.4137 C   0  0  0  0  0  0  0  0  0  0  0  0
   27.6754  -19.8863   -9.0657 C   0  0  0  0  0  0  0  0  0  0  0  0
   28.4439  -20.3327   -7.8989 C   0  0  0  0  0  0  0  0  0  0  0  0
   29.3888  -21.3620   -7.8959 N   0  0  0  0  0  0  0  0  0  0  0  0
   29.8746  -21.5432   -6.6484 C   0  0  0  0  0  0  0  0  0  0  0  0
   29.2748  -20.6572   -5.8219 C   0  0  0  0  0  0  0  0  0  0  0  0
   29.4049  -20.3976   -4.4790 C   0  0  0  0  0  0  0  0  0  0  0  0
   28.6754  -19.3970   -3.8522 C   0  0  0  0  0  0  0  0  0  0  0  0
   27.7959  -18.6457   -4.6074 C   0  0  0  0  0  0  0  0  0  0  0  0
   27.6716  -18.9126   -5.9487 C   0  0  0  0  0  0  0  0  0  0  0  0
   28.4006  -19.9164   -6.5838 C   0  0  0  0  0  0  0  0  0  0  0  0
   25.6402  -21.1852   -8.3705 O   0  0  0  0  0  0  0  0  0  0  0  0
   24.5878  -20.5086   -8.2000 O   0  0  0  0  0  0  0  0  0  0  0  0
  2  1  1  6
  3  2  1  0
  4  3  1  0
  5  4  2  0
  6 17  1  0
  6  2  1  0
  7  6  2  0
  8  4  1  0
  9 10  1  0
 10 12  1  0
 10 11  2  0
 12 13  1  0
 13 14  1  0
 14 15  1  0
 16 17  1  0
 16 15  1  6
 18 16  1  0
 19 18  2  0
 20 18  1  0
 21 20  1  0
 22 23  1  0
 21 22  1  6
 23 24  2  0
 25 24  1  0
 26 25  1  0
 27 26  2  0
 28 27  1  0
 29 30  1  0
 29 28  2  0
 30 31  2  0
 31 26  1  0
 31 23  1  0
 32 21  1  0
 32 34  1  0
 33 32  2  0
M  END
$$$$
