DRW.pdb
     RDKit          3D

 34 35  0  0  1  0  0  0  0  0999 V2000
   25.7343  -17.4829  -16.5002 N   0  0  0  0  0  0  0  0  0  0  0  0
   26.4425  -18.3449  -15.5455 C   0  0  1  0  0  0  0  0  0  0  0  0
   27.7909  -17.7524  -15.3287 C   0  0  0  0  0  0  0  0  0  0  0  0
   28.6568  -17.7811  -16.5060 C   0  0  0  0  0  0  0  0  0  0  0  0
   28.3562  -18.0927  -17.6666 O   0  0  0  0  0  0  0  0  0  0  0  0
   25.6328  -18.4301  -14.2851 C   0  0  0  0  0  0  0  0  0  0  0  0
   25.2089  -17.4380  -13.6913 O   0  0  0  0  0  0  0  0  0  0  0  0
   30.0010  -17.4103  -16.3063 O   0  0  0  0  0  0  0  0  0  0  0  0
   22.1775  -25.5971  -13.4331 N   0  0  0  0  0  0  0  0  0  0  0  0
   23.1114  -25.4340  -14.4923 C   0  0  0  0  0  0  0  0  0  0  0  0
   23.5366  -26.4484  -15.1588 N   0  0  0  0  0  0  0  0  0  0  0  0
   23.5659  -24.1066  -14.7961 N   0  0  0  0  0  0  0  0  0  0  0  0
   23.0245  -23.0370  -13.9763 C   0  0  0  0  0  0  0  0  0  0  0  0
   24.1586  -22.1290  -13.5457 C   0  0  0  0  0  0  0  0  0  0  0  0
   23.5736  -20.9825  -12.7468 C   0  0  0  0  0  0  0  0  0  0  0  0
   24.6043  -19.9002  -12.5166 C   0  0  2  0  0  0  0  0  0  0  0  0
   25.3327  -19.7028  -13.7375 N   0  0  0  0  0  0  0  0  0  0  0  0
   25.5547  -20.4210  -11.4709 C   0  0  0  0  0  0  0  0  0  0  0  0
   26.4810  -21.1880  -11.8304 O   0  0  0  0  0  0  0  0  0  0  0  0
   24.1955  -26.2890  -15.9391 N   0  0  0  0  0  0  0  0  0  0  0  0
   25.4370  -20.0772  -10.1136 C   0  0  1  0  0  0  0  0  0  0  0  0
   26.3136  -20.6033   -9.0515 C   0  0  0  0  0  0  0  0  0  0  0  0
   27.4376  -19.6771   -8.7860 C   0  0  0  0  0  0  0  0  0  0  0  0
   28.3087  -20.1591   -7.7090 C   0  0  0  0  0  0  0  0  0  0  0  0
   29.1026  -21.3077   -7.7612 N   0  0  0  0  0  0  0  0  0  0  0  0
   29.7429  -21.4838   -6.5848 C   0  0  0  0  0  0  0  0  0  0  0  0
   29.3935  -20.4780   -5.7517 C   0  0  0  0  0  0  0  0  0  0  0  0
   29.7563  -20.1636   -4.4644 C   0  0  0  0  0  0  0  0  0  0  0  0
   29.2644  -19.0378   -3.8188 C   0  0  0  0  0  0  0  0  0  0  0  0
   28.3856  -18.2156   -4.4971 C   0  0  0  0  0  0  0  0  0  0  0  0
   28.0277  -18.5379   -5.7831 C   0  0  0  0  0  0  0  0  0  0  0  0
   28.5176  -19.6673   -6.4365 C   0  0  0  0  0  0  0  0  0  0  0  0
   25.4775  -20.9932   -7.9269 O   0  0  0  0  0  0  0  0  0  0  0  0
   24.2658  -20.6420   -7.8720 O   0  0  0  0  0  0  0  0  0  0  0  0
  2  1  1  6
  3  2  1  0
  4  3  1  0
  5  4  2  0
  6 17  1  0
  6  2  1  0
  7  6  2  0
  8  4  1  0
  9 10  1  0
 10 12  1  0
 10 11  2  0
 12 13  1  0
 13 14  1  0
 14 15  1  0
 16 17  1  0
 16 15  1  6
 18 16  1  0
 19 18  2  0
 20 18  1  0
 21 20  1  0
 22 23  1  0
 21 22  1  1
 23 24  2  0
 25 24  1  0
 26 25  1  0
 27 26  2  0
 28 27  1  0
 29 30  1  0
 29 28  2  0
 30 31  2  0
 31 26  1  0
 31 23  1  0
 32 21  1  0
 32 34  1  0
 33 32  2  0
M  END
$$$$
