DPF.pdb
     RDKit          3D

 27 28  0  0  1  0  0  0  0  0999 V2000
-426494.56251669773.3750316207.8125 N   0  0  0  0  0  0  0  0  0  0  0  0
-426494.65621669772.8750316208.9375 C   0  0  1  0  0  0  0  0  0  0  0  0
-426496.00001669773.0000316209.4375 C   0  0  0  0  0  0  0  0  0  0  0  0
-426495.84381669773.5000316210.8125 C   0  0  0  0  0  0  0  0  0  0  0  0
-426496.34381669773.2500316211.9375 O   0  0  0  0  0  0  0  0  0  0  0  0
-426495.37501669771.1250316207.9375 C   0  0  0  0  0  0  0  0  0  0  0  0
-426496.15621669771.5000316206.9375 O   0  0  0  0  0  0  0  0  0  0  0  0
-426494.31251669772.5000316211.0000 O   0  0  0  0  0  0  0  0  0  0  0  0
-426494.75001669769.7500316208.5000 N   0  0  0  0  0  0  0  0  0  0  0  0
-426494.56251669769.6250316209.5938 C   0  0  0  0  0  0  0  0  0  0  0  0
-426495.31251669768.3750316209.5312 C   0  0  0  0  0  0  0  0  0  0  0  0
-426495.15621669767.3750316208.2500 C   0  0  0  0  0  0  0  0  0  0  0  0
-426495.18751669768.6250316207.4375 C   0  0  1  0  0  0  0  0  0  0  0  0
-426496.43751669768.8750316206.4688 C   0  0  0  0  0  0  0  0  0  0  0  0
-426497.28121669768.6250316206.8750 O   0  0  0  0  0  0  0  0  0  0  0  0
-426496.21881669769.1250316205.2188 N   0  0  0  0  0  0  0  0  0  0  0  0
-426495.06251669769.8750316204.9375 C   0  0  1  0  0  0  0  0  0  0  0  0
-426494.90621669770.3750316203.6562 C   0  0  0  0  0  0  0  0  0  0  0  0
-426493.59381669769.6250316203.0625 C   0  0  0  0  0  0  0  0  0  0  0  0
-426493.90621669768.7500316201.9062 C   0  0  0  0  0  0  0  0  0  0  0  0
-426492.93751669768.1250316201.4688 C   0  0  0  0  0  0  0  0  0  0  0  0
-426491.81251669768.3750316201.9375 C   0  0  0  0  0  0  0  0  0  0  0  0
-426491.56251669769.0000316202.8438 C   0  0  0  0  0  0  0  0  0  0  0  0
-426492.40621669769.7500316203.5312 C   0  0  0  0  0  0  0  0  0  0  0  0
-426495.53121669771.6250316205.7812 C   0  0  0  0  0  0  0  0  0  0  0  0
-426496.12501669771.2500316206.8750 O   0  0  0  0  0  0  0  0  0  0  0  0
-426495.12501669772.3750316205.0938 O   0  0  0  0  0  0  0  0  0  0  0  0
  2  1  1  6
  2  3  1  0
  4  5  2  0
  4  3  1  0
  6  2  1  0
  6  7  2  0
  8  4  1  0
  9  6  1  0
 10  9  1  0
 11 10  1  0
 12 13  1  0
 12 11  1  0
 13  9  1  0
 13 14  1  1
 15 14  2  0
 16 14  1  0
 17 25  1  0
 17 16  1  0
 17 18  1  6
 19 18  1  0
 20 19  2  0
 21 20  1  0
 22 23  1  0
 22 21  2  0
 23 24  2  0
 24 19  1  0
 25 27  1  0
 26 25  2  0
M  END
$$$$
