DPF.pdb
     RDKit          3D

 27 28  0  0  1  0  0  0  0  0999 V2000
   25.6981  -13.4901  -20.3120 N   0  0  0  0  0  0  0  0  0  0  0  0
   24.4042  -13.3176  -19.6364 C   0  0  1  0  0  0  0  0  0  0  0  0
   24.5352  -14.1443  -18.3344 C   0  0  0  0  0  0  0  0  0  0  0  0
   24.6254  -15.5542  -18.7623 C   0  0  0  0  0  0  0  0  0  0  0  0
   23.7642  -16.0280  -19.5341 O   0  0  0  0  0  0  0  0  0  0  0  0
   24.1811  -11.9013  -19.3520 C   0  0  0  0  0  0  0  0  0  0  0  0
   25.0966  -11.2773  -18.7254 O   0  0  0  0  0  0  0  0  0  0  0  0
   25.6617  -16.3399  -18.3080 O   0  0  0  0  0  0  0  0  0  0  0  0
   22.9926  -11.2576  -19.7614 N   0  0  0  0  0  0  0  0  0  0  0  0
   22.0173  -11.7829  -20.6834 C   0  0  0  0  0  0  0  0  0  0  0  0
   20.7169  -11.3276  -19.9979 C   0  0  0  0  0  0  0  0  0  0  0  0
   21.0678   -9.8516  -19.8388 C   0  0  0  0  0  0  0  0  0  0  0  0
   22.5207   -9.9692  -19.3559 C   0  0  1  0  0  0  0  0  0  0  0  0
   22.5631   -9.7759  -17.8640 C   0  0  0  0  0  0  0  0  0  0  0  0
   22.2711  -10.6959  -17.0588 O   0  0  0  0  0  0  0  0  0  0  0  0
   22.9392   -8.5332  -17.3196 N   0  0  0  0  0  0  0  0  0  0  0  0
   23.0353   -8.3334  -15.8561 C   0  0  1  0  0  0  0  0  0  0  0  0
   24.3819   -7.7387  -15.5132 C   0  0  0  0  0  0  0  0  0  0  0  0
   25.4469   -8.7013  -15.8346 C   0  0  0  0  0  0  0  0  0  0  0  0
   26.2119   -8.4592  -16.9715 C   0  0  0  0  0  0  0  0  0  0  0  0
   27.2304   -9.2904  -17.3263 C   0  0  0  0  0  0  0  0  0  0  0  0
   27.5493  -10.4148  -16.5698 C   0  0  0  0  0  0  0  0  0  0  0  0
   26.8013  -10.6664  -15.4430 C   0  0  0  0  0  0  0  0  0  0  0  0
   25.7675   -9.8134  -15.0907 C   0  0  0  0  0  0  0  0  0  0  0  0
   21.9740   -7.3965  -15.4887 C   0  0  0  0  0  0  0  0  0  0  0  0
   21.2858   -6.8038  -16.3515 O   0  0  0  0  0  0  0  0  0  0  0  0
   21.6966   -7.1349  -14.1632 O   0  0  0  0  0  0  0  0  0  0  0  0
  2  1  1  6
  2  3  1  0
  4  5  2  0
  4  3  1  0
  6  2  1  0
  6  7  2  0
  8  4  1  0
  9  6  1  0
 10  9  1  0
 11 10  1  0
 12 13  1  0
 12 11  1  0
 13  9  1  0
 13 14  1  1
 15 14  2  0
 16 14  1  0
 17 25  1  0
 17 16  1  0
 17 18  1  6
 19 18  1  0
 20 19  2  0
 21 20  1  0
 22 23  1  0
 22 21  2  0
 23 24  2  0
 24 19  1  0
 25 27  1  0
 26 25  2  0
M  END
$$$$
