DPF.pdb
     RDKit          3D

 27 28  0  0  1  0  0  0  0  0999 V2000
   21.5816  -21.1578  -13.1392 N   0  0  0  0  0  0  0  0  0  0  0  0
   22.7522  -20.2820  -12.9868 C   0  0  1  0  0  0  0  0  0  0  0  0
   22.1588  -18.9121  -12.5782 C   0  0  0  0  0  0  0  0  0  0  0  0
   21.4982  -18.3845  -13.7883 C   0  0  0  0  0  0  0  0  0  0  0  0
   22.0268  -18.5479  -14.9088 O   0  0  0  0  0  0  0  0  0  0  0  0
   23.6350  -20.8144  -11.9506 C   0  0  0  0  0  0  0  0  0  0  0  0
   23.1802  -20.8681  -10.7630 O   0  0  0  0  0  0  0  0  0  0  0  0
   20.2996  -17.7152  -13.6741 O   0  0  0  0  0  0  0  0  0  0  0  0
   24.9409  -21.2512  -12.2642 N   0  0  0  0  0  0  0  0  0  0  0  0
   25.4870  -21.4113  -13.5884 C   0  0  0  0  0  0  0  0  0  0  0  0
   26.9126  -20.8764  -13.3651 C   0  0  0  0  0  0  0  0  0  0  0  0
   27.2736  -21.7355  -12.1574 C   0  0  0  0  0  0  0  0  0  0  0  0
   25.9741  -21.6236  -11.3472 C   0  0  1  0  0  0  0  0  0  0  0  0
   26.1643  -20.6181  -10.2437 C   0  0  0  0  0  0  0  0  0  0  0  0
   26.1566  -19.3790  -10.4552 O   0  0  0  0  0  0  0  0  0  0  0  0
   26.3599  -21.0481   -8.9174 N   0  0  0  0  0  0  0  0  0  0  0  0
   27.1635  -20.2520   -7.9626 C   0  0  1  0  0  0  0  0  0  0  0  0
   26.6712  -20.5008   -6.5553 C   0  0  0  0  0  0  0  0  0  0  0  0
   27.5897  -19.8776   -5.5899 C   0  0  0  0  0  0  0  0  0  0  0  0
   28.2448  -20.7146   -4.6918 C   0  0  0  0  0  0  0  0  0  0  0  0
   29.1271  -20.2190   -3.7808 C   0  0  0  0  0  0  0  0  0  0  0  0
   29.4110  -18.8580   -3.7084 C   0  0  0  0  0  0  0  0  0  0  0  0
   28.7706  -18.0187   -4.5905 C   0  0  0  0  0  0  0  0  0  0  0  0
   27.8751  -18.5339   -5.5141 C   0  0  0  0  0  0  0  0  0  0  0  0
   28.5460  -20.7117   -8.0905 C   0  0  0  0  0  0  0  0  0  0  0  0
   28.8254  -21.8983   -8.3792 O   0  0  0  0  0  0  0  0  0  0  0  0
   29.5965  -19.8399   -7.8940 O   0  0  0  0  0  0  0  0  0  0  0  0
  2  1  1  1
  2  3  1  0
  4  5  2  0
  4  3  1  0
  6  2  1  0
  6  7  2  0
  8  4  1  0
  9  6  1  0
 10  9  1  0
 11 10  1  0
 12 13  1  0
 12 11  1  0
 13  9  1  0
 13 14  1  1
 15 14  2  0
 16 14  1  0
 17 25  1  0
 17 16  1  0
 17 18  1  1
 19 18  1  0
 20 19  2  0
 21 20  1  0
 22 23  1  0
 22 21  2  0
 23 24  2  0
 24 19  1  0
 25 27  1  0
 26 25  2  0
M  END
$$$$
