DPF.pdb
     RDKit          3D

 27 28  0  0  1  0  0  0  0  0999 V2000
   24.6242  -20.9664  -17.6663 N   0  0  0  0  0  0  0  0  0  0  0  0
   25.1065  -19.8785  -16.8037 C   0  0  1  0  0  0  0  0  0  0  0  0
   23.9122  -18.8979  -16.7148 C   0  0  0  0  0  0  0  0  0  0  0  0
   24.4764  -17.5559  -16.9587 C   0  0  0  0  0  0  0  0  0  0  0  0
   24.2293  -16.6220  -16.1659 O   0  0  0  0  0  0  0  0  0  0  0  0
   25.4617  -20.4112  -15.4898 C   0  0  0  0  0  0  0  0  0  0  0  0
   24.5406  -20.9764  -14.8172 O   0  0  0  0  0  0  0  0  0  0  0  0
   25.2749  -17.3416  -18.0606 O   0  0  0  0  0  0  0  0  0  0  0  0
   26.7792  -20.2998  -14.9936 N   0  0  0  0  0  0  0  0  0  0  0  0
   27.9229  -19.8147  -15.7244 C   0  0  0  0  0  0  0  0  0  0  0  0
   28.6228  -18.9932  -14.6272 C   0  0  0  0  0  0  0  0  0  0  0  0
   28.6633  -20.0720  -13.5494 C   0  0  0  0  0  0  0  0  0  0  0  0
   27.2449  -20.6441  -13.6854 C   0  0  1  0  0  0  0  0  0  0  0  0
   26.3779  -20.0819  -12.5912 C   0  0  0  0  0  0  0  0  0  0  0  0
   26.0368  -18.8724  -12.5590 O   0  0  0  0  0  0  0  0  0  0  0  0
   25.9163  -20.9134  -11.5532 N   0  0  0  0  0  0  0  0  0  0  0  0
   25.1603  -20.3621  -10.4062 C   0  0  1  0  0  0  0  0  0  0  0  0
   23.8675  -21.1267  -10.2368 C   0  0  0  0  0  0  0  0  0  0  0  0
   23.0217  -20.9430  -11.4264 C   0  0  0  0  0  0  0  0  0  0  0  0
   22.7691  -19.6392  -11.8417 C   0  0  0  0  0  0  0  0  0  0  0  0
   22.0138  -19.3844  -12.9456 C   0  0  0  0  0  0  0  0  0  0  0  0
   21.4631  -20.4139  -13.7039 C   0  0  0  0  0  0  0  0  0  0  0  0
   21.7048  -21.7081  -13.3051 C   0  0  0  0  0  0  0  0  0  0  0  0
   22.4757  -21.9560  -12.1805 C   0  0  0  0  0  0  0  0  0  0  0  0
   25.9999  -20.5438   -9.2224 C   0  0  0  0  0  0  0  0  0  0  0  0
   27.0788  -21.1791   -9.2669 O   0  0  0  0  0  0  0  0  0  0  0  0
   25.6226  -20.0138   -8.0064 O   0  0  0  0  0  0  0  0  0  0  0  0
  2  1  1  6
  2  3  1  0
  4  5  2  0
  4  3  1  0
  6  2  1  0
  6  7  2  0
  8  4  1  0
  9  6  1  0
 10  9  1  0
 11 10  1  0
 12 13  1  0
 12 11  1  0
 13  9  1  0
 13 14  1  1
 15 14  2  0
 16 14  1  0
 17 25  1  0
 17 16  1  0
 17 18  1  1
 19 18  1  0
 20 19  2  0
 21 20  1  0
 22 23  1  0
 22 21  2  0
 23 24  2  0
 24 19  1  0
 25 27  1  0
 26 25  2  0
M  END
$$$$
