DPF.pdb
     RDKit          3D

 27 28  0  0  1  0  0  0  0  0999 V2000
   25.2824  -23.0245  -16.6355 N   0  0  0  0  0  0  0  0  0  0  0  0
   25.3921  -21.7123  -15.9825 C   0  0  1  0  0  0  0  0  0  0  0  0
   23.9267  -21.2844  -15.7271 C   0  0  0  0  0  0  0  0  0  0  0  0
   23.3897  -20.8878  -17.0438 C   0  0  0  0  0  0  0  0  0  0  0  0
   24.0269  -20.0875  -17.7617 O   0  0  0  0  0  0  0  0  0  0  0  0
   26.1377  -21.8442  -14.7322 C   0  0  0  0  0  0  0  0  0  0  0  0
   25.8578  -22.8352  -13.9839 O   0  0  0  0  0  0  0  0  0  0  0  0
   22.1877  -21.4051  -17.4740 O   0  0  0  0  0  0  0  0  0  0  0  0
   27.1297  -20.9042  -14.3764 N   0  0  0  0  0  0  0  0  0  0  0  0
   27.7455  -19.9452  -15.2587 C   0  0  0  0  0  0  0  0  0  0  0  0
   27.8237  -18.7234  -14.3261 C   0  0  0  0  0  0  0  0  0  0  0  0
   28.5152  -19.4015  -13.1476 C   0  0  0  0  0  0  0  0  0  0  0  0
   27.7228  -20.7155  -13.0881 C   0  0  1  0  0  0  0  0  0  0  0  0
   26.7037  -20.6288  -11.9841 C   0  0  0  0  0  0  0  0  0  0  0  0
   25.5803  -20.0890  -12.1478 O   0  0  0  0  0  0  0  0  0  0  0  0
   26.9877  -21.1615  -10.7123 N   0  0  0  0  0  0  0  0  0  0  0  0
   25.9271  -21.3205   -9.6920 C   0  0  1  0  0  0  0  0  0  0  0  0
   26.5258  -21.8797   -8.4217 C   0  0  0  0  0  0  0  0  0  0  0  0
   27.4254  -20.8855   -7.8165 C   0  0  0  0  0  0  0  0  0  0  0  0
   26.8524  -19.7236   -7.3086 C   0  0  0  0  0  0  0  0  0  0  0  0
   27.6132  -18.7640   -6.7133 C   0  0  0  0  0  0  0  0  0  0  0  0
   28.9927  -18.9030   -6.5877 C   0  0  0  0  0  0  0  0  0  0  0  0
   29.5728  -20.0468   -7.0853 C   0  0  0  0  0  0  0  0  0  0  0  0
   28.7889  -21.0175   -7.6885 C   0  0  0  0  0  0  0  0  0  0  0  0
   25.3854  -19.9862   -9.4367 C   0  0  0  0  0  0  0  0  0  0  0  0
   24.2471  -19.8171   -8.9416 O   0  0  0  0  0  0  0  0  0  0  0  0
   26.1224  -18.8601   -9.7379 O   0  0  0  0  0  0  0  0  0  0  0  0
  2  1  1  1
  2  3  1  0
  4  5  2  0
  4  3  1  0
  6  2  1  0
  6  7  2  0
  8  4  1  0
  9  6  1  0
 10  9  1  0
 11 10  1  0
 12 13  1  0
 12 11  1  0
 13  9  1  0
 13 14  1  1
 15 14  2  0
 16 14  1  0
 17 25  1  0
 17 16  1  0
 17 18  1  1
 19 18  1  0
 20 19  2  0
 21 20  1  0
 22 23  1  0
 22 21  2  0
 23 24  2  0
 24 19  1  0
 25 27  1  0
 26 25  2  0
M  END
$$$$
