DPF.pdb
     RDKit          3D

 27 28  0  0  1  0  0  0  0  0999 V2000
   28.1929  -18.6093  -16.0243 N   0  0  0  0  0  0  0  0  0  0  0  0
   26.9640  -19.3415  -16.3622 C   0  0  1  0  0  0  0  0  0  0  0  0
   27.3829  -20.8314  -16.3368 C   0  0  0  0  0  0  0  0  0  0  0  0
   28.2254  -21.0312  -17.5324 C   0  0  0  0  0  0  0  0  0  0  0  0
   29.2624  -21.7244  -17.4557 O   0  0  0  0  0  0  0  0  0  0  0  0
   25.9314  -19.0580  -15.3673 C   0  0  0  0  0  0  0  0  0  0  0  0
   26.1899  -19.3463  -14.1548 O   0  0  0  0  0  0  0  0  0  0  0  0
   27.8612  -20.4521  -18.7280 O   0  0  0  0  0  0  0  0  0  0  0  0
   24.6973  -18.4850  -15.7456 N   0  0  0  0  0  0  0  0  0  0  0  0
   24.4022  -17.8658  -17.0133 C   0  0  0  0  0  0  0  0  0  0  0  0
   22.9713  -18.3823  -17.2457 C   0  0  0  0  0  0  0  0  0  0  0  0
   22.3755  -17.9639  -15.9052 C   0  0  0  0  0  0  0  0  0  0  0  0
   23.5049  -18.3977  -14.9597 C   0  0  1  0  0  0  0  0  0  0  0  0
   23.1347  -19.7061  -14.3147 C   0  0  0  0  0  0  0  0  0  0  0  0
   23.1605  -20.7952  -14.9419 O   0  0  0  0  0  0  0  0  0  0  0  0
   22.7417  -19.7454  -12.9634 N   0  0  0  0  0  0  0  0  0  0  0  0
   22.3400  -21.0151  -12.3171 C   0  0  1  0  0  0  0  0  0  0  0  0
   22.6961  -20.9710  -10.8488 C   0  0  0  0  0  0  0  0  0  0  0  0
   24.1528  -20.8358  -10.6943 C   0  0  0  0  0  0  0  0  0  0  0  0
   24.6184  -19.9259   -9.7502 C   0  0  0  0  0  0  0  0  0  0  0  0
   25.9516  -19.7569   -9.5311 C   0  0  0  0  0  0  0  0  0  0  0  0
   26.9036  -20.4845  -10.2401 C   0  0  0  0  0  0  0  0  0  0  0  0
   26.4575  -21.3879  -11.1768 C   0  0  0  0  0  0  0  0  0  0  0  0
   25.0983  -21.5524  -11.3910 C   0  0  0  0  0  0  0  0  0  0  0  0
   20.8895  -21.1246  -12.4701 C   0  0  0  0  0  0  0  0  0  0  0  0
   20.1720  -20.1269  -12.7133 O   0  0  0  0  0  0  0  0  0  0  0  0
   20.2615  -22.3465  -12.3493 O   0  0  0  0  0  0  0  0  0  0  0  0
  2  1  1  1
  2  3  1  0
  4  5  2  0
  4  3  1  0
  6  2  1  0
  6  7  2  0
  8  4  1  0
  9  6  1  0
 10  9  1  0
 11 10  1  0
 12 13  1  0
 12 11  1  0
 13  9  1  0
 13 14  1  6
 15 14  2  0
 16 14  1  0
 17 25  1  0
 17 16  1  0
 17 18  1  1
 19 18  1  0
 20 19  2  0
 21 20  1  0
 22 23  1  0
 22 21  2  0
 23 24  2  0
 24 19  1  0
 25 27  1  0
 26 25  2  0
M  END
$$$$
