WTN.pdb
     RDKit          3D

 30 31  0  0  1  0  0  0  0  0999 V2000
   26.2091  -22.7574  -11.7930 N   0  0  0  0  0  0  0  0  0  0  0  0
   25.6012  -21.5275  -11.3259 C   0  0  1  0  0  0  0  0  0  0  0  0
   26.5056  -20.3460  -11.4557 C   0  0  0  0  0  0  0  0  0  0  0  0
   27.7065  -20.5928  -10.6211 C   0  0  0  0  0  0  0  0  0  0  0  0
   28.9729  -20.9755  -11.0306 C   0  0  0  0  0  0  0  0  0  0  0  0
   29.7426  -21.0839   -9.9528 N   0  0  0  0  0  0  0  0  0  0  0  0
   29.0120  -20.7827   -8.8577 C   0  0  0  0  0  0  0  0  0  0  0  0
   29.3170  -20.7394   -7.5122 C   0  0  0  0  0  0  0  0  0  0  0  0
   28.3580  -20.3917   -6.5846 C   0  0  0  0  0  0  0  0  0  0  0  0
   27.0732  -20.0805   -6.9911 C   0  0  0  0  0  0  0  0  0  0  0  0
   26.7338  -20.1148   -8.3412 C   0  0  0  0  0  0  0  0  0  0  0  0
   27.7177  -20.4671   -9.2452 C   0  0  0  0  0  0  0  0  0  0  0  0
   24.2922  -21.3446  -12.0094 C   0  0  0  0  0  0  0  0  0  0  0  0
   24.1999  -21.7040  -13.2116 O   0  0  0  0  0  0  0  0  0  0  0  0
   20.7020  -21.4108  -10.0148 C   0  0  0  0  0  0  0  0  0  0  0  0
   20.7646  -20.3690  -11.1010 C   0  0  1  0  0  0  0  0  0  0  0  0
   21.1155  -19.1483  -10.5050 O   0  0  0  0  0  0  0  0  0  0  0  0
   21.8972  -20.7029  -12.0695 C   0  0  2  0  0  0  0  0  0  0  0  0
   23.1607  -20.7970  -11.3929 N   0  0  0  0  0  0  0  0  0  0  0  0
   21.8822  -19.6495  -13.1095 C   0  0  0  0  0  0  0  0  0  0  0  0
   22.9805  -19.1332  -13.4389 O   0  0  0  0  0  0  0  0  0  0  0  0
   21.9067  -20.2702  -18.2873 N   0  0  0  0  0  0  0  0  0  0  0  0
   20.8746  -20.3159  -17.3211 C   0  0  0  0  0  0  0  0  0  0  0  0
   19.6812  -20.2995  -17.7687 O   0  0  0  0  0  0  0  0  0  0  0  0
   21.0625  -20.3832  -15.8636 C   0  0  0  0  0  0  0  0  0  0  0  0
   20.5703  -19.1451  -15.2137 C   0  0  2  0  0  0  0  0  0  0  0  0
   20.7142  -19.1905  -13.7522 N   0  0  0  0  0  0  0  0  0  0  0  0
   19.1418  -18.9090  -15.5044 C   0  0  0  0  0  0  0  0  0  0  0  0
   18.2471  -19.5911  -14.8969 O   0  0  0  0  0  0  0  0  0  0  0  0
   18.6828  -17.9750  -16.4141 O   0  0  0  0  0  0  0  0  0  0  0  0
  2  1  1  6
  2 13  1  0
  2  3  1  0
  3  4  1  0
  4 12  1  0
  4  5  2  0
  5  6  1  0
  7  6  1  0
  7  8  2  0
  9  8  1  0
 10  9  2  0
 11 12  2  0
 11 10  1  0
 12  7  1  0
 13 19  1  0
 14 13  2  0
 16 15  1  1
 16 17  1  0
 16 18  1  0
 18 20  1  0
 18 19  1  1
 20 27  1  0
 21 20  2  0
 22 23  1  0
 23 24  2  0
 25 23  1  0
 26 25  1  6
 26 28  1  0
 27 26  1  0
 28 29  2  0
 28 30  1  0
M  END
$$$$
