WTN.pdb
     RDKit          3D

 30 31  0  0  1  0  0  0  0  0999 V2000
   26.8604  -20.2645  -16.5815 N   0  0  0  0  0  0  0  0  0  0  0  0
   26.7451  -19.5963  -15.3006 C   0  0  1  0  0  0  0  0  0  0  0  0
   26.1403  -18.2350  -15.4074 C   0  0  0  0  0  0  0  0  0  0  0  0
   26.8883  -17.4798  -16.4419 C   0  0  0  0  0  0  0  0  0  0  0  0
   26.3837  -16.7539  -17.5078 C   0  0  0  0  0  0  0  0  0  0  0  0
   27.4073  -16.2414  -18.1826 N   0  0  0  0  0  0  0  0  0  0  0  0
   28.5596  -16.6140  -17.5850 C   0  0  0  0  0  0  0  0  0  0  0  0
   29.8862  -16.3613  -17.8709 C   0  0  0  0  0  0  0  0  0  0  0  0
   30.8874  -16.8777  -17.0760 C   0  0  0  0  0  0  0  0  0  0  0  0
   30.5752  -17.6584  -15.9779 C   0  0  0  0  0  0  0  0  0  0  0  0
   29.2465  -17.9316  -15.6628 C   0  0  0  0  0  0  0  0  0  0  0  0
   28.2670  -17.3992  -16.4792 C   0  0  0  0  0  0  0  0  0  0  0  0
   26.0237  -20.4882  -14.3528 C   0  0  0  0  0  0  0  0  0  0  0  0
   25.5111  -21.5424  -14.8099 O   0  0  0  0  0  0  0  0  0  0  0  0
   26.8554  -21.1267  -10.4642 C   0  0  0  0  0  0  0  0  0  0  0  0
   25.3897  -20.8435  -10.6660 C   0  0  1  0  0  0  0  0  0  0  0  0
   25.1692  -19.4901  -10.3690 O   0  0  0  0  0  0  0  0  0  0  0  0
   25.0313  -21.0122  -12.1410 C   0  0  2  0  0  0  0  0  0  0  0  0
   25.8831  -20.2219  -12.9855 N   0  0  0  0  0  0  0  0  0  0  0  0
   23.6022  -20.6479  -12.2684 C   0  0  0  0  0  0  0  0  0  0  0  0
   23.3242  -19.5135  -12.7345 O   0  0  0  0  0  0  0  0  0  0  0  0
   18.2276  -21.9214  -14.0437 N   0  0  0  0  0  0  0  0  0  0  0  0
   19.2779  -21.0414  -13.6926 C   0  0  0  0  0  0  0  0  0  0  0  0
   18.9574  -19.8195  -13.5222 O   0  0  0  0  0  0  0  0  0  0  0  0
   20.6886  -21.4155  -13.5075 C   0  0  0  0  0  0  0  0  0  0  0  0
   21.1252  -21.1432  -12.1174 C   0  0  2  0  0  0  0  0  0  0  0  0
   22.5356  -21.4932  -11.9000 N   0  0  0  0  0  0  0  0  0  0  0  0
   20.3295  -21.9092  -11.1372 C   0  0  0  0  0  0  0  0  0  0  0  0
   19.0695  -21.7115  -11.0463 O   0  0  0  0  0  0  0  0  0  0  0  0
   20.8611  -22.8556  -10.2815 O   0  0  0  0  0  0  0  0  0  0  0  0
  2  1  1  6
  2 13  1  0
  2  3  1  0
  3  4  1  0
  4 12  1  0
  4  5  2  0
  5  6  1  0
  7  6  1  0
  7  8  2  0
  9  8  1  0
 10  9  2  0
 11 12  2  0
 11 10  1  0
 12  7  1  0
 13 19  1  0
 14 13  2  0
 16 15  1  6
 16 17  1  0
 16 18  1  0
 18 20  1  0
 18 19  1  6
 20 27  1  0
 21 20  2  0
 22 23  1  0
 23 24  2  0
 25 23  1  0
 26 25  1  6
 26 28  1  0
 27 26  1  0
 28 29  2  0
 28 30  1  0
M  END
$$$$
