WTN.pdb
     RDKit          3D

 30 31  0  0  1  0  0  0  0  0999 V2000
   28.2231  -21.9002  -10.2582 N   0  0  0  0  0  0  0  0  0  0  0  0
   27.2128  -20.9691   -9.7970 C   0  0  1  0  0  0  0  0  0  0  0  0
   27.7874  -19.8109   -9.0494 C   0  0  0  0  0  0  0  0  0  0  0  0
   28.6090  -20.3448   -7.9359 C   0  0  0  0  0  0  0  0  0  0  0  0
   29.6541  -21.2513   -7.9980 C   0  0  0  0  0  0  0  0  0  0  0  0
   30.1047  -21.4504   -6.7639 N   0  0  0  0  0  0  0  0  0  0  0  0
   29.3823  -20.6996   -5.9047 C   0  0  0  0  0  0  0  0  0  0  0  0
   29.4332  -20.5347   -4.5352 C   0  0  0  0  0  0  0  0  0  0  0  0
   28.5560  -19.6844   -3.8962 C   0  0  0  0  0  0  0  0  0  0  0  0
   27.6100  -18.9827   -4.6212 C   0  0  0  0  0  0  0  0  0  0  0  0
   27.5329  -19.1271   -6.0041 C   0  0  0  0  0  0  0  0  0  0  0  0
   28.4263  -19.9869   -6.6140 C   0  0  0  0  0  0  0  0  0  0  0  0
   26.3660  -20.5630  -10.9511 C   0  0  0  0  0  0  0  0  0  0  0  0
   26.8033  -19.6644  -11.7155 O   0  0  0  0  0  0  0  0  0  0  0  0
   25.8990  -21.8295  -14.0295 C   0  0  0  0  0  0  0  0  0  0  0  0
   24.4878  -21.8081  -13.5030 C   0  0  1  0  0  0  0  0  0  0  0  0
   24.2424  -23.0425  -12.8827 O   0  0  0  0  0  0  0  0  0  0  0  0
   24.3647  -20.7553  -12.4035 C   0  0  2  0  0  0  0  0  0  0  0  0
   25.1140  -21.1221  -11.2343 N   0  0  0  0  0  0  0  0  0  0  0  0
   22.9177  -20.6024  -12.1310 C   0  0  0  0  0  0  0  0  0  0  0  0
   22.4582  -21.1266  -11.0844 O   0  0  0  0  0  0  0  0  0  0  0  0
   18.1487  -17.3515  -12.2894 N   0  0  0  0  0  0  0  0  0  0  0  0
   18.5927  -18.4131  -13.1119 C   0  0  0  0  0  0  0  0  0  0  0  0
   17.6948  -19.2129  -13.5349 O   0  0  0  0  0  0  0  0  0  0  0  0
   19.9847  -18.6644  -13.5162 C   0  0  0  0  0  0  0  0  0  0  0  0
   20.6225  -19.6527  -12.6140 C   0  0  2  0  0  0  0  0  0  0  0  0
   22.0248  -19.9064  -12.9714 N   0  0  0  0  0  0  0  0  0  0  0  0
   19.9215  -20.9520  -12.6477 C   0  0  0  0  0  0  0  0  0  0  0  0
   20.2329  -21.8207  -13.5326 O   0  0  0  0  0  0  0  0  0  0  0  0
   18.9205  -21.3127  -11.7655 O   0  0  0  0  0  0  0  0  0  0  0  0
  2  1  1  6
  2 13  1  0
  2  3  1  0
  3  4  1  0
  4 12  1  0
  4  5  2  0
  5  6  1  0
  7  6  1  0
  7  8  2  0
  9  8  1  0
 10  9  2  0
 11 12  2  0
 11 10  1  0
 12  7  1  0
 13 19  1  0
 14 13  2  0
 16 15  1  1
 16 17  1  0
 16 18  1  0
 18 20  1  0
 18 19  1  1
 20 27  1  0
 21 20  2  0
 22 23  1  0
 23 24  2  0
 25 23  1  0
 26 25  1  6
 26 28  1  0
 27 26  1  0
 28 29  2  0
 28 30  1  0
M  END
$$$$
