WTN.pdb
     RDKit          3D

 30 31  0  0  1  0  0  0  0  0999 V2000
   27.7191  -22.5454  -13.1489 N   0  0  0  0  0  0  0  0  0  0  0  0
   26.7476  -21.6312  -12.5826 C   0  0  1  0  0  0  0  0  0  0  0  0
   27.3572  -20.3492  -12.1183 C   0  0  0  0  0  0  0  0  0  0  0  0
   28.2623  -20.6553  -10.9838 C   0  0  0  0  0  0  0  0  0  0  0  0
   29.6056  -20.9899  -11.0233 C   0  0  0  0  0  0  0  0  0  0  0  0
   30.0222  -21.1827   -9.7763 N   0  0  0  0  0  0  0  0  0  0  0  0
   28.9883  -20.9829   -8.9306 C   0  0  0  0  0  0  0  0  0  0  0  0
   28.8766  -21.0518   -7.5566 C   0  0  0  0  0  0  0  0  0  0  0  0
   27.6733  -20.7933   -6.9352 C   0  0  0  0  0  0  0  0  0  0  0  0
   26.5582  -20.4604   -7.6826 C   0  0  0  0  0  0  0  0  0  0  0  0
   26.6382  -20.3825   -9.0706 C   0  0  0  0  0  0  0  0  0  0  0  0
   27.8584  -20.6473   -9.6626 C   0  0  0  0  0  0  0  0  0  0  0  0
   25.6401  -21.4372  -13.5572 C   0  0  0  0  0  0  0  0  0  0  0  0
   25.9177  -21.4920  -14.7832 O   0  0  0  0  0  0  0  0  0  0  0  0
   24.1907  -23.0387  -15.5069 C   0  0  0  0  0  0  0  0  0  0  0  0
   22.9893  -22.5828  -14.7207 C   0  0  1  0  0  0  0  0  0  0  0  0
   22.8548  -23.4316  -13.6117 O   0  0  0  0  0  0  0  0  0  0  0  0
   23.2453  -21.1886  -14.1523 C   0  0  2  0  0  0  0  0  0  0  0  0
   24.3107  -21.1980  -13.1891 N   0  0  0  0  0  0  0  0  0  0  0  0
   21.9602  -20.7282  -13.5795 C   0  0  0  0  0  0  0  0  0  0  0  0
   21.7821  -20.8736  -12.3432 O   0  0  0  0  0  0  0  0  0  0  0  0
   17.4384  -18.0725  -12.9247 N   0  0  0  0  0  0  0  0  0  0  0  0
   18.2729  -17.5336  -13.9318 C   0  0  0  0  0  0  0  0  0  0  0  0
   17.8932  -16.4326  -14.4501 O   0  0  0  0  0  0  0  0  0  0  0  0
   19.5262  -18.1288  -14.4206 C   0  0  0  0  0  0  0  0  0  0  0  0
   19.8072  -19.4062  -13.7230 C   0  0  2  0  0  0  0  0  0  0  0  0
   20.9255  -20.1377  -14.3338 N   0  0  0  0  0  0  0  0  0  0  0  0
   18.6358  -20.3052  -13.7412 C   0  0  0  0  0  0  0  0  0  0  0  0
   18.4882  -21.1395  -14.6988 O   0  0  0  0  0  0  0  0  0  0  0  0
   17.6536  -20.3138  -12.7688 O   0  0  0  0  0  0  0  0  0  0  0  0
  2  1  1  6
  2 13  1  0
  2  3  1  0
  3  4  1  0
  4 12  1  0
  4  5  2  0
  5  6  1  0
  7  6  1  0
  7  8  2  0
  9  8  1  0
 10  9  2  0
 11 12  2  0
 11 10  1  0
 12  7  1  0
 13 19  1  0
 14 13  2  0
 16 15  1  6
 16 17  1  0
 16 18  1  0
 18 20  1  0
 18 19  1  1
 20 27  1  0
 21 20  2  0
 22 23  1  0
 23 24  2  0
 25 23  1  0
 26 25  1  6
 26 28  1  0
 27 26  1  0
 28 29  2  0
 28 30  1  0
M  END
$$$$
