WTN.pdb
     RDKit          3D

 30 31  0  0  1  0  0  0  0  0999 V2000
   28.0303  -21.5059  -10.3165 N   0  0  0  0  0  0  0  0  0  0  0  0
   26.7575  -21.0266   -9.8159 C   0  0  1  0  0  0  0  0  0  0  0  0
   26.9047  -20.0069   -8.7347 C   0  0  0  0  0  0  0  0  0  0  0  0
   28.0523  -20.4031   -7.8827 C   0  0  0  0  0  0  0  0  0  0  0  0
   29.1798  -21.1228   -8.2413 C   0  0  0  0  0  0  0  0  0  0  0  0
   29.9497  -21.2513   -7.1658 N   0  0  0  0  0  0  0  0  0  0  0  0
   29.3540  -20.6359   -6.1216 C   0  0  0  0  0  0  0  0  0  0  0  0
   29.7177  -20.4727   -4.8001 C   0  0  0  0  0  0  0  0  0  0  0  0
   28.9033  -19.7837   -3.9266 C   0  0  0  0  0  0  0  0  0  0  0  0
   27.7070  -19.2449   -4.3641 C   0  0  0  0  0  0  0  0  0  0  0  0
   27.3116  -19.3923   -5.6912 C   0  0  0  0  0  0  0  0  0  0  0  0
   28.1502  -20.0881   -6.5410 C   0  0  0  0  0  0  0  0  0  0  0  0
   25.9334  -20.5550  -10.9616 C   0  0  0  0  0  0  0  0  0  0  0  0
   26.0781  -19.3641  -11.3407 O   0  0  0  0  0  0  0  0  0  0  0  0
   25.8068  -21.7286  -14.5049 C   0  0  0  0  0  0  0  0  0  0  0  0
   24.3988  -21.7954  -13.9735 C   0  0  1  0  0  0  0  0  0  0  0  0
   24.1834  -23.0951  -13.4910 O   0  0  0  0  0  0  0  0  0  0  0  0
   24.2605  -20.8719  -12.7650 C   0  0  2  0  0  0  0  0  0  0  0  0
   25.0089  -21.3585  -11.6397 N   0  0  0  0  0  0  0  0  0  0  0  0
   22.8110  -20.7642  -12.4847 C   0  0  0  0  0  0  0  0  0  0  0  0
   22.3576  -21.3827  -11.4881 O   0  0  0  0  0  0  0  0  0  0  0  0
   17.7979  -17.7956  -12.4303 N   0  0  0  0  0  0  0  0  0  0  0  0
   18.4219  -18.6549  -13.3647 C   0  0  0  0  0  0  0  0  0  0  0  0
   17.6524  -19.4361  -14.0147 O   0  0  0  0  0  0  0  0  0  0  0  0
   19.8644  -18.7179  -13.6464 C   0  0  0  0  0  0  0  0  0  0  0  0
   20.4942  -19.8392  -12.9093 C   0  0  2  0  0  0  0  0  0  0  0  0
   21.9092  -20.0121  -13.2652 N   0  0  0  0  0  0  0  0  0  0  0  0
   19.8150  -21.1212  -13.1850 C   0  0  0  0  0  0  0  0  0  0  0  0
   18.9079  -21.5452  -12.3899 O   0  0  0  0  0  0  0  0  0  0  0  0
   20.0948  -21.9249  -14.2742 O   0  0  0  0  0  0  0  0  0  0  0  0
  2  1  1  6
  2 13  1  0
  2  3  1  0
  3  4  1  0
  4 12  1  0
  4  5  2  0
  5  6  1  0
  7  6  1  0
  7  8  2  0
  9  8  1  0
 10  9  2  0
 11 12  2  0
 11 10  1  0
 12  7  1  0
 13 19  1  0
 14 13  2  0
 16 15  1  1
 16 17  1  0
 16 18  1  0
 18 20  1  0
 18 19  1  1
 20 27  1  0
 21 20  2  0
 22 23  1  0
 23 24  2  0
 25 23  1  0
 26 25  1  6
 26 28  1  0
 27 26  1  0
 28 29  2  0
 28 30  1  0
M  END
$$$$
