WTN.pdb
     RDKit          3D

 30 31  0  0  1  0  0  0  0  0999 V2000
   22.3416  -13.6101  -17.7573 N   0  0  0  0  0  0  0  0  0  0  0  0
   23.0222  -12.4543  -17.2087 C   0  0  1  0  0  0  0  0  0  0  0  0
   24.1320  -11.9651  -18.0801 C   0  0  0  0  0  0  0  0  0  0  0  0
   25.2061  -12.9879  -18.0737 C   0  0  0  0  0  0  0  0  0  0  0  0
   25.4209  -14.0131  -18.9796 C   0  0  0  0  0  0  0  0  0  0  0  0
   26.4947  -14.6925  -18.5908 N   0  0  0  0  0  0  0  0  0  0  0  0
   26.9815  -14.1374  -17.4600 C   0  0  0  0  0  0  0  0  0  0  0  0
   28.0601  -14.4453  -16.6557 C   0  0  0  0  0  0  0  0  0  0  0  0
   28.3366  -13.6950  -15.5325 C   0  0  0  0  0  0  0  0  0  0  0  0
   27.5343  -12.6201  -15.1954 C   0  0  0  0  0  0  0  0  0  0  0  0
   26.4386  -12.2836  -15.9863 C   0  0  0  0  0  0  0  0  0  0  0  0
   26.1888  -13.0554  -17.1049 C   0  0  0  0  0  0  0  0  0  0  0  0
   22.0157  -11.4048  -16.8928 C   0  0  0  0  0  0  0  0  0  0  0  0
   21.0374  -11.2728  -17.6728 O   0  0  0  0  0  0  0  0  0  0  0  0
   19.2449   -8.8110  -14.0559 C   0  0  0  0  0  0  0  0  0  0  0  0
   20.3114   -9.8566  -14.2519 C   0  0  1  0  0  0  0  0  0  0  0  0
   19.6718  -11.0834  -14.4852 O   0  0  0  0  0  0  0  0  0  0  0  0
   21.1052   -9.5505  -15.5202 C   0  0  2  0  0  0  0  0  0  0  0  0
   22.0950  -10.5584  -15.7803 N   0  0  0  0  0  0  0  0  0  0  0  0
   21.6943   -8.2057  -15.3305 C   0  0  0  0  0  0  0  0  0  0  0  0
   22.7657   -8.1202  -14.6778 O   0  0  0  0  0  0  0  0  0  0  0  0
   23.0605   -3.1748  -15.8367 N   0  0  0  0  0  0  0  0  0  0  0  0
   21.9215   -3.4439  -16.6311 C   0  0  0  0  0  0  0  0  0  0  0  0
   21.5044   -2.4867  -17.3623 O   0  0  0  0  0  0  0  0  0  0  0  0
   21.1915   -4.7199  -16.6846 C   0  0  0  0  0  0  0  0  0  0  0  0
   21.8160   -5.7195  -15.7856 C   0  0  2  0  0  0  0  0  0  0  0  0
   21.1287   -7.0171  -15.8358 N   0  0  0  0  0  0  0  0  0  0  0  0
   21.7996   -5.2711  -14.3786 C   0  0  0  0  0  0  0  0  0  0  0  0
   22.4527   -4.2269  -14.0354 O   0  0  0  0  0  0  0  0  0  0  0  0
   21.1085   -5.9163  -13.3704 O   0  0  0  0  0  0  0  0  0  0  0  0
  2  1  1  6
  2 13  1  0
  2  3  1  0
  3  4  1  0
  4 12  1  0
  4  5  2  0
  5  6  1  0
  7  6  1  0
  7  8  2  0
  9  8  1  0
 10  9  2  0
 11 12  2  0
 11 10  1  0
 12  7  1  0
 13 19  1  0
 14 13  2  0
 16 15  1  6
 16 17  1  0
 16 18  1  0
 18 20  1  0
 18 19  1  1
 20 27  1  0
 21 20  2  0
 22 23  1  0
 23 24  2  0
 25 23  1  0
 26 25  1  6
 26 28  1  0
 27 26  1  0
 28 29  2  0
 28 30  1  0
M  END
$$$$
