WTN.pdb
     RDKit          3D

 30 31  0  0  1  0  0  0  0  0999 V2000
   28.2441  -21.2886  -10.4378 N   0  0  0  0  0  0  0  0  0  0  0  0
   26.9582  -20.9222   -9.8787 C   0  0  1  0  0  0  0  0  0  0  0  0
   27.0667  -19.9121   -8.7840 C   0  0  0  0  0  0  0  0  0  0  0  0
   28.2339  -20.2707   -7.9420 C   0  0  0  0  0  0  0  0  0  0  0  0
   29.3574  -20.9983   -8.2969 C   0  0  0  0  0  0  0  0  0  0  0  0
   30.1502  -21.0827   -7.2338 N   0  0  0  0  0  0  0  0  0  0  0  0
   29.5732  -20.4311   -6.2012 C   0  0  0  0  0  0  0  0  0  0  0  0
   29.9635  -20.2165   -4.8947 C   0  0  0  0  0  0  0  0  0  0  0  0
   29.1639  -19.4987   -4.0308 C   0  0  0  0  0  0  0  0  0  0  0  0
   27.9558  -18.9823   -4.4630 C   0  0  0  0  0  0  0  0  0  0  0  0
   27.5337  -19.1813   -5.7750 C   0  0  0  0  0  0  0  0  0  0  0  0
   28.3581  -19.9049   -6.6154 C   0  0  0  0  0  0  0  0  0  0  0  0
   26.0535  -20.4997  -10.9819 C   0  0  0  0  0  0  0  0  0  0  0  0
   26.3496  -19.4564  -11.6199 O   0  0  0  0  0  0  0  0  0  0  0  0
   25.5881  -21.4833  -14.2228 C   0  0  0  0  0  0  0  0  0  0  0  0
   24.1990  -21.6311  -13.6592 C   0  0  1  0  0  0  0  0  0  0  0  0
   24.0569  -22.9525  -13.2091 O   0  0  0  0  0  0  0  0  0  0  0  0
   24.0493  -20.7490  -12.4215 C   0  0  2  0  0  0  0  0  0  0  0  0
   24.8950  -21.1946  -11.3495 N   0  0  0  0  0  0  0  0  0  0  0  0
   22.6130  -20.7705  -12.0639 C   0  0  0  0  0  0  0  0  0  0  0  0
   22.2648  -21.4591  -11.0711 O   0  0  0  0  0  0  0  0  0  0  0  0
   19.0945  -19.3357  -15.1928 N   0  0  0  0  0  0  0  0  0  0  0  0
   19.6870  -18.5388  -14.1855 C   0  0  0  0  0  0  0  0  0  0  0  0
   20.3957  -17.5578  -14.5858 O   0  0  0  0  0  0  0  0  0  0  0  0
   19.5519  -18.7441  -12.7350 C   0  0  0  0  0  0  0  0  0  0  0  0
   20.2153  -20.0029  -12.3195 C   0  0  2  0  0  0  0  0  0  0  0  0
   21.6133  -20.0674  -12.7670 N   0  0  0  0  0  0  0  0  0  0  0  0
   19.5262  -21.1880  -12.8687 C   0  0  0  0  0  0  0  0  0  0  0  0
   20.0725  -21.8648  -13.8059 O   0  0  0  0  0  0  0  0  0  0  0  0
   18.2939  -21.6365  -12.4318 O   0  0  0  0  0  0  0  0  0  0  0  0
  2  1  1  6
  2 13  1  0
  2  3  1  0
  3  4  1  0
  4 12  1  0
  4  5  2  0
  5  6  1  0
  7  6  1  0
  7  8  2  0
  9  8  1  0
 10  9  2  0
 11 12  2  0
 11 10  1  0
 12  7  1  0
 13 19  1  0
 14 13  2  0
 16 15  1  1
 16 17  1  0
 16 18  1  0
 18 20  1  0
 18 19  1  1
 20 27  1  0
 21 20  2  0
 22 23  1  0
 23 24  2  0
 25 23  1  0
 26 25  1  6
 26 28  1  0
 27 26  1  0
 28 29  2  0
 28 30  1  0
M  END
$$$$
