QCE.pdb
     RDKit          3D

 25 24  0  0  1  0  0  0  0  0999 V2000
   23.1749  -19.2091  -14.3365 N   0  0  0  0  0  0  0  0  0  0  0  0
   22.1450  -18.9939  -15.2816 C   0  0  0  0  0  0  0  0  0  0  0  0
   21.5208  -19.9839  -15.7200 O   0  0  0  0  0  0  0  0  0  0  0  0
   21.8191  -17.6394  -15.7336 C   0  0  0  0  0  0  0  0  0  0  0  0
   22.5765  -16.5327  -15.0858 C   0  0  0  0  0  0  0  0  0  0  0  0
   23.9600  -16.2950  -15.6154 C   0  0  2  0  0  0  0  0  0  0  0  0
   24.8714  -17.2327  -15.0068 N   0  0  0  0  0  0  0  0  0  0  0  0
   24.2938  -14.8827  -15.3906 C   0  0  0  0  0  0  0  0  0  0  0  0
   24.4688  -14.5102  -14.1973 O   0  0  0  0  0  0  0  0  0  0  0  0
   24.4392  -13.8838  -16.3824 N   0  0  0  0  0  0  0  0  0  0  0  0
   24.8834  -12.5354  -16.0590 C   0  0  1  0  0  0  0  0  0  0  0  0
   26.2309  -12.3503  -16.6995 C   0  0  0  0  0  0  0  0  0  0  0  0
   27.5240  -13.3015  -15.8902 S   0  0  0  0  0  0  0  0  0  0  0  0
   23.8866  -11.5297  -16.4784 C   0  0  0  0  0  0  0  0  0  0  0  0
   23.1560  -11.7224  -17.4706 O   0  0  0  0  0  0  0  0  0  0  0  0
   23.7091  -10.2826  -15.7685 N   0  0  0  0  0  0  0  0  0  0  0  0
   22.7791   -9.2590  -16.2427 C   0  0  1  0  0  0  0  0  0  0  0  0
   22.7275   -8.1829  -15.1815 C   0  0  0  0  0  0  0  0  0  0  0  0
   21.7459   -7.0758  -15.5047 C   0  0  0  0  0  0  0  0  0  0  0  0
   21.7520   -6.0896  -14.3862 C   0  0  0  0  0  0  0  0  0  0  0  0
   21.6329   -6.5318  -13.2007 O   0  0  0  0  0  0  0  0  0  0  0  0
   23.2040   -8.7395  -17.5577 C   0  0  0  0  0  0  0  0  0  0  0  0
   24.4402   -8.6251  -17.7948 O   0  0  0  0  0  0  0  0  0  0  0  0
   21.8845   -4.7394  -14.6142 O   0  0  0  0  0  0  0  0  0  0  0  0
   22.3181   -8.3700  -18.5511 O   0  0  0  0  0  0  0  0  0  0  0  0
  2  4  1  0
  2  1  1  0
  3  2  2  0
  5  4  1  0
  5  6  1  0
  6  7  1  1
  8  6  1  0
  9  8  2  0
 10  8  1  0
 11 10  1  0
 11 14  1  0
 11 12  1  6
 13 12  1  0
 14 16  1  0
 15 14  2  0
 16 17  1  0
 17 18  1  1
 17 22  1  0
 19 20  1  0
 19 18  1  0
 20 24  1  0
 21 20  2  0
 22 23  2  0
 22 25  1  0
M  END
$$$$
