QCE.pdb
     RDKit          3D

 25 24  0  0  1  0  0  0  0  0999 V2000
   28.1048  -26.5739  -18.1047 N   0  0  0  0  0  0  0  0  0  0  0  0
   28.7127  -25.7633  -19.0914 C   0  0  0  0  0  0  0  0  0  0  0  0
   29.4365  -26.3107  -19.9506 O   0  0  0  0  0  0  0  0  0  0  0  0
   28.4957  -24.3148  -19.1037 C   0  0  0  0  0  0  0  0  0  0  0  0
   27.5712  -23.7822  -18.0646 C   0  0  0  0  0  0  0  0  0  0  0  0
   28.1410  -22.7209  -17.1701 C   0  0  2  0  0  0  0  0  0  0  0  0
   29.3499  -23.2130  -16.5562 N   0  0  0  0  0  0  0  0  0  0  0  0
   27.0936  -22.3174  -16.2231 C   0  0  0  0  0  0  0  0  0  0  0  0
   26.5910  -23.2178  -15.4950 O   0  0  0  0  0  0  0  0  0  0  0  0
   26.5814  -21.0110  -16.0408 N   0  0  0  0  0  0  0  0  0  0  0  0
   25.6990  -20.6769  -14.9318 C   0  0  1  0  0  0  0  0  0  0  0  0
   26.4740  -19.7796  -14.0074 C   0  0  0  0  0  0  0  0  0  0  0  0
   27.6364  -20.6806  -12.9735 S   0  0  0  0  0  0  0  0  0  0  0  0
   24.4372  -20.0801  -15.4143 C   0  0  0  0  0  0  0  0  0  0  0  0
   24.4383  -19.0354  -16.0952 O   0  0  0  0  0  0  0  0  0  0  0  0
   23.1492  -20.6696  -15.1239 N   0  0  0  0  0  0  0  0  0  0  0  0
   21.9028  -20.0168  -15.5216 C   0  0  1  0  0  0  0  0  0  0  0  0
   20.7815  -20.9873  -15.2257 C   0  0  0  0  0  0  0  0  0  0  0  0
   19.4168  -20.4533  -15.6080 C   0  0  0  0  0  0  0  0  0  0  0  0
   18.3887  -21.4763  -15.2615 C   0  0  0  0  0  0  0  0  0  0  0  0
   17.4482  -21.6812  -16.0914 O   0  0  0  0  0  0  0  0  0  0  0  0
   21.7414  -18.7304  -14.8154 C   0  0  0  0  0  0  0  0  0  0  0  0
   21.1814  -17.7720  -15.4199 O   0  0  0  0  0  0  0  0  0  0  0  0
   18.4443  -22.1869  -14.0848 O   0  0  0  0  0  0  0  0  0  0  0  0
   22.1706  -18.5155  -13.5201 O   0  0  0  0  0  0  0  0  0  0  0  0
  2  4  1  0
  2  1  1  0
  3  2  2  0
  5  4  1  0
  5  6  1  0
  6  7  1  1
  8  6  1  0
  9  8  2  0
 10  8  1  0
 11 10  1  0
 11 14  1  0
 11 12  1  1
 13 12  1  0
 14 16  1  0
 15 14  2  0
 16 17  1  0
 17 18  1  1
 17 22  1  0
 19 20  1  0
 19 18  1  0
 20 24  1  0
 21 20  2  0
 22 23  2  0
 22 25  1  0
M  END
$$$$
