QCE.pdb
     RDKit          3D

 25 24  0  0  1  0  0  0  0  0999 V2000
   21.7300  -13.2968  -18.0900 N   0  0  0  0  0  0  0  0  0  0  0  0
   20.4486  -13.4220  -18.6753 C   0  0  0  0  0  0  0  0  0  0  0  0
   20.3259  -14.1309  -19.6972 O   0  0  0  0  0  0  0  0  0  0  0  0
   19.2929  -12.7357  -18.0934 C   0  0  0  0  0  0  0  0  0  0  0  0
   19.5540  -11.9451  -16.8585 C   0  0  0  0  0  0  0  0  0  0  0  0
   18.3711  -11.7330  -15.9604 C   0  0  2  0  0  0  0  0  0  0  0  0
   17.1863  -12.2470  -16.6025 N   0  0  0  0  0  0  0  0  0  0  0  0
   18.3126  -10.3058  -15.6192 C   0  0  0  0  0  0  0  0  0  0  0  0
   17.8634   -9.5170  -16.4963 O   0  0  0  0  0  0  0  0  0  0  0  0
   18.7136   -9.7152  -14.3974 N   0  0  0  0  0  0  0  0  0  0  0  0
   18.5178   -8.2982  -14.1254 C   0  0  1  0  0  0  0  0  0  0  0  0
   17.7525   -8.1993  -12.8351 C   0  0  0  0  0  0  0  0  0  0  0  0
   18.5797   -9.0244  -11.4688 S   0  0  0  0  0  0  0  0  0  0  0  0
   19.8054   -7.5752  -14.1057 C   0  0  0  0  0  0  0  0  0  0  0  0
   20.8694   -8.1629  -13.8270 O   0  0  0  0  0  0  0  0  0  0  0  0
   19.8974   -6.1634  -14.4041 N   0  0  0  0  0  0  0  0  0  0  0  0
   21.1842   -5.4697  -14.4283 C   0  0  1  0  0  0  0  0  0  0  0  0
   20.9693   -4.1649  -15.1619 C   0  0  0  0  0  0  0  0  0  0  0  0
   22.2211   -3.3166  -15.2453 C   0  0  0  0  0  0  0  0  0  0  0  0
   21.8679   -2.0012  -15.8523 C   0  0  0  0  0  0  0  0  0  0  0  0
   20.6698   -1.8251  -16.2382 O   0  0  0  0  0  0  0  0  0  0  0  0
   21.6944   -5.2726  -13.0570 C   0  0  0  0  0  0  0  0  0  0  0  0
   20.8875   -5.3698  -12.0891 O   0  0  0  0  0  0  0  0  0  0  0  0
   22.7984   -0.9980  -15.9947 O   0  0  0  0  0  0  0  0  0  0  0  0
   23.0154   -4.9869  -12.7715 O   0  0  0  0  0  0  0  0  0  0  0  0
  2  4  1  0
  2  1  1  0
  3  2  2  0
  5  4  1  0
  5  6  1  0
  6  7  1  6
  8  6  1  0
  9  8  2  0
 10  8  1  0
 11 10  1  0
 11 14  1  0
 11 12  1  1
 13 12  1  0
 14 16  1  0
 15 14  2  0
 16 17  1  0
 17 18  1  1
 17 22  1  0
 19 20  1  0
 19 18  1  0
 20 24  1  0
 21 20  2  0
 22 23  2  0
 22 25  1  0
M  END
$$$$
