QCE.pdb
     RDKit          3D

 25 24  0  0  1  0  0  0  0  0999 V2000
   25.6154  -17.3897  -15.3092 N   0  0  0  0  0  0  0  0  0  0  0  0
   26.4617  -17.9623  -16.2872 C   0  0  0  0  0  0  0  0  0  0  0  0
   26.0608  -18.0087  -17.4700 O   0  0  0  0  0  0  0  0  0  0  0  0
   27.7785  -18.4871  -15.9187 C   0  0  0  0  0  0  0  0  0  0  0  0
   27.9130  -19.0003  -14.5271 C   0  0  0  0  0  0  0  0  0  0  0  0
   27.9408  -20.4937  -14.3850 C   0  0  2  0  0  0  0  0  0  0  0  0
   28.1349  -21.0928  -15.6825 N   0  0  0  0  0  0  0  0  0  0  0  0
   26.7097  -20.9055  -13.6983 C   0  0  0  0  0  0  0  0  0  0  0  0
   25.8105  -21.4514  -14.3959 O   0  0  0  0  0  0  0  0  0  0  0  0
   26.4216  -20.7507  -12.3215 N   0  0  0  0  0  0  0  0  0  0  0  0
   25.1781  -21.2307  -11.7355 C   0  0  1  0  0  0  0  0  0  0  0  0
   25.3754  -21.2580  -10.2453 C   0  0  0  0  0  0  0  0  0  0  0  0
   25.7410  -19.6365   -9.5607 S   0  0  0  0  0  0  0  0  0  0  0  0
   24.0315  -20.4048  -12.1648 C   0  0  0  0  0  0  0  0  0  0  0  0
   24.1916  -19.2258  -12.5383 O   0  0  0  0  0  0  0  0  0  0  0  0
   22.6786  -20.9149  -12.1729 N   0  0  0  0  0  0  0  0  0  0  0  0
   21.5585  -20.1028  -12.6455 C   0  0  1  0  0  0  0  0  0  0  0  0
   21.8089  -19.8132  -14.1085 C   0  0  0  0  0  0  0  0  0  0  0  0
   21.7805  -21.0558  -14.9738 C   0  0  0  0  0  0  0  0  0  0  0  0
   21.4182  -20.6614  -16.3655 C   0  0  0  0  0  0  0  0  0  0  0  0
   20.1848  -20.6011  -16.6661 O   0  0  0  0  0  0  0  0  0  0  0  0
   20.2776  -20.7999  -12.4160 C   0  0  0  0  0  0  0  0  0  0  0  0
   20.3017  -21.9942  -12.0031 O   0  0  0  0  0  0  0  0  0  0  0  0
   22.3779  -20.3661  -17.3059 O   0  0  0  0  0  0  0  0  0  0  0  0
   19.0448  -20.2137  -12.6280 O   0  0  0  0  0  0  0  0  0  0  0  0
  2  4  1  0
  2  1  1  0
  3  2  2  0
  5  4  1  0
  5  6  1  0
  6  7  1  6
  8  6  1  0
  9  8  2  0
 10  8  1  0
 11 10  1  0
 11 14  1  0
 11 12  1  1
 13 12  1  0
 14 16  1  0
 15 14  2  0
 16 17  1  0
 17 18  1  6
 17 22  1  0
 19 20  1  0
 19 18  1  0
 20 24  1  0
 21 20  2  0
 22 23  2  0
 22 25  1  0
M  END
$$$$
