QCE.pdb
     RDKit          3D

 25 24  0  0  1  0  0  0  0  0999 V2000
   18.5554  -12.7208  -21.2304 N   0  0  0  0  0  0  0  0  0  0  0  0
   18.1681  -11.5586  -20.5237 C   0  0  0  0  0  0  0  0  0  0  0  0
   18.5539  -10.4472  -20.9455 O   0  0  0  0  0  0  0  0  0  0  0  0
   17.3322  -11.6587  -19.3251 C   0  0  0  0  0  0  0  0  0  0  0  0
   17.9577  -11.2080  -18.0509 C   0  0  0  0  0  0  0  0  0  0  0  0
   19.0549  -12.0830  -17.5205 C   0  0  2  0  0  0  0  0  0  0  0  0
   18.4918  -13.3289  -17.0613 N   0  0  0  0  0  0  0  0  0  0  0  0
   19.7820  -11.3245  -16.4944 C   0  0  0  0  0  0  0  0  0  0  0  0
   19.2210  -11.1797  -15.3729 O   0  0  0  0  0  0  0  0  0  0  0  0
   21.0588  -10.7304  -16.6333 N   0  0  0  0  0  0  0  0  0  0  0  0
   21.6944  -10.0053  -15.5423 C   0  0  1  0  0  0  0  0  0  0  0  0
   23.1117  -10.4986  -15.4526 C   0  0  0  0  0  0  0  0  0  0  0  0
   24.0698   -9.6419  -14.1956 S   0  0  0  0  0  0  0  0  0  0  0  0
   21.5881   -8.5453  -15.7378 C   0  0  0  0  0  0  0  0  0  0  0  0
   21.7825   -8.0299  -16.8566 O   0  0  0  0  0  0  0  0  0  0  0  0
   21.2578   -7.6478  -14.6533 N   0  0  0  0  0  0  0  0  0  0  0  0
   21.2257   -6.1985  -14.8436 C   0  0  1  0  0  0  0  0  0  0  0  0
   19.7732   -5.7795  -14.8027 C   0  0  0  0  0  0  0  0  0  0  0  0
   19.5774   -4.2925  -15.0129 C   0  0  0  0  0  0  0  0  0  0  0  0
   18.1737   -4.0528  -15.4555 C   0  0  0  0  0  0  0  0  0  0  0  0
   17.3884   -5.0504  -15.5138 O   0  0  0  0  0  0  0  0  0  0  0  0
   22.0410   -5.5210  -13.8162 C   0  0  0  0  0  0  0  0  0  0  0  0
   22.3655   -6.1637  -12.7773 O   0  0  0  0  0  0  0  0  0  0  0  0
   17.7266   -2.7958  -15.7910 O   0  0  0  0  0  0  0  0  0  0  0  0
   22.4734   -4.2139  -13.9293 O   0  0  0  0  0  0  0  0  0  0  0  0
  2  4  1  0
  2  1  1  0
  3  2  2  0
  5  4  1  0
  5  6  1  0
  6  7  1  1
  8  6  1  0
  9  8  2  0
 10  8  1  0
 11 10  1  0
 11 14  1  0
 11 12  1  6
 13 12  1  0
 14 16  1  0
 15 14  2  0
 16 17  1  0
 17 18  1  1
 17 22  1  0
 19 20  1  0
 19 18  1  0
 20 24  1  0
 21 20  2  0
 22 23  2  0
 22 25  1  0
M  END
$$$$
