MSE.pdb
     RDKit          3D

 24 23  0  0  1  0  0  0  0  0999 V2000
   29.4395  -14.4105  -15.4965 C   0  0  0  0  0  0  0  0  0  0  0  0
   28.5228  -12.8927  -15.8838 S   0  0  0  0  0  0  0  0  0  0  0  0
   26.7593  -13.3218  -16.0487 C   0  0  0  0  0  0  0  0  0  0  0  0
   25.9562  -12.1060  -16.4574 C   0  0  0  0  0  0  0  0  0  0  0  0
   24.5173  -12.5266  -16.6495 C   0  0  2  0  0  0  0  0  0  0  0  0
   24.4984  -13.5282  -17.6938 N   0  0  0  0  0  0  0  0  0  0  0  0
   23.6576  -11.3992  -17.0637 C   0  0  0  0  0  0  0  0  0  0  0  0
   23.4781  -11.1874  -18.2855 O   0  0  0  0  0  0  0  0  0  0  0  0
   20.5444  -10.5819  -15.1918 O   0  0  0  0  0  0  0  0  0  0  0  0
   20.7169   -9.9415  -16.4113 C   0  0  0  0  0  0  0  0  0  0  0  0
   22.1564   -9.4280  -16.5344 C   0  0  2  0  0  0  0  0  0  0  0  0
   23.0101  -10.5244  -16.1552 N   0  0  0  0  0  0  0  0  0  0  0  0
   22.2637   -8.2868  -15.5643 C   0  0  0  0  0  0  0  0  0  0  0  0
   22.4995   -8.4803  -14.3460 O   0  0  0  0  0  0  0  0  0  0  0  0
   22.1043   -6.9342  -15.9753 N   0  0  0  0  0  0  0  0  0  0  0  0
   22.2999   -5.8113  -15.0661 C   0  0  1  0  0  0  0  0  0  0  0  0
   22.2070   -4.5386  -15.8696 C   0  0  0  0  0  0  0  0  0  0  0  0
   23.2423   -4.4824  -16.9560 C   0  0  0  0  0  0  0  0  0  0  0  0
   23.1948   -3.2746  -17.7998 C   0  0  0  0  0  0  0  0  0  0  0  0
   22.3960   -2.3216  -17.6555 O   0  0  0  0  0  0  0  0  0  0  0  0
   21.2985   -5.8063  -13.9832 C   0  0  0  0  0  0  0  0  0  0  0  0
   21.3783   -4.9401  -13.0836 O   0  0  0  0  0  0  0  0  0  0  0  0
   24.0971   -3.1489  -18.8529 O   0  0  0  0  0  0  0  0  0  0  0  0
   20.2738   -6.7285  -13.9300 O   0  0  0  0  0  0  0  0  0  0  0  0
  1  2  1  0
  3  2  1  0
  4  3  1  0
  5  7  1  0
  5  4  1  0
  5  6  1  6
  7 12  1  0
  7  8  2  0
 10  9  1  0
 11 10  1  1
 11 13  1  0
 12 11  1  0
 13 15  1  0
 13 14  2  0
 15 16  1  0
 16 21  1  0
 16 17  1  6
 18 17  1  0
 19 18  1  0
 20 19  2  0
 21 22  2  0
 21 24  1  0
 23 19  1  0
M  END
$$$$
