MSE.pdb
     RDKit          3D

 24 23  0  0  1  0  0  0  0  0999 V2000
   28.7750  -19.2776   -7.0815 C   0  0  0  0  0  0  0  0  0  0  0  0
   27.1021  -19.7539   -6.5631 S   0  0  0  0  0  0  0  0  0  0  0  0
   26.3096  -20.6369   -7.9465 C   0  0  0  0  0  0  0  0  0  0  0  0
   26.5988  -19.9350   -9.2556 C   0  0  0  0  0  0  0  0  0  0  0  0
   25.8955  -20.6834  -10.3643 C   0  0  2  0  0  0  0  0  0  0  0  0
   26.4360  -22.0256  -10.3866 N   0  0  0  0  0  0  0  0  0  0  0  0
   26.1214  -20.0635  -11.6859 C   0  0  0  0  0  0  0  0  0  0  0  0
   25.8699  -18.8455  -11.8379 O   0  0  0  0  0  0  0  0  0  0  0  0
   29.0658  -21.0600  -14.3605 O   0  0  0  0  0  0  0  0  0  0  0  0
   27.7726  -21.1548  -14.8561 C   0  0  0  0  0  0  0  0  0  0  0  0
   26.8526  -20.1820  -14.1088 C   0  0  2  0  0  0  0  0  0  0  0  0
   26.6127  -20.7667  -12.8146 N   0  0  0  0  0  0  0  0  0  0  0  0
   25.5922  -20.1109  -14.9221 C   0  0  0  0  0  0  0  0  0  0  0  0
   24.8762  -21.1247  -15.1137 O   0  0  0  0  0  0  0  0  0  0  0  0
   25.1477  -18.8960  -15.5137 N   0  0  0  0  0  0  0  0  0  0  0  0
   23.9022  -18.8009  -16.2658 C   0  0  1  0  0  0  0  0  0  0  0  0
   23.2916  -17.4503  -15.9886 C   0  0  0  0  0  0  0  0  0  0  0  0
   22.0470  -17.2191  -16.7965 C   0  0  0  0  0  0  0  0  0  0  0  0
   21.4711  -15.8671  -16.6803 C   0  0  0  0  0  0  0  0  0  0  0  0
   22.0083  -14.8992  -16.0958 O   0  0  0  0  0  0  0  0  0  0  0  0
   24.1255  -18.9736  -17.7135 C   0  0  0  0  0  0  0  0  0  0  0  0
   25.2065  -18.5894  -18.2133 O   0  0  0  0  0  0  0  0  0  0  0  0
   20.2296  -15.6087  -17.2554 O   0  0  0  0  0  0  0  0  0  0  0  0
   23.1783  -19.5466  -18.5366 O   0  0  0  0  0  0  0  0  0  0  0  0
  1  2  1  0
  3  2  1  0
  4  3  1  0
  5  7  1  0
  5  4  1  0
  5  6  1  6
  7 12  1  0
  7  8  2  0
 10  9  1  0
 11 10  1  6
 11 13  1  0
 12 11  1  0
 13 15  1  0
 13 14  2  0
 15 16  1  0
 16 21  1  0
 16 17  1  6
 18 17  1  0
 19 18  1  0
 20 19  2  0
 21 22  2  0
 21 24  1  0
 23 19  1  0
M  END
$$$$
