MSE.pdb
     RDKit          3D

 24 23  0  0  1  0  0  0  0  0999 V2000
   19.0487  -15.2580  -19.6674 C   0  0  0  0  0  0  0  0  0  0  0  0
   19.5008  -16.8966  -19.0310 S   0  0  0  0  0  0  0  0  0  0  0  0
   18.8766  -17.0341  -17.3243 C   0  0  0  0  0  0  0  0  0  0  0  0
   19.5301  -15.9961  -16.4381 C   0  0  0  0  0  0  0  0  0  0  0  0
   21.0181  -16.2593  -16.4115 C   0  0  2  0  0  0  0  0  0  0  0  0
   21.2248  -17.4811  -15.6641 N   0  0  0  0  0  0  0  0  0  0  0  0
   21.7649  -15.1707  -15.7489 C   0  0  0  0  0  0  0  0  0  0  0  0
   21.6428  -15.0139  -14.5118 O   0  0  0  0  0  0  0  0  0  0  0  0
   24.4937  -12.9744  -17.8860 O   0  0  0  0  0  0  0  0  0  0  0  0
   24.6510  -13.0262  -16.5077 C   0  0  0  0  0  0  0  0  0  0  0  0
   23.2815  -13.1426  -15.8281 C   0  0  2  0  0  0  0  0  0  0  0  0
   22.6265  -14.2749  -16.4309 N   0  0  0  0  0  0  0  0  0  0  0  0
   22.5637  -11.8613  -16.1412 C   0  0  0  0  0  0  0  0  0  0  0  0
   21.8119  -11.7573  -17.1418 O   0  0  0  0  0  0  0  0  0  0  0  0
   22.6988  -10.7055  -15.3230 N   0  0  0  0  0  0  0  0  0  0  0  0
   22.1190   -9.4176  -15.6850 C   0  0  1  0  0  0  0  0  0  0  0  0
   22.3613   -8.4599  -14.5457 C   0  0  0  0  0  0  0  0  0  0  0  0
   21.6999   -7.1316  -14.7771 C   0  0  0  0  0  0  0  0  0  0  0  0
   21.9212   -6.1324  -13.7161 C   0  0  0  0  0  0  0  0  0  0  0  0
   22.3594   -4.9733  -13.8932 O   0  0  0  0  0  0  0  0  0  0  0  0
   22.7037   -8.8880  -16.9312 C   0  0  0  0  0  0  0  0  0  0  0  0
   23.9285   -9.0361  -17.1406 O   0  0  0  0  0  0  0  0  0  0  0  0
   21.6300   -6.4704  -12.3970 O   0  0  0  0  0  0  0  0  0  0  0  0
   21.9416   -8.2326  -17.8762 O   0  0  0  0  0  0  0  0  0  0  0  0
  1  2  1  0
  3  2  1  0
  4  3  1  0
  5  7  1  0
  5  4  1  0
  5  6  1  1
  7 12  1  0
  7  8  2  0
 10  9  1  0
 11 10  1  6
 11 13  1  0
 12 11  1  0
 13 15  1  0
 13 14  2  0
 15 16  1  0
 16 21  1  0
 16 17  1  1
 18 17  1  0
 19 18  1  0
 20 19  2  0
 21 22  2  0
 21 24  1  0
 23 19  1  0
M  END
$$$$
