MSE.pdb
     RDKit          3D

 24 23  0  0  1  0  0  0  0  0999 V2000
   28.6578  -20.5841   -3.5159 C   0  0  0  0  0  0  0  0  0  0  0  0
   28.6737  -19.6264   -5.0576 S   0  0  0  0  0  0  0  0  0  0  0  0
   27.2313  -20.1286   -6.0520 C   0  0  0  0  0  0  0  0  0  0  0  0
   27.2430  -19.4249   -7.3917 C   0  0  0  0  0  0  0  0  0  0  0  0
   26.0408  -19.8853   -8.1835 C   0  0  2  0  0  0  0  0  0  0  0  0
   25.8508  -21.2911   -7.8972 N   0  0  0  0  0  0  0  0  0  0  0  0
   26.2368  -19.7241   -9.6386 C   0  0  0  0  0  0  0  0  0  0  0  0
   26.6582  -18.6291  -10.0785 O   0  0  0  0  0  0  0  0  0  0  0  0
   26.7550  -22.7039  -12.0953 O   0  0  0  0  0  0  0  0  0  0  0  0
   26.7363  -21.4665  -12.7244 C   0  0  0  0  0  0  0  0  0  0  0  0
   25.7704  -20.5235  -11.9972 C   0  0  2  0  0  0  0  0  0  0  0  0
   25.9753  -20.7435  -10.5886 N   0  0  0  0  0  0  0  0  0  0  0  0
   24.3940  -20.9448  -12.4249 C   0  0  0  0  0  0  0  0  0  0  0  0
   23.6094  -21.5250  -11.6344 O   0  0  0  0  0  0  0  0  0  0  0  0
   23.9117  -20.7084  -13.7422 N   0  0  0  0  0  0  0  0  0  0  0  0
   22.5050  -20.8505  -14.0983 C   0  0  1  0  0  0  0  0  0  0  0  0
   21.7181  -19.8383  -13.3044 C   0  0  0  0  0  0  0  0  0  0  0  0
   20.5718  -19.2729  -14.0929 C   0  0  0  0  0  0  0  0  0  0  0  0
   19.5402  -18.5910  -13.2905 C   0  0  0  0  0  0  0  0  0  0  0  0
   18.9813  -17.5131  -13.5951 O   0  0  0  0  0  0  0  0  0  0  0  0
   22.2857  -20.6495  -15.5429 C   0  0  0  0  0  0  0  0  0  0  0  0
   23.0675  -19.9091  -16.1806 O   0  0  0  0  0  0  0  0  0  0  0  0
   19.1290  -19.1634  -12.0897 O   0  0  0  0  0  0  0  0  0  0  0  0
   21.2436  -21.2532  -16.2158 O   0  0  0  0  0  0  0  0  0  0  0  0
  1  2  1  0
  3  2  1  0
  4  3  1  0
  5  7  1  0
  5  4  1  0
  5  6  1  6
  7 12  1  0
  7  8  2  0
 10  9  1  0
 11 10  1  6
 11 13  1  0
 12 11  1  0
 13 15  1  0
 13 14  2  0
 15 16  1  0
 16 21  1  0
 16 17  1  1
 18 17  1  0
 19 18  1  0
 20 19  2  0
 21 22  2  0
 21 24  1  0
 23 19  1  0
M  END
$$$$
