MSE.pdb
     RDKit          3D

 24 23  0  0  1  0  0  0  0  0999 V2000
   30.9018  -24.9418    0.4826 C   0  0  0  0  0  0  0  0  0  0  0  0
   31.6549  -25.0200    2.1321 S   0  0  0  0  0  0  0  0  0  0  0  0
   33.3090  -25.7667    1.9655 C   0  0  0  0  0  0  0  0  0  0  0  0
   34.0182  -25.7822    3.3022 C   0  0  0  0  0  0  0  0  0  0  0  0
   35.4334  -26.2669    3.0864 C   0  0  2  0  0  0  0  0  0  0  0  0
   35.3624  -27.6817    2.7907 N   0  0  0  0  0  0  0  0  0  0  0  0
   36.2759  -26.0786    4.2849 C   0  0  0  0  0  0  0  0  0  0  0  0
   36.3210  -26.9877    5.1462 O   0  0  0  0  0  0  0  0  0  0  0  0
   39.5520  -23.3501    4.7995 O   0  0  0  0  0  0  0  0  0  0  0  0
   38.4072  -23.2669    5.5802 C   0  0  0  0  0  0  0  0  0  0  0  0
   37.7828  -24.6577    5.7443 C   0  0  2  0  0  0  0  0  0  0  0  0
   37.0511  -24.9175    4.5311 N   0  0  0  0  0  0  0  0  0  0  0  0
   36.8648  -24.5525    6.9280 C   0  0  0  0  0  0  0  0  0  0  0  0
   35.7302  -24.0223    6.8342 O   0  0  0  0  0  0  0  0  0  0  0  0
   37.2331  -25.0466    8.2102 N   0  0  0  0  0  0  0  0  0  0  0  0
   36.3013  -25.0877    9.3308 C   0  0  1  0  0  0  0  0  0  0  0  0
   36.1930  -26.5183    9.7955 C   0  0  0  0  0  0  0  0  0  0  0  0
   35.2528  -26.6626   10.9576 C   0  0  0  0  0  0  0  0  0  0  0  0
   35.1128  -28.0344   11.4788 C   0  0  0  0  0  0  0  0  0  0  0  0
   35.8651  -28.9952   11.1996 O   0  0  0  0  0  0  0  0  0  0  0  0
   36.7444  -24.2222   10.4398 C   0  0  0  0  0  0  0  0  0  0  0  0
   35.8939  -23.7778   11.2431 O   0  0  0  0  0  0  0  0  0  0  0  0
   34.0702  -28.3220   12.3558 O   0  0  0  0  0  0  0  0  0  0  0  0
   38.0700  -23.8857   10.6207 O   0  0  0  0  0  0  0  0  0  0  0  0
  1  2  1  0
  3  2  1  0
  4  3  1  0
  5  7  1  0
  5  4  1  0
  5  6  1  1
  7 12  1  0
  7  8  2  0
 10  9  1  0
 11 10  1  6
 11 13  1  0
 12 11  1  0
 13 15  1  0
 13 14  2  0
 15 16  1  0
 16 21  1  0
 16 17  1  1
 18 17  1  0
 19 18  1  0
 20 19  2  0
 21 22  2  0
 21 24  1  0
 23 19  1  0
M  END
$$$$
