MSE.pdb
     RDKit          3D

 24 23  0  0  1  0  0  0  0  0999 V2000
    9.6982  -10.1045   -8.2752 C   0  0  0  0  0  0  0  0  0  0  0  0
   11.3888   -9.5780   -8.6739 S   0  0  0  0  0  0  0  0  0  0  0  0
   11.9971  -10.6143  -10.0441 C   0  0  0  0  0  0  0  0  0  0  0  0
   13.3468  -10.1219  -10.5193 C   0  0  0  0  0  0  0  0  0  0  0  0
   13.8221  -11.0293  -11.6305 C   0  0  2  0  0  0  0  0  0  0  0  0
   14.4584  -12.1714  -11.0099 N   0  0  0  0  0  0  0  0  0  0  0  0
   14.8043  -10.3649  -12.5112 C   0  0  0  0  0  0  0  0  0  0  0  0
   16.0002  -10.7375  -12.4795 O   0  0  0  0  0  0  0  0  0  0  0  0
   14.1290   -9.3472  -16.3860 O   0  0  0  0  0  0  0  0  0  0  0  0
   14.4689   -8.2893  -15.5539 C   0  0  0  0  0  0  0  0  0  0  0  0
   15.3640   -8.7869  -14.4128 C   0  0  2  0  0  0  0  0  0  0  0  0
   14.4792   -9.3147  -13.4063 N   0  0  0  0  0  0  0  0  0  0  0  0
   16.0998   -7.5752  -13.9173 C   0  0  0  0  0  0  0  0  0  0  0  0
   15.5412   -6.7215  -13.1850 O   0  0  0  0  0  0  0  0  0  0  0  0
   17.4616   -7.3349  -14.2513 N   0  0  0  0  0  0  0  0  0  0  0  0
   18.1933   -6.1709  -13.7658 C   0  0  1  0  0  0  0  0  0  0  0  0
   19.6657   -6.4290  -13.9645 C   0  0  0  0  0  0  0  0  0  0  0  0
   20.5138   -5.3595  -13.3382 C   0  0  0  0  0  0  0  0  0  0  0  0
   21.9635   -5.5025  -13.5637 C   0  0  0  0  0  0  0  0  0  0  0  0
   22.5162   -6.4745  -14.1266 O   0  0  0  0  0  0  0  0  0  0  0  0
   17.7901   -4.9405  -14.4721 C   0  0  0  0  0  0  0  0  0  0  0  0
   17.7553   -3.8599  -13.8420 O   0  0  0  0  0  0  0  0  0  0  0  0
   22.8188   -4.4936  -13.1285 O   0  0  0  0  0  0  0  0  0  0  0  0
   17.4492   -4.9425  -15.8089 O   0  0  0  0  0  0  0  0  0  0  0  0
  1  2  1  0
  3  2  1  0
  4  3  1  0
  5  7  1  0
  5  4  1  0
  5  6  1  1
  7 12  1  0
  7  8  2  0
 10  9  1  0
 11 10  1  6
 11 13  1  0
 12 11  1  0
 13 15  1  0
 13 14  2  0
 15 16  1  0
 16 21  1  0
 16 17  1  6
 18 17  1  0
 19 18  1  0
 20 19  2  0
 21 22  2  0
 21 24  1  0
 23 19  1  0
M  END
$$$$
