MSE.pdb
     RDKit          3D

 24 23  0  0  1  0  0  0  0  0999 V2000
   19.3035  -10.6308  -13.1440 C   0  0  0  0  0  0  0  0  0  0  0  0
   17.9317  -11.7257  -13.6060 S   0  0  0  0  0  0  0  0  0  0  0  0
   16.7375  -11.7503  -12.2296 C   0  0  0  0  0  0  0  0  0  0  0  0
   16.3238  -10.3411  -11.8645 C   0  0  0  0  0  0  0  0  0  0  0  0
   15.4337  -10.4055  -10.6448 C   0  0  2  0  0  0  0  0  0  0  0  0
   14.3748  -11.3483  -10.9352 N   0  0  0  0  0  0  0  0  0  0  0  0
   14.8250   -9.0973  -10.3292 C   0  0  0  0  0  0  0  0  0  0  0  0
   13.6358   -8.8833  -10.6610 O   0  0  0  0  0  0  0  0  0  0  0  0
   16.3351   -6.7783   -7.5004 O   0  0  0  0  0  0  0  0  0  0  0  0
   15.0823   -6.4213   -7.9800 C   0  0  0  0  0  0  0  0  0  0  0  0
   14.9930   -6.7153   -9.4822 C   0  0  2  0  0  0  0  0  0  0  0  0
   15.5081   -8.0480   -9.6642 N   0  0  0  0  0  0  0  0  0  0  0  0
   15.8678   -5.6922  -10.1478 C   0  0  0  0  0  0  0  0  0  0  0  0
   17.0934   -5.8958  -10.3317 O   0  0  0  0  0  0  0  0  0  0  0  0
   15.3539   -4.4459  -10.6018 N   0  0  0  0  0  0  0  0  0  0  0  0
   16.1242   -3.5429  -11.4487 C   0  0  1  0  0  0  0  0  0  0  0  0
   16.4703   -4.2767  -12.7198 C   0  0  0  0  0  0  0  0  0  0  0  0
   17.3152   -3.4420  -13.6390 C   0  0  0  0  0  0  0  0  0  0  0  0
   17.7456   -4.1190  -14.8757 C   0  0  0  0  0  0  0  0  0  0  0  0
   17.0950   -4.1566  -15.9445 O   0  0  0  0  0  0  0  0  0  0  0  0
   15.3729   -2.3118  -11.7575 C   0  0  0  0  0  0  0  0  0  0  0  0
   14.1226   -2.3327  -11.7086 O   0  0  0  0  0  0  0  0  0  0  0  0
   18.9704   -4.7811  -14.8935 O   0  0  0  0  0  0  0  0  0  0  0  0
   16.0058   -1.1347  -12.0994 O   0  0  0  0  0  0  0  0  0  0  0  0
  1  2  1  0
  3  2  1  0
  4  3  1  0
  5  7  1  0
  5  4  1  0
  5  6  1  6
  7 12  1  0
  7  8  2  0
 10  9  1  0
 11 10  1  1
 11 13  1  0
 12 11  1  0
 13 15  1  0
 13 14  2  0
 15 16  1  0
 16 21  1  0
 16 17  1  6
 18 17  1  0
 19 18  1  0
 20 19  2  0
 21 22  2  0
 21 24  1  0
 23 19  1  0
M  END
$$$$
