NQP.pdb
     RDKit          3D

 25 25  0  0  1  0  0  0  0  0999 V2000
    8.7721  -12.5888   17.8220 N   0  0  0  0  0  0  0  0  0  0  0  0
    8.3393  -13.9006   18.1508 C   0  0  0  0  0  0  0  0  0  0  0  0
    8.6035  -14.8725   17.3756 O   0  0  0  0  0  0  0  0  0  0  0  0
    7.5798  -14.1081   19.4058 C   0  0  0  0  0  0  0  0  0  0  0  0
    8.4724  -14.5848   20.5017 C   0  0  2  0  0  0  0  0  0  0  0  0
    8.9937  -15.8826   20.1095 N   0  0  0  0  0  0  0  0  0  0  0  0
    7.8825  -14.6264   21.8364 C   0  0  0  0  0  0  0  0  0  0  0  0
    7.2163  -13.6271   22.2629 O   0  0  0  0  0  0  0  0  0  0  0  0
    6.8281  -20.0186   24.8501 N   0  0  0  0  0  0  0  0  0  0  0  0
    6.0146  -19.2980   23.9621 C   0  0  0  0  0  0  0  0  0  0  0  0
    5.0684  -19.9117   23.3675 O   0  0  0  0  0  0  0  0  0  0  0  0
    6.1834  -17.8570   23.6661 C   0  0  0  0  0  0  0  0  0  0  0  0
    7.2991  -17.2360   24.4477 C   0  0  0  0  0  0  0  0  0  0  0  0
    7.4132  -15.7594   24.0303 C   0  0  2  0  0  0  0  0  0  0  0  0
    7.9961  -15.7342   22.7257 N   0  0  0  0  0  0  0  0  0  0  0  0
    8.1743  -15.0224   25.0235 C   0  0  0  0  0  0  0  0  0  0  0  0
    9.4532  -15.2807   25.0661 O   0  0  0  0  0  0  0  0  0  0  0  0
    7.7528  -14.0616   25.9633 N   0  0  0  0  0  0  0  0  0  0  0  0
    6.4583  -13.4586   26.0612 C   0  0  0  0  0  0  0  0  0  0  0  0
    6.5013  -12.6042   27.3497 C   0  0  0  0  0  0  0  0  0  0  0  0
    7.9943  -12.2197   27.3693 C   0  0  0  0  0  0  0  0  0  0  0  0
    8.5937  -13.5391   27.0102 C   0  0  1  0  0  0  0  0  0  0  0  0
    8.6326  -14.4188   28.2008 C   0  0  0  0  0  0  0  0  0  0  0  0
    7.8770  -15.5646   28.3701 O   0  0  0  0  0  0  0  0  0  0  0  0
    9.4140  -14.0967   29.1278 O   0  0  0  0  0  0  0  0  0  0  0  0
  2  3  2  0
  2  1  1  0
  4  2  1  0
  5  4  1  0
  5  7  1  0
  5  6  1  6
  7  8  2  0
  9 10  1  0
 10 12  1  0
 11 10  2  0
 12 13  1  0
 14 13  1  1
 14 16  1  0
 15  7  1  0
 15 14  1  0
 16 17  2  0
 18 16  1  0
 18 22  1  0
 19 18  1  0
 20 21  1  0
 20 19  1  0
 21 22  1  0
 22 23  1  1
 23 25  2  0
 23 24  1  0
M  END
$$$$
