NQP.pdb
     RDKit          3D

 25 25  0  0  1  0  0  0  0  0999 V2000
   12.8661  -17.7760   20.2987 N   0  0  0  0  0  0  0  0  0  0  0  0
   12.1209  -16.8259   19.5515 C   0  0  0  0  0  0  0  0  0  0  0  0
   12.4581  -16.5464   18.3585 O   0  0  0  0  0  0  0  0  0  0  0  0
   10.9530  -16.1742   20.1886 C   0  0  0  0  0  0  0  0  0  0  0  0
   10.4010  -17.0167   21.2888 C   0  0  2  0  0  0  0  0  0  0  0  0
    9.7853  -18.1834   20.6808 N   0  0  0  0  0  0  0  0  0  0  0  0
    9.4873  -16.3489   22.2108 C   0  0  0  0  0  0  0  0  0  0  0  0
    9.2750  -15.0977   22.0928 O   0  0  0  0  0  0  0  0  0  0  0  0
    6.1058  -20.6455   23.3412 N   0  0  0  0  0  0  0  0  0  0  0  0
    5.9499  -19.5309   24.1795 C   0  0  0  0  0  0  0  0  0  0  0  0
    5.4872  -19.7114   25.3538 O   0  0  0  0  0  0  0  0  0  0  0  0
    6.2903  -18.1442   23.7875 C   0  0  0  0  0  0  0  0  0  0  0  0
    7.0523  -17.4164   24.8509 C   0  0  0  0  0  0  0  0  0  0  0  0
    7.9139  -16.3382   24.1708 C   0  0  2  0  0  0  0  0  0  0  0  0
    8.7909  -17.0098   23.2640 N   0  0  0  0  0  0  0  0  0  0  0  0
    8.6058  -15.5514   25.1764 C   0  0  0  0  0  0  0  0  0  0  0  0
    9.8114  -15.9499   25.4795 O   0  0  0  0  0  0  0  0  0  0  0  0
    8.1830  -14.4130   25.8900 N   0  0  0  0  0  0  0  0  0  0  0  0
    6.9380  -13.7203   25.7526 C   0  0  0  0  0  0  0  0  0  0  0  0
    6.9372  -12.6538   26.8728 C   0  0  0  0  0  0  0  0  0  0  0  0
    8.4490  -12.3688   26.9755 C   0  0  0  0  0  0  0  0  0  0  0  0
    8.9688  -13.7669   26.9104 C   0  0  1  0  0  0  0  0  0  0  0  0
    8.8322  -14.4203   28.2323 C   0  0  0  0  0  0  0  0  0  0  0  0
    9.6249  -14.1605   29.3354 O   0  0  0  0  0  0  0  0  0  0  0  0
    7.9246  -15.2769   28.3587 O   0  0  0  0  0  0  0  0  0  0  0  0
  2  3  2  0
  2  1  1  0
  4  2  1  0
  5  4  1  0
  5  7  1  0
  5  6  1  6
  7  8  2  0
  9 10  1  0
 10 12  1  0
 11 10  2  0
 12 13  1  0
 14 13  1  1
 14 16  1  0
 15  7  1  0
 15 14  1  0
 16 17  2  0
 18 16  1  0
 18 22  1  0
 19 18  1  0
 20 21  1  0
 20 19  1  0
 21 22  1  0
 22 23  1  1
 23 25  2  0
 23 24  1  0
M  END
$$$$
