NQP.pdb
     RDKit          3D

 25 25  0  0  1  0  0  0  0  0999 V2000
    9.5185  -14.0652   17.8529 N   0  0  0  0  0  0  0  0  0  0  0  0
    8.2151  -13.5117   17.9586 C   0  0  0  0  0  0  0  0  0  0  0  0
    7.6159  -13.0882   16.9208 O   0  0  0  0  0  0  0  0  0  0  0  0
    7.5761  -13.4399   19.2932 C   0  0  0  0  0  0  0  0  0  0  0  0
    8.4735  -13.9917   20.3493 C   0  0  2  0  0  0  0  0  0  0  0  0
    9.0334  -15.2332   19.8441 N   0  0  0  0  0  0  0  0  0  0  0  0
    7.8752  -14.1724   21.6685 C   0  0  0  0  0  0  0  0  0  0  0  0
    7.2234  -13.2157   22.2018 O   0  0  0  0  0  0  0  0  0  0  0  0
    6.9672  -19.7208   24.9182 N   0  0  0  0  0  0  0  0  0  0  0  0
    6.6148  -18.6526   25.7574 C   0  0  0  0  0  0  0  0  0  0  0  0
    6.1969  -18.9136   26.9334 O   0  0  0  0  0  0  0  0  0  0  0  0
    6.6963  -17.2273   25.3645 C   0  0  0  0  0  0  0  0  0  0  0  0
    7.2817  -17.0395   23.9994 C   0  0  0  0  0  0  0  0  0  0  0  0
    7.3919  -15.5288   23.7285 C   0  0  2  0  0  0  0  0  0  0  0  0
    7.9649  -15.3746   22.4284 N   0  0  0  0  0  0  0  0  0  0  0  0
    8.1601  -14.8922   24.7838 C   0  0  0  0  0  0  0  0  0  0  0  0
    9.4214  -15.2229   24.8472 O   0  0  0  0  0  0  0  0  0  0  0  0
    7.7616  -13.9640   25.7654 N   0  0  0  0  0  0  0  0  0  0  0  0
    6.4627  -13.3861   25.9314 C   0  0  0  0  0  0  0  0  0  0  0  0
    6.5441  -12.5654   27.2399 C   0  0  0  0  0  0  0  0  0  0  0  0
    8.0303  -12.1561   27.2100 C   0  0  0  0  0  0  0  0  0  0  0  0
    8.6358  -13.4551   26.7915 C   0  0  1  0  0  0  0  0  0  0  0  0
    8.7371  -14.3652   27.9553 C   0  0  0  0  0  0  0  0  0  0  0  0
    9.6498  -14.2414   28.9868 O   0  0  0  0  0  0  0  0  0  0  0  0
    7.9294  -15.3237   28.0070 O   0  0  0  0  0  0  0  0  0  0  0  0
  2  3  2  0
  2  1  1  0
  4  2  1  0
  5  4  1  0
  5  7  1  0
  5  6  1  6
  7  8  2  0
  9 10  1  0
 10 12  1  0
 11 10  2  0
 12 13  1  0
 14 13  1  1
 14 16  1  0
 15  7  1  0
 15 14  1  0
 16 17  2  0
 18 16  1  0
 18 22  1  0
 19 18  1  0
 20 21  1  0
 20 19  1  0
 21 22  1  0
 22 23  1  1
 23 25  2  0
 23 24  1  0
M  END
$$$$
