NQP.pdb
     RDKit          3D

 25 25  0  0  1  0  0  0  0  0999 V2000
    7.3834  -12.5423   18.5925 N   0  0  0  0  0  0  0  0  0  0  0  0
    8.2718  -13.6436   18.4740 C   0  0  0  0  0  0  0  0  0  0  0  0
    8.0219  -14.5790   17.6506 O   0  0  0  0  0  0  0  0  0  0  0  0
    9.4846  -13.6771   19.3242 C   0  0  0  0  0  0  0  0  0  0  0  0
    9.3890  -14.7508   20.3552 C   0  0  2  0  0  0  0  0  0  0  0  0
    9.1547  -16.0053   19.6614 N   0  0  0  0  0  0  0  0  0  0  0  0
    8.4097  -14.5352   21.4161 C   0  0  0  0  0  0  0  0  0  0  0  0
    7.7010  -13.4758   21.4146 O   0  0  0  0  0  0  0  0  0  0  0  0
    5.6429  -19.1068   24.7135 N   0  0  0  0  0  0  0  0  0  0  0  0
    6.8737  -18.6151   25.1749 C   0  0  0  0  0  0  0  0  0  0  0  0
    7.5101  -19.2895   26.0500 O   0  0  0  0  0  0  0  0  0  0  0  0
    7.4894  -17.3517   24.7088 C   0  0  0  0  0  0  0  0  0  0  0  0
    6.5591  -16.5344   23.8675 C   0  0  0  0  0  0  0  0  0  0  0  0
    7.2516  -15.1985   23.5459 C   0  0  2  0  0  0  0  0  0  0  0  0
    8.1765  -15.4480   22.4854 N   0  0  0  0  0  0  0  0  0  0  0  0
    7.8703  -14.6613   24.7450 C   0  0  0  0  0  0  0  0  0  0  0  0
    9.1129  -15.0066   24.9469 O   0  0  0  0  0  0  0  0  0  0  0  0
    7.3415  -13.8176   25.7412 N   0  0  0  0  0  0  0  0  0  0  0  0
    5.9768  -13.4150   25.8975 C   0  0  0  0  0  0  0  0  0  0  0  0
    5.9329  -12.6251   27.2266 C   0  0  0  0  0  0  0  0  0  0  0  0
    7.3546  -12.0284   27.2333 C   0  0  0  0  0  0  0  0  0  0  0  0
    8.1278  -13.2280   26.7948 C   0  0  1  0  0  0  0  0  0  0  0  0
    8.3277  -14.1477   27.9381 C   0  0  0  0  0  0  0  0  0  0  0  0
    7.7371  -15.3908   28.0735 O   0  0  0  0  0  0  0  0  0  0  0  0
    9.0941  -13.7663   28.8550 O   0  0  0  0  0  0  0  0  0  0  0  0
  2  3  2  0
  2  1  1  0
  4  2  1  0
  5  4  1  0
  5  7  1  0
  5  6  1  6
  7  8  2  0
  9 10  1  0
 10 12  1  0
 11 10  2  0
 12 13  1  0
 14 13  1  1
 14 16  1  0
 15  7  1  0
 15 14  1  0
 16 17  2  0
 18 16  1  0
 18 22  1  0
 19 18  1  0
 20 21  1  0
 20 19  1  0
 21 22  1  0
 22 23  1  1
 23 25  2  0
 23 24  1  0
M  END
$$$$
