NQP.pdb
     RDKit          3D

 25 25  0  0  1  0  0  0  0  0999 V2000
    4.6701  -22.0909   18.8496 N   0  0  0  0  0  0  0  0  0  0  0  0
    5.9713  -22.5340   19.2061 C   0  0  0  0  0  0  0  0  0  0  0  0
    6.2880  -23.7573   19.0702 O   0  0  0  0  0  0  0  0  0  0  0  0
    6.9414  -21.5472   19.7351 C   0  0  0  0  0  0  0  0  0  0  0  0
    6.9500  -20.3055   18.9086 C   0  0  2  0  0  0  0  0  0  0  0  0
    7.2155  -20.6950   17.5347 N   0  0  0  0  0  0  0  0  0  0  0  0
    7.8553  -19.2485   19.3494 C   0  0  0  0  0  0  0  0  0  0  0  0
    9.0789  -19.5213   19.5794 O   0  0  0  0  0  0  0  0  0  0  0  0
    6.7171  -12.8494   19.5964 N   0  0  0  0  0  0  0  0  0  0  0  0
    7.9892  -13.0992   20.1338 C   0  0  0  0  0  0  0  0  0  0  0  0
    8.7270  -12.1056   20.4408 O   0  0  0  0  0  0  0  0  0  0  0  0
    8.5382  -14.4538   20.3707 C   0  0  0  0  0  0  0  0  0  0  0  0
    7.6073  -15.5380   19.9242 C   0  0  0  0  0  0  0  0  0  0  0  0
    8.3455  -16.8828   20.0424 C   0  0  2  0  0  0  0  0  0  0  0  0
    7.4641  -17.8923   19.5460 N   0  0  0  0  0  0  0  0  0  0  0  0
    8.7637  -17.0979   21.4164 C   0  0  0  0  0  0  0  0  0  0  0  0
    7.8425  -17.5414   22.2281 O   0  0  0  0  0  0  0  0  0  0  0  0
   10.0182  -16.9024   22.0265 N   0  0  0  0  0  0  0  0  0  0  0  0
   11.1923  -16.3437   21.4279 C   0  0  0  0  0  0  0  0  0  0  0  0
   12.2194  -16.2219   22.5779 C   0  0  0  0  0  0  0  0  0  0  0  0
   11.7865  -17.4144   23.4542 C   0  0  0  0  0  0  0  0  0  0  0  0
   10.3052  -17.2371   23.3982 C   0  0  1  0  0  0  0  0  0  0  0  0
    9.8859  -16.1759   24.3422 C   0  0  0  0  0  0  0  0  0  0  0  0
    9.8634  -16.2978   25.7195 O   0  0  0  0  0  0  0  0  0  0  0  0
    9.5228  -15.0804   23.8506 O   0  0  0  0  0  0  0  0  0  0  0  0
  2  3  2  0
  2  1  1  0
  4  2  1  0
  5  4  1  0
  5  7  1  0
  5  6  1  6
  7  8  2  0
  9 10  1  0
 10 12  1  0
 11 10  2  0
 12 13  1  0
 14 13  1  1
 14 16  1  0
 15  7  1  0
 15 14  1  0
 16 17  2  0
 18 16  1  0
 18 22  1  0
 19 18  1  0
 20 21  1  0
 20 19  1  0
 21 22  1  0
 22 23  1  1
 23 25  2  0
 23 24  1  0
M  END
$$$$
