NQP.pdb
     RDKit          3D

 25 25  0  0  1  0  0  0  0  0999 V2000
    9.4647  -14.5994   17.9937 N   0  0  0  0  0  0  0  0  0  0  0  0
    8.4018  -13.6740   18.1678 C   0  0  0  0  0  0  0  0  0  0  0  0
    8.2157  -12.7489   17.3164 O   0  0  0  0  0  0  0  0  0  0  0  0
    7.5237  -13.8102   19.3531 C   0  0  0  0  0  0  0  0  0  0  0  0
    7.8991  -15.0030   20.1661 C   0  0  2  0  0  0  0  0  0  0  0  0
    7.5173  -16.1849   19.4129 N   0  0  0  0  0  0  0  0  0  0  0  0
    7.3724  -15.0428   21.5270 C   0  0  0  0  0  0  0  0  0  0  0  0
    6.2048  -14.5903   21.7648 O   0  0  0  0  0  0  0  0  0  0  0  0
    7.5885  -19.7809   25.4853 N   0  0  0  0  0  0  0  0  0  0  0  0
    7.0325  -18.7110   26.2032 C   0  0  0  0  0  0  0  0  0  0  0  0
    6.5183  -18.9457   27.3461 O   0  0  0  0  0  0  0  0  0  0  0  0
    7.0023  -17.3126   25.7173 C   0  0  0  0  0  0  0  0  0  0  0  0
    7.5893  -17.1667   24.3478 C   0  0  0  0  0  0  0  0  0  0  0  0
    7.5230  -15.6809   23.9533 C   0  0  2  0  0  0  0  0  0  0  0  0
    8.0849  -15.5670   22.6443 N   0  0  0  0  0  0  0  0  0  0  0  0
    8.2018  -14.8737   24.9517 C   0  0  0  0  0  0  0  0  0  0  0  0
    9.4944  -15.0377   25.0320 O   0  0  0  0  0  0  0  0  0  0  0  0
    7.6868  -13.9303   25.8620 N   0  0  0  0  0  0  0  0  0  0  0  0
    6.3265  -13.5024   25.9858 C   0  0  0  0  0  0  0  0  0  0  0  0
    6.2983  -12.5833   27.2295 C   0  0  0  0  0  0  0  0  0  0  0  0
    7.7246  -12.0013   27.1678 C   0  0  0  0  0  0  0  0  0  0  0  0
    8.4852  -13.2452   26.8465 C   0  0  1  0  0  0  0  0  0  0  0  0
    8.6859  -14.0479   28.0746 C   0  0  0  0  0  0  0  0  0  0  0  0
    9.5740  -13.7428   29.0898 O   0  0  0  0  0  0  0  0  0  0  0  0
    7.9939  -15.0864   28.2016 O   0  0  0  0  0  0  0  0  0  0  0  0
  2  3  2  0
  2  1  1  0
  4  2  1  0
  5  4  1  0
  5  7  1  0
  5  6  1  6
  7  8  2  0
  9 10  1  0
 10 12  1  0
 11 10  2  0
 12 13  1  0
 14 13  1  1
 14 16  1  0
 15  7  1  0
 15 14  1  0
 16 17  2  0
 18 16  1  0
 18 22  1  0
 19 18  1  0
 20 21  1  0
 20 19  1  0
 21 22  1  0
 22 23  1  1
 23 25  2  0
 23 24  1  0
M  END
$$$$
