NQP.pdb
     RDKit          3D

 25 25  0  0  1  0  0  0  0  0999 V2000
    8.9700  -12.5683   18.0079 N   0  0  0  0  0  0  0  0  0  0  0  0
    8.0615  -13.6582   17.9507 C   0  0  0  0  0  0  0  0  0  0  0  0
    7.9350  -14.3274   16.8776 O   0  0  0  0  0  0  0  0  0  0  0  0
    7.2721  -13.9936   19.1586 C   0  0  0  0  0  0  0  0  0  0  0  0
    8.1116  -14.6969   20.1713 C   0  0  2  0  0  0  0  0  0  0  0  0
    8.5482  -15.9516   19.5838 N   0  0  0  0  0  0  0  0  0  0  0  0
    7.4987  -14.9036   21.4799 C   0  0  0  0  0  0  0  0  0  0  0  0
    6.2783  -14.5843   21.6623 O   0  0  0  0  0  0  0  0  0  0  0  0
    7.6711  -19.7823   25.2662 N   0  0  0  0  0  0  0  0  0  0  0  0
    7.0363  -18.7575   25.9847 C   0  0  0  0  0  0  0  0  0  0  0  0
    6.4438  -19.0538   27.0742 O   0  0  0  0  0  0  0  0  0  0  0  0
    7.0078  -17.3399   25.5579 C   0  0  0  0  0  0  0  0  0  0  0  0
    7.6754  -17.1239   24.2354 C   0  0  0  0  0  0  0  0  0  0  0  0
    7.5734  -15.6291   23.8852 C   0  0  2  0  0  0  0  0  0  0  0  0
    8.1809  -15.4542   22.6035 N   0  0  0  0  0  0  0  0  0  0  0  0
    8.1853  -14.8327   24.9342 C   0  0  0  0  0  0  0  0  0  0  0  0
    9.4792  -14.9541   25.0583 O   0  0  0  0  0  0  0  0  0  0  0  0
    7.6034  -13.9390   25.8543 N   0  0  0  0  0  0  0  0  0  0  0  0
    6.2139  -13.6236   25.9917 C   0  0  0  0  0  0  0  0  0  0  0  0
    6.1220  -12.7165   27.2411 C   0  0  0  0  0  0  0  0  0  0  0  0
    7.4958  -12.0202   27.1712 C   0  0  0  0  0  0  0  0  0  0  0  0
    8.3520  -13.1966   26.8363 C   0  0  1  0  0  0  0  0  0  0  0  0
    8.6277  -13.9868   28.0579 C   0  0  0  0  0  0  0  0  0  0  0  0
    8.1571  -15.2637   28.3042 O   0  0  0  0  0  0  0  0  0  0  0  0
    9.3455  -13.4531   28.9375 O   0  0  0  0  0  0  0  0  0  0  0  0
  2  3  2  0
  2  1  1  0
  4  2  1  0
  5  4  1  0
  5  7  1  0
  5  6  1  6
  7  8  2  0
  9 10  1  0
 10 12  1  0
 11 10  2  0
 12 13  1  0
 14 13  1  1
 14 16  1  0
 15  7  1  0
 15 14  1  0
 16 17  2  0
 18 16  1  0
 18 22  1  0
 19 18  1  0
 20 21  1  0
 20 19  1  0
 21 22  1  0
 22 23  1  1
 23 25  2  0
 23 24  1  0
M  END
$$$$
