NQP.pdb
     RDKit          3D

 25 25  0  0  1  0  0  0  0  0999 V2000
    9.1245  -12.5376   18.1055 N   0  0  0  0  0  0  0  0  0  0  0  0
    8.1750  -13.5929   18.1418 C   0  0  0  0  0  0  0  0  0  0  0  0
    7.9985  -14.3274   17.1197 O   0  0  0  0  0  0  0  0  0  0  0  0
    7.4023  -13.8154   19.3860 C   0  0  0  0  0  0  0  0  0  0  0  0
    8.1183  -14.7479   20.3040 C   0  0  2  0  0  0  0  0  0  0  0  0
    8.2321  -16.0281   19.6273 N   0  0  0  0  0  0  0  0  0  0  0  0
    7.5472  -14.8974   21.6391 C   0  0  0  0  0  0  0  0  0  0  0  0
    6.4150  -14.3747   21.9029 O   0  0  0  0  0  0  0  0  0  0  0  0
    7.3102  -19.9779   24.0310 N   0  0  0  0  0  0  0  0  0  0  0  0
    6.1885  -19.1494   24.1894 C   0  0  0  0  0  0  0  0  0  0  0  0
    5.0285  -19.6734   24.1153 O   0  0  0  0  0  0  0  0  0  0  0  0
    6.2626  -17.6918   24.4392 C   0  0  0  0  0  0  0  0  0  0  0  0
    7.6684  -17.1772   24.4294 C   0  0  0  0  0  0  0  0  0  0  0  0
    7.6334  -15.6941   24.0213 C   0  0  2  0  0  0  0  0  0  0  0  0
    8.1769  -15.6071   22.7024 N   0  0  0  0  0  0  0  0  0  0  0  0
    8.3485  -14.8949   25.0006 C   0  0  0  0  0  0  0  0  0  0  0  0
    9.6460  -15.0379   25.0127 O   0  0  0  0  0  0  0  0  0  0  0  0
    7.8648  -13.9785   25.9546 N   0  0  0  0  0  0  0  0  0  0  0  0
    6.5013  -13.6067   26.1818 C   0  0  0  0  0  0  0  0  0  0  0  0
    6.5281  -12.6971   27.4324 C   0  0  0  0  0  0  0  0  0  0  0  0
    7.9217  -12.0574   27.2714 C   0  0  0  0  0  0  0  0  0  0  0  0
    8.7056  -13.2676   26.8840 C   0  0  1  0  0  0  0  0  0  0  0  0
    9.0281  -14.0688   28.0869 C   0  0  0  0  0  0  0  0  0  0  0  0
   10.0002  -13.7524   29.0181 O   0  0  0  0  0  0  0  0  0  0  0  0
    8.3651  -15.1173   28.2734 O   0  0  0  0  0  0  0  0  0  0  0  0
  2  3  2  0
  2  1  1  0
  4  2  1  0
  5  4  1  0
  5  7  1  0
  5  6  1  6
  7  8  2  0
  9 10  1  0
 10 12  1  0
 11 10  2  0
 12 13  1  0
 14 13  1  1
 14 16  1  0
 15  7  1  0
 15 14  1  0
 16 17  2  0
 18 16  1  0
 18 22  1  0
 19 18  1  0
 20 21  1  0
 20 19  1  0
 21 22  1  0
 22 23  1  1
 23 25  2  0
 23 24  1  0
M  END
$$$$
