NQP.pdb
     RDKit          3D

 25 25  0  0  1  0  0  0  0  0999 V2000
    7.9925  -16.0112   17.7815 N   0  0  0  0  0  0  0  0  0  0  0  0
    9.1073  -15.7105   18.6080 C   0  0  0  0  0  0  0  0  0  0  0  0
   10.2539  -16.1824   18.3289 O   0  0  0  0  0  0  0  0  0  0  0  0
    8.9050  -14.8428   19.7916 C   0  0  0  0  0  0  0  0  0  0  0  0
    9.4740  -15.4683   21.0204 C   0  0  2  0  0  0  0  0  0  0  0  0
    9.1171  -16.8762   21.0012 N   0  0  0  0  0  0  0  0  0  0  0  0
    9.1088  -14.8410   22.2869 C   0  0  0  0  0  0  0  0  0  0  0  0
    9.2754  -13.5867   22.4407 O   0  0  0  0  0  0  0  0  0  0  0  0
    6.0299  -12.4870   25.0085 N   0  0  0  0  0  0  0  0  0  0  0  0
    6.1939  -13.1436   26.2379 C   0  0  0  0  0  0  0  0  0  0  0  0
    5.9816  -12.4893   27.3115 O   0  0  0  0  0  0  0  0  0  0  0  0
    6.6015  -14.5607   26.3735 C   0  0  0  0  0  0  0  0  0  0  0  0
    6.8699  -15.2110   25.0521 C   0  0  0  0  0  0  0  0  0  0  0  0
    8.3386  -14.9469   24.6770 C   0  0  2  0  0  0  0  0  0  0  0  0
    8.5610  -15.5450   23.3983 N   0  0  0  0  0  0  0  0  0  0  0  0
    9.2137  -15.4548   25.7187 C   0  0  0  0  0  0  0  0  0  0  0  0
    9.6902  -16.6547   25.5255 O   0  0  0  0  0  0  0  0  0  0  0  0
    9.6380  -14.8572   26.9216 N   0  0  0  0  0  0  0  0  0  0  0  0
    9.1082  -13.6767   27.5336 C   0  0  0  0  0  0  0  0  0  0  0  0
    9.8306  -13.5631   28.8965 C   0  0  0  0  0  0  0  0  0  0  0  0
   11.1839  -14.2099   28.5398 C   0  0  0  0  0  0  0  0  0  0  0  0
   10.6979  -15.3780   27.7470 C   0  0  1  0  0  0  0  0  0  0  0  0
   10.2353  -16.4508   28.6570 C   0  0  0  0  0  0  0  0  0  0  0  0
    8.9288  -16.8895   28.7725 O   0  0  0  0  0  0  0  0  0  0  0  0
   11.0991  -17.0037   29.3792 O   0  0  0  0  0  0  0  0  0  0  0  0
  2  3  2  0
  2  1  1  0
  4  2  1  0
  5  4  1  0
  5  7  1  0
  5  6  1  1
  7  8  2  0
  9 10  1  0
 10 12  1  0
 11 10  2  0
 12 13  1  0
 14 13  1  1
 14 16  1  0
 15  7  1  0
 15 14  1  0
 16 17  2  0
 18 16  1  0
 18 22  1  0
 19 18  1  0
 20 21  1  0
 20 19  1  0
 21 22  1  0
 22 23  1  1
 23 25  2  0
 23 24  1  0
M  END
$$$$
