NQP.pdb
     RDKit          3D

 25 25  0  0  1  0  0  0  0  0999 V2000
    8.1147  -13.5597   16.7714 N   0  0  0  0  0  0  0  0  0  0  0  0
    8.7050  -13.7208   18.0528 C   0  0  0  0  0  0  0  0  0  0  0  0
    9.9494  -13.9577   18.1566 O   0  0  0  0  0  0  0  0  0  0  0  0
    7.8454  -13.6079   19.2540 C   0  0  0  0  0  0  0  0  0  0  0  0
    8.3874  -14.4203   20.3814 C   0  0  2  0  0  0  0  0  0  0  0  0
    8.4919  -15.7941   19.9213 N   0  0  0  0  0  0  0  0  0  0  0  0
    7.6585  -14.3327   21.6431 C   0  0  0  0  0  0  0  0  0  0  0  0
    7.0647  -13.2487   21.9545 O   0  0  0  0  0  0  0  0  0  0  0  0
    6.2209  -19.5229   24.5291 N   0  0  0  0  0  0  0  0  0  0  0  0
    7.1644  -18.7830   25.2584 C   0  0  0  0  0  0  0  0  0  0  0  0
    7.9046  -19.3964   26.0960 O   0  0  0  0  0  0  0  0  0  0  0  0
    7.3600  -17.3219   25.1191 C   0  0  0  0  0  0  0  0  0  0  0  0
    6.3617  -16.6931   24.1975 C   0  0  0  0  0  0  0  0  0  0  0  0
    6.8676  -15.2874   23.8294 C   0  0  2  0  0  0  0  0  0  0  0  0
    7.5546  -15.4002   22.5814 N   0  0  0  0  0  0  0  0  0  0  0  0
    7.6917  -14.7618   24.9035 C   0  0  0  0  0  0  0  0  0  0  0  0
    8.9005  -15.2484   24.9825 O   0  0  0  0  0  0  0  0  0  0  0  0
    7.3962  -13.8001   25.8894 N   0  0  0  0  0  0  0  0  0  0  0  0
    6.1324  -13.1744   26.1346 C   0  0  0  0  0  0  0  0  0  0  0  0
    6.3354  -12.3300   27.4144 C   0  0  0  0  0  0  0  0  0  0  0  0
    7.8282  -11.9729   27.2686 C   0  0  0  0  0  0  0  0  0  0  0  0
    8.3587  -13.3004   26.8380 C   0  0  1  0  0  0  0  0  0  0  0  0
    8.5140  -14.1891   28.0124 C   0  0  0  0  0  0  0  0  0  0  0  0
    9.4945  -14.0671   28.9800 O   0  0  0  0  0  0  0  0  0  0  0  0
    7.6892  -15.1260   28.1368 O   0  0  0  0  0  0  0  0  0  0  0  0
  2  3  2  0
  2  1  1  0
  4  2  1  0
  5  4  1  0
  5  7  1  0
  5  6  1  6
  7  8  2  0
  9 10  1  0
 10 12  1  0
 11 10  2  0
 12 13  1  0
 14 13  1  1
 14 16  1  0
 15  7  1  0
 15 14  1  0
 16 17  2  0
 18 16  1  0
 18 22  1  0
 19 18  1  0
 20 21  1  0
 20 19  1  0
 21 22  1  0
 22 23  1  1
 23 25  2  0
 23 24  1  0
M  END
$$$$
