IMM.pdb
     RDKit          3D

 25 24  0  0  1  0  0  0  0  0999 V2000
    6.8459  -12.6840   17.8621 C   0  0  0  0  0  0  0  0  0  0  0  0
    7.3906  -14.0191   18.3096 C   0  0  0  0  0  0  0  0  0  0  0  0
    7.9532  -13.8756   19.7006 C   0  0  2  0  0  0  0  0  0  0  0  0
    9.1218  -12.9126   19.6001 C   0  0  0  0  0  0  0  0  0  0  0  0
    8.3995  -15.1738   20.3068 C   0  0  2  0  0  0  0  0  0  0  0  0
    7.3604  -16.1489   20.3660 N   0  0  0  0  0  0  0  0  0  0  0  0
    8.9738  -14.8864   21.6448 C   0  0  0  0  0  0  0  0  0  0  0  0
   10.0481  -14.2386   21.7202 O   0  0  0  0  0  0  0  0  0  0  0  0
    6.9868  -12.0512   27.0150 C   0  0  0  0  0  0  0  0  0  0  0  0
    5.9929  -13.2910   26.1289 S   0  0  0  0  0  0  0  0  0  0  0  0
    6.9335  -13.8590   24.6580 C   0  0  0  0  0  0  0  0  0  0  0  0
    7.9824  -14.8061   25.1654 C   0  0  0  0  0  0  0  0  0  0  0  0
    9.0395  -15.0009   24.1049 C   0  0  2  0  0  0  0  0  0  0  0  0
    8.3797  -15.3021   22.8623 N   0  0  0  0  0  0  0  0  0  0  0  0
    9.9311  -16.0883   24.5662 C   0  0  0  0  0  0  0  0  0  0  0  0
   11.1166  -16.0520   24.1149 O   0  0  0  0  0  0  0  0  0  0  0  0
   10.5801  -13.2987   28.9952 C   0  0  0  0  0  0  0  0  0  0  0  0
   10.9710  -14.8234   29.8752 S   0  0  0  0  0  0  0  0  0  0  0  0
   11.0084  -16.2672   28.8235 C   0  0  0  0  0  0  0  0  0  0  0  0
   10.3129  -16.0844   27.5224 C   0  0  0  0  0  0  0  0  0  0  0  0
   10.3003  -17.3300   26.6620 C   0  0  2  0  0  0  0  0  0  0  0  0
    9.5597  -17.1139   25.4362 N   0  0  0  0  0  0  0  0  0  0  0  0
    9.7956  -18.5143   27.3529 C   0  0  0  0  0  0  0  0  0  0  0  0
   10.6626  -19.5189   27.7496 O   0  0  0  0  0  0  0  0  0  0  0  0
    8.5744  -18.6537   27.6040 O   0  0  0  0  0  0  0  0  0  0  0  0
  2  1  1  0
  2  3  1  0
  3  4  1  6
  5  3  1  0
  5  6  1  1
  7  8  2  0
  7  5  1  0
 10 11  1  0
 10  9  1  0
 11 12  1  0
 13 12  1  1
 13 14  1  0
 14  7  1  0
 15 13  1  0
 16 15  2  0
 18 17  1  0
 19 20  1  0
 19 18  1  0
 21 20  1  1
 21 22  1  0
 22 15  1  0
 23 21  1  0
 24 23  1  0
 25 23  2  0
M  END
$$$$
