IMM.pdb
     RDKit          3D

 25 24  0  0  1  0  0  0  0  0999 V2000
    6.0686  -11.9160   27.7362 C   0  0  0  0  0  0  0  0  0  0  0  0
    5.5055  -13.1255   27.0294 C   0  0  0  0  0  0  0  0  0  0  0  0
    6.6096  -13.7946   26.2514 C   0  0  2  0  0  0  0  0  0  0  0  0
    7.1057  -12.7788   25.2388 C   0  0  0  0  0  0  0  0  0  0  0  0
    6.1799  -15.0538   25.5574 C   0  0  2  0  0  0  0  0  0  0  0  0
    5.9251  -16.1292   26.4590 N   0  0  0  0  0  0  0  0  0  0  0  0
    7.2119  -15.4017   24.5492 C   0  0  0  0  0  0  0  0  0  0  0  0
    8.0387  -16.3108   24.8125 O   0  0  0  0  0  0  0  0  0  0  0  0
    7.9234  -12.4194   19.0347 C   0  0  0  0  0  0  0  0  0  0  0  0
    8.9514  -13.8517   18.5857 S   0  0  0  0  0  0  0  0  0  0  0  0
    9.1721  -14.9079   20.0711 C   0  0  0  0  0  0  0  0  0  0  0  0
    8.2457  -14.3634   21.1199 C   0  0  0  0  0  0  0  0  0  0  0  0
    8.3114  -15.2357   22.3508 C   0  0  2  0  0  0  0  0  0  0  0  0
    7.3271  -14.7647   23.2886 N   0  0  0  0  0  0  0  0  0  0  0  0
    9.6939  -15.1571   22.8730 C   0  0  0  0  0  0  0  0  0  0  0  0
   10.1464  -13.9845   23.0482 O   0  0  0  0  0  0  0  0  0  0  0  0
    9.9838  -14.0114   28.0829 C   0  0  0  0  0  0  0  0  0  0  0  0
   11.7461  -14.2648   27.7971 S   0  0  0  0  0  0  0  0  0  0  0  0
   12.0988  -15.4385   26.4970 C   0  0  0  0  0  0  0  0  0  0  0  0
   11.0855  -15.4569   25.4093 C   0  0  0  0  0  0  0  0  0  0  0  0
   11.5701  -16.1274   24.1413 C   0  0  2  0  0  0  0  0  0  0  0  0
   10.5003  -16.2553   23.1733 N   0  0  0  0  0  0  0  0  0  0  0  0
   12.2006  -17.4255   24.3691 C   0  0  0  0  0  0  0  0  0  0  0  0
   13.4414  -17.5063   24.9795 O   0  0  0  0  0  0  0  0  0  0  0  0
   11.6418  -18.4936   24.0218 O   0  0  0  0  0  0  0  0  0  0  0  0
  2  1  1  0
  2  3  1  0
  3  4  1  6
  5  3  1  0
  5  6  1  1
  7  8  2  0
  7  5  1  0
 10 11  1  0
 10  9  1  0
 11 12  1  0
 13 12  1  6
 13 14  1  0
 14  7  1  0
 15 13  1  0
 16 15  2  0
 18 17  1  0
 19 20  1  0
 19 18  1  0
 21 20  1  1
 21 22  1  0
 22 15  1  0
 23 21  1  0
 24 23  1  0
 25 23  2  0
M  END
$$$$
