IMM.pdb
     RDKit          3D

 25 24  0  0  1  0  0  0  0  0999 V2000
    7.4396  -12.1107   26.9967 C   0  0  0  0  0  0  0  0  0  0  0  0
    7.3606  -13.6078   26.8190 C   0  0  0  0  0  0  0  0  0  0  0  0
    6.3555  -13.9193   25.7398 C   0  0  2  0  0  0  0  0  0  0  0  0
    5.0098  -13.4322   26.2447 C   0  0  0  0  0  0  0  0  0  0  0  0
    6.2825  -15.3759   25.3867 C   0  0  2  0  0  0  0  0  0  0  0  0
    6.2699  -16.2278   26.5305 N   0  0  0  0  0  0  0  0  0  0  0  0
    7.4075  -15.6868   24.4700 C   0  0  0  0  0  0  0  0  0  0  0  0
    8.2271  -16.5829   24.7935 O   0  0  0  0  0  0  0  0  0  0  0  0
    9.5782  -12.3165   19.4841 C   0  0  0  0  0  0  0  0  0  0  0  0
    7.9572  -13.0833   19.1767 S   0  0  0  0  0  0  0  0  0  0  0  0
    7.6715  -14.3847   20.4398 C   0  0  0  0  0  0  0  0  0  0  0  0
    8.8947  -14.4062   21.3105 C   0  0  0  0  0  0  0  0  0  0  0  0
    8.7189  -15.4375   22.3993 C   0  0  2  0  0  0  0  0  0  0  0  0
    7.6207  -15.0278   23.2337 N   0  0  0  0  0  0  0  0  0  0  0  0
   10.0016  -15.5273   23.1321 C   0  0  0  0  0  0  0  0  0  0  0  0
   10.6970  -14.4658   23.1492 O   0  0  0  0  0  0  0  0  0  0  0  0
    9.7603  -13.6214   28.1095 C   0  0  0  0  0  0  0  0  0  0  0  0
   11.3795  -14.4051   28.2353 S   0  0  0  0  0  0  0  0  0  0  0  0
   11.9825  -15.0548   26.6839 C   0  0  0  0  0  0  0  0  0  0  0  0
   11.0948  -16.0786   26.0726 C   0  0  0  0  0  0  0  0  0  0  0  0
   11.5726  -16.5653   24.7209 C   0  0  2  0  0  0  0  0  0  0  0  0
   10.4749  -16.6677   23.7816 N   0  0  0  0  0  0  0  0  0  0  0  0
   12.3054  -17.8280   24.7784 C   0  0  0  0  0  0  0  0  0  0  0  0
   11.8119  -18.9561   24.1441 O   0  0  0  0  0  0  0  0  0  0  0  0
   13.3920  -17.9256   25.3978 O   0  0  0  0  0  0  0  0  0  0  0  0
  2  1  1  0
  2  3  1  0
  3  4  1  1
  5  3  1  0
  5  6  1  1
  7  8  2  0
  7  5  1  0
 10 11  1  0
 10  9  1  0
 11 12  1  0
 13 12  1  6
 13 14  1  0
 14  7  1  0
 15 13  1  0
 16 15  2  0
 18 17  1  0
 19 20  1  0
 19 18  1  0
 21 20  1  1
 21 22  1  0
 22 15  1  0
 23 21  1  0
 24 23  1  0
 25 23  2  0
M  END
$$$$
