IMM.pdb
     RDKit          3D

 25 24  0  0  1  0  0  0  0  0999 V2000
    8.0157  -22.5704   22.4222 C   0  0  0  0  0  0  0  0  0  0  0  0
    7.1050  -21.4451   21.9936 C   0  0  0  0  0  0  0  0  0  0  0  0
    7.7376  -20.1318   22.3769 C   0  0  2  0  0  0  0  0  0  0  0  0
    7.9352  -20.1666   23.8812 C   0  0  0  0  0  0  0  0  0  0  0  0
    6.9225  -18.9338   21.9868 C   0  0  2  0  0  0  0  0  0  0  0  0
    6.7081  -18.8383   20.5800 N   0  0  0  0  0  0  0  0  0  0  0  0
    7.5855  -17.7245   22.5350 C   0  0  0  0  0  0  0  0  0  0  0  0
    8.6197  -17.2879   21.9701 O   0  0  0  0  0  0  0  0  0  0  0  0
    6.0841  -11.1494   25.4365 C   0  0  0  0  0  0  0  0  0  0  0  0
    6.2302  -12.7620   26.2660 S   0  0  0  0  0  0  0  0  0  0  0  0
    7.5080  -13.7565   25.4007 C   0  0  0  0  0  0  0  0  0  0  0  0
    6.8135  -14.9849   24.8875 C   0  0  0  0  0  0  0  0  0  0  0  0
    7.7793  -15.8008   24.0618 C   0  0  2  0  0  0  0  0  0  0  0  0
    7.1203  -17.0191   23.6726 N   0  0  0  0  0  0  0  0  0  0  0  0
    8.9823  -16.0321   24.8921 C   0  0  0  0  0  0  0  0  0  0  0  0
    8.8428  -16.8694   25.8355 O   0  0  0  0  0  0  0  0  0  0  0  0
   10.6353  -15.0437   30.1483 C   0  0  0  0  0  0  0  0  0  0  0  0
   10.1560  -13.6983   29.0475 S   0  0  0  0  0  0  0  0  0  0  0  0
   10.4563  -14.0451   27.3207 C   0  0  0  0  0  0  0  0  0  0  0  0
   10.9021  -15.4379   27.0534 C   0  0  0  0  0  0  0  0  0  0  0  0
   11.3107  -15.6778   25.6155 C   0  0  2  0  0  0  0  0  0  0  0  0
   10.2160  -15.4075   24.7065 N   0  0  0  0  0  0  0  0  0  0  0  0
   11.8469  -17.0152   25.3741 C   0  0  0  0  0  0  0  0  0  0  0  0
   11.1808  -17.8993   24.5417 O   0  0  0  0  0  0  0  0  0  0  0  0
   12.9156  -17.3972   25.9087 O   0  0  0  0  0  0  0  0  0  0  0  0
  2  1  1  0
  2  3  1  0
  3  4  1  1
  5  3  1  0
  5  6  1  6
  7  8  2  0
  7  5  1  0
 10 11  1  0
 10  9  1  0
 11 12  1  0
 13 12  1  1
 13 14  1  0
 14  7  1  0
 15 13  1  0
 16 15  2  0
 18 17  1  0
 19 20  1  0
 19 18  1  0
 21 20  1  1
 21 22  1  0
 22 15  1  0
 23 21  1  0
 24 23  1  0
 25 23  2  0
M  END
$$$$
