IMM.pdb
     RDKit          3D

 25 24  0  0  1  0  0  0  0  0999 V2000
    7.7453  -18.8875   17.3589 C   0  0  0  0  0  0  0  0  0  0  0  0
    7.5531  -19.1366   18.8356 C   0  0  0  0  0  0  0  0  0  0  0  0
    8.1704  -17.9985   19.6073 C   0  0  2  0  0  0  0  0  0  0  0  0
    9.6037  -17.8724   19.1248 C   0  0  0  0  0  0  0  0  0  0  0  0
    8.1373  -18.1915   21.0951 C   0  0  2  0  0  0  0  0  0  0  0  0
    6.8240  -18.4282   21.5985 N   0  0  0  0  0  0  0  0  0  0  0  0
    8.7751  -17.0110   21.7292 C   0  0  0  0  0  0  0  0  0  0  0  0
    9.9465  -16.6996   21.3970 O   0  0  0  0  0  0  0  0  0  0  0  0
    6.0880  -13.0320   26.3436 C   0  0  0  0  0  0  0  0  0  0  0  0
    6.8626  -12.1172   24.9750 S   0  0  0  0  0  0  0  0  0  0  0  0
    7.3187  -13.3074   23.6537 C   0  0  0  0  0  0  0  0  0  0  0  0
    7.9838  -14.4665   24.3384 C   0  0  0  0  0  0  0  0  0  0  0  0
    8.8962  -15.1709   23.3628 C   0  0  2  0  0  0  0  0  0  0  0  0
    8.1384  -16.1992   22.7007 N   0  0  0  0  0  0  0  0  0  0  0  0
   10.0416  -15.7013   24.1353 C   0  0  0  0  0  0  0  0  0  0  0  0
   11.1463  -15.1029   23.9558 O   0  0  0  0  0  0  0  0  0  0  0  0
    9.6615  -13.0647   28.5618 C   0  0  0  0  0  0  0  0  0  0  0  0
   10.2318  -14.6194   29.2756 S   0  0  0  0  0  0  0  0  0  0  0  0
   10.1900  -15.9904   28.1307 C   0  0  0  0  0  0  0  0  0  0  0  0
   11.1085  -15.8372   26.9719 C   0  0  0  0  0  0  0  0  0  0  0  0
   11.0380  -16.9851   25.9872 C   0  0  2  0  0  0  0  0  0  0  0  0
    9.9819  -16.7807   25.0173 N   0  0  0  0  0  0  0  0  0  0  0  0
   10.8927  -18.2931   26.6215 C   0  0  0  0  0  0  0  0  0  0  0  0
    9.8047  -19.0988   26.3287 O   0  0  0  0  0  0  0  0  0  0  0  0
   11.7408  -18.7198   27.4414 O   0  0  0  0  0  0  0  0  0  0  0  0
  2  1  1  0
  2  3  1  0
  3  4  1  6
  5  3  1  0
  5  6  1  1
  7  8  2  0
  7  5  1  0
 10 11  1  0
 10  9  1  0
 11 12  1  0
 13 12  1  1
 13 14  1  0
 14  7  1  0
 15 13  1  0
 16 15  2  0
 18 17  1  0
 19 20  1  0
 19 18  1  0
 21 20  1  1
 21 22  1  0
 22 15  1  0
 23 21  1  0
 24 23  1  0
 25 23  2  0
M  END
$$$$
