IMM.pdb
     RDKit          3D

 25 24  0  0  1  0  0  0  0  0999 V2000
    8.3926  -16.7453   16.3570 C   0  0  0  0  0  0  0  0  0  0  0  0
    8.2871  -17.5933   17.6017 C   0  0  0  0  0  0  0  0  0  0  0  0
    8.4675  -16.7111   18.8105 C   0  0  2  0  0  0  0  0  0  0  0  0
    9.8139  -16.0284   18.6539 C   0  0  0  0  0  0  0  0  0  0  0  0
    8.4094  -17.4543   20.1128 C   0  0  2  0  0  0  0  0  0  0  0  0
    7.1381  -18.0523   20.3582 N   0  0  0  0  0  0  0  0  0  0  0  0
    8.8072  -16.5212   21.1962 C   0  0  0  0  0  0  0  0  0  0  0  0
    9.9917  -16.1032   21.2357 O   0  0  0  0  0  0  0  0  0  0  0  0
    6.1160  -11.5261   25.4605 C   0  0  0  0  0  0  0  0  0  0  0  0
    6.3028  -13.2282   26.0751 S   0  0  0  0  0  0  0  0  0  0  0  0
    7.7711  -13.9862   25.2749 C   0  0  0  0  0  0  0  0  0  0  0  0
    7.2672  -14.7000   24.0537 C   0  0  0  0  0  0  0  0  0  0  0  0
    8.4377  -15.2470   23.2721 C   0  0  2  0  0  0  0  0  0  0  0  0
    7.9235  -16.0640   22.2052 N   0  0  0  0  0  0  0  0  0  0  0  0
    9.2876  -16.0002   24.2210 C   0  0  0  0  0  0  0  0  0  0  0  0
    8.7330  -16.9950   24.7809 O   0  0  0  0  0  0  0  0  0  0  0  0
   10.0767  -13.1964   29.4309 C   0  0  0  0  0  0  0  0  0  0  0  0
   10.1735  -14.9838   29.6495 S   0  0  0  0  0  0  0  0  0  0  0  0
   10.9601  -15.8298   28.2865 C   0  0  0  0  0  0  0  0  0  0  0  0
   10.5010  -15.3747   26.9479 C   0  0  0  0  0  0  0  0  0  0  0  0
   11.1774  -16.0925   25.7992 C   0  0  2  0  0  0  0  0  0  0  0  0
   10.6140  -15.6932   24.5260 N   0  0  0  0  0  0  0  0  0  0  0  0
   11.1570  -17.5479   25.9244 C   0  0  0  0  0  0  0  0  0  0  0  0
   12.2605  -18.2263   26.4148 O   0  0  0  0  0  0  0  0  0  0  0  0
   10.1492  -18.2183   25.5945 O   0  0  0  0  0  0  0  0  0  0  0  0
  2  1  1  0
  2  3  1  0
  3  4  1  6
  5  3  1  0
  5  6  1  1
  7  8  2  0
  7  5  1  0
 10 11  1  0
 10  9  1  0
 11 12  1  0
 13 12  1  1
 13 14  1  0
 14  7  1  0
 15 13  1  0
 16 15  2  0
 18 17  1  0
 19 20  1  0
 19 18  1  0
 21 20  1  1
 21 22  1  0
 22 15  1  0
 23 21  1  0
 24 23  1  0
 25 23  2  0
M  END
$$$$
