NHC.pdb
     RDKit          3D

 25 25  0  0  1  0  0  0  0  0999 V2000
   14.3000  -16.7398   14.1127 N   0  0  0  0  0  0  0  0  0  0  0  0
   12.9824  -16.6160   14.6212 C   0  0  0  0  0  0  0  0  0  0  0  0
   12.0081  -17.1159   14.0333 O   0  0  0  0  0  0  0  0  0  0  0  0
   12.7640  -15.8757   15.8777 C   0  0  0  0  0  0  0  0  0  0  0  0
   12.6127  -16.8079   17.0495 C   0  0  2  0  0  0  0  0  0  0  0  0
   11.5599  -17.7659   16.9096 N   0  0  0  0  0  0  0  0  0  0  0  0
   12.3931  -16.0185   18.2711 C   0  0  0  0  0  0  0  0  0  0  0  0
   13.2255  -15.1513   18.5857 O   0  0  0  0  0  0  0  0  0  0  0  0
   11.2722  -16.2225   19.0833 N   0  0  0  0  0  0  0  0  0  0  0  0
   11.0775  -15.4446   20.3254 C   0  0  1  0  0  0  0  0  0  0  0  0
    9.6175  -15.2498   20.5700 C   0  0  0  0  0  0  0  0  0  0  0  0
    8.9765  -14.2117   19.7699 C   0  0  0  0  0  0  0  0  0  0  0  0
    9.4520  -13.3537   18.8224 C   0  0  0  0  0  0  0  0  0  0  0  0
    8.3977  -12.6314   18.3481 N   0  0  0  0  0  0  0  0  0  0  0  0
    7.3072  -13.0274   18.9775 C   0  0  0  0  0  0  0  0  0  0  0  0
    7.6353  -13.9877   19.8464 N   0  0  0  0  0  0  0  0  0  0  0  0
   11.6554  -16.3432   21.3999 C   0  0  0  0  0  0  0  0  0  0  0  0
   11.5999  -17.5797   21.3455 O   0  0  0  0  0  0  0  0  0  0  0  0
   12.2943  -15.7726   22.5313 N   0  0  0  0  0  0  0  0  0  0  0  0
   12.8236  -16.6586   23.5622 C   0  0  1  0  0  0  0  0  0  0  0  0
   13.9316  -15.9250   24.2817 C   0  0  0  0  0  0  0  0  0  0  0  0
   15.2363  -15.4189   23.1600 S   0  0  0  0  0  0  0  0  0  0  0  0
   11.7622  -17.0462   24.5286 C   0  0  0  0  0  0  0  0  0  0  0  0
   10.6125  -16.5279   24.5277 O   0  0  0  0  0  0  0  0  0  0  0  0
   12.0320  -18.0067   25.4654 O   0  0  0  0  0  0  0  0  0  0  0  0
  1  2  1  0
  2  3  2  0
  4  2  1  0
  5  4  1  0
  5  6  1  6
  7  9  1  0
  7  5  1  0
  8  7  2  0
 10  9  1  0
 11 12  1  0
 10 11  1  1
 12 16  1  0
 12 13  2  0
 13 14  1  0
 15 14  1  0
 16 15  2  0
 17 19  1  0
 17 10  1  0
 18 17  2  0
 20 19  1  0
 20 23  1  0
 20 21  1  1
 21 22  1  0
 23 25  1  0
 24 23  2  0
M  END
$$$$
