NHC.pdb
     RDKit          3D

 25 25  0  0  1  0  0  0  0  0999 V2000
    8.0781  -15.9180   15.0708 N   0  0  0  0  0  0  0  0  0  0  0  0
    9.2037  -16.5677   14.5043 C   0  0  0  0  0  0  0  0  0  0  0  0
    9.1654  -17.0598   13.3636 O   0  0  0  0  0  0  0  0  0  0  0  0
   10.4490  -16.6614   15.2884 C   0  0  0  0  0  0  0  0  0  0  0  0
   10.2459  -16.1992   16.7061 C   0  0  2  0  0  0  0  0  0  0  0  0
    9.6579  -14.9009   16.8252 N   0  0  0  0  0  0  0  0  0  0  0  0
   11.5372  -16.2149   17.4104 C   0  0  0  0  0  0  0  0  0  0  0  0
   12.1983  -17.2667   17.4329 O   0  0  0  0  0  0  0  0  0  0  0  0
   12.0348  -15.0761   18.0531 N   0  0  0  0  0  0  0  0  0  0  0  0
   13.3448  -15.0970   18.7382 C   0  0  1  0  0  0  0  0  0  0  0  0
   14.2090  -14.0054   18.1986 C   0  0  0  0  0  0  0  0  0  0  0  0
   15.5883  -13.9988   18.6742 C   0  0  0  0  0  0  0  0  0  0  0  0
   16.2425  -14.7408   19.6130 C   0  0  0  0  0  0  0  0  0  0  0  0
   17.5504  -14.3566   19.6101 N   0  0  0  0  0  0  0  0  0  0  0  0
   17.7028  -13.4114   18.7016 C   0  0  0  0  0  0  0  0  0  0  0  0
   16.5229  -13.1778   18.1200 N   0  0  0  0  0  0  0  0  0  0  0  0
   12.9941  -14.7985   20.1817 C   0  0  0  0  0  0  0  0  0  0  0  0
   12.1434  -13.9592   20.5084 O   0  0  0  0  0  0  0  0  0  0  0  0
   13.6527  -15.4947   21.2283 N   0  0  0  0  0  0  0  0  0  0  0  0
   13.0265  -15.5424   22.5450 C   0  0  1  0  0  0  0  0  0  0  0  0
   11.6835  -16.2190   22.3969 C   0  0  0  0  0  0  0  0  0  0  0  0
   10.8925  -16.4889   23.9837 S   0  0  0  0  0  0  0  0  0  0  0  0
   13.8699  -16.2967   23.5096 C   0  0  0  0  0  0  0  0  0  0  0  0
   14.6983  -17.1779   23.1522 O   0  0  0  0  0  0  0  0  0  0  0  0
   13.7517  -16.0325   24.8472 O   0  0  0  0  0  0  0  0  0  0  0  0
  1  2  1  0
  2  3  2  0
  4  2  1  0
  5  4  1  0
  5  6  1  6
  7  9  1  0
  7  5  1  0
  8  7  2  0
 10  9  1  0
 11 12  1  0
 10 11  1  6
 12 16  1  0
 12 13  2  0
 13 14  1  0
 15 14  1  0
 16 15  2  0
 17 19  1  0
 17 10  1  0
 18 17  2  0
 20 19  1  0
 20 23  1  0
 20 21  1  6
 21 22  1  0
 23 25  1  0
 24 23  2  0
M  END
$$$$
