NHC.pdb
     RDKit          3D

 25 25  0  0  1  0  0  0  0  0999 V2000
    7.6791  -12.2274   17.7377 N   0  0  0  0  0  0  0  0  0  0  0  0
    7.7864  -13.6141   17.4632 C   0  0  0  0  0  0  0  0  0  0  0  0
    7.0357  -14.1763   16.6476 O   0  0  0  0  0  0  0  0  0  0  0  0
    8.8136  -14.4076   18.1631 C   0  0  0  0  0  0  0  0  0  0  0  0
   10.0209  -14.6383   17.2948 C   0  0  2  0  0  0  0  0  0  0  0  0
    9.7633  -15.4098   16.1184 N   0  0  0  0  0  0  0  0  0  0  0  0
   11.0697  -15.2969   18.0885 C   0  0  0  0  0  0  0  0  0  0  0  0
   11.1597  -16.5358   18.0578 O   0  0  0  0  0  0  0  0  0  0  0  0
   11.9640  -14.5617   18.8743 N   0  0  0  0  0  0  0  0  0  0  0  0
   13.0631  -15.2272   19.6056 C   0  0  1  0  0  0  0  0  0  0  0  0
   14.3297  -14.4608   19.4107 C   0  0  0  0  0  0  0  0  0  0  0  0
   15.0508  -14.7375   18.1729 C   0  0  0  0  0  0  0  0  0  0  0  0
   15.4771  -13.9349   17.1560 C   0  0  0  0  0  0  0  0  0  0  0  0
   16.1611  -14.7130   16.2701 N   0  0  0  0  0  0  0  0  0  0  0  0
   16.1605  -15.9534   16.7213 C   0  0  0  0  0  0  0  0  0  0  0  0
   15.4914  -15.9917   17.8770 N   0  0  0  0  0  0  0  0  0  0  0  0
   12.6320  -15.1326   21.0551 C   0  0  0  0  0  0  0  0  0  0  0  0
   12.1050  -14.1198   21.5363 O   0  0  0  0  0  0  0  0  0  0  0  0
   12.8280  -16.2365   21.9251 N   0  0  0  0  0  0  0  0  0  0  0  0
   12.0615  -16.3006   23.1646 C   0  0  1  0  0  0  0  0  0  0  0  0
   10.5970  -16.1793   22.8124 C   0  0  0  0  0  0  0  0  0  0  0  0
    9.5465  -16.3448   24.2565 S   0  0  0  0  0  0  0  0  0  0  0  0
   12.3064  -17.5824   23.8773 C   0  0  0  0  0  0  0  0  0  0  0  0
   12.3831  -18.6924   23.2838 O   0  0  0  0  0  0  0  0  0  0  0  0
   12.4571  -17.5705   25.2375 O   0  0  0  0  0  0  0  0  0  0  0  0
  1  2  1  0
  2  3  2  0
  4  2  1  0
  5  4  1  0
  5  6  1  6
  7  9  1  0
  7  5  1  0
  8  7  2  0
 10  9  1  0
 11 12  1  0
 10 11  1  1
 12 16  1  0
 12 13  2  0
 13 14  1  0
 15 14  1  0
 16 15  2  0
 17 19  1  0
 17 10  1  0
 18 17  2  0
 20 19  1  0
 20 23  1  0
 20 21  1  6
 21 22  1  0
 23 25  1  0
 24 23  2  0
M  END
$$$$
