NHC.pdb
     RDKit          3D

 25 25  0  0  1  0  0  0  0  0999 V2000
    7.5897  -19.1977   15.5965 N   0  0  0  0  0  0  0  0  0  0  0  0
    6.1797  -19.1006   15.7079 C   0  0  0  0  0  0  0  0  0  0  0  0
    5.4439  -19.1316   14.7067 O   0  0  0  0  0  0  0  0  0  0  0  0
    5.5727  -18.9591   17.0444 C   0  0  0  0  0  0  0  0  0  0  0  0
    6.6204  -18.8122   18.1147 C   0  0  2  0  0  0  0  0  0  0  0  0
    7.3774  -19.9993   18.3667 N   0  0  0  0  0  0  0  0  0  0  0  0
    5.9794  -18.3699   19.3625 C   0  0  0  0  0  0  0  0  0  0  0  0
    5.2480  -17.3656   19.3409 O   0  0  0  0  0  0  0  0  0  0  0  0
    6.1748  -19.0523   20.5683 N   0  0  0  0  0  0  0  0  0  0  0  0
    5.4484  -18.6593   21.7945 C   0  0  1  0  0  0  0  0  0  0  0  0
    4.6009  -19.7971   22.2602 C   0  0  0  0  0  0  0  0  0  0  0  0
    3.3064  -19.9311   21.6008 C   0  0  0  0  0  0  0  0  0  0  0  0
    2.1548  -19.2042   21.6755 C   0  0  0  0  0  0  0  0  0  0  0  0
    1.2666  -19.7391   20.7905 N   0  0  0  0  0  0  0  0  0  0  0  0
    1.8461  -20.7602   20.1875 C   0  0  0  0  0  0  0  0  0  0  0  0
    3.0868  -20.8952   20.6643 N   0  0  0  0  0  0  0  0  0  0  0  0
    6.5564  -18.4096   22.7974 C   0  0  0  0  0  0  0  0  0  0  0  0
    7.6754  -18.9339   22.7093 O   0  0  0  0  0  0  0  0  0  0  0  0
    6.3323  -17.5418   23.8977 N   0  0  0  0  0  0  0  0  0  0  0  0
    7.3993  -17.3540   24.8747 C   0  0  1  0  0  0  0  0  0  0  0  0
    7.0477  -16.1532   25.7220 C   0  0  0  0  0  0  0  0  0  0  0  0
    8.1775  -15.9542   27.1005 S   0  0  0  0  0  0  0  0  0  0  0  0
    7.5501  -18.5557   25.7373 C   0  0  0  0  0  0  0  0  0  0  0  0
    6.5707  -19.2532   26.1176 O   0  0  0  0  0  0  0  0  0  0  0  0
    8.8017  -18.9321   26.1431 O   0  0  0  0  0  0  0  0  0  0  0  0
  1  2  1  0
  2  3  2  0
  4  2  1  0
  5  4  1  0
  5  6  1  1
  7  9  1  0
  7  5  1  0
  8  7  2  0
 10  9  1  0
 11 12  1  0
 10 11  1  1
 12 16  1  0
 12 13  2  0
 13 14  1  0
 15 14  1  0
 16 15  2  0
 17 19  1  0
 17 10  1  0
 18 17  2  0
 20 19  1  0
 20 23  1  0
 20 21  1  1
 21 22  1  0
 23 25  1  0
 24 23  2  0
M  END
$$$$
