NHC.pdb
     RDKit          3D

 25 25  0  0  1  0  0  0  0  0999 V2000
   11.3503  -18.8572   14.7816 N   0  0  0  0  0  0  0  0  0  0  0  0
   10.4250  -18.6027   15.8252 C   0  0  0  0  0  0  0  0  0  0  0  0
    9.2558  -19.0214   15.7750 O   0  0  0  0  0  0  0  0  0  0  0  0
   10.8615  -17.8222   16.9977 C   0  0  0  0  0  0  0  0  0  0  0  0
   10.6047  -18.5634   18.2821 C   0  0  2  0  0  0  0  0  0  0  0  0
    9.3987  -19.3322   18.2891 N   0  0  0  0  0  0  0  0  0  0  0  0
   10.5770  -17.6046   19.3973 C   0  0  0  0  0  0  0  0  0  0  0  0
   11.5407  -16.8364   19.5554 O   0  0  0  0  0  0  0  0  0  0  0  0
    9.4938  -17.5396   20.2805 N   0  0  0  0  0  0  0  0  0  0  0  0
    9.4936  -16.5985   21.4207 C   0  0  1  0  0  0  0  0  0  0  0  0
    8.2131  -15.8306   21.4355 C   0  0  0  0  0  0  0  0  0  0  0  0
    8.1411  -14.7056   20.5092 C   0  0  0  0  0  0  0  0  0  0  0  0
    9.0224  -14.2063   19.5960 C   0  0  0  0  0  0  0  0  0  0  0  0
    8.4124  -13.1719   18.9511 N   0  0  0  0  0  0  0  0  0  0  0  0
    7.1962  -13.0348   19.4450 C   0  0  0  0  0  0  0  0  0  0  0  0
    7.0093  -13.9569   20.3935 N   0  0  0  0  0  0  0  0  0  0  0  0
    9.5522  -17.5086   22.6307 C   0  0  0  0  0  0  0  0  0  0  0  0
    8.9989  -18.6165   22.6676 O   0  0  0  0  0  0  0  0  0  0  0  0
   10.2644  -17.1013   23.7886 N   0  0  0  0  0  0  0  0  0  0  0  0
   10.8288  -18.1230   24.6636 C   0  0  1  0  0  0  0  0  0  0  0  0
   11.8282  -18.9226   23.8603 C   0  0  0  0  0  0  0  0  0  0  0  0
   12.6307  -20.1813   24.8544 S   0  0  0  0  0  0  0  0  0  0  0  0
   11.5003  -17.5073   25.8387 C   0  0  0  0  0  0  0  0  0  0  0  0
   12.2405  -16.4901   25.7494 O   0  0  0  0  0  0  0  0  0  0  0  0
   11.3150  -18.0590   27.0773 O   0  0  0  0  0  0  0  0  0  0  0  0
  1  2  1  0
  2  3  2  0
  4  2  1  0
  5  4  1  0
  5  6  1  6
  7  9  1  0
  7  5  1  0
  8  7  2  0
 10  9  1  0
 11 12  1  0
 10 11  1  1
 12 16  1  0
 12 13  2  0
 13 14  1  0
 15 14  1  0
 16 15  2  0
 17 19  1  0
 17 10  1  0
 18 17  2  0
 20 19  1  0
 20 23  1  0
 20 21  1  6
 21 22  1  0
 23 25  1  0
 24 23  2  0
M  END
$$$$
