NHC.pdb
     RDKit          3D

 25 25  0  0  1  0  0  0  0  0999 V2000
    8.7455  -13.9012   16.6102 N   0  0  0  0  0  0  0  0  0  0  0  0
    8.3674  -14.8106   17.6300 C   0  0  0  0  0  0  0  0  0  0  0  0
    8.0563  -15.9858   17.3717 O   0  0  0  0  0  0  0  0  0  0  0  0
    8.3427  -14.3495   19.0306 C   0  0  0  0  0  0  0  0  0  0  0  0
    9.3093  -15.1246   19.8849 C   0  0  2  0  0  0  0  0  0  0  0  0
    9.0024  -16.5159   20.0098 N   0  0  0  0  0  0  0  0  0  0  0  0
    9.3674  -14.5172   21.2233 C   0  0  0  0  0  0  0  0  0  0  0  0
    9.8427  -13.3758   21.3467 O   0  0  0  0  0  0  0  0  0  0  0  0
    8.9014  -15.1941   22.3557 N   0  0  0  0  0  0  0  0  0  0  0  0
    8.7688  -14.5045   23.6568 C   0  0  1  0  0  0  0  0  0  0  0  0
    7.3782  -14.6743   24.1735 C   0  0  0  0  0  0  0  0  0  0  0  0
    7.0029  -13.7957   25.2761 C   0  0  0  0  0  0  0  0  0  0  0  0
    7.6657  -12.7945   25.9228 C   0  0  0  0  0  0  0  0  0  0  0  0
    6.8152  -12.2591   26.8438 N   0  0  0  0  0  0  0  0  0  0  0  0
    5.6657  -12.9037   26.7706 C   0  0  0  0  0  0  0  0  0  0  0  0
    5.7569  -13.8421   25.8241 N   0  0  0  0  0  0  0  0  0  0  0  0
    9.7365  -15.2505   24.5529 C   0  0  0  0  0  0  0  0  0  0  0  0
   10.3424  -16.2684   24.1900 O   0  0  0  0  0  0  0  0  0  0  0  0
    9.9798  -14.7873   25.8720 N   0  0  0  0  0  0  0  0  0  0  0  0
   10.8541  -15.5668   26.7416 C   0  0  1  0  0  0  0  0  0  0  0  0
   11.1111  -14.7555   27.9903 C   0  0  0  0  0  0  0  0  0  0  0  0
   10.5704  -13.0554   27.8057 S   0  0  0  0  0  0  0  0  0  0  0  0
   10.2271  -16.8659   27.1021 C   0  0  0  0  0  0  0  0  0  0  0  0
    9.0713  -17.1977   26.7219 O   0  0  0  0  0  0  0  0  0  0  0  0
   10.9247  -17.7497   27.8801 O   0  0  0  0  0  0  0  0  0  0  0  0
  1  2  1  0
  2  3  2  0
  4  2  1  0
  5  4  1  0
  5  6  1  1
  7  9  1  0
  7  5  1  0
  8  7  2  0
 10  9  1  0
 11 12  1  0
 10 11  1  1
 12 16  1  0
 12 13  2  0
 13 14  1  0
 15 14  1  0
 16 15  2  0
 17 19  1  0
 17 10  1  0
 18 17  2  0
 20 19  1  0
 20 23  1  0
 20 21  1  1
 21 22  1  0
 23 25  1  0
 24 23  2  0
M  END
$$$$
