NHC.pdb
     RDKit          3D

 25 25  0  0  1  0  0  0  0  0999 V2000
   16.8617  -16.0122   17.5258 N   0  0  0  0  0  0  0  0  0  0  0  0
   16.2683  -14.7341   17.3705 C   0  0  0  0  0  0  0  0  0  0  0  0
   16.5652  -13.9896   16.4206 O   0  0  0  0  0  0  0  0  0  0  0  0
   15.2754  -14.2779   18.3608 C   0  0  0  0  0  0  0  0  0  0  0  0
   13.9899  -15.0530   18.2523 C   0  0  2  0  0  0  0  0  0  0  0  0
   13.3056  -14.8900   17.0070 N   0  0  0  0  0  0  0  0  0  0  0  0
   13.0956  -14.6643   19.3535 C   0  0  0  0  0  0  0  0  0  0  0  0
   13.1599  -13.5073   19.8020 O   0  0  0  0  0  0  0  0  0  0  0  0
   12.1782  -15.5654   19.9049 N   0  0  0  0  0  0  0  0  0  0  0  0
   11.2651  -15.1557   20.9931 C   0  0  1  0  0  0  0  0  0  0  0  0
    9.8571  -15.4735   20.6111 C   0  0  0  0  0  0  0  0  0  0  0  0
    9.2453  -14.5674   19.6451 C   0  0  0  0  0  0  0  0  0  0  0  0
    9.7261  -13.4915   18.9585 C   0  0  0  0  0  0  0  0  0  0  0  0
    8.7355  -13.0468   18.1345 N   0  0  0  0  0  0  0  0  0  0  0  0
    7.6785  -13.8193   18.3024 C   0  0  0  0  0  0  0  0  0  0  0  0
    7.9658  -14.7508   19.2161 N   0  0  0  0  0  0  0  0  0  0  0  0
   11.6846  -16.0323   22.1557 C   0  0  0  0  0  0  0  0  0  0  0  0
   12.4601  -16.9903   22.0314 O   0  0  0  0  0  0  0  0  0  0  0  0
   11.1829  -15.7695   23.4570 N   0  0  0  0  0  0  0  0  0  0  0  0
   11.5539  -16.6636   24.5482 C   0  0  1  0  0  0  0  0  0  0  0  0
   11.1296  -16.0151   25.8454 C   0  0  0  0  0  0  0  0  0  0  0  0
    9.4073  -15.5159   25.8110 S   0  0  0  0  0  0  0  0  0  0  0  0
   10.8905  -17.9864   24.4028 C   0  0  0  0  0  0  0  0  0  0  0  0
    9.9744  -18.2048   23.5640 O   0  0  0  0  0  0  0  0  0  0  0  0
   11.2824  -19.0208   25.2086 O   0  0  0  0  0  0  0  0  0  0  0  0
  1  2  1  0
  2  3  2  0
  4  2  1  0
  5  4  1  0
  5  6  1  6
  7  9  1  0
  7  5  1  0
  8  7  2  0
 10  9  1  0
 11 12  1  0
 10 11  1  6
 12 16  1  0
 12 13  2  0
 13 14  1  0
 15 14  1  0
 16 15  2  0
 17 19  1  0
 17 10  1  0
 18 17  2  0
 20 19  1  0
 20 23  1  0
 20 21  1  1
 21 22  1  0
 23 25  1  0
 24 23  2  0
M  END
$$$$
