NHC.pdb
     RDKit          3D

 25 25  0  0  1  0  0  0  0  0999 V2000
   11.6032  -18.9874   18.5369 N   0  0  0  0  0  0  0  0  0  0  0  0
   12.4280  -18.7657   19.6685 C   0  0  0  0  0  0  0  0  0  0  0  0
   13.5122  -19.3568   19.8097 O   0  0  0  0  0  0  0  0  0  0  0  0
   11.9876  -17.8108   20.7023 C   0  0  0  0  0  0  0  0  0  0  0  0
   10.6123  -17.2743   20.4097 C   0  0  2  0  0  0  0  0  0  0  0  0
   10.4494  -16.7584   19.0857 N   0  0  0  0  0  0  0  0  0  0  0  0
   10.2848  -16.2232   21.3851 C   0  0  0  0  0  0  0  0  0  0  0  0
   10.7734  -15.0905   21.2369 O   0  0  0  0  0  0  0  0  0  0  0  0
    9.4389  -16.4704   22.4719 N   0  0  0  0  0  0  0  0  0  0  0  0
    9.0560  -15.3879   23.4032 C   0  0  1  0  0  0  0  0  0  0  0  0
    7.6757  -15.6345   23.9165 C   0  0  0  0  0  0  0  0  0  0  0  0
    7.1749  -14.6561   24.8760 C   0  0  0  0  0  0  0  0  0  0  0  0
    6.5000  -14.7834   26.0543 C   0  0  0  0  0  0  0  0  0  0  0  0
    6.3341  -13.5351   26.5761 N   0  0  0  0  0  0  0  0  0  0  0  0
    6.8870  -12.6646   25.7523 C   0  0  0  0  0  0  0  0  0  0  0  0
    7.4046  -13.3238   24.7119 N   0  0  0  0  0  0  0  0  0  0  0  0
   10.0507  -15.5285   24.5375 C   0  0  0  0  0  0  0  0  0  0  0  0
   11.2191  -15.1235   24.4627 O   0  0  0  0  0  0  0  0  0  0  0  0
    9.6561  -16.1479   25.7518 N   0  0  0  0  0  0  0  0  0  0  0  0
   10.2845  -15.7199   26.9968 C   0  0  1  0  0  0  0  0  0  0  0  0
    9.7784  -14.3333   27.3204 C   0  0  0  0  0  0  0  0  0  0  0  0
   10.5304  -13.6784   28.8110 S   0  0  0  0  0  0  0  0  0  0  0  0
    9.9550  -16.6512   28.1081 C   0  0  0  0  0  0  0  0  0  0  0  0
    8.8064  -17.1464   28.2692 O   0  0  0  0  0  0  0  0  0  0  0  0
   10.9325  -16.9943   29.0023 O   0  0  0  0  0  0  0  0  0  0  0  0
  1  2  1  0
  2  3  2  0
  4  2  1  0
  5  4  1  0
  5  6  1  6
  7  9  1  0
  7  5  1  0
  8  7  2  0
 10  9  1  0
 11 12  1  0
 10 11  1  1
 12 16  1  0
 12 13  2  0
 13 14  1  0
 15 14  1  0
 16 15  2  0
 17 19  1  0
 17 10  1  0
 18 17  2  0
 20 19  1  0
 20 23  1  0
 20 21  1  1
 21 22  1  0
 23 25  1  0
 24 23  2  0
M  END
$$$$
