NHC.pdb
     RDKit          3D

 25 25  0  0  1  0  0  0  0  0999 V2000
    8.5918  -16.9395   18.1509 N   0  0  0  0  0  0  0  0  0  0  0  0
    7.3613  -17.5703   18.4634 C   0  0  0  0  0  0  0  0  0  0  0  0
    6.8281  -18.3790   17.6847 O   0  0  0  0  0  0  0  0  0  0  0  0
    6.6988  -17.2584   19.7435 C   0  0  0  0  0  0  0  0  0  0  0  0
    7.4786  -16.2449   20.5370 C   0  0  2  0  0  0  0  0  0  0  0  0
    8.8987  -16.3778   20.4309 N   0  0  0  0  0  0  0  0  0  0  0  0
    7.0862  -16.3317   21.9520 C   0  0  0  0  0  0  0  0  0  0  0  0
    5.8809  -16.2705   22.2477 O   0  0  0  0  0  0  0  0  0  0  0  0
    8.0367  -16.4805   22.9678 N   0  0  0  0  0  0  0  0  0  0  0  0
    7.6278  -16.6200   24.3818 C   0  0  1  0  0  0  0  0  0  0  0  0
    8.1113  -17.9279   24.9157 C   0  0  0  0  0  0  0  0  0  0  0  0
    7.3340  -19.0974   24.5199 C   0  0  0  0  0  0  0  0  0  0  0  0
    7.4323  -19.9544   23.4636 C   0  0  0  0  0  0  0  0  0  0  0  0
    6.4795  -20.9170   23.6182 N   0  0  0  0  0  0  0  0  0  0  0  0
    5.8149  -20.6674   24.7309 C   0  0  0  0  0  0  0  0  0  0  0  0
    6.3174  -19.5659   25.2957 N   0  0  0  0  0  0  0  0  0  0  0  0
    8.3592  -15.4885   25.0749 C   0  0  0  0  0  0  0  0  0  0  0  0
    9.5060  -15.1375   24.7641 O   0  0  0  0  0  0  0  0  0  0  0  0
    7.7290  -14.7807   26.1313 N   0  0  0  0  0  0  0  0  0  0  0  0
    8.4663  -13.7169   26.8040 C   0  0  1  0  0  0  0  0  0  0  0  0
    7.4686  -12.6809   27.2675 C   0  0  0  0  0  0  0  0  0  0  0  0
    6.1963  -12.3821   26.0393 S   0  0  0  0  0  0  0  0  0  0  0  0
    9.2237  -14.2470   27.9686 C   0  0  0  0  0  0  0  0  0  0  0  0
    9.1715  -15.4549   28.3274 O   0  0  0  0  0  0  0  0  0  0  0  0
   10.0162  -13.3969   28.6913 O   0  0  0  0  0  0  0  0  0  0  0  0
  1  2  1  0
  2  3  2  0
  4  2  1  0
  5  4  1  0
  5  6  1  1
  7  9  1  0
  7  5  1  0
  8  7  2  0
 10  9  1  0
 11 12  1  0
 10 11  1  1
 12 16  1  0
 12 13  2  0
 13 14  1  0
 15 14  1  0
 16 15  2  0
 17 19  1  0
 17 10  1  0
 18 17  2  0
 20 19  1  0
 20 23  1  0
 20 21  1  1
 21 22  1  0
 23 25  1  0
 24 23  2  0
M  END
$$$$
