NHC.pdb
     RDKit          3D

 25 25  0  0  1  0  0  0  0  0999 V2000
    7.9963  -12.2806   17.9472 N   0  0  0  0  0  0  0  0  0  0  0  0
    7.7036  -13.6318   18.2610 C   0  0  0  0  0  0  0  0  0  0  0  0
    7.7567  -14.5264   17.3997 O   0  0  0  0  0  0  0  0  0  0  0  0
    7.3271  -13.9830   19.6428 C   0  0  0  0  0  0  0  0  0  0  0  0
    8.5267  -14.3853   20.4576 C   0  0  2  0  0  0  0  0  0  0  0  0
    9.2927  -15.4531   19.8930 N   0  0  0  0  0  0  0  0  0  0  0  0
    8.0891  -14.7627   21.8103 C   0  0  0  0  0  0  0  0  0  0  0  0
    7.2596  -14.0471   22.3966 O   0  0  0  0  0  0  0  0  0  0  0  0
    8.5848  -15.9049   22.4484 N   0  0  0  0  0  0  0  0  0  0  0  0
    8.1377  -16.2745   23.8083 C   0  0  1  0  0  0  0  0  0  0  0  0
    7.7722  -17.7220   23.8386 C   0  0  0  0  0  0  0  0  0  0  0  0
    6.5682  -18.0846   23.0986 C   0  0  0  0  0  0  0  0  0  0  0  0
    5.6959  -17.3562   22.3446 C   0  0  0  0  0  0  0  0  0  0  0  0
    4.7740  -18.2165   21.8268 N   0  0  0  0  0  0  0  0  0  0  0  0
    5.0643  -19.4349   22.2431 C   0  0  0  0  0  0  0  0  0  0  0  0
    6.1515  -19.3786   23.0176 N   0  0  0  0  0  0  0  0  0  0  0  0
    9.3696  -16.0454   24.6603 C   0  0  0  0  0  0  0  0  0  0  0  0
   10.3488  -15.3961   24.2676 O   0  0  0  0  0  0  0  0  0  0  0  0
    9.4342  -16.5866   25.9706 N   0  0  0  0  0  0  0  0  0  0  0  0
    9.9516  -15.7544   27.0512 C   0  0  1  0  0  0  0  0  0  0  0  0
    9.0877  -14.5177   27.1399 C   0  0  0  0  0  0  0  0  0  0  0  0
    9.7441  -13.3264   28.3089 S   0  0  0  0  0  0  0  0  0  0  0  0
    9.9250  -16.4845   28.3462 C   0  0  0  0  0  0  0  0  0  0  0  0
    8.9921  -17.2682   28.6717 O   0  0  0  0  0  0  0  0  0  0  0  0
   10.9524  -16.3071   29.2327 O   0  0  0  0  0  0  0  0  0  0  0  0
  1  2  1  0
  2  3  2  0
  4  2  1  0
  5  4  1  0
  5  6  1  6
  7  9  1  0
  7  5  1  0
  8  7  2  0
 10  9  1  0
 11 12  1  0
 10 11  1  6
 12 16  1  0
 12 13  2  0
 13 14  1  0
 15 14  1  0
 16 15  2  0
 17 19  1  0
 17 10  1  0
 18 17  2  0
 20 19  1  0
 20 23  1  0
 20 21  1  1
 21 22  1  0
 23 25  1  0
 24 23  2  0
M  END
$$$$
