NHC.pdb
     RDKit          3D

 25 25  0  0  1  0  0  0  0  0999 V2000
    8.0695  -12.7467   16.1421 N   0  0  0  0  0  0  0  0  0  0  0  0
    7.9223  -14.1224   16.4514 C   0  0  0  0  0  0  0  0  0  0  0  0
    8.1428  -15.0068   15.6065 O   0  0  0  0  0  0  0  0  0  0  0  0
    7.4969  -14.5119   17.8086 C   0  0  0  0  0  0  0  0  0  0  0  0
    8.5833  -14.2660   18.8206 C   0  0  2  0  0  0  0  0  0  0  0  0
    9.8658  -14.7760   18.4455 N   0  0  0  0  0  0  0  0  0  0  0  0
    8.1853  -14.8508   20.1102 C   0  0  0  0  0  0  0  0  0  0  0  0
    7.0400  -14.6357   20.5413 O   0  0  0  0  0  0  0  0  0  0  0  0
    9.0649  -15.6402   20.8591 N   0  0  0  0  0  0  0  0  0  0  0  0
    8.6382  -16.2632   22.1301 C   0  0  1  0  0  0  0  0  0  0  0  0
    9.5345  -17.4142   22.4487 C   0  0  0  0  0  0  0  0  0  0  0  0
    9.2791  -18.6395   21.6990 C   0  0  0  0  0  0  0  0  0  0  0  0
    8.3406  -18.9700   20.7662 C   0  0  0  0  0  0  0  0  0  0  0  0
    8.6027  -20.2391   20.3433 N   0  0  0  0  0  0  0  0  0  0  0  0
    9.6661  -20.6799   20.9891 C   0  0  0  0  0  0  0  0  0  0  0  0
   10.0942  -19.7240   21.8185 N   0  0  0  0  0  0  0  0  0  0  0  0
    8.8454  -15.1626   23.1507 C   0  0  0  0  0  0  0  0  0  0  0  0
    9.6633  -14.2451   22.9953 O   0  0  0  0  0  0  0  0  0  0  0  0
    8.0838  -15.1556   24.3482 N   0  0  0  0  0  0  0  0  0  0  0  0
    8.5358  -14.3333   25.4651 C   0  0  1  0  0  0  0  0  0  0  0  0
    7.6839  -13.0856   25.4984 C   0  0  0  0  0  0  0  0  0  0  0  0
    5.9572  -13.4633   25.8019 S   0  0  0  0  0  0  0  0  0  0  0  0
    8.4101  -15.0666   26.7524 C   0  0  0  0  0  0  0  0  0  0  0  0
    7.9422  -16.2350   26.8324 O   0  0  0  0  0  0  0  0  0  0  0  0
    8.8169  -14.4581   27.9087 O   0  0  0  0  0  0  0  0  0  0  0  0
  1  2  1  0
  2  3  2  0
  4  2  1  0
  5  4  1  0
  5  6  1  6
  7  9  1  0
  7  5  1  0
  8  7  2  0
 10  9  1  0
 11 12  1  0
 10 11  1  1
 12 16  1  0
 12 13  2  0
 13 14  1  0
 15 14  1  0
 16 15  2  0
 17 19  1  0
 17 10  1  0
 18 17  2  0
 20 19  1  0
 20 23  1  0
 20 21  1  1
 21 22  1  0
 23 25  1  0
 24 23  2  0
M  END
$$$$
