VFH.pdb
     RDKit          3D

 29 30  0  0  1  0  0  0  0  0999 V2000
    8.9493  -18.9922   18.6630 C   0  0  0  0  0  0  0  0  0  0  0  0
    9.2547  -18.2460   19.9398 C   0  0  2  0  0  0  0  0  0  0  0  0
    8.4551  -18.8808   21.0489 C   0  0  0  0  0  0  0  0  0  0  0  0
    8.8389  -16.7942   19.8565 C   0  0  2  0  0  0  0  0  0  0  0  0
    9.4412  -16.2272   18.6920 N   0  0  0  0  0  0  0  0  0  0  0  0
    9.1659  -16.0472   21.0976 C   0  0  0  0  0  0  0  0  0  0  0  0
   10.3136  -15.7911   21.4793 O   0  0  0  0  0  0  0  0  0  0  0  0
    8.0853  -15.6012   21.8925 N   0  0  0  0  0  0  0  0  0  0  0  0
    8.2338  -14.9016   23.1573 C   0  0  1  0  0  0  0  0  0  0  0  0
    7.0817  -14.0403   23.4949 C   0  0  0  0  0  0  0  0  0  0  0  0
    7.2204  -13.3969   24.8210 C   0  0  0  0  0  0  0  0  0  0  0  0
    6.5116  -13.8541   25.9149 C   0  0  0  0  0  0  0  0  0  0  0  0
    6.6292  -13.2674   27.1549 C   0  0  0  0  0  0  0  0  0  0  0  0
    7.4669  -12.2069   27.3090 C   0  0  0  0  0  0  0  0  0  0  0  0
    8.2004  -11.7059   26.2548 C   0  0  0  0  0  0  0  0  0  0  0  0
    8.0645  -12.3097   25.0282 C   0  0  0  0  0  0  0  0  0  0  0  0
    8.6474  -15.8881   24.1539 C   0  0  0  0  0  0  0  0  0  0  0  0
    7.8595  -16.8559   24.4402 O   0  0  0  0  0  0  0  0  0  0  0  0
    9.8688  -15.8709   24.8479 N   0  0  0  0  0  0  0  0  0  0  0  0
   10.1993  -16.9357   25.8220 C   0  0  1  0  0  0  0  0  0  0  0  0
   11.6761  -17.0904   25.7752 C   0  0  0  0  0  0  0  0  0  0  0  0
   12.1349  -17.9581   24.6686 C   0  0  0  0  0  0  0  0  0  0  0  0
   11.4130  -18.6347   23.7372 C   0  0  0  0  0  0  0  0  0  0  0  0
   12.2780  -19.2408   22.8801 N   0  0  0  0  0  0  0  0  0  0  0  0
   13.5152  -18.9500   23.2639 C   0  0  0  0  0  0  0  0  0  0  0  0
   13.4393  -18.1711   24.3492 N   0  0  0  0  0  0  0  0  0  0  0  0
    9.8012  -16.3472   27.1467 C   0  0  0  0  0  0  0  0  0  0  0  0
    9.5745  -17.0696   28.2802 O   0  0  0  0  0  0  0  0  0  0  0  0
    9.6672  -15.0874   27.2193 O   0  0  0  0  0  0  0  0  0  0  0  0
  2  1  1  6
  2  3  1  0
  4  2  1  0
  4  5  1  6
  6  7  2  0
  6  4  1  0
  8  6  1  0
  9  8  1  0
  9 10  1  1
 10 11  1  0
 11 16  1  0
 11 12  2  0
 12 13  1  0
 13 14  2  0
 15 14  1  0
 16 15  2  0
 17  9  1  0
 18 17  2  0
 19 17  1  0
 20 21  1  1
 20 19  1  0
 22 21  1  0
 22 26  1  0
 23 24  1  0
 23 22  2  0
 24 25  1  0
 25 26  2  0
 27 28  1  0
 27 20  1  0
 29 27  2  0
M  END
$$$$
