VFH.pdb
     RDKit          3D

 29 30  0  0  1  0  0  0  0  0999 V2000
    7.6002  -14.9302   18.6966 C   0  0  0  0  0  0  0  0  0  0  0  0
    8.6411  -16.0238   18.6690 C   0  0  2  0  0  0  0  0  0  0  0  0
    8.2899  -16.9684   17.5479 C   0  0  0  0  0  0  0  0  0  0  0  0
    8.6483  -16.8265   19.9509 C   0  0  2  0  0  0  0  0  0  0  0  0
    7.4007  -17.5151   20.0491 N   0  0  0  0  0  0  0  0  0  0  0  0
    8.9366  -15.9817   21.1376 C   0  0  0  0  0  0  0  0  0  0  0  0
    9.9796  -15.3390   21.3033 O   0  0  0  0  0  0  0  0  0  0  0  0
    7.9456  -15.9123   22.1433 N   0  0  0  0  0  0  0  0  0  0  0  0
    8.0856  -15.1624   23.3800 C   0  0  1  0  0  0  0  0  0  0  0  0
    6.8842  -14.3789   23.7350 C   0  0  0  0  0  0  0  0  0  0  0  0
    7.0719  -13.5725   24.9623 C   0  0  0  0  0  0  0  0  0  0  0  0
    7.7556  -12.3726   24.9316 C   0  0  0  0  0  0  0  0  0  0  0  0
    7.9388  -11.6106   26.0636 C   0  0  0  0  0  0  0  0  0  0  0  0
    7.4327  -12.0503   27.2470 C   0  0  0  0  0  0  0  0  0  0  0  0
    6.7414  -13.2393   27.3404 C   0  0  0  0  0  0  0  0  0  0  0  0
    6.5728  -13.9805   26.1960 C   0  0  0  0  0  0  0  0  0  0  0  0
    8.6080  -16.0820   24.3893 C   0  0  0  0  0  0  0  0  0  0  0  0
    7.9699  -17.1632   24.6403 O   0  0  0  0  0  0  0  0  0  0  0  0
    9.7834  -15.8815   25.1325 N   0  0  0  0  0  0  0  0  0  0  0  0
   10.3428  -16.9675   25.9689 C   0  0  1  0  0  0  0  0  0  0  0  0
   11.7939  -17.0208   25.6551 C   0  0  0  0  0  0  0  0  0  0  0  0
   12.0824  -17.6377   24.3420 C   0  0  0  0  0  0  0  0  0  0  0  0
   11.2919  -18.4100   23.5514 C   0  0  0  0  0  0  0  0  0  0  0  0
   11.9690  -18.6845   22.4040 N   0  0  0  0  0  0  0  0  0  0  0  0
   13.1574  -18.0965   22.4722 C   0  0  0  0  0  0  0  0  0  0  0  0
   13.2361  -17.4577   23.6453 N   0  0  0  0  0  0  0  0  0  0  0  0
   10.1545  -16.4713   27.3753 C   0  0  0  0  0  0  0  0  0  0  0  0
    9.5866  -15.2775   27.7076 O   0  0  0  0  0  0  0  0  0  0  0  0
   10.5499  -17.2153   28.3243 O   0  0  0  0  0  0  0  0  0  0  0  0
  2  1  1  1
  2  3  1  0
  4  2  1  0
  4  5  1  1
  6  7  2  0
  6  4  1  0
  8  6  1  0
  9  8  1  0
  9 10  1  1
 10 11  1  0
 11 16  1  0
 11 12  2  0
 12 13  1  0
 13 14  2  0
 15 14  1  0
 16 15  2  0
 17  9  1  0
 18 17  2  0
 19 17  1  0
 20 21  1  6
 20 19  1  0
 22 21  1  0
 22 26  1  0
 23 24  1  0
 23 22  2  0
 24 25  1  0
 25 26  2  0
 27 28  1  0
 27 20  1  0
 29 27  2  0
M  END
$$$$
