VFH.pdb
     RDKit          3D

 29 30  0  0  1  0  0  0  0  0999 V2000
    8.5490  -18.6756   18.3102 C   0  0  0  0  0  0  0  0  0  0  0  0
    8.9078  -18.0134   19.6191 C   0  0  2  0  0  0  0  0  0  0  0  0
    7.9933  -18.5656   20.6827 C   0  0  0  0  0  0  0  0  0  0  0  0
    8.6928  -16.5171   19.5704 C   0  0  2  0  0  0  0  0  0  0  0  0
    9.4376  -15.9984   18.4673 N   0  0  0  0  0  0  0  0  0  0  0  0
    9.0352  -15.8611   20.8579 C   0  0  0  0  0  0  0  0  0  0  0  0
   10.1780  -15.7862   21.3237 O   0  0  0  0  0  0  0  0  0  0  0  0
    7.9766  -15.2847   21.5964 N   0  0  0  0  0  0  0  0  0  0  0  0
    8.1358  -14.6424   22.8900 C   0  0  1  0  0  0  0  0  0  0  0  0
    7.0347  -13.7176   23.2300 C   0  0  0  0  0  0  0  0  0  0  0  0
    7.1403  -13.1881   24.6084 C   0  0  0  0  0  0  0  0  0  0  0  0
    7.9954  -12.1461   24.9103 C   0  0  0  0  0  0  0  0  0  0  0  0
    8.1054  -11.6418   26.1867 C   0  0  0  0  0  0  0  0  0  0  0  0
    7.3512  -12.1841   27.1803 C   0  0  0  0  0  0  0  0  0  0  0  0
    6.4801  -13.2253   26.9405 C   0  0  0  0  0  0  0  0  0  0  0  0
    6.3895  -13.7098   25.6581 C   0  0  0  0  0  0  0  0  0  0  0  0
    8.4544  -15.6896   23.8591 C   0  0  0  0  0  0  0  0  0  0  0  0
    7.6980  -16.7196   23.9382 O   0  0  0  0  0  0  0  0  0  0  0  0
    9.5493  -15.6686   24.7393 N   0  0  0  0  0  0  0  0  0  0  0  0
    9.9667  -16.8954   25.4552 C   0  0  1  0  0  0  0  0  0  0  0  0
   11.3280  -17.2187   24.9557 C   0  0  0  0  0  0  0  0  0  0  0  0
   11.9610  -18.3427   25.6795 C   0  0  0  0  0  0  0  0  0  0  0  0
   11.4701  -19.1189   26.6809 C   0  0  0  0  0  0  0  0  0  0  0  0
   12.3942  -20.0717   26.9785 N   0  0  0  0  0  0  0  0  0  0  0  0
   13.4412  -19.8983   26.1808 C   0  0  0  0  0  0  0  0  0  0  0  0
   13.1879  -18.8508   25.3877 N   0  0  0  0  0  0  0  0  0  0  0  0
   10.0526  -16.4615   26.8918 C   0  0  0  0  0  0  0  0  0  0  0  0
    9.9888  -17.3035   27.9620 O   0  0  0  0  0  0  0  0  0  0  0  0
   10.1967  -15.2233   27.1295 O   0  0  0  0  0  0  0  0  0  0  0  0
  2  1  1  6
  2  3  1  0
  4  2  1  0
  4  5  1  6
  6  7  2  0
  6  4  1  0
  8  6  1  0
  9  8  1  0
  9 10  1  1
 10 11  1  0
 11 16  1  0
 11 12  2  0
 12 13  1  0
 13 14  2  0
 15 14  1  0
 16 15  2  0
 17  9  1  0
 18 17  2  0
 19 17  1  0
 20 21  1  6
 20 19  1  0
 22 21  1  0
 22 26  1  0
 23 24  1  0
 23 22  2  0
 24 25  1  0
 25 26  2  0
 27 28  1  0
 27 20  1  0
 29 27  2  0
M  END
$$$$
