VFH.pdb
     RDKit          3D

 29 30  0  0  1  0  0  0  0  0999 V2000
    6.9352  -14.1802   19.3221 C   0  0  0  0  0  0  0  0  0  0  0  0
    7.4134  -13.8081   20.7053 C   0  0  2  0  0  0  0  0  0  0  0  0
    8.2601  -12.5668   20.5835 C   0  0  0  0  0  0  0  0  0  0  0  0
    8.2805  -14.8891   21.3110 C   0  0  2  0  0  0  0  0  0  0  0  0
    7.5247  -16.1010   21.3356 N   0  0  0  0  0  0  0  0  0  0  0  0
    8.7998  -14.5052   22.6482 C   0  0  0  0  0  0  0  0  0  0  0  0
    9.5388  -13.5372   22.8612 O   0  0  0  0  0  0  0  0  0  0  0  0
    8.4190  -15.3064   23.7488 N   0  0  0  0  0  0  0  0  0  0  0  0
    8.9067  -15.1196   25.1048 C   0  0  1  0  0  0  0  0  0  0  0  0
    7.8363  -15.1234   26.1234 C   0  0  0  0  0  0  0  0  0  0  0  0
    7.2608  -13.7784   26.3504 C   0  0  0  0  0  0  0  0  0  0  0  0
    8.0433  -12.7327   26.8001 C   0  0  0  0  0  0  0  0  0  0  0  0
    7.5241  -11.4760   27.0161 C   0  0  0  0  0  0  0  0  0  0  0  0
    6.2027  -11.2560   26.7803 C   0  0  0  0  0  0  0  0  0  0  0  0
    5.3716  -12.2598   26.3307 C   0  0  0  0  0  0  0  0  0  0  0  0
    5.9151  -13.5044   26.1234 C   0  0  0  0  0  0  0  0  0  0  0  0
   10.0191  -16.0482   25.2985 C   0  0  0  0  0  0  0  0  0  0  0  0
   10.5097  -16.2004   26.4713 O   0  0  0  0  0  0  0  0  0  0  0  0
   10.6179  -16.8131   24.2834 N   0  0  0  0  0  0  0  0  0  0  0  0
   11.7456  -17.7225   24.5884 C   0  0  1  0  0  0  0  0  0  0  0  0
   11.3210  -19.0703   24.1300 C   0  0  0  0  0  0  0  0  0  0  0  0
   10.3253  -19.7012   25.0236 C   0  0  0  0  0  0  0  0  0  0  0  0
   10.2194  -19.6556   26.3775 C   0  0  0  0  0  0  0  0  0  0  0  0
    9.0988  -20.3341   26.7440 N   0  0  0  0  0  0  0  0  0  0  0  0
    8.5136  -20.7940   25.6447 C   0  0  0  0  0  0  0  0  0  0  0  0
    9.2505  -20.4147   24.5942 N   0  0  0  0  0  0  0  0  0  0  0  0
   12.8576  -17.2238   23.7084 C   0  0  0  0  0  0  0  0  0  0  0  0
   14.1256  -17.7241   23.7014 O   0  0  0  0  0  0  0  0  0  0  0  0
   12.6008  -16.2697   22.9120 O   0  0  0  0  0  0  0  0  0  0  0  0
  2  1  1  6
  2  3  1  0
  4  2  1  0
  4  5  1  1
  6  7  2  0
  6  4  1  0
  8  6  1  0
  9  8  1  0
  9 10  1  1
 10 11  1  0
 11 16  1  0
 11 12  2  0
 12 13  1  0
 13 14  2  0
 15 14  1  0
 16 15  2  0
 17  9  1  0
 18 17  2  0
 19 17  1  0
 20 21  1  6
 20 19  1  0
 22 21  1  0
 22 26  1  0
 23 24  1  0
 23 22  2  0
 24 25  1  0
 25 26  2  0
 27 28  1  0
 27 20  1  0
 29 27  2  0
M  END
$$$$
