VFH.pdb
     RDKit          3D

 29 30  0  0  1  0  0  0  0  0999 V2000
    8.7250  -18.7646   18.8880 C   0  0  0  0  0  0  0  0  0  0  0  0
    8.8739  -18.0821   20.2268 C   0  0  2  0  0  0  0  0  0  0  0  0
    7.6367  -18.3768   21.0362 C   0  0  0  0  0  0  0  0  0  0  0  0
    8.9738  -16.5797   20.0847 C   0  0  2  0  0  0  0  0  0  0  0  0
    9.9939  -16.2924   19.1270 N   0  0  0  0  0  0  0  0  0  0  0  0
    9.2017  -15.9089   21.3898 C   0  0  0  0  0  0  0  0  0  0  0  0
   10.2903  -15.8648   21.9742 O   0  0  0  0  0  0  0  0  0  0  0  0
    8.0929  -15.2794   22.0004 N   0  0  0  0  0  0  0  0  0  0  0  0
    8.1360  -14.6210   23.2949 C   0  0  1  0  0  0  0  0  0  0  0  0
    6.9943  -13.7143   23.5350 C   0  0  0  0  0  0  0  0  0  0  0  0
    7.0087  -13.1273   24.8940 C   0  0  0  0  0  0  0  0  0  0  0  0
    6.1140  -13.5419   25.8612 C   0  0  0  0  0  0  0  0  0  0  0  0
    6.1141  -13.0066   27.1297 C   0  0  0  0  0  0  0  0  0  0  0  0
    7.0206  -12.0415   27.4412 C   0  0  0  0  0  0  0  0  0  0  0  0
    7.9383  -11.5869   26.5184 C   0  0  0  0  0  0  0  0  0  0  0  0
    7.9167  -12.1377   25.2600 C   0  0  0  0  0  0  0  0  0  0  0  0
    8.3953  -15.6519   24.2986 C   0  0  0  0  0  0  0  0  0  0  0  0
    7.4912  -16.5236   24.5476 O   0  0  0  0  0  0  0  0  0  0  0  0
    9.5832  -15.7775   25.0382 N   0  0  0  0  0  0  0  0  0  0  0  0
    9.7830  -16.9201   25.9583 C   0  0  1  0  0  0  0  0  0  0  0  0
   11.1201  -17.4798   25.6329 C   0  0  0  0  0  0  0  0  0  0  0  0
   11.0998  -18.3958   24.4716 C   0  0  0  0  0  0  0  0  0  0  0  0
   10.0536  -18.8149   23.7126 C   0  0  0  0  0  0  0  0  0  0  0  0
   10.5360  -19.5991   22.7113 N   0  0  0  0  0  0  0  0  0  0  0  0
   11.8557  -19.6696   22.8381 C   0  0  0  0  0  0  0  0  0  0  0  0
   12.2082  -18.9418   23.9042 N   0  0  0  0  0  0  0  0  0  0  0  0
    9.8270  -16.2824   27.3188 C   0  0  0  0  0  0  0  0  0  0  0  0
    9.7604  -14.9405   27.5496 O   0  0  0  0  0  0  0  0  0  0  0  0
    9.9319  -17.0448   28.3278 O   0  0  0  0  0  0  0  0  0  0  0  0
  2  1  1  6
  2  3  1  0
  4  2  1  0
  4  5  1  6
  6  7  2  0
  6  4  1  0
  8  6  1  0
  9  8  1  0
  9 10  1  1
 10 11  1  0
 11 16  1  0
 11 12  2  0
 12 13  1  0
 13 14  2  0
 15 14  1  0
 16 15  2  0
 17  9  1  0
 18 17  2  0
 19 17  1  0
 20 21  1  6
 20 19  1  0
 22 21  1  0
 22 26  1  0
 23 24  1  0
 23 22  2  0
 24 25  1  0
 25 26  2  0
 27 28  1  0
 27 20  1  0
 29 27  2  0
M  END
$$$$
