VNC.pdb
     RDKit          3D

 22 21  0  0  1  0  0  0  0  0999 V2000
   18.3201  -12.7291  -16.2808 C   0  0  0  0  0  0  0  0  0  0  0  0
   19.2009  -12.5359  -17.4926 C   0  0  2  0  0  0  0  0  0  0  0  0
   19.8576  -13.8813  -17.7677 C   0  0  0  0  0  0  0  0  0  0  0  0
   20.3125  -11.5503  -17.2417 C   0  0  2  0  0  0  0  0  0  0  0  0
   21.1255  -12.1002  -16.1578 N   0  0  0  0  0  0  0  0  0  0  0  0
   19.8095  -10.2309  -16.7853 C   0  0  0  0  0  0  0  0  0  0  0  0
   19.1313   -9.4601  -17.5243 O   0  0  0  0  0  0  0  0  0  0  0  0
   17.4337   -9.0484  -13.7505 N   0  0  0  0  0  0  0  0  0  0  0  0
   18.5074   -8.6809  -12.8919 C   0  0  0  0  0  0  0  0  0  0  0  0
   18.3042   -8.6868  -11.6559 O   0  0  0  0  0  0  0  0  0  0  0  0
   19.7900   -8.3173  -13.5293 C   0  0  0  0  0  0  0  0  0  0  0  0
   19.7399   -8.4175  -15.0314 C   0  0  2  0  0  0  0  0  0  0  0  0
   20.0744   -9.7639  -15.4647 N   0  0  0  0  0  0  0  0  0  0  0  0
   20.6559   -7.4150  -15.6714 C   0  0  0  0  0  0  0  0  0  0  0  0
   21.9020   -7.4314  -15.4836 O   0  0  0  0  0  0  0  0  0  0  0  0
   20.1507   -6.3979  -16.5225 N   0  0  0  0  0  0  0  0  0  0  0  0
   20.9556   -5.4595  -17.2340 C   0  0  1  0  0  0  0  0  0  0  0  0
   20.2614   -5.1922  -18.5715 C   0  0  0  0  0  0  0  0  0  0  0  0
   20.2166   -6.6804  -19.5929 S   0  0  0  0  0  0  0  0  0  0  0  0
   20.9997   -4.1804  -16.5085 C   0  0  0  0  0  0  0  0  0  0  0  0
   20.3163   -4.0206  -15.4780 O   0  0  0  0  0  0  0  0  0  0  0  0
   21.7940   -3.1554  -16.9627 O   0  0  0  0  0  0  0  0  0  0  0  0
  2  1  1  1
  2  4  1  0
  2  3  1  0
  4  6  1  0
  4  5  1  1
  6 13  1  0
  6  7  2  0
  9  8  1  0
  9 11  1  0
 10  9  2  0
 12 11  1  1
 12 14  1  0
 13 12  1  0
 14 15  2  0
 16 17  1  0
 16 14  1  0
 17 20  1  0
 17 18  1  6
 18 19  1  0
 20 22  1  0
 21 20  2  0
M  END
$$$$
