VNC.pdb
     RDKit          3D

 22 21  0  0  1  0  0  0  0  0999 V2000
   18.0255  -14.2554  -19.0691 C   0  0  0  0  0  0  0  0  0  0  0  0
   19.4941  -14.5583  -18.8870 C   0  0  2  0  0  0  0  0  0  0  0  0
   19.5888  -16.0339  -18.5254 C   0  0  0  0  0  0  0  0  0  0  0  0
   20.1004  -13.7883  -17.7426 C   0  0  2  0  0  0  0  0  0  0  0  0
   19.4742  -14.2895  -16.5199 N   0  0  0  0  0  0  0  0  0  0  0  0
   19.8099  -12.3351  -17.8188 C   0  0  0  0  0  0  0  0  0  0  0  0
   20.2181  -11.6006  -18.7644 O   0  0  0  0  0  0  0  0  0  0  0  0
   15.3470  -10.8974  -17.9900 N   0  0  0  0  0  0  0  0  0  0  0  0
   16.6318  -10.2890  -18.0549 C   0  0  0  0  0  0  0  0  0  0  0  0
   17.1149  -10.0475  -19.1851 O   0  0  0  0  0  0  0  0  0  0  0  0
   17.3032   -9.9864  -16.7738 C   0  0  0  0  0  0  0  0  0  0  0  0
   18.7841  -10.2581  -16.8170 C   0  0  2  0  0  0  0  0  0  0  0  0
   19.0411  -11.6886  -16.8072 N   0  0  0  0  0  0  0  0  0  0  0  0
   19.4908   -9.5878  -15.6746 C   0  0  0  0  0  0  0  0  0  0  0  0
   19.1480   -9.7704  -14.4757 O   0  0  0  0  0  0  0  0  0  0  0  0
   20.5847   -8.7124  -15.9008 N   0  0  0  0  0  0  0  0  0  0  0  0
   21.3316   -8.0628  -14.8737 C   0  0  1  0  0  0  0  0  0  0  0  0
   22.7950   -8.4746  -15.0507 C   0  0  0  0  0  0  0  0  0  0  0  0
   23.0789  -10.1523  -14.4468 S   0  0  0  0  0  0  0  0  0  0  0  0
   21.2704   -6.6037  -15.0513 C   0  0  0  0  0  0  0  0  0  0  0  0
   21.7258   -5.8458  -14.1721 O   0  0  0  0  0  0  0  0  0  0  0  0
   20.7112   -6.0685  -16.1865 O   0  0  0  0  0  0  0  0  0  0  0  0
  2  1  1  1
  2  4  1  0
  2  3  1  0
  4  6  1  0
  4  5  1  1
  6 13  1  0
  6  7  2  0
  9  8  1  0
  9 11  1  0
 10  9  2  0
 12 11  1  1
 12 14  1  0
 13 12  1  0
 14 15  2  0
 16 17  1  0
 16 14  1  0
 17 20  1  0
 17 18  1  6
 18 19  1  0
 20 22  1  0
 21 20  2  0
M  END
$$$$
