VNC.pdb
     RDKit          3D

 22 21  0  0  1  0  0  0  0  0999 V2000
   21.6921  -19.2903  -17.9905 C   0  0  0  0  0  0  0  0  0  0  0  0
   23.0135  -18.6210  -18.2862 C   0  0  2  0  0  0  0  0  0  0  0  0
   23.3832  -19.0064  -19.7117 C   0  0  0  0  0  0  0  0  0  0  0  0
   24.1216  -19.1225  -17.3968 C   0  0  2  0  0  0  0  0  0  0  0  0
   24.2848  -20.5457  -17.6902 N   0  0  0  0  0  0  0  0  0  0  0  0
   23.7884  -19.0084  -15.9553 C   0  0  0  0  0  0  0  0  0  0  0  0
   23.6819  -17.8975  -15.3596 O   0  0  0  0  0  0  0  0  0  0  0  0
   22.6133  -19.5933  -11.1586 N   0  0  0  0  0  0  0  0  0  0  0  0
   21.6406  -20.2743  -11.9428 C   0  0  0  0  0  0  0  0  0  0  0  0
   20.5922  -20.6623  -11.3777 O   0  0  0  0  0  0  0  0  0  0  0  0
   21.9441  -20.4732  -13.3753 C   0  0  0  0  0  0  0  0  0  0  0  0
   23.3632  -20.1074  -13.7234 C   0  0  2  0  0  0  0  0  0  0  0  0
   23.5690  -20.1716  -15.1608 N   0  0  0  0  0  0  0  0  0  0  0  0
   24.3413  -20.9957  -13.0107 C   0  0  0  0  0  0  0  0  0  0  0  0
   24.1663  -22.2398  -12.9112 O   0  0  0  0  0  0  0  0  0  0  0  0
   25.5147  -20.4651  -12.4142 N   0  0  0  0  0  0  0  0  0  0  0  0
   26.2572  -21.1011  -11.3756 C   0  0  1  0  0  0  0  0  0  0  0  0
   27.7044  -20.6176  -11.4944 C   0  0  0  0  0  0  0  0  0  0  0  0
   28.6906  -21.1550  -10.0806 S   0  0  0  0  0  0  0  0  0  0  0  0
   25.7633  -20.6626  -10.0610 C   0  0  0  0  0  0  0  0  0  0  0  0
   25.4391  -19.4725   -9.8785 O   0  0  0  0  0  0  0  0  0  0  0  0
   25.6566  -21.5619   -9.0277 O   0  0  0  0  0  0  0  0  0  0  0  0
  2  1  1  1
  2  4  1  0
  2  3  1  0
  4  6  1  0
  4  5  1  6
  6 13  1  0
  6  7  2  0
  9  8  1  0
  9 11  1  0
 10  9  2  0
 12 11  1  6
 12 14  1  0
 13 12  1  0
 14 15  2  0
 16 17  1  0
 16 14  1  0
 17 20  1  0
 17 18  1  6
 18 19  1  0
 20 22  1  0
 21 20  2  0
M  END
$$$$
