VNC.pdb
     RDKit          3D

 22 21  0  0  1  0  0  0  0  0999 V2000
   14.1966  -13.1277  -16.1143 C   0  0  0  0  0  0  0  0  0  0  0  0
   15.4423  -13.6562  -16.7854 C   0  0  2  0  0  0  0  0  0  0  0  0
   15.4175  -15.1683  -16.6121 C   0  0  0  0  0  0  0  0  0  0  0  0
   16.7029  -13.1614  -16.1248 C   0  0  2  0  0  0  0  0  0  0  0  0
   16.7132  -13.7144  -14.7712 N   0  0  0  0  0  0  0  0  0  0  0  0
   16.7331  -11.6836  -15.9939 C   0  0  0  0  0  0  0  0  0  0  0  0
   16.8346  -10.9069  -16.9872 O   0  0  0  0  0  0  0  0  0  0  0  0
   13.7921   -7.9648  -14.7021 N   0  0  0  0  0  0  0  0  0  0  0  0
   14.2362   -9.1832  -14.1162 C   0  0  0  0  0  0  0  0  0  0  0  0
   13.4524  -10.1603  -14.1190 O   0  0  0  0  0  0  0  0  0  0  0  0
   15.5987   -9.2027  -13.5446 C   0  0  0  0  0  0  0  0  0  0  0  0
   16.6426   -9.6166  -14.5486 C   0  0  2  0  0  0  0  0  0  0  0  0
   16.6470  -11.0605  -14.7145 N   0  0  0  0  0  0  0  0  0  0  0  0
   18.0040   -9.1282  -14.1462 C   0  0  0  0  0  0  0  0  0  0  0  0
   18.6435   -9.6416  -13.1893 O   0  0  0  0  0  0  0  0  0  0  0  0
   18.6323   -8.0576  -14.8341 N   0  0  0  0  0  0  0  0  0  0  0  0
   19.9595   -7.5986  -14.5842 C   0  0  1  0  0  0  0  0  0  0  0  0
   20.9143   -8.6042  -15.2317 C   0  0  0  0  0  0  0  0  0  0  0  0
   22.6323   -8.0744  -15.0646 S   0  0  0  0  0  0  0  0  0  0  0  0
   20.1799   -6.3053  -15.2499 C   0  0  0  0  0  0  0  0  0  0  0  0
   19.5956   -6.0438  -16.3200 O   0  0  0  0  0  0  0  0  0  0  0  0
   21.0305   -5.3791  -14.6963 O   0  0  0  0  0  0  0  0  0  0  0  0
  2  1  1  1
  2  4  1  0
  2  3  1  0
  4  6  1  0
  4  5  1  1
  6 13  1  0
  6  7  2  0
  9  8  1  0
  9 11  1  0
 10  9  2  0
 12 11  1  1
 12 14  1  0
 13 12  1  0
 14 15  2  0
 16 17  1  0
 16 14  1  0
 17 20  1  0
 17 18  1  6
 18 19  1  0
 20 22  1  0
 21 20  2  0
M  END
$$$$
