VNC.pdb
     RDKit          3D

 22 21  0  0  1  0  0  0  0  0999 V2000
   26.5684   -9.5737  -16.4142 C   0  0  0  0  0  0  0  0  0  0  0  0
   26.0945  -10.6677  -15.4868 C   0  0  2  0  0  0  0  0  0  0  0  0
   27.1877  -11.7269  -15.4748 C   0  0  0  0  0  0  0  0  0  0  0  0
   24.8412  -11.3389  -15.9857 C   0  0  2  0  0  0  0  0  0  0  0  0
   25.1544  -11.8874  -17.3045 N   0  0  0  0  0  0  0  0  0  0  0  0
   23.7186  -10.3850  -16.1639 C   0  0  0  0  0  0  0  0  0  0  0  0
   23.6136   -9.6266  -17.1709 O   0  0  0  0  0  0  0  0  0  0  0  0
   20.3799  -11.1414  -16.9237 N   0  0  0  0  0  0  0  0  0  0  0  0
   19.7076  -10.9023  -15.6925 C   0  0  0  0  0  0  0  0  0  0  0  0
   18.6476  -11.5303  -15.4663 O   0  0  0  0  0  0  0  0  0  0  0  0
   20.3162   -9.9237  -14.7675 C   0  0  0  0  0  0  0  0  0  0  0  0
   21.5913   -9.3310  -15.3074 C   0  0  2  0  0  0  0  0  0  0  0  0
   22.6862  -10.2792  -15.1864 N   0  0  0  0  0  0  0  0  0  0  0  0
   21.9282   -8.0451  -14.6098 C   0  0  0  0  0  0  0  0  0  0  0  0
   22.4358   -8.0223  -13.4565 O   0  0  0  0  0  0  0  0  0  0  0  0
   21.6862   -6.7903  -15.2270 N   0  0  0  0  0  0  0  0  0  0  0  0
   22.0939   -5.5310  -14.6954 C   0  0  1  0  0  0  0  0  0  0  0  0
   23.0091   -4.8778  -15.7337 C   0  0  0  0  0  0  0  0  0  0  0  0
   23.4671   -3.2028  -15.2388 S   0  0  0  0  0  0  0  0  0  0  0  0
   20.9270   -4.6495  -14.5347 C   0  0  0  0  0  0  0  0  0  0  0  0
   19.9761   -4.7159  -15.3384 O   0  0  0  0  0  0  0  0  0  0  0  0
   20.8790   -3.7487  -13.4983 O   0  0  0  0  0  0  0  0  0  0  0  0
  2  1  1  6
  2  4  1  0
  2  3  1  0
  4  6  1  0
  4  5  1  6
  6 13  1  0
  6  7  2  0
  9  8  1  0
  9 11  1  0
 10  9  2  0
 12 11  1  1
 12 14  1  0
 13 12  1  0
 14 15  2  0
 16 17  1  0
 16 14  1  0
 17 20  1  0
 17 18  1  6
 18 19  1  0
 20 22  1  0
 21 20  2  0
M  END
$$$$
