VNC.pdb
     RDKit          3D

 22 21  0  0  1  0  0  0  0  0999 V2000
   20.7377  -16.6913  -18.1319 C   0  0  0  0  0  0  0  0  0  0  0  0
   21.9129  -16.8136  -17.1909 C   0  0  2  0  0  0  0  0  0  0  0  0
   21.8733  -18.2293  -16.6326 C   0  0  0  0  0  0  0  0  0  0  0  0
   21.8056  -15.8773  -16.0153 C   0  0  2  0  0  0  0  0  0  0  0  0
   20.6107  -16.2724  -15.2707 N   0  0  0  0  0  0  0  0  0  0  0  0
   21.6158  -14.4650  -16.4296 C   0  0  0  0  0  0  0  0  0  0  0  0
   22.5047  -13.8010  -17.0372 O   0  0  0  0  0  0  0  0  0  0  0  0
   17.0177  -13.2258  -18.3325 N   0  0  0  0  0  0  0  0  0  0  0  0
   18.3472  -12.7386  -18.1906 C   0  0  0  0  0  0  0  0  0  0  0  0
   19.1150  -12.8205  -19.1770 O   0  0  0  0  0  0  0  0  0  0  0  0
   18.7235  -12.1688  -16.8801 C   0  0  0  0  0  0  0  0  0  0  0  0
   20.1739  -12.3969  -16.5437 C   0  0  2  0  0  0  0  0  0  0  0  0
   20.3964  -13.7795  -16.1549 N   0  0  0  0  0  0  0  0  0  0  0  0
   20.6309  -11.4644  -15.4595 C   0  0  0  0  0  0  0  0  0  0  0  0
   20.0403  -11.3887  -14.3488 O   0  0  0  0  0  0  0  0  0  0  0  0
   21.7580  -10.6218  -15.6434 N   0  0  0  0  0  0  0  0  0  0  0  0
   22.2561   -9.7066  -14.6692 C   0  0  1  0  0  0  0  0  0  0  0  0
   23.7836   -9.7396  -14.7585 C   0  0  0  0  0  0  0  0  0  0  0  0
   24.4384  -11.3151  -14.1678 S   0  0  0  0  0  0  0  0  0  0  0  0
   21.8347   -8.3369  -15.0017 C   0  0  0  0  0  0  0  0  0  0  0  0
   21.3911   -8.0760  -16.1374 O   0  0  0  0  0  0  0  0  0  0  0  0
   21.9278   -7.3381  -14.0627 O   0  0  0  0  0  0  0  0  0  0  0  0
  2  1  1  6
  2  4  1  0
  2  3  1  0
  4  6  1  0
  4  5  1  1
  6 13  1  0
  6  7  2  0
  9  8  1  0
  9 11  1  0
 10  9  2  0
 12 11  1  1
 12 14  1  0
 13 12  1  0
 14 15  2  0
 16 17  1  0
 16 14  1  0
 17 20  1  0
 17 18  1  6
 18 19  1  0
 20 22  1  0
 21 20  2  0
M  END
$$$$
