VNC.pdb
     RDKit          3D

 22 21  0  0  1  0  0  0  0  0999 V2000
   22.1356  -12.2310  -21.9646 C   0  0  0  0  0  0  0  0  0  0  0  0
   21.2738  -11.0394  -21.6193 C   0  0  2  0  0  0  0  0  0  0  0  0
   20.6534  -10.5625  -22.9250 C   0  0  0  0  0  0  0  0  0  0  0  0
   22.0789   -9.8892  -21.0724 C   0  0  2  0  0  0  0  0  0  0  0  0
   22.8070  -10.3999  -19.9117 N   0  0  0  0  0  0  0  0  0  0  0  0
   21.2242   -8.7734  -20.5964 C   0  0  0  0  0  0  0  0  0  0  0  0
   20.3802   -8.1896  -21.3359 O   0  0  0  0  0  0  0  0  0  0  0  0
   18.0672   -8.0483  -18.1779 N   0  0  0  0  0  0  0  0  0  0  0  0
   18.8816   -7.7610  -17.0468 C   0  0  0  0  0  0  0  0  0  0  0  0
   18.3853   -7.9144  -15.9070 O   0  0  0  0  0  0  0  0  0  0  0  0
   20.2615   -7.2999  -17.3055 C   0  0  0  0  0  0  0  0  0  0  0  0
   20.5592   -7.1577  -18.7752 C   0  0  2  0  0  0  0  0  0  0  0  0
   21.3190   -8.3000  -19.2550 N   0  0  0  0  0  0  0  0  0  0  0  0
   21.2946   -5.8796  -19.0571 C   0  0  0  0  0  0  0  0  0  0  0  0
   22.5522   -5.8315  -19.1232 O   0  0  0  0  0  0  0  0  0  0  0  0
   20.5963   -4.6613  -19.2626 N   0  0  0  0  0  0  0  0  0  0  0  0
   21.2144   -3.4099  -19.5570 C   0  0  1  0  0  0  0  0  0  0  0  0
   20.8182   -3.0362  -20.9873 C   0  0  0  0  0  0  0  0  0  0  0  0
   21.4207   -1.3909  -21.4231 S   0  0  0  0  0  0  0  0  0  0  0  0
   20.6785   -2.3623  -18.6740 C   0  0  0  0  0  0  0  0  0  0  0  0
   19.4797   -2.3840  -18.3318 O   0  0  0  0  0  0  0  0  0  0  0  0
   21.4960   -1.3547  -18.2219 O   0  0  0  0  0  0  0  0  0  0  0  0
  2  1  1  6
  2  4  1  0
  2  3  1  0
  4  6  1  0
  4  5  1  1
  6 13  1  0
  6  7  2  0
  9  8  1  0
  9 11  1  0
 10  9  2  0
 12 11  1  1
 12 14  1  0
 13 12  1  0
 14 15  2  0
 16 17  1  0
 16 14  1  0
 17 20  1  0
 17 18  1  6
 18 19  1  0
 20 22  1  0
 21 20  2  0
M  END
$$$$
