VNC.pdb
     RDKit          3D

 22 21  0  0  1  0  0  0  0  0999 V2000
   25.0026  -26.9173  -16.3234 C   0  0  0  0  0  0  0  0  0  0  0  0
   24.3722  -25.5644  -16.0919 C   0  0  2  0  0  0  0  0  0  0  0  0
   23.0236  -25.5902  -16.7974 C   0  0  0  0  0  0  0  0  0  0  0  0
   25.1692  -24.4469  -16.7136 C   0  0  2  0  0  0  0  0  0  0  0  0
   26.5672  -24.6753  -16.3510 N   0  0  0  0  0  0  0  0  0  0  0  0
   24.7910  -23.1148  -16.1804 C   0  0  0  0  0  0  0  0  0  0  0  0
   23.6679  -22.5775  -16.4047 O   0  0  0  0  0  0  0  0  0  0  0  0
   28.3443  -19.3467  -14.3536 N   0  0  0  0  0  0  0  0  0  0  0  0
   27.7345  -20.6250  -14.2155 C   0  0  0  0  0  0  0  0  0  0  0  0
   28.4187  -21.6386  -14.4868 O   0  0  0  0  0  0  0  0  0  0  0  0
   26.3294  -20.6593  -13.7591 C   0  0  0  0  0  0  0  0  0  0  0  0
   25.3728  -21.0465  -14.8562 C   0  0  2  0  0  0  0  0  0  0  0  0
   25.6968  -22.3654  -15.3741 N   0  0  0  0  0  0  0  0  0  0  0  0
   25.3772  -20.0306  -15.9616 C   0  0  0  0  0  0  0  0  0  0  0  0
   24.9186  -18.8674  -15.8035 O   0  0  0  0  0  0  0  0  0  0  0  0
   25.9034  -20.3420  -17.2422 N   0  0  0  0  0  0  0  0  0  0  0  0
   25.9774  -19.4279  -18.3347 C   0  0  1  0  0  0  0  0  0  0  0  0
   27.1481  -19.8710  -19.2154 C   0  0  0  0  0  0  0  0  0  0  0  0
   27.2339  -18.8908  -20.7294 S   0  0  0  0  0  0  0  0  0  0  0  0
   24.7605  -19.5235  -19.1559 C   0  0  0  0  0  0  0  0  0  0  0  0
   24.2030  -18.4890  -19.5728 O   0  0  0  0  0  0  0  0  0  0  0  0
   24.2320  -20.7529  -19.4678 O   0  0  0  0  0  0  0  0  0  0  0  0
  2  1  1  6
  2  4  1  0
  2  3  1  0
  4  6  1  0
  4  5  1  1
  6 13  1  0
  6  7  2  0
  9  8  1  0
  9 11  1  0
 10  9  2  0
 12 11  1  1
 12 14  1  0
 13 12  1  0
 14 15  2  0
 16 17  1  0
 16 14  1  0
 17 20  1  0
 17 18  1  6
 18 19  1  0
 20 22  1  0
 21 20  2  0
M  END
$$$$
