KQP.pdb
     RDKit          3D

 26 26  0  0  1  0  0  0  0  0999 V2000
   14.5313  -13.0199  -11.1838 N   0  0  0  0  0  0  0  0  0  0  0  0
   14.3885  -11.7760  -11.8676 C   0  0  1  0  0  0  0  0  0  0  0  0
   12.9328  -11.3780  -11.8308 C   0  0  0  0  0  0  0  0  0  0  0  0
   12.0979  -12.6349  -11.9206 C   0  0  0  0  0  0  0  0  0  0  0  0
   11.5206  -13.0148  -10.5737 C   0  0  0  0  0  0  0  0  0  0  0  0
   10.5180  -14.1465  -10.7632 C   0  0  0  0  0  0  0  0  0  0  0  0
    9.9791  -14.5933   -9.5157 N   0  0  0  0  0  0  0  0  0  0  0  0
   15.2946  -10.7220  -11.4229 C   0  0  0  0  0  0  0  0  0  0  0  0
   15.2401  -10.3032  -10.2392 O   0  0  0  0  0  0  0  0  0  0  0  0
   20.3578   -8.3077  -14.3098 N   0  0  0  0  0  0  0  0  0  0  0  0
   20.1957   -7.3606  -13.2468 C   0  0  0  0  0  0  0  0  0  0  0  0
   21.0043   -6.4046  -13.1497 O   0  0  0  0  0  0  0  0  0  0  0  0
   19.0718   -7.5435  -12.2923 C   0  0  0  0  0  0  0  0  0  0  0  0
   18.2914   -8.7586  -12.7265 C   0  0  0  0  0  0  0  0  0  0  0  0
   17.0783   -8.9957  -11.8443 C   0  0  2  0  0  0  0  0  0  0  0  0
   16.2874  -10.0986  -12.2697 N   0  0  0  0  0  0  0  0  0  0  0  0
   16.2903   -7.7730  -11.7126 C   0  0  0  0  0  0  0  0  0  0  0  0
   15.4429   -7.6098  -12.6870 O   0  0  0  0  0  0  0  0  0  0  0  0
   16.3029   -6.7772  -10.7308 N   0  0  0  0  0  0  0  0  0  0  0  0
   17.2427   -6.7968   -9.5903 C   0  0  0  0  0  0  0  0  0  0  0  0
   16.5229   -6.1191   -8.4668 C   0  0  0  0  0  0  0  0  0  0  0  0
   15.1900   -5.7327   -9.0304 C   0  0  0  0  0  0  0  0  0  0  0  0
   15.5527   -5.5758  -10.5236 C   0  0  1  0  0  0  0  0  0  0  0  0
   16.3852   -4.3495  -10.7098 C   0  0  0  0  0  0  0  0  0  0  0  0
   15.8029   -3.0916  -10.6403 O   0  0  0  0  0  0  0  0  0  0  0  0
   17.6216   -4.3798  -10.9331 O   0  0  0  0  0  0  0  0  0  0  0  0
  2  1  1  1
  3  2  1  0
  4  3  1  0
  4  5  1  0
  5  6  1  0
  6  7  1  0
  8  2  1  0
  8  9  2  0
 10 11  1  0
 11 12  2  0
 11 13  1  0
 13 14  1  0
 15 14  1  6
 15 16  1  0
 16  8  1  0
 17 15  1  0
 18 17  2  0
 19 17  1  0
 19 23  1  0
 20 19  1  0
 20 21  1  0
 21 22  1  0
 23 22  1  0
 24 25  1  0
 23 24  1  1
 26 24  2  0
M  END
$$$$
