KQP.pdb
     RDKit          3D

 26 26  0  0  1  0  0  0  0  0999 V2000
   28.0896  -21.7227  -17.8008 N   0  0  0  0  0  0  0  0  0  0  0  0
   28.5421  -20.7037  -16.9108 C   0  0  1  0  0  0  0  0  0  0  0  0
   29.1843  -19.6093  -17.7286 C   0  0  0  0  0  0  0  0  0  0  0  0
   29.4263  -20.1424  -19.1222 C   0  0  0  0  0  0  0  0  0  0  0  0
   28.4163  -19.5957  -20.1085 C   0  0  0  0  0  0  0  0  0  0  0  0
   29.1571  -18.9461  -21.2709 C   0  0  0  0  0  0  0  0  0  0  0  0
   28.7182  -19.4575  -22.5327 N   0  0  0  0  0  0  0  0  0  0  0  0
   27.5376  -20.2181  -15.9700 C   0  0  0  0  0  0  0  0  0  0  0  0
   27.8544  -19.3814  -15.0874 O   0  0  0  0  0  0  0  0  0  0  0  0
   23.1949  -17.9339  -17.8444 N   0  0  0  0  0  0  0  0  0  0  0  0
   23.9392  -17.1460  -16.9071 C   0  0  0  0  0  0  0  0  0  0  0  0
   24.1425  -15.9314  -17.1531 O   0  0  0  0  0  0  0  0  0  0  0  0
   24.4467  -17.7964  -15.6713 C   0  0  0  0  0  0  0  0  0  0  0  0
   24.1316  -19.2683  -15.7623 C   0  0  0  0  0  0  0  0  0  0  0  0
   25.1870  -20.1156  -15.0736 C   0  0  2  0  0  0  0  0  0  0  0  0
   26.1545  -20.6405  -15.9743 N   0  0  0  0  0  0  0  0  0  0  0  0
   24.5626  -21.1613  -14.2675 C   0  0  0  0  0  0  0  0  0  0  0  0
   24.3761  -22.2666  -14.9290 O   0  0  0  0  0  0  0  0  0  0  0  0
   24.1451  -21.1615  -12.9328 N   0  0  0  0  0  0  0  0  0  0  0  0
   24.2766  -19.9773  -12.0582 C   0  0  0  0  0  0  0  0  0  0  0  0
   24.4605  -20.5194  -10.6755 C   0  0  0  0  0  0  0  0  0  0  0  0
   24.4170  -22.0088  -10.8282 C   0  0  0  0  0  0  0  0  0  0  0  0
   23.5273  -22.1352  -12.0845 C   0  0  1  0  0  0  0  0  0  0  0  0
   22.1198  -21.7730  -11.7389 C   0  0  0  0  0  0  0  0  0  0  0  0
   21.6142  -20.5267  -12.0811 O   0  0  0  0  0  0  0  0  0  0  0  0
   21.3337  -22.5476  -11.1377 O   0  0  0  0  0  0  0  0  0  0  0  0
  2  1  1  6
  3  2  1  0
  4  3  1  0
  4  5  1  0
  5  6  1  0
  6  7  1  0
  8  2  1  0
  8  9  2  0
 10 11  1  0
 11 12  2  0
 11 13  1  0
 13 14  1  0
 15 14  1  6
 15 16  1  0
 16  8  1  0
 17 15  1  0
 18 17  2  0
 19 17  1  0
 19 23  1  0
 20 19  1  0
 20 21  1  0
 21 22  1  0
 23 22  1  0
 24 25  1  0
 23 24  1  1
 26 24  2  0
M  END
$$$$
