KQP.pdb
     RDKit          3D

 26 26  0  0  1  0  0  0  0  0999 V2000
   27.3868  -19.7208  -18.9022 N   0  0  0  0  0  0  0  0  0  0  0  0
   27.6673  -19.9738  -17.5265 C   0  0  1  0  0  0  0  0  0  0  0  0
   28.5349  -18.8540  -17.0047 C   0  0  0  0  0  0  0  0  0  0  0  0
   29.8418  -18.8774  -17.7638 C   0  0  0  0  0  0  0  0  0  0  0  0
   29.7723  -18.0274  -19.0146 C   0  0  0  0  0  0  0  0  0  0  0  0
   31.1362  -18.0290  -19.6939 C   0  0  0  0  0  0  0  0  0  0  0  0
   31.1794  -17.1239  -20.8008 N   0  0  0  0  0  0  0  0  0  0  0  0
   26.4954  -20.2403  -16.6986 C   0  0  0  0  0  0  0  0  0  0  0  0
   25.7189  -19.3027  -16.3866 O   0  0  0  0  0  0  0  0  0  0  0  0
   22.4885  -24.9699  -15.3903 N   0  0  0  0  0  0  0  0  0  0  0  0
   23.8518  -25.3092  -15.1082 C   0  0  0  0  0  0  0  0  0  0  0  0
   24.1229  -26.4642  -14.6963 O   0  0  0  0  0  0  0  0  0  0  0  0
   24.9017  -24.2781  -15.3137 C   0  0  0  0  0  0  0  0  0  0  0  0
   24.2212  -23.0114  -15.7681 C   0  0  0  0  0  0  0  0  0  0  0  0
   25.0060  -21.7742  -15.3689 C   0  0  2  0  0  0  0  0  0  0  0  0
   26.1448  -21.5480  -16.1903 N   0  0  0  0  0  0  0  0  0  0  0  0
   25.3520  -21.8192  -13.9506 C   0  0  0  0  0  0  0  0  0  0  0  0
   26.5110  -22.3688  -13.7297 O   0  0  0  0  0  0  0  0  0  0  0  0
   24.6527  -21.3764  -12.8233 N   0  0  0  0  0  0  0  0  0  0  0  0
   23.2892  -20.8119  -12.9044 C   0  0  0  0  0  0  0  0  0  0  0  0
   23.1952  -19.8295  -11.7793 C   0  0  0  0  0  0  0  0  0  0  0  0
   24.5265  -19.8866  -11.0954 C   0  0  0  0  0  0  0  0  0  0  0  0
   24.9471  -21.3363  -11.4230 C   0  0  1  0  0  0  0  0  0  0  0  0
   24.1052  -22.2903  -10.6402 C   0  0  0  0  0  0  0  0  0  0  0  0
   23.0265  -22.9252  -11.2395 O   0  0  0  0  0  0  0  0  0  0  0  0
   24.3143  -22.5673   -9.4323 O   0  0  0  0  0  0  0  0  0  0  0  0
  2  1  1  6
  3  2  1  0
  4  3  1  0
  4  5  1  0
  5  6  1  0
  6  7  1  0
  8  2  1  0
  8  9  2  0
 10 11  1  0
 11 12  2  0
 11 13  1  0
 13 14  1  0
 15 14  1  6
 15 16  1  0
 16  8  1  0
 17 15  1  0
 18 17  2  0
 19 17  1  0
 19 23  1  0
 20 19  1  0
 20 21  1  0
 21 22  1  0
 23 22  1  0
 24 25  1  0
 23 24  1  1
 26 24  2  0
M  END
$$$$
