KQP.pdb
     RDKit          3D

 26 26  0  0  1  0  0  0  0  0999 V2000
   43.9566  -11.6001   -7.1092 N   0  0  0  0  0  0  0  0  0  0  0  0
   43.2945  -10.6965   -7.9927 C   0  0  1  0  0  0  0  0  0  0  0  0
   42.7450  -11.4863   -9.1560 C   0  0  0  0  0  0  0  0  0  0  0  0
   43.9110  -12.0446   -9.9395 C   0  0  0  0  0  0  0  0  0  0  0  0
   44.0261  -11.3945  -11.3018 C   0  0  0  0  0  0  0  0  0  0  0  0
   45.1573  -12.0593  -12.0765 C   0  0  0  0  0  0  0  0  0  0  0  0
   45.2959  -11.5102  -13.3901 N   0  0  0  0  0  0  0  0  0  0  0  0
   42.3089   -9.8271   -7.3584 C   0  0  0  0  0  0  0  0  0  0  0  0
   41.2957  -10.3233   -6.8046 O   0  0  0  0  0  0  0  0  0  0  0  0
   42.6656   -4.8220   -3.9701 N   0  0  0  0  0  0  0  0  0  0  0  0
   41.2857   -4.6982   -4.3360 C   0  0  0  0  0  0  0  0  0  0  0  0
   40.5884   -3.8010   -3.8013 O   0  0  0  0  0  0  0  0  0  0  0  0
   40.7256   -5.6399   -5.3396 C   0  0  0  0  0  0  0  0  0  0  0  0
   41.8405   -6.5495   -5.7909 C   0  0  0  0  0  0  0  0  0  0  0  0
   41.3659   -7.5541   -6.8261 C   0  0  2  0  0  0  0  0  0  0  0  0
   42.4111   -8.3851   -7.3156 N   0  0  0  0  0  0  0  0  0  0  0  0
   40.6480   -6.8811   -7.9054 C   0  0  0  0  0  0  0  0  0  0  0  0
   41.3929   -6.6645   -8.9506 O   0  0  0  0  0  0  0  0  0  0  0  0
   39.3219   -6.4449   -7.9902 N   0  0  0  0  0  0  0  0  0  0  0  0
   38.3778   -6.5458   -6.8576 C   0  0  0  0  0  0  0  0  0  0  0  0
   37.0265   -6.7187   -7.4771 C   0  0  0  0  0  0  0  0  0  0  0  0
   37.2667   -6.7004   -8.9555 C   0  0  0  0  0  0  0  0  0  0  0  0
   38.5413   -5.8304   -9.0209 C   0  0  1  0  0  0  0  0  0  0  0  0
   38.1962   -4.4128   -8.7003 C   0  0  0  0  0  0  0  0  0  0  0  0
   37.7405   -3.5614   -9.6970 O   0  0  0  0  0  0  0  0  0  0  0  0
   38.2937   -3.9204   -7.5481 O   0  0  0  0  0  0  0  0  0  0  0  0
  2  1  1  1
  3  2  1  0
  4  3  1  0
  4  5  1  0
  5  6  1  0
  6  7  1  0
  8  2  1  0
  8  9  2  0
 10 11  1  0
 11 12  2  0
 11 13  1  0
 13 14  1  0
 15 14  1  1
 15 16  1  0
 16  8  1  0
 17 15  1  0
 18 17  2  0
 19 17  1  0
 19 23  1  0
 20 19  1  0
 20 21  1  0
 21 22  1  0
 23 22  1  0
 24 25  1  0
 23 24  1  1
 26 24  2  0
M  END
$$$$
