KQP.pdb
     RDKit          3D

 26 26  0  0  1  0  0  0  0  0999 V2000
   14.2994  -23.4419   -1.9286 N   0  0  0  0  0  0  0  0  0  0  0  0
   13.8657  -22.4866   -0.9619 C   0  0  1  0  0  0  0  0  0  0  0  0
   12.5585  -22.9632   -0.3762 C   0  0  0  0  0  0  0  0  0  0  0  0
   12.3872  -24.4225   -0.7309 C   0  0  0  0  0  0  0  0  0  0  0  0
   11.0343  -24.9442   -0.2957 C   0  0  0  0  0  0  0  0  0  0  0  0
   10.8944  -26.3954   -0.7386 C   0  0  0  0  0  0  0  0  0  0  0  0
    9.6292  -26.9463   -0.3616 N   0  0  0  0  0  0  0  0  0  0  0  0
   14.8627  -22.1326    0.0433 C   0  0  0  0  0  0  0  0  0  0  0  0
   15.9831  -22.7019    0.0463 O   0  0  0  0  0  0  0  0  0  0  0  0
   15.0655  -17.0545    3.7369 N   0  0  0  0  0  0  0  0  0  0  0  0
   16.2293  -17.7503    4.1999 C   0  0  0  0  0  0  0  0  0  0  0  0
   16.9805  -17.1962    5.0402 O   0  0  0  0  0  0  0  0  0  0  0  0
   16.5081  -19.1092    3.6675 C   0  0  0  0  0  0  0  0  0  0  0  0
   15.4390  -19.4361    2.6554 C   0  0  0  0  0  0  0  0  0  0  0  0
   15.6513  -20.8041    2.0314 C   0  0  2  0  0  0  0  0  0  0  0  0
   14.6541  -21.1406    1.0748 N   0  0  0  0  0  0  0  0  0  0  0  0
   15.7876  -21.8264    3.0656 C   0  0  0  0  0  0  0  0  0  0  0  0
   14.6810  -22.4758    3.2842 O   0  0  0  0  0  0  0  0  0  0  0  0
   16.8904  -22.2069    3.8369 N   0  0  0  0  0  0  0  0  0  0  0  0
   18.1909  -21.5083    3.7640 C   0  0  0  0  0  0  0  0  0  0  0  0
   19.2220  -22.5490    4.0698 C   0  0  0  0  0  0  0  0  0  0  0  0
   18.4488  -23.8085    4.3137 C   0  0  0  0  0  0  0  0  0  0  0  0
   17.1127  -23.2226    4.8209 C   0  0  1  0  0  0  0  0  0  0  0  0
   17.3034  -22.6533    6.1888 C   0  0  0  0  0  0  0  0  0  0  0  0
   17.2575  -23.4797    7.3028 O   0  0  0  0  0  0  0  0  0  0  0  0
   17.5102  -21.4332    6.4079 O   0  0  0  0  0  0  0  0  0  0  0  0
  2  1  1  6
  3  2  1  0
  4  3  1  0
  4  5  1  0
  5  6  1  0
  6  7  1  0
  8  2  1  0
  8  9  2  0
 10 11  1  0
 11 12  2  0
 11 13  1  0
 13 14  1  0
 15 14  1  1
 15 16  1  0
 16  8  1  0
 17 15  1  0
 18 17  2  0
 19 17  1  0
 19 23  1  0
 20 19  1  0
 20 21  1  0
 21 22  1  0
 23 22  1  0
 24 25  1  0
 23 24  1  1
 26 24  2  0
M  END
$$$$
