KQP.pdb
     RDKit          3D

 26 26  0  0  1  0  0  0  0  0999 V2000
   19.8969  -14.9685  -18.3094 N   0  0  0  0  0  0  0  0  0  0  0  0
   20.8847  -14.3442  -17.4909 C   0  0  1  0  0  0  0  0  0  0  0  0
   22.1664  -15.1332  -17.6076 C   0  0  0  0  0  0  0  0  0  0  0  0
   21.8223  -16.5221  -18.0947 C   0  0  0  0  0  0  0  0  0  0  0  0
   21.7149  -17.5022  -16.9460 C   0  0  0  0  0  0  0  0  0  0  0  0
   21.3209  -18.8688  -17.4928 C   0  0  0  0  0  0  0  0  0  0  0  0
   21.1780  -19.8373  -16.4498 N   0  0  0  0  0  0  0  0  0  0  0  0
   21.0561  -12.9128  -17.7173 C   0  0  0  0  0  0  0  0  0  0  0  0
   21.2812  -12.4814  -18.8760 O   0  0  0  0  0  0  0  0  0  0  0  0
   20.2314   -8.1267  -13.6614 N   0  0  0  0  0  0  0  0  0  0  0  0
   20.8876   -7.4481  -14.7394 C   0  0  0  0  0  0  0  0  0  0  0  0
   21.1868   -6.2355  -14.6080 O   0  0  0  0  0  0  0  0  0  0  0  0
   21.1923   -8.2060  -15.9805 C   0  0  0  0  0  0  0  0  0  0  0  0
   20.8396   -9.6517  -15.7362 C   0  0  0  0  0  0  0  0  0  0  0  0
   21.2218  -10.5329  -16.9124 C   0  0  2  0  0  0  0  0  0  0  0  0
   20.9845  -11.9146  -16.6732 N   0  0  0  0  0  0  0  0  0  0  0  0
   22.5996  -10.2752  -17.3227 C   0  0  0  0  0  0  0  0  0  0  0  0
   23.4517  -11.0938  -16.7769 O   0  0  0  0  0  0  0  0  0  0  0  0
   23.1328   -9.3131  -18.1865 N   0  0  0  0  0  0  0  0  0  0  0  0
   22.3082   -8.2512  -18.8002 C   0  0  0  0  0  0  0  0  0  0  0  0
   22.9549   -7.9525  -20.1163 C   0  0  0  0  0  0  0  0  0  0  0  0
   24.1394   -8.8665  -20.1886 C   0  0  0  0  0  0  0  0  0  0  0  0
   24.4474   -9.0444  -18.6855 C   0  0  1  0  0  0  0  0  0  0  0  0
   25.0122   -7.7748  -18.1371 C   0  0  0  0  0  0  0  0  0  0  0  0
   24.2267   -6.9407  -17.3540 O   0  0  0  0  0  0  0  0  0  0  0  0
   26.1927   -7.3965  -18.3438 O   0  0  0  0  0  0  0  0  0  0  0  0
  2  1  1  6
  3  2  1  0
  4  3  1  0
  4  5  1  0
  5  6  1  0
  6  7  1  0
  8  2  1  0
  8  9  2  0
 10 11  1  0
 11 12  2  0
 11 13  1  0
 13 14  1  0
 15 14  1  1
 15 16  1  0
 16  8  1  0
 17 15  1  0
 18 17  2  0
 19 17  1  0
 19 23  1  0
 20 19  1  0
 20 21  1  0
 21 22  1  0
 23 22  1  0
 24 25  1  0
 23 24  1  1
 26 24  2  0
M  END
$$$$
