KQP.pdb
     RDKit          3D

 26 26  0  0  1  0  0  0  0  0999 V2000
   15.0231  -20.9217    1.4559 N   0  0  0  0  0  0  0  0  0  0  0  0
   15.4653  -21.3848    2.7308 C   0  0  1  0  0  0  0  0  0  0  0  0
   15.9454  -22.8079    2.5791 C   0  0  0  0  0  0  0  0  0  0  0  0
   14.7739  -23.6564    2.1404 C   0  0  0  0  0  0  0  0  0  0  0  0
   15.2043  -25.0709    1.8151 C   0  0  0  0  0  0  0  0  0  0  0  0
   13.9864  -25.8724    1.3723 C   0  0  0  0  0  0  0  0  0  0  0  0
   14.3454  -27.1865    0.9357 N   0  0  0  0  0  0  0  0  0  0  0  0
   16.4227  -20.5129    3.4038 C   0  0  0  0  0  0  0  0  0  0  0  0
   17.4585  -20.1325    2.8022 O   0  0  0  0  0  0  0  0  0  0  0  0
   15.6192  -15.8292    7.1773 N   0  0  0  0  0  0  0  0  0  0  0  0
   17.0395  -15.9588    7.3152 C   0  0  0  0  0  0  0  0  0  0  0  0
   17.6806  -15.0628    7.9181 O   0  0  0  0  0  0  0  0  0  0  0  0
   17.7072  -17.1539    6.7377 C   0  0  0  0  0  0  0  0  0  0  0  0
   16.6506  -17.9900    6.0604 C   0  0  0  0  0  0  0  0  0  0  0  0
   17.2418  -19.2270    5.4074 C   0  0  2  0  0  0  0  0  0  0  0  0
   16.2667  -20.0347    4.7597 N   0  0  0  0  0  0  0  0  0  0  0  0
   18.0345  -19.9882    6.3695 C   0  0  0  0  0  0  0  0  0  0  0  0
   17.4045  -21.0283    6.8338 O   0  0  0  0  0  0  0  0  0  0  0  0
   19.3288  -19.7810    6.8567 N   0  0  0  0  0  0  0  0  0  0  0  0
   20.1659  -18.6401    6.4300 C   0  0  0  0  0  0  0  0  0  0  0  0
   21.5787  -19.1266    6.5144 C   0  0  0  0  0  0  0  0  0  0  0  0
   21.4793  -20.5402    6.9995 C   0  0  0  0  0  0  0  0  0  0  0  0
   20.1590  -20.4695    7.7980 C   0  0  1  0  0  0  0  0  0  0  0  0
   20.3723  -19.6799    9.0481 C   0  0  0  0  0  0  0  0  0  0  0  0
   20.8635  -20.2972   10.1899 O   0  0  0  0  0  0  0  0  0  0  0  0
   20.1285  -18.4505    9.1400 O   0  0  0  0  0  0  0  0  0  0  0  0
  2  1  1  6
  3  2  1  0
  4  3  1  0
  4  5  1  0
  5  6  1  0
  6  7  1  0
  8  2  1  0
  8  9  2  0
 10 11  1  0
 11 12  2  0
 11 13  1  0
 13 14  1  0
 15 14  1  1
 15 16  1  0
 16  8  1  0
 17 15  1  0
 18 17  2  0
 19 17  1  0
 19 23  1  0
 20 19  1  0
 20 21  1  0
 21 22  1  0
 23 22  1  0
 24 25  1  0
 23 24  1  1
 26 24  2  0
M  END
$$$$
