KQP.pdb
     RDKit          3D

 26 26  0  0  1  0  0  0  0  0999 V2000
   15.0107  -11.0785  -13.4437 N   0  0  0  0  0  0  0  0  0  0  0  0
   16.3243  -10.7165  -13.8666 C   0  0  1  0  0  0  0  0  0  0  0  0
   16.6151  -11.4211  -15.1695 C   0  0  0  0  0  0  0  0  0  0  0  0
   16.9137  -12.8712  -14.8648 C   0  0  0  0  0  0  0  0  0  0  0  0
   17.2193  -13.6516  -16.1255 C   0  0  0  0  0  0  0  0  0  0  0  0
   17.5927  -15.0800  -15.7486 C   0  0  0  0  0  0  0  0  0  0  0  0
   16.9861  -15.4800  -14.5163 N   0  0  0  0  0  0  0  0  0  0  0  0
   16.5836   -9.2809  -13.9073 C   0  0  0  0  0  0  0  0  0  0  0  0
   15.9445   -8.5483  -14.7037 O   0  0  0  0  0  0  0  0  0  0  0  0
   18.1221   -5.0217  -10.1078 N   0  0  0  0  0  0  0  0  0  0  0  0
   17.4456   -6.2468   -9.7999 C   0  0  0  0  0  0  0  0  0  0  0  0
   17.3121   -6.5875   -8.5986 O   0  0  0  0  0  0  0  0  0  0  0  0
   16.9234   -7.0748  -10.9177 C   0  0  0  0  0  0  0  0  0  0  0  0
   17.2052   -6.3419  -12.2051 C   0  0  0  0  0  0  0  0  0  0  0  0
   17.8854   -7.2360  -13.2269 C   0  0  2  0  0  0  0  0  0  0  0  0
   17.5550   -8.6106  -13.0715 N   0  0  0  0  0  0  0  0  0  0  0  0
   19.3291   -7.0146  -13.2250 C   0  0  0  0  0  0  0  0  0  0  0  0
   19.9777   -7.9110  -12.5396 O   0  0  0  0  0  0  0  0  0  0  0  0
   20.1030   -6.0178  -13.8278 N   0  0  0  0  0  0  0  0  0  0  0  0
   19.5060   -4.8851  -14.5662 C   0  0  0  0  0  0  0  0  0  0  0  0
   20.5050   -4.5235  -15.6202 C   0  0  0  0  0  0  0  0  0  0  0  0
   21.6443   -5.4761  -15.4253 C   0  0  0  0  0  0  0  0  0  0  0  0
   21.5098   -5.7675  -13.9144 C   0  0  1  0  0  0  0  0  0  0  0  0
   21.9191   -4.5611  -13.1342 C   0  0  0  0  0  0  0  0  0  0  0  0
   23.2548   -4.3499  -12.8224 O   0  0  0  0  0  0  0  0  0  0  0  0
   21.1073   -3.6929  -12.7259 O   0  0  0  0  0  0  0  0  0  0  0  0
  2  1  1  6
  3  2  1  0
  4  3  1  0
  4  5  1  0
  5  6  1  0
  6  7  1  0
  8  2  1  0
  8  9  2  0
 10 11  1  0
 11 12  2  0
 11 13  1  0
 13 14  1  0
 15 14  1  1
 15 16  1  0
 16  8  1  0
 17 15  1  0
 18 17  2  0
 19 17  1  0
 19 23  1  0
 20 19  1  0
 20 21  1  0
 21 22  1  0
 23 22  1  0
 24 25  1  0
 23 24  1  1
 26 24  2  0
M  END
$$$$
