TWE.pdb
     RDKit          3D

 31 32  0  0  1  0  0  0  0  0999 V2000
   27.9367  -18.0480  -13.9686 C   0  0  0  0  0  0  0  0  0  0  0  0
   28.1640  -19.0594  -15.0693 C   0  0  1  0  0  0  0  0  0  0  0  0
   29.0173  -18.5522  -16.0324 O   0  0  0  0  0  0  0  0  0  0  0  0
   28.7466  -20.3066  -14.4544 C   0  0  2  0  0  0  0  0  0  0  0  0
   28.9260  -21.2614  -15.5533 N   0  0  0  0  0  0  0  0  0  0  0  0
   27.7584  -20.8685  -13.5031 C   0  0  0  0  0  0  0  0  0  0  0  0
   26.7109  -21.4444  -13.9552 O   0  0  0  0  0  0  0  0  0  0  0  0
   27.9721  -20.7705  -12.1144 N   0  0  0  0  0  0  0  0  0  0  0  0
   26.9933  -21.3576  -11.2027 C   0  0  1  0  0  0  0  0  0  0  0  0
   27.6800  -21.5421   -9.9046 C   0  0  0  0  0  0  0  0  0  0  0  0
   27.1658  -20.7781   -8.7643 C   0  0  0  0  0  0  0  0  0  0  0  0
   25.9452  -20.1181   -8.6701 C   0  0  0  0  0  0  0  0  0  0  0  0
   25.8356  -19.5046   -7.4814 N   0  0  0  0  0  0  0  0  0  0  0  0
   26.9686  -19.7494   -6.7845 C   0  0  0  0  0  0  0  0  0  0  0  0
   27.3712  -19.3761   -5.5233 C   0  0  0  0  0  0  0  0  0  0  0  0
   28.5916  -19.7632   -4.9989 C   0  0  0  0  0  0  0  0  0  0  0  0
   29.4289  -20.5501   -5.7715 C   0  0  0  0  0  0  0  0  0  0  0  0
   29.0164  -20.9146   -7.0257 C   0  0  0  0  0  0  0  0  0  0  0  0
   27.7954  -20.5339   -7.5663 C   0  0  0  0  0  0  0  0  0  0  0  0
   25.7124  -20.6836  -11.2380 C   0  0  0  0  0  0  0  0  0  0  0  0
   25.7342  -19.4016  -11.2220 O   0  0  0  0  0  0  0  0  0  0  0  0
   24.4804  -21.3408  -11.2869 N   0  0  0  0  0  0  0  0  0  0  0  0
   23.3077  -20.6528  -11.8169 C   0  0  1  0  0  0  0  0  0  0  0  0
   23.0349  -21.1455  -13.2072 C   0  0  0  0  0  0  0  0  0  0  0  0
   21.8285  -20.5754  -13.8657 C   0  0  0  0  0  0  0  0  0  0  0  0
   21.1186  -21.6757  -14.5991 C   0  0  0  0  0  0  0  0  0  0  0  0
   21.7565  -22.7112  -14.9032 O   0  0  0  0  0  0  0  0  0  0  0  0
   22.1622  -20.7582  -10.8937 C   0  0  0  0  0  0  0  0  0  0  0  0
   22.1378  -21.5878   -9.9288 O   0  0  0  0  0  0  0  0  0  0  0  0
   19.7853  -21.5887  -14.9522 O   0  0  0  0  0  0  0  0  0  0  0  0
   21.0434  -19.9556  -11.0248 O   0  0  0  0  0  0  0  0  0  0  0  0
  2  3  1  0
  2  1  1  1
  4  6  1  0
  4  2  1  0
  4  5  1  6
  6  7  2  0
  8  6  1  0
  8  9  1  0
  9 10  1  1
 11 10  1  0
 11 12  2  0
 13 12  1  0
 14 19  2  0
 14 13  1  0
 15 14  1  0
 16 15  2  0
 17 16  1  0
 17 18  2  0
 18 19  1  0
 19 11  1  0
 20 21  2  0
 20  9  1  0
 22 20  1  0
 23 22  1  0
 23 24  1  6
 25 24  1  0
 26 25  1  0
 27 26  2  0
 28 31  1  0
 28 23  1  0
 29 28  2  0
 30 26  1  0
M  END
$$$$
