TWE.pdb
     RDKit          3D

 31 32  0  0  1  0  0  0  0  0999 V2000
   26.9290  -19.6109  -15.7513 C   0  0  0  0  0  0  0  0  0  0  0  0
   27.9584  -19.0022  -14.8261 C   0  0  1  0  0  0  0  0  0  0  0  0
   27.4167  -17.9450  -14.1178 O   0  0  0  0  0  0  0  0  0  0  0  0
   28.4414  -20.0748  -13.8831 C   0  0  2  0  0  0  0  0  0  0  0  0
   28.9741  -21.1521  -14.7240 N   0  0  0  0  0  0  0  0  0  0  0  0
   27.2770  -20.6005  -13.1314 C   0  0  0  0  0  0  0  0  0  0  0  0
   26.6028  -21.5706  -13.6188 O   0  0  0  0  0  0  0  0  0  0  0  0
   26.9175  -20.0376  -11.8913 N   0  0  0  0  0  0  0  0  0  0  0  0
   25.8313  -20.6435  -11.1253 C   0  0  1  0  0  0  0  0  0  0  0  0
   26.0331  -20.2444   -9.7144 C   0  0  0  0  0  0  0  0  0  0  0  0
   27.3281  -20.5683   -9.1091 C   0  0  0  0  0  0  0  0  0  0  0  0
   28.3474  -21.3407   -9.6558 C   0  0  0  0  0  0  0  0  0  0  0  0
   29.3731  -21.4383   -8.7956 N   0  0  0  0  0  0  0  0  0  0  0  0
   29.0478  -20.7395   -7.6842 C   0  0  0  0  0  0  0  0  0  0  0  0
   29.7317  -20.5014   -6.5147 C   0  0  0  0  0  0  0  0  0  0  0  0
   29.1991  -19.7280   -5.4987 C   0  0  0  0  0  0  0  0  0  0  0  0
   27.9392  -19.1796   -5.6698 C   0  0  0  0  0  0  0  0  0  0  0  0
   27.2686  -19.4247   -6.8387 C   0  0  0  0  0  0  0  0  0  0  0  0
   27.7890  -20.1989   -7.8672 C   0  0  0  0  0  0  0  0  0  0  0  0
   24.5331  -20.4530  -11.7374 C   0  0  0  0  0  0  0  0  0  0  0  0
   24.2587  -19.2714  -12.1529 O   0  0  0  0  0  0  0  0  0  0  0  0
   23.5836  -21.4657  -11.8960 N   0  0  0  0  0  0  0  0  0  0  0  0
   22.3508  -21.2007  -12.6306 C   0  0  1  0  0  0  0  0  0  0  0  0
   21.9388  -22.4424  -13.3642 C   0  0  0  0  0  0  0  0  0  0  0  0
   20.6758  -22.3386  -14.1441 C   0  0  0  0  0  0  0  0  0  0  0  0
   20.4110  -23.6602  -14.8043 C   0  0  0  0  0  0  0  0  0  0  0  0
   20.0891  -24.6399  -14.0914 O   0  0  0  0  0  0  0  0  0  0  0  0
   21.3120  -20.6372  -11.7479 C   0  0  0  0  0  0  0  0  0  0  0  0
   21.2692  -20.8847  -10.5002 O   0  0  0  0  0  0  0  0  0  0  0  0
   20.5093  -23.8368  -16.1715 O   0  0  0  0  0  0  0  0  0  0  0  0
   20.3202  -19.8020  -12.2293 O   0  0  0  0  0  0  0  0  0  0  0  0
  2  3  1  0
  2  1  1  6
  4  6  1  0
  4  2  1  0
  4  5  1  6
  6  7  2  0
  8  6  1  0
  8  9  1  0
  9 10  1  1
 11 10  1  0
 11 12  2  0
 13 12  1  0
 14 19  2  0
 14 13  1  0
 15 14  1  0
 16 15  2  0
 17 16  1  0
 17 18  2  0
 18 19  1  0
 19 11  1  0
 20 21  2  0
 20  9  1  0
 22 20  1  0
 23 22  1  0
 23 24  1  1
 25 24  1  0
 26 25  1  0
 27 26  2  0
 28 31  1  0
 28 23  1  0
 29 28  2  0
 30 26  1  0
M  END
$$$$
