TWE.pdb
     RDKit          3D

 31 32  0  0  1  0  0  0  0  0999 V2000
   28.6879  -18.5997  -16.0993 C   0  0  0  0  0  0  0  0  0  0  0  0
   27.8246  -19.1430  -14.9832 C   0  0  1  0  0  0  0  0  0  0  0  0
   26.5179  -19.3026  -15.4074 O   0  0  0  0  0  0  0  0  0  0  0  0
   28.3990  -20.4646  -14.5399 C   0  0  2  0  0  0  0  0  0  0  0  0
   28.1437  -21.4106  -15.6313 N   0  0  0  0  0  0  0  0  0  0  0  0
   27.6571  -20.9222  -13.3410 C   0  0  0  0  0  0  0  0  0  0  0  0
   26.5440  -21.5327  -13.4882 O   0  0  0  0  0  0  0  0  0  0  0  0
   28.1741  -20.6883  -12.0518 N   0  0  0  0  0  0  0  0  0  0  0  0
   27.3124  -20.9029  -10.8920 C   0  0  1  0  0  0  0  0  0  0  0  0
   28.1138  -20.5538   -9.6977 C   0  0  0  0  0  0  0  0  0  0  0  0
   27.4008  -20.4619   -8.4204 C   0  0  0  0  0  0  0  0  0  0  0  0
   26.0312  -20.5758   -8.2065 C   0  0  0  0  0  0  0  0  0  0  0  0
   25.7454  -20.4089   -6.9058 N   0  0  0  0  0  0  0  0  0  0  0  0
   26.9087  -20.1860   -6.2528 C   0  0  0  0  0  0  0  0  0  0  0  0
   27.1902  -19.9675   -4.9242 C   0  0  0  0  0  0  0  0  0  0  0  0
   28.4831  -19.7754   -4.4709 C   0  0  0  0  0  0  0  0  0  0  0  0
   29.5212  -19.8050   -5.3868 C   0  0  0  0  0  0  0  0  0  0  0  0
   29.2275  -20.0229   -6.7068 C   0  0  0  0  0  0  0  0  0  0  0  0
   27.9356  -20.2168   -7.1773 C   0  0  0  0  0  0  0  0  0  0  0  0
   25.9933  -20.3282  -11.0538 C   0  0  0  0  0  0  0  0  0  0  0  0
   25.9390  -19.0808  -11.3456 O   0  0  0  0  0  0  0  0  0  0  0  0
   24.8020  -21.0444  -10.9116 N   0  0  0  0  0  0  0  0  0  0  0  0
   23.5342  -20.4348  -11.2995 C   0  0  1  0  0  0  0  0  0  0  0  0
   23.1694  -20.8945  -12.6799 C   0  0  0  0  0  0  0  0  0  0  0  0
   21.8460  -20.4348  -13.1813 C   0  0  0  0  0  0  0  0  0  0  0  0
   21.5512  -21.1423  -14.4717 C   0  0  0  0  0  0  0  0  0  0  0  0
   22.5081  -21.5326  -15.1813 O   0  0  0  0  0  0  0  0  0  0  0  0
   22.4936  -20.6688  -10.2807 C   0  0  0  0  0  0  0  0  0  0  0  0
   22.6431  -21.5039   -9.3320 O   0  0  0  0  0  0  0  0  0  0  0  0
   20.2610  -21.3796  -14.9069 O   0  0  0  0  0  0  0  0  0  0  0  0
   21.2894  -19.9886  -10.2984 O   0  0  0  0  0  0  0  0  0  0  0  0
  2  3  1  0
  2  1  1  6
  4  6  1  0
  4  2  1  0
  4  5  1  6
  6  7  2  0
  8  6  1  0
  8  9  1  0
  9 10  1  1
 11 10  1  0
 11 12  2  0
 13 12  1  0
 14 19  2  0
 14 13  1  0
 15 14  1  0
 16 15  2  0
 17 16  1  0
 17 18  2  0
 18 19  1  0
 19 11  1  0
 20 21  2  0
 20  9  1  0
 22 20  1  0
 23 22  1  0
 23 24  1  6
 25 24  1  0
 26 25  1  0
 27 26  2  0
 28 31  1  0
 28 23  1  0
 29 28  2  0
 30 26  1  0
M  END
$$$$
