TWE.pdb
     RDKit          3D

 31 32  0  0  1  0  0  0  0  0999 V2000
   22.0460   -7.9504  -21.6517 C   0  0  0  0  0  0  0  0  0  0  0  0
   22.2617   -9.4123  -21.3316 C   0  0  1  0  0  0  0  0  0  0  0  0
   22.0935  -10.1916  -22.4618 O   0  0  0  0  0  0  0  0  0  0  0  0
   23.6560   -9.5766  -20.7820 C   0  0  2  0  0  0  0  0  0  0  0  0
   23.8285  -11.0094  -20.5204 N   0  0  0  0  0  0  0  0  0  0  0  0
   23.7422   -8.8518  -19.4919 C   0  0  0  0  0  0  0  0  0  0  0  0
   23.1354   -9.3194  -18.4689 O   0  0  0  0  0  0  0  0  0  0  0  0
   24.4867   -7.6602  -19.3934 N   0  0  0  0  0  0  0  0  0  0  0  0
   24.5307   -6.9547  -18.1150 C   0  0  1  0  0  0  0  0  0  0  0  0
   25.9531   -6.6406  -17.8527 C   0  0  0  0  0  0  0  0  0  0  0  0
   26.8003   -7.7368  -17.3743 C   0  0  0  0  0  0  0  0  0  0  0  0
   28.1054   -8.0262  -17.7582 C   0  0  0  0  0  0  0  0  0  0  0  0
   28.5469   -9.1240  -17.1246 N   0  0  0  0  0  0  0  0  0  0  0  0
   27.5510   -9.5671  -16.3239 C   0  0  0  0  0  0  0  0  0  0  0  0
   27.4731  -10.6323  -15.4571 C   0  0  0  0  0  0  0  0  0  0  0  0
   26.3355  -10.8902  -14.7132 C   0  0  0  0  0  0  0  0  0  0  0  0
   25.2454  -10.0473  -14.8495 C   0  0  0  0  0  0  0  0  0  0  0  0
   25.3356   -8.9907  -15.7164 C   0  0  0  0  0  0  0  0  0  0  0  0
   26.4697   -8.7189  -16.4701 C   0  0  0  0  0  0  0  0  0  0  0  0
   23.5419   -5.9018  -18.0160 C   0  0  0  0  0  0  0  0  0  0  0  0
   23.4704   -5.0828  -19.0001 O   0  0  0  0  0  0  0  0  0  0  0  0
   22.6803   -5.7334  -16.9290 N   0  0  0  0  0  0  0  0  0  0  0  0
   21.6428   -4.7082  -16.9731 C   0  0  1  0  0  0  0  0  0  0  0  0
   20.4646   -5.1658  -16.1653 C   0  0  0  0  0  0  0  0  0  0  0  0
   19.3372   -4.1994  -16.0693 C   0  0  0  0  0  0  0  0  0  0  0  0
   18.0850   -4.9565  -15.7357 C   0  0  0  0  0  0  0  0  0  0  0  0
   18.1594   -6.1913  -15.5324 O   0  0  0  0  0  0  0  0  0  0  0  0
   22.1766   -3.3890  -16.5854 C   0  0  0  0  0  0  0  0  0  0  0  0
   21.9614   -2.3379  -17.2700 O   0  0  0  0  0  0  0  0  0  0  0  0
   16.8510   -4.3410  -15.6442 O   0  0  0  0  0  0  0  0  0  0  0  0
   22.9450   -3.2187  -15.4480 O   0  0  0  0  0  0  0  0  0  0  0  0
  2  3  1  0
  2  1  1  6
  4  6  1  0
  4  2  1  0
  4  5  1  1
  6  7  2  0
  8  6  1  0
  8  9  1  0
  9 10  1  6
 11 10  1  0
 11 12  2  0
 13 12  1  0
 14 19  2  0
 14 13  1  0
 15 14  1  0
 16 15  2  0
 17 16  1  0
 17 18  2  0
 18 19  1  0
 19 11  1  0
 20 21  2  0
 20  9  1  0
 22 20  1  0
 23 22  1  0
 23 24  1  1
 25 24  1  0
 26 25  1  0
 27 26  2  0
 28 31  1  0
 28 23  1  0
 29 28  2  0
 30 26  1  0
M  END
$$$$
