TWE.pdb
     RDKit          3D

 31 32  0  0  1  0  0  0  0  0999 V2000
   27.5587  -17.9966  -13.6868 C   0  0  0  0  0  0  0  0  0  0  0  0
   27.9312  -18.9041  -14.8373 C   0  0  1  0  0  0  0  0  0  0  0  0
   28.7760  -18.2555  -15.7196 O   0  0  0  0  0  0  0  0  0  0  0  0
   28.6003  -20.1325  -14.2749 C   0  0  2  0  0  0  0  0  0  0  0  0
   28.9316  -20.9825  -15.4234 N   0  0  0  0  0  0  0  0  0  0  0  0
   27.6231  -20.8541  -13.4254 C   0  0  0  0  0  0  0  0  0  0  0  0
   26.7386  -21.5931  -13.9775 O   0  0  0  0  0  0  0  0  0  0  0  0
   27.6693  -20.7280  -12.0233 N   0  0  0  0  0  0  0  0  0  0  0  0
   26.6437  -21.3859  -11.2176 C   0  0  1  0  0  0  0  0  0  0  0  0
   27.2882  -21.7698   -9.9417 C   0  0  0  0  0  0  0  0  0  0  0  0
   27.1125  -20.8599   -8.8062 C   0  0  0  0  0  0  0  0  0  0  0  0
   26.1520  -19.8644   -8.6612 C   0  0  0  0  0  0  0  0  0  0  0  0
   26.3210  -19.2173   -7.4975 N   0  0  0  0  0  0  0  0  0  0  0  0
   27.3817  -19.7713   -6.8673 C   0  0  0  0  0  0  0  0  0  0  0  0
   27.9732  -19.5042   -5.6544 C   0  0  0  0  0  0  0  0  0  0  0  0
   29.0618  -20.2242   -5.1955 C   0  0  0  0  0  0  0  0  0  0  0  0
   29.5671  -21.2433   -5.9851 C   0  0  0  0  0  0  0  0  0  0  0  0
   28.9694  -21.4988   -7.1907 C   0  0  0  0  0  0  0  0  0  0  0  0
   27.8770  -20.7852   -7.6655 C   0  0  0  0  0  0  0  0  0  0  0  0
   25.3931  -20.6568  -11.1892 C   0  0  0  0  0  0  0  0  0  0  0  0
   25.4698  -19.3845  -11.0494 O   0  0  0  0  0  0  0  0  0  0  0  0
   24.1343  -21.2524  -11.3031 N   0  0  0  0  0  0  0  0  0  0  0  0
   22.9551  -20.4253  -11.5374 C   0  0  1  0  0  0  0  0  0  0  0  0
   23.1682  -19.6041  -12.7744 C   0  0  0  0  0  0  0  0  0  0  0  0
   23.2677  -20.3713  -14.0455 C   0  0  0  0  0  0  0  0  0  0  0  0
   22.2862  -19.8005  -15.0270 C   0  0  0  0  0  0  0  0  0  0  0  0
   21.4035  -19.0125  -14.6128 O   0  0  0  0  0  0  0  0  0  0  0  0
   21.7241  -21.2380  -11.5458 C   0  0  0  0  0  0  0  0  0  0  0  0
   21.7409  -22.5000  -11.7093 O   0  0  0  0  0  0  0  0  0  0  0  0
   22.3201  -20.1124  -16.3730 O   0  0  0  0  0  0  0  0  0  0  0  0
   20.4744  -20.6707  -11.3744 O   0  0  0  0  0  0  0  0  0  0  0  0
  2  3  1  0
  2  1  1  1
  4  6  1  0
  4  2  1  0
  4  5  1  6
  6  7  2  0
  8  6  1  0
  8  9  1  0
  9 10  1  1
 11 10  1  0
 11 12  2  0
 13 12  1  0
 14 19  2  0
 14 13  1  0
 15 14  1  0
 16 15  2  0
 17 16  1  0
 17 18  2  0
 18 19  1  0
 19 11  1  0
 20 21  2  0
 20  9  1  0
 22 20  1  0
 23 22  1  0
 23 24  1  6
 25 24  1  0
 26 25  1  0
 27 26  2  0
 28 31  1  0
 28 23  1  0
 29 28  2  0
 30 26  1  0
M  END
$$$$
