TWE.pdb
     RDKit          3D

 31 32  0  0  1  0  0  0  0  0999 V2000
   27.5632  -15.7735  -18.3543 C   0  0  0  0  0  0  0  0  0  0  0  0
   26.8473  -16.8109  -17.5191 C   0  0  1  0  0  0  0  0  0  0  0  0
   25.8094  -17.3831  -18.2320 O   0  0  0  0  0  0  0  0  0  0  0  0
   27.8472  -17.8626  -17.1100 C   0  0  2  0  0  0  0  0  0  0  0  0
   28.2628  -18.5370  -18.3444 N   0  0  0  0  0  0  0  0  0  0  0  0
   27.1625  -18.8519  -16.2442 C   0  0  0  0  0  0  0  0  0  0  0  0
   26.7804  -19.9641  -16.7446 O   0  0  0  0  0  0  0  0  0  0  0  0
   26.9365  -18.5703  -14.8827 N   0  0  0  0  0  0  0  0  0  0  0  0
   26.3089  -19.5871  -14.0425 C   0  0  1  0  0  0  0  0  0  0  0  0
   26.9427  -19.4856  -12.7089 C   0  0  0  0  0  0  0  0  0  0  0  0
   26.4765  -20.4164  -11.6770 C   0  0  0  0  0  0  0  0  0  0  0  0
   26.1997  -21.7715  -11.8234 C   0  0  0  0  0  0  0  0  0  0  0  0
   25.7683  -22.2890  -10.6626 N   0  0  0  0  0  0  0  0  0  0  0  0
   25.7558  -21.2941   -9.7465 C   0  0  0  0  0  0  0  0  0  0  0  0
   25.4172  -21.2758   -8.4134 C   0  0  0  0  0  0  0  0  0  0  0  0
   25.4979  -20.1232   -7.6524 C   0  0  0  0  0  0  0  0  0  0  0  0
   25.9333  -18.9556   -8.2562 C   0  0  0  0  0  0  0  0  0  0  0  0
   26.2669  -18.9871   -9.5843 C   0  0  0  0  0  0  0  0  0  0  0  0
   26.1908  -20.1353  -10.3615 C   0  0  0  0  0  0  0  0  0  0  0  0
   24.8645  -19.5908  -14.1429 C   0  0  0  0  0  0  0  0  0  0  0  0
   24.2871  -18.4474  -14.2003 O   0  0  0  0  0  0  0  0  0  0  0  0
   24.0830  -20.7484  -14.1794 N   0  0  0  0  0  0  0  0  0  0  0  0
   22.6281  -20.6476  -14.1285 C   0  0  1  0  0  0  0  0  0  0  0  0
   22.0281  -21.8668  -14.7639 C   0  0  0  0  0  0  0  0  0  0  0  0
   20.5420  -21.9387  -14.7392 C   0  0  0  0  0  0  0  0  0  0  0  0
   20.0137  -21.3631  -16.0206 C   0  0  0  0  0  0  0  0  0  0  0  0
   19.4866  -20.2259  -16.0023 O   0  0  0  0  0  0  0  0  0  0  0  0
   22.1577  -20.3770  -12.7569 C   0  0  0  0  0  0  0  0  0  0  0  0
   22.6819  -20.9257  -11.7352 O   0  0  0  0  0  0  0  0  0  0  0  0
   20.0873  -22.0423  -17.2220 O   0  0  0  0  0  0  0  0  0  0  0  0
   21.1144  -19.5053  -12.5023 O   0  0  0  0  0  0  0  0  0  0  0  0
  2  3  1  0
  2  1  1  6
  4  6  1  0
  4  2  1  0
  4  5  1  6
  6  7  2  0
  8  6  1  0
  8  9  1  0
  9 10  1  1
 11 10  1  0
 11 12  2  0
 13 12  1  0
 14 19  2  0
 14 13  1  0
 15 14  1  0
 16 15  2  0
 17 16  1  0
 17 18  2  0
 18 19  1  0
 19 11  1  0
 20 21  2  0
 20  9  1  0
 22 20  1  0
 23 22  1  0
 23 24  1  1
 25 24  1  0
 26 25  1  0
 27 26  2  0
 28 31  1  0
 28 23  1  0
 29 28  2  0
 30 26  1  0
M  END
$$$$
