TWE.pdb
     RDKit          3D

 31 32  0  0  1  0  0  0  0  0999 V2000
   31.9957  -28.6920  -21.5470 C   0  0  0  0  0  0  0  0  0  0  0  0
   33.3046  -28.7382  -20.7917 C   0  0  1  0  0  0  0  0  0  0  0  0
   34.2069  -27.8322  -21.3186 O   0  0  0  0  0  0  0  0  0  0  0  0
   33.0277  -28.4234  -19.3435 C   0  0  2  0  0  0  0  0  0  0  0  0
   34.3154  -28.5215  -18.6480 N   0  0  0  0  0  0  0  0  0  0  0  0
   32.1222  -29.4636  -18.8001 C   0  0  0  0  0  0  0  0  0  0  0  0
   32.5712  -30.6434  -18.6012 O   0  0  0  0  0  0  0  0  0  0  0  0
   30.7801  -29.1547  -18.5042 N   0  0  0  0  0  0  0  0  0  0  0  0
   29.8767  -30.2300  -18.1024 C   0  0  1  0  0  0  0  0  0  0  0  0
   29.5432  -29.9944  -16.6798 C   0  0  0  0  0  0  0  0  0  0  0  0
   28.5477  -30.8826  -16.0728 C   0  0  0  0  0  0  0  0  0  0  0  0
   27.1984  -30.6204  -15.8604 C   0  0  0  0  0  0  0  0  0  0  0  0
   26.6088  -31.6633  -15.2553 N   0  0  0  0  0  0  0  0  0  0  0  0
   27.5500  -32.6155  -15.0637 C   0  0  0  0  0  0  0  0  0  0  0  0
   27.4870  -33.8718  -14.5070 C   0  0  0  0  0  0  0  0  0  0  0  0
   28.5960  -34.6953  -14.4290 C   0  0  0  0  0  0  0  0  0  0  0  0
   29.8032  -34.2357  -14.9278 C   0  0  0  0  0  0  0  0  0  0  0  0
   29.8526  -32.9828  -15.4791 C   0  0  0  0  0  0  0  0  0  0  0  0
   28.7490  -32.1444  -15.5643 C   0  0  0  0  0  0  0  0  0  0  0  0
   28.8084  -30.4557  -19.0533 C   0  0  0  0  0  0  0  0  0  0  0  0
   28.2764  -29.4154  -19.5813 O   0  0  0  0  0  0  0  0  0  0  0  0
   28.3361  -31.7190  -19.4182 N   0  0  0  0  0  0  0  0  0  0  0  0
   27.2957  -31.8428  -20.4340 C   0  0  1  0  0  0  0  0  0  0  0  0
   27.0565  -33.2961  -20.7185 C   0  0  0  0  0  0  0  0  0  0  0  0
   26.1518  -33.5861  -21.8636 C   0  0  0  0  0  0  0  0  0  0  0  0
   26.0166  -35.0744  -22.0017 C   0  0  0  0  0  0  0  0  0  0  0  0
   25.0470  -35.5376  -22.6474 O   0  0  0  0  0  0  0  0  0  0  0  0
   26.0874  -31.0850  -20.0580 C   0  0  0  0  0  0  0  0  0  0  0  0
   25.5663  -31.1626  -18.8994 O   0  0  0  0  0  0  0  0  0  0  0  0
   26.9236  -35.9543  -21.4419 O   0  0  0  0  0  0  0  0  0  0  0  0
   25.4490  -30.2412  -20.9488 O   0  0  0  0  0  0  0  0  0  0  0  0
  2  3  1  0
  2  1  1  6
  4  6  1  0
  4  2  1  0
  4  5  1  1
  6  7  2  0
  8  6  1  0
  8  9  1  0
  9 10  1  1
 11 10  1  0
 11 12  2  0
 13 12  1  0
 14 19  2  0
 14 13  1  0
 15 14  1  0
 16 15  2  0
 17 16  1  0
 17 18  2  0
 18 19  1  0
 19 11  1  0
 20 21  2  0
 20  9  1  0
 22 20  1  0
 23 22  1  0
 23 24  1  1
 25 24  1  0
 26 25  1  0
 27 26  2  0
 28 31  1  0
 28 23  1  0
 29 28  2  0
 30 26  1  0
M  END
$$$$
