TWE.pdb
     RDKit          3D

 31 32  0  0  1  0  0  0  0  0999 V2000
   19.6543  -22.4081  -13.1086 C   0  0  0  0  0  0  0  0  0  0  0  0
   21.0570  -21.9687  -13.4631 C   0  0  1  0  0  0  0  0  0  0  0  0
   21.0885  -21.3992  -14.7231 O   0  0  0  0  0  0  0  0  0  0  0  0
   21.5197  -20.9772  -12.4259 C   0  0  2  0  0  0  0  0  0  0  0  0
   20.7696  -19.7416  -12.6749 N   0  0  0  0  0  0  0  0  0  0  0  0
   22.9596  -20.7027  -12.6459 C   0  0  0  0  0  0  0  0  0  0  0  0
   23.3138  -19.5847  -13.1538 O   0  0  0  0  0  0  0  0  0  0  0  0
   23.9287  -21.6637  -12.2974 N   0  0  0  0  0  0  0  0  0  0  0  0
   25.3405  -21.3593  -12.5161 C   0  0  1  0  0  0  0  0  0  0  0  0
   26.0884  -21.9979  -11.4100 C   0  0  0  0  0  0  0  0  0  0  0  0
   26.2428  -21.2231  -10.1754 C   0  0  0  0  0  0  0  0  0  0  0  0
   25.2447  -20.5830   -9.4485 C   0  0  0  0  0  0  0  0  0  0  0  0
   25.7708  -19.9506   -8.3879 N   0  0  0  0  0  0  0  0  0  0  0  0
   27.1064  -20.1634   -8.4011 C   0  0  0  0  0  0  0  0  0  0  0  0
   28.1101  -19.7609   -7.5511 C   0  0  0  0  0  0  0  0  0  0  0  0
   29.4311  -20.1173   -7.7561 C   0  0  0  0  0  0  0  0  0  0  0  0
   29.7466  -20.9030   -8.8518 C   0  0  0  0  0  0  0  0  0  0  0  0
   28.7380  -21.2966   -9.6908 C   0  0  0  0  0  0  0  0  0  0  0  0
   27.4079  -20.9469   -9.4991 C   0  0  0  0  0  0  0  0  0  0  0  0
   25.7630  -21.5868  -13.8821 C   0  0  0  0  0  0  0  0  0  0  0  0
   25.2802  -22.6183  -14.4713 O   0  0  0  0  0  0  0  0  0  0  0  0
   26.6496  -20.7608  -14.5777 N   0  0  0  0  0  0  0  0  0  0  0  0
   26.9585  -21.0374  -15.9768 C   0  0  1  0  0  0  0  0  0  0  0  0
   27.2123  -19.7423  -16.6898 C   0  0  0  0  0  0  0  0  0  0  0  0
   27.5431  -19.8592  -18.1359 C   0  0  0  0  0  0  0  0  0  0  0  0
   27.7933  -18.4839  -18.6822 C   0  0  0  0  0  0  0  0  0  0  0  0
   26.8354  -17.6790  -18.7594 O   0  0  0  0  0  0  0  0  0  0  0  0
   28.0446  -22.0278  -16.0998 C   0  0  0  0  0  0  0  0  0  0  0  0
   28.9311  -22.1834  -15.1999 O   0  0  0  0  0  0  0  0  0  0  0  0
   29.0433  -18.0720  -19.1040 O   0  0  0  0  0  0  0  0  0  0  0  0
   28.1610  -22.8491  -17.2065 O   0  0  0  0  0  0  0  0  0  0  0  0
  2  3  1  0
  2  1  1  1
  4  6  1  0
  4  2  1  0
  4  5  1  6
  6  7  2  0
  8  6  1  0
  8  9  1  0
  9 10  1  1
 11 10  1  0
 11 12  2  0
 13 12  1  0
 14 19  2  0
 14 13  1  0
 15 14  1  0
 16 15  2  0
 17 16  1  0
 17 18  2  0
 18 19  1  0
 19 11  1  0
 20 21  2  0
 20  9  1  0
 22 20  1  0
 23 22  1  0
 23 24  1  1
 25 24  1  0
 26 25  1  0
 27 26  2  0
 28 31  1  0
 28 23  1  0
 29 28  2  0
 30 26  1  0
M  END
$$$$
