TWE.pdb
     RDKit          3D

 31 32  0  0  1  0  0  0  0  0999 V2000
   27.3475  -19.3626  -16.1638 C   0  0  0  0  0  0  0  0  0  0  0  0
   27.7960  -20.6672  -16.7826 C   0  0  1  0  0  0  0  0  0  0  0  0
   28.5725  -20.4368  -17.9036 O   0  0  0  0  0  0  0  0  0  0  0  0
   28.5787  -21.4375  -15.7496 C   0  0  2  0  0  0  0  0  0  0  0  0
   28.8398  -22.7581  -16.3322 N   0  0  0  0  0  0  0  0  0  0  0  0
   27.7271  -21.6158  -14.5496 C   0  0  0  0  0  0  0  0  0  0  0  0
   26.6370  -22.2757  -14.6474 O   0  0  0  0  0  0  0  0  0  0  0  0
   28.1156  -21.0647  -13.3129 N   0  0  0  0  0  0  0  0  0  0  0  0
   27.2279  -21.2085  -12.1618 C   0  0  1  0  0  0  0  0  0  0  0  0
   27.9944  -20.7628  -10.9767 C   0  0  0  0  0  0  0  0  0  0  0  0
   27.2534  -20.6152   -9.7208 C   0  0  0  0  0  0  0  0  0  0  0  0
   25.8753  -20.6687   -9.5409 C   0  0  0  0  0  0  0  0  0  0  0  0
   25.5635  -20.4629   -8.2517 N   0  0  0  0  0  0  0  0  0  0  0  0
   26.7179  -20.2738   -7.5729 C   0  0  0  0  0  0  0  0  0  0  0  0
   26.9741  -20.0390   -6.2419 C   0  0  0  0  0  0  0  0  0  0  0  0
   28.2618  -19.8902   -5.7586 C   0  0  0  0  0  0  0  0  0  0  0  0
   29.3209  -19.9813   -6.6460 C   0  0  0  0  0  0  0  0  0  0  0  0
   29.0522  -20.2148   -7.9686 C   0  0  0  0  0  0  0  0  0  0  0  0
   27.7659  -20.3659   -8.4692 C   0  0  0  0  0  0  0  0  0  0  0  0
   25.9059  -20.6666  -12.3962 C   0  0  0  0  0  0  0  0  0  0  0  0
   25.8419  -19.4404  -12.7658 O   0  0  0  0  0  0  0  0  0  0  0  0
   24.7216  -21.3923  -12.2442 N   0  0  0  0  0  0  0  0  0  0  0  0
   23.4495  -20.8056  -12.6532 C   0  0  1  0  0  0  0  0  0  0  0  0
   22.8849  -21.6009  -13.7928 C   0  0  0  0  0  0  0  0  0  0  0  0
   21.5618  -21.1465  -14.2999 C   0  0  0  0  0  0  0  0  0  0  0  0
   21.1653  -22.0212  -15.4533 C   0  0  0  0  0  0  0  0  0  0  0  0
   21.9991  -22.2381  -16.3640 O   0  0  0  0  0  0  0  0  0  0  0  0
   22.5380  -20.6490  -11.5042 C   0  0  0  0  0  0  0  0  0  0  0  0
   22.6177  -21.3802  -10.4655 O   0  0  0  0  0  0  0  0  0  0  0  0
   19.9125  -22.5970  -15.5481 O   0  0  0  0  0  0  0  0  0  0  0  0
   21.5396  -19.6919  -11.4903 O   0  0  0  0  0  0  0  0  0  0  0  0
  2  3  1  0
  2  1  1  1
  4  6  1  0
  4  2  1  0
  4  5  1  6
  6  7  2  0
  8  6  1  0
  8  9  1  0
  9 10  1  1
 11 10  1  0
 11 12  2  0
 13 12  1  0
 14 19  2  0
 14 13  1  0
 15 14  1  0
 16 15  2  0
 17 16  1  0
 17 18  2  0
 18 19  1  0
 19 11  1  0
 20 21  2  0
 20  9  1  0
 22 20  1  0
 23 22  1  0
 23 24  1  6
 25 24  1  0
 26 25  1  0
 27 26  2  0
 28 31  1  0
 28 23  1  0
 29 28  2  0
 30 26  1  0
M  END
$$$$
