TWE.pdb
     RDKit          3D

 31 32  0  0  1  0  0  0  0  0999 V2000
   28.5224  -18.0577  -15.5563 C   0  0  0  0  0  0  0  0  0  0  0  0
   27.4254  -18.8121  -14.8398 C   0  0  1  0  0  0  0  0  0  0  0  0
   26.4864  -19.2834  -15.7393 O   0  0  0  0  0  0  0  0  0  0  0  0
   28.0521  -19.9571  -14.0853 C   0  0  2  0  0  0  0  0  0  0  0  0
   28.5461  -20.8957  -15.0984 N   0  0  0  0  0  0  0  0  0  0  0  0
   26.9966  -20.6345  -13.2952 C   0  0  0  0  0  0  0  0  0  0  0  0
   26.4971  -21.7292  -13.7257 O   0  0  0  0  0  0  0  0  0  0  0  0
   26.5491  -20.0783  -12.0810 N   0  0  0  0  0  0  0  0  0  0  0  0
   25.5096  -20.7709  -11.3237 C   0  0  1  0  0  0  0  0  0  0  0  0
   25.7686  -20.4908   -9.8937 C   0  0  0  0  0  0  0  0  0  0  0  0
   27.0978  -20.8313   -9.3781 C   0  0  0  0  0  0  0  0  0  0  0  0
   28.0504  -21.6522   -9.9724 C   0  0  0  0  0  0  0  0  0  0  0  0
   29.1370  -21.7497   -9.1906 N   0  0  0  0  0  0  0  0  0  0  0  0
   28.9180  -21.0031   -8.0843 C   0  0  0  0  0  0  0  0  0  0  0  0
   29.6970  -20.7445   -6.9805 C   0  0  0  0  0  0  0  0  0  0  0  0
   29.2661  -19.9205   -5.9561 C   0  0  0  0  0  0  0  0  0  0  0  0
   28.0118  -19.3415   -6.0500 C   0  0  0  0  0  0  0  0  0  0  0  0
   27.2458  -19.6076   -7.1540 C   0  0  0  0  0  0  0  0  0  0  0  0
   27.6637  -20.4324   -8.1899 C   0  0  0  0  0  0  0  0  0  0  0  0
   24.1817  -20.5560  -11.8593 C   0  0  0  0  0  0  0  0  0  0  0  0
   23.9674  -19.4314  -12.4368 O   0  0  0  0  0  0  0  0  0  0  0  0
   23.1436  -21.4879  -11.7820 N   0  0  0  0  0  0  0  0  0  0  0  0
   21.8712  -21.2184  -12.4438 C   0  0  1  0  0  0  0  0  0  0  0  0
   21.4389  -22.4423  -13.1956 C   0  0  0  0  0  0  0  0  0  0  0  0
   20.1336  -22.3347  -13.9019 C   0  0  0  0  0  0  0  0  0  0  0  0
   20.3866  -22.3592  -15.3811 C   0  0  0  0  0  0  0  0  0  0  0  0
   21.5052  -22.7415  -15.7984 O   0  0  0  0  0  0  0  0  0  0  0  0
   20.8716  -20.6993  -11.4914 C   0  0  0  0  0  0  0  0  0  0  0  0
   21.0006  -20.8241  -10.2313 O   0  0  0  0  0  0  0  0  0  0  0  0
   19.4297  -21.9750  -16.3014 O   0  0  0  0  0  0  0  0  0  0  0  0
   19.7311  -20.0425  -11.9167 O   0  0  0  0  0  0  0  0  0  0  0  0
  2  3  1  0
  2  1  1  6
  4  6  1  0
  4  2  1  0
  4  5  1  6
  6  7  2  0
  8  6  1  0
  8  9  1  0
  9 10  1  1
 11 10  1  0
 11 12  2  0
 13 12  1  0
 14 19  2  0
 14 13  1  0
 15 14  1  0
 16 15  2  0
 17 16  1  0
 17 18  2  0
 18 19  1  0
 19 11  1  0
 20 21  2  0
 20  9  1  0
 22 20  1  0
 23 22  1  0
 23 24  1  1
 25 24  1  0
 26 25  1  0
 27 26  2  0
 28 31  1  0
 28 23  1  0
 29 28  2  0
 30 26  1  0
M  END
$$$$
