TWE.pdb
     RDKit          3D

 31 32  0  0  1  0  0  0  0  0999 V2000
   16.5698  -33.9996   -8.7340 C   0  0  0  0  0  0  0  0  0  0  0  0
   16.7286  -33.0142   -7.5983 C   0  0  1  0  0  0  0  0  0  0  0  0
   17.1691  -33.6527   -6.4533 O   0  0  0  0  0  0  0  0  0  0  0  0
   17.7148  -31.9559   -8.0231 C   0  0  2  0  0  0  0  0  0  0  0  0
   19.0146  -32.6263   -8.1344 N   0  0  0  0  0  0  0  0  0  0  0  0
   17.8042  -30.9373   -6.9500 C   0  0  0  0  0  0  0  0  0  0  0  0
   18.7714  -30.9889   -6.1163 O   0  0  0  0  0  0  0  0  0  0  0  0
   16.8337  -29.9213   -6.8506 N   0  0  0  0  0  0  0  0  0  0  0  0
   16.9241  -28.9585   -5.7558 C   0  0  1  0  0  0  0  0  0  0  0  0
   16.4294  -27.6675   -6.2843 C   0  0  0  0  0  0  0  0  0  0  0  0
   16.3375  -26.5516   -5.3384 C   0  0  0  0  0  0  0  0  0  0  0  0
   17.3234  -26.0964   -4.4694 C   0  0  0  0  0  0  0  0  0  0  0  0
   16.8639  -25.0697   -3.7372 N   0  0  0  0  0  0  0  0  0  0  0  0
   15.5847  -24.8369   -4.1096 C   0  0  0  0  0  0  0  0  0  0  0  0
   14.6615  -23.9051   -3.6955 C   0  0  0  0  0  0  0  0  0  0  0  0
   13.3908  -23.8407   -4.2389 C   0  0  0  0  0  0  0  0  0  0  0  0
   13.0433  -24.7440   -5.2291 C   0  0  0  0  0  0  0  0  0  0  0  0
   13.9716  -25.6671   -5.6321 C   0  0  0  0  0  0  0  0  0  0  0  0
   15.2503  -25.7449   -5.0965 C   0  0  0  0  0  0  0  0  0  0  0  0
   16.3889  -29.4668   -4.5102 C   0  0  0  0  0  0  0  0  0  0  0  0
   15.3521  -30.2169   -4.5910 O   0  0  0  0  0  0  0  0  0  0  0  0
   16.9295  -29.1895   -3.2520 N   0  0  0  0  0  0  0  0  0  0  0  0
   16.3075  -29.7424   -2.0533 C   0  0  1  0  0  0  0  0  0  0  0  0
   17.3778  -30.1100   -1.0687 C   0  0  0  0  0  0  0  0  0  0  0  0
   18.1722  -31.3221   -1.4060 C   0  0  0  0  0  0  0  0  0  0  0  0
   19.1186  -31.6039   -0.2757 C   0  0  0  0  0  0  0  0  0  0  0  0
   20.1777  -30.9385   -0.1919 O   0  0  0  0  0  0  0  0  0  0  0  0
   15.2707  -28.8378   -1.5221 C   0  0  0  0  0  0  0  0  0  0  0  0
   15.3845  -27.5709   -1.5632 O   0  0  0  0  0  0  0  0  0  0  0  0
   18.8644  -32.5717    0.6776 O   0  0  0  0  0  0  0  0  0  0  0  0
   14.1084  -29.3186   -0.9468 O   0  0  0  0  0  0  0  0  0  0  0  0
  2  3  1  0
  2  1  1  6
  4  6  1  0
  4  2  1  0
  4  5  1  1
  6  7  2  0
  8  6  1  0
  8  9  1  0
  9 10  1  6
 11 10  1  0
 11 12  2  0
 13 12  1  0
 14 19  2  0
 14 13  1  0
 15 14  1  0
 16 15  2  0
 17 16  1  0
 17 18  2  0
 18 19  1  0
 19 11  1  0
 20 21  2  0
 20  9  1  0
 22 20  1  0
 23 22  1  0
 23 24  1  1
 25 24  1  0
 26 25  1  0
 27 26  2  0
 28 31  1  0
 28 23  1  0
 29 28  2  0
 30 26  1  0
M  END
$$$$
