TWE.pdb
     RDKit          3D

 31 32  0  0  1  0  0  0  0  0999 V2000
   28.5368  -18.7426  -15.7918 C   0  0  0  0  0  0  0  0  0  0  0  0
   27.6301  -19.2147  -14.6778 C   0  0  1  0  0  0  0  0  0  0  0  0
   26.3127  -19.2454  -15.0977 O   0  0  0  0  0  0  0  0  0  0  0  0
   28.0787  -20.5896  -14.2519 C   0  0  2  0  0  0  0  0  0  0  0  0
   27.7267  -21.4955  -15.3505 N   0  0  0  0  0  0  0  0  0  0  0  0
   27.3047  -20.9870  -13.0518 C   0  0  0  0  0  0  0  0  0  0  0  0
   26.2402  -21.6799  -13.1938 O   0  0  0  0  0  0  0  0  0  0  0  0
   27.7384  -20.6061  -11.7669 N   0  0  0  0  0  0  0  0  0  0  0  0
   26.9016  -20.9235  -10.6125 C   0  0  1  0  0  0  0  0  0  0  0  0
   27.7612  -20.7878   -9.4153 C   0  0  0  0  0  0  0  0  0  0  0  0
   27.0857  -20.6727   -8.1196 C   0  0  0  0  0  0  0  0  0  0  0  0
   25.7691  -21.0061   -7.8199 C   0  0  0  0  0  0  0  0  0  0  0  0
   25.4999  -20.7375   -6.5327 N   0  0  0  0  0  0  0  0  0  0  0  0
   26.6220  -20.2301   -5.9735 C   0  0  0  0  0  0  0  0  0  0  0  0
   26.9011  -19.8050   -4.6954 C   0  0  0  0  0  0  0  0  0  0  0  0
   28.1497  -19.3283   -4.3378 C   0  0  0  0  0  0  0  0  0  0  0  0
   29.1446  -19.2799   -5.2997 C   0  0  0  0  0  0  0  0  0  0  0  0
   28.8536  -19.7057   -6.5686 C   0  0  0  0  0  0  0  0  0  0  0  0
   27.6058  -20.1860   -6.9432 C   0  0  0  0  0  0  0  0  0  0  0  0
   25.6180  -20.2542  -10.6436 C   0  0  0  0  0  0  0  0  0  0  0  0
   25.6351  -18.9721  -10.6265 O   0  0  0  0  0  0  0  0  0  0  0  0
   24.3884  -20.9159  -10.6898 N   0  0  0  0  0  0  0  0  0  0  0  0
   23.1720  -20.1731  -11.0033 C   0  0  1  0  0  0  0  0  0  0  0  0
   23.2517  -19.6723  -12.4150 C   0  0  0  0  0  0  0  0  0  0  0  0
   23.0656  -20.7016  -13.4732 C   0  0  0  0  0  0  0  0  0  0  0  0
   22.2751  -20.0959  -14.5962 C   0  0  0  0  0  0  0  0  0  0  0  0
   21.8924  -18.9064  -14.4952 O   0  0  0  0  0  0  0  0  0  0  0  0
   21.9666  -20.9679  -10.7021 C   0  0  0  0  0  0  0  0  0  0  0  0
   22.0141  -22.2186  -10.4714 O   0  0  0  0  0  0  0  0  0  0  0  0
   21.9533  -20.8030  -15.7392 O   0  0  0  0  0  0  0  0  0  0  0  0
   20.7087  -20.3949  -10.6522 O   0  0  0  0  0  0  0  0  0  0  0  0
  2  3  1  0
  2  1  1  6
  4  6  1  0
  4  2  1  0
  4  5  1  6
  6  7  2  0
  8  6  1  0
  8  9  1  0
  9 10  1  1
 11 10  1  0
 11 12  2  0
 13 12  1  0
 14 19  2  0
 14 13  1  0
 15 14  1  0
 16 15  2  0
 17 16  1  0
 17 18  2  0
 18 19  1  0
 19 11  1  0
 20 21  2  0
 20  9  1  0
 22 20  1  0
 23 22  1  0
 23 24  1  6
 25 24  1  0
 26 25  1  0
 27 26  2  0
 28 31  1  0
 28 23  1  0
 29 28  2  0
 30 26  1  0
M  END
$$$$
