TWE.pdb
     RDKit          3D

 31 32  0  0  1  0  0  0  0  0999 V2000
   28.8269  -18.8707  -16.1176 C   0  0  0  0  0  0  0  0  0  0  0  0
   27.8638  -19.3122  -15.0389 C   0  0  1  0  0  0  0  0  0  0  0  0
   26.5547  -19.1297  -15.4460 O   0  0  0  0  0  0  0  0  0  0  0  0
   28.1233  -20.7665  -14.7378 C   0  0  2  0  0  0  0  0  0  0  0  0
   27.6534  -21.5184  -15.9062 N   0  0  0  0  0  0  0  0  0  0  0  0
   27.3022  -21.1590  -13.5677 C   0  0  0  0  0  0  0  0  0  0  0  0
   26.1591  -21.6981  -13.7571 O   0  0  0  0  0  0  0  0  0  0  0  0
   27.7775  -20.9417  -12.2597 N   0  0  0  0  0  0  0  0  0  0  0  0
   26.8827  -21.1828  -11.1305 C   0  0  1  0  0  0  0  0  0  0  0  0
   27.7147  -21.1155   -9.9083 C   0  0  0  0  0  0  0  0  0  0  0  0
   27.0224  -20.8443   -8.6451 C   0  0  0  0  0  0  0  0  0  0  0  0
   25.6496  -20.7876   -8.4286 C   0  0  0  0  0  0  0  0  0  0  0  0
   25.3903  -20.4877   -7.1463 N   0  0  0  0  0  0  0  0  0  0  0  0
   26.5743  -20.3450   -6.5081 C   0  0  0  0  0  0  0  0  0  0  0  0
   26.8846  -20.0551   -5.1998 C   0  0  0  0  0  0  0  0  0  0  0  0
   28.1930  -19.9732   -4.7577 C   0  0  0  0  0  0  0  0  0  0  0  0
   29.2171  -20.1904   -5.6641 C   0  0  0  0  0  0  0  0  0  0  0  0
   28.8946  -20.4777   -6.9640 C   0  0  0  0  0  0  0  0  0  0  0  0
   27.5870  -20.5630   -7.4231 C   0  0  0  0  0  0  0  0  0  0  0  0
   25.6618  -20.4077  -11.2010 C   0  0  0  0  0  0  0  0  0  0  0  0
   25.7809  -19.1341  -11.1131 O   0  0  0  0  0  0  0  0  0  0  0  0
   24.3883  -20.9612  -11.3560 N   0  0  0  0  0  0  0  0  0  0  0  0
   23.2124  -20.0971  -11.3510 C   0  0  1  0  0  0  0  0  0  0  0  0
   23.0279  -19.5096  -12.7188 C   0  0  0  0  0  0  0  0  0  0  0  0
   23.3490  -20.4147  -13.8554 C   0  0  0  0  0  0  0  0  0  0  0  0
   23.0575  -19.6931  -15.1388 C   0  0  0  0  0  0  0  0  0  0  0  0
   23.2659  -20.2819  -16.2257 O   0  0  0  0  0  0  0  0  0  0  0  0
   22.0304  -20.8043  -10.8234 C   0  0  0  0  0  0  0  0  0  0  0  0
   20.9228  -20.2154  -10.6080 O   0  0  0  0  0  0  0  0  0  0  0  0
   22.5671  -18.4013  -15.1658 O   0  0  0  0  0  0  0  0  0  0  0  0
   22.0590  -22.1561  -10.5320 O   0  0  0  0  0  0  0  0  0  0  0  0
  2  3  1  0
  2  1  1  6
  4  6  1  0
  4  2  1  0
  4  5  1  6
  6  7  2  0
  8  6  1  0
  8  9  1  0
  9 10  1  1
 11 10  1  0
 11 12  2  0
 13 12  1  0
 14 19  2  0
 14 13  1  0
 15 14  1  0
 16 15  2  0
 17 16  1  0
 17 18  2  0
 18 19  1  0
 19 11  1  0
 20 21  2  0
 20  9  1  0
 22 20  1  0
 23 22  1  0
 23 24  1  6
 25 24  1  0
 26 25  1  0
 27 26  2  0
 28 31  1  0
 28 23  1  0
 29 28  2  0
 30 26  1  0
M  END
$$$$
