LGW.pdb
     RDKit          3D

 27 28  0  0  1  0  0  0  0  0999 V2000
   23.7458  -18.0455  -18.5608 C   0  0  0  0  0  0  0  0  0  0  0  0
   24.7020  -19.0304  -17.9677 C   0  0  1  0  0  0  0  0  0  0  0  0
   24.9746  -20.1587  -18.9642 C   0  0  0  0  0  0  0  0  0  0  0  0
   26.0012  -18.4772  -17.5339 C   0  0  0  0  0  0  0  0  0  0  0  0
   26.8793  -19.4234  -16.8121 C   0  0  2  0  0  0  0  0  0  0  0  0
   26.2724  -20.7570  -16.7474 N   0  0  0  0  0  0  0  0  0  0  0  0
   27.2542  -18.9885  -15.4733 C   0  0  0  0  0  0  0  0  0  0  0  0
   27.8830  -17.9191  -15.2354 O   0  0  0  0  0  0  0  0  0  0  0  0
   26.8994  -19.7985  -14.3477 N   0  0  0  0  0  0  0  0  0  0  0  0
   27.1378  -19.2999  -13.0303 C   0  0  0  0  0  0  0  0  0  0  0  0
   26.6155  -20.2740  -12.0187 C   0  0  0  0  0  0  0  0  0  0  0  0
   25.6215  -20.9912  -12.2957 O   0  0  0  0  0  0  0  0  0  0  0  0
   27.2152  -20.4179  -10.7300 N   0  0  0  0  0  0  0  0  0  0  0  0
   26.6081  -21.3080   -9.7872 C   0  0  1  0  0  0  0  0  0  0  0  0
   27.4236  -21.5147   -8.5770 C   0  0  0  0  0  0  0  0  0  0  0  0
   27.5168  -20.3949   -7.6417 C   0  0  0  0  0  0  0  0  0  0  0  0
   26.9631  -19.1349   -7.6207 C   0  0  0  0  0  0  0  0  0  0  0  0
   27.3582  -18.4710   -6.5007 N   0  0  0  0  0  0  0  0  0  0  0  0
   28.1716  -19.2726   -5.7694 C   0  0  0  0  0  0  0  0  0  0  0  0
   28.8123  -19.0490   -4.5682 C   0  0  0  0  0  0  0  0  0  0  0  0
   29.5902  -20.0427   -4.0288 C   0  0  0  0  0  0  0  0  0  0  0  0
   29.7147  -21.2398   -4.6969 C   0  0  0  0  0  0  0  0  0  0  0  0
   29.0605  -21.4492   -5.9105 C   0  0  0  0  0  0  0  0  0  0  0  0
   28.2764  -20.4564   -6.4598 C   0  0  0  0  0  0  0  0  0  0  0  0
   25.2148  -20.9005   -9.4460 C   0  0  0  0  0  0  0  0  0  0  0  0
   24.3650  -21.7729   -8.8108 O   0  0  0  0  0  0  0  0  0  0  0  0
   24.8361  -19.7587   -9.7438 O   0  0  0  0  0  0  0  0  0  0  0  0
  2  4  1  0
  2  1  1  6
  2  3  1  0
  5  4  1  0
  5  6  1  1
  7  5  1  0
  8  7  2  0
  9  7  1  0
 10  9  1  0
 11 10  1  0
 11 13  1  0
 12 11  2  0
 14 15  1  1
 14 25  1  0
 14 13  1  0
 16 15  1  0
 16 17  2  0
 18 17  1  0
 19 24  2  0
 19 18  1  0
 20 19  1  0
 21 22  1  0
 21 20  2  0
 22 23  2  0
 23 24  1  0
 24 16  1  0
 25 26  1  0
 27 25  2  0
M  END
$$$$
