LGW.pdb
     RDKit          3D

 27 28  0  0  1  0  0  0  0  0999 V2000
   25.5468  -14.1527  -20.4442 C   0  0  0  0  0  0  0  0  0  0  0  0
   24.3559  -13.5792  -19.7449 C   0  0  1  0  0  0  0  0  0  0  0  0
   23.4369  -14.7061  -19.2691 C   0  0  0  0  0  0  0  0  0  0  0  0
   24.6522  -12.7093  -18.5884 C   0  0  0  0  0  0  0  0  0  0  0  0
   23.4735  -12.0765  -17.9579 C   0  0  2  0  0  0  0  0  0  0  0  0
   22.6834  -11.3366  -18.9474 N   0  0  0  0  0  0  0  0  0  0  0  0
   23.7919  -11.2071  -16.8333 C   0  0  0  0  0  0  0  0  0  0  0  0
   24.4902  -11.5689  -15.8447 O   0  0  0  0  0  0  0  0  0  0  0  0
   23.3010   -9.8625  -16.8254 N   0  0  0  0  0  0  0  0  0  0  0  0
   23.5298   -9.0461  -15.6755 C   0  0  0  0  0  0  0  0  0  0  0  0
   22.5546   -7.9086  -15.6608 C   0  0  0  0  0  0  0  0  0  0  0  0
   21.7890   -7.7280  -16.6407 O   0  0  0  0  0  0  0  0  0  0  0  0
   22.4637   -7.0069  -14.5564 N   0  0  0  0  0  0  0  0  0  0  0  0
   21.5372   -5.9182  -14.6350 C   0  0  1  0  0  0  0  0  0  0  0  0
   20.5476   -5.9192  -13.5428 C   0  0  0  0  0  0  0  0  0  0  0  0
   19.8794   -7.1874  -13.2554 C   0  0  0  0  0  0  0  0  0  0  0  0
   19.9820   -8.0955  -12.2260 C   0  0  0  0  0  0  0  0  0  0  0  0
   19.1131   -9.1237  -12.4236 N   0  0  0  0  0  0  0  0  0  0  0  0
   18.4281   -8.9151  -13.5752 C   0  0  0  0  0  0  0  0  0  0  0  0
   17.4492   -9.6689  -14.1892 C   0  0  0  0  0  0  0  0  0  0  0  0
   16.9051   -9.2273  -15.3691 C   0  0  0  0  0  0  0  0  0  0  0  0
   17.3470   -8.0432  -15.9145 C   0  0  0  0  0  0  0  0  0  0  0  0
   18.3378   -7.2936  -15.2811 C   0  0  0  0  0  0  0  0  0  0  0  0
   18.8900   -7.7296  -14.0948 C   0  0  0  0  0  0  0  0  0  0  0  0
   22.2264   -4.6007  -14.7489 C   0  0  0  0  0  0  0  0  0  0  0  0
   21.5201   -3.4650  -15.0621 O   0  0  0  0  0  0  0  0  0  0  0  0
   23.4491   -4.5469  -14.5540 O   0  0  0  0  0  0  0  0  0  0  0  0
  2  4  1  0
  2  1  1  1
  2  3  1  0
  5  4  1  0
  5  6  1  6
  7  5  1  0
  8  7  2  0
  9  7  1  0
 10  9  1  0
 11 10  1  0
 11 13  1  0
 12 11  2  0
 14 15  1  1
 14 25  1  0
 14 13  1  0
 16 15  1  0
 16 17  2  0
 18 17  1  0
 19 24  2  0
 19 18  1  0
 20 19  1  0
 21 22  1  0
 21 20  2  0
 22 23  2  0
 23 24  1  0
 24 16  1  0
 25 26  1  0
 27 25  2  0
M  END
$$$$
