LGW.pdb
     RDKit          3D

 27 28  0  0  1  0  0  0  0  0999 V2000
   29.1874  -14.9883  -20.4261 C   0  0  0  0  0  0  0  0  0  0  0  0
   28.3166  -16.0861  -19.9039 C   0  0  1  0  0  0  0  0  0  0  0  0
   28.7976  -17.4350  -20.4422 C   0  0  0  0  0  0  0  0  0  0  0  0
   28.2267  -16.1846  -18.4328 C   0  0  0  0  0  0  0  0  0  0  0  0
   27.4686  -17.3484  -17.9245 C   0  0  2  0  0  0  0  0  0  0  0  0
   26.0426  -17.2258  -18.2448 N   0  0  0  0  0  0  0  0  0  0  0  0
   27.6328  -17.5919  -16.4978 C   0  0  0  0  0  0  0  0  0  0  0  0
   28.7497  -17.8087  -15.9489 O   0  0  0  0  0  0  0  0  0  0  0  0
   26.4806  -17.5875  -15.6484 N   0  0  0  0  0  0  0  0  0  0  0  0
   26.6506  -17.8002  -14.2459 C   0  0  0  0  0  0  0  0  0  0  0  0
   26.4100  -19.2428  -13.9204 C   0  0  0  0  0  0  0  0  0  0  0  0
   26.0358  -20.0338  -14.8222 O   0  0  0  0  0  0  0  0  0  0  0  0
   26.5918  -19.7591  -12.6007 N   0  0  0  0  0  0  0  0  0  0  0  0
   26.4545  -21.1687  -12.3914 C   0  0  1  0  0  0  0  0  0  0  0  0
   27.1299  -21.6418  -11.1698 C   0  0  0  0  0  0  0  0  0  0  0  0
   26.7780  -20.9743   -9.9175 C   0  0  0  0  0  0  0  0  0  0  0  0
   25.5827  -20.5700   -9.3676 C   0  0  0  0  0  0  0  0  0  0  0  0
   25.7987  -19.9999   -8.1512 N   0  0  0  0  0  0  0  0  0  0  0  0
   27.1270  -20.0173   -7.8789 C   0  0  0  0  0  0  0  0  0  0  0  0
   27.8264  -19.5618   -6.7804 C   0  0  0  0  0  0  0  0  0  0  0  0
   29.1911  -19.7038   -6.7491 C   0  0  0  0  0  0  0  0  0  0  0  0
   29.8323  -20.2967   -7.8131 C   0  0  0  0  0  0  0  0  0  0  0  0
   29.1102  -20.7512   -8.9161 C   0  0  0  0  0  0  0  0  0  0  0  0
   27.7385  -20.6130   -8.9560 C   0  0  0  0  0  0  0  0  0  0  0  0
   25.0299  -21.6073  -12.4348 C   0  0  0  0  0  0  0  0  0  0  0  0
   24.0148  -20.7188  -12.1765 O   0  0  0  0  0  0  0  0  0  0  0  0
   24.7763  -22.7887  -12.7103 O   0  0  0  0  0  0  0  0  0  0  0  0
  2  4  1  0
  2  1  1  1
  2  3  1  0
  5  4  1  0
  5  6  1  1
  7  5  1  0
  8  7  2  0
  9  7  1  0
 10  9  1  0
 11 10  1  0
 11 13  1  0
 12 11  2  0
 14 15  1  1
 14 25  1  0
 14 13  1  0
 16 15  1  0
 16 17  2  0
 18 17  1  0
 19 24  2  0
 19 18  1  0
 20 19  1  0
 21 22  1  0
 21 20  2  0
 22 23  2  0
 23 24  1  0
 24 16  1  0
 25 26  1  0
 27 25  2  0
M  END
$$$$
