LGW.pdb
     RDKit          3D

 27 28  0  0  1  0  0  0  0  0999 V2000
   24.5859  -16.0176  -15.0766 C   0  0  0  0  0  0  0  0  0  0  0  0
   24.3791  -17.4954  -15.1752 C   0  0  1  0  0  0  0  0  0  0  0  0
   22.9168  -17.8386  -14.8843 C   0  0  0  0  0  0  0  0  0  0  0  0
   24.7454  -18.1063  -16.4693 C   0  0  0  0  0  0  0  0  0  0  0  0
   24.8184  -19.5835  -16.4703 C   0  0  2  0  0  0  0  0  0  0  0  0
   23.5374  -20.1722  -16.0662 N   0  0  0  0  0  0  0  0  0  0  0  0
   25.8911  -20.1294  -15.6497 C   0  0  0  0  0  0  0  0  0  0  0  0
   27.1124  -19.8574  -15.8229 O   0  0  0  0  0  0  0  0  0  0  0  0
   25.5693  -21.0236  -14.5792 N   0  0  0  0  0  0  0  0  0  0  0  0
   26.6278  -21.5840  -13.8003 C   0  0  0  0  0  0  0  0  0  0  0  0
   26.2086  -21.6689  -12.3643 C   0  0  0  0  0  0  0  0  0  0  0  0
   25.4700  -22.6111  -11.9827 O   0  0  0  0  0  0  0  0  0  0  0  0
   26.6236  -20.7013  -11.3986 N   0  0  0  0  0  0  0  0  0  0  0  0
   26.2203  -20.8763  -10.0361 C   0  0  1  0  0  0  0  0  0  0  0  0
   27.1892  -20.3287   -9.0699 C   0  0  0  0  0  0  0  0  0  0  0  0
   26.8020  -20.3478   -7.6602 C   0  0  0  0  0  0  0  0  0  0  0  0
   25.6592  -20.7409   -7.0012 C   0  0  0  0  0  0  0  0  0  0  0  0
   25.8123  -20.5689   -5.6602 N   0  0  0  0  0  0  0  0  0  0  0  0
   27.0463  -20.0643   -5.4122 C   0  0  0  0  0  0  0  0  0  0  0  0
   27.6582  -19.7272   -4.2225 C   0  0  0  0  0  0  0  0  0  0  0  0
   28.9372  -19.2300   -4.2444 C   0  0  0  0  0  0  0  0  0  0  0  0
   29.5815  -19.0782   -5.4514 C   0  0  0  0  0  0  0  0  0  0  0  0
   28.9482  -19.4235   -6.6449 C   0  0  0  0  0  0  0  0  0  0  0  0
   27.6631  -19.9242   -6.6323 C   0  0  0  0  0  0  0  0  0  0  0  0
   24.8445  -20.3582   -9.7860 C   0  0  0  0  0  0  0  0  0  0  0  0
   24.0080  -20.9902   -8.8986 O   0  0  0  0  0  0  0  0  0  0  0  0
   24.4683  -19.3446  -10.3919 O   0  0  0  0  0  0  0  0  0  0  0  0
  2  4  1  0
  2  1  1  6
  2  3  1  0
  5  4  1  0
  5  6  1  1
  7  5  1  0
  8  7  2  0
  9  7  1  0
 10  9  1  0
 11 10  1  0
 11 13  1  0
 12 11  2  0
 14 15  1  1
 14 25  1  0
 14 13  1  0
 16 15  1  0
 16 17  2  0
 18 17  1  0
 19 24  2  0
 19 18  1  0
 20 19  1  0
 21 22  1  0
 21 20  2  0
 22 23  2  0
 23 24  1  0
 24 16  1  0
 25 26  1  0
 27 25  2  0
M  END
$$$$
