TIM.pdb
     RDKit          3D

 24 23  0  0  1  0  0  0  0  0999 V2000
    6.6242  -17.2711   20.2256 C   0  0  0  0  0  0  0  0  0  0  0  0
    7.3640  -16.8296   21.4584 C   0  0  1  0  0  0  0  0  0  0  0  0
    8.4202  -17.7011   21.7363 O   0  0  0  0  0  0  0  0  0  0  0  0
    7.8465  -15.4228   21.3057 C   0  0  2  0  0  0  0  0  0  0  0  0
    8.7137  -15.2301   20.1767 N   0  0  0  0  0  0  0  0  0  0  0  0
    8.4856  -14.9681   22.5791 C   0  0  0  0  0  0  0  0  0  0  0  0
    9.7386  -14.7764   22.6536 O   0  0  0  0  0  0  0  0  0  0  0  0
    6.1049  -11.4517   25.9162 C   0  0  0  0  0  0  0  0  0  0  0  0
    7.1836  -12.2271   25.2013 C   0  0  0  0  0  0  0  0  0  0  0  0
    7.4665  -13.5582   25.7717 C   0  0  2  0  0  0  0  0  0  0  0  0
    8.0297  -13.3353   27.1831 C   0  0  0  0  0  0  0  0  0  0  0  0
    8.3970  -14.4534   25.0391 C   0  0  2  0  0  0  0  0  0  0  0  0
    7.7223  -14.7338   23.7491 N   0  0  0  0  0  0  0  0  0  0  0  0
    8.6720  -15.7410   25.6615 C   0  0  0  0  0  0  0  0  0  0  0  0
    7.7087  -16.5400   25.8983 O   0  0  0  0  0  0  0  0  0  0  0  0
   14.2384  -19.1398   24.9148 C   0  0  0  0  0  0  0  0  0  0  0  0
   13.6091  -19.8429   26.4388 S   0  0  0  0  0  0  0  0  0  0  0  0
   11.9321  -19.3186   26.8005 C   0  0  0  0  0  0  0  0  0  0  0  0
   11.5978  -17.9859   26.1905 C   0  0  0  0  0  0  0  0  0  0  0  0
   10.1940  -17.5243   26.5137 C   0  0  2  0  0  0  0  0  0  0  0  0
    9.9517  -16.1799   26.0270 N   0  0  0  0  0  0  0  0  0  0  0  0
   10.0678  -17.5309   27.9807 C   0  0  0  0  0  0  0  0  0  0  0  0
    9.8089  -18.7211   28.6335 O   0  0  0  0  0  0  0  0  0  0  0  0
   10.1831  -16.4995   28.6946 O   0  0  0  0  0  0  0  0  0  0  0  0
  2  3  1  0
  2  1  1  6
  4  2  1  0
  4  5  1  6
  6 13  1  0
  6  4  1  0
  7  6  2  0
  8  9  1  0
  9 10  1  0
 10 12  1  0
 10 11  1  1
 12 13  1  6
 14 15  2  0
 14 12  1  0
 16 17  1  0
 18 17  1  0
 18 19  1  0
 20 19  1  1
 20 21  1  0
 21 14  1  0
 22 20  1  0
 23 22  1  0
 24 22  2  0
M  END
$$$$
