TIM.pdb
     RDKit          3D

 24 23  0  0  1  0  0  0  0  0999 V2000
    6.8075  -17.7956   19.7686 C   0  0  0  0  0  0  0  0  0  0  0  0
    7.5391  -17.2733   20.9744 C   0  0  1  0  0  0  0  0  0  0  0  0
    8.7538  -17.9434   21.1406 O   0  0  0  0  0  0  0  0  0  0  0  0
    7.7440  -15.7963   20.8653 C   0  0  2  0  0  0  0  0  0  0  0  0
    8.4570  -15.3990   19.6833 N   0  0  0  0  0  0  0  0  0  0  0  0
    8.4024  -15.2858   22.1074 C   0  0  0  0  0  0  0  0  0  0  0  0
    9.6179  -14.9186   22.1033 O   0  0  0  0  0  0  0  0  0  0  0  0
    5.5931  -12.2908   25.5966 C   0  0  0  0  0  0  0  0  0  0  0  0
    6.7184  -12.8680   24.7740 C   0  0  0  0  0  0  0  0  0  0  0  0
    7.3700  -14.0520   25.3661 C   0  0  2  0  0  0  0  0  0  0  0  0
    8.0144  -13.6013   26.6855 C   0  0  0  0  0  0  0  0  0  0  0  0
    8.4011  -14.7601   24.5666 C   0  0  2  0  0  0  0  0  0  0  0  0
    7.6999  -15.1915   23.3337 N   0  0  0  0  0  0  0  0  0  0  0  0
    8.9711  -15.9568   25.1701 C   0  0  0  0  0  0  0  0  0  0  0  0
    8.1999  -16.8077   25.7212 O   0  0  0  0  0  0  0  0  0  0  0  0
   10.7662  -13.1185   29.3450 C   0  0  0  0  0  0  0  0  0  0  0  0
   11.4777  -14.6313   29.9918 S   0  0  0  0  0  0  0  0  0  0  0  0
   11.5924  -15.9248   28.7543 C   0  0  0  0  0  0  0  0  0  0  0  0
   10.9198  -15.5517   27.4626 C   0  0  0  0  0  0  0  0  0  0  0  0
   11.0304  -16.6294   26.4068 C   0  0  2  0  0  0  0  0  0  0  0  0
   10.3409  -16.2517   25.1882 N   0  0  0  0  0  0  0  0  0  0  0  0
   10.3957  -17.8376   26.9596 C   0  0  0  0  0  0  0  0  0  0  0  0
   11.1843  -18.8114   27.5421 O   0  0  0  0  0  0  0  0  0  0  0  0
    9.1536  -18.0453   26.9352 O   0  0  0  0  0  0  0  0  0  0  0  0
  2  3  1  0
  2  1  1  6
  4  2  1  0
  4  5  1  6
  6 13  1  0
  6  4  1  0
  7  6  2  0
  8  9  1  0
  9 10  1  0
 10 12  1  0
 10 11  1  1
 12 13  1  6
 14 15  2  0
 14 12  1  0
 16 17  1  0
 18 17  1  0
 18 19  1  0
 20 19  1  1
 20 21  1  0
 21 14  1  0
 22 20  1  0
 23 22  1  0
 24 22  2  0
M  END
$$$$
