TIM.pdb
     RDKit          3D

 24 23  0  0  1  0  0  0  0  0999 V2000
    6.0565  -20.3780   21.0396 C   0  0  0  0  0  0  0  0  0  0  0  0
    6.8631  -19.1667   21.4194 C   0  0  1  0  0  0  0  0  0  0  0  0
    7.8525  -19.5058   22.3458 O   0  0  0  0  0  0  0  0  0  0  0  0
    7.4534  -18.5266   20.2040 C   0  0  2  0  0  0  0  0  0  0  0  0
    8.2038  -19.4342   19.3813 N   0  0  0  0  0  0  0  0  0  0  0  0
    8.2692  -17.3392   20.6057 C   0  0  0  0  0  0  0  0  0  0  0  0
    9.5323  -17.3354   20.4756 O   0  0  0  0  0  0  0  0  0  0  0  0
    7.1552  -12.3869   19.0200 C   0  0  0  0  0  0  0  0  0  0  0  0
    7.9903  -13.5324   19.5362 C   0  0  0  0  0  0  0  0  0  0  0  0
    7.8059  -13.8326   20.9691 C   0  0  2  0  0  0  0  0  0  0  0  0
    8.2559  -12.5908   21.7530 C   0  0  0  0  0  0  0  0  0  0  0  0
    8.5039  -15.0142   21.5350 C   0  0  2  0  0  0  0  0  0  0  0  0
    7.6686  -16.1753   21.1452 N   0  0  0  0  0  0  0  0  0  0  0  0
    8.6297  -15.0514   22.9855 C   0  0  0  0  0  0  0  0  0  0  0  0
    9.5695  -14.4019   23.5489 O   0  0  0  0  0  0  0  0  0  0  0  0
    7.7093  -11.6367   27.7798 C   0  0  0  0  0  0  0  0  0  0  0  0
    6.3760  -12.4996   26.9487 S   0  0  0  0  0  0  0  0  0  0  0  0
    6.9599  -13.5671   25.6306 C   0  0  0  0  0  0  0  0  0  0  0  0
    6.9541  -15.0200   26.0166 C   0  0  0  0  0  0  0  0  0  0  0  0
    7.9824  -15.8348   25.2637 C   0  0  2  0  0  0  0  0  0  0  0  0
    7.7697  -15.7652   23.8309 N   0  0  0  0  0  0  0  0  0  0  0  0
    7.8268  -17.2319   25.7021 C   0  0  0  0  0  0  0  0  0  0  0  0
    8.1921  -17.5836   26.9875 O   0  0  0  0  0  0  0  0  0  0  0  0
    7.3724  -18.1468   24.9652 O   0  0  0  0  0  0  0  0  0  0  0  0
  2  3  1  0
  2  1  1  6
  4  2  1  0
  4  5  1  1
  6 13  1  0
  6  4  1  0
  7  6  2  0
  8  9  1  0
  9 10  1  0
 10 12  1  0
 10 11  1  1
 12 13  1  1
 14 15  2  0
 14 12  1  0
 16 17  1  0
 18 17  1  0
 18 19  1  0
 20 19  1  1
 20 21  1  0
 21 14  1  0
 22 20  1  0
 23 22  1  0
 24 22  2  0
M  END
$$$$
