TIM.pdb
     RDKit          3D

 24 23  0  0  1  0  0  0  0  0999 V2000
   10.7589  -19.9269   19.0343 C   0  0  0  0  0  0  0  0  0  0  0  0
   10.4888  -18.7988   19.9917 C   0  0  1  0  0  0  0  0  0  0  0  0
   11.1917  -18.9875   21.1844 O   0  0  0  0  0  0  0  0  0  0  0  0
   10.8273  -17.4848   19.3638 C   0  0  2  0  0  0  0  0  0  0  0  0
   12.1766  -17.4092   18.8766 N   0  0  0  0  0  0  0  0  0  0  0  0
   10.5203  -16.3758   20.3193 C   0  0  0  0  0  0  0  0  0  0  0  0
   11.4489  -15.7134   20.8773 O   0  0  0  0  0  0  0  0  0  0  0  0
    6.7633  -12.5713   19.4802 C   0  0  0  0  0  0  0  0  0  0  0  0
    7.9994  -13.2645   19.9974 C   0  0  0  0  0  0  0  0  0  0  0  0
    7.7582  -14.2096   21.1046 C   0  0  2  0  0  0  0  0  0  0  0  0
    7.1309  -13.4081   22.2549 C   0  0  0  0  0  0  0  0  0  0  0  0
    8.9141  -14.9674   21.6461 C   0  0  2  0  0  0  0  0  0  0  0  0
    9.1870  -16.0207   20.6391 N   0  0  0  0  0  0  0  0  0  0  0  0
    8.6990  -15.6435   22.9180 C   0  0  0  0  0  0  0  0  0  0  0  0
    8.2729  -16.8439   22.9243 O   0  0  0  0  0  0  0  0  0  0  0  0
   10.8025  -14.5131   29.9959 C   0  0  0  0  0  0  0  0  0  0  0  0
   10.6221  -13.6754   28.4215 S   0  0  0  0  0  0  0  0  0  0  0  0
   10.3864  -14.8147   27.0560 C   0  0  0  0  0  0  0  0  0  0  0  0
    8.9523  -14.8987   26.6130 C   0  0  0  0  0  0  0  0  0  0  0  0
    8.7584  -15.7917   25.4075 C   0  0  2  0  0  0  0  0  0  0  0  0
    8.9344  -15.0578   24.1692 N   0  0  0  0  0  0  0  0  0  0  0  0
    7.3780  -16.3005   25.4687 C   0  0  0  0  0  0  0  0  0  0  0  0
    7.1502  -17.5913   25.9065 O   0  0  0  0  0  0  0  0  0  0  0  0
    6.3696  -15.6207   25.1408 O   0  0  0  0  0  0  0  0  0  0  0  0
  2  3  1  0
  2  1  1  6
  4  2  1  0
  4  5  1  1
  6 13  1  0
  6  4  1  0
  7  6  2  0
  8  9  1  0
  9 10  1  0
 10 12  1  0
 10 11  1  1
 12 13  1  6
 14 15  2  0
 14 12  1  0
 16 17  1  0
 18 17  1  0
 18 19  1  0
 20 19  1  1
 20 21  1  0
 21 14  1  0
 22 20  1  0
 23 22  1  0
 24 22  2  0
M  END
$$$$
