TIM.pdb
     RDKit          3D

 24 23  0  0  1  0  0  0  0  0999 V2000
    6.6693  -17.0659   20.2626 C   0  0  0  0  0  0  0  0  0  0  0  0
    7.4066  -16.6340   21.5003 C   0  0  1  0  0  0  0  0  0  0  0  0
    8.5615  -17.4004   21.6769 O   0  0  0  0  0  0  0  0  0  0  0  0
    7.7272  -15.1750   21.4384 C   0  0  2  0  0  0  0  0  0  0  0  0
    8.4940  -14.8018   20.2824 N   0  0  0  0  0  0  0  0  0  0  0  0
    8.3962  -14.7517   22.7073 C   0  0  0  0  0  0  0  0  0  0  0  0
    9.6418  -14.5078   22.7437 O   0  0  0  0  0  0  0  0  0  0  0  0
    6.0668  -11.5063   26.3535 C   0  0  0  0  0  0  0  0  0  0  0  0
    7.1734  -12.1894   25.5889 C   0  0  0  0  0  0  0  0  0  0  0  0
    7.4563  -13.5724   26.0183 C   0  0  2  0  0  0  0  0  0  0  0  0
    8.0221  -13.4966   27.4442 C   0  0  0  0  0  0  0  0  0  0  0  0
    8.3850  -14.3876   25.1956 C   0  0  2  0  0  0  0  0  0  0  0  0
    7.6706  -14.6062   23.9151 N   0  0  0  0  0  0  0  0  0  0  0  0
    8.7223  -15.7030   25.7219 C   0  0  0  0  0  0  0  0  0  0  0  0
    7.8053  -16.5767   25.8575 O   0  0  0  0  0  0  0  0  0  0  0  0
   13.9390  -19.7792   24.4936 C   0  0  0  0  0  0  0  0  0  0  0  0
   13.7248  -19.7222   26.2724 S   0  0  0  0  0  0  0  0  0  0  0  0
   12.0754  -19.2063   26.7532 C   0  0  0  0  0  0  0  0  0  0  0  0
   11.6926  -17.8741   26.1712 C   0  0  0  0  0  0  0  0  0  0  0  0
   10.3073  -17.4266   26.5821 C   0  0  2  0  0  0  0  0  0  0  0  0
   10.0153  -16.0912   26.0981 N   0  0  0  0  0  0  0  0  0  0  0  0
   10.2790  -17.4176   28.0543 C   0  0  0  0  0  0  0  0  0  0  0  0
   10.0656  -18.6008   28.7354 O   0  0  0  0  0  0  0  0  0  0  0  0
   10.4402  -16.3785   28.7479 O   0  0  0  0  0  0  0  0  0  0  0  0
  2  3  1  0
  2  1  1  6
  4  2  1  0
  4  5  1  6
  6 13  1  0
  6  4  1  0
  7  6  2  0
  8  9  1  0
  9 10  1  0
 10 12  1  0
 10 11  1  1
 12 13  1  6
 14 15  2  0
 14 12  1  0
 16 17  1  0
 18 17  1  0
 18 19  1  0
 20 19  1  1
 20 21  1  0
 21 14  1  0
 22 20  1  0
 23 22  1  0
 24 22  2  0
M  END
$$$$
