TIM.pdb
     RDKit          3D

 24 23  0  0  1  0  0  0  0  0999 V2000
    8.2198  -19.7352   20.7741 C   0  0  0  0  0  0  0  0  0  0  0  0
    9.5778  -19.3498   20.2553 C   0  0  1  0  0  0  0  0  0  0  0  0
   10.1792  -20.4291   19.6029 O   0  0  0  0  0  0  0  0  0  0  0  0
    9.4782  -18.1590   19.3567 C   0  0  2  0  0  0  0  0  0  0  0  0
   10.3703  -18.2093   18.2319 N   0  0  0  0  0  0  0  0  0  0  0  0
    9.6637  -16.9081   20.1554 C   0  0  0  0  0  0  0  0  0  0  0  0
   10.8217  -16.4405   20.3846 O   0  0  0  0  0  0  0  0  0  0  0  0
    7.1091  -12.3891   19.2078 C   0  0  0  0  0  0  0  0  0  0  0  0
    8.1477  -13.3653   19.7022 C   0  0  0  0  0  0  0  0  0  0  0  0
    7.8438  -13.9786   21.0094 C   0  0  2  0  0  0  0  0  0  0  0  0
    7.7551  -12.8383   22.0345 C   0  0  0  0  0  0  0  0  0  0  0  0
    8.7779  -15.0039   21.5387 C   0  0  2  0  0  0  0  0  0  0  0  0
    8.5597  -16.1970   20.6862 N   0  0  0  0  0  0  0  0  0  0  0  0
    8.5581  -15.4221   22.9163 C   0  0  0  0  0  0  0  0  0  0  0  0
    7.4447  -15.9495   23.2400 O   0  0  0  0  0  0  0  0  0  0  0  0
    6.8339  -11.0009   26.7251 C   0  0  0  0  0  0  0  0  0  0  0  0
    6.1990  -12.6601   26.9642 S   0  0  0  0  0  0  0  0  0  0  0  0
    7.4758  -13.9135   26.8344 C   0  0  0  0  0  0  0  0  0  0  0  0
    7.9418  -14.1210   25.4202 C   0  0  0  0  0  0  0  0  0  0  0  0
    9.1213  -15.0628   25.3197 C   0  0  2  0  0  0  0  0  0  0  0  0
    9.5059  -15.2867   23.9395 N   0  0  0  0  0  0  0  0  0  0  0  0
    8.6988  -16.3433   25.9112 C   0  0  0  0  0  0  0  0  0  0  0  0
    8.6222  -17.4672   25.1109 O   0  0  0  0  0  0  0  0  0  0  0  0
    8.3961  -16.4835   27.1259 O   0  0  0  0  0  0  0  0  0  0  0  0
  2  3  1  0
  2  1  1  6
  4  2  1  0
  4  5  1  6
  6 13  1  0
  6  4  1  0
  7  6  2  0
  8  9  1  0
  9 10  1  0
 10 12  1  0
 10 11  1  1
 12 13  1  6
 14 15  2  0
 14 12  1  0
 16 17  1  0
 18 17  1  0
 18 19  1  0
 20 19  1  6
 20 21  1  0
 21 14  1  0
 22 20  1  0
 23 22  1  0
 24 22  2  0
M  END
$$$$
