TIM.pdb
     RDKit          3D

 24 23  0  0  1  0  0  0  0  0999 V2000
    7.0134  -17.0627   21.3834 C   0  0  0  0  0  0  0  0  0  0  0  0
    7.7589  -16.1522   20.4469 C   0  0  1  0  0  0  0  0  0  0  0  0
    7.3884  -16.3992   19.1225 O   0  0  0  0  0  0  0  0  0  0  0  0
    7.5340  -14.7210   20.8160 C   0  0  2  0  0  0  0  0  0  0  0  0
    7.9783  -13.7909   19.8154 N   0  0  0  0  0  0  0  0  0  0  0  0
    8.1544  -14.4405   22.1476 C   0  0  0  0  0  0  0  0  0  0  0  0
    9.3736  -14.0994   22.2458 O   0  0  0  0  0  0  0  0  0  0  0  0
    5.4103  -11.8234   26.0132 C   0  0  0  0  0  0  0  0  0  0  0  0
    6.5887  -12.3102   25.2066 C   0  0  0  0  0  0  0  0  0  0  0  0
    7.0117  -13.6918   25.5059 C   0  0  2  0  0  0  0  0  0  0  0  0
    7.5009  -13.7098   26.9617 C   0  0  0  0  0  0  0  0  0  0  0  0
    8.0647  -14.3037   24.6571 C   0  0  2  0  0  0  0  0  0  0  0  0
    7.4104  -14.5433   23.3485 N   0  0  0  0  0  0  0  0  0  0  0  0
    8.5888  -15.5852   25.1090 C   0  0  0  0  0  0  0  0  0  0  0  0
    7.9684  -16.6562   24.8082 O   0  0  0  0  0  0  0  0  0  0  0  0
   10.9812  -14.1919   29.8135 C   0  0  0  0  0  0  0  0  0  0  0  0
   10.8465  -14.8768   28.1625 S   0  0  0  0  0  0  0  0  0  0  0  0
   11.8954  -16.3121   27.9224 C   0  0  0  0  0  0  0  0  0  0  0  0
   11.8460  -16.8364   26.5144 C   0  0  0  0  0  0  0  0  0  0  0  0
   10.4347  -17.0084   25.9979 C   0  0  2  0  0  0  0  0  0  0  0  0
    9.7574  -15.7327   25.8683 N   0  0  0  0  0  0  0  0  0  0  0  0
    9.7152  -17.8328   26.9832 C   0  0  0  0  0  0  0  0  0  0  0  0
   10.1006  -19.1453   27.1794 O   0  0  0  0  0  0  0  0  0  0  0  0
    8.7503  -17.4099   27.6738 O   0  0  0  0  0  0  0  0  0  0  0  0
  2  3  1  0
  2  1  1  1
  4  2  1  0
  4  5  1  6
  6 13  1  0
  6  4  1  0
  7  6  2  0
  8  9  1  0
  9 10  1  0
 10 12  1  0
 10 11  1  1
 12 13  1  6
 14 15  2  0
 14 12  1  0
 16 17  1  0
 18 17  1  0
 18 19  1  0
 20 19  1  1
 20 21  1  0
 21 14  1  0
 22 20  1  0
 23 22  1  0
 24 22  2  0
M  END
$$$$
