TIM.pdb
     RDKit          3D

 24 23  0  0  1  0  0  0  0  0999 V2000
    4.7220  -19.5808   21.0672 C   0  0  0  0  0  0  0  0  0  0  0  0
    5.9180  -18.6787   21.2009 C   0  0  1  0  0  0  0  0  0  0  0  0
    7.0261  -19.3961   21.6586 O   0  0  0  0  0  0  0  0  0  0  0  0
    6.2102  -17.9981   19.9022 C   0  0  2  0  0  0  0  0  0  0  0  0
    6.4737  -18.9072   18.8215 N   0  0  0  0  0  0  0  0  0  0  0  0
    7.3251  -17.0183   20.0863 C   0  0  0  0  0  0  0  0  0  0  0  0
    8.5192  -17.3152   19.7727 O   0  0  0  0  0  0  0  0  0  0  0  0
    7.0345  -12.1802   18.3717 C   0  0  0  0  0  0  0  0  0  0  0  0
    7.6538  -13.4647   18.8644 C   0  0  0  0  0  0  0  0  0  0  0  0
    7.8733  -13.5233   20.3223 C   0  0  2  0  0  0  0  0  0  0  0  0
    8.9871  -12.5186   20.6528 C   0  0  0  0  0  0  0  0  0  0  0  0
    8.2358  -14.8300   20.9264 C   0  0  2  0  0  0  0  0  0  0  0  0
    7.0954  -15.7248   20.6157 N   0  0  0  0  0  0  0  0  0  0  0  0
    8.4027  -14.8438   22.3731 C   0  0  0  0  0  0  0  0  0  0  0  0
    7.7194  -14.0423   23.0895 O   0  0  0  0  0  0  0  0  0  0  0  0
    5.9352  -12.4896   27.1060 C   0  0  0  0  0  0  0  0  0  0  0  0
    6.8071  -14.0515   26.9911 S   0  0  0  0  0  0  0  0  0  0  0  0
    7.6951  -14.2346   25.4432 C   0  0  0  0  0  0  0  0  0  0  0  0
    8.4179  -15.5489   25.3423 C   0  0  0  0  0  0  0  0  0  0  0  0
    9.6342  -15.4861   24.4452 C   0  0  2  0  0  0  0  0  0  0  0  0
    9.2802  -15.6977   23.0549 N   0  0  0  0  0  0  0  0  0  0  0  0
   10.5407  -16.5636   24.8762 C   0  0  0  0  0  0  0  0  0  0  0  0
   11.2629  -16.4148   26.0448 O   0  0  0  0  0  0  0  0  0  0  0  0
   10.7038  -17.6352   24.2346 O   0  0  0  0  0  0  0  0  0  0  0  0
  2  3  1  0
  2  1  1  6
  4  2  1  0
  4  5  1  6
  6 13  1  0
  6  4  1  0
  7  6  2  0
  8  9  1  0
  9 10  1  0
 10 12  1  0
 10 11  1  6
 12 13  1  1
 14 15  2  0
 14 12  1  0
 16 17  1  0
 18 17  1  0
 18 19  1  0
 20 19  1  1
 20 21  1  0
 21 14  1  0
 22 20  1  0
 23 22  1  0
 24 22  2  0
M  END
$$$$
