TIM.pdb
     RDKit          3D

 24 23  0  0  1  0  0  0  0  0999 V2000
    8.9933  -19.0579   19.6909 C   0  0  0  0  0  0  0  0  0  0  0  0
    9.3197  -18.2223   20.8981 C   0  0  1  0  0  0  0  0  0  0  0  0
   10.5769  -18.5610   21.4049 O   0  0  0  0  0  0  0  0  0  0  0  0
    9.2421  -16.7667   20.5658 C   0  0  2  0  0  0  0  0  0  0  0  0
   10.0744  -16.3827   19.4597 N   0  0  0  0  0  0  0  0  0  0  0  0
    9.5347  -15.9547   21.7872 C   0  0  0  0  0  0  0  0  0  0  0  0
   10.6195  -15.3043   21.8997 O   0  0  0  0  0  0  0  0  0  0  0  0
    6.1362  -12.7449   25.6067 C   0  0  0  0  0  0  0  0  0  0  0  0
    7.5141  -13.3002   25.3439 C   0  0  0  0  0  0  0  0  0  0  0  0
    7.5613  -14.3834   24.3431 C   0  0  2  0  0  0  0  0  0  0  0  0
    6.6484  -15.5091   24.8515 C   0  0  0  0  0  0  0  0  0  0  0  0
    8.8814  -14.9746   24.0092 C   0  0  2  0  0  0  0  0  0  0  0  0
    8.6174  -15.8782   22.8638 N   0  0  0  0  0  0  0  0  0  0  0  0
    9.5050  -15.7809   25.0494 C   0  0  0  0  0  0  0  0  0  0  0  0
    9.4652  -17.0512   24.9646 O   0  0  0  0  0  0  0  0  0  0  0  0
   11.0097  -13.5786   31.0919 C   0  0  0  0  0  0  0  0  0  0  0  0
   11.8327  -15.1710   31.0821 S   0  0  0  0  0  0  0  0  0  0  0  0
   11.4503  -16.1372   29.6199 C   0  0  0  0  0  0  0  0  0  0  0  0
   11.0416  -15.2832   28.4521 C   0  0  0  0  0  0  0  0  0  0  0  0
   10.6845  -16.0927   27.2252 C   0  0  2  0  0  0  0  0  0  0  0  0
   10.1657  -15.2499   26.1653 N   0  0  0  0  0  0  0  0  0  0  0  0
    9.6393  -17.0472   27.6310 C   0  0  0  0  0  0  0  0  0  0  0  0
    9.9753  -18.3707   27.8433 O   0  0  0  0  0  0  0  0  0  0  0  0
    8.4325  -16.7285   27.8006 O   0  0  0  0  0  0  0  0  0  0  0  0
  2  3  1  0
  2  1  1  6
  4  2  1  0
  4  5  1  6
  6 13  1  0
  6  4  1  0
  7  6  2  0
  8  9  1  0
  9 10  1  0
 10 12  1  0
 10 11  1  1
 12 13  1  6
 14 15  2  0
 14 12  1  0
 16 17  1  0
 18 17  1  0
 18 19  1  0
 20 19  1  1
 20 21  1  0
 21 14  1  0
 22 20  1  0
 23 22  1  0
 24 22  2  0
M  END
$$$$
