FIY.pdb
     RDKit          3D

 32 33  0  0  1  0  0  0  0  0999 V2000
   10.0586  -14.5912   20.7453 N   0  0  0  0  0  0  0  0  0  0  0  0
    8.8068  -14.4852   21.4654 C   0  0  1  0  0  0  0  0  0  0  0  0
    7.8290  -15.4267   20.7997 C   0  0  0  0  0  0  0  0  0  0  0  0
    7.4849  -14.8781   19.4630 C   0  0  0  0  0  0  0  0  0  0  0  0
    8.0384  -15.3891   18.2954 C   0  0  0  0  0  0  0  0  0  0  0  0
    7.6971  -14.8561   17.0688 C   0  0  0  0  0  0  0  0  0  0  0  0
    6.8034  -13.8074   16.9567 C   0  0  0  0  0  0  0  0  0  0  0  0
    6.2506  -13.2960   18.1128 C   0  0  0  0  0  0  0  0  0  0  0  0
    6.5952  -13.8321   19.3324 C   0  0  0  0  0  0  0  0  0  0  0  0
    9.0190  -14.7859   22.8833 C   0  0  0  0  0  0  0  0  0  0  0  0
    9.9271  -15.6241   23.1899 O   0  0  0  0  0  0  0  0  0  0  0  0
    6.5206  -11.3838   26.2983 C   0  0  0  0  0  0  0  0  0  0  0  0
    7.7434  -12.1078   25.7760 C   0  0  0  0  0  0  0  0  0  0  0  0
    7.7122  -13.5725   26.2020 C   0  0  2  0  0  0  0  0  0  0  0  0
    8.0597  -13.6764   27.6640 C   0  0  0  0  0  0  0  0  0  0  0  0
    8.6741  -14.3944   25.3745 C   0  0  2  0  0  0  0  0  0  0  0  0
    8.3009  -14.2248   23.9485 N   0  0  0  0  0  0  0  0  0  0  0  0
    8.5163  -15.8198   25.7335 C   0  0  0  0  0  0  0  0  0  0  0  0
    7.9374  -16.6070   24.8939 O   0  0  0  0  0  0  0  0  0  0  0  0
   11.4782  -18.4321   20.8388 O   0  0  0  0  0  0  0  0  0  0  0  0
   11.3991  -18.1041   22.1836 C   0  0  0  0  0  0  0  0  0  0  0  0
   10.4920  -18.7780   22.9629 C   0  0  0  0  0  0  0  0  0  0  0  0
   10.3858  -18.4780   24.3054 C   0  0  0  0  0  0  0  0  0  0  0  0
   11.1918  -17.5027   24.8551 C   0  0  0  0  0  0  0  0  0  0  0  0
   11.1133  -17.1469   26.2663 C   0  0  0  0  0  0  0  0  0  0  0  0
    9.8380  -17.6090   26.9002 C   0  0  2  0  0  0  0  0  0  0  0  0
    8.9413  -16.4437   26.9197 N   0  0  0  0  0  0  0  0  0  0  0  0
   10.1023  -18.0982   28.2603 C   0  0  0  0  0  0  0  0  0  0  0  0
   10.3738  -19.3157   28.5253 O   0  0  0  0  0  0  0  0  0  0  0  0
   12.1065  -16.8309   24.0436 C   0  0  0  0  0  0  0  0  0  0  0  0
   12.2095  -17.1310   22.7121 C   0  0  0  0  0  0  0  0  0  0  0  0
   10.0663  -17.2269   29.3248 O   0  0  0  0  0  0  0  0  0  0  0  0
  2  1  1  6
  3  2  1  0
  4  3  1  0
  4  5  2  0
  6  5  1  0
  7  6  2  0
  8  9  2  0
  8  7  1  0
  9  4  1  0
 10  2  1  0
 10 17  1  0
 11 10  2  0
 13 12  1  0
 13 14  1  0
 14 15  1  1
 16 14  1  0
 16 17  1  6
 18 16  1  0
 19 18  2  0
 20 21  1  0
 21 22  2  0
 21 31  1  0
 22 23  1  0
 23 24  2  0
 24 25  1  0
 26 25  1  1
 26 28  1  0
 26 27  1  0
 27 18  1  0
 28 32  1  0
 29 28  2  0
 30 24  1  0
 31 30  2  0
M  END
$$$$
