FIY.pdb
     RDKit          3D

 32 33  0  0  1  0  0  0  0  0999 V2000
    5.9123  -18.0954   24.7447 N   0  0  0  0  0  0  0  0  0  0  0  0
    6.3510  -16.7174   24.6713 C   0  0  1  0  0  0  0  0  0  0  0  0
    6.7420  -16.2994   26.0706 C   0  0  0  0  0  0  0  0  0  0  0  0
    6.7410  -14.8154   26.1348 C   0  0  0  0  0  0  0  0  0  0  0  0
    7.9119  -14.0754   26.0250 C   0  0  0  0  0  0  0  0  0  0  0  0
    7.8760  -12.6970   26.0888 C   0  0  0  0  0  0  0  0  0  0  0  0
    6.6893  -12.0094   26.2622 C   0  0  0  0  0  0  0  0  0  0  0  0
    5.5234  -12.7391   26.3719 C   0  0  0  0  0  0  0  0  0  0  0  0
    5.5665  -14.1130   26.3073 C   0  0  0  0  0  0  0  0  0  0  0  0
    7.4468  -16.5925   23.7073 C   0  0  0  0  0  0  0  0  0  0  0  0
    8.2965  -17.5384   23.6383 O   0  0  0  0  0  0  0  0  0  0  0  0
    8.0093  -11.9306   20.4949 C   0  0  0  0  0  0  0  0  0  0  0  0
    8.4514  -13.0201   21.4488 C   0  0  0  0  0  0  0  0  0  0  0  0
    8.2926  -14.3900   20.7962 C   0  0  2  0  0  0  0  0  0  0  0  0
    6.8703  -14.5608   20.3302 C   0  0  0  0  0  0  0  0  0  0  0  0
    8.6642  -15.4925   21.7614 C   0  0  2  0  0  0  0  0  0  0  0  0
    7.6465  -15.5087   22.8410 N   0  0  0  0  0  0  0  0  0  0  0  0
    9.9785  -15.1796   22.3616 C   0  0  0  0  0  0  0  0  0  0  0  0
   10.3205  -13.9439   22.4881 O   0  0  0  0  0  0  0  0  0  0  0  0
   11.8525  -15.0387   30.4141 O   0  0  0  0  0  0  0  0  0  0  0  0
   11.4695  -15.2549   29.0993 C   0  0  0  0  0  0  0  0  0  0  0  0
   11.2875  -16.5499   28.6818 C   0  0  0  0  0  0  0  0  0  0  0  0
   10.9065  -16.8027   27.3800 C   0  0  0  0  0  0  0  0  0  0  0  0
   10.7112  -15.7525   26.5072 C   0  0  0  0  0  0  0  0  0  0  0  0
   10.3133  -15.9690   25.1219 C   0  0  0  0  0  0  0  0  0  0  0  0
   11.4861  -16.0082   24.1919 C   0  0  2  0  0  0  0  0  0  0  0  0
   10.9318  -16.0994   22.8329 N   0  0  0  0  0  0  0  0  0  0  0  0
   12.3316  -17.1699   24.4994 C   0  0  0  0  0  0  0  0  0  0  0  0
   11.9982  -18.3698   24.2253 O   0  0  0  0  0  0  0  0  0  0  0  0
   10.9020  -14.4447   26.9539 C   0  0  0  0  0  0  0  0  0  0  0  0
   11.2800  -14.1971   28.2460 C   0  0  0  0  0  0  0  0  0  0  0  0
   13.5515  -16.9915   25.1106 O   0  0  0  0  0  0  0  0  0  0  0  0
  2  1  1  1
  3  2  1  0
  4  3  1  0
  4  5  2  0
  6  5  1  0
  7  6  2  0
  8  9  2  0
  8  7  1  0
  9  4  1  0
 10  2  1  0
 10 17  1  0
 11 10  2  0
 13 12  1  0
 13 14  1  0
 14 15  1  1
 16 14  1  0
 16 17  1  1
 18 16  1  0
 19 18  2  0
 20 21  1  0
 21 22  2  0
 21 31  1  0
 22 23  1  0
 23 24  2  0
 24 25  1  0
 26 25  1  1
 26 28  1  0
 26 27  1  0
 27 18  1  0
 28 32  1  0
 29 28  2  0
 30 24  1  0
 31 30  2  0
M  END
$$$$
