FIY.pdb
     RDKit          3D

 32 33  0  0  1  0  0  0  0  0999 V2000
    5.2879  -18.6427   23.3774 N   0  0  0  0  0  0  0  0  0  0  0  0
    5.8626  -17.4057   23.8637 C   0  0  1  0  0  0  0  0  0  0  0  0
    6.1136  -17.5830   25.3440 C   0  0  0  0  0  0  0  0  0  0  0  0
    6.5700  -16.2842   25.9017 C   0  0  0  0  0  0  0  0  0  0  0  0
    7.8739  -16.0922   26.3418 C   0  0  0  0  0  0  0  0  0  0  0  0
    8.2658  -14.8722   26.8550 C   0  0  0  0  0  0  0  0  0  0  0  0
    7.3875  -13.8089   26.9492 C   0  0  0  0  0  0  0  0  0  0  0  0
    6.0913  -13.9937   26.5136 C   0  0  0  0  0  0  0  0  0  0  0  0
    5.7074  -15.2126   26.0031 C   0  0  0  0  0  0  0  0  0  0  0  0
    7.0773  -17.0885   23.1092 C   0  0  0  0  0  0  0  0  0  0  0  0
    7.7696  -18.0545   22.6519 O   0  0  0  0  0  0  0  0  0  0  0  0
    7.1572  -12.3119   20.5502 C   0  0  0  0  0  0  0  0  0  0  0  0
    7.3377  -13.7982   20.7752 C   0  0  0  0  0  0  0  0  0  0  0  0
    8.6290  -14.0632   21.5434 C   0  0  2  0  0  0  0  0  0  0  0  0
    9.8088  -13.6984   20.6807 C   0  0  0  0  0  0  0  0  0  0  0  0
    8.7164  -15.5121   21.9660 C   0  0  2  0  0  0  0  0  0  0  0  0
    7.5529  -15.7973   22.8415 N   0  0  0  0  0  0  0  0  0  0  0  0
    9.9529  -15.7070   22.7524 C   0  0  0  0  0  0  0  0  0  0  0  0
   11.0887  -15.5365   22.1686 O   0  0  0  0  0  0  0  0  0  0  0  0
    8.6648  -11.4487   27.8101 O   0  0  0  0  0  0  0  0  0  0  0  0
    9.2778  -12.6297   27.4204 C   0  0  0  0  0  0  0  0  0  0  0  0
    8.4796  -13.7023   27.1094 C   0  0  0  0  0  0  0  0  0  0  0  0
    9.0550  -14.8935   26.7175 C   0  0  0  0  0  0  0  0  0  0  0  0
   10.4284  -14.9984   26.6413 C   0  0  0  0  0  0  0  0  0  0  0  0
   11.0829  -16.2364   26.2374 C   0  0  0  0  0  0  0  0  0  0  0  0
   11.3404  -16.2901   24.7634 C   0  0  2  0  0  0  0  0  0  0  0  0
   10.0429  -16.0631   24.1096 N   0  0  0  0  0  0  0  0  0  0  0  0
   11.8965  -17.6003   24.3987 C   0  0  0  0  0  0  0  0  0  0  0  0
   11.3046  -18.4195   23.6211 O   0  0  0  0  0  0  0  0  0  0  0  0
   11.2195  -13.8950   26.9621 C   0  0  0  0  0  0  0  0  0  0  0  0
   10.6456  -12.7145   27.3504 C   0  0  0  0  0  0  0  0  0  0  0  0
   13.1157  -17.9949   24.9002 O   0  0  0  0  0  0  0  0  0  0  0  0
  2  1  1  6
  3  2  1  0
  4  3  1  0
  4  5  2  0
  6  5  1  0
  7  6  2  0
  8  9  2  0
  8  7  1  0
  9  4  1  0
 10  2  1  0
 10 17  1  0
 11 10  2  0
 13 12  1  0
 13 14  1  0
 14 15  1  6
 16 14  1  0
 16 17  1  1
 18 16  1  0
 19 18  2  0
 20 21  1  0
 21 22  2  0
 21 31  1  0
 22 23  1  0
 23 24  2  0
 24 25  1  0
 26 25  1  1
 26 28  1  0
 26 27  1  0
 27 18  1  0
 28 32  1  0
 29 28  2  0
 30 24  1  0
 31 30  2  0
M  END
$$$$
