FIY.pdb
     RDKit          3D

 32 33  0  0  1  0  0  0  0  0999 V2000
    7.6212  -16.9955   16.7573 N   0  0  0  0  0  0  0  0  0  0  0  0
    8.0745  -16.0736   17.7779 C   0  0  1  0  0  0  0  0  0  0  0  0
    7.0016  -15.0201   17.9348 C   0  0  0  0  0  0  0  0  0  0  0  0
    7.3340  -14.1838   19.1164 C   0  0  0  0  0  0  0  0  0  0  0  0
    8.1823  -13.0872   19.0240 C   0  0  0  0  0  0  0  0  0  0  0  0
    8.4706  -12.3307   20.1420 C   0  0  0  0  0  0  0  0  0  0  0  0
    7.9335  -12.6313   21.3798 C   0  0  0  0  0  0  0  0  0  0  0  0
    7.0905  -13.7192   21.4775 C   0  0  0  0  0  0  0  0  0  0  0  0
    6.8073  -14.4691   20.3589 C   0  0  0  0  0  0  0  0  0  0  0  0
    8.3524  -16.7997   19.0193 C   0  0  0  0  0  0  0  0  0  0  0  0
    7.3852  -17.3928   19.5973 O   0  0  0  0  0  0  0  0  0  0  0  0
   11.9465  -20.0614   18.8861 C   0  0  0  0  0  0  0  0  0  0  0  0
   10.7410  -19.7044   19.7297 C   0  0  0  0  0  0  0  0  0  0  0  0
   11.0704  -18.5364   20.6543 C   0  0  2  0  0  0  0  0  0  0  0  0
   11.5876  -19.0665   21.9661 C   0  0  0  0  0  0  0  0  0  0  0  0
    9.8526  -17.6700   20.8822 C   0  0  2  0  0  0  0  0  0  0  0  0
    9.6067  -16.9015   19.6371 N   0  0  0  0  0  0  0  0  0  0  0  0
   10.1428  -16.7147   21.9724 C   0  0  0  0  0  0  0  0  0  0  0  0
   11.1634  -15.9372   21.8562 O   0  0  0  0  0  0  0  0  0  0  0  0
   10.7961  -14.1155   30.3563 O   0  0  0  0  0  0  0  0  0  0  0  0
   10.3375  -14.5695   29.1292 C   0  0  0  0  0  0  0  0  0  0  0  0
    9.9578  -13.6387   28.1944 C   0  0  0  0  0  0  0  0  0  0  0  0
    9.4964  -14.0542   26.9623 C   0  0  0  0  0  0  0  0  0  0  0  0
    9.4196  -15.4019   26.6785 C   0  0  0  0  0  0  0  0  0  0  0  0
    8.9345  -15.8898   25.3936 C   0  0  0  0  0  0  0  0  0  0  0  0
   10.0156  -15.9419   24.3591 C   0  0  2  0  0  0  0  0  0  0  0  0
    9.4108  -16.5419   23.1605 N   0  0  0  0  0  0  0  0  0  0  0  0
   11.1397  -16.7518   24.8484 C   0  0  0  0  0  0  0  0  0  0  0  0
   11.0546  -18.0046   25.0709 O   0  0  0  0  0  0  0  0  0  0  0  0
    9.8110  -16.3297   27.6441 C   0  0  0  0  0  0  0  0  0  0  0  0
   10.2685  -15.9144   28.8655 C   0  0  0  0  0  0  0  0  0  0  0  0
   12.3604  -16.1631   25.0869 O   0  0  0  0  0  0  0  0  0  0  0  0
  2  1  1  6
  3  2  1  0
  4  3  1  0
  4  5  2  0
  6  5  1  0
  7  6  2  0
  8  9  2  0
  8  7  1  0
  9  4  1  0
 10  2  1  0
 10 17  1  0
 11 10  2  0
 13 12  1  0
 13 14  1  0
 14 15  1  1
 16 14  1  0
 16 17  1  6
 18 16  1  0
 19 18  2  0
 20 21  1  0
 21 22  2  0
 21 31  1  0
 22 23  1  0
 23 24  2  0
 24 25  1  0
 26 25  1  1
 26 28  1  0
 26 27  1  0
 27 18  1  0
 28 32  1  0
 29 28  2  0
 30 24  1  0
 31 30  2  0
M  END
$$$$
