FIY.pdb
     RDKit          3D

 32 33  0  0  1  0  0  0  0  0999 V2000
    5.6574  -18.3122   25.4036 N   0  0  0  0  0  0  0  0  0  0  0  0
    6.4226  -18.4140   24.1785 C   0  0  1  0  0  0  0  0  0  0  0  0
    5.5673  -19.1604   23.1800 C   0  0  0  0  0  0  0  0  0  0  0  0
    5.2843  -20.5136   23.7230 C   0  0  0  0  0  0  0  0  0  0  0  0
    6.3022  -21.4062   24.0360 C   0  0  0  0  0  0  0  0  0  0  0  0
    6.0047  -22.6568   24.5391 C   0  0  0  0  0  0  0  0  0  0  0  0
    4.7001  -23.0633   24.7479 C   0  0  0  0  0  0  0  0  0  0  0  0
    3.6853  -22.1811   24.4389 C   0  0  0  0  0  0  0  0  0  0  0  0
    3.9889  -20.9359   23.9377 C   0  0  0  0  0  0  0  0  0  0  0  0
    6.8092  -17.0782   23.7184 C   0  0  0  0  0  0  0  0  0  0  0  0
    5.9995  -16.4440   22.9677 O   0  0  0  0  0  0  0  0  0  0  0  0
    6.3211  -13.2509   26.2806 C   0  0  0  0  0  0  0  0  0  0  0  0
    7.2459  -14.2897   25.6823 C   0  0  0  0  0  0  0  0  0  0  0  0
    7.3393  -14.1057   24.1706 C   0  0  2  0  0  0  0  0  0  0  0  0
    5.9832  -14.3298   23.5541 C   0  0  0  0  0  0  0  0  0  0  0  0
    8.3506  -15.0578   23.5738 C   0  0  2  0  0  0  0  0  0  0  0  0
    8.0089  -16.4259   24.0355 N   0  0  0  0  0  0  0  0  0  0  0  0
    9.6933  -14.7123   24.0868 C   0  0  0  0  0  0  0  0  0  0  0  0
    9.7908  -13.8123   25.0035 O   0  0  0  0  0  0  0  0  0  0  0  0
   10.6640  -14.4957   30.7161 O   0  0  0  0  0  0  0  0  0  0  0  0
   10.7614  -15.0505   29.4492 C   0  0  0  0  0  0  0  0  0  0  0  0
   10.2078  -14.3646   28.3970 C   0  0  0  0  0  0  0  0  0  0  0  0
   10.2857  -14.8866   27.1222 C   0  0  0  0  0  0  0  0  0  0  0  0
   10.9193  -16.0942   26.9140 C   0  0  0  0  0  0  0  0  0  0  0  0
   11.0230  -16.6885   25.5873 C   0  0  0  0  0  0  0  0  0  0  0  0
   11.8534  -15.8610   24.6558 C   0  0  2  0  0  0  0  0  0  0  0  0
   10.9198  -15.2705   23.6853 N   0  0  0  0  0  0  0  0  0  0  0  0
   12.8502  -16.7076   23.9860 C   0  0  0  0  0  0  0  0  0  0  0  0
   12.6756  -17.2102   22.8270 O   0  0  0  0  0  0  0  0  0  0  0  0
   11.4747  -16.7734   27.9987 C   0  0  0  0  0  0  0  0  0  0  0  0
   11.3958  -16.2528   29.2622 C   0  0  0  0  0  0  0  0  0  0  0  0
   14.0438  -16.9909   24.6093 O   0  0  0  0  0  0  0  0  0  0  0  0
  2  1  1  1
  3  2  1  0
  4  3  1  0
  4  5  2  0
  6  5  1  0
  7  6  2  0
  8  9  2  0
  8  7  1  0
  9  4  1  0
 10  2  1  0
 10 17  1  0
 11 10  2  0
 13 12  1  0
 13 14  1  0
 14 15  1  6
 16 14  1  0
 16 17  1  1
 18 16  1  0
 19 18  2  0
 20 21  1  0
 21 22  2  0
 21 31  1  0
 22 23  1  0
 23 24  2  0
 24 25  1  0
 26 25  1  1
 26 28  1  0
 26 27  1  0
 27 18  1  0
 28 32  1  0
 29 28  2  0
 30 24  1  0
 31 30  2  0
M  END
$$$$
