FIY.pdb
     RDKit          3D

 32 33  0  0  1  0  0  0  0  0999 V2000
   10.0581  -18.4653   16.6404 N   0  0  0  0  0  0  0  0  0  0  0  0
    9.1447  -18.4149   17.7628 C   0  0  1  0  0  0  0  0  0  0  0  0
    8.9801  -19.8306   18.2670 C   0  0  0  0  0  0  0  0  0  0  0  0
    8.1848  -20.5940   17.2715 C   0  0  0  0  0  0  0  0  0  0  0  0
    8.7721  -21.5189   16.4168 C   0  0  0  0  0  0  0  0  0  0  0  0
    8.0040  -22.2117   15.5028 C   0  0  0  0  0  0  0  0  0  0  0  0
    6.6394  -22.0145   15.4043 C   0  0  0  0  0  0  0  0  0  0  0  0
    6.0508  -21.0973   16.2506 C   0  0  0  0  0  0  0  0  0  0  0  0
    6.8224  -20.4101   17.1594 C   0  0  0  0  0  0  0  0  0  0  0  0
    9.6574  -17.4978   18.7835 C   0  0  0  0  0  0  0  0  0  0  0  0
   10.9186  -17.3504   18.8792 O   0  0  0  0  0  0  0  0  0  0  0  0
    6.9269  -12.9747   19.8048 C   0  0  0  0  0  0  0  0  0  0  0  0
    8.0545  -13.9594   19.5781 C   0  0  0  0  0  0  0  0  0  0  0  0
    8.3646  -14.7133   20.8678 C   0  0  2  0  0  0  0  0  0  0  0  0
    8.8206  -13.7376   21.9210 C   0  0  0  0  0  0  0  0  0  0  0  0
    9.4240  -15.7663   20.6344 C   0  0  2  0  0  0  0  0  0  0  0  0
    8.8720  -16.7568   19.6775 N   0  0  0  0  0  0  0  0  0  0  0  0
    9.7032  -16.4550   21.9123 C   0  0  0  0  0  0  0  0  0  0  0  0
    8.7330  -17.0470   22.5190 O   0  0  0  0  0  0  0  0  0  0  0  0
   13.4717  -21.2265   19.3548 O   0  0  0  0  0  0  0  0  0  0  0  0
   13.2490  -20.3955   20.4421 C   0  0  0  0  0  0  0  0  0  0  0  0
   11.9953  -20.3814   21.0010 C   0  0  0  0  0  0  0  0  0  0  0  0
   11.7374  -19.5666   22.0842 C   0  0  0  0  0  0  0  0  0  0  0  0
   12.7410  -18.7717   22.5977 C   0  0  0  0  0  0  0  0  0  0  0  0
   12.5162  -17.8911   23.7371 C   0  0  0  0  0  0  0  0  0  0  0  0
   11.1162  -17.3619   23.7805 C   0  0  2  0  0  0  0  0  0  0  0  0
   10.9443  -16.5505   22.5663 N   0  0  0  0  0  0  0  0  0  0  0  0
   10.9232  -16.5525   24.9915 C   0  0  0  0  0  0  0  0  0  0  0  0
   10.9661  -17.0365   26.1706 O   0  0  0  0  0  0  0  0  0  0  0  0
   14.0074  -18.8026   22.0132 C   0  0  0  0  0  0  0  0  0  0  0  0
   14.2602  -19.6121   20.9388 C   0  0  0  0  0  0  0  0  0  0  0  0
   10.6848  -15.2014   24.8862 O   0  0  0  0  0  0  0  0  0  0  0  0
  2  1  1  6
  3  2  1  0
  4  3  1  0
  4  5  2  0
  6  5  1  0
  7  6  2  0
  8  9  2  0
  8  7  1  0
  9  4  1  0
 10  2  1  0
 10 17  1  0
 11 10  2  0
 13 12  1  0
 13 14  1  0
 14 15  1  1
 16 14  1  0
 16 17  1  6
 18 16  1  0
 19 18  2  0
 20 21  1  0
 21 22  2  0
 21 31  1  0
 22 23  1  0
 23 24  2  0
 24 25  1  0
 26 25  1  1
 26 28  1  0
 26 27  1  0
 27 18  1  0
 28 32  1  0
 29 28  2  0
 30 24  1  0
 31 30  2  0
M  END
$$$$
