NNP.pdb
     RDKit          3D

 24 24  0  0  1  0  0  0  0  0999 V2000
    9.2262  -14.6101   17.1561 N   0  0  0  0  0  0  0  0  0  0  0  0
    8.1253  -13.7961   17.5948 C   0  0  0  0  0  0  0  0  0  0  0  0
    7.6651  -12.9730   16.8005 O   0  0  0  0  0  0  0  0  0  0  0  0
    7.6295  -13.9921   18.9316 C   0  0  0  0  0  0  0  0  0  0  0  0
    8.3136  -15.0162   19.7916 C   0  0  2  0  0  0  0  0  0  0  0  0
    7.7424  -16.3081   19.2008 N   0  0  0  0  0  0  0  0  0  0  0  0
    7.7878  -14.9995   21.1713 C   0  0  0  0  0  0  0  0  0  0  0  0
    6.4982  -15.0175   21.3457 O   0  0  0  0  0  0  0  0  0  0  0  0
    7.2833  -17.9060   25.6088 N   0  0  0  0  0  0  0  0  0  0  0  0
    6.6087  -16.8403   24.9239 C   0  0  0  0  0  0  0  0  0  0  0  0
    5.6374  -16.2341   25.4476 O   0  0  0  0  0  0  0  0  0  0  0  0
    7.1131  -16.4906   23.5712 C   0  0  0  0  0  0  0  0  0  0  0  0
    7.8465  -15.1292   23.6653 C   0  0  2  0  0  0  0  0  0  0  0  0
    8.4862  -14.9768   22.4008 N   0  0  0  0  0  0  0  0  0  0  0  0
    8.5799  -15.0373   24.9033 C   0  0  0  0  0  0  0  0  0  0  0  0
    9.7828  -15.5835   24.9034 O   0  0  0  0  0  0  0  0  0  0  0  0
    8.2520  -14.4642   26.1403 N   0  0  0  0  0  0  0  0  0  0  0  0
    6.9295  -14.1787   26.6519 C   0  0  0  0  0  0  0  0  0  0  0  0
    7.1182  -12.9143   27.4378 C   0  0  0  0  0  0  0  0  0  0  0  0
    8.5902  -12.6324   27.4833 C   0  0  0  0  0  0  0  0  0  0  0  0
    9.1705  -14.0169   27.1453 C   0  0  1  0  0  0  0  0  0  0  0  0
    9.0962  -14.8054   28.3861 C   0  0  0  0  0  0  0  0  0  0  0  0
    8.3597  -15.8073   28.4961 O   0  0  0  0  0  0  0  0  0  0  0  0
    9.8527  -14.4742   29.5230 O   0  0  0  0  0  0  0  0  0  0  0  0
  1  2  1  0
  2  3  2  0
  4  2  1  0
  5  4  1  0
  5  6  1  6
  7  8  2  0
  7  5  1  0
  9 10  1  0
 10 11  2  0
 10 12  1  0
 13 12  1  6
 13 15  1  0
 13 14  1  0
 14  7  1  0
 15 17  1  0
 16 15  2  0
 17 18  1  0
 19 18  1  0
 20 21  1  0
 20 19  1  0
 21 17  1  0
 21 22  1  1
 22 23  2  0
 22 24  1  0
M  END
$$$$
