NNP.pdb
     RDKit          3D

 24 24  0  0  1  0  0  0  0  0999 V2000
    9.2423  -13.7246   17.5019 N   0  0  0  0  0  0  0  0  0  0  0  0
    7.9530  -13.3040   17.9791 C   0  0  0  0  0  0  0  0  0  0  0  0
    7.1419  -12.8827   17.1516 O   0  0  0  0  0  0  0  0  0  0  0  0
    7.6893  -13.4007   19.3906 C   0  0  0  0  0  0  0  0  0  0  0  0
    8.7890  -13.9112   20.2774 C   0  0  2  0  0  0  0  0  0  0  0  0
    9.0265  -15.2943   19.6650 N   0  0  0  0  0  0  0  0  0  0  0  0
    8.2916  -14.2101   21.6352 C   0  0  0  0  0  0  0  0  0  0  0  0
    7.8922  -13.2225   22.3827 O   0  0  0  0  0  0  0  0  0  0  0  0
    5.7173  -16.8385   25.7511 N   0  0  0  0  0  0  0  0  0  0  0  0
    6.9852  -17.2778   25.2417 C   0  0  0  0  0  0  0  0  0  0  0  0
    7.8255  -17.8551   25.9805 O   0  0  0  0  0  0  0  0  0  0  0  0
    7.2540  -17.0178   23.8041 C   0  0  0  0  0  0  0  0  0  0  0  0
    7.8145  -15.5799   23.6690 C   0  0  2  0  0  0  0  0  0  0  0  0
    8.1591  -15.4558   22.2916 N   0  0  0  0  0  0  0  0  0  0  0  0
    8.7671  -15.3107   24.7174 C   0  0  0  0  0  0  0  0  0  0  0  0
   10.0229  -15.6219   24.4499 O   0  0  0  0  0  0  0  0  0  0  0  0
    8.6117  -14.7674   26.0007 N   0  0  0  0  0  0  0  0  0  0  0  0
    7.3735  -14.4145   26.6599 C   0  0  0  0  0  0  0  0  0  0  0  0
    7.7328  -13.1986   27.4628 C   0  0  0  0  0  0  0  0  0  0  0  0
    9.2179  -13.0187   27.3601 C   0  0  0  0  0  0  0  0  0  0  0  0
    9.6596  -14.4243   26.9161 C   0  0  1  0  0  0  0  0  0  0  0  0
    9.6590  -15.2557   28.1308 C   0  0  0  0  0  0  0  0  0  0  0  0
   10.3891  -15.0037   29.1115 O   0  0  0  0  0  0  0  0  0  0  0  0
    8.8336  -16.3859   28.2568 O   0  0  0  0  0  0  0  0  0  0  0  0
  1  2  1  0
  2  3  2  0
  4  2  1  0
  5  4  1  0
  5  6  1  6
  7  8  2  0
  7  5  1  0
  9 10  1  0
 10 11  2  0
 10 12  1  0
 13 12  1  6
 13 15  1  0
 13 14  1  0
 14  7  1  0
 15 17  1  0
 16 15  2  0
 17 18  1  0
 19 18  1  0
 20 21  1  0
 20 19  1  0
 21 17  1  0
 21 22  1  1
 22 23  2  0
 22 24  1  0
M  END
$$$$
