NNP.pdb
     RDKit          3D

 24 24  0  0  1  0  0  0  0  0999 V2000
    6.7948  -13.1239   17.0653 N   0  0  0  0  0  0  0  0  0  0  0  0
    7.9509  -13.3214   17.8968 C   0  0  0  0  0  0  0  0  0  0  0  0
    9.0349  -13.5109   17.3407 O   0  0  0  0  0  0  0  0  0  0  0  0
    7.7717  -13.2856   19.3244 C   0  0  0  0  0  0  0  0  0  0  0  0
    8.6266  -14.1926   20.1627 C   0  0  2  0  0  0  0  0  0  0  0  0
    8.3425  -15.5424   19.4982 N   0  0  0  0  0  0  0  0  0  0  0  0
    8.0741  -14.3488   21.5231 C   0  0  0  0  0  0  0  0  0  0  0  0
    7.9734  -13.2938   22.2785 O   0  0  0  0  0  0  0  0  0  0  0  0
    7.2565  -17.9885   26.0274 N   0  0  0  0  0  0  0  0  0  0  0  0
    6.4179  -17.1309   25.2392 C   0  0  0  0  0  0  0  0  0  0  0  0
    5.4374  -16.5249   25.7458 O   0  0  0  0  0  0  0  0  0  0  0  0
    6.7646  -16.9954   23.8011 C   0  0  0  0  0  0  0  0  0  0  0  0
    7.2333  -15.5401   23.5515 C   0  0  2  0  0  0  0  0  0  0  0  0
    7.6009  -15.5114   22.1747 N   0  0  0  0  0  0  0  0  0  0  0  0
    8.1419  -15.1191   24.5889 C   0  0  0  0  0  0  0  0  0  0  0  0
    9.4156  -15.4105   24.3937 O   0  0  0  0  0  0  0  0  0  0  0  0
    7.9268  -14.4418   25.7977 N   0  0  0  0  0  0  0  0  0  0  0  0
    6.6571  -14.1540   26.4281 C   0  0  0  0  0  0  0  0  0  0  0  0
    6.8744  -12.8145   27.0689 C   0  0  0  0  0  0  0  0  0  0  0  0
    8.3285  -12.4795   26.9208 C   0  0  0  0  0  0  0  0  0  0  0  0
    8.9294  -13.8693   26.6468 C   0  0  1  0  0  0  0  0  0  0  0  0
    9.0272  -14.5376   27.9546 C   0  0  0  0  0  0  0  0  0  0  0  0
    8.3325  -15.5323   28.2487 O   0  0  0  0  0  0  0  0  0  0  0  0
    9.9114  -14.0924   28.9519 O   0  0  0  0  0  0  0  0  0  0  0  0
  1  2  1  0
  2  3  2  0
  4  2  1  0
  5  4  1  0
  5  6  1  6
  7  8  2  0
  7  5  1  0
  9 10  1  0
 10 11  2  0
 10 12  1  0
 13 12  1  1
 13 15  1  0
 13 14  1  0
 14  7  1  0
 15 17  1  0
 16 15  2  0
 17 18  1  0
 19 18  1  0
 20 21  1  0
 20 19  1  0
 21 17  1  0
 21 22  1  1
 22 23  2  0
 22 24  1  0
M  END
$$$$
