NNP.pdb
     RDKit          3D

 24 24  0  0  1  0  0  0  0  0999 V2000
   13.2116  -16.2624   13.5866 N   0  0  0  0  0  0  0  0  0  0  0  0
   12.0362  -16.0413   12.7887 C   0  0  0  0  0  0  0  0  0  0  0  0
   12.1223  -16.2261   11.5728 O   0  0  0  0  0  0  0  0  0  0  0  0
   10.8340  -15.6186   13.4576 C   0  0  0  0  0  0  0  0  0  0  0  0
    9.8779  -16.6800   13.9217 C   0  0  2  0  0  0  0  0  0  0  0  0
    8.8199  -16.6096   12.8171 N   0  0  0  0  0  0  0  0  0  0  0  0
    9.1481  -16.2558   15.1332 C   0  0  0  0  0  0  0  0  0  0  0  0
    8.5879  -15.0812   15.1425 O   0  0  0  0  0  0  0  0  0  0  0  0
    7.0622  -19.3894   16.4161 N   0  0  0  0  0  0  0  0  0  0  0  0
    6.6031  -18.1663   17.0105 C   0  0  0  0  0  0  0  0  0  0  0  0
    5.5267  -17.6233   16.6475 O   0  0  0  0  0  0  0  0  0  0  0  0
    7.4591  -17.5766   18.0716 C   0  0  0  0  0  0  0  0  0  0  0  0
    8.2424  -16.3896   17.4574 C   0  0  2  0  0  0  0  0  0  0  0  0
    8.9348  -16.9518   16.3458 N   0  0  0  0  0  0  0  0  0  0  0  0
    8.9318  -15.6543   18.4886 C   0  0  0  0  0  0  0  0  0  0  0  0
   10.2505  -15.7323   18.4694 O   0  0  0  0  0  0  0  0  0  0  0  0
    8.4581  -14.8512   19.5358 N   0  0  0  0  0  0  0  0  0  0  0  0
    7.0814  -14.5272   19.8392 C   0  0  0  0  0  0  0  0  0  0  0  0
    7.1530  -13.1191   20.3529 C   0  0  0  0  0  0  0  0  0  0  0  0
    8.6041  -12.7655   20.4853 C   0  0  0  0  0  0  0  0  0  0  0  0
    9.2512  -14.1613   20.5098 C   0  0  1  0  0  0  0  0  0  0  0  0
    9.0622  -14.6756   21.8760 C   0  0  0  0  0  0  0  0  0  0  0  0
    8.1950  -15.5299   22.1527 O   0  0  0  0  0  0  0  0  0  0  0  0
    9.8499  -14.2325   22.9520 O   0  0  0  0  0  0  0  0  0  0  0  0
  1  2  1  0
  2  3  2  0
  4  2  1  0
  5  4  1  0
  5  6  1  6
  7  8  2  0
  7  5  1  0
  9 10  1  0
 10 11  2  0
 10 12  1  0
 13 12  1  1
 13 15  1  0
 13 14  1  0
 14  7  1  0
 15 17  1  0
 16 15  2  0
 17 18  1  0
 19 18  1  0
 20 21  1  0
 20 19  1  0
 21 17  1  0
 21 22  1  1
 22 23  2  0
 22 24  1  0
M  END
$$$$
