NNP.pdb
     RDKit          3D

 24 24  0  0  1  0  0  0  0  0999 V2000
    7.2049  -12.8168   17.1412 N   0  0  0  0  0  0  0  0  0  0  0  0
    8.1792  -13.1301   18.1509 C   0  0  0  0  0  0  0  0  0  0  0  0
    9.3711  -13.0243   17.8537 O   0  0  0  0  0  0  0  0  0  0  0  0
    7.7037  -13.5472   19.4437 C   0  0  0  0  0  0  0  0  0  0  0  0
    8.1349  -14.8942   19.9498 C   0  0  2  0  0  0  0  0  0  0  0  0
    7.2250  -15.8098   19.1263 N   0  0  0  0  0  0  0  0  0  0  0  0
    7.6892  -15.1157   21.3400 C   0  0  0  0  0  0  0  0  0  0  0  0
    6.5586  -14.5956   21.7209 O   0  0  0  0  0  0  0  0  0  0  0  0
    5.7951  -17.4329   25.7790 N   0  0  0  0  0  0  0  0  0  0  0  0
    7.1965  -17.4590   25.4699 C   0  0  0  0  0  0  0  0  0  0  0  0
    8.0662  -17.5734   26.3731 O   0  0  0  0  0  0  0  0  0  0  0  0
    7.5667  -17.3449   24.0359 C   0  0  0  0  0  0  0  0  0  0  0  0
    7.8347  -15.8515   23.7227 C   0  0  2  0  0  0  0  0  0  0  0  0
    8.3113  -15.8453   22.3795 N   0  0  0  0  0  0  0  0  0  0  0  0
    8.5780  -15.2381   24.7952 C   0  0  0  0  0  0  0  0  0  0  0  0
    9.8937  -15.3124   24.7016 O   0  0  0  0  0  0  0  0  0  0  0  0
    8.1608  -14.5598   25.9493 N   0  0  0  0  0  0  0  0  0  0  0  0
    6.8023  -14.3404   26.3951 C   0  0  0  0  0  0  0  0  0  0  0  0
    6.8525  -12.9825   27.0318 C   0  0  0  0  0  0  0  0  0  0  0  0
    8.2914  -12.5632   27.0761 C   0  0  0  0  0  0  0  0  0  0  0  0
    9.0030  -13.9179   26.9149 C   0  0  1  0  0  0  0  0  0  0  0  0
    8.9589  -14.5628   28.2373 C   0  0  0  0  0  0  0  0  0  0  0  0
    9.3857  -14.0013   29.2674 O   0  0  0  0  0  0  0  0  0  0  0  0
    8.4323  -15.8531   28.4173 O   0  0  0  0  0  0  0  0  0  0  0  0
  1  2  1  0
  2  3  2  0
  4  2  1  0
  5  4  1  0
  5  6  1  6
  7  8  2  0
  7  5  1  0
  9 10  1  0
 10 11  2  0
 10 12  1  0
 13 12  1  1
 13 15  1  0
 13 14  1  0
 14  7  1  0
 15 17  1  0
 16 15  2  0
 17 18  1  0
 19 18  1  0
 20 21  1  0
 20 19  1  0
 21 17  1  0
 21 22  1  1
 22 23  2  0
 22 24  1  0
M  END
$$$$
