NNP.pdb
     RDKit          3D

 24 24  0  0  1  0  0  0  0  0999 V2000
    7.7413  -12.4993   17.5180 N   0  0  0  0  0  0  0  0  0  0  0  0
    7.9875  -13.8036   18.0702 C   0  0  0  0  0  0  0  0  0  0  0  0
    8.5495  -14.6355   17.3544 O   0  0  0  0  0  0  0  0  0  0  0  0
    7.5635  -14.0572   19.4220 C   0  0  0  0  0  0  0  0  0  0  0  0
    8.3828  -15.0065   20.2489 C   0  0  2  0  0  0  0  0  0  0  0  0
    7.9311  -16.3492   19.6680 N   0  0  0  0  0  0  0  0  0  0  0  0
    7.9080  -15.0520   21.6463 C   0  0  0  0  0  0  0  0  0  0  0  0
    6.7342  -14.5616   21.9206 O   0  0  0  0  0  0  0  0  0  0  0  0
    7.7737  -18.1259   23.5377 N   0  0  0  0  0  0  0  0  0  0  0  0
    7.0959  -17.4137   24.5833 C   0  0  0  0  0  0  0  0  0  0  0  0
    6.7658  -17.9815   25.6575 O   0  0  0  0  0  0  0  0  0  0  0  0
    6.8051  -15.9785   24.3343 C   0  0  0  0  0  0  0  0  0  0  0  0
    8.1515  -15.2412   24.1253 C   0  0  2  0  0  0  0  0  0  0  0  0
    8.5428  -15.5760   22.7964 N   0  0  0  0  0  0  0  0  0  0  0  0
    9.0247  -15.4591   25.2518 C   0  0  0  0  0  0  0  0  0  0  0  0
   10.0372  -16.2825   25.0463 O   0  0  0  0  0  0  0  0  0  0  0  0
    9.0044  -14.9512   26.5586 N   0  0  0  0  0  0  0  0  0  0  0  0
    7.8735  -14.3893   27.2639 C   0  0  0  0  0  0  0  0  0  0  0  0
    8.4818  -13.3037   28.1025 C   0  0  0  0  0  0  0  0  0  0  0  0
    9.9709  -13.4161   27.9667 C   0  0  0  0  0  0  0  0  0  0  0  0
   10.1166  -14.8609   27.4578 C   0  0  1  0  0  0  0  0  0  0  0  0
    9.9742  -15.7270   28.6395 C   0  0  0  0  0  0  0  0  0  0  0  0
   10.7680  -15.6777   29.6017 O   0  0  0  0  0  0  0  0  0  0  0  0
    8.9326  -16.6633   28.7529 O   0  0  0  0  0  0  0  0  0  0  0  0
  1  2  1  0
  2  3  2  0
  4  2  1  0
  5  4  1  0
  5  6  1  6
  7  8  2  0
  7  5  1  0
  9 10  1  0
 10 11  2  0
 10 12  1  0
 13 12  1  1
 13 15  1  0
 13 14  1  0
 14  7  1  0
 15 17  1  0
 16 15  2  0
 17 18  1  0
 19 18  1  0
 20 21  1  0
 20 19  1  0
 21 17  1  0
 21 22  1  1
 22 23  2  0
 22 24  1  0
M  END
$$$$
