NNP.pdb
     RDKit          3D

 24 24  0  0  1  0  0  0  0  0999 V2000
    8.1703  -13.1100   16.9113 N   0  0  0  0  0  0  0  0  0  0  0  0
    8.6910  -13.9917   17.9205 C   0  0  0  0  0  0  0  0  0  0  0  0
    9.7561  -14.5676   17.6883 O   0  0  0  0  0  0  0  0  0  0  0  0
    7.9381  -14.1472   19.1372 C   0  0  0  0  0  0  0  0  0  0  0  0
    8.2517  -15.3276   20.0115 C   0  0  2  0  0  0  0  0  0  0  0  0
    7.4578  -16.4258   19.2987 N   0  0  0  0  0  0  0  0  0  0  0  0
    7.5904  -15.2150   21.3269 C   0  0  0  0  0  0  0  0  0  0  0  0
    6.3592  -14.7953   21.3702 O   0  0  0  0  0  0  0  0  0  0  0  0
    8.4922  -17.4632   24.3554 N   0  0  0  0  0  0  0  0  0  0  0  0
    7.0591  -17.4675   24.4357 C   0  0  0  0  0  0  0  0  0  0  0  0
    6.4254  -18.4890   24.8100 O   0  0  0  0  0  0  0  0  0  0  0  0
    6.3649  -16.2103   24.0560 C   0  0  0  0  0  0  0  0  0  0  0  0
    7.4375  -15.1181   23.8183 C   0  0  2  0  0  0  0  0  0  0  0  0
    8.0922  -15.5121   22.6153 N   0  0  0  0  0  0  0  0  0  0  0  0
    8.1709  -14.8604   25.0327 C   0  0  0  0  0  0  0  0  0  0  0  0
    9.3927  -15.3602   25.0861 O   0  0  0  0  0  0  0  0  0  0  0  0
    7.8265  -14.1625   26.1991 N   0  0  0  0  0  0  0  0  0  0  0  0
    6.5015  -13.7737   26.6299 C   0  0  0  0  0  0  0  0  0  0  0  0
    6.7214  -12.4521   27.3059 C   0  0  0  0  0  0  0  0  0  0  0  0
    8.2026  -12.2320   27.3844 C   0  0  0  0  0  0  0  0  0  0  0  0
    8.7286  -13.6656   27.1957 C   0  0  1  0  0  0  0  0  0  0  0  0
    8.5729  -14.3331   28.4983 C   0  0  0  0  0  0  0  0  0  0  0  0
    9.2278  -13.9918   29.5048 O   0  0  0  0  0  0  0  0  0  0  0  0
    7.6748  -15.3976   28.6847 O   0  0  0  0  0  0  0  0  0  0  0  0
  1  2  1  0
  2  3  2  0
  4  2  1  0
  5  4  1  0
  5  6  1  6
  7  8  2  0
  7  5  1  0
  9 10  1  0
 10 11  2  0
 10 12  1  0
 13 12  1  1
 13 15  1  0
 13 14  1  0
 14  7  1  0
 15 17  1  0
 16 15  2  0
 17 18  1  0
 19 18  1  0
 20 21  1  0
 20 19  1  0
 21 17  1  0
 21 22  1  1
 22 23  2  0
 22 24  1  0
M  END
$$$$
