NNP.pdb
     RDKit          3D

 24 24  0  0  1  0  0  0  0  0999 V2000
    7.9221  -12.6278   16.8107 N   0  0  0  0  0  0  0  0  0  0  0  0
    8.5498  -13.5993   17.6646 C   0  0  0  0  0  0  0  0  0  0  0  0
    9.5430  -14.1890   17.2334 O   0  0  0  0  0  0  0  0  0  0  0  0
    7.9810  -13.8228   18.9676 C   0  0  0  0  0  0  0  0  0  0  0  0
    8.4541  -15.0177   19.7452 C   0  0  2  0  0  0  0  0  0  0  0  0
    7.7512  -16.1457   18.9849 N   0  0  0  0  0  0  0  0  0  0  0  0
    7.8405  -15.0648   21.0875 C   0  0  0  0  0  0  0  0  0  0  0  0
    6.7798  -14.3451   21.3121 O   0  0  0  0  0  0  0  0  0  0  0  0
    6.3373  -18.3096   22.0045 N   0  0  0  0  0  0  0  0  0  0  0  0
    6.0303  -17.3710   23.0461 C   0  0  0  0  0  0  0  0  0  0  0  0
    4.8726  -16.8951   23.1811 O   0  0  0  0  0  0  0  0  0  0  0  0
    7.1440  -16.9915   23.9529 C   0  0  0  0  0  0  0  0  0  0  0  0
    7.6658  -15.5980   23.5217 C   0  0  2  0  0  0  0  0  0  0  0  0
    8.2253  -15.8077   22.2277 N   0  0  0  0  0  0  0  0  0  0  0  0
    8.4244  -14.9927   24.5881 C   0  0  0  0  0  0  0  0  0  0  0  0
    9.7347  -14.9668   24.4215 O   0  0  0  0  0  0  0  0  0  0  0  0
    8.0272  -14.4109   25.8005 N   0  0  0  0  0  0  0  0  0  0  0  0
    6.6757  -14.1788   26.2609 C   0  0  0  0  0  0  0  0  0  0  0  0
    6.7772  -12.8912   27.0248 C   0  0  0  0  0  0  0  0  0  0  0  0
    8.2318  -12.5382   27.1137 C   0  0  0  0  0  0  0  0  0  0  0  0
    8.8882  -13.8998   26.8258 C   0  0  1  0  0  0  0  0  0  0  0  0
    8.8082  -14.6657   28.0803 C   0  0  0  0  0  0  0  0  0  0  0  0
    8.0064  -15.6100   28.2349 O   0  0  0  0  0  0  0  0  0  0  0  0
    9.6326  -14.3765   29.1808 O   0  0  0  0  0  0  0  0  0  0  0  0
  1  2  1  0
  2  3  2  0
  4  2  1  0
  5  4  1  0
  5  6  1  6
  7  8  2  0
  7  5  1  0
  9 10  1  0
 10 11  2  0
 10 12  1  0
 13 12  1  1
 13 15  1  0
 13 14  1  0
 14  7  1  0
 15 17  1  0
 16 15  2  0
 17 18  1  0
 19 18  1  0
 20 21  1  0
 20 19  1  0
 21 17  1  0
 21 22  1  1
 22 23  2  0
 22 24  1  0
M  END
$$$$
