NNP.pdb
     RDKit          3D

 24 24  0  0  1  0  0  0  0  0999 V2000
   10.2392  -14.4380   17.8792 N   0  0  0  0  0  0  0  0  0  0  0  0
   10.6657  -13.5793   18.9506 C   0  0  0  0  0  0  0  0  0  0  0  0
   11.8063  -13.1143   18.8968 O   0  0  0  0  0  0  0  0  0  0  0  0
    9.7364  -13.3161   20.0176 C   0  0  0  0  0  0  0  0  0  0  0  0
    8.4098  -14.0199   19.9835 C   0  0  2  0  0  0  0  0  0  0  0  0
    7.5059  -12.8943   19.4731 N   0  0  0  0  0  0  0  0  0  0  0  0
    7.9047  -14.2844   21.3456 C   0  0  0  0  0  0  0  0  0  0  0  0
    7.5457  -13.2738   22.0829 O   0  0  0  0  0  0  0  0  0  0  0  0
    6.6190  -16.1706   25.8443 N   0  0  0  0  0  0  0  0  0  0  0  0
    6.4466  -17.2855   24.9571 C   0  0  0  0  0  0  0  0  0  0  0  0
    5.9669  -18.3776   25.3602 O   0  0  0  0  0  0  0  0  0  0  0  0
    6.8613  -17.0858   23.5448 C   0  0  0  0  0  0  0  0  0  0  0  0
    7.3097  -15.6127   23.3758 C   0  0  2  0  0  0  0  0  0  0  0  0
    7.7258  -15.5167   22.0160 N   0  0  0  0  0  0  0  0  0  0  0  0
    8.1718  -15.2213   24.4632 C   0  0  0  0  0  0  0  0  0  0  0  0
    9.4622  -15.4416   24.2847 O   0  0  0  0  0  0  0  0  0  0  0  0
    7.8957  -14.6361   25.7072 N   0  0  0  0  0  0  0  0  0  0  0  0
    6.5958  -14.3957   26.2944 C   0  0  0  0  0  0  0  0  0  0  0  0
    6.7772  -13.1080   27.0433 C   0  0  0  0  0  0  0  0  0  0  0  0
    8.2357  -12.7636   26.9922 C   0  0  0  0  0  0  0  0  0  0  0  0
    8.8537  -14.1293   26.6448 C   0  0  1  0  0  0  0  0  0  0  0  0
    8.8896  -14.8935   27.9023 C   0  0  0  0  0  0  0  0  0  0  0  0
    9.4759  -14.4735   28.9212 O   0  0  0  0  0  0  0  0  0  0  0  0
    8.2638  -16.1453   28.0287 O   0  0  0  0  0  0  0  0  0  0  0  0
  1  2  1  0
  2  3  2  0
  4  2  1  0
  5  4  1  0
  5  6  1  6
  7  8  2  0
  7  5  1  0
  9 10  1  0
 10 11  2  0
 10 12  1  0
 13 12  1  1
 13 15  1  0
 13 14  1  0
 14  7  1  0
 15 17  1  0
 16 15  2  0
 17 18  1  0
 19 18  1  0
 20 21  1  0
 20 19  1  0
 21 17  1  0
 21 22  1  1
 22 23  2  0
 22 24  1  0
M  END
$$$$
