KER.pdb
     RDKit          3D

 30 29  0  0  1  0  0  0  0  0999 V2000
   27.5361  -21.1248  -14.4876 N   0  0  0  0  0  0  0  0  0  0  0  0
   27.3029  -20.9940  -15.8973 C   0  0  1  0  0  0  0  0  0  0  0  0
   27.9315  -22.1836  -16.5858 C   0  0  0  0  0  0  0  0  0  0  0  0
   27.4305  -23.4592  -16.0102 C   0  0  0  0  0  0  0  0  0  0  0  0
   27.8905  -24.7208  -16.6645 C   0  0  0  0  0  0  0  0  0  0  0  0
   27.3609  -25.9729  -16.0581 C   0  0  0  0  0  0  0  0  0  0  0  0
   27.7182  -27.1740  -16.7369 N   0  0  0  0  0  0  0  0  0  0  0  0
   25.8495  -20.9077  -16.1454 C   0  0  0  0  0  0  0  0  0  0  0  0
   25.3586  -20.8600  -17.3083 O   0  0  0  0  0  0  0  0  0  0  0  0
   24.9632  -20.8769  -15.0353 N   0  0  0  0  0  0  0  0  0  0  0  0
   23.5220  -20.7014  -15.1819 C   0  0  1  0  0  0  0  0  0  0  0  0
   22.8764  -21.1652  -13.9185 C   0  0  0  0  0  0  0  0  0  0  0  0
   21.3947  -21.0906  -13.8618 C   0  0  0  0  0  0  0  0  0  0  0  0
   20.7569  -21.4800  -12.6022 C   0  0  0  0  0  0  0  0  0  0  0  0
   20.9367  -20.8048  -11.5319 O   0  0  0  0  0  0  0  0  0  0  0  0
   23.1570  -19.3625  -15.6536 C   0  0  0  0  0  0  0  0  0  0  0  0
   23.5494  -18.3464  -14.9835 O   0  0  0  0  0  0  0  0  0  0  0  0
   19.9180  -22.5818  -12.4376 O   0  0  0  0  0  0  0  0  0  0  0  0
   27.6971  -16.5060  -20.3003 N   0  0  0  0  0  0  0  0  0  0  0  0
   26.9925  -15.2704  -20.4293 C   0  0  0  0  0  0  0  0  0  0  0  0
   27.4015  -14.4627  -21.3278 N   0  0  0  0  0  0  0  0  0  0  0  0
   25.9078  -15.0232  -19.5734 N   0  0  0  0  0  0  0  0  0  0  0  0
   25.5558  -16.0531  -18.5868 C   0  0  0  0  0  0  0  0  0  0  0  0
   24.5436  -17.0058  -19.1597 C   0  0  0  0  0  0  0  0  0  0  0  0
   24.0660  -18.0832  -18.2799 C   0  0  0  0  0  0  0  0  0  0  0  0
   22.7071  -17.9974  -17.6881 C   0  0  2  0  0  0  0  0  0  0  0  0
   22.3927  -19.1103  -16.8196 N   0  0  0  0  0  0  0  0  0  0  0  0
   21.6488  -17.8753  -18.7014 C   0  0  0  0  0  0  0  0  0  0  0  0
   20.7072  -18.7133  -18.7601 O   0  0  0  0  0  0  0  0  0  0  0  0
   21.6234  -16.8529  -19.6364 O   0  0  0  0  0  0  0  0  0  0  0  0
  2  1  1  1
  2  3  1  0
  3  4  1  0
  4  5  1  0
  6  5  1  0
  7  6  1  0
  8  2  1  0
  8  9  2  0
 10  8  1  0
 11 16  1  0
 11 10  1  0
 11 12  1  1
 13 12  1  0
 14 18  1  0
 14 13  1  0
 15 14  2  0
 16 27  1  0
 17 16  2  0
 20 22  1  0
 20 19  1  0
 21 20  2  0
 23 22  1  0
 23 24  1  0
 25 24  1  0
 26 25  1  6
 26 28  1  0
 27 26  1  0
 28 29  2  0
 28 30  1  0
M  END
$$$$
