KER.pdb
     RDKit          3D

 30 29  0  0  1  0  0  0  0  0999 V2000
   25.5920  -17.9953  -19.2419 N   0  0  0  0  0  0  0  0  0  0  0  0
   24.2554  -18.3729  -19.6020 C   0  0  1  0  0  0  0  0  0  0  0  0
   24.2980  -19.7873  -20.1330 C   0  0  0  0  0  0  0  0  0  0  0  0
   25.6535  -20.3762  -19.9739 C   0  0  0  0  0  0  0  0  0  0  0  0
   25.7490  -21.6491  -19.1981 C   0  0  0  0  0  0  0  0  0  0  0  0
   27.0962  -22.2820  -19.1916 C   0  0  0  0  0  0  0  0  0  0  0  0
   27.2325  -23.4098  -18.3310 N   0  0  0  0  0  0  0  0  0  0  0  0
   23.3774  -18.2448  -18.4213 C   0  0  0  0  0  0  0  0  0  0  0  0
   23.6915  -17.5557  -17.4104 O   0  0  0  0  0  0  0  0  0  0  0  0
   22.1280  -18.9213  -18.4171 N   0  0  0  0  0  0  0  0  0  0  0  0
   21.1836  -18.8259  -17.3087 C   0  0  1  0  0  0  0  0  0  0  0  0
   19.8067  -18.8057  -17.8847 C   0  0  0  0  0  0  0  0  0  0  0  0
   19.1367  -17.4830  -17.9618 C   0  0  0  0  0  0  0  0  0  0  0  0
   18.7813  -16.8426  -16.6935 C   0  0  0  0  0  0  0  0  0  0  0  0
   18.5564  -17.5340  -15.6422 O   0  0  0  0  0  0  0  0  0  0  0  0
   21.4412  -19.8119  -16.2554 C   0  0  0  0  0  0  0  0  0  0  0  0
   21.7346  -21.0100  -16.5932 O   0  0  0  0  0  0  0  0  0  0  0  0
   18.6555  -15.4673  -16.4996 O   0  0  0  0  0  0  0  0  0  0  0  0
   25.6373  -22.5084  -10.8184 N   0  0  0  0  0  0  0  0  0  0  0  0
   26.3150  -21.3032  -11.1761 C   0  0  0  0  0  0  0  0  0  0  0  0
   27.5394  -21.4082  -11.5180 N   0  0  0  0  0  0  0  0  0  0  0  0
   25.6036  -20.0941  -11.1318 N   0  0  0  0  0  0  0  0  0  0  0  0
   24.1763  -20.1429  -10.7879 C   0  0  0  0  0  0  0  0  0  0  0  0
   23.3931  -20.8054  -11.8870 C   0  0  0  0  0  0  0  0  0  0  0  0
   22.7995  -19.9285  -12.9076 C   0  0  0  0  0  0  0  0  0  0  0  0
   21.8448  -20.4943  -13.8938 C   0  0  2  0  0  0  0  0  0  0  0  0
   21.3921  -19.5263  -14.8685 N   0  0  0  0  0  0  0  0  0  0  0  0
   20.6703  -21.1136  -13.2624 C   0  0  0  0  0  0  0  0  0  0  0  0
   19.6826  -20.4148  -12.9040 O   0  0  0  0  0  0  0  0  0  0  0  0
   20.5801  -22.4759  -13.0256 O   0  0  0  0  0  0  0  0  0  0  0  0
  2  1  1  1
  2  3  1  0
  3  4  1  0
  4  5  1  0
  6  5  1  0
  7  6  1  0
  8  2  1  0
  8  9  2  0
 10  8  1  0
 11 16  1  0
 11 10  1  0
 11 12  1  6
 13 12  1  0
 14 18  1  0
 14 13  1  0
 15 14  2  0
 16 27  1  0
 17 16  2  0
 20 22  1  0
 20 19  1  0
 21 20  2  0
 23 22  1  0
 23 24  1  0
 25 24  1  0
 26 25  1  1
 26 28  1  0
 27 26  1  0
 28 29  2  0
 28 30  1  0
M  END
$$$$
