KER.pdb
     RDKit          3D

 30 29  0  0  1  0  0  0  0  0999 V2000
   23.8730  -17.9818  -17.3251 N   0  0  0  0  0  0  0  0  0  0  0  0
   23.5183  -19.2638  -17.8633 C   0  0  1  0  0  0  0  0  0  0  0  0
   24.6196  -19.6949  -18.8043 C   0  0  0  0  0  0  0  0  0  0  0  0
   25.2121  -18.5247  -19.5036 C   0  0  0  0  0  0  0  0  0  0  0  0
   24.3567  -17.3059  -19.6221 C   0  0  0  0  0  0  0  0  0  0  0  0
   24.9564  -16.1903  -20.4041 C   0  0  0  0  0  0  0  0  0  0  0  0
   24.1879  -14.9906  -20.4366 N   0  0  0  0  0  0  0  0  0  0  0  0
   23.3225  -20.2207  -16.7554 C   0  0  0  0  0  0  0  0  0  0  0  0
   23.1559  -21.4583  -16.9457 O   0  0  0  0  0  0  0  0  0  0  0  0
   23.3208  -19.7355  -15.4201 N   0  0  0  0  0  0  0  0  0  0  0  0
   23.1727  -20.6122  -14.2629 C   0  0  1  0  0  0  0  0  0  0  0  0
   24.3317  -20.3666  -13.3549 C   0  0  0  0  0  0  0  0  0  0  0  0
   24.4014  -21.1959  -12.1254 C   0  0  0  0  0  0  0  0  0  0  0  0
   25.5266  -20.9505  -11.2205 C   0  0  0  0  0  0  0  0  0  0  0  0
   25.6572  -21.6079  -10.1321 O   0  0  0  0  0  0  0  0  0  0  0  0
   21.8385  -20.5386  -13.6606 C   0  0  0  0  0  0  0  0  0  0  0  0
   21.2443  -19.4069  -13.6190 O   0  0  0  0  0  0  0  0  0  0  0  0
   26.5374  -20.0143  -11.4367 O   0  0  0  0  0  0  0  0  0  0  0  0
   17.0841  -25.7372   -8.2217 N   0  0  0  0  0  0  0  0  0  0  0  0
   17.8358  -24.6019   -7.7904 C   0  0  0  0  0  0  0  0  0  0  0  0
   18.1852  -24.5719   -6.5640 N   0  0  0  0  0  0  0  0  0  0  0  0
   18.1415  -23.6031   -8.7280 N   0  0  0  0  0  0  0  0  0  0  0  0
   17.8334  -23.8623  -10.1408 C   0  0  0  0  0  0  0  0  0  0  0  0
   18.1610  -22.6585  -10.9797 C   0  0  0  0  0  0  0  0  0  0  0  0
   19.5042  -22.6041  -11.5762 C   0  0  0  0  0  0  0  0  0  0  0  0
   19.8552  -21.4877  -12.4898 C   0  0  2  0  0  0  0  0  0  0  0  0
   21.1483  -21.6501  -13.1171 N   0  0  0  0  0  0  0  0  0  0  0  0
   19.8115  -20.1742  -11.8306 C   0  0  0  0  0  0  0  0  0  0  0  0
   18.8515  -19.3799  -12.0303 O   0  0  0  0  0  0  0  0  0  0  0  0
   20.8041  -19.7371  -10.9682 O   0  0  0  0  0  0  0  0  0  0  0  0
  2  1  1  1
  2  3  1  0
  3  4  1  0
  4  5  1  0
  6  5  1  0
  7  6  1  0
  8  2  1  0
  8  9  2  0
 10  8  1  0
 11 16  1  0
 11 10  1  0
 11 12  1  1
 13 12  1  0
 14 18  1  0
 14 13  1  0
 15 14  2  0
 16 27  1  0
 17 16  2  0
 20 22  1  0
 20 19  1  0
 21 20  2  0
 23 22  1  0
 23 24  1  0
 25 24  1  0
 26 25  1  1
 26 28  1  0
 27 26  1  0
 28 29  2  0
 28 30  1  0
M  END
$$$$
