KER.pdb
     RDKit          3D

 30 29  0  0  1  0  0  0  0  0999 V2000
   27.6672  -22.6949  -16.7756 N   0  0  0  0  0  0  0  0  0  0  0  0
   27.3436  -21.4921  -16.0632 C   0  0  1  0  0  0  0  0  0  0  0  0
   26.9362  -20.4464  -17.0756 C   0  0  0  0  0  0  0  0  0  0  0  0
   28.1207  -19.9146  -17.7992 C   0  0  0  0  0  0  0  0  0  0  0  0
   28.8302  -20.8572  -18.7155 C   0  0  0  0  0  0  0  0  0  0  0  0
   29.9375  -20.2524  -19.5053 C   0  0  0  0  0  0  0  0  0  0  0  0
   30.7577  -21.1809  -20.2098 N   0  0  0  0  0  0  0  0  0  0  0  0
   26.2703  -21.7758  -15.0891 C   0  0  0  0  0  0  0  0  0  0  0  0
   25.2527  -22.4660  -15.3785 O   0  0  0  0  0  0  0  0  0  0  0  0
   26.3816  -21.2542  -13.7722 N   0  0  0  0  0  0  0  0  0  0  0  0
   25.3041  -21.3499  -12.7927 C   0  0  1  0  0  0  0  0  0  0  0  0
   25.8682  -20.9870  -11.4591 C   0  0  0  0  0  0  0  0  0  0  0  0
   24.9284  -21.0115  -10.3100 C   0  0  0  0  0  0  0  0  0  0  0  0
   25.4791  -20.6819   -8.9935 C   0  0  0  0  0  0  0  0  0  0  0  0
   26.5712  -20.0282   -8.8767 O   0  0  0  0  0  0  0  0  0  0  0  0
   24.0920  -20.6391  -13.2093 C   0  0  0  0  0  0  0  0  0  0  0  0
   24.2127  -19.5766  -13.9108 O   0  0  0  0  0  0  0  0  0  0  0  0
   24.8979  -21.0282   -7.7739 O   0  0  0  0  0  0  0  0  0  0  0  0
   20.3284  -24.0993  -19.3003 N   0  0  0  0  0  0  0  0  0  0  0  0
   19.4448  -22.9824  -19.1918 C   0  0  0  0  0  0  0  0  0  0  0  0
   18.4506  -22.9521  -19.9903 N   0  0  0  0  0  0  0  0  0  0  0  0
   19.7188  -22.0005  -18.2269 N   0  0  0  0  0  0  0  0  0  0  0  0
   20.8815  -22.1963  -17.3509 C   0  0  0  0  0  0  0  0  0  0  0  0
   20.6872  -21.4700  -16.0489 C   0  0  0  0  0  0  0  0  0  0  0  0
   21.7841  -21.5427  -15.0720 C   0  0  0  0  0  0  0  0  0  0  0  0
   21.6753  -20.7988  -13.7918 C   0  0  2  0  0  0  0  0  0  0  0  0
   22.7759  -21.0546  -12.8890 N   0  0  0  0  0  0  0  0  0  0  0  0
   20.4133  -21.0601  -13.0842 C   0  0  0  0  0  0  0  0  0  0  0  0
   19.3021  -20.7948  -13.6202 O   0  0  0  0  0  0  0  0  0  0  0  0
   20.3691  -21.6015  -11.8094 O   0  0  0  0  0  0  0  0  0  0  0  0
  2  1  1  6
  2  3  1  0
  3  4  1  0
  4  5  1  0
  6  5  1  0
  7  6  1  0
  8  2  1  0
  8  9  2  0
 10  8  1  0
 11 16  1  0
 11 10  1  0
 11 12  1  1
 13 12  1  0
 14 18  1  0
 14 13  1  0
 15 14  2  0
 16 27  1  0
 17 16  2  0
 20 22  1  0
 20 19  1  0
 21 20  2  0
 23 22  1  0
 23 24  1  0
 25 24  1  0
 26 25  1  6
 26 28  1  0
 27 26  1  0
 28 29  2  0
 28 30  1  0
M  END
$$$$
