KER.pdb
     RDKit          3D

 30 29  0  0  1  0  0  0  0  0999 V2000
   28.0399  -22.0025  -16.5575 N   0  0  0  0  0  0  0  0  0  0  0  0
   27.6389  -20.8566  -15.7926 C   0  0  1  0  0  0  0  0  0  0  0  0
   27.1543  -19.7989  -16.7574 C   0  0  0  0  0  0  0  0  0  0  0  0
   28.2320  -19.4049  -17.7023 C   0  0  0  0  0  0  0  0  0  0  0  0
   28.5081  -20.3368  -18.8366 C   0  0  0  0  0  0  0  0  0  0  0  0
   29.4974  -19.8403  -19.8319 C   0  0  0  0  0  0  0  0  0  0  0  0
   29.9326  -20.8039  -20.7874 N   0  0  0  0  0  0  0  0  0  0  0  0
   26.5937  -21.2552  -14.8282 C   0  0  0  0  0  0  0  0  0  0  0  0
   25.6448  -22.0308  -15.1340 O   0  0  0  0  0  0  0  0  0  0  0  0
   26.6531  -20.7492  -13.5019 N   0  0  0  0  0  0  0  0  0  0  0  0
   25.6415  -21.0548  -12.4956 C   0  0  1  0  0  0  0  0  0  0  0  0
   26.2152  -20.7223  -11.1582 C   0  0  0  0  0  0  0  0  0  0  0  0
   25.3442  -20.9662   -9.9809 C   0  0  0  0  0  0  0  0  0  0  0  0
   25.9164  -20.6892   -8.6615 C   0  0  0  0  0  0  0  0  0  0  0  0
   25.4434  -19.7659   -7.9147 O   0  0  0  0  0  0  0  0  0  0  0  0
   24.3321  -20.4769  -12.8114 C   0  0  0  0  0  0  0  0  0  0  0  0
   24.2692  -19.2453  -13.1499 O   0  0  0  0  0  0  0  0  0  0  0  0
   26.9930  -21.3726   -8.0970 O   0  0  0  0  0  0  0  0  0  0  0  0
   17.8962  -22.2560  -18.1839 N   0  0  0  0  0  0  0  0  0  0  0  0
   17.3768  -21.1173  -17.4957 C   0  0  0  0  0  0  0  0  0  0  0  0
   16.3006  -20.6070  -17.9525 N   0  0  0  0  0  0  0  0  0  0  0  0
   18.0705  -20.6361  -16.3744 N   0  0  0  0  0  0  0  0  0  0  0  0
   19.3374  -21.2858  -16.0129 C   0  0  0  0  0  0  0  0  0  0  0  0
   19.9380  -20.6291  -14.8011 C   0  0  0  0  0  0  0  0  0  0  0  0
   21.2571  -21.1105  -14.3639 C   0  0  0  0  0  0  0  0  0  0  0  0
   21.8623  -20.5634  -13.1235 C   0  0  2  0  0  0  0  0  0  0  0  0
   23.1134  -21.1983  -12.7721 N   0  0  0  0  0  0  0  0  0  0  0  0
   20.9567  -20.6316  -11.9673 C   0  0  0  0  0  0  0  0  0  0  0  0
   21.0911  -21.5289  -11.0902 O   0  0  0  0  0  0  0  0  0  0  0  0
   19.9197  -19.7327  -11.7758 O   0  0  0  0  0  0  0  0  0  0  0  0
  2  1  1  6
  2  3  1  0
  3  4  1  0
  4  5  1  0
  6  5  1  0
  7  6  1  0
  8  2  1  0
  8  9  2  0
 10  8  1  0
 11 16  1  0
 11 10  1  0
 11 12  1  1
 13 12  1  0
 14 18  1  0
 14 13  1  0
 15 14  2  0
 16 27  1  0
 17 16  2  0
 20 22  1  0
 20 19  1  0
 21 20  2  0
 23 22  1  0
 23 24  1  0
 25 24  1  0
 26 25  1  6
 26 28  1  0
 27 26  1  0
 28 29  2  0
 28 30  1  0
M  END
$$$$
