PWI.pdb
     RDKit          3D

 30 32  0  0  1  0  0  0  0  0999 V2000
   27.0892  -19.9505  -13.0067 N   0  0  0  0  0  0  0  0  0  0  0  0
   28.2842  -19.6842  -13.8040 C   0  0  0  0  0  0  0  0  0  0  0  0
   29.1068  -20.9827  -13.7734 C   0  0  0  0  0  0  0  0  0  0  0  0
   28.7098  -21.5375  -12.4067 C   0  0  0  0  0  0  0  0  0  0  0  0
   27.1954  -21.2777  -12.4834 C   0  0  1  0  0  0  0  0  0  0  0  0
   26.5288  -21.5167  -11.1876 C   0  0  0  0  0  0  0  0  0  0  0  0
   26.6157  -22.7045  -10.7382 O   0  0  0  0  0  0  0  0  0  0  0  0
   25.8311  -20.4918  -10.4844 N   0  0  0  0  0  0  0  0  0  0  0  0
   25.1528  -20.7959   -9.2131 C   0  0  1  0  0  0  0  0  0  0  0  0
   25.5991  -19.7542   -8.2572 C   0  0  0  0  0  0  0  0  0  0  0  0
   26.9544  -19.8678   -7.7038 C   0  0  0  0  0  0  0  0  0  0  0  0
   28.1309  -20.0750   -8.4677 C   0  0  0  0  0  0  0  0  0  0  0  0
   29.1701  -20.1849   -7.6478 N   0  0  0  0  0  0  0  0  0  0  0  0
   28.7943  -20.0667   -6.3529 C   0  0  0  0  0  0  0  0  0  0  0  0
   29.5099  -20.1071   -5.1762 C   0  0  0  0  0  0  0  0  0  0  0  0
   28.8777  -19.9473   -3.9809 C   0  0  0  0  0  0  0  0  0  0  0  0
   27.4823  -19.7391   -4.0021 C   0  0  0  0  0  0  0  0  0  0  0  0
   26.8039  -19.7045   -5.1761 C   0  0  0  0  0  0  0  0  0  0  0  0
   27.4108  -19.8663   -6.4055 C   0  0  0  0  0  0  0  0  0  0  0  0
   23.6590  -20.7111   -9.5291 C   0  0  0  0  0  0  0  0  0  0  0  0
   23.3444  -19.9685  -10.4556 O   0  0  0  0  0  0  0  0  0  0  0  0
   18.7727  -24.1249   -7.6858 C   0  0  0  0  0  0  0  0  0  0  0  0
   19.2805  -22.9949   -8.5731 C   0  0  0  0  0  0  0  0  0  0  0  0
   20.6666  -22.6270   -8.0860 C   0  0  2  0  0  0  0  0  0  0  0  0
   20.5608  -22.0978   -6.6803 C   0  0  0  0  0  0  0  0  0  0  0  0
   21.3488  -21.6442   -9.0181 C   0  0  2  0  0  0  0  0  0  0  0  0
   22.7251  -21.4391   -8.8038 N   0  0  0  0  0  0  0  0  0  0  0  0
   20.4493  -20.5264   -9.3418 C   0  0  0  0  0  0  0  0  0  0  0  0
   20.9251  -19.2412   -8.9461 O   0  0  0  0  0  0  0  0  0  0  0  0
   19.3434  -20.5626   -9.9093 O   0  0  0  0  0  0  0  0  0  0  0  0
  1  2  1  0
  3  2  1  0
  4  3  1  0
  5  4  1  0
  5  1  1  0
  5  6  1  1
  7  6  2  0
  8  6  1  0
  9  8  1  0
 10 11  1  0
  9 10  1  1
 11 12  2  0
 13 12  1  0
 14 13  1  0
 15 14  2  0
 16 15  1  0
 17 18  1  0
 17 16  2  0
 18 19  2  0
 19 14  1  0
 19 11  1  0
 20  9  1  0
 20 27  1  0
 21 20  2  0
 23 22  1  0
 24 23  1  0
 24 26  1  0
 24 25  1  1
 26 28  1  0
 26 27  1  1
 28 29  1  0
 30 28  2  0
M  END
$$$$
