PWI.pdb
     RDKit          3D

 30 32  0  0  1  0  0  0  0  0999 V2000
   26.8609  -20.8680  -16.1549 N   0  0  0  0  0  0  0  0  0  0  0  0
   27.8645  -20.7051  -17.2040 C   0  0  0  0  0  0  0  0  0  0  0  0
   29.2225  -20.6733  -16.4841 C   0  0  0  0  0  0  0  0  0  0  0  0
   28.8185  -20.0617  -15.1440 C   0  0  0  0  0  0  0  0  0  0  0  0
   27.5381  -20.8773  -14.8949 C   0  0  1  0  0  0  0  0  0  0  0  0
   26.7702  -20.3601  -13.7446 C   0  0  0  0  0  0  0  0  0  0  0  0
   26.1440  -19.2709  -13.9496 O   0  0  0  0  0  0  0  0  0  0  0  0
   26.7314  -21.0288  -12.4864 N   0  0  0  0  0  0  0  0  0  0  0  0
   25.7766  -20.6014  -11.4497 C   0  0  1  0  0  0  0  0  0  0  0  0
   24.4889  -21.2510  -11.7932 C   0  0  0  0  0  0  0  0  0  0  0  0
   23.2664  -20.4440  -11.6926 C   0  0  0  0  0  0  0  0  0  0  0  0
   22.8161  -19.5228  -12.6721 C   0  0  0  0  0  0  0  0  0  0  0  0
   21.7115  -18.9275  -12.2365 N   0  0  0  0  0  0  0  0  0  0  0  0
   21.3582  -19.3757  -11.0091 C   0  0  0  0  0  0  0  0  0  0  0  0
   20.3056  -19.0594  -10.1783 C   0  0  0  0  0  0  0  0  0  0  0  0
   20.1716  -19.6772   -8.9723 C   0  0  0  0  0  0  0  0  0  0  0  0
   21.1405  -20.6406   -8.6202 C   0  0  0  0  0  0  0  0  0  0  0  0
   22.1664  -20.9312   -9.4585 C   0  0  0  0  0  0  0  0  0  0  0  0
   22.3358  -20.3226  -10.6860 C   0  0  0  0  0  0  0  0  0  0  0  0
   26.3654  -21.1096  -10.1330 C   0  0  0  0  0  0  0  0  0  0  0  0
   26.7830  -22.2647  -10.1384 O   0  0  0  0  0  0  0  0  0  0  0  0
   29.5275  -19.2868   -5.3456 C   0  0  0  0  0  0  0  0  0  0  0  0
   28.4190  -20.2304   -5.7962 C   0  0  0  0  0  0  0  0  0  0  0  0
   27.8206  -19.6516   -7.0615 C   0  0  2  0  0  0  0  0  0  0  0  0
   27.2338  -18.3014   -6.7455 C   0  0  0  0  0  0  0  0  0  0  0  0
   26.8017  -20.5879   -7.6822 C   0  0  2  0  0  0  0  0  0  0  0  0
   26.4202  -20.2996   -9.0064 N   0  0  0  0  0  0  0  0  0  0  0  0
   25.8176  -21.0222   -6.6791 C   0  0  0  0  0  0  0  0  0  0  0  0
   26.3185  -21.9367   -5.7058 O   0  0  0  0  0  0  0  0  0  0  0  0
   24.6223  -20.6953   -6.5759 O   0  0  0  0  0  0  0  0  0  0  0  0
  1  2  1  0
  3  2  1  0
  4  3  1  0
  5  4  1  0
  5  1  1  0
  5  6  1  1
  7  6  2  0
  8  6  1  0
  9  8  1  0
 10 11  1  0
  9 10  1  6
 11 12  2  0
 13 12  1  0
 14 13  1  0
 15 14  2  0
 16 15  1  0
 17 18  1  0
 17 16  2  0
 18 19  2  0
 19 14  1  0
 19 11  1  0
 20  9  1  0
 20 27  1  0
 21 20  2  0
 23 22  1  0
 24 23  1  0
 24 26  1  0
 24 25  1  1
 26 28  1  0
 26 27  1  6
 28 29  1  0
 30 28  2  0
M  END
$$$$
