PWI.pdb
     RDKit          3D

 30 32  0  0  1  0  0  0  0  0999 V2000
   28.4956  -23.5159  -17.9947 N   0  0  0  0  0  0  0  0  0  0  0  0
   29.2264  -23.9431  -19.1854 C   0  0  0  0  0  0  0  0  0  0  0  0
   30.7050  -23.6284  -18.9055 C   0  0  0  0  0  0  0  0  0  0  0  0
   30.5676  -22.4153  -17.9875 C   0  0  0  0  0  0  0  0  0  0  0  0
   29.4353  -22.9358  -17.0854 C   0  0  1  0  0  0  0  0  0  0  0  0
   28.9084  -21.8800  -16.1976 C   0  0  0  0  0  0  0  0  0  0  0  0
   29.7510  -21.3742  -15.3885 O   0  0  0  0  0  0  0  0  0  0  0  0
   27.5487  -21.4540  -16.2369 N   0  0  0  0  0  0  0  0  0  0  0  0
   27.0956  -20.3435  -15.3823 C   0  0  1  0  0  0  0  0  0  0  0  0
   26.4767  -19.3551  -16.2979 C   0  0  0  0  0  0  0  0  0  0  0  0
   25.8020  -18.1962  -15.6999 C   0  0  0  0  0  0  0  0  0  0  0  0
   26.4367  -17.2004  -14.9148 C   0  0  0  0  0  0  0  0  0  0  0  0
   25.5250  -16.3330  -14.4894 N   0  0  0  0  0  0  0  0  0  0  0  0
   24.2872  -16.6595  -14.9291 C   0  0  0  0  0  0  0  0  0  0  0  0
   23.0572  -16.0650  -14.7508 C   0  0  0  0  0  0  0  0  0  0  0  0
   21.9442  -16.6022  -15.3224 C   0  0  0  0  0  0  0  0  0  0  0  0
   22.1057  -17.7723  -16.0942 C   0  0  0  0  0  0  0  0  0  0  0  0
   23.3293  -18.3358  -16.2521 C   0  0  0  0  0  0  0  0  0  0  0  0
   24.4779  -17.8213  -15.6847 C   0  0  0  0  0  0  0  0  0  0  0  0
   26.0889  -20.9700  -14.4166 C   0  0  0  0  0  0  0  0  0  0  0  0
   25.4234  -21.9022  -14.8600 O   0  0  0  0  0  0  0  0  0  0  0  0
   26.0298  -19.6379   -8.6120 C   0  0  0  0  0  0  0  0  0  0  0  0
   25.5115  -19.5098  -10.0393 C   0  0  0  0  0  0  0  0  0  0  0  0
   25.6223  -20.8759  -10.6837 C   0  0  2  0  0  0  0  0  0  0  0  0
   27.0623  -21.3141  -10.6444 C   0  0  0  0  0  0  0  0  0  0  0  0
   25.0601  -20.8816  -12.0922 C   0  0  2  0  0  0  0  0  0  0  0  0
   25.9489  -20.5029  -13.1164 N   0  0  0  0  0  0  0  0  0  0  0  0
   23.6577  -20.4382  -12.0927 C   0  0  0  0  0  0  0  0  0  0  0  0
   22.7687  -21.2633  -11.3420 O   0  0  0  0  0  0  0  0  0  0  0  0
   23.1594  -19.4486  -12.6572 O   0  0  0  0  0  0  0  0  0  0  0  0
  1  2  1  0
  3  2  1  0
  4  3  1  0
  5  4  1  0
  5  1  1  0
  5  6  1  6
  7  6  2  0
  8  6  1  0
  9  8  1  0
 10 11  1  0
  9 10  1  6
 11 12  2  0
 13 12  1  0
 14 13  1  0
 15 14  2  0
 16 15  1  0
 17 18  1  0
 17 16  2  0
 18 19  2  0
 19 14  1  0
 19 11  1  0
 20  9  1  0
 20 27  1  0
 21 20  2  0
 23 22  1  0
 24 23  1  0
 24 26  1  0
 24 25  1  6
 26 28  1  0
 26 27  1  6
 28 29  1  0
 30 28  2  0
M  END
$$$$
