PWI.pdb
     RDKit          3D

 30 32  0  0  1  0  0  0  0  0999 V2000
   26.7579  -19.9960  -14.5696 N   0  0  0  0  0  0  0  0  0  0  0  0
   27.7492  -19.8445  -15.6321 C   0  0  0  0  0  0  0  0  0  0  0  0
   29.0796  -20.3344  -15.0375 C   0  0  0  0  0  0  0  0  0  0  0  0
   28.8779  -19.9836  -13.5646 C   0  0  0  0  0  0  0  0  0  0  0  0
   27.4312  -20.4821  -13.4048 C   0  0  1  0  0  0  0  0  0  0  0  0
   26.8502  -20.0812  -12.1079 C   0  0  0  0  0  0  0  0  0  0  0  0
   26.5367  -18.8517  -12.0051 O   0  0  0  0  0  0  0  0  0  0  0  0
   26.6541  -21.0031  -11.0385 N   0  0  0  0  0  0  0  0  0  0  0  0
   25.9239  -20.5891   -9.8284 C   0  0  1  0  0  0  0  0  0  0  0  0
   24.6275  -21.3071   -9.8728 C   0  0  0  0  0  0  0  0  0  0  0  0
   23.5713  -20.7612  -10.7343 C   0  0  0  0  0  0  0  0  0  0  0  0
   23.6320  -20.6873  -12.1491 C   0  0  0  0  0  0  0  0  0  0  0  0
   22.5356  -20.0899  -12.6024 N   0  0  0  0  0  0  0  0  0  0  0  0
   21.7076  -19.7398  -11.5905 C   0  0  0  0  0  0  0  0  0  0  0  0
   20.4796  -19.1154  -11.5762 C   0  0  0  0  0  0  0  0  0  0  0  0
   19.8389  -18.8847  -10.3970 C   0  0  0  0  0  0  0  0  0  0  0  0
   20.4771  -19.3095   -9.2124 C   0  0  0  0  0  0  0  0  0  0  0  0
   21.6867  -19.9216   -9.2573 C   0  0  0  0  0  0  0  0  0  0  0  0
   22.3665  -20.1683  -10.4333 C   0  0  0  0  0  0  0  0  0  0  0  0
   26.8073  -21.0300   -8.6605 C   0  0  0  0  0  0  0  0  0  0  0  0
   27.2782  -22.1618   -8.7370 O   0  0  0  0  0  0  0  0  0  0  0  0
   29.2334  -17.1052   -5.4521 C   0  0  0  0  0  0  0  0  0  0  0  0
   28.9054  -18.3058   -6.3314 C   0  0  0  0  0  0  0  0  0  0  0  0
   28.0422  -19.2425   -5.5120 C   0  0  2  0  0  0  0  0  0  0  0  0
   28.7953  -19.6295   -4.2669 C   0  0  0  0  0  0  0  0  0  0  0  0
   27.6037  -20.4519   -6.3153 C   0  0  2  0  0  0  0  0  0  0  0  0
   27.0553  -20.1877   -7.5848 N   0  0  0  0  0  0  0  0  0  0  0  0
   27.0320  -21.4808   -5.4333 C   0  0  0  0  0  0  0  0  0  0  0  0
   25.6303  -21.6926   -5.5906 O   0  0  0  0  0  0  0  0  0  0  0  0
   27.6105  -22.1781   -4.5816 O   0  0  0  0  0  0  0  0  0  0  0  0
  1  2  1  0
  3  2  1  0
  4  3  1  0
  5  4  1  0
  5  1  1  0
  5  6  1  1
  7  6  2  0
  8  6  1  0
  9  8  1  0
 10 11  1  0
  9 10  1  1
 11 12  2  0
 13 12  1  0
 14 13  1  0
 15 14  2  0
 16 15  1  0
 17 18  1  0
 17 16  2  0
 18 19  2  0
 19 14  1  0
 19 11  1  0
 20  9  1  0
 20 27  1  0
 21 20  2  0
 23 22  1  0
 24 23  1  0
 24 26  1  0
 24 25  1  1
 26 28  1  0
 26 27  1  6
 28 29  1  0
 30 28  2  0
M  END
$$$$
