PWI.pdb
     RDKit          3D

 30 32  0  0  1  0  0  0  0  0999 V2000
   28.1539  -21.2212  -14.0289 N   0  0  0  0  0  0  0  0  0  0  0  0
   28.1494  -21.3184  -15.4866 C   0  0  0  0  0  0  0  0  0  0  0  0
   27.9428  -19.8848  -16.0020 C   0  0  0  0  0  0  0  0  0  0  0  0
   27.1133  -19.2916  -14.8648 C   0  0  0  0  0  0  0  0  0  0  0  0
   27.9131  -19.8555  -13.6776 C   0  0  1  0  0  0  0  0  0  0  0  0
   27.2228  -19.6310  -12.3917 C   0  0  0  0  0  0  0  0  0  0  0  0
   27.0060  -18.4129  -12.0921 O   0  0  0  0  0  0  0  0  0  0  0  0
   26.8264  -20.7014  -11.5378 N   0  0  0  0  0  0  0  0  0  0  0  0
   25.9788  -20.4365  -10.3629 C   0  0  1  0  0  0  0  0  0  0  0  0
   24.7873  -21.3048  -10.5198 C   0  0  0  0  0  0  0  0  0  0  0  0
   23.6880  -20.8140  -11.3603 C   0  0  0  0  0  0  0  0  0  0  0  0
   23.7073  -20.7619  -12.7772 C   0  0  0  0  0  0  0  0  0  0  0  0
   22.5770  -20.2142  -13.2094 N   0  0  0  0  0  0  0  0  0  0  0  0
   21.7639  -19.8786  -12.1806 C   0  0  0  0  0  0  0  0  0  0  0  0
   20.5137  -19.3009  -12.1421 C   0  0  0  0  0  0  0  0  0  0  0  0
   19.8970  -19.0746  -10.9494 C   0  0  0  0  0  0  0  0  0  0  0  0
   20.5829  -19.4548   -9.7764 C   0  0  0  0  0  0  0  0  0  0  0  0
   21.8134  -20.0213   -9.8450 C   0  0  0  0  0  0  0  0  0  0  0  0
   22.4699  -20.2620  -11.0354 C   0  0  0  0  0  0  0  0  0  0  0  0
   26.8385  -20.8199   -9.1577 C   0  0  0  0  0  0  0  0  0  0  0  0
   27.5854  -21.7828   -9.3117 O   0  0  0  0  0  0  0  0  0  0  0  0
   29.4789  -17.7086   -5.5839 C   0  0  0  0  0  0  0  0  0  0  0  0
   28.9376  -18.8033   -6.4953 C   0  0  0  0  0  0  0  0  0  0  0  0
   27.7544  -19.4333   -5.7902 C   0  0  2  0  0  0  0  0  0  0  0  0
   28.2168  -19.9842   -4.4674 C   0  0  0  0  0  0  0  0  0  0  0  0
   27.0845  -20.4895   -6.6479 C   0  0  2  0  0  0  0  0  0  0  0  0
   26.7695  -20.1096   -7.9665 N   0  0  0  0  0  0  0  0  0  0  0  0
   26.1586  -21.3007   -5.8429 C   0  0  0  0  0  0  0  0  0  0  0  0
   26.7653  -22.0051   -4.7611 O   0  0  0  0  0  0  0  0  0  0  0  0
   24.9319  -21.4455   -5.9863 O   0  0  0  0  0  0  0  0  0  0  0  0
  1  2  1  0
  3  2  1  0
  4  3  1  0
  5  4  1  0
  5  1  1  0
  5  6  1  1
  7  6  2  0
  8  6  1  0
  9  8  1  0
 10 11  1  0
  9 10  1  6
 11 12  2  0
 13 12  1  0
 14 13  1  0
 15 14  2  0
 16 15  1  0
 17 18  1  0
 17 16  2  0
 18 19  2  0
 19 14  1  0
 19 11  1  0
 20  9  1  0
 20 27  1  0
 21 20  2  0
 23 22  1  0
 24 23  1  0
 24 26  1  0
 24 25  1  1
 26 28  1  0
 26 27  1  6
 28 29  1  0
 30 28  2  0
M  END
$$$$
