PWI.pdb
     RDKit          3D

 30 32  0  0  1  0  0  0  0  0999 V2000
   27.7009  -19.4790  -15.0156 N   0  0  0  0  0  0  0  0  0  0  0  0
   29.0481  -19.2290  -15.5223 C   0  0  0  0  0  0  0  0  0  0  0  0
   29.6956  -20.6129  -15.6930 C   0  0  0  0  0  0  0  0  0  0  0  0
   28.9850  -21.3961  -14.5908 C   0  0  0  0  0  0  0  0  0  0  0  0
   27.5527  -20.8904  -14.8353 C   0  0  1  0  0  0  0  0  0  0  0  0
   26.6290  -21.3116  -13.7630 C   0  0  0  0  0  0  0  0  0  0  0  0
   26.2807  -22.5357  -13.7899 O   0  0  0  0  0  0  0  0  0  0  0  0
   26.1534  -20.4123  -12.7645 N   0  0  0  0  0  0  0  0  0  0  0  0
   25.2347  -20.8881  -11.7164 C   0  0  1  0  0  0  0  0  0  0  0  0
   25.6600  -20.2111  -10.4679 C   0  0  0  0  0  0  0  0  0  0  0  0
   26.9389  -20.6158   -9.8707 C   0  0  0  0  0  0  0  0  0  0  0  0
   27.9419  -21.3714  -10.5293 C   0  0  0  0  0  0  0  0  0  0  0  0
   28.9384  -21.6056   -9.6829 N   0  0  0  0  0  0  0  0  0  0  0  0
   28.6959  -21.0591   -8.4686 C   0  0  0  0  0  0  0  0  0  0  0  0
   29.4292  -21.0381   -7.3023 C   0  0  0  0  0  0  0  0  0  0  0  0
   28.9515  -20.3953   -6.2010 C   0  0  0  0  0  0  0  0  0  0  0  0
   27.6957  -19.7608   -6.3079 C   0  0  0  0  0  0  0  0  0  0  0  0
   26.9960  -19.7984   -7.4692 C   0  0  0  0  0  0  0  0  0  0  0  0
   27.4472  -20.4432   -8.6036 C   0  0  0  0  0  0  0  0  0  0  0  0
   23.8432  -20.4566  -12.1815 C   0  0  0  0  0  0  0  0  0  0  0  0
   23.7233  -19.2776  -12.5044 O   0  0  0  0  0  0  0  0  0  0  0  0
   21.5571  -22.4197  -16.2329 C   0  0  0  0  0  0  0  0  0  0  0  0
   22.0042  -21.5934  -15.0331 C   0  0  0  0  0  0  0  0  0  0  0  0
   21.0275  -21.8666  -13.9081 C   0  0  2  0  0  0  0  0  0  0  0  0
   19.6500  -21.4509  -14.3517 C   0  0  0  0  0  0  0  0  0  0  0  0
   21.4455  -21.1826  -12.6207 C   0  0  2  0  0  0  0  0  0  0  0  0
   22.7876  -21.3574  -12.2328 N   0  0  0  0  0  0  0  0  0  0  0  0
   20.3533  -21.2179  -11.6363 C   0  0  0  0  0  0  0  0  0  0  0  0
   20.4469  -22.2679  -10.6755 O   0  0  0  0  0  0  0  0  0  0  0  0
   19.3743  -20.4572  -11.5393 O   0  0  0  0  0  0  0  0  0  0  0  0
  1  2  1  0
  3  2  1  0
  4  3  1  0
  5  4  1  0
  5  1  1  0
  5  6  1  1
  7  6  2  0
  8  6  1  0
  9  8  1  0
 10 11  1  0
  9 10  1  1
 11 12  2  0
 13 12  1  0
 14 13  1  0
 15 14  2  0
 16 15  1  0
 17 18  1  0
 17 16  2  0
 18 19  2  0
 19 14  1  0
 19 11  1  0
 20  9  1  0
 20 27  1  0
 21 20  2  0
 23 22  1  0
 24 23  1  0
 24 26  1  0
 24 25  1  6
 26 28  1  0
 26 27  1  1
 28 29  1  0
 30 28  2  0
M  END
$$$$
