PWI.pdb
     RDKit          3D

 30 32  0  0  1  0  0  0  0  0999 V2000
   28.3576  -21.4367  -15.1451 N   0  0  0  0  0  0  0  0  0  0  0  0
   28.5431  -21.4754  -16.5937 C   0  0  0  0  0  0  0  0  0  0  0  0
   28.5910  -20.0081  -17.0499 C   0  0  0  0  0  0  0  0  0  0  0  0
   27.6927  -19.3558  -16.0008 C   0  0  0  0  0  0  0  0  0  0  0  0
   28.2432  -20.0660  -14.7520 C   0  0  1  0  0  0  0  0  0  0  0  0
   27.4148  -19.8029  -13.5582 C   0  0  0  0  0  0  0  0  0  0  0  0
   27.3148  -18.5798  -13.2200 O   0  0  0  0  0  0  0  0  0  0  0  0
   26.7709  -20.8441  -12.8280 N   0  0  0  0  0  0  0  0  0  0  0  0
   25.8021  -20.5157  -11.7685 C   0  0  1  0  0  0  0  0  0  0  0  0
   24.5582  -21.2427  -12.1183 C   0  0  0  0  0  0  0  0  0  0  0  0
   23.6759  -20.6444  -13.1279 C   0  0  0  0  0  0  0  0  0  0  0  0
   24.0301  -20.4065  -14.4803 C   0  0  0  0  0  0  0  0  0  0  0  0
   23.0189  -19.8053  -15.0971 N   0  0  0  0  0  0  0  0  0  0  0  0
   21.9747  -19.6069  -14.2590 C   0  0  0  0  0  0  0  0  0  0  0  0
   20.7343  -19.0377  -14.4477 C   0  0  0  0  0  0  0  0  0  0  0  0
   19.8450  -18.9695  -13.4188 C   0  0  0  0  0  0  0  0  0  0  0  0
   20.2435  -19.5014  -12.1741 C   0  0  0  0  0  0  0  0  0  0  0  0
   21.4716  -20.0555  -12.0177 C   0  0  0  0  0  0  0  0  0  0  0  0
   22.3994  -20.1384  -13.0367 C   0  0  0  0  0  0  0  0  0  0  0  0
   26.4414  -21.0210  -10.4745 C   0  0  0  0  0  0  0  0  0  0  0  0
   26.9517  -22.1371  -10.5244 O   0  0  0  0  0  0  0  0  0  0  0  0
   28.9902  -19.3787   -5.2099 C   0  0  0  0  0  0  0  0  0  0  0  0
   28.0300  -20.3466   -5.8905 C   0  0  0  0  0  0  0  0  0  0  0  0
   27.5777  -19.6992   -7.1829 C   0  0  2  0  0  0  0  0  0  0  0  0
   26.9363  -18.3752   -6.8622 C   0  0  0  0  0  0  0  0  0  0  0  0
   26.6548  -20.6059   -7.9743 C   0  0  2  0  0  0  0  0  0  0  0  0
   26.4395  -20.2502   -9.3194 N   0  0  0  0  0  0  0  0  0  0  0  0
   25.5572  -21.0961   -7.1268 C   0  0  0  0  0  0  0  0  0  0  0  0
   24.2506  -20.7368   -7.5721 O   0  0  0  0  0  0  0  0  0  0  0  0
   25.6264  -21.7746   -6.0870 O   0  0  0  0  0  0  0  0  0  0  0  0
  1  2  1  0
  3  2  1  0
  4  3  1  0
  5  4  1  0
  5  1  1  0
  5  6  1  1
  7  6  2  0
  8  6  1  0
  9  8  1  0
 10 11  1  0
  9 10  1  6
 11 12  2  0
 13 12  1  0
 14 13  1  0
 15 14  2  0
 16 15  1  0
 17 18  1  0
 17 16  2  0
 18 19  2  0
 19 14  1  0
 19 11  1  0
 20  9  1  0
 20 27  1  0
 21 20  2  0
 23 22  1  0
 24 23  1  0
 24 26  1  0
 24 25  1  1
 26 28  1  0
 26 27  1  6
 28 29  1  0
 30 28  2  0
M  END
$$$$
