PWI.pdb
     RDKit          3D

 30 32  0  0  1  0  0  0  0  0999 V2000
   29.0262  -22.9848  -16.2962 N   0  0  0  0  0  0  0  0  0  0  0  0
   29.2524  -23.4980  -17.6453 C   0  0  0  0  0  0  0  0  0  0  0  0
   29.5618  -22.2688  -18.5153 C   0  0  0  0  0  0  0  0  0  0  0  0
   28.7504  -21.1969  -17.7902 C   0  0  0  0  0  0  0  0  0  0  0  0
   29.1303  -21.5589  -16.3440 C   0  0  1  0  0  0  0  0  0  0  0  0
   28.3174  -20.8181  -15.3587 C   0  0  0  0  0  0  0  0  0  0  0  0
   28.4367  -19.5512  -15.3923 O   0  0  0  0  0  0  0  0  0  0  0  0
   27.4579  -21.4719  -14.4282 N   0  0  0  0  0  0  0  0  0  0  0  0
   26.3878  -20.7184  -13.7528 C   0  0  1  0  0  0  0  0  0  0  0  0
   25.1467  -21.0129  -14.5085 C   0  0  0  0  0  0  0  0  0  0  0  0
   23.9428  -20.2411  -14.1759 C   0  0  0  0  0  0  0  0  0  0  0  0
   23.8488  -18.8265  -14.2052 C   0  0  0  0  0  0  0  0  0  0  0  0
   22.6395  -18.4607  -13.7951 N   0  0  0  0  0  0  0  0  0  0  0  0
   21.8775  -19.5341  -13.4798 C   0  0  0  0  0  0  0  0  0  0  0  0
   20.5821  -19.6450  -13.0240 C   0  0  0  0  0  0  0  0  0  0  0  0
   20.0383  -20.8710  -12.7888 C   0  0  0  0  0  0  0  0  0  0  0  0
   20.8463  -22.0020  -13.0318 C   0  0  0  0  0  0  0  0  0  0  0  0
   22.1188  -21.8620  -13.4803 C   0  0  0  0  0  0  0  0  0  0  0  0
   22.7036  -20.6358  -13.7258 C   0  0  0  0  0  0  0  0  0  0  0  0
   26.3573  -21.2646  -12.3248 C   0  0  0  0  0  0  0  0  0  0  0  0
   26.4340  -22.4853  -12.2118 O   0  0  0  0  0  0  0  0  0  0  0  0
   27.9789  -19.4665   -6.7463 C   0  0  0  0  0  0  0  0  0  0  0  0
   27.0983  -20.4105   -7.5559 C   0  0  0  0  0  0  0  0  0  0  0  0
   26.8944  -19.7803   -8.9180 C   0  0  2  0  0  0  0  0  0  0  0  0
   26.2057  -18.4534   -8.7389 C   0  0  0  0  0  0  0  0  0  0  0  0
   26.1338  -20.6985   -9.8553 C   0  0  2  0  0  0  0  0  0  0  0  0
   26.2513  -20.4172  -11.2298 N   0  0  0  0  0  0  0  0  0  0  0  0
   24.8477  -21.0953   -9.2622 C   0  0  0  0  0  0  0  0  0  0  0  0
   23.6970  -20.6878  -10.0000 O   0  0  0  0  0  0  0  0  0  0  0  0
   24.6429  -21.7325   -8.2141 O   0  0  0  0  0  0  0  0  0  0  0  0
  1  2  1  0
  3  2  1  0
  4  3  1  0
  5  4  1  0
  5  1  1  0
  5  6  1  1
  7  6  2  0
  8  6  1  0
  9  8  1  0
 10 11  1  0
  9 10  1  6
 11 12  2  0
 13 12  1  0
 14 13  1  0
 15 14  2  0
 16 15  1  0
 17 18  1  0
 17 16  2  0
 18 19  2  0
 19 14  1  0
 19 11  1  0
 20  9  1  0
 20 27  1  0
 21 20  2  0
 23 22  1  0
 24 23  1  0
 24 26  1  0
 24 25  1  1
 26 28  1  0
 26 27  1  6
 28 29  1  0
 30 28  2  0
M  END
$$$$
