PWI.pdb
     RDKit          3D

 30 32  0  0  1  0  0  0  0  0999 V2000
   22.1565  -10.4608  -19.9802 N   0  0  0  0  0  0  0  0  0  0  0  0
   21.9913  -11.3284  -21.1440 C   0  0  0  0  0  0  0  0  0  0  0  0
   20.4881  -11.3169  -21.4659 C   0  0  0  0  0  0  0  0  0  0  0  0
   19.9015  -11.1020  -20.0721 C   0  0  0  0  0  0  0  0  0  0  0  0
   20.8604  -10.0018  -19.5853 C   0  0  1  0  0  0  0  0  0  0  0  0
   20.6864   -9.7157  -18.1472 C   0  0  0  0  0  0  0  0  0  0  0  0
   19.5195   -9.3438  -17.8002 O   0  0  0  0  0  0  0  0  0  0  0  0
   21.7501   -9.8426  -17.2067 N   0  0  0  0  0  0  0  0  0  0  0  0
   21.5039   -9.6071  -15.7740 C   0  0  1  0  0  0  0  0  0  0  0  0
   22.3412  -10.5948  -15.0519 C   0  0  0  0  0  0  0  0  0  0  0  0
   22.0209  -12.0178  -15.2206 C   0  0  0  0  0  0  0  0  0  0  0  0
   20.7314  -12.5336  -15.5064 C   0  0  0  0  0  0  0  0  0  0  0  0
   20.7889  -13.8603  -15.5376 N   0  0  0  0  0  0  0  0  0  0  0  0
   22.0424  -14.3078  -15.2913 C   0  0  0  0  0  0  0  0  0  0  0  0
   22.5737  -15.5774  -15.2273 C   0  0  0  0  0  0  0  0  0  0  0  0
   23.8982  -15.7564  -14.9670 C   0  0  0  0  0  0  0  0  0  0  0  0
   24.6878  -14.6033  -14.7726 C   0  0  0  0  0  0  0  0  0  0  0  0
   24.1370  -13.3657  -14.8412 C   0  0  0  0  0  0  0  0  0  0  0  0
   22.7985  -13.1467  -15.0991 C   0  0  0  0  0  0  0  0  0  0  0  0
   21.9428   -8.1632  -15.5271 C   0  0  0  0  0  0  0  0  0  0  0  0
   23.0363   -7.8450  -15.9874 O   0  0  0  0  0  0  0  0  0  0  0  0
   18.7203   -4.1611  -16.5013 C   0  0  0  0  0  0  0  0  0  0  0  0
   19.8999   -5.0957  -16.2622 C   0  0  0  0  0  0  0  0  0  0  0  0
   20.3199   -4.9313  -14.8164 C   0  0  2  0  0  0  0  0  0  0  0  0
   20.7872   -3.5155  -14.6063 C   0  0  0  0  0  0  0  0  0  0  0  0
   21.3725   -5.9473  -14.4165 C   0  0  2  0  0  0  0  0  0  0  0  0
   21.1399   -7.2747  -14.8241 N   0  0  0  0  0  0  0  0  0  0  0  0
   21.9108   -5.6390  -13.0829 C   0  0  0  0  0  0  0  0  0  0  0  0
   21.5991   -6.5988  -12.0749 O   0  0  0  0  0  0  0  0  0  0  0  0
   22.5935   -4.6609  -12.7313 O   0  0  0  0  0  0  0  0  0  0  0  0
  1  2  1  0
  3  2  1  0
  4  3  1  0
  5  4  1  0
  5  1  1  0
  5  6  1  1
  7  6  2  0
  8  6  1  0
  9  8  1  0
 10 11  1  0
  9 10  1  1
 11 12  2  0
 13 12  1  0
 14 13  1  0
 15 14  2  0
 16 15  1  0
 17 18  1  0
 17 16  2  0
 18 19  2  0
 19 14  1  0
 19 11  1  0
 20  9  1  0
 20 27  1  0
 21 20  2  0
 23 22  1  0
 24 23  1  0
 24 26  1  0
 24 25  1  6
 26 28  1  0
 26 27  1  1
 28 29  1  0
 30 28  2  0
M  END
$$$$
