GGI.pdb
     RDKit          3D

 17 16  0  0  1  0  0  0  0  0999 V2000
   19.5182   -9.6140  -18.5033 N   0  0  0  0  0  0  0  0  0  0  0  0
   19.0962  -10.4033  -17.3763 C   0  0  0  0  0  0  0  0  0  0  0  0
   19.6586   -9.8687  -16.1313 C   0  0  0  0  0  0  0  0  0  0  0  0
   18.9352   -9.1303  -15.4104 O   0  0  0  0  0  0  0  0  0  0  0  0
   20.9742  -10.1740  -15.7530 N   0  0  0  0  0  0  0  0  0  0  0  0
   21.5829   -9.6685  -14.5423 C   0  0  0  0  0  0  0  0  0  0  0  0
   22.0168   -8.2569  -14.7352 C   0  0  0  0  0  0  0  0  0  0  0  0
   23.1277   -8.0301  -15.2463 O   0  0  0  0  0  0  0  0  0  0  0  0
   18.8064   -4.7033  -16.9700 C   0  0  0  0  0  0  0  0  0  0  0  0
   20.0134   -5.4469  -16.4623 C   0  0  0  0  0  0  0  0  0  0  0  0
   20.4506   -4.9759  -15.1006 C   0  0  2  0  0  0  0  0  0  0  0  0
   20.7264   -3.5204  -15.1641 C   0  0  0  0  0  0  0  0  0  0  0  0
   21.5360   -5.8112  -14.5255 C   0  0  2  0  0  0  0  0  0  0  0  0
   21.1667   -7.1851  -14.3379 N   0  0  0  0  0  0  0  0  0  0  0  0
   22.1743   -5.2778  -13.3252 C   0  0  0  0  0  0  0  0  0  0  0  0
   21.9069   -5.6386  -12.1500 O   0  0  0  0  0  0  0  0  0  0  0  0
   23.1442   -4.3034  -13.4641 O   0  0  0  0  0  0  0  0  0  0  0  0
  1  2  1  0
  3  5  1  0
  3  2  1  0
  4  3  2  0
  6  5  1  0
  7  6  1  0
  8  7  2  0
  9 10  1  0
 10 11  1  0
 11 13  1  0
 11 12  1  6
 13 14  1  1
 14  7  1  0
 15 13  1  0
 16 15  2  0
 17 15  1  0
M  END
$$$$
