GGI.pdb
     RDKit          3D

 17 16  0  0  1  0  0  0  0  0999 V2000
   27.0138  -21.2282  -17.7814 N   0  0  0  0  0  0  0  0  0  0  0  0
   26.1450  -21.5739  -16.6874 C   0  0  0  0  0  0  0  0  0  0  0  0
   26.4944  -20.8056  -15.4874 C   0  0  0  0  0  0  0  0  0  0  0  0
   25.9757  -19.6684  -15.3266 O   0  0  0  0  0  0  0  0  0  0  0  0
   27.3872  -21.3276  -14.5401 N   0  0  0  0  0  0  0  0  0  0  0  0
   27.6625  -20.6796  -13.2767 C   0  0  0  0  0  0  0  0  0  0  0  0
   26.7145  -21.1615  -12.2340 C   0  0  0  0  0  0  0  0  0  0  0  0
   26.1620  -22.2658  -12.3828 O   0  0  0  0  0  0  0  0  0  0  0  0
   27.6735  -19.5071   -7.1654 C   0  0  0  0  0  0  0  0  0  0  0  0
   27.3020  -20.3478   -8.3581 C   0  0  0  0  0  0  0  0  0  0  0  0
   25.8453  -20.2253   -8.7192 C   0  0  2  0  0  0  0  0  0  0  0  0
   25.0293  -20.7527   -7.5991 C   0  0  0  0  0  0  0  0  0  0  0  0
   25.5369  -20.7871  -10.0592 C   0  0  2  0  0  0  0  0  0  0  0  0
   26.4480  -20.3642  -11.0840 N   0  0  0  0  0  0  0  0  0  0  0  0
   24.1534  -20.6388  -10.5026 C   0  0  0  0  0  0  0  0  0  0  0  0
   23.7243  -19.6903  -11.2088 O   0  0  0  0  0  0  0  0  0  0  0  0
   23.2289  -21.5962  -10.1306 O   0  0  0  0  0  0  0  0  0  0  0  0
  1  2  1  0
  3  5  1  0
  3  2  1  0
  4  3  2  0
  6  5  1  0
  7  6  1  0
  8  7  2  0
  9 10  1  0
 10 11  1  0
 11 13  1  0
 11 12  1  1
 13 14  1  6
 14  7  1  0
 15 13  1  0
 16 15  2  0
 17 15  1  0
M  END
$$$$
