GGI.pdb
     RDKit          3D

 17 16  0  0  1  0  0  0  0  0999 V2000
   23.7306  -19.5904  -14.7916 N   0  0  0  0  0  0  0  0  0  0  0  0
   24.8397  -19.0088  -14.0826 C   0  0  0  0  0  0  0  0  0  0  0  0
   25.8478  -20.0289  -13.7737 C   0  0  0  0  0  0  0  0  0  0  0  0
   26.3808  -20.6586  -14.7263 O   0  0  0  0  0  0  0  0  0  0  0  0
   26.2093  -20.2963  -12.4452 N   0  0  0  0  0  0  0  0  0  0  0  0
   27.2757  -21.2054  -12.0871 C   0  0  0  0  0  0  0  0  0  0  0  0
   27.4411  -21.2470  -10.6075 C   0  0  0  0  0  0  0  0  0  0  0  0
   28.2632  -22.0384  -10.1129 O   0  0  0  0  0  0  0  0  0  0  0  0
   28.7910  -18.6641   -6.5089 C   0  0  0  0  0  0  0  0  0  0  0  0
   28.2782  -19.6739   -7.5012 C   0  0  0  0  0  0  0  0  0  0  0  0
   26.7932  -19.8945   -7.3850 C   0  0  2  0  0  0  0  0  0  0  0  0
   26.4788  -20.3080   -5.9961 C   0  0  0  0  0  0  0  0  0  0  0  0
   26.2583  -20.7757   -8.4545 C   0  0  2  0  0  0  0  0  0  0  0  0
   26.6656  -20.3896   -9.7753 N   0  0  0  0  0  0  0  0  0  0  0  0
   24.8199  -21.0235   -8.4075 C   0  0  0  0  0  0  0  0  0  0  0  0
   23.9768  -20.5037   -9.1832 O   0  0  0  0  0  0  0  0  0  0  0  0
   24.3241  -21.8864   -7.4489 O   0  0  0  0  0  0  0  0  0  0  0  0
  1  2  1  0
  3  5  1  0
  3  2  1  0
  4  3  2  0
  6  5  1  0
  7  6  1  0
  8  7  2  0
  9 10  1  0
 10 11  1  0
 11 13  1  0
 11 12  1  1
 13 14  1  6
 14  7  1  0
 15 13  1  0
 16 15  2  0
 17 15  1  0
M  END
$$$$
