GGI.pdb
     RDKit          3D

 17 16  0  0  1  0  0  0  0  0999 V2000
   27.0607  -19.0828  -18.1976 N   0  0  0  0  0  0  0  0  0  0  0  0
   27.5693  -19.8264  -17.0753 C   0  0  0  0  0  0  0  0  0  0  0  0
   27.1982  -19.1762  -15.8136 C   0  0  0  0  0  0  0  0  0  0  0  0
   26.1968  -18.4112  -15.8006 O   0  0  0  0  0  0  0  0  0  0  0  0
   27.9436  -19.4024  -14.6474 N   0  0  0  0  0  0  0  0  0  0  0  0
   27.5526  -18.8927  -13.3516 C   0  0  0  0  0  0  0  0  0  0  0  0
   26.7104  -19.8926  -12.6382 C   0  0  0  0  0  0  0  0  0  0  0  0
   26.7315  -21.0783  -13.0127 O   0  0  0  0  0  0  0  0  0  0  0  0
   26.9648  -19.4800   -7.4869 C   0  0  0  0  0  0  0  0  0  0  0  0
   26.8100  -20.0382   -8.8768 C   0  0  0  0  0  0  0  0  0  0  0  0
   25.3673  -20.2177   -9.2690 C   0  0  2  0  0  0  0  0  0  0  0  0
   24.7557  -21.2399   -8.3859 C   0  0  0  0  0  0  0  0  0  0  0  0
   25.1924  -20.4405  -10.7272 C   0  0  2  0  0  0  0  0  0  0  0  0
   25.8936  -19.4905  -11.5425 N   0  0  0  0  0  0  0  0  0  0  0  0
   23.8129  -20.5945  -11.1811 C   0  0  0  0  0  0  0  0  0  0  0  0
   23.0525  -19.6444  -11.5001 O   0  0  0  0  0  0  0  0  0  0  0  0
   23.2805  -21.8663  -11.2734 O   0  0  0  0  0  0  0  0  0  0  0  0
  1  2  1  0
  3  5  1  0
  3  2  1  0
  4  3  2  0
  6  5  1  0
  7  6  1  0
  8  7  2  0
  9 10  1  0
 10 11  1  0
 11 13  1  0
 11 12  1  1
 13 14  1  6
 14  7  1  0
 15 13  1  0
 16 15  2  0
 17 15  1  0
M  END
$$$$
