GGI.pdb
     RDKit          3D

 17 16  0  0  1  0  0  0  0  0999 V2000
   24.2847  -21.1646  -14.8482 N   0  0  0  0  0  0  0  0  0  0  0  0
   25.0964  -19.9823  -14.9684 C   0  0  0  0  0  0  0  0  0  0  0  0
   26.0197  -19.8717  -13.8336 C   0  0  0  0  0  0  0  0  0  0  0  0
   25.8195  -18.9680  -12.9785 O   0  0  0  0  0  0  0  0  0  0  0  0
   27.1019  -20.7544  -13.7050 N   0  0  0  0  0  0  0  0  0  0  0  0
   28.0059  -20.7328  -12.5762 C   0  0  0  0  0  0  0  0  0  0  0  0
   27.3109  -21.2168  -11.3511 C   0  0  0  0  0  0  0  0  0  0  0  0
   27.5096  -22.3817  -10.9634 O   0  0  0  0  0  0  0  0  0  0  0  0
   28.0414  -19.2981   -6.8767 C   0  0  0  0  0  0  0  0  0  0  0  0
   27.5607  -20.2760   -7.9160 C   0  0  0  0  0  0  0  0  0  0  0  0
   26.0966  -20.1134   -8.2278 C   0  0  2  0  0  0  0  0  0  0  0  0
   25.3087  -20.4752   -7.0249 C   0  0  0  0  0  0  0  0  0  0  0  0
   25.6985  -20.7956   -9.4859 C   0  0  2  0  0  0  0  0  0  0  0  0
   26.4317  -20.3528  -10.6372 N   0  0  0  0  0  0  0  0  0  0  0  0
   24.2650  -20.8219   -9.7632 C   0  0  0  0  0  0  0  0  0  0  0  0
   23.4021  -21.3677   -9.0281 O   0  0  0  0  0  0  0  0  0  0  0  0
   23.7977  -20.2114  -10.9115 O   0  0  0  0  0  0  0  0  0  0  0  0
  1  2  1  0
  3  5  1  0
  3  2  1  0
  4  3  2  0
  6  5  1  0
  7  6  1  0
  8  7  2  0
  9 10  1  0
 10 11  1  0
 11 13  1  0
 11 12  1  1
 13 14  1  6
 14  7  1  0
 15 13  1  0
 16 15  2  0
 17 15  1  0
M  END
$$$$
