GGI.pdb
     RDKit          3D

 17 16  0  0  1  0  0  0  0  0999 V2000
   26.2546  -18.1659  -17.6486 N   0  0  0  0  0  0  0  0  0  0  0  0
   25.6846  -19.3218  -18.2891 C   0  0  0  0  0  0  0  0  0  0  0  0
   26.1650  -20.5540  -17.6541 C   0  0  0  0  0  0  0  0  0  0  0  0
   27.0649  -21.2199  -18.2327 O   0  0  0  0  0  0  0  0  0  0  0  0
   25.6327  -20.9802  -16.4285 N   0  0  0  0  0  0  0  0  0  0  0  0
   25.9911  -22.2369  -15.8087 C   0  0  0  0  0  0  0  0  0  0  0  0
   25.2350  -22.4181  -14.5384 C   0  0  0  0  0  0  0  0  0  0  0  0
   25.2483  -23.5292  -13.9799 O   0  0  0  0  0  0  0  0  0  0  0  0
   26.4773  -20.6314  -10.1428 C   0  0  0  0  0  0  0  0  0  0  0  0
   25.7767  -21.3781  -11.2468 C   0  0  0  0  0  0  0  0  0  0  0  0
   24.4426  -20.7735  -11.5961 C   0  0  2  0  0  0  0  0  0  0  0  0
   23.6286  -20.6662  -10.3614 C   0  0  0  0  0  0  0  0  0  0  0  0
   23.7861  -21.4543  -12.7416 C   0  0  2  0  0  0  0  0  0  0  0  0
   24.5082  -21.3299  -13.9754 N   0  0  0  0  0  0  0  0  0  0  0  0
   22.3725  -21.1429  -12.9349 C   0  0  0  0  0  0  0  0  0  0  0  0
   21.9146  -20.4402  -13.8726 O   0  0  0  0  0  0  0  0  0  0  0  0
   21.4515  -21.6433  -12.0345 O   0  0  0  0  0  0  0  0  0  0  0  0
  1  2  1  0
  3  5  1  0
  3  2  1  0
  4  3  2  0
  6  5  1  0
  7  6  1  0
  8  7  2  0
  9 10  1  0
 10 11  1  0
 11 13  1  0
 11 12  1  1
 13 14  1  6
 14  7  1  0
 15 13  1  0
 16 15  2  0
 17 15  1  0
M  END
$$$$
