GGI.pdb
     RDKit          3D

 17 16  0  0  1  0  0  0  0  0999 V2000
   25.6805  -18.1274  -16.2792 N   0  0  0  0  0  0  0  0  0  0  0  0
   25.7774  -18.3249  -14.8570 C   0  0  0  0  0  0  0  0  0  0  0  0
   26.4780  -19.5782  -14.5558 C   0  0  0  0  0  0  0  0  0  0  0  0
   26.9835  -20.2309  -15.5079 O   0  0  0  0  0  0  0  0  0  0  0  0
   26.5818  -20.0387  -13.2352 N   0  0  0  0  0  0  0  0  0  0  0  0
   27.2660  -21.2623  -12.8793 C   0  0  0  0  0  0  0  0  0  0  0  0
   27.2236  -21.4651  -11.4044 C   0  0  0  0  0  0  0  0  0  0  0  0
   27.7881  -22.4590  -10.9142 O   0  0  0  0  0  0  0  0  0  0  0  0
   28.1215  -19.1506   -6.8901 C   0  0  0  0  0  0  0  0  0  0  0  0
   27.7221  -20.1084   -7.9812 C   0  0  0  0  0  0  0  0  0  0  0  0
   26.2301  -20.1741   -8.1738 C   0  0  2  0  0  0  0  0  0  0  0  0
   25.6041  -20.6232   -6.9068 C   0  0  0  0  0  0  0  0  0  0  0  0
   25.8411  -20.9358   -9.3882 C   0  0  2  0  0  0  0  0  0  0  0  0
   26.5443  -20.5302  -10.5716 N   0  0  0  0  0  0  0  0  0  0  0  0
   24.4061  -21.0264   -9.6437 C   0  0  0  0  0  0  0  0  0  0  0  0
   23.5917  -21.6764   -8.9388 O   0  0  0  0  0  0  0  0  0  0  0  0
   23.8807  -20.3598  -10.7343 O   0  0  0  0  0  0  0  0  0  0  0  0
  1  2  1  0
  3  5  1  0
  3  2  1  0
  4  3  2  0
  6  5  1  0
  7  6  1  0
  8  7  2  0
  9 10  1  0
 10 11  1  0
 11 13  1  0
 11 12  1  1
 13 14  1  6
 14  7  1  0
 15 13  1  0
 16 15  2  0
 17 15  1  0
M  END
$$$$
