QNT.pdb
     RDKit          3D

 25 24  0  0  1  0  0  0  0  0999 V2000
    8.7256  -14.7773   14.4472 N   0  0  0  0  0  0  0  0  0  0  0  0
    7.7429  -15.3386   15.2920 C   0  0  0  0  0  0  0  0  0  0  0  0
    6.9527  -16.1607   14.7791 O   0  0  0  0  0  0  0  0  0  0  0  0
    7.6296  -14.9932   16.7158 C   0  0  0  0  0  0  0  0  0  0  0  0
    8.5488  -13.8809   17.1286 C   0  0  0  0  0  0  0  0  0  0  0  0
    8.3420  -13.5567   18.5682 C   0  0  2  0  0  0  0  0  0  0  0  0
    9.2859  -12.4747   18.8860 N   0  0  0  0  0  0  0  0  0  0  0  0
    8.6916  -14.7089   19.4569 C   0  0  0  0  0  0  0  0  0  0  0  0
    7.9868  -15.7435   19.4080 O   0  0  0  0  0  0  0  0  0  0  0  0
   11.0282  -18.6465   22.0132 N   0  0  0  0  0  0  0  0  0  0  0  0
   11.7095  -17.4030   22.0084 C   0  0  0  0  0  0  0  0  0  0  0  0
   12.6329  -17.2088   22.8342 O   0  0  0  0  0  0  0  0  0  0  0  0
   11.3328  -16.3745   21.0529 C   0  0  0  0  0  0  0  0  0  0  0  0
    9.9879  -15.7464   21.2949 C   0  0  2  0  0  0  0  0  0  0  0  0
    9.7898  -14.6680   20.3486 N   0  0  0  0  0  0  0  0  0  0  0  0
    9.8572  -15.2990   22.6894 C   0  0  0  0  0  0  0  0  0  0  0  0
   10.8458  -14.8563   23.3209 O   0  0  0  0  0  0  0  0  0  0  0  0
    6.9814  -13.0996   24.4945 C   0  0  0  0  0  0  0  0  0  0  0  0
    7.1577  -14.4498   25.1560 C   0  0  1  0  0  0  0  0  0  0  0  0
    6.1400  -15.3084   24.7592 O   0  0  0  0  0  0  0  0  0  0  0  0
    8.5209  -14.9818   24.7936 C   0  0  2  0  0  0  0  0  0  0  0  0
    8.6155  -15.3413   23.3951 N   0  0  0  0  0  0  0  0  0  0  0  0
    8.8767  -16.1407   25.6284 C   0  0  0  0  0  0  0  0  0  0  0  0
    8.9407  -16.0269   26.9974 O   0  0  0  0  0  0  0  0  0  0  0  0
    9.1345  -17.2716   25.1303 O   0  0  0  0  0  0  0  0  0  0  0  0
  2  4  1  0
  2  1  1  0
  3  2  2  0
  5  4  1  0
  6  5  1  0
  6  7  1  1
  8  6  1  0
  8 15  1  0
  9  8  2  0
 10 11  1  0
 11 12  2  0
 13 11  1  0
 14 13  1  1
 14 15  1  0
 16 14  1  0
 17 16  2  0
 19 18  1  6
 19 21  1  0
 20 19  1  0
 21 22  1  6
 21 23  1  0
 22 16  1  0
 23 24  1  0
 25 23  2  0
M  END
$$$$
