QNT.pdb
     RDKit          3D

 25 24  0  0  1  0  0  0  0  0999 V2000
    7.4891  -12.1291   19.2945 N   0  0  0  0  0  0  0  0  0  0  0  0
    7.7696  -13.3344   18.6140 C   0  0  0  0  0  0  0  0  0  0  0  0
    7.2755  -13.4732   17.4738 O   0  0  0  0  0  0  0  0  0  0  0  0
    8.6034  -14.3969   19.1930 C   0  0  0  0  0  0  0  0  0  0  0  0
    9.0873  -14.0791   20.5778 C   0  0  0  0  0  0  0  0  0  0  0  0
    9.8627  -15.2288   21.1229 C   0  0  2  0  0  0  0  0  0  0  0  0
    9.4569  -16.4065   20.3411 N   0  0  0  0  0  0  0  0  0  0  0  0
    9.5102  -15.5155   22.5488 C   0  0  0  0  0  0  0  0  0  0  0  0
    9.7685  -14.6520   23.4190 O   0  0  0  0  0  0  0  0  0  0  0  0
    6.5449  -19.1438   26.2448 N   0  0  0  0  0  0  0  0  0  0  0  0
    6.6851  -17.8242   25.7452 C   0  0  0  0  0  0  0  0  0  0  0  0
    6.3645  -16.8568   26.4756 O   0  0  0  0  0  0  0  0  0  0  0  0
    7.1956  -17.6091   24.4013 C   0  0  0  0  0  0  0  0  0  0  0  0
    8.5357  -16.9299   24.3334 C   0  0  2  0  0  0  0  0  0  0  0  0
    8.8960  -16.7272   22.9454 N   0  0  0  0  0  0  0  0  0  0  0  0
    9.5530  -17.6940   25.0703 C   0  0  0  0  0  0  0  0  0  0  0  0
    9.3727  -18.0229   26.2667 O   0  0  0  0  0  0  0  0  0  0  0  0
   11.9993  -20.5599   23.4581 C   0  0  0  0  0  0  0  0  0  0  0  0
   12.7556  -19.5545   24.3002 C   0  0  1  0  0  0  0  0  0  0  0  0
   13.4264  -18.6574   23.4784 O   0  0  0  0  0  0  0  0  0  0  0  0
   11.7729  -18.8629   25.2105 C   0  0  2  0  0  0  0  0  0  0  0  0
   10.7869  -18.1004   24.4754 N   0  0  0  0  0  0  0  0  0  0  0  0
   12.4649  -17.9851   26.1682 C   0  0  0  0  0  0  0  0  0  0  0  0
   13.3726  -18.5001   27.0639 O   0  0  0  0  0  0  0  0  0  0  0  0
   12.2576  -16.7405   26.2074 O   0  0  0  0  0  0  0  0  0  0  0  0
  2  4  1  0
  2  1  1  0
  3  2  2  0
  5  4  1  0
  6  5  1  0
  6  7  1  6
  8  6  1  0
  8 15  1  0
  9  8  2  0
 10 11  1  0
 11 12  2  0
 13 11  1  0
 14 13  1  6
 14 15  1  0
 16 14  1  0
 17 16  2  0
 19 18  1  6
 19 21  1  0
 20 19  1  0
 21 22  1  6
 21 23  1  0
 22 16  1  0
 23 24  1  0
 25 23  2  0
M  END
$$$$
