QNT.pdb
     RDKit          3D

 25 24  0  0  1  0  0  0  0  0999 V2000
   10.1995  -19.4401   27.4975 N   0  0  0  0  0  0  0  0  0  0  0  0
    9.9642  -18.0663   27.7254 C   0  0  0  0  0  0  0  0  0  0  0  0
    9.8907  -17.6906   28.9157 O   0  0  0  0  0  0  0  0  0  0  0  0
    9.8098  -17.0958   26.6328 C   0  0  0  0  0  0  0  0  0  0  0  0
    9.8211  -17.7310   25.2729 C   0  0  0  0  0  0  0  0  0  0  0  0
   10.0034  -16.6877   24.2248 C   0  0  2  0  0  0  0  0  0  0  0  0
    9.3628  -15.4689   24.7415 N   0  0  0  0  0  0  0  0  0  0  0  0
    9.2957  -17.0414   22.9544 C   0  0  0  0  0  0  0  0  0  0  0  0
    9.7510  -17.9716   22.2495 O   0  0  0  0  0  0  0  0  0  0  0  0
    6.1464  -18.7825   22.5609 N   0  0  0  0  0  0  0  0  0  0  0  0
    5.3770  -17.6818   22.1058 C   0  0  0  0  0  0  0  0  0  0  0  0
    4.1433  -17.6644   22.3292 O   0  0  0  0  0  0  0  0  0  0  0  0
    6.0225  -16.5934   21.3905 C   0  0  0  0  0  0  0  0  0  0  0  0
    7.5159  -16.7166   21.2627 C   0  0  2  0  0  0  0  0  0  0  0  0
    8.1317  -16.3610   22.5245 N   0  0  0  0  0  0  0  0  0  0  0  0
    8.0192  -15.9043   20.1453 C   0  0  0  0  0  0  0  0  0  0  0  0
    7.2561  -15.5312   19.2230 O   0  0  0  0  0  0  0  0  0  0  0  0
    7.6242  -13.5315   19.0105 C   0  0  0  0  0  0  0  0  0  0  0  0
    9.1125  -13.2620   19.0752 C   0  0  1  0  0  0  0  0  0  0  0  0
    9.4150  -12.5477   20.2278 O   0  0  0  0  0  0  0  0  0  0  0  0
    9.8370  -14.5830   19.0212 C   0  0  2  0  0  0  0  0  0  0  0  0
    9.3857  -15.4986   20.0468 N   0  0  0  0  0  0  0  0  0  0  0  0
   11.2926  -14.3939   19.1311 C   0  0  0  0  0  0  0  0  0  0  0  0
   11.9937  -13.7472   18.1404 O   0  0  0  0  0  0  0  0  0  0  0  0
   11.9495  -14.8114   20.1250 O   0  0  0  0  0  0  0  0  0  0  0  0
  2  4  1  0
  2  1  1  0
  3  2  2  0
  5  4  1  0
  6  5  1  0
  6  7  1  1
  8  6  1  0
  8 15  1  0
  9  8  2  0
 10 11  1  0
 11 12  2  0
 13 11  1  0
 14 13  1  1
 14 15  1  0
 16 14  1  0
 17 16  2  0
 19 18  1  1
 19 21  1  0
 20 19  1  0
 21 22  1  1
 21 23  1  0
 22 16  1  0
 23 24  1  0
 25 23  2  0
M  END
$$$$
