QNT.pdb
     RDKit          3D

 25 24  0  0  1  0  0  0  0  0999 V2000
    9.2901  -14.8019   16.1333 N   0  0  0  0  0  0  0  0  0  0  0  0
    8.0648  -14.6156   16.8105 C   0  0  0  0  0  0  0  0  0  0  0  0
    7.2070  -15.5180   16.6949 O   0  0  0  0  0  0  0  0  0  0  0  0
    7.7813  -13.4255   17.6245 C   0  0  0  0  0  0  0  0  0  0  0  0
    7.2913  -13.7566   19.0040 C   0  0  0  0  0  0  0  0  0  0  0  0
    8.3752  -13.5227   19.9994 C   0  0  2  0  0  0  0  0  0  0  0  0
    9.5647  -14.2165   19.4833 N   0  0  0  0  0  0  0  0  0  0  0  0
    8.0586  -14.1384   21.3262 C   0  0  0  0  0  0  0  0  0  0  0  0
    7.0465  -13.7416   21.9489 O   0  0  0  0  0  0  0  0  0  0  0  0
    8.0123  -18.8675   24.6280 N   0  0  0  0  0  0  0  0  0  0  0  0
    8.9179  -17.7794   24.5467 C   0  0  0  0  0  0  0  0  0  0  0  0
    9.5260  -17.4117   25.5798 O   0  0  0  0  0  0  0  0  0  0  0  0
    9.1300  -17.1072   23.2754 C   0  0  0  0  0  0  0  0  0  0  0  0
    8.4664  -15.7634   23.1505 C   0  0  2  0  0  0  0  0  0  0  0  0
    8.8632  -15.1519   21.8990 N   0  0  0  0  0  0  0  0  0  0  0  0
    8.7720  -14.9135   24.3107 C   0  0  0  0  0  0  0  0  0  0  0  0
    9.9335  -14.4850   24.5093 O   0  0  0  0  0  0  0  0  0  0  0  0
    6.9035  -11.6609   25.4622 C   0  0  0  0  0  0  0  0  0  0  0  0
    6.9480  -12.6524   26.6054 C   0  0  1  0  0  0  0  0  0  0  0  0
    5.7223  -13.2959   26.7226 O   0  0  0  0  0  0  0  0  0  0  0  0
    8.0742  -13.6214   26.3497 C   0  0  2  0  0  0  0  0  0  0  0  0
    7.7788  -14.5319   25.2645 N   0  0  0  0  0  0  0  0  0  0  0  0
    8.4006  -14.3868   27.5639 C   0  0  0  0  0  0  0  0  0  0  0  0
    8.7927  -13.7445   28.7149 O   0  0  0  0  0  0  0  0  0  0  0  0
    8.3354  -15.6470   27.5995 O   0  0  0  0  0  0  0  0  0  0  0  0
  2  4  1  0
  2  1  1  0
  3  2  2  0
  5  4  1  0
  6  5  1  0
  6  7  1  6
  8  6  1  0
  8 15  1  0
  9  8  2  0
 10 11  1  0
 11 12  2  0
 13 11  1  0
 14 13  1  1
 14 15  1  0
 16 14  1  0
 17 16  2  0
 19 18  1  6
 19 21  1  0
 20 19  1  0
 21 22  1  6
 21 23  1  0
 22 16  1  0
 23 24  1  0
 25 23  2  0
M  END
$$$$
