QNT.pdb
     RDKit          3D

 25 24  0  0  1  0  0  0  0  0999 V2000
    7.5578  -12.3711   18.6434 N   0  0  0  0  0  0  0  0  0  0  0  0
    7.8886  -13.5446   19.3562 C   0  0  0  0  0  0  0  0  0  0  0  0
    6.9605  -14.1249   19.9605 O   0  0  0  0  0  0  0  0  0  0  0  0
    9.2540  -14.0859   19.4031 C   0  0  0  0  0  0  0  0  0  0  0  0
   10.2617  -13.2063   18.7224 C   0  0  0  0  0  0  0  0  0  0  0  0
   11.2115  -14.0376   17.9307 C   0  0  2  0  0  0  0  0  0  0  0  0
   10.3911  -15.0094   17.1923 N   0  0  0  0  0  0  0  0  0  0  0  0
   12.1298  -14.8279   18.8093 C   0  0  0  0  0  0  0  0  0  0  0  0
   11.8314  -16.0139   19.0813 O   0  0  0  0  0  0  0  0  0  0  0  0
   15.6932  -15.7444   17.7219 N   0  0  0  0  0  0  0  0  0  0  0  0
   16.1970  -14.7486   18.5967 C   0  0  0  0  0  0  0  0  0  0  0  0
   17.1277  -14.0052   18.2052 O   0  0  0  0  0  0  0  0  0  0  0  0
   15.6325  -14.6015   19.9281 C   0  0  0  0  0  0  0  0  0  0  0  0
   14.2320  -15.1269   20.0845 C   0  0  2  0  0  0  0  0  0  0  0  0
   13.3213  -14.2805   19.3417 N   0  0  0  0  0  0  0  0  0  0  0  0
   13.8641  -15.2356   21.5038 C   0  0  0  0  0  0  0  0  0  0  0  0
   14.0892  -14.2962   22.3031 O   0  0  0  0  0  0  0  0  0  0  0  0
   10.5973  -15.4606   23.1285 C   0  0  0  0  0  0  0  0  0  0  0  0
   11.3319  -16.7119   23.5601 C   0  0  1  0  0  0  0  0  0  0  0  0
   10.9150  -17.7939   22.7948 O   0  0  0  0  0  0  0  0  0  0  0  0
   12.8128  -16.4622   23.4284 C   0  0  2  0  0  0  0  0  0  0  0  0
   13.2379  -16.3996   22.0466 N   0  0  0  0  0  0  0  0  0  0  0  0
   13.5890  -17.4911   24.1396 C   0  0  0  0  0  0  0  0  0  0  0  0
   13.4620  -17.6519   25.4994 O   0  0  0  0  0  0  0  0  0  0  0  0
   14.3925  -18.2582   23.5400 O   0  0  0  0  0  0  0  0  0  0  0  0
  2  4  1  0
  2  1  1  0
  3  2  2  0
  5  4  1  0
  6  5  1  0
  6  7  1  1
  8  6  1  0
  8 15  1  0
  9  8  2  0
 10 11  1  0
 11 12  2  0
 13 11  1  0
 14 13  1  1
 14 15  1  0
 16 14  1  0
 17 16  2  0
 19 18  1  6
 19 21  1  0
 20 19  1  0
 21 22  1  6
 21 23  1  0
 22 16  1  0
 23 24  1  0
 25 23  2  0
M  END
$$$$
