QNT.pdb
     RDKit          3D

 25 24  0  0  1  0  0  0  0  0999 V2000
    9.3532  -15.7614   14.1995 N   0  0  0  0  0  0  0  0  0  0  0  0
    8.1709  -15.0017   14.3402 C   0  0  0  0  0  0  0  0  0  0  0  0
    7.4318  -14.9067   13.3362 O   0  0  0  0  0  0  0  0  0  0  0  0
    7.7974  -14.3414   15.5988 C   0  0  0  0  0  0  0  0  0  0  0  0
    8.7630  -14.6103   16.7159 C   0  0  0  0  0  0  0  0  0  0  0  0
    8.2177  -14.0834   17.9986 C   0  0  2  0  0  0  0  0  0  0  0  0
    8.1175  -12.6253   17.8351 N   0  0  0  0  0  0  0  0  0  0  0  0
    9.1496  -14.3259   19.1442 C   0  0  0  0  0  0  0  0  0  0  0  0
   10.0033  -13.4521   19.4223 O   0  0  0  0  0  0  0  0  0  0  0  0
   11.7403  -16.4187   23.1031 N   0  0  0  0  0  0  0  0  0  0  0  0
   10.4852  -17.0724   23.0137 C   0  0  0  0  0  0  0  0  0  0  0  0
   10.1728  -17.9178   23.8854 O   0  0  0  0  0  0  0  0  0  0  0  0
    9.5808  -16.7572   21.9202 C   0  0  0  0  0  0  0  0  0  0  0  0
   10.1008  -15.7416   20.9403 C   0  0  2  0  0  0  0  0  0  0  0  0
    9.0981  -15.5071   19.9219 N   0  0  0  0  0  0  0  0  0  0  0  0
   11.3880  -16.1673   20.3715 C   0  0  0  0  0  0  0  0  0  0  0  0
   11.5158  -17.2928   19.8339 O   0  0  0  0  0  0  0  0  0  0  0  0
   13.4755  -14.5909   17.7887 C   0  0  0  0  0  0  0  0  0  0  0  0
   14.4457  -14.8155   18.9289 C   0  0  1  0  0  0  0  0  0  0  0  0
   14.7494  -13.6044   19.5382 O   0  0  0  0  0  0  0  0  0  0  0  0
   13.8266  -15.7950   19.8932 C   0  0  2  0  0  0  0  0  0  0  0  0
   12.5501  -15.3362   20.3973 N   0  0  0  0  0  0  0  0  0  0  0  0
   14.7324  -16.0748   21.0192 C   0  0  0  0  0  0  0  0  0  0  0  0
   15.9440  -16.6907   20.8096 O   0  0  0  0  0  0  0  0  0  0  0  0
   14.4397  -15.7656   22.2076 O   0  0  0  0  0  0  0  0  0  0  0  0
  2  4  1  0
  2  1  1  0
  3  2  2  0
  5  4  1  0
  6  5  1  0
  6  7  1  6
  8  6  1  0
  8 15  1  0
  9  8  2  0
 10 11  1  0
 11 12  2  0
 13 11  1  0
 14 13  1  1
 14 15  1  0
 16 14  1  0
 17 16  2  0
 19 18  1  6
 19 21  1  0
 20 19  1  0
 21 22  1  1
 21 23  1  0
 22 16  1  0
 23 24  1  0
 25 23  2  0
M  END
$$$$
