QNT.pdb
     RDKit          3D

 25 24  0  0  1  0  0  0  0  0999 V2000
    6.7604  -13.0047   16.4483 N   0  0  0  0  0  0  0  0  0  0  0  0
    7.8943  -13.7676   16.0921 C   0  0  0  0  0  0  0  0  0  0  0  0
    8.1839  -13.8249   14.8771 O   0  0  0  0  0  0  0  0  0  0  0  0
    8.7189  -14.4732   17.0829 C   0  0  0  0  0  0  0  0  0  0  0  0
    8.2004  -14.3400   18.4851 C   0  0  0  0  0  0  0  0  0  0  0  0
    9.3371  -14.1874   19.4363 C   0  0  2  0  0  0  0  0  0  0  0  0
   10.5496  -14.5591   18.6918 N   0  0  0  0  0  0  0  0  0  0  0  0
    9.2321  -15.1348   20.5901 C   0  0  0  0  0  0  0  0  0  0  0  0
    8.1107  -15.3219   21.1164 O   0  0  0  0  0  0  0  0  0  0  0  0
   12.6160  -18.7369   20.5088 N   0  0  0  0  0  0  0  0  0  0  0  0
   11.4357  -18.6031   21.2832 C   0  0  0  0  0  0  0  0  0  0  0  0
   10.4554  -19.3450   21.0365 O   0  0  0  0  0  0  0  0  0  0  0  0
   11.3758  -17.6145   22.3472 C   0  0  0  0  0  0  0  0  0  0  0  0
   10.2072  -16.6709   22.2706 C   0  0  2  0  0  0  0  0  0  0  0  0
   10.3555  -15.8246   21.1048 N   0  0  0  0  0  0  0  0  0  0  0  0
   10.0725  -15.8952   23.5124 C   0  0  0  0  0  0  0  0  0  0  0  0
   10.9550  -15.0755   23.8607 O   0  0  0  0  0  0  0  0  0  0  0  0
    7.5412  -13.4004   24.6744 C   0  0  0  0  0  0  0  0  0  0  0  0
    7.5241  -14.5193   25.6940 C   0  0  1  0  0  0  0  0  0  0  0  0
    6.4341  -15.3504   25.4672 O   0  0  0  0  0  0  0  0  0  0  0  0
    8.8321  -15.2635   25.6043 C   0  0  2  0  0  0  0  0  0  0  0  0
    8.9456  -16.0278   24.3808 N   0  0  0  0  0  0  0  0  0  0  0  0
    9.0166  -16.1525   26.7629 C   0  0  0  0  0  0  0  0  0  0  0  0
    9.0217  -15.6474   28.0420 O   0  0  0  0  0  0  0  0  0  0  0  0
    9.1756  -17.3980   26.6333 O   0  0  0  0  0  0  0  0  0  0  0  0
  2  4  1  0
  2  1  1  0
  3  2  2  0
  5  4  1  0
  6  5  1  0
  6  7  1  6
  8  6  1  0
  8 15  1  0
  9  8  2  0
 10 11  1  0
 11 12  2  0
 13 11  1  0
 14 13  1  1
 14 15  1  0
 16 14  1  0
 17 16  2  0
 19 18  1  6
 19 21  1  0
 20 19  1  0
 21 22  1  6
 21 23  1  0
 22 16  1  0
 23 24  1  0
 25 23  2  0
M  END
$$$$
