HID.pdb
     RDKit          3D

 27 27  0  0  1  0  0  0  0  0999 V2000
    9.5369  -17.4149   15.7607 N   0  0  0  0  0  0  0  0  0  0  0  0
    8.6557  -17.5101   16.8840 C   0  0  1  0  0  0  0  0  0  0  0  0
    8.2995  -18.9584   17.1897 C   0  0  0  0  0  0  0  0  0  0  0  0
    7.5954  -19.6003   16.0838 C   0  0  0  0  0  0  0  0  0  0  0  0
    6.4209  -19.1631   15.5199 C   0  0  0  0  0  0  0  0  0  0  0  0
    6.0653  -20.0096   14.5176 N   0  0  0  0  0  0  0  0  0  0  0  0
    7.0325  -20.9490   14.4898 C   0  0  0  0  0  0  0  0  0  0  0  0
    7.9633  -20.7101   15.4339 N   0  0  0  0  0  0  0  0  0  0  0  0
    9.2551  -16.8602   18.1079 C   0  0  0  0  0  0  0  0  0  0  0  0
   10.4792  -16.9497   18.3322 O   0  0  0  0  0  0  0  0  0  0  0  0
    6.7652  -12.1432   20.0786 C   0  0  0  0  0  0  0  0  0  0  0  0
    7.7887  -13.1810   19.6344 C   0  0  0  0  0  0  0  0  0  0  0  0
    7.8867  -14.3196   20.5890 C   0  0  2  0  0  0  0  0  0  0  0  0
    8.3524  -13.7025   21.9201 C   0  0  0  0  0  0  0  0  0  0  0  0
    8.7599  -15.4596   20.1675 C   0  0  2  0  0  0  0  0  0  0  0  0
    8.3909  -16.1596   18.9730 N   0  0  0  0  0  0  0  0  0  0  0  0
    9.3025  -16.3082   21.2155 C   0  0  0  0  0  0  0  0  0  0  0  0
    8.7105  -17.3311   21.6425 O   0  0  0  0  0  0  0  0  0  0  0  0
   10.5676  -16.0619   21.8660 N   0  0  0  0  0  0  0  0  0  0  0  0
   11.1294  -16.9126   22.8628 C   0  0  1  0  0  0  0  0  0  0  0  0
   12.6062  -17.0664   22.8186 C   0  0  0  0  0  0  0  0  0  0  0  0
   13.1363  -17.8928   23.9220 C   0  0  0  0  0  0  0  0  0  0  0  0
   12.7553  -19.0647   24.1319 O   0  0  0  0  0  0  0  0  0  0  0  0
   10.6774  -16.5683   24.2365 C   0  0  0  0  0  0  0  0  0  0  0  0
   10.6796  -17.5628   25.1912 O   0  0  0  0  0  0  0  0  0  0  0  0
   14.1076  -17.4082   24.8083 O   0  0  0  0  0  0  0  0  0  0  0  0
   10.3054  -15.4265   24.5361 O   0  0  0  0  0  0  0  0  0  0  0  0
  2  1  1  6
  2  3  1  0
  4  3  1  0
  5  4  2  0
  6  7  1  0
  6  5  1  0
  7  8  2  0
  8  4  1  0
  9 16  1  0
  9  2  1  0
 10  9  2  0
 12 11  1  0
 13 12  1  0
 13 14  1  1
 15 13  1  0
 15 16  1  6
 17 15  1  0
 18 17  2  0
 19 17  1  0
 20 19  1  0
 21 22  1  0
 20 21  1  1
 22 26  1  0
 23 22  2  0
 24 20  1  0
 24 25  1  0
 27 24  2  0
M  END
$$$$
