HID.pdb
     RDKit          3D

 27 27  0  0  1  0  0  0  0  0999 V2000
    9.4473  -17.5446   16.0623 N   0  0  0  0  0  0  0  0  0  0  0  0
    8.5769  -17.7331   17.1822 C   0  0  1  0  0  0  0  0  0  0  0  0
    8.2875  -19.2091   17.4188 C   0  0  0  0  0  0  0  0  0  0  0  0
    7.6444  -19.8380   16.2691 C   0  0  0  0  0  0  0  0  0  0  0  0
    6.3343  -19.6675   15.8911 C   0  0  0  0  0  0  0  0  0  0  0  0
    6.0917  -20.4076   14.7771 N   0  0  0  0  0  0  0  0  0  0  0  0
    7.2619  -21.0166   14.4967 C   0  0  0  0  0  0  0  0  0  0  0  0
    8.2080  -20.6783   15.3941 N   0  0  0  0  0  0  0  0  0  0  0  0
    9.1527  -17.1165   18.4343 C   0  0  0  0  0  0  0  0  0  0  0  0
   10.3363  -17.3406   18.7592 O   0  0  0  0  0  0  0  0  0  0  0  0
    6.9860  -12.1126   19.8625 C   0  0  0  0  0  0  0  0  0  0  0  0
    7.8967  -13.2926   19.5466 C   0  0  0  0  0  0  0  0  0  0  0  0
    7.9356  -14.2863   20.6549 C   0  0  2  0  0  0  0  0  0  0  0  0
    8.5125  -13.5308   21.8657 C   0  0  0  0  0  0  0  0  0  0  0  0
    8.6851  -15.5520   20.3792 C   0  0  2  0  0  0  0  0  0  0  0  0
    8.3136  -16.2907   19.2090 N   0  0  0  0  0  0  0  0  0  0  0  0
    9.0432  -16.3781   21.5202 C   0  0  0  0  0  0  0  0  0  0  0  0
    8.2223  -17.1267   22.1074 O   0  0  0  0  0  0  0  0  0  0  0  0
   10.3696  -16.4207   22.0890 N   0  0  0  0  0  0  0  0  0  0  0  0
   10.7603  -17.3102   23.1326 C   0  0  1  0  0  0  0  0  0  0  0  0
   12.1282  -17.8774   23.0151 C   0  0  0  0  0  0  0  0  0  0  0  0
   13.1513  -16.8617   22.6937 C   0  0  0  0  0  0  0  0  0  0  0  0
   13.4421  -15.9264   23.4703 O   0  0  0  0  0  0  0  0  0  0  0  0
   10.5420  -16.7403   24.4881 C   0  0  0  0  0  0  0  0  0  0  0  0
   10.6939  -17.5725   25.5766 O   0  0  0  0  0  0  0  0  0  0  0  0
   13.8641  -16.8859   21.4875 O   0  0  0  0  0  0  0  0  0  0  0  0
   10.2320  -15.5540   24.6572 O   0  0  0  0  0  0  0  0  0  0  0  0
  2  1  1  6
  2  3  1  0
  4  3  1  0
  5  4  2  0
  6  7  1  0
  6  5  1  0
  7  8  2  0
  8  4  1  0
  9 16  1  0
  9  2  1  0
 10  9  2  0
 12 11  1  0
 13 12  1  0
 13 14  1  1
 15 13  1  0
 15 16  1  6
 17 15  1  0
 18 17  2  0
 19 17  1  0
 20 19  1  0
 21 22  1  0
 20 21  1  6
 22 26  1  0
 23 22  2  0
 24 20  1  0
 24 25  1  0
 27 24  2  0
M  END
$$$$
