HID.pdb
     RDKit          3D

 27 27  0  0  1  0  0  0  0  0999 V2000
   10.1519  -13.6050   20.3396 N   0  0  0  0  0  0  0  0  0  0  0  0
    8.9471  -13.9208   21.0438 C   0  0  1  0  0  0  0  0  0  0  0  0
    8.1563  -15.0097   20.3317 C   0  0  0  0  0  0  0  0  0  0  0  0
    7.8570  -14.6600   18.9465 C   0  0  0  0  0  0  0  0  0  0  0  0
    8.1064  -13.4450   18.3547 C   0  0  0  0  0  0  0  0  0  0  0  0
    7.6959  -13.4871   17.0596 N   0  0  0  0  0  0  0  0  0  0  0  0
    7.2027  -14.7304   16.8864 C   0  0  0  0  0  0  0  0  0  0  0  0
    7.2957  -15.4480   18.0226 N   0  0  0  0  0  0  0  0  0  0  0  0
    9.2365  -14.3432   22.4641 C   0  0  0  0  0  0  0  0  0  0  0  0
   10.3614  -14.7867   22.7720 O   0  0  0  0  0  0  0  0  0  0  0  0
    6.1445  -11.5210   26.1489 C   0  0  0  0  0  0  0  0  0  0  0  0
    7.3153  -12.1818   25.4318 C   0  0  0  0  0  0  0  0  0  0  0  0
    7.3921  -13.6431   25.7076 C   0  0  2  0  0  0  0  0  0  0  0  0
    7.7815  -13.7624   27.1921 C   0  0  0  0  0  0  0  0  0  0  0  0
    8.3081  -14.4328   24.8261 C   0  0  2  0  0  0  0  0  0  0  0  0
    8.2023  -14.2184   23.4133 N   0  0  0  0  0  0  0  0  0  0  0  0
    8.5754  -15.8106   25.2043 C   0  0  0  0  0  0  0  0  0  0  0  0
    7.7196  -16.7254   25.1057 O   0  0  0  0  0  0  0  0  0  0  0  0
    9.8428  -16.2623   25.7277 N   0  0  0  0  0  0  0  0  0  0  0  0
   10.1059  -17.6052   26.1282 C   0  0  1  0  0  0  0  0  0  0  0  0
   11.4721  -18.1080   25.8329 C   0  0  0  0  0  0  0  0  0  0  0  0
   11.8801  -17.8884   24.4304 C   0  0  0  0  0  0  0  0  0  0  0  0
   11.1880  -18.2621   23.4589 O   0  0  0  0  0  0  0  0  0  0  0  0
    9.7450  -17.8654   27.5466 C   0  0  0  0  0  0  0  0  0  0  0  0
    9.7759  -19.1675   27.9981 O   0  0  0  0  0  0  0  0  0  0  0  0
   13.0790  -17.2417   24.1016 O   0  0  0  0  0  0  0  0  0  0  0  0
    9.4227  -16.9526   28.3179 O   0  0  0  0  0  0  0  0  0  0  0  0
  2  1  1  6
  2  3  1  0
  4  3  1  0
  5  4  2  0
  6  7  1  0
  6  5  1  0
  7  8  2  0
  8  4  1  0
  9 16  1  0
  9  2  1  0
 10  9  2  0
 12 11  1  0
 13 12  1  0
 13 14  1  1
 15 13  1  0
 15 16  1  6
 17 15  1  0
 18 17  2  0
 19 17  1  0
 20 19  1  0
 21 22  1  0
 20 21  1  1
 22 26  1  0
 23 22  2  0
 24 20  1  0
 24 25  1  0
 27 24  2  0
M  END
$$$$
