HID.pdb
     RDKit          3D

 27 27  0  0  1  0  0  0  0  0999 V2000
    8.3838  -15.4523   20.6017 N   0  0  0  0  0  0  0  0  0  0  0  0
    7.7516  -15.8937   21.8070 C   0  0  1  0  0  0  0  0  0  0  0  0
    7.7436  -17.4130   21.9062 C   0  0  0  0  0  0  0  0  0  0  0  0
    7.0391  -18.0366   20.7902 C   0  0  0  0  0  0  0  0  0  0  0  0
    6.5613  -17.3843   19.6790 C   0  0  0  0  0  0  0  0  0  0  0  0
    5.9638  -18.2855   18.8554 N   0  0  0  0  0  0  0  0  0  0  0  0
    6.0892  -19.4731   19.4821 C   0  0  0  0  0  0  0  0  0  0  0  0
    6.7387  -19.3330   20.6540 N   0  0  0  0  0  0  0  0  0  0  0  0
    8.4209  -15.3039   23.0251 C   0  0  0  0  0  0  0  0  0  0  0  0
    9.6506  -15.0927   23.0272 O   0  0  0  0  0  0  0  0  0  0  0  0
    5.6654  -11.5269   25.8842 C   0  0  0  0  0  0  0  0  0  0  0  0
    6.7592  -12.3535   25.2193 C   0  0  0  0  0  0  0  0  0  0  0  0
    7.2169  -13.4785   26.0808 C   0  0  2  0  0  0  0  0  0  0  0  0
    7.9486  -12.8200   27.2643 C   0  0  0  0  0  0  0  0  0  0  0  0
    8.0607  -14.5187   25.4131 C   0  0  2  0  0  0  0  0  0  0  0  0
    7.6144  -15.0061   24.1417 N   0  0  0  0  0  0  0  0  0  0  0  0
    8.6706  -15.5293   26.2613 C   0  0  0  0  0  0  0  0  0  0  0  0
    8.0134  -16.4489   26.8104 O   0  0  0  0  0  0  0  0  0  0  0  0
   10.0832  -15.5769   26.5556 N   0  0  0  0  0  0  0  0  0  0  0  0
   10.6872  -16.5491   27.4059 C   0  0  1  0  0  0  0  0  0  0  0  0
   12.1042  -16.8763   27.1030 C   0  0  0  0  0  0  0  0  0  0  0  0
   12.3036  -17.3691   25.7250 C   0  0  0  0  0  0  0  0  0  0  0  0
   11.3767  -17.8522   25.0394 O   0  0  0  0  0  0  0  0  0  0  0  0
   10.5161  -16.2387   28.8495 C   0  0  0  0  0  0  0  0  0  0  0  0
   10.8897  -17.1946   29.7699 O   0  0  0  0  0  0  0  0  0  0  0  0
   13.5557  -17.3242   25.0974 O   0  0  0  0  0  0  0  0  0  0  0  0
   10.0531  -15.1579   29.2362 O   0  0  0  0  0  0  0  0  0  0  0  0
  2  1  1  6
  2  3  1  0
  4  3  1  0
  5  4  2  0
  6  7  1  0
  6  5  1  0
  7  8  2  0
  8  4  1  0
  9 16  1  0
  9  2  1  0
 10  9  2  0
 12 11  1  0
 13 12  1  0
 13 14  1  1
 15 13  1  0
 15 16  1  6
 17 15  1  0
 18 17  2  0
 19 17  1  0
 20 19  1  0
 21 22  1  0
 20 21  1  6
 22 26  1  0
 23 22  2  0
 24 20  1  0
 24 25  1  0
 27 24  2  0
M  END
$$$$
