HID.pdb
     RDKit          3D

 27 27  0  0  1  0  0  0  0  0999 V2000
   10.7274  -17.2703   16.2743 N   0  0  0  0  0  0  0  0  0  0  0  0
    9.7687  -17.5965   17.2852 C   0  0  1  0  0  0  0  0  0  0  0  0
    9.7163  -19.0970   17.5380 C   0  0  0  0  0  0  0  0  0  0  0  0
    9.3821  -19.8497   16.3328 C   0  0  0  0  0  0  0  0  0  0  0  0
    8.2656  -19.6615   15.5540 C   0  0  0  0  0  0  0  0  0  0  0  0
    8.2904  -20.5418   14.5187 N   0  0  0  0  0  0  0  0  0  0  0  0
    9.4248  -21.2517   14.6868 C   0  0  0  0  0  0  0  0  0  0  0  0
   10.0926  -20.8404   15.7820 N   0  0  0  0  0  0  0  0  0  0  0  0
   10.0629  -16.8693   18.5752 C   0  0  0  0  0  0  0  0  0  0  0  0
   11.2122  -16.8888   19.0606 O   0  0  0  0  0  0  0  0  0  0  0  0
    6.7886  -12.3745   19.7759 C   0  0  0  0  0  0  0  0  0  0  0  0
    7.9850  -13.2988   19.5860 C   0  0  0  0  0  0  0  0  0  0  0  0
    8.0447  -14.3632   20.6256 C   0  0  2  0  0  0  0  0  0  0  0  0
    8.2452  -13.6243   21.9610 C   0  0  0  0  0  0  0  0  0  0  0  0
    9.0744  -15.4294   20.4187 C   0  0  2  0  0  0  0  0  0  0  0  0
    9.0049  -16.1784   19.1991 N   0  0  0  0  0  0  0  0  0  0  0  0
    9.4698  -16.2102   21.5792 C   0  0  0  0  0  0  0  0  0  0  0  0
    8.8520  -17.2379   21.9551 O   0  0  0  0  0  0  0  0  0  0  0  0
   10.6045  -15.8848   22.4104 N   0  0  0  0  0  0  0  0  0  0  0  0
   11.1146  -16.7390   23.4318 C   0  0  1  0  0  0  0  0  0  0  0  0
   12.5941  -16.8574   23.4911 C   0  0  0  0  0  0  0  0  0  0  0  0
   13.0631  -17.7146   24.5987 C   0  0  0  0  0  0  0  0  0  0  0  0
   13.0180  -18.9629   24.5529 O   0  0  0  0  0  0  0  0  0  0  0  0
   10.5576  -16.4287   24.7746 C   0  0  0  0  0  0  0  0  0  0  0  0
    9.6913  -15.3626   24.8899 O   0  0  0  0  0  0  0  0  0  0  0  0
   13.5918  -17.1746   25.7788 O   0  0  0  0  0  0  0  0  0  0  0  0
   10.8504  -17.0964   25.7748 O   0  0  0  0  0  0  0  0  0  0  0  0
  2  1  1  6
  2  3  1  0
  4  3  1  0
  5  4  2  0
  6  7  1  0
  6  5  1  0
  7  8  2  0
  8  4  1  0
  9 16  1  0
  9  2  1  0
 10  9  2  0
 12 11  1  0
 13 12  1  0
 13 14  1  1
 15 13  1  0
 15 16  1  6
 17 15  1  0
 18 17  2  0
 19 17  1  0
 20 19  1  0
 21 22  1  0
 20 21  1  1
 22 26  1  0
 23 22  2  0
 24 20  1  0
 24 25  1  0
 27 24  2  0
M  END
$$$$
