QRK.pdb
     RDKit          3D

 30 29  0  0  1  0  0  0  0  0999 V2000
    7.5873  -12.6365   16.0689 N   0  0  0  0  0  0  0  0  0  0  0  0
    7.7963  -14.0396   16.0785 C   0  0  0  0  0  0  0  0  0  0  0  0
    7.2237  -14.7628   15.2320 O   0  0  0  0  0  0  0  0  0  0  0  0
    8.6810  -14.6302   17.0794 C   0  0  0  0  0  0  0  0  0  0  0  0
    9.2873  -13.6609   18.0479 C   0  0  0  0  0  0  0  0  0  0  0  0
   10.1422  -14.2960   19.1084 C   0  0  2  0  0  0  0  0  0  0  0  0
   10.9135  -15.4107   18.6000 N   0  0  0  0  0  0  0  0  0  0  0  0
    9.2485  -14.8179   20.1843 C   0  0  0  0  0  0  0  0  0  0  0  0
    8.4360  -14.0842   20.7766 O   0  0  0  0  0  0  0  0  0  0  0  0
   12.0319  -19.0794   24.4938 N   0  0  0  0  0  0  0  0  0  0  0  0
   12.2578  -19.7456   23.2551 C   0  0  0  0  0  0  0  0  0  0  0  0
   13.3209  -19.5697   22.5715 N   0  0  0  0  0  0  0  0  0  0  0  0
   11.2665  -20.6375   22.7611 N   0  0  0  0  0  0  0  0  0  0  0  0
    9.9596  -20.1321   22.4744 C   0  0  0  0  0  0  0  0  0  0  0  0
    9.9414  -18.6285   22.2941 C   0  0  0  0  0  0  0  0  0  0  0  0
    8.5637  -18.1643   21.8733 C   0  0  0  0  0  0  0  0  0  0  0  0
    8.5171  -16.7007   21.6416 C   0  0  2  0  0  0  0  0  0  0  0  0
    9.2757  -16.1690   20.5882 N   0  0  0  0  0  0  0  0  0  0  0  0
    8.8748  -16.0121   22.9073 C   0  0  0  0  0  0  0  0  0  0  0  0
   10.0803  -15.7668   23.1470 O   0  0  0  0  0  0  0  0  0  0  0  0
   13.4609  -20.0440   21.6586 N   0  0  0  0  0  0  0  0  0  0  0  0
    7.8643  -15.6436   23.8204 C   0  0  1  0  0  0  0  0  0  0  0  0
    8.2380  -14.9315   25.0864 C   0  0  0  0  0  0  0  0  0  0  0  0
    7.1768  -13.9491   25.2924 C   0  0  0  0  0  0  0  0  0  0  0  0
    7.1349  -12.9910   26.4089 C   0  0  0  0  0  0  0  0  0  0  0  0
    5.9558  -12.0859   26.4988 C   0  0  0  0  0  0  0  0  0  0  0  0
    6.0815  -11.1601   27.7221 N   0  0  0  0  0  0  0  0  0  0  0  0
    4.9790  -10.2539   27.8009 C   0  0  0  0  0  0  0  0  0  0  0  0
    8.6251  -15.9084   26.0823 O   0  0  0  0  0  0  0  0  0  0  0  0
    8.2330  -17.1009   26.1045 O   0  0  0  0  0  0  0  0  0  0  0  0
  1  2  1  0
  2  3  2  0
  4  5  1  0
  4  2  1  0
  6  5  1  0
  6  7  1  6
  8  6  1  0
  9  8  2  0
 10 11  1  0
 11 13  1  0
 11 12  2  0
 13 14  1  0
 14 15  1  0
 17 16  1  1
 16 15  1  0
 17 18  1  0
 18  8  1  0
 19 17  1  0
 19 20  2  0
 21 19  1  0
 22 21  1  0
 22 23  1  1
 24 23  1  0
 25 24  1  0
 26 25  1  0
 27 26  1  0
 28 22  1  0
 29 28  2  0
 30 28  1  0
M  END
$$$$
