QRK.pdb
     RDKit          3D

 30 29  0  0  1  0  0  0  0  0999 V2000
    7.6340  -12.1401   17.3060 N   0  0  0  0  0  0  0  0  0  0  0  0
    8.0730  -13.3654   16.7418 C   0  0  0  0  0  0  0  0  0  0  0  0
    8.1761  -13.4803   15.4994 O   0  0  0  0  0  0  0  0  0  0  0  0
    8.4022  -14.4862   17.6186 C   0  0  0  0  0  0  0  0  0  0  0  0
    8.1692  -14.2448   19.0790 C   0  0  0  0  0  0  0  0  0  0  0  0
    9.2734  -14.7353   19.9729 C   0  0  2  0  0  0  0  0  0  0  0  0
   10.1112  -15.7214   19.3235 N   0  0  0  0  0  0  0  0  0  0  0  0
    8.6588  -15.3820   21.1698 C   0  0  0  0  0  0  0  0  0  0  0  0
    7.7380  -14.8405   21.8086 O   0  0  0  0  0  0  0  0  0  0  0  0
    9.3052  -23.6916   22.0301 N   0  0  0  0  0  0  0  0  0  0  0  0
    8.2952  -23.2014   21.1534 C   0  0  0  0  0  0  0  0  0  0  0  0
    7.6861  -23.9581   20.3258 N   0  0  0  0  0  0  0  0  0  0  0  0
    7.9521  -21.8221   21.1997 N   0  0  0  0  0  0  0  0  0  0  0  0
    8.6458  -20.9648   22.1105 C   0  0  0  0  0  0  0  0  0  0  0  0
    8.2121  -19.5183   21.9965 C   0  0  0  0  0  0  0  0  0  0  0  0
    8.9067  -18.6752   23.0441 C   0  0  0  0  0  0  0  0  0  0  0  0
    8.6623  -17.2267   22.8433 C   0  0  2  0  0  0  0  0  0  0  0  0
    9.0873  -16.6401   21.6420 N   0  0  0  0  0  0  0  0  0  0  0  0
    9.2468  -16.4873   23.9904 C   0  0  0  0  0  0  0  0  0  0  0  0
   10.4244  -16.0663   23.9066 O   0  0  0  0  0  0  0  0  0  0  0  0
    6.9346  -23.5912   19.7105 N   0  0  0  0  0  0  0  0  0  0  0  0
    8.4791  -16.2674   25.1535 C   0  0  2  0  0  0  0  0  0  0  0  0
    9.1293  -15.6657   26.3637 C   0  0  0  0  0  0  0  0  0  0  0  0
    8.1346  -14.7434   26.9055 C   0  0  0  0  0  0  0  0  0  0  0  0
    7.6771  -13.5201   26.2270 C   0  0  0  0  0  0  0  0  0  0  0  0
    6.6226  -12.7108   26.8983 C   0  0  0  0  0  0  0  0  0  0  0  0
    6.2588  -11.4854   26.0407 N   0  0  0  0  0  0  0  0  0  0  0  0
    5.3123  -10.6484   26.7089 C   0  0  0  0  0  0  0  0  0  0  0  0
    9.7481  -16.7186   27.1412 O   0  0  0  0  0  0  0  0  0  0  0  0
   10.5546  -16.5309   28.0849 O   0  0  0  0  0  0  0  0  0  0  0  0
  1  2  1  0
  2  3  2  0
  4  5  1  0
  4  2  1  0
  6  5  1  0
  6  7  1  6
  8  6  1  0
  9  8  2  0
 10 11  1  0
 11 13  1  0
 11 12  2  0
 13 14  1  0
 14 15  1  0
 17 16  1  6
 16 15  1  0
 17 18  1  0
 18  8  1  0
 19 17  1  0
 19 20  2  0
 21 19  1  0
 22 21  1  0
 22 23  1  6
 24 23  1  0
 25 24  1  0
 26 25  1  0
 27 26  1  0
 28 22  1  0
 29 28  2  0
 30 28  1  0
M  END
$$$$
