QRK.pdb
     RDKit          3D

 30 29  0  0  1  0  0  0  0  0999 V2000
    6.0608  -20.3726   16.3229 N   0  0  0  0  0  0  0  0  0  0  0  0
    7.3468  -19.7867   16.4465 C   0  0  0  0  0  0  0  0  0  0  0  0
    7.7651  -19.0045   15.5629 O   0  0  0  0  0  0  0  0  0  0  0  0
    8.1746  -20.1022   17.6078 C   0  0  0  0  0  0  0  0  0  0  0  0
    8.6239  -18.9206   18.4121 C   0  0  0  0  0  0  0  0  0  0  0  0
    9.3365  -19.2731   19.6876 C   0  0  2  0  0  0  0  0  0  0  0  0
    8.4225  -19.6678   20.7386 N   0  0  0  0  0  0  0  0  0  0  0  0
   10.0777  -18.0672   20.1622 C   0  0  0  0  0  0  0  0  0  0  0  0
   11.2979  -17.9255   19.9622 O   0  0  0  0  0  0  0  0  0  0  0  0
    6.6864  -12.1937   18.7280 N   0  0  0  0  0  0  0  0  0  0  0  0
    7.4059  -12.7677   17.6408 C   0  0  0  0  0  0  0  0  0  0  0  0
    6.8525  -13.0306   16.5213 N   0  0  0  0  0  0  0  0  0  0  0  0
    8.7880  -13.0589   17.8058 N   0  0  0  0  0  0  0  0  0  0  0  0
    9.3004  -13.2675   19.1248 C   0  0  0  0  0  0  0  0  0  0  0  0
    8.5217  -14.3134   19.8951 C   0  0  0  0  0  0  0  0  0  0  0  0
    9.1825  -14.5866   21.2291 C   0  0  0  0  0  0  0  0  0  0  0  0
   10.0360  -15.7983   21.1887 C   0  0  2  0  0  0  0  0  0  0  0  0
    9.4368  -17.0240   20.8625 N   0  0  0  0  0  0  0  0  0  0  0  0
   10.7407  -15.9212   22.4896 C   0  0  0  0  0  0  0  0  0  0  0  0
   10.0926  -15.7607   23.5503 O   0  0  0  0  0  0  0  0  0  0  0  0
    7.3770  -13.4954   15.7553 N   0  0  0  0  0  0  0  0  0  0  0  0
   12.1203  -16.2145   22.5201 C   0  0  1  0  0  0  0  0  0  0  0  0
   12.8073  -16.3945   23.8412 C   0  0  0  0  0  0  0  0  0  0  0  0
   12.2195  -17.6053   24.4087 C   0  0  0  0  0  0  0  0  0  0  0  0
   12.5822  -18.1718   25.7178 C   0  0  0  0  0  0  0  0  0  0  0  0
   12.0155  -19.5015   26.0762 C   0  0  0  0  0  0  0  0  0  0  0  0
   12.5226  -19.9460   27.4599 N   0  0  0  0  0  0  0  0  0  0  0  0
   11.9794  -21.2162   27.8268 C   0  0  0  0  0  0  0  0  0  0  0  0
   14.2317  -16.2069   23.6634 O   0  0  0  0  0  0  0  0  0  0  0  0
   15.0653  -16.1313   24.5991 O   0  0  0  0  0  0  0  0  0  0  0  0
  1  2  1  0
  2  3  2  0
  4  5  1  0
  4  2  1  0
  6  5  1  0
  6  7  1  1
  8  6  1  0
  9  8  2  0
 10 11  1  0
 11 13  1  0
 11 12  2  0
 13 14  1  0
 14 15  1  0
 17 16  1  1
 16 15  1  0
 17 18  1  0
 18  8  1  0
 19 17  1  0
 19 20  2  0
 21 19  1  0
 22 21  1  0
 22 23  1  1
 24 23  1  0
 25 24  1  0
 26 25  1  0
 27 26  1  0
 28 22  1  0
 29 28  2  0
 30 28  1  0
M  END
$$$$
