QRK.pdb
     RDKit          3D

 30 29  0  0  1  0  0  0  0  0999 V2000
    6.9531  -15.3913   15.3348 N   0  0  0  0  0  0  0  0  0  0  0  0
    7.6445  -14.1551   15.2550 C   0  0  0  0  0  0  0  0  0  0  0  0
    7.6286  -13.4975   14.1898 O   0  0  0  0  0  0  0  0  0  0  0  0
    8.3713  -13.6586   16.4206 C   0  0  0  0  0  0  0  0  0  0  0  0
    8.2443  -14.4957   17.6569 C   0  0  0  0  0  0  0  0  0  0  0  0
    8.9989  -13.9669   18.8443 C   0  0  2  0  0  0  0  0  0  0  0  0
   10.4077  -13.7844   18.5654 N   0  0  0  0  0  0  0  0  0  0  0  0
    8.8826  -14.9568   19.9557 C   0  0  0  0  0  0  0  0  0  0  0  0
    7.7821  -15.2625   20.4504 O   0  0  0  0  0  0  0  0  0  0  0  0
   11.9688  -20.9419   20.4894 N   0  0  0  0  0  0  0  0  0  0  0  0
   11.3355  -21.5378   21.6177 C   0  0  0  0  0  0  0  0  0  0  0  0
   10.7825  -22.6864   21.5602 N   0  0  0  0  0  0  0  0  0  0  0  0
   11.3173  -20.8306   22.8513 N   0  0  0  0  0  0  0  0  0  0  0  0
   11.8820  -19.5177   22.9068 C   0  0  0  0  0  0  0  0  0  0  0  0
   10.8304  -18.4282   22.8839 C   0  0  0  0  0  0  0  0  0  0  0  0
   10.9781  -17.5784   21.6403 C   0  0  0  0  0  0  0  0  0  0  0  0
    9.9723  -16.4904   21.5879 C   0  0  2  0  0  0  0  0  0  0  0  0
   10.0116  -15.5991   20.5055 N   0  0  0  0  0  0  0  0  0  0  0  0
   10.0363  -15.7285   22.8605 C   0  0  0  0  0  0  0  0  0  0  0  0
   11.1185  -15.1917   23.1946 O   0  0  0  0  0  0  0  0  0  0  0  0
   10.3435  -23.1171   22.3967 N   0  0  0  0  0  0  0  0  0  0  0  0
    8.8896  -15.6167   23.6747 C   0  0  2  0  0  0  0  0  0  0  0  0
    8.9717  -14.8546   24.9639 C   0  0  0  0  0  0  0  0  0  0  0  0
    7.8073  -13.9727   24.9542 C   0  0  0  0  0  0  0  0  0  0  0  0
    7.4908  -13.0002   26.0127 C   0  0  0  0  0  0  0  0  0  0  0  0
    6.2382  -12.2075   25.8707 C   0  0  0  0  0  0  0  0  0  0  0  0
    6.0255  -11.3137   27.1056 N   0  0  0  0  0  0  0  0  0  0  0  0
    4.7701  -10.6333   27.0422 C   0  0  0  0  0  0  0  0  0  0  0  0
    9.2652  -15.7765   26.0408 O   0  0  0  0  0  0  0  0  0  0  0  0
    9.5308  -15.4373   27.2201 O   0  0  0  0  0  0  0  0  0  0  0  0
  1  2  1  0
  2  3  2  0
  4  5  1  0
  4  2  1  0
  6  5  1  0
  6  7  1  6
  8  6  1  0
  9  8  2  0
 10 11  1  0
 11 13  1  0
 11 12  2  0
 13 14  1  0
 14 15  1  0
 17 16  1  6
 16 15  1  0
 17 18  1  0
 18  8  1  0
 19 17  1  0
 19 20  2  0
 21 19  1  0
 22 21  1  0
 22 23  1  6
 24 23  1  0
 25 24  1  0
 26 25  1  0
 27 26  1  0
 28 22  1  0
 29 28  2  0
 30 28  1  0
M  END
$$$$
