QRK.pdb
     RDKit          3D

 30 29  0  0  1  0  0  0  0  0999 V2000
   16.9813  -12.4826   16.9099 N   0  0  0  0  0  0  0  0  0  0  0  0
   16.8461  -13.6155   17.7529 C   0  0  0  0  0  0  0  0  0  0  0  0
   17.5506  -13.7159   18.7830 O   0  0  0  0  0  0  0  0  0  0  0  0
   15.8827  -14.6585   17.4106 C   0  0  0  0  0  0  0  0  0  0  0  0
   14.4992  -14.4516   17.9475 C   0  0  0  0  0  0  0  0  0  0  0  0
   13.7872  -15.7180   18.3324 C   0  0  2  0  0  0  0  0  0  0  0  0
   12.7282  -16.0582   17.4058 N   0  0  0  0  0  0  0  0  0  0  0  0
   13.1664  -15.5202   19.6756 C   0  0  0  0  0  0  0  0  0  0  0  0
   13.8540  -15.4131   20.7075 O   0  0  0  0  0  0  0  0  0  0  0  0
    7.6496  -13.8172   17.6502 N   0  0  0  0  0  0  0  0  0  0  0  0
    7.5272  -12.9522   18.7754 C   0  0  0  0  0  0  0  0  0  0  0  0
    7.5043  -11.6817   18.6581 N   0  0  0  0  0  0  0  0  0  0  0  0
    7.4272  -13.5212   20.0748 N   0  0  0  0  0  0  0  0  0  0  0  0
    7.4181  -14.9451   20.2098 C   0  0  0  0  0  0  0  0  0  0  0  0
    8.8116  -15.5351   20.2695 C   0  0  0  0  0  0  0  0  0  0  0  0
    9.7473  -14.6040   21.0099 C   0  0  0  0  0  0  0  0  0  0  0  0
   11.1321  -15.1314   21.0590 C   0  0  2  0  0  0  0  0  0  0  0  0
   11.7687  -15.4441   19.8488 N   0  0  0  0  0  0  0  0  0  0  0  0
   11.1526  -16.3179   21.9513 C   0  0  0  0  0  0  0  0  0  0  0  0
   10.9759  -17.4553   21.4554 O   0  0  0  0  0  0  0  0  0  0  0  0
    7.4786  -11.0626   19.4912 N   0  0  0  0  0  0  0  0  0  0  0  0
   11.3684  -16.1561   23.3361 C   0  0  2  0  0  0  0  0  0  0  0  0
   11.2797  -17.3490   24.2408 C   0  0  0  0  0  0  0  0  0  0  0  0
   12.6649  -17.6725   24.5733 C   0  0  0  0  0  0  0  0  0  0  0  0
   13.0710  -18.7511   25.4886 C   0  0  0  0  0  0  0  0  0  0  0  0
   14.5280  -18.9378   25.7332 C   0  0  0  0  0  0  0  0  0  0  0  0
   14.7604  -20.0579   26.7631 N   0  0  0  0  0  0  0  0  0  0  0  0
   16.1500  -20.3708   26.8829 C   0  0  0  0  0  0  0  0  0  0  0  0
   10.2546  -17.1135   25.2356 O   0  0  0  0  0  0  0  0  0  0  0  0
    9.9710  -17.9018   26.1706 O   0  0  0  0  0  0  0  0  0  0  0  0
  1  2  1  0
  2  3  2  0
  4  5  1  0
  4  2  1  0
  6  5  1  0
  6  7  1  6
  8  6  1  0
  9  8  2  0
 10 11  1  0
 11 13  1  0
 11 12  2  0
 13 14  1  0
 14 15  1  0
 17 16  1  6
 16 15  1  0
 17 18  1  0
 18  8  1  0
 19 17  1  0
 19 20  2  0
 21 19  1  0
 22 21  1  0
 22 23  1  6
 24 23  1  0
 25 24  1  0
 26 25  1  0
 27 26  1  0
 28 22  1  0
 29 28  2  0
 30 28  1  0
M  END
$$$$
