QRK.pdb
     RDKit          3D

 30 29  0  0  1  0  0  0  0  0999 V2000
   10.8970  -23.5592   16.8828 N   0  0  0  0  0  0  0  0  0  0  0  0
   11.2123  -23.3355   18.2478 C   0  0  0  0  0  0  0  0  0  0  0  0
   10.4973  -23.8370   19.1449 O   0  0  0  0  0  0  0  0  0  0  0  0
   12.3724  -22.5191   18.5957 C   0  0  0  0  0  0  0  0  0  0  0  0
   12.0775  -21.3170   19.4401 C   0  0  0  0  0  0  0  0  0  0  0  0
   12.3646  -20.0026   18.7702 C   0  0  2  0  0  0  0  0  0  0  0  0
   13.7800  -19.7953   18.5471 N   0  0  0  0  0  0  0  0  0  0  0  0
   11.8815  -18.9049   19.6591 C   0  0  0  0  0  0  0  0  0  0  0  0
   12.6430  -18.3150   20.4473 O   0  0  0  0  0  0  0  0  0  0  0  0
    9.0886  -12.1021   19.7791 N   0  0  0  0  0  0  0  0  0  0  0  0
    8.1347  -12.3228   20.8138 C   0  0  0  0  0  0  0  0  0  0  0  0
    8.1056  -11.6150   21.8752 N   0  0  0  0  0  0  0  0  0  0  0  0
    7.1814  -13.3669   20.6614 N   0  0  0  0  0  0  0  0  0  0  0  0
    7.5418  -14.5316   19.9135 C   0  0  0  0  0  0  0  0  0  0  0  0
    8.6352  -15.3393   20.5811 C   0  0  0  0  0  0  0  0  0  0  0  0
    8.9679  -16.5620   19.7536 C   0  0  0  0  0  0  0  0  0  0  0  0
   10.0531  -17.3674   20.3635 C   0  0  2  0  0  0  0  0  0  0  0  0
   10.5376  -18.4767   19.6548 N   0  0  0  0  0  0  0  0  0  0  0  0
    9.6181  -17.7949   21.7171 C   0  0  0  0  0  0  0  0  0  0  0  0
    8.8130  -18.7495   21.8244 O   0  0  0  0  0  0  0  0  0  0  0  0
    7.4015  -11.7853   22.6190 N   0  0  0  0  0  0  0  0  0  0  0  0
   10.1098  -17.1291   22.8596 C   0  0  2  0  0  0  0  0  0  0  0  0
    9.7503  -17.6402   24.2231 C   0  0  0  0  0  0  0  0  0  0  0  0
   11.0301  -17.9238   24.8678 C   0  0  0  0  0  0  0  0  0  0  0  0
   11.1743  -18.5496   26.1921 C   0  0  0  0  0  0  0  0  0  0  0  0
   12.5527  -18.8555   26.6654 C   0  0  0  0  0  0  0  0  0  0  0  0
   12.5045  -19.6310   27.9941 N   0  0  0  0  0  0  0  0  0  0  0  0
   13.8198  -19.9281   28.4682 C   0  0  0  0  0  0  0  0  0  0  0  0
    8.7399  -16.7790   24.8002 O   0  0  0  0  0  0  0  0  0  0  0  0
    8.1006  -17.0310   25.8509 O   0  0  0  0  0  0  0  0  0  0  0  0
  1  2  1  0
  2  3  2  0
  4  5  1  0
  4  2  1  0
  6  5  1  0
  6  7  1  1
  8  6  1  0
  9  8  2  0
 10 11  1  0
 11 13  1  0
 11 12  2  0
 13 14  1  0
 14 15  1  0
 17 16  1  6
 16 15  1  0
 17 18  1  0
 18  8  1  0
 19 17  1  0
 19 20  2  0
 21 19  1  0
 22 21  1  0
 22 23  1  6
 24 23  1  0
 25 24  1  0
 26 25  1  0
 27 26  1  0
 28 22  1  0
 29 28  2  0
 30 28  1  0
M  END
$$$$
