QRK.pdb
     RDKit          3D

 30 29  0  0  1  0  0  0  0  0999 V2000
    8.8718  -11.4865   20.7941 N   0  0  0  0  0  0  0  0  0  0  0  0
    8.1109  -12.6836   20.8125 C   0  0  0  0  0  0  0  0  0  0  0  0
    7.6021  -13.0846   21.8838 O   0  0  0  0  0  0  0  0  0  0  0  0
    7.9271  -13.4405   19.5769 C   0  0  0  0  0  0  0  0  0  0  0  0
    8.5594  -12.8387   18.3590 C   0  0  0  0  0  0  0  0  0  0  0  0
    8.9950  -13.8407   17.3268 C   0  0  2  0  0  0  0  0  0  0  0  0
    7.9041  -14.6807   16.8794 N   0  0  0  0  0  0  0  0  0  0  0  0
   10.0279  -14.7284   17.9380 C   0  0  0  0  0  0  0  0  0  0  0  0
    9.7369  -15.8365   18.4244 O   0  0  0  0  0  0  0  0  0  0  0  0
   17.2607  -15.6717   14.0480 N   0  0  0  0  0  0  0  0  0  0  0  0
   16.0287  -16.0651   13.4510 C   0  0  0  0  0  0  0  0  0  0  0  0
   15.9541  -16.4582   12.2392 N   0  0  0  0  0  0  0  0  0  0  0  0
   14.8396  -16.0189   14.2296 N   0  0  0  0  0  0  0  0  0  0  0  0
   14.9232  -15.6210   15.6008 C   0  0  0  0  0  0  0  0  0  0  0  0
   13.5883  -15.6937   16.3125 C   0  0  0  0  0  0  0  0  0  0  0  0
   13.7150  -15.1684   17.7263 C   0  0  0  0  0  0  0  0  0  0  0  0
   12.4202  -15.1975   18.4480 C   0  0  2  0  0  0  0  0  0  0  0  0
   11.3883  -14.3607   17.9980 N   0  0  0  0  0  0  0  0  0  0  0  0
   12.6776  -14.9379   19.8870 C   0  0  0  0  0  0  0  0  0  0  0  0
   12.8167  -13.7548   20.2766 O   0  0  0  0  0  0  0  0  0  0  0  0
   15.0558  -16.7795   11.8297 N   0  0  0  0  0  0  0  0  0  0  0  0
   12.7627  -16.0149   20.7944 C   0  0  2  0  0  0  0  0  0  0  0  0
   13.0886  -15.7434   22.2330 C   0  0  0  0  0  0  0  0  0  0  0  0
   12.3443  -16.7514   22.9838 C   0  0  0  0  0  0  0  0  0  0  0  0
   12.4791  -16.9787   24.4317 C   0  0  0  0  0  0  0  0  0  0  0  0
   11.6997  -18.0971   25.0311 C   0  0  0  0  0  0  0  0  0  0  0  0
   11.9800  -18.1980   26.5412 N   0  0  0  0  0  0  0  0  0  0  0  0
   11.2951  -19.3103   27.1217 C   0  0  0  0  0  0  0  0  0  0  0  0
   14.5163  -15.5431   22.3652 O   0  0  0  0  0  0  0  0  0  0  0  0
   15.3773  -15.9829   21.5643 O   0  0  0  0  0  0  0  0  0  0  0  0
  1  2  1  0
  2  3  2  0
  4  5  1  0
  4  2  1  0
  6  5  1  0
  6  7  1  1
  8  6  1  0
  9  8  2  0
 10 11  1  0
 11 13  1  0
 11 12  2  0
 13 14  1  0
 14 15  1  0
 17 16  1  6
 16 15  1  0
 17 18  1  0
 18  8  1  0
 19 17  1  0
 19 20  2  0
 21 19  1  0
 22 21  1  0
 22 23  1  6
 24 23  1  0
 25 24  1  0
 26 25  1  0
 27 26  1  0
 28 22  1  0
 29 28  2  0
 30 28  1  0
M  END
$$$$
