QRK.pdb
     RDKit          3D

 30 29  0  0  1  0  0  0  0  0999 V2000
    7.2349  -23.3308   18.8356 N   0  0  0  0  0  0  0  0  0  0  0  0
    6.4484  -23.7643   19.9338 C   0  0  0  0  0  0  0  0  0  0  0  0
    5.5167  -24.5806   19.7520 O   0  0  0  0  0  0  0  0  0  0  0  0
    6.7336  -23.2527   21.2718 C   0  0  0  0  0  0  0  0  0  0  0  0
    7.9038  -22.3213   21.3636 C   0  0  0  0  0  0  0  0  0  0  0  0
    7.8444  -21.3625   22.5195 C   0  0  2  0  0  0  0  0  0  0  0  0
    6.4896  -21.1305   22.9740 N   0  0  0  0  0  0  0  0  0  0  0  0
    8.4024  -20.0516   22.0736 C   0  0  0  0  0  0  0  0  0  0  0  0
    9.5645  -19.9456   21.6407 O   0  0  0  0  0  0  0  0  0  0  0  0
    7.1614  -12.9786   18.7370 N   0  0  0  0  0  0  0  0  0  0  0  0
    8.4025  -12.6589   19.3586 C   0  0  0  0  0  0  0  0  0  0  0  0
    8.8675  -11.4707   19.3793 N   0  0  0  0  0  0  0  0  0  0  0  0
    9.1512  -13.6974   19.9778 N   0  0  0  0  0  0  0  0  0  0  0  0
    8.5487  -14.9842   20.1413 C   0  0  0  0  0  0  0  0  0  0  0  0
    7.8645  -15.1425   21.4832 C   0  0  0  0  0  0  0  0  0  0  0  0
    7.1825  -16.4906   21.5718 C   0  0  0  0  0  0  0  0  0  0  0  0
    8.1481  -17.5861   21.8282 C   0  0  2  0  0  0  0  0  0  0  0  0
    7.6447  -18.8628   22.1186 N   0  0  0  0  0  0  0  0  0  0  0  0
    9.0691  -17.1579   22.9109 C   0  0  0  0  0  0  0  0  0  0  0  0
    8.6105  -16.9744   24.0629 O   0  0  0  0  0  0  0  0  0  0  0  0
    9.7809  -11.2556   19.8236 N   0  0  0  0  0  0  0  0  0  0  0  0
   10.4392  -16.9630   22.6364 C   0  0  1  0  0  0  0  0  0  0  0  0
   11.3759  -16.6266   23.7584 C   0  0  0  0  0  0  0  0  0  0  0  0
   11.2609  -17.7442   24.6919 C   0  0  0  0  0  0  0  0  0  0  0  0
   12.0213  -17.8623   25.9466 C   0  0  0  0  0  0  0  0  0  0  0  0
   11.7813  -19.0664   26.7892 C   0  0  0  0  0  0  0  0  0  0  0  0
   12.5431  -18.9498   28.1217 N   0  0  0  0  0  0  0  0  0  0  0  0
   12.2279  -20.0366   28.9950 C   0  0  0  0  0  0  0  0  0  0  0  0
   12.6353  -16.1761   23.2046 O   0  0  0  0  0  0  0  0  0  0  0  0
   12.9472  -16.2428   21.9902 O   0  0  0  0  0  0  0  0  0  0  0  0
  1  2  1  0
  2  3  2  0
  4  5  1  0
  4  2  1  0
  6  5  1  0
  6  7  1  6
  8  6  1  0
  9  8  2  0
 10 11  1  0
 11 13  1  0
 11 12  2  0
 13 14  1  0
 14 15  1  0
 17 16  1  1
 16 15  1  0
 17 18  1  0
 18  8  1  0
 19 17  1  0
 19 20  2  0
 21 19  1  0
 22 21  1  0
 22 23  1  6
 24 23  1  0
 25 24  1  0
 26 25  1  0
 27 26  1  0
 28 22  1  0
 29 28  2  0
 30 28  1  0
M  END
$$$$
