MWE.pdb
     RDKit          3D

 32 33  0  0  1  0  0  0  0  0999 V2000
   10.4773  -20.9866   21.4003 C   0  0  0  0  0  0  0  0  0  0  0  0
    9.0408  -20.5685   20.4217 S   0  0  0  0  0  0  0  0  0  0  0  0
    9.3705  -19.7581   18.8820 C   0  0  0  0  0  0  0  0  0  0  0  0
   10.0064  -18.4099   19.0016 C   0  0  0  0  0  0  0  0  0  0  0  0
    8.9692  -17.3304   19.0699 C   0  0  2  0  0  0  0  0  0  0  0  0
    9.1416  -16.4990   17.8901 N   0  0  0  0  0  0  0  0  0  0  0  0
    9.1776  -16.4669   20.2872 C   0  0  0  0  0  0  0  0  0  0  0  0
   10.0701  -15.5909   20.2822 O   0  0  0  0  0  0  0  0  0  0  0  0
    8.3896  -16.6261   21.4274 N   0  0  0  0  0  0  0  0  0  0  0  0
    8.5654  -15.8653   22.6804 C   0  0  1  0  0  0  0  0  0  0  0  0
    7.2171  -15.4616   23.0891 C   0  0  0  0  0  0  0  0  0  0  0  0
    6.9477  -15.1306   24.4740 C   0  0  0  0  0  0  0  0  0  0  0  0
    6.5094  -15.9888   25.4421 C   0  0  0  0  0  0  0  0  0  0  0  0
    6.3704  -15.3008   26.5768 N   0  0  0  0  0  0  0  0  0  0  0  0
    6.7042  -14.0057   26.3927 C   0  0  0  0  0  0  0  0  0  0  0  0
    6.7230  -12.9220   27.2523 C   0  0  0  0  0  0  0  0  0  0  0  0
    7.1165  -11.6674   26.7990 C   0  0  0  0  0  0  0  0  0  0  0  0
    7.4803  -11.5482   25.4843 C   0  0  0  0  0  0  0  0  0  0  0  0
    7.4586  -12.6308   24.6369 C   0  0  0  0  0  0  0  0  0  0  0  0
    7.0686  -13.8950   25.0682 C   0  0  0  0  0  0  0  0  0  0  0  0
    9.3875  -16.6747   23.5418 C   0  0  0  0  0  0  0  0  0  0  0  0
    9.0936  -17.8877   23.7444 O   0  0  0  0  0  0  0  0  0  0  0  0
   10.5332  -16.1894   24.1901 N   0  0  0  0  0  0  0  0  0  0  0  0
   11.3954  -17.0268   25.0200 C   0  0  1  0  0  0  0  0  0  0  0  0
   12.7829  -16.4928   24.8558 C   0  0  0  0  0  0  0  0  0  0  0  0
   13.1832  -16.4965   23.4237 C   0  0  0  0  0  0  0  0  0  0  0  0
   14.6193  -16.0706   23.3091 C   0  0  0  0  0  0  0  0  0  0  0  0
   15.1445  -15.5325   24.3054 O   0  0  0  0  0  0  0  0  0  0  0  0
   10.9684  -16.9279   26.4261 C   0  0  0  0  0  0  0  0  0  0  0  0
    9.9067  -16.0833   26.8044 O   0  0  0  0  0  0  0  0  0  0  0  0
   15.3193  -16.2691   22.1509 O   0  0  0  0  0  0  0  0  0  0  0  0
   11.4903  -17.5612   27.3771 O   0  0  0  0  0  0  0  0  0  0  0  0
  2  1  1  0
  3  2  1  0
  4  3  1  0
  5  4  1  0
  5  6  1  6
  7  5  1  0
  7  8  2  0
  9  7  1  0
 10  9  1  0
 10 11  1  1
 11 12  1  0
 12 13  2  0
 12 20  1  0
 13 14  1  0
 14 15  1  0
 15 16  2  0
 16 17  1  0
 18 17  2  0
 19 18  1  0
 20 19  2  0
 20 15  1  0
 21 10  1  0
 22 21  2  0
 23 21  1  0
 24 25  1  1
 24 23  1  0
 25 26  1  0
 26 27  1  0
 27 31  1  0
 27 28  2  0
 29 30  1  0
 29 24  1  0
 32 29  2  0
M  END
$$$$
