MWE.pdb
     RDKit          3D

 32 33  0  0  1  0  0  0  0  0999 V2000
   12.5762  -19.9262   18.1254 C   0  0  0  0  0  0  0  0  0  0  0  0
   10.8594  -20.1674   17.6889 S   0  0  0  0  0  0  0  0  0  0  0  0
    9.8256  -18.7356   17.8205 C   0  0  0  0  0  0  0  0  0  0  0  0
   10.3374  -17.6692   18.7354 C   0  0  0  0  0  0  0  0  0  0  0  0
    9.3274  -16.5752   18.9041 C   0  0  2  0  0  0  0  0  0  0  0  0
    9.5934  -15.5872   17.8717 N   0  0  0  0  0  0  0  0  0  0  0  0
    9.4846  -15.9064   20.2453 C   0  0  0  0  0  0  0  0  0  0  0  0
   10.5381  -15.2875   20.5114 O   0  0  0  0  0  0  0  0  0  0  0  0
    8.4714  -15.9643   21.2028 N   0  0  0  0  0  0  0  0  0  0  0  0
    8.5931  -15.4552   22.5833 C   0  0  1  0  0  0  0  0  0  0  0  0
    7.2355  -15.0772   22.9853 C   0  0  0  0  0  0  0  0  0  0  0  0
    6.9537  -14.7485   24.3683 C   0  0  0  0  0  0  0  0  0  0  0  0
    6.4666  -15.5982   25.3205 C   0  0  0  0  0  0  0  0  0  0  0  0
    6.3329  -14.9154   26.4590 N   0  0  0  0  0  0  0  0  0  0  0  0
    6.7177  -13.6320   26.2928 C   0  0  0  0  0  0  0  0  0  0  0  0
    6.7611  -12.5573   27.1628 C   0  0  0  0  0  0  0  0  0  0  0  0
    7.2090  -11.3144   26.7282 C   0  0  0  0  0  0  0  0  0  0  0  0
    7.6005  -11.1973   25.4214 C   0  0  0  0  0  0  0  0  0  0  0  0
    7.5539  -12.2709   24.5636 C   0  0  0  0  0  0  0  0  0  0  0  0
    7.1096  -13.5235   24.9761 C   0  0  0  0  0  0  0  0  0  0  0  0
    9.3348  -16.4433   23.3226 C   0  0  0  0  0  0  0  0  0  0  0  0
    9.0919  -17.6735   23.1595 O   0  0  0  0  0  0  0  0  0  0  0  0
   10.3450  -16.1191   24.2406 N   0  0  0  0  0  0  0  0  0  0  0  0
   11.1397  -17.1248   24.9409 C   0  0  1  0  0  0  0  0  0  0  0  0
   12.5570  -16.6497   24.8900 C   0  0  0  0  0  0  0  0  0  0  0  0
   13.0725  -16.6771   23.4954 C   0  0  0  0  0  0  0  0  0  0  0  0
   14.4883  -16.1749   23.4802 C   0  0  0  0  0  0  0  0  0  0  0  0
   14.9168  -15.6206   24.5133 O   0  0  0  0  0  0  0  0  0  0  0  0
   10.6806  -17.2276   26.3365 C   0  0  0  0  0  0  0  0  0  0  0  0
   11.2182  -18.1947   27.2079 O   0  0  0  0  0  0  0  0  0  0  0  0
   15.2732  -16.3238   22.3700 O   0  0  0  0  0  0  0  0  0  0  0  0
    9.8039  -16.4930   26.8558 O   0  0  0  0  0  0  0  0  0  0  0  0
  2  1  1  0
  3  2  1  0
  4  3  1  0
  5  4  1  0
  5  6  1  6
  7  5  1  0
  7  8  2  0
  9  7  1  0
 10  9  1  0
 10 11  1  1
 11 12  1  0
 12 13  2  0
 12 20  1  0
 13 14  1  0
 14 15  1  0
 15 16  2  0
 16 17  1  0
 18 17  2  0
 19 18  1  0
 20 19  2  0
 20 15  1  0
 21 10  1  0
 22 21  2  0
 23 21  1  0
 24 25  1  1
 24 23  1  0
 25 26  1  0
 26 27  1  0
 27 31  1  0
 27 28  2  0
 29 30  1  0
 29 24  1  0
 32 29  2  0
M  END
$$$$
