MWE.pdb
     RDKit          3D

 32 33  0  0  1  0  0  0  0  0999 V2000
    7.2289  -11.7023   19.5338 C   0  0  0  0  0  0  0  0  0  0  0  0
    6.7280  -13.1478   18.6086 S   0  0  0  0  0  0  0  0  0  0  0  0
    7.2234  -14.7052   19.2906 C   0  0  0  0  0  0  0  0  0  0  0  0
    8.1062  -14.6152   20.4943 C   0  0  0  0  0  0  0  0  0  0  0  0
    8.5326  -15.9771   20.9514 C   0  0  2  0  0  0  0  0  0  0  0  0
    7.3223  -16.7223   21.2559 N   0  0  0  0  0  0  0  0  0  0  0  0
    9.3555  -15.8837   22.2104 C   0  0  0  0  0  0  0  0  0  0  0  0
   10.4199  -15.2274   22.2097 O   0  0  0  0  0  0  0  0  0  0  0  0
    8.9510  -16.5192   23.3847 N   0  0  0  0  0  0  0  0  0  0  0  0
    9.6657  -16.4320   24.6736 C   0  0  1  0  0  0  0  0  0  0  0  0
    8.6357  -16.5755   25.7062 C   0  0  0  0  0  0  0  0  0  0  0  0
    7.5482  -15.6208   25.7834 C   0  0  0  0  0  0  0  0  0  0  0  0
    6.2374  -15.8591   25.4823 C   0  0  0  0  0  0  0  0  0  0  0  0
    5.5550  -14.7276   25.6679 N   0  0  0  0  0  0  0  0  0  0  0  0
    6.3751  -13.7396   26.0850 C   0  0  0  0  0  0  0  0  0  0  0  0
    6.1416  -12.4139   26.4040 C   0  0  0  0  0  0  0  0  0  0  0  0
    7.1854  -11.5921   26.8157 C   0  0  0  0  0  0  0  0  0  0  0  0
    8.4380  -12.1398   26.8920 C   0  0  0  0  0  0  0  0  0  0  0  0
    8.6609  -13.4585   26.5730 C   0  0  0  0  0  0  0  0  0  0  0  0
    7.6323  -14.2993   26.1588 C   0  0  0  0  0  0  0  0  0  0  0  0
   10.7685  -17.3545   24.5963 C   0  0  0  0  0  0  0  0  0  0  0  0
   10.5618  -18.5693   24.3128 O   0  0  0  0  0  0  0  0  0  0  0  0
   12.1019  -16.9799   24.8198 N   0  0  0  0  0  0  0  0  0  0  0  0
   13.2221  -17.9101   24.7048 C   0  0  1  0  0  0  0  0  0  0  0  0
   14.3811  -17.1110   24.1996 C   0  0  0  0  0  0  0  0  0  0  0  0
   15.5868  -17.9682   24.0490 C   0  0  0  0  0  0  0  0  0  0  0  0
   16.7191  -17.1410   23.5098 C   0  0  0  0  0  0  0  0  0  0  0  0
   16.8475  -17.0740   22.2701 O   0  0  0  0  0  0  0  0  0  0  0  0
   13.5259  -18.4775   26.0296 C   0  0  0  0  0  0  0  0  0  0  0  0
   12.8726  -18.0101   27.1864 O   0  0  0  0  0  0  0  0  0  0  0  0
   17.5742  -16.4877   24.3542 O   0  0  0  0  0  0  0  0  0  0  0  0
   14.3610  -19.3920   26.2403 O   0  0  0  0  0  0  0  0  0  0  0  0
  2  1  1  0
  3  2  1  0
  4  3  1  0
  5  4  1  0
  5  6  1  1
  7  5  1  0
  7  8  2  0
  9  7  1  0
 10  9  1  0
 10 11  1  1
 11 12  1  0
 12 13  2  0
 12 20  1  0
 13 14  1  0
 14 15  1  0
 15 16  2  0
 16 17  1  0
 18 17  2  0
 19 18  1  0
 20 19  2  0
 20 15  1  0
 21 10  1  0
 22 21  2  0
 23 21  1  0
 24 25  1  1
 24 23  1  0
 25 26  1  0
 26 27  1  0
 27 31  1  0
 27 28  2  0
 29 30  1  0
 29 24  1  0
 32 29  2  0
M  END
$$$$
