MWE.pdb
     RDKit          3D

 32 33  0  0  1  0  0  0  0  0999 V2000
    8.2037  -13.3590   16.9650 C   0  0  0  0  0  0  0  0  0  0  0  0
    8.1097  -12.5063   18.5336 S   0  0  0  0  0  0  0  0  0  0  0  0
    7.5373  -13.4753   19.9008 C   0  0  0  0  0  0  0  0  0  0  0  0
    8.0029  -14.8964   19.9063 C   0  0  0  0  0  0  0  0  0  0  0  0
    7.3583  -15.6691   21.0168 C   0  0  2  0  0  0  0  0  0  0  0  0
    5.9485  -15.3152   21.0193 N   0  0  0  0  0  0  0  0  0  0  0  0
    7.9431  -15.2766   22.3490 C   0  0  0  0  0  0  0  0  0  0  0  0
    7.6941  -14.1490   22.8289 O   0  0  0  0  0  0  0  0  0  0  0  0
    8.7624  -16.1518   23.0626 N   0  0  0  0  0  0  0  0  0  0  0  0
    9.3910  -15.8400   24.3616 C   0  0  1  0  0  0  0  0  0  0  0  0
    8.4178  -16.2477   25.3786 C   0  0  0  0  0  0  0  0  0  0  0  0
    7.3309  -15.3597   25.7396 C   0  0  0  0  0  0  0  0  0  0  0  0
    5.9978  -15.6552   25.7069 C   0  0  0  0  0  0  0  0  0  0  0  0
    5.3216  -14.5739   26.0991 N   0  0  0  0  0  0  0  0  0  0  0  0
    6.1677  -13.5636   26.3930 C   0  0  0  0  0  0  0  0  0  0  0  0
    5.9497  -12.2702   26.8328 C   0  0  0  0  0  0  0  0  0  0  0  0
    7.0202  -11.4131   27.0645 C   0  0  0  0  0  0  0  0  0  0  0  0
    8.2831  -11.8936   26.8431 C   0  0  0  0  0  0  0  0  0  0  0  0
    8.4904  -13.1806   26.4059 C   0  0  0  0  0  0  0  0  0  0  0  0
    7.4351  -14.0557   26.1675 C   0  0  0  0  0  0  0  0  0  0  0  0
   10.7107  -16.4147   24.3289 C   0  0  0  0  0  0  0  0  0  0  0  0
   11.3980  -16.4882   25.3878 O   0  0  0  0  0  0  0  0  0  0  0  0
   11.3020  -16.9177   23.1603 N   0  0  0  0  0  0  0  0  0  0  0  0
   12.6645  -17.4423   23.1175 C   0  0  1  0  0  0  0  0  0  0  0  0
   13.4763  -16.4406   22.3595 C   0  0  0  0  0  0  0  0  0  0  0  0
   12.9594  -16.2827   20.9742 C   0  0  0  0  0  0  0  0  0  0  0  0
   13.8388  -15.3239   20.2231 C   0  0  0  0  0  0  0  0  0  0  0  0
   14.9238  -15.7569   19.7834 O   0  0  0  0  0  0  0  0  0  0  0  0
   13.1770  -17.5879   24.4906 C   0  0  0  0  0  0  0  0  0  0  0  0
   13.1033  -16.5230   25.4094 O   0  0  0  0  0  0  0  0  0  0  0  0
   13.4567  -14.0245   20.0321 O   0  0  0  0  0  0  0  0  0  0  0  0
   13.7048  -18.6316   24.9489 O   0  0  0  0  0  0  0  0  0  0  0  0
  2  1  1  0
  3  2  1  0
  4  3  1  0
  5  4  1  0
  5  6  1  1
  7  5  1  0
  7  8  2  0
  9  7  1  0
 10  9  1  0
 10 11  1  1
 11 12  1  0
 12 13  2  0
 12 20  1  0
 13 14  1  0
 14 15  1  0
 15 16  2  0
 16 17  1  0
 18 17  2  0
 19 18  1  0
 20 19  2  0
 20 15  1  0
 21 10  1  0
 22 21  2  0
 23 21  1  0
 24 25  1  6
 24 23  1  0
 25 26  1  0
 26 27  1  0
 27 31  1  0
 27 28  2  0
 29 30  1  0
 29 24  1  0
 32 29  2  0
M  END
$$$$
