MWE.pdb
     RDKit          3D

 32 33  0  0  1  0  0  0  0  0999 V2000
    7.7886  -11.7842   19.0777 C   0  0  0  0  0  0  0  0  0  0  0  0
    6.5014  -12.9520   19.4968 S   0  0  0  0  0  0  0  0  0  0  0  0
    7.0481  -14.4604   20.2464 C   0  0  0  0  0  0  0  0  0  0  0  0
    8.4973  -14.4938   20.6138 C   0  0  0  0  0  0  0  0  0  0  0  0
    8.8961  -15.8520   21.1058 C   0  0  2  0  0  0  0  0  0  0  0  0
    7.6740  -16.6225   21.2661 N   0  0  0  0  0  0  0  0  0  0  0  0
    9.5698  -15.7555   22.4503 C   0  0  0  0  0  0  0  0  0  0  0  0
   10.5617  -15.0081   22.5961 O   0  0  0  0  0  0  0  0  0  0  0  0
    9.1061  -16.4885   23.5431 N   0  0  0  0  0  0  0  0  0  0  0  0
    9.7104  -16.4577   24.8899 C   0  0  1  0  0  0  0  0  0  0  0  0
    8.5928  -16.6021   25.8269 C   0  0  0  0  0  0  0  0  0  0  0  0
    7.5266  -15.6208   25.8406 C   0  0  0  0  0  0  0  0  0  0  0  0
    6.2319  -15.8250   25.4561 C   0  0  0  0  0  0  0  0  0  0  0  0
    5.5672  -14.6776   25.6046 N   0  0  0  0  0  0  0  0  0  0  0  0
    6.3835  -13.7121   26.0780 C   0  0  0  0  0  0  0  0  0  0  0  0
    6.1632  -12.3822   26.3890 C   0  0  0  0  0  0  0  0  0  0  0  0
    7.1989  -11.5884   26.8703 C   0  0  0  0  0  0  0  0  0  0  0  0
    8.4303  -12.1675   27.0224 C   0  0  0  0  0  0  0  0  0  0  0  0
    8.6402  -13.4902   26.7107 C   0  0  0  0  0  0  0  0  0  0  0  0
    7.6194  -14.3033   26.2279 C   0  0  0  0  0  0  0  0  0  0  0  0
   10.7922  -17.4078   24.8777 C   0  0  0  0  0  0  0  0  0  0  0  0
   10.5526  -18.6416   24.7388 O   0  0  0  0  0  0  0  0  0  0  0  0
   12.1397  -17.0409   25.0115 N   0  0  0  0  0  0  0  0  0  0  0  0
   13.2210  -18.0126   25.1531 C   0  0  1  0  0  0  0  0  0  0  0  0
   14.4591  -17.3385   24.6534 C   0  0  0  0  0  0  0  0  0  0  0  0
   14.2598  -16.8272   23.2713 C   0  0  0  0  0  0  0  0  0  0  0  0
   15.5521  -16.2533   22.7638 C   0  0  0  0  0  0  0  0  0  0  0  0
   16.4540  -16.0320   23.5978 O   0  0  0  0  0  0  0  0  0  0  0  0
   13.3698  -18.3769   26.5724 C   0  0  0  0  0  0  0  0  0  0  0  0
   12.6010  -17.7442   27.5685 O   0  0  0  0  0  0  0  0  0  0  0  0
   15.7261  -15.9857   21.4337 O   0  0  0  0  0  0  0  0  0  0  0  0
   14.1631  -19.2488   27.0064 O   0  0  0  0  0  0  0  0  0  0  0  0
  2  1  1  0
  3  2  1  0
  4  3  1  0
  5  4  1  0
  5  6  1  1
  7  5  1  0
  7  8  2  0
  9  7  1  0
 10  9  1  0
 10 11  1  1
 11 12  1  0
 12 13  2  0
 12 20  1  0
 13 14  1  0
 14 15  1  0
 15 16  2  0
 16 17  1  0
 18 17  2  0
 19 18  1  0
 20 19  2  0
 20 15  1  0
 21 10  1  0
 22 21  2  0
 23 21  1  0
 24 25  1  1
 24 23  1  0
 25 26  1  0
 26 27  1  0
 27 31  1  0
 27 28  2  0
 29 30  1  0
 29 24  1  0
 32 29  2  0
M  END
$$$$
