MWE.pdb
     RDKit          3D

 32 33  0  0  1  0  0  0  0  0999 V2000
    6.5710  -12.6299   16.7999 C   0  0  0  0  0  0  0  0  0  0  0  0
    7.2136  -12.6117   18.4682 S   0  0  0  0  0  0  0  0  0  0  0  0
    7.6709  -14.1886   19.1316 C   0  0  0  0  0  0  0  0  0  0  0  0
    8.2765  -14.1471   20.4983 C   0  0  0  0  0  0  0  0  0  0  0  0
    8.7398  -15.5075   20.9227 C   0  0  2  0  0  0  0  0  0  0  0  0
    7.5546  -16.3385   21.0561 N   0  0  0  0  0  0  0  0  0  0  0  0
    9.4219  -15.4440   22.2649 C   0  0  0  0  0  0  0  0  0  0  0  0
   10.4116  -14.6964   22.4241 O   0  0  0  0  0  0  0  0  0  0  0  0
    8.9684  -16.2077   23.3408 N   0  0  0  0  0  0  0  0  0  0  0  0
    9.5770  -16.2048   24.6859 C   0  0  1  0  0  0  0  0  0  0  0  0
    8.4783  -16.4780   25.6165 C   0  0  0  0  0  0  0  0  0  0  0  0
    7.4028  -15.5190   25.7702 C   0  0  0  0  0  0  0  0  0  0  0  0
    6.0767  -15.7431   25.5317 C   0  0  0  0  0  0  0  0  0  0  0  0
    5.4124  -14.6122   25.7767 N   0  0  0  0  0  0  0  0  0  0  0  0
    6.2595  -13.6383   26.1727 C   0  0  0  0  0  0  0  0  0  0  0  0
    6.0518  -12.3187   26.5323 C   0  0  0  0  0  0  0  0  0  0  0  0
    7.1209  -11.5123   26.9078 C   0  0  0  0  0  0  0  0  0  0  0  0
    8.3720  -12.0687   26.9078 C   0  0  0  0  0  0  0  0  0  0  0  0
    8.5692  -13.3813   26.5488 C   0  0  0  0  0  0  0  0  0  0  0  0
    7.5150  -14.2067   26.1697 C   0  0  0  0  0  0  0  0  0  0  0  0
   10.7238  -17.0730   24.6209 C   0  0  0  0  0  0  0  0  0  0  0  0
   10.5700  -18.3278   24.5943 O   0  0  0  0  0  0  0  0  0  0  0  0
   12.0445  -16.6013   24.5811 N   0  0  0  0  0  0  0  0  0  0  0  0
   13.2071  -17.4851   24.5549 C   0  0  1  0  0  0  0  0  0  0  0  0
   14.3911  -16.6132   24.2814 C   0  0  0  0  0  0  0  0  0  0  0  0
   15.6491  -17.4051   24.3198 C   0  0  0  0  0  0  0  0  0  0  0  0
   16.6809  -16.7391   23.4545 C   0  0  0  0  0  0  0  0  0  0  0  0
   16.3939  -15.6285   22.9625 O   0  0  0  0  0  0  0  0  0  0  0  0
   13.3473  -18.1493   25.8620 C   0  0  0  0  0  0  0  0  0  0  0  0
   12.8934  -17.5304   27.0429 O   0  0  0  0  0  0  0  0  0  0  0  0
   17.8893  -17.3352   23.2193 O   0  0  0  0  0  0  0  0  0  0  0  0
   13.8632  -19.2813   26.0361 O   0  0  0  0  0  0  0  0  0  0  0  0
  2  1  1  0
  3  2  1  0
  4  3  1  0
  5  4  1  0
  5  6  1  1
  7  5  1  0
  7  8  2  0
  9  7  1  0
 10  9  1  0
 10 11  1  1
 11 12  1  0
 12 13  2  0
 12 20  1  0
 13 14  1  0
 14 15  1  0
 15 16  2  0
 16 17  1  0
 18 17  2  0
 19 18  1  0
 20 19  2  0
 20 15  1  0
 21 10  1  0
 22 21  2  0
 23 21  1  0
 24 25  1  1
 24 23  1  0
 25 26  1  0
 26 27  1  0
 27 31  1  0
 27 28  2  0
 29 30  1  0
 29 24  1  0
 32 29  2  0
M  END
$$$$
