APR.pdb
     RDKit          3D

 24 24  0  0  1  0  0  0  0  0999 V2000
    8.6745  -16.3017   17.3726 C   0  0  0  0  0  0  0  0  0  0  0  0
    9.2163  -17.4647   18.1902 C   0  0  2  0  0  0  0  0  0  0  0  0
    9.1866  -18.7070   17.4905 N   0  0  0  0  0  0  0  0  0  0  0  0
    8.6287  -17.4830   19.5407 C   0  0  0  0  0  0  0  0  0  0  0  0
    8.7142  -16.4270   20.2016 O   0  0  0  0  0  0  0  0  0  0  0  0
    7.9772  -18.6313   20.1209 N   0  0  0  0  0  0  0  0  0  0  0  0
    7.7077  -19.8285   19.3456 C   0  0  0  0  0  0  0  0  0  0  0  0
    6.9647  -20.7589   20.2774 C   0  0  0  0  0  0  0  0  0  0  0  0
    7.3845  -20.2964   21.6545 C   0  0  0  0  0  0  0  0  0  0  0  0
    7.4733  -18.7964   21.4193 C   0  0  1  0  0  0  0  0  0  0  0  0
    8.2660  -18.1803   22.5248 C   0  0  0  0  0  0  0  0  0  0  0  0
    9.5002  -18.3027   22.5185 O   0  0  0  0  0  0  0  0  0  0  0  0
    7.0232  -10.9169   27.3566 N   0  0  0  0  0  0  0  0  0  0  0  0
    6.6397  -11.7156   26.2432 C   0  0  0  0  0  0  0  0  0  0  0  0
    5.6291  -11.3809   25.5432 N   0  0  0  0  0  0  0  0  0  0  0  0
    7.3867  -12.8941   25.9087 N   0  0  0  0  0  0  0  0  0  0  0  0
    7.6775  -13.8655   26.9528 C   0  0  0  0  0  0  0  0  0  0  0  0
    8.4655  -14.9816   26.2720 C   0  0  0  0  0  0  0  0  0  0  0  0
    7.6766  -15.6236   25.1716 C   0  0  0  0  0  0  0  0  0  0  0  0
    8.3861  -16.8304   24.6645 C   0  0  2  0  0  0  0  0  0  0  0  0
    7.6385  -17.4625   23.5736 N   0  0  0  0  0  0  0  0  0  0  0  0
    8.7277  -17.7668   25.7137 C   0  0  0  0  0  0  0  0  0  0  0  0
    8.0625  -18.9467   25.9349 O   0  0  0  0  0  0  0  0  0  0  0  0
    9.6984  -17.4774   26.4777 O   0  0  0  0  0  0  0  0  0  0  0  0
  2  1  1  6
  2  3  1  0
  4  2  1  0
  5  4  2  0
  6 10  1  0
  6  4  1  0
  7  6  1  0
  8  7  1  0
  8  9  1  0
  9 10  1  0
 10 11  1  1
 11 12  2  0
 13 14  1  0
 14 15  2  0
 16 17  1  0
 16 14  1  0
 18 17  1  0
 19 18  1  0
 20 21  1  0
 20 19  1  1
 21 11  1  0
 22 20  1  0
 23 22  1  0
 24 22  2  0
M  END
$$$$
