APR.pdb
     RDKit          3D

 24 24  0  0  1  0  0  0  0  0999 V2000
    4.7028  -17.0045   20.0261 C   0  0  0  0  0  0  0  0  0  0  0  0
    5.9199  -16.8518   19.1261 C   0  0  2  0  0  0  0  0  0  0  0  0
    6.1855  -18.0096   18.3370 N   0  0  0  0  0  0  0  0  0  0  0  0
    7.0698  -16.3170   19.8751 C   0  0  0  0  0  0  0  0  0  0  0  0
    7.8142  -17.1532   20.4282 O   0  0  0  0  0  0  0  0  0  0  0  0
    7.3689  -14.9115   19.9975 N   0  0  0  0  0  0  0  0  0  0  0  0
    6.6814  -13.9127   19.1997 C   0  0  0  0  0  0  0  0  0  0  0  0
    7.3171  -12.5906   19.5653 C   0  0  0  0  0  0  0  0  0  0  0  0
    7.8819  -12.8350   20.9465 C   0  0  0  0  0  0  0  0  0  0  0  0
    8.3293  -14.2815   20.8024 C   0  0  1  0  0  0  0  0  0  0  0  0
    8.5408  -14.8596   22.1631 C   0  0  0  0  0  0  0  0  0  0  0  0
    7.6653  -14.6974   23.0266 O   0  0  0  0  0  0  0  0  0  0  0  0
    6.0508  -20.7432   24.3807 N   0  0  0  0  0  0  0  0  0  0  0  0
    6.4073  -19.4722   24.9120 C   0  0  0  0  0  0  0  0  0  0  0  0
    5.7055  -18.4479   24.6260 N   0  0  0  0  0  0  0  0  0  0  0  0
    7.5528  -19.3424   25.7663 N   0  0  0  0  0  0  0  0  0  0  0  0
    8.8749  -19.6087   25.2194 C   0  0  0  0  0  0  0  0  0  0  0  0
    9.5665  -18.2509   25.1283 C   0  0  0  0  0  0  0  0  0  0  0  0
    9.3463  -17.6067   23.7934 C   0  0  0  0  0  0  0  0  0  0  0  0
    9.9214  -16.2334   23.7822 C   0  0  2  0  0  0  0  0  0  0  0  0
    9.7152  -15.5856   22.4836 N   0  0  0  0  0  0  0  0  0  0  0  0
   11.3057  -16.1977   24.2025 C   0  0  0  0  0  0  0  0  0  0  0  0
   11.7360  -16.5551   25.4558 O   0  0  0  0  0  0  0  0  0  0  0  0
   12.1735  -15.8087   23.3626 O   0  0  0  0  0  0  0  0  0  0  0  0
  2  1  1  1
  2  3  1  0
  4  2  1  0
  5  4  2  0
  6 10  1  0
  6  4  1  0
  7  6  1  0
  8  7  1  0
  8  9  1  0
  9 10  1  0
 10 11  1  1
 11 12  2  0
 13 14  1  0
 14 15  2  0
 16 17  1  0
 16 14  1  0
 18 17  1  0
 19 18  1  0
 20 21  1  0
 20 19  1  6
 21 11  1  0
 22 20  1  0
 23 22  1  0
 24 22  2  0
M  END
$$$$
