APR.pdb
     RDKit          3D

 24 24  0  0  1  0  0  0  0  0999 V2000
    6.3058  -14.0663   21.1824 C   0  0  0  0  0  0  0  0  0  0  0  0
    7.3918  -13.0976   21.6258 C   0  0  2  0  0  0  0  0  0  0  0  0
    8.3352  -12.8006   20.5985 N   0  0  0  0  0  0  0  0  0  0  0  0
    7.9686  -13.5031   22.9190 C   0  0  0  0  0  0  0  0  0  0  0  0
    8.9399  -14.2866   22.8765 O   0  0  0  0  0  0  0  0  0  0  0  0
    7.4780  -13.0511   24.1976 N   0  0  0  0  0  0  0  0  0  0  0  0
    6.5757  -11.9200   24.3123 C   0  0  0  0  0  0  0  0  0  0  0  0
    6.3540  -11.7241   25.7950 C   0  0  0  0  0  0  0  0  0  0  0  0
    6.6424  -13.0870   26.3830 C   0  0  0  0  0  0  0  0  0  0  0  0
    7.7803  -13.5350   25.4788 C   0  0  1  0  0  0  0  0  0  0  0  0
    7.9482  -15.0132   25.6101 C   0  0  0  0  0  0  0  0  0  0  0  0
    6.9399  -15.7352   25.5947 O   0  0  0  0  0  0  0  0  0  0  0  0
   10.7789  -20.7627   20.8643 N   0  0  0  0  0  0  0  0  0  0  0  0
   11.8677  -20.2971   21.6534 C   0  0  0  0  0  0  0  0  0  0  0  0
   13.0538  -20.3565   21.1920 N   0  0  0  0  0  0  0  0  0  0  0  0
   11.6327  -19.7630   22.9642 N   0  0  0  0  0  0  0  0  0  0  0  0
   10.2865  -19.8112   23.5152 C   0  0  0  0  0  0  0  0  0  0  0  0
   10.3580  -19.0708   24.8482 C   0  0  0  0  0  0  0  0  0  0  0  0
   10.1183  -17.6014   24.6781 C   0  0  0  0  0  0  0  0  0  0  0  0
    9.4319  -17.0484   25.8779 C   0  0  2  0  0  0  0  0  0  0  0  0
    9.2298  -15.6022   25.7505 N   0  0  0  0  0  0  0  0  0  0  0  0
   10.0865  -17.4063   27.1179 C   0  0  0  0  0  0  0  0  0  0  0  0
   10.7058  -16.5041   27.9463 O   0  0  0  0  0  0  0  0  0  0  0  0
   10.0917  -18.6287   27.4576 O   0  0  0  0  0  0  0  0  0  0  0  0
  2  1  1  6
  2  3  1  0
  4  2  1  0
  5  4  2  0
  6 10  1  0
  6  4  1  0
  7  6  1  0
  8  7  1  0
  8  9  1  0
  9 10  1  0
 10 11  1  6
 11 12  2  0
 13 14  1  0
 14 15  2  0
 16 17  1  0
 16 14  1  0
 18 17  1  0
 19 18  1  0
 20 21  1  0
 20 19  1  6
 21 11  1  0
 22 20  1  0
 23 22  1  0
 24 22  2  0
M  END
$$$$
