APR.pdb
     RDKit          3D

 24 24  0  0  1  0  0  0  0  0999 V2000
   11.0229  -20.5304   16.6336 C   0  0  0  0  0  0  0  0  0  0  0  0
    9.5572  -20.2570   16.9360 C   0  0  2  0  0  0  0  0  0  0  0  0
    8.9371  -19.3948   15.9844 N   0  0  0  0  0  0  0  0  0  0  0  0
    9.3676  -19.8841   18.3483 C   0  0  0  0  0  0  0  0  0  0  0  0
    9.5596  -18.6853   18.6403 O   0  0  0  0  0  0  0  0  0  0  0  0
    8.9817  -20.8123   19.3823 N   0  0  0  0  0  0  0  0  0  0  0  0
    8.5895  -22.1759   19.0763 C   0  0  0  0  0  0  0  0  0  0  0  0
    8.1986  -22.7944   20.3993 C   0  0  0  0  0  0  0  0  0  0  0  0
    8.9513  -21.9674   21.4172 C   0  0  0  0  0  0  0  0  0  0  0  0
    8.8697  -20.5964   20.7636 C   0  0  1  0  0  0  0  0  0  0  0  0
    9.8942  -19.7041   21.3836 C   0  0  0  0  0  0  0  0  0  0  0  0
   11.0937  -19.9130   21.1473 O   0  0  0  0  0  0  0  0  0  0  0  0
    7.4058  -12.0376   21.2393 N   0  0  0  0  0  0  0  0  0  0  0  0
    7.9494  -12.7618   20.1416 C   0  0  0  0  0  0  0  0  0  0  0  0
    7.7885  -12.3264   18.9551 N   0  0  0  0  0  0  0  0  0  0  0  0
    8.6757  -13.9783   20.3681 N   0  0  0  0  0  0  0  0  0  0  0  0
    8.8783  -14.4354   21.7349 C   0  0  0  0  0  0  0  0  0  0  0  0
    9.5862  -15.7830   21.6201 C   0  0  0  0  0  0  0  0  0  0  0  0
    9.9307  -16.3430   22.9666 C   0  0  0  0  0  0  0  0  0  0  0  0
   10.4992  -17.7119   22.8259 C   0  0  2  0  0  0  0  0  0  0  0  0
    9.5236  -18.6299   22.2308 N   0  0  0  0  0  0  0  0  0  0  0  0
   11.0543  -18.2223   24.0611 C   0  0  0  0  0  0  0  0  0  0  0  0
   12.2950  -17.8850   24.5413 O   0  0  0  0  0  0  0  0  0  0  0  0
   10.3531  -19.0338   24.7390 O   0  0  0  0  0  0  0  0  0  0  0  0
  2  1  1  6
  2  3  1  0
  4  2  1  0
  5  4  2  0
  6 10  1  0
  6  4  1  0
  7  6  1  0
  8  7  1  0
  8  9  1  0
  9 10  1  0
 10 11  1  1
 11 12  2  0
 13 14  1  0
 14 15  2  0
 16 17  1  0
 16 14  1  0
 18 17  1  0
 19 18  1  0
 20 21  1  0
 20 19  1  1
 21 11  1  0
 22 20  1  0
 23 22  1  0
 24 22  2  0
M  END
$$$$
