APR.pdb
     RDKit          3D

 24 24  0  0  1  0  0  0  0  0999 V2000
    6.5398  -14.7249   21.8370 C   0  0  0  0  0  0  0  0  0  0  0  0
    7.3001  -13.4233   22.0425 C   0  0  2  0  0  0  0  0  0  0  0  0
    8.1317  -13.0764   20.9372 N   0  0  0  0  0  0  0  0  0  0  0  0
    7.9536  -13.3933   23.3622 C   0  0  0  0  0  0  0  0  0  0  0  0
    9.0969  -13.8907   23.4311 O   0  0  0  0  0  0  0  0  0  0  0  0
    7.3521  -12.8327   24.5469 N   0  0  0  0  0  0  0  0  0  0  0  0
    6.2033  -11.9484   24.4742 C   0  0  0  0  0  0  0  0  0  0  0  0
    5.9216  -11.5281   25.8989 C   0  0  0  0  0  0  0  0  0  0  0  0
    6.5207  -12.6431   26.7261 C   0  0  0  0  0  0  0  0  0  0  0  0
    7.7448  -12.9737   25.8860 C   0  0  1  0  0  0  0  0  0  0  0  0
    8.2606  -14.3154   26.2911 C   0  0  0  0  0  0  0  0  0  0  0  0
    7.4914  -15.2879   26.2615 O   0  0  0  0  0  0  0  0  0  0  0  0
   13.0687  -20.1376   23.3914 N   0  0  0  0  0  0  0  0  0  0  0  0
   13.3418  -20.2996   24.7785 C   0  0  0  0  0  0  0  0  0  0  0  0
   13.7693  -21.4186   25.2124 N   0  0  0  0  0  0  0  0  0  0  0  0
   13.1365  -19.2079   25.6868 N   0  0  0  0  0  0  0  0  0  0  0  0
   11.9293  -18.4044   25.5635 C   0  0  0  0  0  0  0  0  0  0  0  0
   11.9682  -17.4175   26.7274 C   0  0  0  0  0  0  0  0  0  0  0  0
   11.4195  -16.0792   26.3360 C   0  0  0  0  0  0  0  0  0  0  0  0
   10.1545  -15.8050   27.0717 C   0  0  2  0  0  0  0  0  0  0  0  0
    9.6039  -14.4968   26.7053 N   0  0  0  0  0  0  0  0  0  0  0  0
   10.2882  -15.9654   28.5038 C   0  0  0  0  0  0  0  0  0  0  0  0
   10.3093  -17.1811   29.1405 O   0  0  0  0  0  0  0  0  0  0  0  0
   10.3880  -14.9187   29.2138 O   0  0  0  0  0  0  0  0  0  0  0  0
  2  1  1  6
  2  3  1  0
  4  2  1  0
  5  4  2  0
  6 10  1  0
  6  4  1  0
  7  6  1  0
  8  7  1  0
  8  9  1  0
  9 10  1  0
 10 11  1  6
 11 12  2  0
 13 14  1  0
 14 15  2  0
 16 17  1  0
 16 14  1  0
 18 17  1  0
 19 18  1  0
 20 21  1  0
 20 19  1  6
 21 11  1  0
 22 20  1  0
 23 22  1  0
 24 22  2  0
M  END
$$$$
