APR.pdb
     RDKit          3D

 24 24  0  0  1  0  0  0  0  0999 V2000
    5.6681  -17.7619   19.9416 C   0  0  0  0  0  0  0  0  0  0  0  0
    7.0241  -17.2879   19.4403 C   0  0  2  0  0  0  0  0  0  0  0  0
    7.8053  -18.3298   18.8592 N   0  0  0  0  0  0  0  0  0  0  0  0
    7.7099  -16.4722   20.4571 C   0  0  0  0  0  0  0  0  0  0  0  0
    8.3974  -17.0888   21.2975 O   0  0  0  0  0  0  0  0  0  0  0  0
    7.6272  -15.0342   20.5269 N   0  0  0  0  0  0  0  0  0  0  0  0
    7.1232  -14.2440   19.4185 C   0  0  0  0  0  0  0  0  0  0  0  0
    7.2601  -12.8016   19.8506 C   0  0  0  0  0  0  0  0  0  0  0  0
    7.2592  -12.8789   21.3608 C   0  0  0  0  0  0  0  0  0  0  0  0
    8.0240  -14.1778   21.5644 C   0  0  1  0  0  0  0  0  0  0  0  0
    7.7880  -14.6641   22.9565 C   0  0  0  0  0  0  0  0  0  0  0  0
    6.6716  -14.4954   23.4698 O   0  0  0  0  0  0  0  0  0  0  0  0
    6.5206  -20.9455   27.8208 N   0  0  0  0  0  0  0  0  0  0  0  0
    7.0275  -20.6461   26.5253 C   0  0  0  0  0  0  0  0  0  0  0  0
    7.3158  -21.5941   25.7244 N   0  0  0  0  0  0  0  0  0  0  0  0
    7.2146  -19.2821   26.1210 N   0  0  0  0  0  0  0  0  0  0  0  0
    6.7652  -18.8696   24.7996 C   0  0  0  0  0  0  0  0  0  0  0  0
    7.0611  -17.3748   24.7097 C   0  0  0  0  0  0  0  0  0  0  0  0
    8.3626  -17.0283   25.3665 C   0  0  0  0  0  0  0  0  0  0  0  0
    8.6947  -15.5963   25.1300 C   0  0  2  0  0  0  0  0  0  0  0  0
    8.8091  -15.3109   23.6968 N   0  0  0  0  0  0  0  0  0  0  0  0
    9.8549  -15.1555   25.8742 C   0  0  0  0  0  0  0  0  0  0  0  0
    9.8567  -14.9280   27.2277 O   0  0  0  0  0  0  0  0  0  0  0  0
   10.9346  -14.9640   25.2361 O   0  0  0  0  0  0  0  0  0  0  0  0
  2  1  1  1
  2  3  1  0
  4  2  1  0
  5  4  2  0
  6 10  1  0
  6  4  1  0
  7  6  1  0
  8  7  1  0
  8  9  1  0
  9 10  1  0
 10 11  1  1
 11 12  2  0
 13 14  1  0
 14 15  2  0
 16 17  1  0
 16 14  1  0
 18 17  1  0
 19 18  1  0
 20 21  1  0
 20 19  1  6
 21 11  1  0
 22 20  1  0
 23 22  1  0
 24 22  2  0
M  END
$$$$
