APR.pdb
     RDKit          3D

 24 24  0  0  1  0  0  0  0  0999 V2000
    6.6001  -13.6493   20.4034 C   0  0  0  0  0  0  0  0  0  0  0  0
    7.5149  -12.6874   21.1468 C   0  0  2  0  0  0  0  0  0  0  0  0
    8.5357  -12.1299   20.3217 N   0  0  0  0  0  0  0  0  0  0  0  0
    7.9748  -13.2693   22.4193 C   0  0  0  0  0  0  0  0  0  0  0  0
    9.0259  -13.9422   22.3785 O   0  0  0  0  0  0  0  0  0  0  0  0
    7.2875  -13.1040   23.6763 N   0  0  0  0  0  0  0  0  0  0  0  0
    6.2447  -12.1096   23.8509 C   0  0  0  0  0  0  0  0  0  0  0  0
    5.8305  -12.2036   25.3019 C   0  0  0  0  0  0  0  0  0  0  0  0
    6.2157  -13.6125   25.6933 C   0  0  0  0  0  0  0  0  0  0  0  0
    7.4973  -13.7741   24.8904 C   0  0  1  0  0  0  0  0  0  0  0  0
    7.8308  -15.2271   24.8004 C   0  0  0  0  0  0  0  0  0  0  0  0
    7.0254  -15.9946   24.2521 O   0  0  0  0  0  0  0  0  0  0  0  0
   10.7834  -15.2246   19.5977 N   0  0  0  0  0  0  0  0  0  0  0  0
   12.0085  -15.2619   20.3205 C   0  0  0  0  0  0  0  0  0  0  0  0
   12.9393  -14.4418   20.0301 N   0  0  0  0  0  0  0  0  0  0  0  0
   12.1970  -16.2194   21.3724 N   0  0  0  0  0  0  0  0  0  0  0  0
   11.0767  -17.0575   21.7732 C   0  0  0  0  0  0  0  0  0  0  0  0
   10.8165  -16.7270   23.2406 C   0  0  0  0  0  0  0  0  0  0  0  0
    9.6767  -17.5270   23.7940 C   0  0  0  0  0  0  0  0  0  0  0  0
    9.4241  -17.1522   25.2126 C   0  0  2  0  0  0  0  0  0  0  0  0
    9.0425  -15.7415   25.3257 N   0  0  0  0  0  0  0  0  0  0  0  0
   10.5201  -17.4990   26.0918 C   0  0  0  0  0  0  0  0  0  0  0  0
   11.2305  -16.5849   26.8290 O   0  0  0  0  0  0  0  0  0  0  0  0
   10.8463  -18.7216   26.1835 O   0  0  0  0  0  0  0  0  0  0  0  0
  2  1  1  6
  2  3  1  0
  4  2  1  0
  5  4  2  0
  6 10  1  0
  6  4  1  0
  7  6  1  0
  8  7  1  0
  8  9  1  0
  9 10  1  0
 10 11  1  6
 11 12  2  0
 13 14  1  0
 14 15  2  0
 16 17  1  0
 16 14  1  0
 18 17  1  0
 19 18  1  0
 20 21  1  0
 20 19  1  6
 21 11  1  0
 22 20  1  0
 23 22  1  0
 24 22  2  0
M  END
$$$$
