LNW.pdb
     RDKit          3D

 31 32  0  0  1  0  0  0  0  0999 V2000
   26.2090  -17.0364  -17.3133 C   0  0  0  0  0  0  0  0  0  0  0  0
   26.8115  -18.0902  -16.4216 C   0  0  1  0  0  0  0  0  0  0  0  0
   27.7326  -17.4253  -15.3835 C   0  0  0  0  0  0  0  0  0  0  0  0
   25.7986  -18.8699  -15.6370 C   0  0  0  0  0  0  0  0  0  0  0  0
   26.3588  -19.9206  -14.7424 C   0  0  2  0  0  0  0  0  0  0  0  0
   27.1136  -20.8785  -15.5385 N   0  0  0  0  0  0  0  0  0  0  0  0
   25.2989  -20.6860  -13.9904 C   0  0  0  0  0  0  0  0  0  0  0  0
   24.6845  -21.6148  -14.5540 O   0  0  0  0  0  0  0  0  0  0  0  0
   26.4566  -22.0060  -10.9203 N   0  0  0  0  0  0  0  0  0  0  0  0
   25.6224  -21.1965  -10.0505 C   0  0  0  0  0  0  0  0  0  0  0  0
   26.2277  -20.6623   -9.1016 O   0  0  0  0  0  0  0  0  0  0  0  0
   24.1902  -21.1071  -10.3970 C   0  0  0  0  0  0  0  0  0  0  0  0
   23.9383  -20.9044  -11.8771 C   0  0  2  0  0  0  0  0  0  0  0  0
   24.9879  -20.3671  -12.6522 N   0  0  0  0  0  0  0  0  0  0  0  0
   22.5775  -20.4334  -12.2022 C   0  0  0  0  0  0  0  0  0  0  0  0
   22.1936  -19.2438  -11.9224 O   0  0  0  0  0  0  0  0  0  0  0  0
   21.5902  -21.2274  -12.8354 N   0  0  0  0  0  0  0  0  0  0  0  0
   20.2853  -20.6968  -13.2407 C   0  0  1  0  0  0  0  0  0  0  0  0
   20.5540  -19.5206  -14.1350 C   0  0  0  0  0  0  0  0  0  0  0  0
   21.2163  -19.8269  -15.4157 C   0  0  0  0  0  0  0  0  0  0  0  0
   21.0306  -21.0241  -16.1143 C   0  0  0  0  0  0  0  0  0  0  0  0
   21.8090  -20.9430  -17.1988 N   0  0  0  0  0  0  0  0  0  0  0  0
   22.4711  -19.7763  -17.2293 C   0  0  0  0  0  0  0  0  0  0  0  0
   23.3579  -19.2513  -18.1422 C   0  0  0  0  0  0  0  0  0  0  0  0
   23.8887  -17.9887  -17.9319 C   0  0  0  0  0  0  0  0  0  0  0  0
   23.5533  -17.2383  -16.8288 C   0  0  0  0  0  0  0  0  0  0  0  0
   22.6588  -17.7894  -15.9257 C   0  0  0  0  0  0  0  0  0  0  0  0
   22.1151  -19.0497  -16.1142 C   0  0  0  0  0  0  0  0  0  0  0  0
   19.5144  -21.7917  -13.8012 C   0  0  0  0  0  0  0  0  0  0  0  0
   20.0569  -22.9329  -14.0420 O   0  0  0  0  0  0  0  0  0  0  0  0
   18.1554  -21.7494  -14.1280 O   0  0  0  0  0  0  0  0  0  0  0  0
  2  1  1  1
  2  3  1  0
  4  2  1  0
  5  4  1  0
  5  6  1  6
  7  8  2  0
  7  5  1  0
 10 12  1  0
 10  9  1  0
 11 10  2  0
 13 12  1  1
 13 14  1  0
 14  7  1  0
 15 13  1  0
 15 17  1  0
 16 15  2  0
 18 17  1  0
 18 29  1  0
 19 20  1  0
 18 19  1  6
 20 28  1  0
 21 22  1  0
 21 20  2  0
 22 23  1  0
 23 28  2  0
 23 24  1  0
 24 25  2  0
 25 26  1  0
 27 26  2  0
 28 27  1  0
 29 30  2  0
 29 31  1  0
M  END
$$$$
