LNW.pdb
     RDKit          3D

 31 32  0  0  1  0  0  0  0  0999 V2000
   28.4400  -20.6194  -20.2096 C   0  0  0  0  0  0  0  0  0  0  0  0
   28.6522  -21.0438  -18.7801 C   0  0  1  0  0  0  0  0  0  0  0  0
   30.0343  -21.7051  -18.6358 C   0  0  0  0  0  0  0  0  0  0  0  0
   28.6335  -19.9065  -17.8024 C   0  0  0  0  0  0  0  0  0  0  0  0
   28.8358  -20.2895  -16.3775 C   0  0  2  0  0  0  0  0  0  0  0  0
   28.3864  -21.6606  -16.1790 N   0  0  0  0  0  0  0  0  0  0  0  0
   28.0732  -19.4147  -15.4142 C   0  0  0  0  0  0  0  0  0  0  0  0
   27.9112  -18.2035  -15.6684 O   0  0  0  0  0  0  0  0  0  0  0  0
   23.6920  -19.1530  -12.9317 N   0  0  0  0  0  0  0  0  0  0  0  0
   23.7629  -19.6465  -14.2952 C   0  0  0  0  0  0  0  0  0  0  0  0
   22.6644  -19.7180  -14.8786 O   0  0  0  0  0  0  0  0  0  0  0  0
   25.1033  -19.9901  -14.8093 C   0  0  0  0  0  0  0  0  0  0  0  0
   26.2023  -19.8434  -13.7769 C   0  0  2  0  0  0  0  0  0  0  0  0
   27.5372  -19.9459  -14.2227 N   0  0  0  0  0  0  0  0  0  0  0  0
   25.8981  -20.4668  -12.4738 C   0  0  0  0  0  0  0  0  0  0  0  0
   24.7133  -20.8495  -12.1724 O   0  0  0  0  0  0  0  0  0  0  0  0
   26.8574  -20.6953  -11.4571 N   0  0  0  0  0  0  0  0  0  0  0  0
   26.4926  -21.1264  -10.1045 C   0  0  1  0  0  0  0  0  0  0  0  0
   27.6198  -20.7175   -9.2001 C   0  0  0  0  0  0  0  0  0  0  0  0
   27.3220  -20.7339   -7.7566 C   0  0  0  0  0  0  0  0  0  0  0  0
   26.2129  -21.3825   -7.2041 C   0  0  0  0  0  0  0  0  0  0  0  0
   26.2687  -21.1523   -5.8879 N   0  0  0  0  0  0  0  0  0  0  0  0
   27.3375  -20.4035   -5.5755 C   0  0  0  0  0  0  0  0  0  0  0  0
   27.8057  -19.9360   -4.3683 C   0  0  0  0  0  0  0  0  0  0  0  0
   28.9691  -19.1842   -4.3306 C   0  0  0  0  0  0  0  0  0  0  0  0
   29.6759  -18.8887   -5.4733 C   0  0  0  0  0  0  0  0  0  0  0  0
   29.1837  -19.3713   -6.6750 C   0  0  0  0  0  0  0  0  0  0  0  0
   28.0225  -20.1246   -6.7380 C   0  0  0  0  0  0  0  0  0  0  0  0
   25.1772  -20.5899   -9.8062 C   0  0  0  0  0  0  0  0  0  0  0  0
   24.2898  -21.2998   -9.2037 O   0  0  0  0  0  0  0  0  0  0  0  0
   24.7328  -19.3002  -10.1143 O   0  0  0  0  0  0  0  0  0  0  0  0
  2  1  1  6
  2  3  1  0
  4  2  1  0
  5  4  1  0
  5  6  1  6
  7  8  2  0
  7  5  1  0
 10 12  1  0
 10  9  1  0
 11 10  2  0
 13 12  1  6
 13 14  1  0
 14  7  1  0
 15 13  1  0
 15 17  1  0
 16 15  2  0
 18 17  1  0
 18 29  1  0
 19 20  1  0
 18 19  1  1
 20 28  1  0
 21 22  1  0
 21 20  2  0
 22 23  1  0
 23 28  2  0
 23 24  1  0
 24 25  2  0
 25 26  1  0
 27 26  2  0
 28 27  1  0
 29 30  2  0
 29 31  1  0
M  END
$$$$
