LNW.pdb
     RDKit          3D

 31 32  0  0  1  0  0  0  0  0999 V2000
   28.2136  -17.4369  -17.2582 C   0  0  0  0  0  0  0  0  0  0  0  0
   28.0274  -18.6308  -16.3591 C   0  0  1  0  0  0  0  0  0  0  0  0
   29.3892  -19.2965  -16.0934 C   0  0  0  0  0  0  0  0  0  0  0  0
   27.4629  -18.2911  -15.0117 C   0  0  0  0  0  0  0  0  0  0  0  0
   27.6256  -19.3433  -13.9704 C   0  0  2  0  0  0  0  0  0  0  0  0
   27.4658  -20.6552  -14.5825 N   0  0  0  0  0  0  0  0  0  0  0  0
   26.6171  -19.2341  -12.8543 C   0  0  0  0  0  0  0  0  0  0  0  0
   26.3235  -18.1139  -12.3885 O   0  0  0  0  0  0  0  0  0  0  0  0
   23.0914  -20.9449  -14.3008 N   0  0  0  0  0  0  0  0  0  0  0  0
   23.2071  -20.0980  -13.1274 C   0  0  0  0  0  0  0  0  0  0  0  0
   22.9820  -18.8904  -13.3352 O   0  0  0  0  0  0  0  0  0  0  0  0
   23.5656  -20.7635  -11.8594 C   0  0  0  0  0  0  0  0  0  0  0  0
   24.9578  -20.4207  -11.3698 C   0  0  2  0  0  0  0  0  0  0  0  0
   25.9967  -20.3844  -12.3240 N   0  0  0  0  0  0  0  0  0  0  0  0
   25.2976  -20.9977  -10.0542 C   0  0  0  0  0  0  0  0  0  0  0  0
   26.0868  -22.0006   -9.9441 O   0  0  0  0  0  0  0  0  0  0  0  0
   24.7981  -20.5147   -8.8199 N   0  0  0  0  0  0  0  0  0  0  0  0
   24.9112  -21.2694   -7.5684 C   0  0  1  0  0  0  0  0  0  0  0  0
   25.2485  -20.2772   -6.4926 C   0  0  0  0  0  0  0  0  0  0  0  0
   26.6102  -19.7154   -6.5425 C   0  0  0  0  0  0  0  0  0  0  0  0
   27.1322  -19.0532   -7.6582 C   0  0  0  0  0  0  0  0  0  0  0  0
   28.3862  -18.7186   -7.3355 N   0  0  0  0  0  0  0  0  0  0  0  0
   28.6878  -19.1253   -6.0928 C   0  0  0  0  0  0  0  0  0  0  0  0
   29.8330  -18.9943   -5.3401 C   0  0  0  0  0  0  0  0  0  0  0  0
   29.8662  -19.5026   -4.0514 C   0  0  0  0  0  0  0  0  0  0  0  0
   28.7799  -20.1395   -3.4975 C   0  0  0  0  0  0  0  0  0  0  0  0
   27.6399  -20.2579   -4.2757 C   0  0  0  0  0  0  0  0  0  0  0  0
   27.5828  -19.7582   -5.5667 C   0  0  0  0  0  0  0  0  0  0  0  0
   23.6913  -22.0381   -7.4007 C   0  0  0  0  0  0  0  0  0  0  0  0
   22.6392  -21.7766   -8.0929 O   0  0  0  0  0  0  0  0  0  0  0  0
   23.5156  -23.1072   -6.5165 O   0  0  0  0  0  0  0  0  0  0  0  0
  2  1  1  6
  2  3  1  0
  4  2  1  0
  5  4  1  0
  5  6  1  6
  7  8  2  0
  7  5  1  0
 10 12  1  0
 10  9  1  0
 11 10  2  0
 13 12  1  6
 13 14  1  0
 14  7  1  0
 15 13  1  0
 15 17  1  0
 16 15  2  0
 18 17  1  0
 18 29  1  0
 19 20  1  0
 18 19  1  1
 20 28  1  0
 21 22  1  0
 21 20  2  0
 22 23  1  0
 23 28  2  0
 23 24  1  0
 24 25  2  0
 25 26  1  0
 27 26  2  0
 28 27  1  0
 29 30  2  0
 29 31  1  0
M  END
$$$$
