LNW.pdb
     RDKit          3D

 31 32  0  0  1  0  0  0  0  0999 V2000
   28.1682  -25.1355  -16.0196 C   0  0  0  0  0  0  0  0  0  0  0  0
   27.5288  -23.7722  -16.0549 C   0  0  1  0  0  0  0  0  0  0  0  0
   27.1692  -23.4062  -17.5058 C   0  0  0  0  0  0  0  0  0  0  0  0
   26.2498  -23.6838  -15.2766 C   0  0  0  0  0  0  0  0  0  0  0  0
   25.6198  -22.3347  -15.2399 C   0  0  2  0  0  0  0  0  0  0  0  0
   26.6221  -21.3452  -14.8692 N   0  0  0  0  0  0  0  0  0  0  0  0
   24.4897  -22.2348  -14.2460 C   0  0  0  0  0  0  0  0  0  0  0  0
   23.5222  -23.0195  -14.3232 O   0  0  0  0  0  0  0  0  0  0  0  0
   25.7683  -22.2263  -11.1609 N   0  0  0  0  0  0  0  0  0  0  0  0
   25.2307  -21.1163  -10.3951 C   0  0  0  0  0  0  0  0  0  0  0  0
   25.9003  -20.8064   -9.3912 O   0  0  0  0  0  0  0  0  0  0  0  0
   23.9846  -20.5039  -10.8964 C   0  0  0  0  0  0  0  0  0  0  0  0
   23.5288  -21.0650  -12.2278 C   0  0  2  0  0  0  0  0  0  0  0  0
   24.5079  -21.2624  -13.2246 N   0  0  0  0  0  0  0  0  0  0  0  0
   22.2220  -20.5540  -12.6864 C   0  0  0  0  0  0  0  0  0  0  0  0
   21.2049  -20.5164  -11.9087 O   0  0  0  0  0  0  0  0  0  0  0  0
   21.9704  -20.0706  -13.9938 N   0  0  0  0  0  0  0  0  0  0  0  0
   20.6461  -19.6204  -14.4320 C   0  0  1  0  0  0  0  0  0  0  0  0
   20.8563  -18.7914  -15.6667 C   0  0  0  0  0  0  0  0  0  0  0  0
   19.6319  -18.3274  -16.3436 C   0  0  0  0  0  0  0  0  0  0  0  0
   18.5271  -17.8014  -15.6665 C   0  0  0  0  0  0  0  0  0  0  0  0
   17.6166  -17.5235  -16.6059 N   0  0  0  0  0  0  0  0  0  0  0  0
   18.0742  -17.8387  -17.8272 C   0  0  0  0  0  0  0  0  0  0  0  0
   17.5071  -17.7182  -19.0759 C   0  0  0  0  0  0  0  0  0  0  0  0
   18.2244  -18.1127  -20.1939 C   0  0  0  0  0  0  0  0  0  0  0  0
   19.4969  -18.6255  -20.0922 C   0  0  0  0  0  0  0  0  0  0  0  0
   20.0448  -18.7360  -18.8245 C   0  0  0  0  0  0  0  0  0  0  0  0
   19.3470  -18.3487  -17.6919 C   0  0  0  0  0  0  0  0  0  0  0  0
   19.7973  -20.7911  -14.5578 C   0  0  0  0  0  0  0  0  0  0  0  0
   18.6342  -20.8321  -14.0099 O   0  0  0  0  0  0  0  0  0  0  0  0
   20.1163  -21.9589  -15.2578 O   0  0  0  0  0  0  0  0  0  0  0  0
  2  1  1  6
  2  3  1  0
  4  2  1  0
  5  4  1  0
  5  6  1  1
  7  8  2  0
  7  5  1  0
 10 12  1  0
 10  9  1  0
 11 10  2  0
 13 12  1  1
 13 14  1  0
 14  7  1  0
 15 13  1  0
 15 17  1  0
 16 15  2  0
 18 17  1  0
 18 29  1  0
 19 20  1  0
 18 19  1  6
 20 28  1  0
 21 22  1  0
 21 20  2  0
 22 23  1  0
 23 28  2  0
 23 24  1  0
 24 25  2  0
 25 26  1  0
 27 26  2  0
 28 27  1  0
 29 30  2  0
 29 31  1  0
M  END
$$$$
