LNW.pdb
     RDKit          3D

 31 32  0  0  1  0  0  0  0  0999 V2000
   26.7530  -15.0427  -17.4500 C   0  0  0  0  0  0  0  0  0  0  0  0
   27.3568  -16.4133  -17.2910 C   0  0  1  0  0  0  0  0  0  0  0  0
   28.7236  -16.2993  -16.5928 C   0  0  0  0  0  0  0  0  0  0  0  0
   26.5363  -17.3413  -16.4454 C   0  0  0  0  0  0  0  0  0  0  0  0
   27.1547  -18.6687  -16.1741 C   0  0  2  0  0  0  0  0  0  0  0  0
   27.3291  -19.3844  -17.4306 N   0  0  0  0  0  0  0  0  0  0  0  0
   26.3208  -19.5370  -15.2656 C   0  0  0  0  0  0  0  0  0  0  0  0
   25.4302  -20.2666  -15.7477 O   0  0  0  0  0  0  0  0  0  0  0  0
   25.7225  -21.1434   -9.2469 N   0  0  0  0  0  0  0  0  0  0  0  0
   25.5012  -21.2934  -10.6738 C   0  0  0  0  0  0  0  0  0  0  0  0
   24.5815  -22.0775  -10.9764 O   0  0  0  0  0  0  0  0  0  0  0  0
   26.3748  -20.5089  -11.5685 C   0  0  0  0  0  0  0  0  0  0  0  0
   25.7287  -20.1655  -12.8952 C   0  0  2  0  0  0  0  0  0  0  0  0
   26.5315  -19.5376  -13.8711 N   0  0  0  0  0  0  0  0  0  0  0  0
   24.3365  -19.6868  -12.7863 C   0  0  0  0  0  0  0  0  0  0  0  0
   24.0539  -18.5597  -12.2472 O   0  0  0  0  0  0  0  0  0  0  0  0
   23.2085  -20.4059  -13.2519 N   0  0  0  0  0  0  0  0  0  0  0  0
   21.8336  -19.9348  -13.0619 C   0  0  1  0  0  0  0  0  0  0  0  0
   21.7959  -18.5073  -13.5271 C   0  0  0  0  0  0  0  0  0  0  0  0
   20.4698  -17.8639  -13.5157 C   0  0  0  0  0  0  0  0  0  0  0  0
   19.7964  -17.5033  -12.3443 C   0  0  0  0  0  0  0  0  0  0  0  0
   18.6294  -16.9802  -12.7357 N   0  0  0  0  0  0  0  0  0  0  0  0
   18.5238  -16.9874  -14.0734 C   0  0  0  0  0  0  0  0  0  0  0  0
   17.5276  -16.5457  -14.9147 C   0  0  0  0  0  0  0  0  0  0  0  0
   17.6897  -16.6606  -16.2861 C   0  0  0  0  0  0  0  0  0  0  0  0
   18.8258  -17.2076  -16.8362 C   0  0  0  0  0  0  0  0  0  0  0  0
   19.8132  -17.6440  -15.9679 C   0  0  0  0  0  0  0  0  0  0  0  0
   19.6738  -17.5400  -14.5933 C   0  0  0  0  0  0  0  0  0  0  0  0
   20.9465  -20.8712  -13.7277 C   0  0  0  0  0  0  0  0  0  0  0  0
   19.6959  -20.9285  -13.4323 O   0  0  0  0  0  0  0  0  0  0  0  0
   21.3174  -21.7779  -14.7257 O   0  0  0  0  0  0  0  0  0  0  0  0
  2  1  1  1
  2  3  1  0
  4  2  1  0
  5  4  1  0
  5  6  1  6
  7  8  2  0
  7  5  1  0
 10 12  1  0
 10  9  1  0
 11 10  2  0
 13 12  1  1
 13 14  1  0
 14  7  1  0
 15 13  1  0
 15 17  1  0
 16 15  2  0
 18 17  1  0
 18 29  1  0
 19 20  1  0
 18 19  1  6
 20 28  1  0
 21 22  1  0
 21 20  2  0
 22 23  1  0
 23 28  2  0
 23 24  1  0
 24 25  2  0
 25 26  1  0
 27 26  2  0
 28 27  1  0
 29 30  2  0
 29 31  1  0
M  END
$$$$
