LNW.pdb
     RDKit          3D

 31 32  0  0  1  0  0  0  0  0999 V2000
   28.1665  -15.4131  -17.9959 C   0  0  0  0  0  0  0  0  0  0  0  0
   28.3734  -16.7008  -17.2427 C   0  0  1  0  0  0  0  0  0  0  0  0
   29.8664  -16.8726  -16.9111 C   0  0  0  0  0  0  0  0  0  0  0  0
   27.6489  -16.7572  -15.9306 C   0  0  0  0  0  0  0  0  0  0  0  0
   27.9548  -17.9450  -15.0859 C   0  0  2  0  0  0  0  0  0  0  0  0
   28.0420  -19.1276  -15.9315 N   0  0  0  0  0  0  0  0  0  0  0  0
   26.9063  -18.2111  -14.0348 C   0  0  0  0  0  0  0  0  0  0  0  0
   26.5520  -17.2958  -13.2639 O   0  0  0  0  0  0  0  0  0  0  0  0
   23.3420  -20.3555  -16.0829 N   0  0  0  0  0  0  0  0  0  0  0  0
   23.4788  -19.6705  -14.8102 C   0  0  0  0  0  0  0  0  0  0  0  0
   23.1129  -18.4797  -14.8203 O   0  0  0  0  0  0  0  0  0  0  0  0
   24.0199  -20.4587  -13.6853 C   0  0  0  0  0  0  0  0  0  0  0  0
   25.2514  -19.8428  -13.0532 C   0  0  2  0  0  0  0  0  0  0  0  0
   26.3164  -19.4858  -13.9073 N   0  0  0  0  0  0  0  0  0  0  0  0
   25.6252  -20.4322  -11.7524 C   0  0  0  0  0  0  0  0  0  0  0  0
   26.7598  -20.9989  -11.5729 O   0  0  0  0  0  0  0  0  0  0  0  0
   24.7901  -20.4311  -10.6084 N   0  0  0  0  0  0  0  0  0  0  0  0
   25.1750  -21.0660   -9.3446 C   0  0  1  0  0  0  0  0  0  0  0  0
   26.4518  -20.4109   -8.9012 C   0  0  0  0  0  0  0  0  0  0  0  0
   26.9200  -20.7679   -7.5500 C   0  0  0  0  0  0  0  0  0  0  0  0
   26.5647  -21.9526   -6.8973 C   0  0  0  0  0  0  0  0  0  0  0  0
   27.1545  -21.9044   -5.6980 N   0  0  0  0  0  0  0  0  0  0  0  0
   27.8565  -20.7701   -5.5526 C   0  0  0  0  0  0  0  0  0  0  0  0
   28.6264  -20.2976   -4.5138 C   0  0  0  0  0  0  0  0  0  0  0  0
   29.2694  -19.0765   -4.6394 C   0  0  0  0  0  0  0  0  0  0  0  0
   29.1600  -18.3162   -5.7806 C   0  0  0  0  0  0  0  0  0  0  0  0
   28.3796  -18.8144   -6.8112 C   0  0  0  0  0  0  0  0  0  0  0  0
   27.7269  -20.0323   -6.7089 C   0  0  0  0  0  0  0  0  0  0  0  0
   24.0412  -20.9838   -8.4420 C   0  0  0  0  0  0  0  0  0  0  0  0
   24.1058  -21.4563   -7.2473 O   0  0  0  0  0  0  0  0  0  0  0  0
   22.8025  -20.4066   -8.7383 O   0  0  0  0  0  0  0  0  0  0  0  0
  2  1  1  1
  2  3  1  0
  4  2  1  0
  5  4  1  0
  5  6  1  6
  7  8  2  0
  7  5  1  0
 10 12  1  0
 10  9  1  0
 11 10  2  0
 13 12  1  6
 13 14  1  0
 14  7  1  0
 15 13  1  0
 15 17  1  0
 16 15  2  0
 18 17  1  0
 18 29  1  0
 19 20  1  0
 18 19  1  1
 20 28  1  0
 21 22  1  0
 21 20  2  0
 22 23  1  0
 23 28  2  0
 23 24  1  0
 24 25  2  0
 25 26  1  0
 27 26  2  0
 28 27  1  0
 29 30  2  0
 29 31  1  0
M  END
$$$$
