WNI.pdb
     RDKit          3D

 31 32  0  0  1  0  0  0  0  0999 V2000
   25.1872  -16.5428  -17.8883 N   0  0  0  0  0  0  0  0  0  0  0  0
   25.4113  -16.5747  -16.4683 C   0  0  1  0  0  0  0  0  0  0  0  0
   24.4005  -15.7432  -15.7462 C   0  0  0  0  0  0  0  0  0  0  0  0
   24.5691  -14.3339  -16.1952 C   0  0  0  0  0  0  0  0  0  0  0  0
   23.6444  -13.4849  -16.7750 C   0  0  0  0  0  0  0  0  0  0  0  0
   24.2231  -12.2937  -17.0238 N   0  0  0  0  0  0  0  0  0  0  0  0
   25.5057  -12.3084  -16.6325 C   0  0  0  0  0  0  0  0  0  0  0  0
   26.4799  -11.3283  -16.6872 C   0  0  0  0  0  0  0  0  0  0  0  0
   27.7330  -11.6552  -16.1938 C   0  0  0  0  0  0  0  0  0  0  0  0
   27.9763  -12.9146  -15.6735 C   0  0  0  0  0  0  0  0  0  0  0  0
   26.9827  -13.8736  -15.6322 C   0  0  0  0  0  0  0  0  0  0  0  0
   25.7383  -13.5682  -16.1152 C   0  0  0  0  0  0  0  0  0  0  0  0
   25.4687  -17.9810  -15.9899 C   0  0  0  0  0  0  0  0  0  0  0  0
   24.7252  -18.8654  -16.4947 O   0  0  0  0  0  0  0  0  0  0  0  0
   27.1844  -22.5313  -14.3309 N   0  0  0  0  0  0  0  0  0  0  0  0
   28.0157  -21.7450  -15.1735 C   0  0  0  0  0  0  0  0  0  0  0  0
   29.0115  -22.3129  -15.6820 O   0  0  0  0  0  0  0  0  0  0  0  0
   27.7713  -20.3236  -15.4741 C   0  0  0  0  0  0  0  0  0  0  0  0
   26.6134  -19.8217  -14.6789 C   0  0  2  0  0  0  0  0  0  0  0  0
   26.3426  -18.4082  -14.9591 N   0  0  0  0  0  0  0  0  0  0  0  0
   26.9058  -20.0078  -13.2328 C   0  0  0  0  0  0  0  0  0  0  0  0
   27.9402  -19.5752  -12.6656 O   0  0  0  0  0  0  0  0  0  0  0  0
   27.1370  -19.5307   -8.1579 C   0  0  0  0  0  0  0  0  0  0  0  0
   26.0108  -20.4599   -8.5958 C   0  0  0  0  0  0  0  0  0  0  0  0
   25.5728  -20.1586  -10.0073 C   0  0  2  0  0  0  0  0  0  0  0  0
   24.0801  -20.2591  -10.1034 C   0  0  0  0  0  0  0  0  0  0  0  0
   26.3416  -20.9729  -10.9717 C   0  0  2  0  0  0  0  0  0  0  0  0
   26.0221  -20.7035  -12.3580 N   0  0  0  0  0  0  0  0  0  0  0  0
   26.1048  -22.4092  -10.7499 C   0  0  0  0  0  0  0  0  0  0  0  0
   25.6381  -23.2505  -11.7754 O   0  0  0  0  0  0  0  0  0  0  0  0
   26.2982  -22.9717   -9.6546 O   0  0  0  0  0  0  0  0  0  0  0  0
  2  1  1  6
  2  3  1  0
  3  4  1  0
  4  5  2  0
  5  6  1  0
  7  6  1  0
  8  7  2  0
  9  8  1  0
 10 11  1  0
 10  9  2  0
 11 12  2  0
 12  4  1  0
 12  7  1  0
 13 14  2  0
 13  2  1  0
 15 16  1  0
 16 17  2  0
 18 16  1  0
 19 18  1  6
 19 20  1  0
 20 13  1  0
 21 28  1  0
 21 19  1  0
 22 21  2  0
 23 24  1  0
 24 25  1  0
 25 26  1  1
 25 27  1  0
 27 28  1  6
 27 29  1  0
 29 30  1  0
 31 29  2  0
M  END
$$$$
