WNI.pdb
     RDKit          3D

 31 32  0  0  1  0  0  0  0  0999 V2000
   26.9363  -21.3667  -15.6112 N   0  0  0  0  0  0  0  0  0  0  0  0
   26.2584  -21.4768  -14.3478 C   0  0  1  0  0  0  0  0  0  0  0  0
   26.2976  -20.1815  -13.6027 C   0  0  0  0  0  0  0  0  0  0  0  0
   27.7064  -19.9405  -13.1868 C   0  0  0  0  0  0  0  0  0  0  0  0
   28.6915  -19.2064  -13.8214 C   0  0  0  0  0  0  0  0  0  0  0  0
   29.8249  -19.2533  -13.0941 N   0  0  0  0  0  0  0  0  0  0  0  0
   29.6399  -19.9931  -11.9910 C   0  0  0  0  0  0  0  0  0  0  0  0
   30.5064  -20.3174  -10.9631 C   0  0  0  0  0  0  0  0  0  0  0  0
   30.0081  -21.1150   -9.9451 C   0  0  0  0  0  0  0  0  0  0  0  0
   28.6965  -21.5563   -9.9767 C   0  0  0  0  0  0  0  0  0  0  0  0
   27.8541  -21.2157  -11.0174 C   0  0  0  0  0  0  0  0  0  0  0  0
   28.3294  -20.4283  -12.0319 C   0  0  0  0  0  0  0  0  0  0  0  0
   24.8818  -22.0005  -14.5487 C   0  0  0  0  0  0  0  0  0  0  0  0
   24.0436  -21.3634  -15.2424 O   0  0  0  0  0  0  0  0  0  0  0  0
   20.6237  -24.9004  -14.7944 N   0  0  0  0  0  0  0  0  0  0  0  0
   21.6165  -25.6669  -14.1264 C   0  0  0  0  0  0  0  0  0  0  0  0
   21.3217  -26.8502  -13.8339 O   0  0  0  0  0  0  0  0  0  0  0  0
   22.9490  -25.1513  -13.7668 C   0  0  0  0  0  0  0  0  0  0  0  0
   23.0586  -23.7098  -14.1342 C   0  0  2  0  0  0  0  0  0  0  0  0
   24.4332  -23.2216  -13.9861 N   0  0  0  0  0  0  0  0  0  0  0  0
   22.1416  -22.9213  -13.2690 C   0  0  0  0  0  0  0  0  0  0  0  0
   22.1032  -23.0183  -12.0167 O   0  0  0  0  0  0  0  0  0  0  0  0
   20.0855  -17.3919  -12.2950 C   0  0  0  0  0  0  0  0  0  0  0  0
   19.7522  -18.8777  -12.2250 C   0  0  0  0  0  0  0  0  0  0  0  0
   20.6621  -19.6835  -13.1183 C   0  0  2  0  0  0  0  0  0  0  0  0
   20.5937  -19.1511  -14.5180 C   0  0  0  0  0  0  0  0  0  0  0  0
   20.3947  -21.1283  -12.9597 C   0  0  2  0  0  0  0  0  0  0  0  0
   21.2162  -21.9759  -13.7982 N   0  0  0  0  0  0  0  0  0  0  0  0
   18.9919  -21.4395  -13.2816 C   0  0  0  0  0  0  0  0  0  0  0  0
   18.6454  -22.2565  -14.3723 O   0  0  0  0  0  0  0  0  0  0  0  0
   18.0278  -21.0073  -12.6203 O   0  0  0  0  0  0  0  0  0  0  0  0
  2  1  1  6
  2  3  1  0
  3  4  1  0
  4  5  2  0
  5  6  1  0
  7  6  1  0
  8  7  2  0
  9  8  1  0
 10 11  1  0
 10  9  2  0
 11 12  2  0
 12  4  1  0
 12  7  1  0
 13 14  2  0
 13  2  1  0
 15 16  1  0
 16 17  2  0
 18 16  1  0
 19 18  1  1
 19 20  1  0
 20 13  1  0
 21 28  1  0
 21 19  1  0
 22 21  2  0
 23 24  1  0
 24 25  1  0
 25 26  1  6
 25 27  1  0
 27 28  1  6
 27 29  1  0
 29 30  1  0
 31 29  2  0
M  END
$$$$
