WNI.pdb
     RDKit          3D

 31 32  0  0  1  0  0  0  0  0999 V2000
   28.9432  -21.4481  -12.5372 N   0  0  0  0  0  0  0  0  0  0  0  0
   27.6464  -21.2909  -11.9358 C   0  0  1  0  0  0  0  0  0  0  0  0
   27.5430  -19.9850  -11.2159 C   0  0  0  0  0  0  0  0  0  0  0  0
   26.9565  -20.2526   -9.8740 C   0  0  0  0  0  0  0  0  0  0  0  0
   25.6842  -20.6837   -9.5466 C   0  0  0  0  0  0  0  0  0  0  0  0
   25.5786  -20.7946   -8.2078 N   0  0  0  0  0  0  0  0  0  0  0  0
   26.7346  -20.4536   -7.6198 C   0  0  0  0  0  0  0  0  0  0  0  0
   27.0937  -20.4139   -6.2849 C   0  0  0  0  0  0  0  0  0  0  0  0
   28.3869  -20.0116   -5.9905 C   0  0  0  0  0  0  0  0  0  0  0  0
   29.2640  -19.6691   -7.0051 C   0  0  0  0  0  0  0  0  0  0  0  0
   28.8764  -19.7187   -8.3302 C   0  0  0  0  0  0  0  0  0  0  0  0
   27.6024  -20.1139   -8.6397 C   0  0  0  0  0  0  0  0  0  0  0  0
   26.5818  -21.4892  -12.9541 C   0  0  0  0  0  0  0  0  0  0  0  0
   26.5422  -20.7769  -13.9937 O   0  0  0  0  0  0  0  0  0  0  0  0
   22.8875  -23.4528  -15.9710 N   0  0  0  0  0  0  0  0  0  0  0  0
   23.1817  -24.3994  -14.9529 C   0  0  0  0  0  0  0  0  0  0  0  0
   22.6794  -25.5420  -15.0748 O   0  0  0  0  0  0  0  0  0  0  0  0
   24.0309  -24.1118  -13.7837 C   0  0  0  0  0  0  0  0  0  0  0  0
   24.5651  -22.7216  -13.8661 C   0  0  2  0  0  0  0  0  0  0  0  0
   25.5659  -22.4690  -12.8248 N   0  0  0  0  0  0  0  0  0  0  0  0
   23.4361  -21.7633  -13.7312 C   0  0  0  0  0  0  0  0  0  0  0  0
   22.9714  -21.3782  -12.6290 O   0  0  0  0  0  0  0  0  0  0  0  0
   23.2812  -17.1603  -16.4192 C   0  0  0  0  0  0  0  0  0  0  0  0
   23.0678  -18.2480  -15.3728 C   0  0  0  0  0  0  0  0  0  0  0  0
   21.8499  -19.0792  -15.6905 C   0  0  2  0  0  0  0  0  0  0  0  0
   20.6505  -18.1882  -15.8127 C   0  0  0  0  0  0  0  0  0  0  0  0
   21.7291  -20.2035  -14.7389 C   0  0  2  0  0  0  0  0  0  0  0  0
   22.7781  -21.1941  -14.8596 N   0  0  0  0  0  0  0  0  0  0  0  0
   20.4505  -20.9103  -14.9234 C   0  0  0  0  0  0  0  0  0  0  0  0
   20.3622  -22.1006  -15.6667 O   0  0  0  0  0  0  0  0  0  0  0  0
   19.3732  -20.5095  -14.4413 O   0  0  0  0  0  0  0  0  0  0  0  0
  2  1  1  6
  2  3  1  0
  3  4  1  0
  4  5  2  0
  5  6  1  0
  7  6  1  0
  8  7  2  0
  9  8  1  0
 10 11  1  0
 10  9  2  0
 11 12  2  0
 12  4  1  0
 12  7  1  0
 13 14  2  0
 13  2  1  0
 15 16  1  0
 16 17  2  0
 18 16  1  0
 19 18  1  1
 19 20  1  0
 20 13  1  0
 21 28  1  0
 21 19  1  0
 22 21  2  0
 23 24  1  0
 24 25  1  0
 25 26  1  1
 25 27  1  0
 27 28  1  6
 27 29  1  0
 29 30  1  0
 31 29  2  0
M  END
$$$$
