WNI.pdb
     RDKit          3D

 31 32  0  0  1  0  0  0  0  0999 V2000
   27.3349  -22.3487  -14.8349 N   0  0  0  0  0  0  0  0  0  0  0  0
   26.3158  -21.8702  -13.9403 C   0  0  1  0  0  0  0  0  0  0  0  0
   26.5570  -20.4434  -13.5654 C   0  0  0  0  0  0  0  0  0  0  0  0
   27.7393  -20.4061  -12.6617 C   0  0  0  0  0  0  0  0  0  0  0  0
   29.0682  -20.1803  -12.9702 C   0  0  0  0  0  0  0  0  0  0  0  0
   29.8059  -20.2357  -11.8439 N   0  0  0  0  0  0  0  0  0  0  0  0
   29.0222  -20.4908  -10.7860 C   0  0  0  0  0  0  0  0  0  0  0  0
   29.3300  -20.6350   -9.4455 C   0  0  0  0  0  0  0  0  0  0  0  0
   28.2795  -20.8997   -8.5812 C   0  0  0  0  0  0  0  0  0  0  0  0
   26.9860  -21.0109   -9.0614 C   0  0  0  0  0  0  0  0  0  0  0  0
   26.7091  -20.8618  -10.4067 C   0  0  0  0  0  0  0  0  0  0  0  0
   27.7348  -20.5998  -11.2752 C   0  0  0  0  0  0  0  0  0  0  0  0
   24.9693  -22.1076  -14.5234 C   0  0  0  0  0  0  0  0  0  0  0  0
   24.6708  -21.6577  -15.6629 O   0  0  0  0  0  0  0  0  0  0  0  0
   23.8375  -25.4149  -15.2634 N   0  0  0  0  0  0  0  0  0  0  0  0
   22.7177  -25.4817  -14.3910 C   0  0  0  0  0  0  0  0  0  0  0  0
   22.3342  -26.6238  -14.0427 O   0  0  0  0  0  0  0  0  0  0  0  0
   21.9985  -24.2997  -13.8849 C   0  0  0  0  0  0  0  0  0  0  0  0
   22.6213  -23.0527  -14.4161 C   0  0  2  0  0  0  0  0  0  0  0  0
   23.9574  -22.8379  -13.8516 N   0  0  0  0  0  0  0  0  0  0  0  0
   21.7401  -21.8993  -14.0934 C   0  0  0  0  0  0  0  0  0  0  0  0
   21.5867  -21.4369  -12.9350 O   0  0  0  0  0  0  0  0  0  0  0  0
   22.1523  -17.3184  -16.4600 C   0  0  0  0  0  0  0  0  0  0  0  0
   21.8083  -18.4073  -15.4504 C   0  0  0  0  0  0  0  0  0  0  0  0
   20.3927  -18.8945  -15.6346 C   0  0  2  0  0  0  0  0  0  0  0  0
   19.4405  -17.7486  -15.4687 C   0  0  0  0  0  0  0  0  0  0  0  0
   20.1389  -20.0775  -14.7859 C   0  0  2  0  0  0  0  0  0  0  0  0
   20.9851  -21.2129  -15.0879 N   0  0  0  0  0  0  0  0  0  0  0  0
   18.7458  -20.5334  -14.9266 C   0  0  0  0  0  0  0  0  0  0  0  0
   18.3842  -21.5411  -15.8381 O   0  0  0  0  0  0  0  0  0  0  0  0
   17.8036  -20.0654  -14.2581 O   0  0  0  0  0  0  0  0  0  0  0  0
  2  1  1  6
  2  3  1  0
  3  4  1  0
  4  5  2  0
  5  6  1  0
  7  6  1  0
  8  7  2  0
  9  8  1  0
 10 11  1  0
 10  9  2  0
 11 12  2  0
 12  4  1  0
 12  7  1  0
 13 14  2  0
 13  2  1  0
 15 16  1  0
 16 17  2  0
 18 16  1  0
 19 18  1  1
 19 20  1  0
 20 13  1  0
 21 28  1  0
 21 19  1  0
 22 21  2  0
 23 24  1  0
 24 25  1  0
 25 26  1  1
 25 27  1  0
 27 28  1  6
 27 29  1  0
 29 30  1  0
 31 29  2  0
M  END
$$$$
