WNI.pdb
     RDKit          3D

 31 32  0  0  1  0  0  0  0  0999 V2000
   27.7155  -22.2564  -14.0393 N   0  0  0  0  0  0  0  0  0  0  0  0
   26.6992  -21.5006  -13.3583 C   0  0  1  0  0  0  0  0  0  0  0  0
   27.2268  -20.1772  -12.9057 C   0  0  0  0  0  0  0  0  0  0  0  0
   28.0173  -20.4049  -11.6651 C   0  0  0  0  0  0  0  0  0  0  0  0
   29.3815  -20.5753  -11.5171 C   0  0  0  0  0  0  0  0  0  0  0  0
   29.6726  -20.7543  -10.2137 N   0  0  0  0  0  0  0  0  0  0  0  0
   28.5533  -20.7109   -9.4764 C   0  0  0  0  0  0  0  0  0  0  0  0
   28.3619  -20.8422   -8.1131 C   0  0  0  0  0  0  0  0  0  0  0  0
   27.0605  -20.7479   -7.6460 C   0  0  0  0  0  0  0  0  0  0  0  0
   26.0130  -20.5313   -8.5246 C   0  0  0  0  0  0  0  0  0  0  0  0
   26.2353  -20.4042   -9.8823 C   0  0  0  0  0  0  0  0  0  0  0  0
   27.5148  -20.4946  -10.3615 C   0  0  0  0  0  0  0  0  0  0  0  0
   25.4848  -21.3921  -14.2087 C   0  0  0  0  0  0  0  0  0  0  0  0
   25.5778  -21.3586  -15.4656 O   0  0  0  0  0  0  0  0  0  0  0  0
   24.0638  -23.5302  -13.4280 N   0  0  0  0  0  0  0  0  0  0  0  0
   23.2945  -23.6042  -14.6205 C   0  0  0  0  0  0  0  0  0  0  0  0
   23.0802  -24.7471  -15.0902 O   0  0  0  0  0  0  0  0  0  0  0  0
   22.7465  -22.4287  -15.3193 C   0  0  0  0  0  0  0  0  0  0  0  0
   22.9772  -21.1965  -14.5110 C   0  0  2  0  0  0  0  0  0  0  0  0
   24.1744  -21.3207  -13.6736 N   0  0  0  0  0  0  0  0  0  0  0  0
   21.7833  -20.9484  -13.6600 C   0  0  0  0  0  0  0  0  0  0  0  0
   21.7962  -20.9929  -12.4043 O   0  0  0  0  0  0  0  0  0  0  0  0
   19.8658  -15.8673  -13.0246 C   0  0  0  0  0  0  0  0  0  0  0  0
   19.2798  -17.2745  -13.0196 C   0  0  0  0  0  0  0  0  0  0  0  0
   20.2033  -18.2524  -13.7022 C   0  0  2  0  0  0  0  0  0  0  0  0
   20.5605  -17.7400  -15.0651 C   0  0  0  0  0  0  0  0  0  0  0  0
   19.6405  -19.6179  -13.6492 C   0  0  2  0  0  0  0  0  0  0  0  0
   20.5060  -20.6350  -14.2083 N   0  0  0  0  0  0  0  0  0  0  0  0
   18.3673  -19.6883  -14.3856 C   0  0  0  0  0  0  0  0  0  0  0  0
   17.1494  -19.3010  -13.7992 O   0  0  0  0  0  0  0  0  0  0  0  0
   18.2808  -20.0899  -15.5624 O   0  0  0  0  0  0  0  0  0  0  0  0
  2  1  1  6
  2  3  1  0
  3  4  1  0
  4  5  2  0
  5  6  1  0
  7  6  1  0
  8  7  2  0
  9  8  1  0
 10 11  1  0
 10  9  2  0
 11 12  2  0
 12  4  1  0
 12  7  1  0
 13 14  2  0
 13  2  1  0
 15 16  1  0
 16 17  2  0
 18 16  1  0
 19 18  1  1
 19 20  1  0
 20 13  1  0
 21 28  1  0
 21 19  1  0
 22 21  2  0
 23 24  1  0
 24 25  1  0
 25 26  1  6
 25 27  1  0
 27 28  1  6
 27 29  1  0
 29 30  1  0
 31 29  2  0
M  END
$$$$
