WNI.pdb
     RDKit          3D

 31 32  0  0  1  0  0  0  0  0999 V2000
   28.4016  -22.6665  -16.2179 N   0  0  0  0  0  0  0  0  0  0  0  0
   28.4293  -21.3716  -15.5932 C   0  0  1  0  0  0  0  0  0  0  0  0
   29.8192  -20.8229  -15.5558 C   0  0  0  0  0  0  0  0  0  0  0  0
   30.6221  -21.6842  -14.6451 C   0  0  0  0  0  0  0  0  0  0  0  0
   31.2865  -22.8654  -14.9196 C   0  0  0  0  0  0  0  0  0  0  0  0
   31.8879  -23.3126  -13.7997 N   0  0  0  0  0  0  0  0  0  0  0  0
   31.6531  -22.4752  -12.7789 C   0  0  0  0  0  0  0  0  0  0  0  0
   32.0602  -22.5219  -11.4581 C   0  0  0  0  0  0  0  0  0  0  0  0
   31.6462  -21.4884  -10.6328 C   0  0  0  0  0  0  0  0  0  0  0  0
   30.8595  -20.4641  -11.1307 C   0  0  0  0  0  0  0  0  0  0  0  0
   30.4683  -20.4446  -12.4556 C   0  0  0  0  0  0  0  0  0  0  0  0
   30.8681  -21.4576  -13.2857 C   0  0  0  0  0  0  0  0  0  0  0  0
   27.4540  -20.4637  -16.2521 C   0  0  0  0  0  0  0  0  0  0  0  0
   27.5917  -20.1371  -17.4621 O   0  0  0  0  0  0  0  0  0  0  0  0
   24.1740  -19.2197  -18.5806 N   0  0  0  0  0  0  0  0  0  0  0  0
   24.8777  -20.4377  -18.3793 C   0  0  0  0  0  0  0  0  0  0  0  0
   25.5157  -20.8953  -19.3572 O   0  0  0  0  0  0  0  0  0  0  0  0
   24.8952  -21.1757  -17.1043 C   0  0  0  0  0  0  0  0  0  0  0  0
   24.9494  -20.2217  -15.9590 C   0  0  2  0  0  0  0  0  0  0  0  0
   26.3325  -19.9190  -15.5780 N   0  0  0  0  0  0  0  0  0  0  0  0
   24.2206  -20.8126  -14.8053 C   0  0  0  0  0  0  0  0  0  0  0  0
   23.1148  -21.4016  -14.9021 O   0  0  0  0  0  0  0  0  0  0  0  0
   25.9106  -20.2285   -9.2166 C   0  0  0  0  0  0  0  0  0  0  0  0
   25.1112  -20.0865  -10.5066 C   0  0  0  0  0  0  0  0  0  0  0  0
   24.8151  -21.4341  -11.1160 C   0  0  2  0  0  0  0  0  0  0  0  0
   26.0899  -22.2075  -11.2710 C   0  0  0  0  0  0  0  0  0  0  0  0
   23.9966  -21.2806  -12.3369 C   0  0  2  0  0  0  0  0  0  0  0  0
   24.7251  -20.7582  -13.4739 N   0  0  0  0  0  0  0  0  0  0  0  0
   22.8660  -20.3678  -12.0978 C   0  0  0  0  0  0  0  0  0  0  0  0
   21.7607  -20.7460  -11.3154 O   0  0  0  0  0  0  0  0  0  0  0  0
   22.8101  -19.2135  -12.5649 O   0  0  0  0  0  0  0  0  0  0  0  0
  2  1  1  6
  2  3  1  0
  3  4  1  0
  4  5  2  0
  5  6  1  0
  7  6  1  0
  8  7  2  0
  9  8  1  0
 10 11  1  0
 10  9  2  0
 11 12  2  0
 12  4  1  0
 12  7  1  0
 13 14  2  0
 13  2  1  0
 15 16  1  0
 16 17  2  0
 18 16  1  0
 19 18  1  6
 19 20  1  0
 20 13  1  0
 21 28  1  0
 21 19  1  0
 22 21  2  0
 23 24  1  0
 24 25  1  0
 25 26  1  6
 25 27  1  0
 27 28  1  6
 27 29  1  0
 29 30  1  0
 31 29  2  0
M  END
$$$$
