WNI.pdb
     RDKit          3D

 31 32  0  0  1  0  0  0  0  0999 V2000
   26.8036  -19.6846  -17.1055 N   0  0  0  0  0  0  0  0  0  0  0  0
   26.5228  -20.2033  -15.7940 C   0  0  1  0  0  0  0  0  0  0  0  0
   26.5595  -19.1171  -14.7677 C   0  0  0  0  0  0  0  0  0  0  0  0
   27.6838  -19.4106  -13.8373 C   0  0  0  0  0  0  0  0  0  0  0  0
   29.0225  -19.0844  -13.9540 C   0  0  0  0  0  0  0  0  0  0  0  0
   29.6922  -19.5468  -12.8799 N   0  0  0  0  0  0  0  0  0  0  0  0
   28.8531  -20.1735  -12.0424 C   0  0  0  0  0  0  0  0  0  0  0  0
   29.0833  -20.7980  -10.8301 C   0  0  0  0  0  0  0  0  0  0  0  0
   27.9899  -21.3635  -10.1934 C   0  0  0  0  0  0  0  0  0  0  0  0
   26.7310  -21.2940  -10.7647 C   0  0  0  0  0  0  0  0  0  0  0  0
   26.5319  -20.6631  -11.9776 C   0  0  0  0  0  0  0  0  0  0  0  0
   27.6008  -20.0988  -12.6210 C   0  0  0  0  0  0  0  0  0  0  0  0
   25.2442  -20.9613  -15.8055 C   0  0  0  0  0  0  0  0  0  0  0  0
   24.2465  -20.5344  -16.4475 O   0  0  0  0  0  0  0  0  0  0  0  0
   25.9424  -25.5557  -16.0545 N   0  0  0  0  0  0  0  0  0  0  0  0
   24.6929  -24.8818  -16.1157 C   0  0  0  0  0  0  0  0  0  0  0  0
   24.1839  -24.7271  -17.2513 O   0  0  0  0  0  0  0  0  0  0  0  0
   23.9789  -24.3655  -14.9349 C   0  0  0  0  0  0  0  0  0  0  0  0
   23.7850  -22.8914  -15.0554 C   0  0  2  0  0  0  0  0  0  0  0  0
   25.0682  -22.1844  -15.1114 N   0  0  0  0  0  0  0  0  0  0  0  0
   22.9902  -22.4138  -13.8929 C   0  0  0  0  0  0  0  0  0  0  0  0
   23.4521  -22.2917  -12.7307 O   0  0  0  0  0  0  0  0  0  0  0  0
   20.2763  -17.9060  -11.6394 C   0  0  0  0  0  0  0  0  0  0  0  0
   20.1354  -19.4201  -11.7447 C   0  0  0  0  0  0  0  0  0  0  0  0
   20.9786  -19.9696  -12.8681 C   0  0  2  0  0  0  0  0  0  0  0  0
   20.6575  -19.2438  -14.1399 C   0  0  0  0  0  0  0  0  0  0  0  0
   20.8760  -21.4431  -12.9180 C   0  0  2  0  0  0  0  0  0  0  0  0
   21.6171  -22.0497  -14.0039 N   0  0  0  0  0  0  0  0  0  0  0  0
   19.4735  -21.8654  -13.0695 C   0  0  0  0  0  0  0  0  0  0  0  0
   18.5894  -21.9055  -11.9770 O   0  0  0  0  0  0  0  0  0  0  0  0
   18.9789  -22.2116  -14.1600 O   0  0  0  0  0  0  0  0  0  0  0  0
  2  1  1  6
  2  3  1  0
  3  4  1  0
  4  5  2  0
  5  6  1  0
  7  6  1  0
  8  7  2  0
  9  8  1  0
 10 11  1  0
 10  9  2  0
 11 12  2  0
 12  4  1  0
 12  7  1  0
 13 14  2  0
 13  2  1  0
 15 16  1  0
 16 17  2  0
 18 16  1  0
 19 18  1  1
 19 20  1  0
 20 13  1  0
 21 28  1  0
 21 19  1  0
 22 21  2  0
 23 24  1  0
 24 25  1  0
 25 26  1  6
 25 27  1  0
 27 28  1  6
 27 29  1  0
 29 30  1  0
 31 29  2  0
M  END
$$$$
