WNI.pdb
     RDKit          3D

 31 32  0  0  1  0  0  0  0  0999 V2000
   24.8715  -19.3887  -16.9591 N   0  0  0  0  0  0  0  0  0  0  0  0
   23.7360  -19.0174  -16.1588 C   0  0  1  0  0  0  0  0  0  0  0  0
   22.5033  -18.9020  -16.9964 C   0  0  0  0  0  0  0  0  0  0  0  0
   22.5495  -17.5866  -17.6918 C   0  0  0  0  0  0  0  0  0  0  0  0
   23.3562  -17.1794  -18.7385 C   0  0  0  0  0  0  0  0  0  0  0  0
   23.0649  -15.9035  -19.0594 N   0  0  0  0  0  0  0  0  0  0  0  0
   22.0902  -15.4349  -18.2665 C   0  0  0  0  0  0  0  0  0  0  0  0
   21.4727  -14.1982  -18.2260 C   0  0  0  0  0  0  0  0  0  0  0  0
   20.4815  -14.0181  -17.2742 C   0  0  0  0  0  0  0  0  0  0  0  0
   20.1409  -15.0458  -16.4118 C   0  0  0  0  0  0  0  0  0  0  0  0
   20.7758  -16.2712  -16.4762 C   0  0  0  0  0  0  0  0  0  0  0  0
   21.7576  -16.4670  -17.4104 C   0  0  0  0  0  0  0  0  0  0  0  0
   23.5865  -19.9549  -15.0149 C   0  0  0  0  0  0  0  0  0  0  0  0
   23.5318  -21.2003  -15.2039 O   0  0  0  0  0  0  0  0  0  0  0  0
   24.7732  -21.7042   -9.8197 N   0  0  0  0  0  0  0  0  0  0  0  0
   23.6864  -20.8681  -10.1923 C   0  0  0  0  0  0  0  0  0  0  0  0
   22.6126  -21.0143   -9.5612 O   0  0  0  0  0  0  0  0  0  0  0  0
   23.7561  -19.8576  -11.2622 C   0  0  0  0  0  0  0  0  0  0  0  0
   23.2693  -20.4361  -12.5481 C   0  0  2  0  0  0  0  0  0  0  0  0
   23.4976  -19.5191  -13.6692 N   0  0  0  0  0  0  0  0  0  0  0  0
   21.8183  -20.7361  -12.4223 C   0  0  0  0  0  0  0  0  0  0  0  0
   20.9255  -19.8561  -12.3368 O   0  0  0  0  0  0  0  0  0  0  0  0
   19.2783  -23.6331  -15.7478 C   0  0  0  0  0  0  0  0  0  0  0  0
   19.4050  -22.6096  -14.6253 C   0  0  0  0  0  0  0  0  0  0  0  0
   19.3689  -23.2761  -13.2727 C   0  0  2  0  0  0  0  0  0  0  0  0
   17.9979  -23.8272  -13.0196 C   0  0  0  0  0  0  0  0  0  0  0  0
   19.9060  -22.3703  -12.2358 C   0  0  2  0  0  0  0  0  0  0  0  0
   21.3138  -22.0683  -12.3878 N   0  0  0  0  0  0  0  0  0  0  0  0
   19.7361  -22.9518  -10.8937 C   0  0  0  0  0  0  0  0  0  0  0  0
   20.6667  -23.8581  -10.3554 O   0  0  0  0  0  0  0  0  0  0  0  0
   18.7705  -22.6860  -10.1518 O   0  0  0  0  0  0  0  0  0  0  0  0
  2  1  1  6
  2  3  1  0
  3  4  1  0
  4  5  2  0
  5  6  1  0
  7  6  1  0
  8  7  2  0
  9  8  1  0
 10 11  1  0
 10  9  2  0
 11 12  2  0
 12  4  1  0
 12  7  1  0
 13 14  2  0
 13  2  1  0
 15 16  1  0
 16 17  2  0
 18 16  1  0
 19 18  1  1
 19 20  1  0
 20 13  1  0
 21 28  1  0
 21 19  1  0
 22 21  2  0
 23 24  1  0
 24 25  1  0
 25 26  1  1
 25 27  1  0
 27 28  1  6
 27 29  1  0
 29 30  1  0
 31 29  2  0
M  END
$$$$
