WNI.pdb
     RDKit          3D

 31 32  0  0  1  0  0  0  0  0999 V2000
   38.5354  -11.2193   -5.9398 N   0  0  0  0  0  0  0  0  0  0  0  0
   39.2000  -10.3245   -6.8484 C   0  0  1  0  0  0  0  0  0  0  0  0
   38.4162   -9.0649   -7.0312 C   0  0  0  0  0  0  0  0  0  0  0  0
   37.1779   -9.4068   -7.7833 C   0  0  0  0  0  0  0  0  0  0  0  0
   35.9221   -9.7256   -7.3004 C   0  0  0  0  0  0  0  0  0  0  0  0
   35.0920   -9.9674   -8.3339 N   0  0  0  0  0  0  0  0  0  0  0  0
   35.7429   -9.8232   -9.4975 C   0  0  0  0  0  0  0  0  0  0  0  0
   35.3073   -9.9675  -10.8020 C   0  0  0  0  0  0  0  0  0  0  0  0
   36.2365   -9.7465  -11.8062 C   0  0  0  0  0  0  0  0  0  0  0  0
   37.5389   -9.3973  -11.4935 C   0  0  0  0  0  0  0  0  0  0  0  0
   37.9450   -9.2605  -10.1800 C   0  0  0  0  0  0  0  0  0  0  0  0
   37.0403   -9.4751   -9.1748 C   0  0  0  0  0  0  0  0  0  0  0  0
   40.5992  -10.0898   -6.4049 C   0  0  0  0  0  0  0  0  0  0  0  0
   40.8699   -9.9207   -5.1851 O   0  0  0  0  0  0  0  0  0  0  0  0
   45.8544  -11.0925   -5.5959 N   0  0  0  0  0  0  0  0  0  0  0  0
   45.3345  -10.7769   -6.8802 C   0  0  0  0  0  0  0  0  0  0  0  0
   46.1283  -10.2678   -7.7069 O   0  0  0  0  0  0  0  0  0  0  0  0
   43.9367  -11.0129   -7.2817 C   0  0  0  0  0  0  0  0  0  0  0  0
   43.0807   -9.8656   -6.8622 C   0  0  2  0  0  0  0  0  0  0  0  0
   41.6938  -10.0416   -7.3039 N   0  0  0  0  0  0  0  0  0  0  0  0
   43.6422   -8.6123   -7.4325 C   0  0  0  0  0  0  0  0  0  0  0  0
   43.4118   -8.2088   -8.6000 O   0  0  0  0  0  0  0  0  0  0  0  0
   43.5481   -3.8604   -5.3514 C   0  0  0  0  0  0  0  0  0  0  0  0
   44.0388   -5.3035   -5.3485 C   0  0  0  0  0  0  0  0  0  0  0  0
   45.2601   -5.4662   -6.2186 C   0  0  2  0  0  0  0  0  0  0  0  0
   45.6846   -4.1283   -6.7453 C   0  0  0  0  0  0  0  0  0  0  0  0
   45.0376   -6.5209   -7.2296 C   0  0  2  0  0  0  0  0  0  0  0  0
   44.5016   -7.7526   -6.6892 N   0  0  0  0  0  0  0  0  0  0  0  0
   46.2960   -6.8656   -7.9121 C   0  0  0  0  0  0  0  0  0  0  0  0
   47.3262   -7.5647   -7.2587 O   0  0  0  0  0  0  0  0  0  0  0  0
   46.5330   -6.5666   -9.0987 O   0  0  0  0  0  0  0  0  0  0  0  0
  2  1  1  1
  2  3  1  0
  3  4  1  0
  4  5  2  0
  5  6  1  0
  7  6  1  0
  8  7  2  0
  9  8  1  0
 10 11  1  0
 10  9  2  0
 11 12  2  0
 12  4  1  0
 12  7  1  0
 13 14  2  0
 13  2  1  0
 15 16  1  0
 16 17  2  0
 18 16  1  0
 19 18  1  6
 19 20  1  0
 20 13  1  0
 21 28  1  0
 21 19  1  0
 22 21  2  0
 23 24  1  0
 24 25  1  0
 25 26  1  6
 25 27  1  0
 27 28  1  1
 27 29  1  0
 29 30  1  0
 31 29  2  0
M  END
$$$$
