LTQ.pdb
     RDKit          3D

 25 24  0  0  1  0  0  0  0  0999 V2000
   17.0417  -16.2756  -19.2058 C   0  0  0  0  0  0  0  0  0  0  0  0
   18.5219  -15.9664  -19.0263 C   0  0  2  0  0  0  0  0  0  0  0  0
   19.3708  -17.2027  -19.1151 C   0  0  0  0  0  0  0  0  0  0  0  0
   18.6737  -15.3131  -17.6793 C   0  0  0  0  0  0  0  0  0  0  0  0
   20.1337  -14.9405  -17.4641 C   0  0  2  0  0  0  0  0  0  0  0  0
   20.8895  -16.0610  -16.9468 N   0  0  0  0  0  0  0  0  0  0  0  0
   20.1595  -13.7833  -16.5489 C   0  0  0  0  0  0  0  0  0  0  0  0
   19.8724  -13.9901  -15.3427 O   0  0  0  0  0  0  0  0  0  0  0  0
   22.7527  -12.2412  -15.1765 C   0  0  0  0  0  0  0  0  0  0  0  0
   22.0682  -11.0410  -15.7972 C   0  0  1  0  0  0  0  0  0  0  0  0
   22.5383  -11.0414  -17.1380 O   0  0  0  0  0  0  0  0  0  0  0  0
   20.5806  -11.4053  -15.9423 C   0  0  2  0  0  0  0  0  0  0  0  0
   20.4898  -12.4678  -16.9676 N   0  0  0  0  0  0  0  0  0  0  0  0
   19.8734  -10.2077  -16.4213 C   0  0  0  0  0  0  0  0  0  0  0  0
   19.7040  -10.0618  -17.6915 O   0  0  0  0  0  0  0  0  0  0  0  0
   15.1227   -6.6196  -14.2612 N   0  0  0  0  0  0  0  0  0  0  0  0
   15.6081   -5.9501  -15.4074 C   0  0  0  0  0  0  0  0  0  0  0  0
   14.9788   -4.9748  -15.8701 O   0  0  0  0  0  0  0  0  0  0  0  0
   16.8422   -6.3973  -16.0493 C   0  0  0  0  0  0  0  0  0  0  0  0
   17.4751   -7.5819  -15.3888 C   0  0  0  0  0  0  0  0  0  0  0  0
   18.6563   -8.0083  -16.2604 C   0  0  2  0  0  0  0  0  0  0  0  0
   19.3317   -9.1592  -15.6559 N   0  0  0  0  0  0  0  0  0  0  0  0
   19.6374   -6.9005  -16.3085 C   0  0  0  0  0  0  0  0  0  0  0  0
   20.5749   -6.8711  -15.4873 O   0  0  0  0  0  0  0  0  0  0  0  0
   19.5517   -5.8745  -17.2503 O   0  0  0  0  0  0  0  0  0  0  0  0
  2  1  1  1
  2  3  1  0
  4  5  1  0
  4  2  1  0
  5  7  1  0
  5  6  1  1
  7  8  2  0
 10  9  1  1
 10 11  1  0
 10 12  1  0
 12 13  1  6
 13  7  1  0
 14 15  2  0
 14 12  1  0
 16 17  1  0
 17 18  2  0
 17 19  1  0
 19 20  1  0
 21 20  1  1
 21 22  1  0
 21 23  1  0
 22 14  1  0
 23 25  1  0
 24 23  2  0
M  END
$$$$
