LTQ.pdb
     RDKit          3D

 25 24  0  0  1  0  0  0  0  0999 V2000
   16.0341  -15.0340  -16.1996 C   0  0  0  0  0  0  0  0  0  0  0  0
   17.4828  -14.9814  -16.6658 C   0  0  2  0  0  0  0  0  0  0  0  0
   18.1693  -16.3101  -16.5238 C   0  0  0  0  0  0  0  0  0  0  0  0
   18.1738  -13.9347  -15.8343 C   0  0  0  0  0  0  0  0  0  0  0  0
   17.5007  -12.5886  -16.0614 C   0  0  2  0  0  0  0  0  0  0  0  0
   17.5187  -12.2236  -17.4617 N   0  0  0  0  0  0  0  0  0  0  0  0
   18.2039  -11.6006  -15.2208 C   0  0  0  0  0  0  0  0  0  0  0  0
   18.4517  -11.9216  -14.0310 O   0  0  0  0  0  0  0  0  0  0  0  0
   21.4911   -9.8787  -15.6862 C   0  0  0  0  0  0  0  0  0  0  0  0
   20.4682   -8.7780  -15.4953 C   0  0  1  0  0  0  0  0  0  0  0  0
   19.9578   -8.5620  -16.8036 O   0  0  0  0  0  0  0  0  0  0  0  0
   19.2777   -9.4042  -14.7486 C   0  0  2  0  0  0  0  0  0  0  0  0
   18.6056  -10.3234  -15.6927 N   0  0  0  0  0  0  0  0  0  0  0  0
   18.3544   -8.3164  -14.3908 C   0  0  0  0  0  0  0  0  0  0  0  0
   17.3674   -8.0638  -15.1817 O   0  0  0  0  0  0  0  0  0  0  0  0
   16.3564   -5.7888   -8.8874 N   0  0  0  0  0  0  0  0  0  0  0  0
   15.6867   -5.0899   -9.9174 C   0  0  0  0  0  0  0  0  0  0  0  0
   14.7806   -4.2790   -9.6302 O   0  0  0  0  0  0  0  0  0  0  0  0
   16.0531   -5.3153  -11.3139 C   0  0  0  0  0  0  0  0  0  0  0  0
   17.1242   -6.3438  -11.5019 C   0  0  0  0  0  0  0  0  0  0  0  0
   17.3939   -6.4466  -13.0030 C   0  0  2  0  0  0  0  0  0  0  0  0
   18.3979   -7.4822  -13.2590 N   0  0  0  0  0  0  0  0  0  0  0  0
   17.9595   -5.1622  -13.4747 C   0  0  0  0  0  0  0  0  0  0  0  0
   19.1887   -4.9668  -13.4036 O   0  0  0  0  0  0  0  0  0  0  0  0
   17.1590   -4.1488  -14.0027 O   0  0  0  0  0  0  0  0  0  0  0  0
  2  1  1  1
  2  3  1  0
  4  5  1  0
  4  2  1  0
  5  7  1  0
  5  6  1  6
  7  8  2  0
 10  9  1  6
 10 11  1  0
 10 12  1  0
 12 13  1  6
 13  7  1  0
 14 15  2  0
 14 12  1  0
 16 17  1  0
 17 18  2  0
 17 19  1  0
 19 20  1  0
 21 20  1  1
 21 22  1  0
 21 23  1  0
 22 14  1  0
 23 25  1  0
 24 23  2  0
M  END
$$$$
