LTQ.pdb
     RDKit          3D

 25 24  0  0  1  0  0  0  0  0999 V2000
   28.6272  -18.7414  -17.1223 C   0  0  0  0  0  0  0  0  0  0  0  0
   28.3085  -19.9960  -17.9243 C   0  0  2  0  0  0  0  0  0  0  0  0
   27.9051  -19.6754  -19.3355 C   0  0  0  0  0  0  0  0  0  0  0  0
   27.1965  -20.7079  -17.2024 C   0  0  0  0  0  0  0  0  0  0  0  0
   27.6288  -20.9921  -15.7710 C   0  0  2  0  0  0  0  0  0  0  0  0
   28.7336  -21.9261  -15.7332 N   0  0  0  0  0  0  0  0  0  0  0  0
   26.4464  -21.5011  -15.0499 C   0  0  0  0  0  0  0  0  0  0  0  0
   25.9233  -22.5644  -15.4694 O   0  0  0  0  0  0  0  0  0  0  0  0
   26.1373  -22.1115  -11.3946 C   0  0  0  0  0  0  0  0  0  0  0  0
   24.8967  -21.3196  -11.7522 C   0  0  1  0  0  0  0  0  0  0  0  0
   25.3044  -19.9672  -11.5981 O   0  0  0  0  0  0  0  0  0  0  0  0
   24.7035  -21.4611  -13.2719 C   0  0  2  0  0  0  0  0  0  0  0  0
   25.8844  -20.8502  -13.9204 N   0  0  0  0  0  0  0  0  0  0  0  0
   23.4999  -20.7000  -13.6407 C   0  0  0  0  0  0  0  0  0  0  0  0
   23.5971  -19.4199  -13.7645 O   0  0  0  0  0  0  0  0  0  0  0  0
   20.8230  -17.2540  -15.2796 N   0  0  0  0  0  0  0  0  0  0  0  0
   20.1171  -18.2361  -16.0111 C   0  0  0  0  0  0  0  0  0  0  0  0
   18.9048  -18.0702  -16.2638 O   0  0  0  0  0  0  0  0  0  0  0  0
   20.8034  -19.4416  -16.4703 C   0  0  0  0  0  0  0  0  0  0  0  0
   20.5549  -20.6446  -15.6151 C   0  0  0  0  0  0  0  0  0  0  0  0
   21.0771  -20.3202  -14.2156 C   0  0  2  0  0  0  0  0  0  0  0  0
   22.2069  -21.1943  -13.8904 N   0  0  0  0  0  0  0  0  0  0  0  0
   20.0080  -20.6018  -13.2308 C   0  0  0  0  0  0  0  0  0  0  0  0
   19.9473  -21.7238  -12.6906 O   0  0  0  0  0  0  0  0  0  0  0  0
   19.0532  -19.6470  -12.8795 O   0  0  0  0  0  0  0  0  0  0  0  0
  2  1  1  1
  2  3  1  0
  4  5  1  0
  4  2  1  0
  5  7  1  0
  5  6  1  6
  7  8  2  0
 10  9  1  6
 10 11  1  0
 10 12  1  0
 12 13  1  6
 13  7  1  0
 14 15  2  0
 14 12  1  0
 16 17  1  0
 17 18  2  0
 17 19  1  0
 19 20  1  0
 21 20  1  6
 21 22  1  0
 21 23  1  0
 22 14  1  0
 23 25  1  0
 24 23  2  0
M  END
$$$$
