LTQ.pdb
     RDKit          3D

 25 24  0  0  1  0  0  0  0  0999 V2000
   26.6401  -11.5353  -17.0079 C   0  0  0  0  0  0  0  0  0  0  0  0
   27.6723  -12.6317  -16.7814 C   0  0  2  0  0  0  0  0  0  0  0  0
   28.8608  -12.4830  -17.6882 C   0  0  0  0  0  0  0  0  0  0  0  0
   26.9788  -13.9447  -17.0253 C   0  0  0  0  0  0  0  0  0  0  0  0
   25.7418  -14.0304  -16.1426 C   0  0  2  0  0  0  0  0  0  0  0  0
   26.0859  -13.8910  -14.7438 N   0  0  0  0  0  0  0  0  0  0  0  0
   25.0895  -15.3228  -16.4278 C   0  0  0  0  0  0  0  0  0  0  0  0
   24.7865  -15.5694  -17.6226 O   0  0  0  0  0  0  0  0  0  0  0  0
   26.1093  -18.7577  -15.9737 C   0  0  0  0  0  0  0  0  0  0  0  0
   24.7775  -18.7057  -15.2540 C   0  0  1  0  0  0  0  0  0  0  0  0
   25.1231  -18.3065  -13.9349 O   0  0  0  0  0  0  0  0  0  0  0  0
   24.0220  -17.4853  -15.8078 C   0  0  2  0  0  0  0  0  0  0  0  0
   24.7948  -16.2834  -15.4251 N   0  0  0  0  0  0  0  0  0  0  0  0
   22.7047  -17.4430  -15.1547 C   0  0  0  0  0  0  0  0  0  0  0  0
   22.4130  -16.4189  -14.4268 O   0  0  0  0  0  0  0  0  0  0  0  0
   17.9931  -15.0359  -16.3141 N   0  0  0  0  0  0  0  0  0  0  0  0
   17.5358  -15.7407  -15.1775 C   0  0  0  0  0  0  0  0  0  0  0  0
   16.4282  -15.4558  -14.6742 O   0  0  0  0  0  0  0  0  0  0  0  0
   18.3559  -16.7994  -14.5931 C   0  0  0  0  0  0  0  0  0  0  0  0
   19.6943  -16.9596  -15.2438 C   0  0  0  0  0  0  0  0  0  0  0  0
   20.3585  -18.1850  -14.6164 C   0  0  2  0  0  0  0  0  0  0  0  0
   21.6764  -18.4006  -15.2188 N   0  0  0  0  0  0  0  0  0  0  0  0
   19.5378  -19.3795  -14.9194 C   0  0  0  0  0  0  0  0  0  0  0  0
   19.8058  -20.0742  -15.9192 O   0  0  0  0  0  0  0  0  0  0  0  0
   18.4617  -19.7625  -14.1181 O   0  0  0  0  0  0  0  0  0  0  0  0
  2  1  1  6
  2  3  1  0
  4  5  1  0
  4  2  1  0
  5  7  1  0
  5  6  1  1
  7  8  2  0
 10  9  1  6
 10 11  1  0
 10 12  1  0
 12 13  1  1
 13  7  1  0
 14 15  2  0
 14 12  1  0
 16 17  1  0
 17 18  2  0
 17 19  1  0
 19 20  1  0
 21 20  1  6
 21 22  1  0
 21 23  1  0
 22 14  1  0
 23 25  1  0
 24 23  2  0
M  END
$$$$
