LTQ.pdb
     RDKit          3D

 25 24  0  0  1  0  0  0  0  0999 V2000
   21.7477  -26.2290  -18.0062 C   0  0  0  0  0  0  0  0  0  0  0  0
   23.0571  -26.7017  -17.3893 C   0  0  2  0  0  0  0  0  0  0  0  0
   23.0346  -28.1709  -17.0762 C   0  0  0  0  0  0  0  0  0  0  0  0
   23.2691  -25.8947  -16.1371 C   0  0  0  0  0  0  0  0  0  0  0  0
   23.3104  -24.4158  -16.4943 C   0  0  2  0  0  0  0  0  0  0  0  0
   24.6193  -24.0297  -16.9763 N   0  0  0  0  0  0  0  0  0  0  0  0
   22.9189  -23.6630  -15.2872 C   0  0  0  0  0  0  0  0  0  0  0  0
   23.6249  -23.8086  -14.2573 O   0  0  0  0  0  0  0  0  0  0  0  0
   20.7816  -19.9700  -13.0052 C   0  0  0  0  0  0  0  0  0  0  0  0
   21.1251  -20.6547  -14.3119 C   0  0  1  0  0  0  0  0  0  0  0  0
   22.3737  -20.0816  -14.6742 O   0  0  0  0  0  0  0  0  0  0  0  0
   21.4888  -22.1094  -13.9676 C   0  0  2  0  0  0  0  0  0  0  0  0
   21.7963  -22.7953  -15.2416 N   0  0  0  0  0  0  0  0  0  0  0  0
   20.3047  -22.7316  -13.3555 C   0  0  0  0  0  0  0  0  0  0  0  0
   19.3452  -23.1158  -14.1270 O   0  0  0  0  0  0  0  0  0  0  0  0
   18.9162  -24.7729   -7.3964 N   0  0  0  0  0  0  0  0  0  0  0  0
   18.1512  -25.4850   -8.3479 C   0  0  0  0  0  0  0  0  0  0  0  0
   17.4836  -26.4787   -7.9900 O   0  0  0  0  0  0  0  0  0  0  0  0
   18.1412  -25.0602   -9.7460 C   0  0  0  0  0  0  0  0  0  0  0  0
   18.8903  -23.7894   -9.9995 C   0  0  0  0  0  0  0  0  0  0  0  0
   18.7866  -23.4942  -11.4957 C   0  0  2  0  0  0  0  0  0  0  0  0
   20.0652  -22.9788  -11.9916 N   0  0  0  0  0  0  0  0  0  0  0  0
   17.7763  -22.4319  -11.7030 C   0  0  0  0  0  0  0  0  0  0  0  0
   16.6879  -22.7130  -12.2421 O   0  0  0  0  0  0  0  0  0  0  0  0
   17.9986  -21.1108  -11.3129 O   0  0  0  0  0  0  0  0  0  0  0  0
  2  1  1  1
  2  3  1  0
  4  5  1  0
  4  2  1  0
  5  7  1  0
  5  6  1  1
  7  8  2  0
 10  9  1  1
 10 11  1  0
 10 12  1  0
 12 13  1  6
 13  7  1  0
 14 15  2  0
 14 12  1  0
 16 17  1  0
 17 18  2  0
 17 19  1  0
 19 20  1  0
 21 20  1  1
 21 22  1  0
 21 23  1  0
 22 14  1  0
 23 25  1  0
 24 23  2  0
M  END
$$$$
