MMD.pdb
     RDKit          3D

 25 24  0  0  1  0  0  0  0  0999 V2000
   11.7928  -13.1289  -16.7400 C   0  0  0  0  0  0  0  0  0  0  0  0
   13.0642  -11.9589  -16.2700 S   0  0  0  0  0  0  0  0  0  0  0  0
   14.7317  -12.6306  -16.4547 C   0  0  0  0  0  0  0  0  0  0  0  0
   15.7262  -11.5467  -16.1597 C   0  0  0  0  0  0  0  0  0  0  0  0
   17.1533  -11.9844  -16.3466 C   0  0  2  0  0  0  0  0  0  0  0  0
   17.2956  -13.3525  -15.9330 N   0  0  0  0  0  0  0  0  0  0  0  0
   17.9943  -11.0680  -15.4992 C   0  0  0  0  0  0  0  0  0  0  0  0
   18.3260  -11.4221  -14.3397 O   0  0  0  0  0  0  0  0  0  0  0  0
   24.9336   -9.5659  -14.6626 C   0  0  0  0  0  0  0  0  0  0  0  0
   23.3353  -10.2917  -15.0430 S   0  0  0  0  0  0  0  0  0  0  0  0
   21.9815   -9.0384  -14.9538 C   0  0  0  0  0  0  0  0  0  0  0  0
   20.7542   -9.7319  -15.3973 C   0  0  0  0  0  0  0  0  0  0  0  0
   19.4576   -9.0209  -15.2689 C   0  0  2  0  0  0  0  0  0  0  0  0
   18.4214   -9.8047  -15.9883 N   0  0  0  0  0  0  0  0  0  0  0  0
   19.3977   -7.6505  -15.7967 C   0  0  0  0  0  0  0  0  0  0  0  0
   19.5845   -7.5092  -17.0619 O   0  0  0  0  0  0  0  0  0  0  0  0
   19.1490   -6.4786  -15.0406 N   0  0  0  0  0  0  0  0  0  0  0  0
   19.0774   -5.1510  -15.6204 C   0  0  1  0  0  0  0  0  0  0  0  0
   18.1331   -4.2578  -14.8761 C   0  0  0  0  0  0  0  0  0  0  0  0
   18.0023   -2.9695  -15.5812 C   0  0  0  0  0  0  0  0  0  0  0  0
   18.6414   -2.7908  -16.6497 O   0  0  0  0  0  0  0  0  0  0  0  0
   20.4183   -4.5462  -15.5845 C   0  0  0  0  0  0  0  0  0  0  0  0
   21.3462   -4.9283  -14.8198 O   0  0  0  0  0  0  0  0  0  0  0  0
   17.2139   -1.9132  -15.1519 O   0  0  0  0  0  0  0  0  0  0  0  0
   20.7010   -3.4890  -16.4364 O   0  0  0  0  0  0  0  0  0  0  0  0
  1  2  1  0
  3  2  1  0
  4  3  1  0
  5  6  1  1
  5  4  1  0
  7  5  1  0
  8  7  2  0
 10  9  1  0
 10 11  1  0
 13 12  1  6
 12 11  1  0
 13 14  1  0
 14  7  1  0
 15 17  1  0
 15 13  1  0
 16 15  2  0
 18 19  1  1
 18 22  1  0
 18 17  1  0
 20 24  1  0
 20 19  1  0
 21 20  2  0
 22 25  1  0
 23 22  2  0
M  END
$$$$
