MMD.pdb
     RDKit          3D

 25 24  0  0  1  0  0  0  0  0999 V2000
   29.8707  -17.3202  -18.0251 C   0  0  0  0  0  0  0  0  0  0  0  0
   28.8248  -18.1668  -16.8439 S   0  0  0  0  0  0  0  0  0  0  0  0
   28.2727  -19.7828  -17.4351 C   0  0  0  0  0  0  0  0  0  0  0  0
   27.4506  -20.4361  -16.3636 C   0  0  0  0  0  0  0  0  0  0  0  0
   27.9864  -20.1995  -14.9779 C   0  0  2  0  0  0  0  0  0  0  0  0
   29.2464  -20.8724  -14.8273 N   0  0  0  0  0  0  0  0  0  0  0  0
   26.9583  -20.7466  -14.0246 C   0  0  0  0  0  0  0  0  0  0  0  0
   26.0631  -21.5193  -14.4506 O   0  0  0  0  0  0  0  0  0  0  0  0
   27.8757  -20.5489   -7.5836 C   0  0  0  0  0  0  0  0  0  0  0  0
   26.1312  -20.1385   -7.7032 S   0  0  0  0  0  0  0  0  0  0  0  0
   25.3740  -20.8312   -9.2390 C   0  0  0  0  0  0  0  0  0  0  0  0
   26.3037  -20.4971  -10.3380 C   0  0  0  0  0  0  0  0  0  0  0  0
   25.9537  -20.9318  -11.7135 C   0  0  2  0  0  0  0  0  0  0  0  0
   26.9815  -20.4037  -12.6464 N   0  0  0  0  0  0  0  0  0  0  0  0
   24.6472  -20.5028  -12.2323 C   0  0  0  0  0  0  0  0  0  0  0  0
   24.5562  -19.2837  -12.6340 O   0  0  0  0  0  0  0  0  0  0  0  0
   23.4870  -21.3095  -12.3330 N   0  0  0  0  0  0  0  0  0  0  0  0
   22.2714  -20.8854  -13.0010 C   0  0  1  0  0  0  0  0  0  0  0  0
   21.9216  -21.7710  -14.1571 C   0  0  0  0  0  0  0  0  0  0  0  0
   20.6426  -21.3384  -14.7496 C   0  0  0  0  0  0  0  0  0  0  0  0
   19.6145  -22.0377  -14.5598 O   0  0  0  0  0  0  0  0  0  0  0  0
   21.1632  -20.9206  -12.0337 C   0  0  0  0  0  0  0  0  0  0  0  0
   21.1961  -21.5545  -10.9433 O   0  0  0  0  0  0  0  0  0  0  0  0
   20.4769  -20.1967  -15.5181 O   0  0  0  0  0  0  0  0  0  0  0  0
   20.0008  -20.2200  -12.3187 O   0  0  0  0  0  0  0  0  0  0  0  0
  1  2  1  0
  3  2  1  0
  4  3  1  0
  5  6  1  6
  5  4  1  0
  7  5  1  0
  8  7  2  0
 10  9  1  0
 10 11  1  0
 13 12  1  1
 12 11  1  0
 13 14  1  0
 14  7  1  0
 15 17  1  0
 15 13  1  0
 16 15  2  0
 18 19  1  6
 18 22  1  0
 18 17  1  0
 20 24  1  0
 20 19  1  0
 21 20  2  0
 22 25  1  0
 23 22  2  0
M  END
$$$$
