MMD.pdb
     RDKit          3D

 25 24  0  0  1  0  0  0  0  0999 V2000
   28.2549  -18.5092  -16.3817 C   0  0  0  0  0  0  0  0  0  0  0  0
   27.6064  -17.2658  -15.2684 S   0  0  0  0  0  0  0  0  0  0  0  0
   26.1816  -16.3912  -15.9546 C   0  0  0  0  0  0  0  0  0  0  0  0
   25.6618  -15.4301  -14.9266 C   0  0  0  0  0  0  0  0  0  0  0  0
   24.4247  -14.6983  -15.3708 C   0  0  2  0  0  0  0  0  0  0  0  0
   24.1948  -14.9446  -16.7671 N   0  0  0  0  0  0  0  0  0  0  0  0
   24.6766  -13.2379  -15.1087 C   0  0  0  0  0  0  0  0  0  0  0  0
   24.8888  -12.8437  -13.9341 O   0  0  0  0  0  0  0  0  0  0  0  0
   29.0614   -9.9529  -17.4290 C   0  0  0  0  0  0  0  0  0  0  0  0
   27.8089   -8.7144  -17.7803 S   0  0  0  0  0  0  0  0  0  0  0  0
   26.3259   -8.9222  -16.6990 C   0  0  0  0  0  0  0  0  0  0  0  0
   26.0374  -10.3714  -16.6772 C   0  0  0  0  0  0  0  0  0  0  0  0
   24.8662  -10.8450  -15.8979 C   0  0  2  0  0  0  0  0  0  0  0  0
   24.6786  -12.2930  -16.1692 N   0  0  0  0  0  0  0  0  0  0  0  0
   23.5790  -10.1903  -16.1714 C   0  0  0  0  0  0  0  0  0  0  0  0
   22.8977  -10.6458  -17.1634 O   0  0  0  0  0  0  0  0  0  0  0  0
   23.0231   -9.1115  -15.4407 N   0  0  0  0  0  0  0  0  0  0  0  0
   21.7273   -8.5289  -15.7329 C   0  0  1  0  0  0  0  0  0  0  0  0
   20.9376   -8.2515  -14.4909 C   0  0  0  0  0  0  0  0  0  0  0  0
   19.6633   -7.5988  -14.8436 C   0  0  0  0  0  0  0  0  0  0  0  0
   19.3545   -7.4782  -16.0569 O   0  0  0  0  0  0  0  0  0  0  0  0
   21.9302   -7.2602  -16.4503 C   0  0  0  0  0  0  0  0  0  0  0  0
   23.0014   -6.5945  -16.4207 O   0  0  0  0  0  0  0  0  0  0  0  0
   18.7562   -7.0943  -13.9247 O   0  0  0  0  0  0  0  0  0  0  0  0
   20.8917   -6.7467  -17.2127 O   0  0  0  0  0  0  0  0  0  0  0  0
  1  2  1  0
  3  2  1  0
  4  3  1  0
  5  6  1  6
  5  4  1  0
  7  5  1  0
  8  7  2  0
 10  9  1  0
 10 11  1  0
 13 12  1  6
 12 11  1  0
 13 14  1  0
 14  7  1  0
 15 17  1  0
 15 13  1  0
 16 15  2  0
 18 19  1  1
 18 22  1  0
 18 17  1  0
 20 24  1  0
 20 19  1  0
 21 20  2  0
 22 25  1  0
 23 22  2  0
M  END
$$$$
