MMD.pdb
     RDKit          3D

 25 24  0  0  1  0  0  0  0  0999 V2000
   20.2374  -17.0127  -16.2394 C   0  0  0  0  0  0  0  0  0  0  0  0
   21.3949  -17.3070  -17.5734 S   0  0  0  0  0  0  0  0  0  0  0  0
   21.7184  -15.8245  -18.5549 C   0  0  0  0  0  0  0  0  0  0  0  0
   21.9012  -14.6595  -17.6274 C   0  0  0  0  0  0  0  0  0  0  0  0
   22.0304  -13.3441  -18.3457 C   0  0  2  0  0  0  0  0  0  0  0  0
   22.9875  -13.4683  -19.4095 N   0  0  0  0  0  0  0  0  0  0  0  0
   22.4829  -12.3409  -17.3191 C   0  0  0  0  0  0  0  0  0  0  0  0
   21.7646  -12.1122  -16.3133 O   0  0  0  0  0  0  0  0  0  0  0  0
   28.5080  -10.4220  -16.5991 C   0  0  0  0  0  0  0  0  0  0  0  0
   27.9817  -11.8362  -15.6249 S   0  0  0  0  0  0  0  0  0  0  0  0
   26.1405  -11.9487  -15.5304 C   0  0  0  0  0  0  0  0  0  0  0  0
   25.6221  -10.7853  -16.2798 C   0  0  0  0  0  0  0  0  0  0  0  0
   24.1535  -10.6553  -16.4515 C   0  0  2  0  0  0  0  0  0  0  0  0
   23.7121  -11.6448  -17.4673 N   0  0  0  0  0  0  0  0  0  0  0  0
   23.6502   -9.3448  -16.8870 C   0  0  0  0  0  0  0  0  0  0  0  0
   23.8458   -9.0304  -18.1193 O   0  0  0  0  0  0  0  0  0  0  0  0
   22.9684   -8.4047  -16.0757 N   0  0  0  0  0  0  0  0  0  0  0  0
   22.3674   -7.1889  -16.5901 C   0  0  1  0  0  0  0  0  0  0  0  0
   21.4150   -7.4592  -17.7140 C   0  0  0  0  0  0  0  0  0  0  0  0
   20.7730   -6.2018  -18.1391 C   0  0  0  0  0  0  0  0  0  0  0  0
   21.4801   -5.1702  -18.2728 O   0  0  0  0  0  0  0  0  0  0  0  0
   21.6297   -6.5287  -15.5015 C   0  0  0  0  0  0  0  0  0  0  0  0
   21.3877   -7.0640  -14.3850 O   0  0  0  0  0  0  0  0  0  0  0  0
   19.4207   -6.0601  -18.4093 O   0  0  0  0  0  0  0  0  0  0  0  0
   21.1627   -5.2371  -15.6939 O   0  0  0  0  0  0  0  0  0  0  0  0
  1  2  1  0
  3  2  1  0
  4  3  1  0
  5  6  1  6
  5  4  1  0
  7  5  1  0
  8  7  2  0
 10  9  1  0
 10 11  1  0
 13 12  1  6
 12 11  1  0
 13 14  1  0
 14  7  1  0
 15 17  1  0
 15 13  1  0
 16 15  2  0
 18 19  1  6
 18 22  1  0
 18 17  1  0
 20 24  1  0
 20 19  1  0
 21 20  2  0
 22 25  1  0
 23 22  2  0
M  END
$$$$
