MMD.pdb
     RDKit          3D

 25 24  0  0  1  0  0  0  0  0999 V2000
   15.4330  -12.7587  -19.9874 C   0  0  0  0  0  0  0  0  0  0  0  0
   17.1035  -13.2291  -20.4280 S   0  0  0  0  0  0  0  0  0  0  0  0
   18.3474  -12.4533  -19.3713 C   0  0  0  0  0  0  0  0  0  0  0  0
   17.7275  -11.2770  -18.6763 C   0  0  0  0  0  0  0  0  0  0  0  0
   18.6903  -10.5387  -17.7869 C   0  0  2  0  0  0  0  0  0  0  0  0
   19.3903  -11.4753  -16.9526 N   0  0  0  0  0  0  0  0  0  0  0  0
   17.8652   -9.5860  -16.9643 C   0  0  0  0  0  0  0  0  0  0  0  0
   17.1572   -8.7202  -17.5380 O   0  0  0  0  0  0  0  0  0  0  0  0
   17.6976   -9.7103  -10.2203 C   0  0  0  0  0  0  0  0  0  0  0  0
   16.0291   -9.7997  -10.8792 S   0  0  0  0  0  0  0  0  0  0  0  0
   15.8608   -8.8225  -12.4376 C   0  0  0  0  0  0  0  0  0  0  0  0
   16.7390   -9.4800  -13.4277 C   0  0  0  0  0  0  0  0  0  0  0  0
   16.9358   -8.8205  -14.7428 C   0  0  2  0  0  0  0  0  0  0  0  0
   17.8724   -9.6479  -15.5453 N   0  0  0  0  0  0  0  0  0  0  0  0
   17.4814   -7.4558  -14.7252 C   0  0  0  0  0  0  0  0  0  0  0  0
   18.7102   -7.3286  -14.3653 O   0  0  0  0  0  0  0  0  0  0  0  0
   16.7793   -6.2753  -15.0722 N   0  0  0  0  0  0  0  0  0  0  0  0
   17.3529   -4.9461  -14.9826 C   0  0  1  0  0  0  0  0  0  0  0  0
   17.8052   -4.4332  -16.3151 C   0  0  0  0  0  0  0  0  0  0  0  0
   18.2744   -3.0417  -16.1826 C   0  0  0  0  0  0  0  0  0  0  0  0
   18.3794   -2.5396  -15.0341 O   0  0  0  0  0  0  0  0  0  0  0  0
   16.3352   -4.0268  -14.4494 C   0  0  0  0  0  0  0  0  0  0  0  0
   15.0958   -4.2631  -14.4558 O   0  0  0  0  0  0  0  0  0  0  0  0
   18.6170   -2.2214  -17.2463 O   0  0  0  0  0  0  0  0  0  0  0  0
   16.7422   -2.8199  -13.9009 O   0  0  0  0  0  0  0  0  0  0  0  0
  1  2  1  0
  3  2  1  0
  4  3  1  0
  5  6  1  1
  5  4  1  0
  7  5  1  0
  8  7  2  0
 10  9  1  0
 10 11  1  0
 13 12  1  1
 12 11  1  0
 13 14  1  0
 14  7  1  0
 15 17  1  0
 15 13  1  0
 16 15  2  0
 18 19  1  6
 18 22  1  0
 18 17  1  0
 20 24  1  0
 20 19  1  0
 21 20  2  0
 22 25  1  0
 23 22  2  0
M  END
$$$$
