MMD.pdb
     RDKit          3D

 25 24  0  0  1  0  0  0  0  0999 V2000
   17.6121  -13.2927  -22.9720 C   0  0  0  0  0  0  0  0  0  0  0  0
   18.2893  -12.4058  -21.5717 S   0  0  0  0  0  0  0  0  0  0  0  0
   19.8593  -13.0966  -21.0027 C   0  0  0  0  0  0  0  0  0  0  0  0
   20.2938  -12.3612  -19.7693 C   0  0  0  0  0  0  0  0  0  0  0  0
   21.6550  -12.7751  -19.2806 C   0  0  2  0  0  0  0  0  0  0  0  0
   21.6281  -14.1584  -18.8947 N   0  0  0  0  0  0  0  0  0  0  0  0
   21.9745  -11.8876  -18.1078 C   0  0  0  0  0  0  0  0  0  0  0  0
   21.5191  -12.1704  -16.9709 O   0  0  0  0  0  0  0  0  0  0  0  0
   26.1126  -10.7975  -14.2040 C   0  0  0  0  0  0  0  0  0  0  0  0
   26.5702   -9.4829  -15.3391 S   0  0  0  0  0  0  0  0  0  0  0  0
   25.0824   -8.6654  -16.0672 C   0  0  0  0  0  0  0  0  0  0  0  0
   24.5504   -9.6086  -17.0728 C   0  0  0  0  0  0  0  0  0  0  0  0
   23.0865   -9.8522  -17.1052 C   0  0  2  0  0  0  0  0  0  0  0  0
   22.7845  -10.7313  -18.2635 N   0  0  0  0  0  0  0  0  0  0  0  0
   22.2204   -8.6713  -17.2297 C   0  0  0  0  0  0  0  0  0  0  0  0
   22.1958   -8.0903  -18.3775 O   0  0  0  0  0  0  0  0  0  0  0  0
   21.4110   -8.1223  -16.2048 N   0  0  0  0  0  0  0  0  0  0  0  0
   20.5779   -6.9485  -16.3837 C   0  0  1  0  0  0  0  0  0  0  0  0
   19.4849   -6.8684  -15.3628 C   0  0  0  0  0  0  0  0  0  0  0  0
   18.3969   -7.7969  -15.7207 C   0  0  0  0  0  0  0  0  0  0  0  0
   18.4611   -8.4213  -16.8107 O   0  0  0  0  0  0  0  0  0  0  0  0
   21.4198   -5.7479  -16.2616 C   0  0  0  0  0  0  0  0  0  0  0  0
   22.5230   -5.7169  -15.6502 O   0  0  0  0  0  0  0  0  0  0  0  0
   17.2816   -8.0434  -14.9353 O   0  0  0  0  0  0  0  0  0  0  0  0
   20.9927   -4.5660  -16.8481 O   0  0  0  0  0  0  0  0  0  0  0  0
  1  2  1  0
  3  2  1  0
  4  3  1  0
  5  6  1  1
  5  4  1  0
  7  5  1  0
  8  7  2  0
 10  9  1  0
 10 11  1  0
 13 12  1  6
 12 11  1  0
 13 14  1  0
 14  7  1  0
 15 17  1  0
 15 13  1  0
 16 15  2  0
 18 19  1  1
 18 22  1  0
 18 17  1  0
 20 24  1  0
 20 19  1  0
 21 20  2  0
 22 25  1  0
 23 22  2  0
M  END
$$$$
