MMD.pdb
     RDKit          3D

 25 24  0  0  1  0  0  0  0  0999 V2000
   26.8487  -18.7290  -18.4086 C   0  0  0  0  0  0  0  0  0  0  0  0
   27.9169  -17.5120  -17.6443 S   0  0  0  0  0  0  0  0  0  0  0  0
   28.4276  -17.9830  -15.9760 C   0  0  0  0  0  0  0  0  0  0  0  0
   27.4036  -18.9168  -15.4011 C   0  0  0  0  0  0  0  0  0  0  0  0
   28.0092  -20.0988  -14.6946 C   0  0  2  0  0  0  0  0  0  0  0  0
   28.6353  -20.9646  -15.6545 N   0  0  0  0  0  0  0  0  0  0  0  0
   26.8792  -20.7962  -13.9862 C   0  0  0  0  0  0  0  0  0  0  0  0
   26.3761  -21.8334  -14.4871 O   0  0  0  0  0  0  0  0  0  0  0  0
   25.2702  -20.3473   -7.3856 C   0  0  0  0  0  0  0  0  0  0  0  0
   26.8355  -20.3820   -8.2658 S   0  0  0  0  0  0  0  0  0  0  0  0
   26.7005  -21.3129   -9.8555 C   0  0  0  0  0  0  0  0  0  0  0  0
   25.5192  -20.7616  -10.5514 C   0  0  0  0  0  0  0  0  0  0  0  0
   25.3472  -21.0633  -11.9946 C   0  0  2  0  0  0  0  0  0  0  0  0
   26.3689  -20.3010  -12.7566 N   0  0  0  0  0  0  0  0  0  0  0  0
   24.0428  -20.7388  -12.5891 C   0  0  0  0  0  0  0  0  0  0  0  0
   23.8446  -19.5094  -12.9132 O   0  0  0  0  0  0  0  0  0  0  0  0
   22.9922  -21.6555  -12.8397 N   0  0  0  0  0  0  0  0  0  0  0  0
   21.7291  -21.2806  -13.4461 C   0  0  1  0  0  0  0  0  0  0  0  0
   21.1544  -22.3805  -14.2846 C   0  0  0  0  0  0  0  0  0  0  0  0
   21.7731  -22.3646  -15.6230 C   0  0  0  0  0  0  0  0  0  0  0  0
   22.5723  -21.4384  -15.9151 O   0  0  0  0  0  0  0  0  0  0  0  0
   20.7694  -20.9574  -12.3784 C   0  0  0  0  0  0  0  0  0  0  0  0
   20.9190  -21.2864  -11.1697 O   0  0  0  0  0  0  0  0  0  0  0  0
   21.5396  -23.3098  -16.6098 O   0  0  0  0  0  0  0  0  0  0  0  0
   19.6223  -20.2472  -12.6993 O   0  0  0  0  0  0  0  0  0  0  0  0
  1  2  1  0
  3  2  1  0
  4  3  1  0
  5  6  1  6
  5  4  1  0
  7  5  1  0
  8  7  2  0
 10  9  1  0
 10 11  1  0
 13 12  1  1
 12 11  1  0
 13 14  1  0
 14  7  1  0
 15 17  1  0
 15 13  1  0
 16 15  2  0
 18 19  1  1
 18 22  1  0
 18 17  1  0
 20 24  1  0
 20 19  1  0
 21 20  2  0
 22 25  1  0
 23 22  2  0
M  END
$$$$
