GYW.pdb
     RDKit          3D

 31 33  0  0  1  0  0  0  0  0999 V2000
    7.1235  -12.3711   19.5930 N   0  0  0  0  0  0  0  0  0  0  0  0
    7.8057  -13.6576   19.5190 C   0  0  0  0  0  0  0  0  0  0  0  0
    7.7200  -14.3585   20.8302 C   0  0  0  0  0  0  0  0  0  0  0  0
    7.4930  -13.7648   21.9070 O   0  0  0  0  0  0  0  0  0  0  0  0
    7.3287  -20.7973   26.8163 O   0  0  0  0  0  0  0  0  0  0  0  0
    7.2998  -20.0727   25.6270 C   0  0  0  0  0  0  0  0  0  0  0  0
    8.4391  -20.1430   24.8464 C   0  0  0  0  0  0  0  0  0  0  0  0
    8.4306  -19.4349   23.6687 C   0  0  0  0  0  0  0  0  0  0  0  0
    7.3625  -18.6733   23.2370 C   0  0  0  0  0  0  0  0  0  0  0  0
    7.3959  -17.9157   21.9554 C   0  0  0  0  0  0  0  0  0  0  0  0
    7.8181  -16.5078   22.1216 C   0  0  2  0  0  0  0  0  0  0  0  0
    7.8981  -15.7565   20.8967 N   0  0  0  0  0  0  0  0  0  0  0  0
    9.0991  -16.3676   22.8385 C   0  0  0  0  0  0  0  0  0  0  0  0
   10.2306  -16.5244   22.3014 O   0  0  0  0  0  0  0  0  0  0  0  0
    6.2479  -18.6375   24.0554 C   0  0  0  0  0  0  0  0  0  0  0  0
    6.2261  -19.3295   25.2303 C   0  0  0  0  0  0  0  0  0  0  0  0
    9.0992  -16.0395   24.2058 N   0  0  0  0  0  0  0  0  0  0  0  0
   10.3749  -15.8285   24.9428 C   0  0  1  0  0  0  0  0  0  0  0  0
   10.0486  -14.8142   25.9806 C   0  0  0  0  0  0  0  0  0  0  0  0
    8.6219  -14.5442   26.1093 C   0  0  0  0  0  0  0  0  0  0  0  0
    7.6799  -15.4818   26.4505 C   0  0  0  0  0  0  0  0  0  0  0  0
    6.4877  -14.8870   26.4293 N   0  0  0  0  0  0  0  0  0  0  0  0
    6.6333  -13.5858   26.0836 C   0  0  0  0  0  0  0  0  0  0  0  0
    5.6982  -12.5568   25.9429 C   0  0  0  0  0  0  0  0  0  0  0  0
    6.0951  -11.2918   25.5996 C   0  0  0  0  0  0  0  0  0  0  0  0
    7.4454  -11.0892   25.4026 C   0  0  0  0  0  0  0  0  0  0  0  0
    8.3614  -12.0746   25.5341 C   0  0  0  0  0  0  0  0  0  0  0  0
    7.9729  -13.3621   25.8810 C   0  0  0  0  0  0  0  0  0  0  0  0
   10.7609  -17.1163   25.5071 C   0  0  0  0  0  0  0  0  0  0  0  0
   11.9881  -17.3694   26.1126 O   0  0  0  0  0  0  0  0  0  0  0  0
    9.9653  -18.1056   25.4645 O   0  0  0  0  0  0  0  0  0  0  0  0
  1  2  1  0
  3  4  2  0
  3  2  1  0
  6  5  1  0
  7  6  2  0
  8  7  1  0
  9 15  1  0
  9  8  2  0
 10  9  1  0
 11 10  1  6
 11 12  1  0
 12  3  1  0
 13 17  1  0
 13 11  1  0
 14 13  2  0
 15 16  2  0
 16  6  1  0
 18 17  1  0
 18 29  1  0
 18 19  1  1
 20 28  1  0
 20 19  1  0
 21 20  2  0
 22 21  1  0
 22 23  1  0
 23 28  2  0
 24 23  1  0
 24 25  2  0
 25 26  1  0
 26 27  2  0
 28 27  1  0
 29 30  1  0
 31 29  2  0
M  END
$$$$
