GYW.pdb
     RDKit          3D

 31 33  0  0  1  0  0  0  0  0999 V2000
   10.1176  -19.2354   19.6896 N   0  0  0  0  0  0  0  0  0  0  0  0
    9.2206  -18.6992   20.7063 C   0  0  0  0  0  0  0  0  0  0  0  0
    9.7572  -17.4152   21.2365 C   0  0  0  0  0  0  0  0  0  0  0  0
   10.9095  -17.0012   20.9827 O   0  0  0  0  0  0  0  0  0  0  0  0
    7.1675  -13.6191   16.7889 O   0  0  0  0  0  0  0  0  0  0  0  0
    7.5075  -13.7361   18.1347 C   0  0  0  0  0  0  0  0  0  0  0  0
    6.7414  -14.6139   18.8795 C   0  0  0  0  0  0  0  0  0  0  0  0
    7.0609  -14.7437   20.2098 C   0  0  0  0  0  0  0  0  0  0  0  0
    8.0876  -14.0545   20.8248 C   0  0  0  0  0  0  0  0  0  0  0  0
    8.3978  -14.2198   22.2719 C   0  0  0  0  0  0  0  0  0  0  0  0
    9.3637  -15.3074   22.5403 C   0  0  2  0  0  0  0  0  0  0  0  0
    8.9552  -16.6035   22.0663 N   0  0  0  0  0  0  0  0  0  0  0  0
    9.7234  -15.4248   23.9655 C   0  0  0  0  0  0  0  0  0  0  0  0
   10.3864  -14.5587   24.6009 O   0  0  0  0  0  0  0  0  0  0  0  0
    8.8226  -13.1895   20.0342 C   0  0  0  0  0  0  0  0  0  0  0  0
    8.5297  -13.0391   18.7109 C   0  0  0  0  0  0  0  0  0  0  0  0
    9.3198  -16.5577   24.6942 N   0  0  0  0  0  0  0  0  0  0  0  0
    9.6602  -16.7023   26.1358 C   0  0  1  0  0  0  0  0  0  0  0  0
    8.3524  -16.9062   26.8144 C   0  0  0  0  0  0  0  0  0  0  0  0
    7.3995  -15.8264   26.5885 C   0  0  0  0  0  0  0  0  0  0  0  0
    6.1754  -15.9814   25.9880 C   0  0  0  0  0  0  0  0  0  0  0  0
    5.6028  -14.7804   25.9157 N   0  0  0  0  0  0  0  0  0  0  0  0
    6.4253  -13.8498   26.4557 C   0  0  0  0  0  0  0  0  0  0  0  0
    6.2728  -12.4717   26.6303 C   0  0  0  0  0  0  0  0  0  0  0  0
    7.2522  -11.7298   27.2353 C   0  0  0  0  0  0  0  0  0  0  0  0
    8.3800  -12.4033   27.6567 C   0  0  0  0  0  0  0  0  0  0  0  0
    8.5421  -13.7354   27.4940 C   0  0  0  0  0  0  0  0  0  0  0  0
    7.5574  -14.4998   26.8815 C   0  0  0  0  0  0  0  0  0  0  0  0
   10.5475  -17.8535   26.2525 C   0  0  0  0  0  0  0  0  0  0  0  0
   10.9704  -18.6281   25.1765 O   0  0  0  0  0  0  0  0  0  0  0  0
   10.9868  -18.2188   27.3869 O   0  0  0  0  0  0  0  0  0  0  0  0
  1  2  1  0
  3  4  2  0
  3  2  1  0
  6  5  1  0
  7  6  2  0
  8  7  1  0
  9 15  1  0
  9  8  2  0
 10  9  1  0
 11 10  1  1
 11 12  1  0
 12  3  1  0
 13 17  1  0
 13 11  1  0
 14 13  2  0
 15 16  2  0
 16  6  1  0
 18 17  1  0
 18 29  1  0
 18 19  1  1
 20 28  1  0
 20 19  1  0
 21 20  2  0
 22 21  1  0
 22 23  1  0
 23 28  2  0
 24 23  1  0
 24 25  2  0
 25 26  1  0
 26 27  2  0
 28 27  1  0
 29 30  1  0
 31 29  2  0
M  END
$$$$
