GYW.pdb
     RDKit          3D

 31 33  0  0  1  0  0  0  0  0999 V2000
    7.2292  -13.2103   19.2217 N   0  0  0  0  0  0  0  0  0  0  0  0
    8.4195  -14.0517   19.1924 C   0  0  0  0  0  0  0  0  0  0  0  0
    8.2955  -15.1489   20.1917 C   0  0  0  0  0  0  0  0  0  0  0  0
    7.4064  -15.1733   21.0705 O   0  0  0  0  0  0  0  0  0  0  0  0
    9.9536  -22.4712   24.7885 O   0  0  0  0  0  0  0  0  0  0  0  0
    9.9477  -21.4957   23.7942 C   0  0  0  0  0  0  0  0  0  0  0  0
    8.7585  -21.3383   23.1063 C   0  0  0  0  0  0  0  0  0  0  0  0
    8.7320  -20.3807   22.1211 C   0  0  0  0  0  0  0  0  0  0  0  0
    9.8123  -19.5856   21.7923 C   0  0  0  0  0  0  0  0  0  0  0  0
    9.7437  -18.5621   20.7128 C   0  0  0  0  0  0  0  0  0  0  0  0
    9.2369  -17.2539   21.1816 C   0  0  2  0  0  0  0  0  0  0  0  0
    9.2065  -16.2261   20.1746 N   0  0  0  0  0  0  0  0  0  0  0  0
    9.9661  -16.7360   22.3540 C   0  0  0  0  0  0  0  0  0  0  0  0
   11.0215  -16.0472   22.2824 O   0  0  0  0  0  0  0  0  0  0  0  0
   10.9773  -19.7839   22.5112 C   0  0  0  0  0  0  0  0  0  0  0  0
   11.0347  -20.7267   23.4949 C   0  0  0  0  0  0  0  0  0  0  0  0
    9.4855  -17.0060   23.6476 N   0  0  0  0  0  0  0  0  0  0  0  0
   10.1172  -16.3864   24.8442 C   0  0  1  0  0  0  0  0  0  0  0  0
    9.7174  -14.9550   24.7843 C   0  0  0  0  0  0  0  0  0  0  0  0
    8.3406  -14.7125   25.1973 C   0  0  0  0  0  0  0  0  0  0  0  0
    7.3306  -15.6383   25.1214 C   0  0  0  0  0  0  0  0  0  0  0  0
    6.2103  -15.0537   25.5443 N   0  0  0  0  0  0  0  0  0  0  0  0
    6.4690  -13.7711   25.8937 C   0  0  0  0  0  0  0  0  0  0  0  0
    5.6416  -12.7679   26.4055 C   0  0  0  0  0  0  0  0  0  0  0  0
    6.1459  -11.5314   26.7093 C   0  0  0  0  0  0  0  0  0  0  0  0
    7.4925  -11.3306   26.4871 C   0  0  0  0  0  0  0  0  0  0  0  0
    8.3050  -12.2907   25.9919 C   0  0  0  0  0  0  0  0  0  0  0  0
    7.8070  -13.5488   25.6787 C   0  0  0  0  0  0  0  0  0  0  0  0
    9.5871  -17.0769   26.0138 C   0  0  0  0  0  0  0  0  0  0  0  0
    8.5929  -18.0494   25.9649 O   0  0  0  0  0  0  0  0  0  0  0  0
   10.0219  -16.8069   27.1764 O   0  0  0  0  0  0  0  0  0  0  0  0
  1  2  1  0
  3  4  2  0
  3  2  1  0
  6  5  1  0
  7  6  2  0
  8  7  1  0
  9 15  1  0
  9  8  2  0
 10  9  1  0
 11 10  1  6
 11 12  1  0
 12  3  1  0
 13 17  1  0
 13 11  1  0
 14 13  2  0
 15 16  2  0
 16  6  1  0
 18 17  1  0
 18 29  1  0
 18 19  1  1
 20 28  1  0
 20 19  1  0
 21 20  2  0
 22 21  1  0
 22 23  1  0
 23 28  2  0
 24 23  1  0
 24 25  2  0
 25 26  1  0
 26 27  2  0
 28 27  1  0
 29 30  1  0
 31 29  2  0
M  END
$$$$
