GYW.pdb
     RDKit          3D

 31 33  0  0  1  0  0  0  0  0999 V2000
    4.2625  -21.1192   21.1622 N   0  0  0  0  0  0  0  0  0  0  0  0
    4.5005  -20.2562   22.3130 C   0  0  0  0  0  0  0  0  0  0  0  0
    5.5854  -19.2830   22.0072 C   0  0  0  0  0  0  0  0  0  0  0  0
    6.7981  -19.5871   22.0218 O   0  0  0  0  0  0  0  0  0  0  0  0
    9.8771  -12.2815   18.9831 O   0  0  0  0  0  0  0  0  0  0  0  0
    8.8537  -13.1111   19.4356 C   0  0  0  0  0  0  0  0  0  0  0  0
    8.6283  -14.2560   18.6935 C   0  0  0  0  0  0  0  0  0  0  0  0
    7.6227  -15.0879   19.1234 C   0  0  0  0  0  0  0  0  0  0  0  0
    6.8434  -14.8408   20.2365 C   0  0  0  0  0  0  0  0  0  0  0  0
    5.7585  -15.7662   20.6658 C   0  0  0  0  0  0  0  0  0  0  0  0
    6.2561  -16.9371   21.4204 C   0  0  2  0  0  0  0  0  0  0  0  0
    5.2654  -17.9479   21.6819 N   0  0  0  0  0  0  0  0  0  0  0  0
    6.8989  -16.5737   22.6969 C   0  0  0  0  0  0  0  0  0  0  0  0
    6.3075  -16.5763   23.8121 O   0  0  0  0  0  0  0  0  0  0  0  0
    7.1106  -13.6819   20.9430 C   0  0  0  0  0  0  0  0  0  0  0  0
    8.1021  -12.8363   20.5411 C   0  0  0  0  0  0  0  0  0  0  0  0
    8.2532  -16.1956   22.7113 N   0  0  0  0  0  0  0  0  0  0  0  0
    8.9248  -15.8012   23.9794 C   0  0  1  0  0  0  0  0  0  0  0  0
    7.8132  -15.5749   24.9414 C   0  0  0  0  0  0  0  0  0  0  0  0
    8.1616  -14.6847   26.0420 C   0  0  0  0  0  0  0  0  0  0  0  0
    9.1423  -14.9382   26.9676 C   0  0  0  0  0  0  0  0  0  0  0  0
    9.1482  -13.9311   27.8401 N   0  0  0  0  0  0  0  0  0  0  0  0
    8.1955  -13.0296   27.5026 C   0  0  0  0  0  0  0  0  0  0  0  0
    7.8260  -11.8140   28.0845 C   0  0  0  0  0  0  0  0  0  0  0  0
    6.8276  -11.0514   27.5393 C   0  0  0  0  0  0  0  0  0  0  0  0
    6.2148  -11.5382   26.4032 C   0  0  0  0  0  0  0  0  0  0  0  0
    6.5607  -12.7124   25.8296 C   0  0  0  0  0  0  0  0  0  0  0  0
    7.5707  -13.4962   26.3723 C   0  0  0  0  0  0  0  0  0  0  0  0
    9.7947  -16.9062   24.3646 C   0  0  0  0  0  0  0  0  0  0  0  0
    9.4784  -18.2498   24.1875 O   0  0  0  0  0  0  0  0  0  0  0  0
   10.9220  -16.6833   24.9057 O   0  0  0  0  0  0  0  0  0  0  0  0
  1  2  1  0
  3  4  2  0
  3  2  1  0
  6  5  1  0
  7  6  2  0
  8  7  1  0
  9 15  1  0
  9  8  2  0
 10  9  1  0
 11 10  1  1
 11 12  1  0
 12  3  1  0
 13 17  1  0
 13 11  1  0
 14 13  2  0
 15 16  2  0
 16  6  1  0
 18 17  1  0
 18 29  1  0
 18 19  1  1
 20 28  1  0
 20 19  1  0
 21 20  2  0
 22 21  1  0
 22 23  1  0
 23 28  2  0
 24 23  1  0
 24 25  2  0
 25 26  1  0
 26 27  2  0
 28 27  1  0
 29 30  1  0
 31 29  2  0
M  END
$$$$
