GYW.pdb
     RDKit          3D

 31 33  0  0  1  0  0  0  0  0999 V2000
    8.7369  -19.5066   19.7312 N   0  0  0  0  0  0  0  0  0  0  0  0
    8.1352  -18.6581   20.7528 C   0  0  0  0  0  0  0  0  0  0  0  0
    9.0818  -17.5763   21.1422 C   0  0  0  0  0  0  0  0  0  0  0  0
   10.2678  -17.5338   20.7485 O   0  0  0  0  0  0  0  0  0  0  0  0
    7.1285  -12.9961   16.8450 O   0  0  0  0  0  0  0  0  0  0  0  0
    7.5693  -13.2420   18.1433 C   0  0  0  0  0  0  0  0  0  0  0  0
    6.7093  -13.9659   18.9487 C   0  0  0  0  0  0  0  0  0  0  0  0
    7.1258  -14.2192   20.2335 C   0  0  0  0  0  0  0  0  0  0  0  0
    8.3352  -13.7947   20.7476 C   0  0  0  0  0  0  0  0  0  0  0  0
    8.7468  -14.0856   22.1489 C   0  0  0  0  0  0  0  0  0  0  0  0
    9.4535  -15.3772   22.2923 C   0  0  2  0  0  0  0  0  0  0  0  0
    8.6535  -16.5356   21.9932 N   0  0  0  0  0  0  0  0  0  0  0  0
   10.0602  -15.5613   23.6237 C   0  0  0  0  0  0  0  0  0  0  0  0
   11.0198  -14.8701   24.0650 O   0  0  0  0  0  0  0  0  0  0  0  0
    9.1576  -13.0746   19.8999 C   0  0  0  0  0  0  0  0  0  0  0  0
    8.7721  -12.8072   18.6194 C   0  0  0  0  0  0  0  0  0  0  0  0
    9.5650  -16.5588   24.4823 N   0  0  0  0  0  0  0  0  0  0  0  0
   10.1142  -16.7296   25.8549 C   0  0  1  0  0  0  0  0  0  0  0  0
    9.7513  -15.4747   26.5662 C   0  0  0  0  0  0  0  0  0  0  0  0
    8.3626  -15.0737   26.3774 C   0  0  0  0  0  0  0  0  0  0  0  0
    7.3539  -15.9195   25.9902 C   0  0  0  0  0  0  0  0  0  0  0  0
    6.2381  -15.1991   25.8817 N   0  0  0  0  0  0  0  0  0  0  0  0
    6.4982  -13.9064   26.1902 C   0  0  0  0  0  0  0  0  0  0  0  0
    5.6676  -12.7837   26.2419 C   0  0  0  0  0  0  0  0  0  0  0  0
    6.1642  -11.5615   26.6100 C   0  0  0  0  0  0  0  0  0  0  0  0
    7.5064  -11.4972   26.9220 C   0  0  0  0  0  0  0  0  0  0  0  0
    8.3222  -12.5741   26.8758 C   0  0  0  0  0  0  0  0  0  0  0  0
    7.8323  -13.8192   26.5035 C   0  0  0  0  0  0  0  0  0  0  0  0
    9.4791  -17.9114   26.4259 C   0  0  0  0  0  0  0  0  0  0  0  0
    8.5668  -18.7144   25.7480 O   0  0  0  0  0  0  0  0  0  0  0  0
    9.7356  -18.2718   27.6166 O   0  0  0  0  0  0  0  0  0  0  0  0
  1  2  1  0
  3  4  2  0
  3  2  1  0
  6  5  1  0
  7  6  2  0
  8  7  1  0
  9 15  1  0
  9  8  2  0
 10  9  1  0
 11 10  1  1
 11 12  1  0
 12  3  1  0
 13 17  1  0
 13 11  1  0
 14 13  2  0
 15 16  2  0
 16  6  1  0
 18 17  1  0
 18 29  1  0
 18 19  1  1
 20 28  1  0
 20 19  1  0
 21 20  2  0
 22 21  1  0
 22 23  1  0
 23 28  2  0
 24 23  1  0
 24 25  2  0
 25 26  1  0
 26 27  2  0
 28 27  1  0
 29 30  1  0
 31 29  2  0
M  END
$$$$
