GYW.pdb
     RDKit          3D

 31 33  0  0  1  0  0  0  0  0999 V2000
    8.0704  -16.3265   17.8275 N   0  0  0  0  0  0  0  0  0  0  0  0
    9.1329  -15.8743   18.7177 C   0  0  0  0  0  0  0  0  0  0  0  0
    9.1197  -16.6705   19.9762 C   0  0  0  0  0  0  0  0  0  0  0  0
    8.0821  -17.1867   20.4455 O   0  0  0  0  0  0  0  0  0  0  0  0
    9.9084  -22.5205   17.9664 O   0  0  0  0  0  0  0  0  0  0  0  0
   10.2099  -21.6181   18.9838 C   0  0  0  0  0  0  0  0  0  0  0  0
   11.0206  -20.5549   18.6307 C   0  0  0  0  0  0  0  0  0  0  0  0
   11.3298  -19.6532   19.6205 C   0  0  0  0  0  0  0  0  0  0  0  0
   10.8798  -19.7557   20.9222 C   0  0  0  0  0  0  0  0  0  0  0  0
   11.2431  -18.7590   21.9672 C   0  0  0  0  0  0  0  0  0  0  0  0
   10.3735  -17.5624   21.9585 C   0  0  2  0  0  0  0  0  0  0  0  0
   10.3157  -16.8716   20.6972 N   0  0  0  0  0  0  0  0  0  0  0  0
   10.7196  -16.5866   23.0086 C   0  0  0  0  0  0  0  0  0  0  0  0
   11.4591  -15.5806   22.8228 O   0  0  0  0  0  0  0  0  0  0  0  0
   10.0721  -20.8379   21.2218 C   0  0  0  0  0  0  0  0  0  0  0  0
    9.7477  -21.7498   20.2612 C   0  0  0  0  0  0  0  0  0  0  0  0
   10.2126  -16.7549   24.3094 N   0  0  0  0  0  0  0  0  0  0  0  0
   10.4998  -15.7596   25.3780 C   0  0  1  0  0  0  0  0  0  0  0  0
    9.8290  -14.5124   24.9231 C   0  0  0  0  0  0  0  0  0  0  0  0
    8.4461  -14.3938   25.3689 C   0  0  0  0  0  0  0  0  0  0  0  0
    7.5413  -15.4253   25.3821 C   0  0  0  0  0  0  0  0  0  0  0  0
    6.3764  -14.9391   25.8089 N   0  0  0  0  0  0  0  0  0  0  0  0
    6.5036  -13.6171   26.0739 C   0  0  0  0  0  0  0  0  0  0  0  0
    5.5865  -12.6786   26.5547 C   0  0  0  0  0  0  0  0  0  0  0  0
    5.9614  -11.3788   26.7684 C   0  0  0  0  0  0  0  0  0  0  0  0
    7.2713  -11.0490   26.4883 C   0  0  0  0  0  0  0  0  0  0  0  0
    8.1693  -11.9454   26.0219 C   0  0  0  0  0  0  0  0  0  0  0  0
    7.8027  -13.2664   25.8000 C   0  0  0  0  0  0  0  0  0  0  0  0
    9.9400  -16.2878   26.6163 C   0  0  0  0  0  0  0  0  0  0  0  0
    9.2320  -17.4823   26.7083 O   0  0  0  0  0  0  0  0  0  0  0  0
   10.0736  -15.6535   27.7086 O   0  0  0  0  0  0  0  0  0  0  0  0
  1  2  1  0
  3  4  2  0
  3  2  1  0
  6  5  1  0
  7  6  2  0
  8  7  1  0
  9 15  1  0
  9  8  2  0
 10  9  1  0
 11 10  1  6
 11 12  1  0
 12  3  1  0
 13 17  1  0
 13 11  1  0
 14 13  2  0
 15 16  2  0
 16  6  1  0
 18 17  1  0
 18 29  1  0
 18 19  1  6
 20 28  1  0
 20 19  1  0
 21 20  2  0
 22 21  1  0
 22 23  1  0
 23 28  2  0
 24 23  1  0
 24 25  2  0
 25 26  1  0
 26 27  2  0
 28 27  1  0
 29 30  1  0
 31 29  2  0
M  END
$$$$
