GYW.pdb
     RDKit          3D

 31 33  0  0  1  0  0  0  0  0999 V2000
    6.8759  -12.8668   18.7303 N   0  0  0  0  0  0  0  0  0  0  0  0
    7.7706  -13.9811   19.0198 C   0  0  0  0  0  0  0  0  0  0  0  0
    7.3235  -14.6899   20.2509 C   0  0  0  0  0  0  0  0  0  0  0  0
    6.5491  -14.1785   21.0888 O   0  0  0  0  0  0  0  0  0  0  0  0
    2.3340  -19.0157   18.8709 O   0  0  0  0  0  0  0  0  0  0  0  0
    3.5062  -18.7835   19.5866 C   0  0  0  0  0  0  0  0  0  0  0  0
    4.6864  -18.9291   18.8807 C   0  0  0  0  0  0  0  0  0  0  0  0
    5.8544  -18.7044   19.5690 C   0  0  0  0  0  0  0  0  0  0  0  0
    5.9048  -18.3482   20.9024 C   0  0  0  0  0  0  0  0  0  0  0  0
    7.1931  -18.1191   21.6134 C   0  0  0  0  0  0  0  0  0  0  0  0
    7.5330  -16.6866   21.7564 C   0  0  2  0  0  0  0  0  0  0  0  0
    7.7752  -16.0002   20.5148 N   0  0  0  0  0  0  0  0  0  0  0  0
    8.6808  -16.4496   22.6513 C   0  0  0  0  0  0  0  0  0  0  0  0
    9.8317  -16.1185   22.2522 O   0  0  0  0  0  0  0  0  0  0  0  0
    4.6958  -18.2160   21.5612 C   0  0  0  0  0  0  0  0  0  0  0  0
    3.5199  -18.4325   20.9053 C   0  0  0  0  0  0  0  0  0  0  0  0
    8.5208  -16.5918   24.0411 N   0  0  0  0  0  0  0  0  0  0  0  0
    9.5984  -16.1815   24.9820 C   0  0  1  0  0  0  0  0  0  0  0  0
    8.9080  -15.9842   26.2846 C   0  0  0  0  0  0  0  0  0  0  0  0
    7.8177  -15.0181   26.2305 C   0  0  0  0  0  0  0  0  0  0  0  0
    6.4962  -15.3447   26.0579 C   0  0  0  0  0  0  0  0  0  0  0  0
    5.7987  -14.2100   26.0173 N   0  0  0  0  0  0  0  0  0  0  0  0
    6.6356  -13.1549   26.1603 C   0  0  0  0  0  0  0  0  0  0  0  0
    6.3901  -11.7798   26.2022 C   0  0  0  0  0  0  0  0  0  0  0  0
    7.4160  -10.8904   26.3817 C   0  0  0  0  0  0  0  0  0  0  0  0
    8.6849  -11.4145   26.5168 C   0  0  0  0  0  0  0  0  0  0  0  0
    8.9379  -12.7417   26.4776 C   0  0  0  0  0  0  0  0  0  0  0  0
    7.9074  -13.6549   26.2954 C   0  0  0  0  0  0  0  0  0  0  0  0
   10.5743  -17.2644   25.0134 C   0  0  0  0  0  0  0  0  0  0  0  0
   11.8992  -17.1128   25.4110 O   0  0  0  0  0  0  0  0  0  0  0  0
   10.2474  -18.4398   24.6596 O   0  0  0  0  0  0  0  0  0  0  0  0
  1  2  1  0
  3  4  2  0
  3  2  1  0
  6  5  1  0
  7  6  2  0
  8  7  1  0
  9 15  1  0
  9  8  2  0
 10  9  1  0
 11 10  1  6
 11 12  1  0
 12  3  1  0
 13 17  1  0
 13 11  1  0
 14 13  2  0
 15 16  2  0
 16  6  1  0
 18 17  1  0
 18 29  1  0
 18 19  1  1
 20 28  1  0
 20 19  1  0
 21 20  2  0
 22 21  1  0
 22 23  1  0
 23 28  2  0
 24 23  1  0
 24 25  2  0
 25 26  1  0
 26 27  2  0
 28 27  1  0
 29 30  1  0
 31 29  2  0
M  END
$$$$
