GYW.pdb
     RDKit          3D

 31 33  0  0  1  0  0  0  0  0999 V2000
    9.0416  -19.5085   19.9006 N   0  0  0  0  0  0  0  0  0  0  0  0
    8.4202  -18.6955   20.9392 C   0  0  0  0  0  0  0  0  0  0  0  0
    9.2920  -17.5344   21.2704 C   0  0  0  0  0  0  0  0  0  0  0  0
   10.4629  -17.4186   20.8475 O   0  0  0  0  0  0  0  0  0  0  0  0
    7.2054  -13.1440   16.9533 O   0  0  0  0  0  0  0  0  0  0  0  0
    7.5739  -13.3881   18.2743 C   0  0  0  0  0  0  0  0  0  0  0  0
    8.8245  -12.9324   18.6490 C   0  0  0  0  0  0  0  0  0  0  0  0
    9.2069  -13.1635   19.9485 C   0  0  0  0  0  0  0  0  0  0  0  0
    8.4194  -13.8147   20.8776 C   0  0  0  0  0  0  0  0  0  0  0  0
    8.8740  -14.0501   22.2760 C   0  0  0  0  0  0  0  0  0  0  0  0
    9.5796  -15.3384   22.4502 C   0  0  2  0  0  0  0  0  0  0  0  0
    8.8058  -16.4993   22.0967 N   0  0  0  0  0  0  0  0  0  0  0  0
   10.1098  -15.5294   23.8129 C   0  0  0  0  0  0  0  0  0  0  0  0
   11.0207  -14.8198   24.3229 O   0  0  0  0  0  0  0  0  0  0  0  0
    7.1777  -14.2498   20.4507 C   0  0  0  0  0  0  0  0  0  0  0  0
    6.7700  -14.0355   19.1672 C   0  0  0  0  0  0  0  0  0  0  0  0
    9.5926  -16.5555   24.6235 N   0  0  0  0  0  0  0  0  0  0  0  0
   10.0995  -16.7680   26.0066 C   0  0  1  0  0  0  0  0  0  0  0  0
    9.7027  -15.5407   26.7473 C   0  0  0  0  0  0  0  0  0  0  0  0
    8.3296  -15.1213   26.4953 C   0  0  0  0  0  0  0  0  0  0  0  0
    7.3355  -15.9472   26.0343 C   0  0  0  0  0  0  0  0  0  0  0  0
    6.2335  -15.2132   25.8849 N   0  0  0  0  0  0  0  0  0  0  0  0
    6.4880  -13.9310   26.2387 C   0  0  0  0  0  0  0  0  0  0  0  0
    5.6658  -12.8016   26.2743 C   0  0  0  0  0  0  0  0  0  0  0  0
    6.1528  -11.5938   26.6983 C   0  0  0  0  0  0  0  0  0  0  0  0
    7.4770  -11.5507   27.0826 C   0  0  0  0  0  0  0  0  0  0  0  0
    8.2846  -12.6342   27.0528 C   0  0  0  0  0  0  0  0  0  0  0  0
    7.8044  -13.8650   26.6243 C   0  0  0  0  0  0  0  0  0  0  0  0
    9.4574  -17.9734   26.5171 C   0  0  0  0  0  0  0  0  0  0  0  0
    8.5464  -18.7400   25.7968 O   0  0  0  0  0  0  0  0  0  0  0  0
    9.7062  -18.3910   27.6906 O   0  0  0  0  0  0  0  0  0  0  0  0
  1  2  1  0
  3  4  2  0
  3  2  1  0
  6  5  1  0
  7  6  2  0
  8  7  1  0
  9 15  1  0
  9  8  2  0
 10  9  1  0
 11 10  1  1
 11 12  1  0
 12  3  1  0
 13 17  1  0
 13 11  1  0
 14 13  2  0
 15 16  2  0
 16  6  1  0
 18 17  1  0
 18 29  1  0
 18 19  1  1
 20 28  1  0
 20 19  1  0
 21 20  2  0
 22 21  1  0
 22 23  1  0
 23 28  2  0
 24 23  1  0
 24 25  2  0
 25 26  1  0
 26 27  2  0
 28 27  1  0
 29 30  1  0
 31 29  2  0
M  END
$$$$
