PNK.pdb
     RDKit          3D

 25 25  0  0  1  0  0  0  0  0999 V2000
   24.8108  -20.4404  -16.7967 N   0  0  0  0  0  0  0  0  0  0  0  0
   24.5333  -19.4331  -17.7985 C   0  0  0  0  0  0  0  0  0  0  0  0
   25.3541  -18.2188  -17.4857 C   0  0  0  0  0  0  0  0  0  0  0  0
   26.1023  -18.6094  -16.2556 C   0  0  0  0  0  0  0  0  0  0  0  0
   25.2034  -19.6548  -15.6486 C   0  0  1  0  0  0  0  0  0  0  0  0
   24.0045  -19.1148  -15.0031 C   0  0  0  0  0  0  0  0  0  0  0  0
   24.0917  -18.1685  -14.1969 O   0  0  0  0  0  0  0  0  0  0  0  0
   19.4986  -16.9224  -16.5913 N   0  0  0  0  0  0  0  0  0  0  0  0
   20.7279  -17.1009  -17.2484 C   0  0  0  0  0  0  0  0  0  0  0  0
   20.9259  -16.4172  -18.3172 O   0  0  0  0  0  0  0  0  0  0  0  0
   21.8248  -17.9844  -16.8558 C   0  0  0  0  0  0  0  0  0  0  0  0
   21.5938  -18.7695  -15.5926 C   0  0  2  0  0  0  0  0  0  0  0  0
   22.6891  -19.6186  -15.2438 N   0  0  0  0  0  0  0  0  0  0  0  0
   20.3085  -19.5218  -15.7554 C   0  0  0  0  0  0  0  0  0  0  0  0
   19.2749  -18.9389  -16.1955 O   0  0  0  0  0  0  0  0  0  0  0  0
   20.2952  -20.8956  -15.4014 N   0  0  0  0  0  0  0  0  0  0  0  0
   19.0531  -21.5580  -14.9868 C   0  0  1  0  0  0  0  0  0  0  0  0
   19.4176  -22.9463  -14.5278 C   0  0  0  0  0  0  0  0  0  0  0  0
   18.2649  -23.7846  -14.0949 C   0  0  0  0  0  0  0  0  0  0  0  0
   18.6790  -25.1525  -13.6195 C   0  0  0  0  0  0  0  0  0  0  0  0
   17.5031  -26.0020  -13.2211 C   0  0  0  0  0  0  0  0  0  0  0  0
   17.8550  -27.3273  -12.8214 N   0  0  0  0  0  0  0  0  0  0  0  0
   18.3627  -20.7604  -13.9471 C   0  0  0  0  0  0  0  0  0  0  0  0
   19.0333  -20.2144  -13.0418 O   0  0  0  0  0  0  0  0  0  0  0  0
   16.9870  -20.5929  -13.9372 O   0  0  0  0  0  0  0  0  0  0  0  0
  1  2  1  0
  2  3  1  0
  4  3  1  0
  5  1  1  0
  5  4  1  0
  5  6  1  6
  7  6  2  0
  8  9  1  0
  9 11  1  0
 10  9  2  0
 12 11  1  6
 12 13  1  0
 13  6  1  0
 14 12  1  0
 14 15  2  0
 16 14  1  0
 17 16  1  0
 17 18  1  1
 19 18  1  0
 19 20  1  0
 21 22  1  0
 21 20  1  0
 23 17  1  0
 24 23  2  0
 25 23  1  0
M  END
$$$$
