PNK.pdb
     RDKit          3D

 25 25  0  0  1  0  0  0  0  0999 V2000
   18.8494  -24.2237  -14.6574 N   0  0  0  0  0  0  0  0  0  0  0  0
   18.2914  -22.9520  -15.0655 C   0  0  0  0  0  0  0  0  0  0  0  0
   19.3686  -21.9139  -14.9746 C   0  0  0  0  0  0  0  0  0  0  0  0
   20.5544  -22.6811  -14.4944 C   0  0  0  0  0  0  0  0  0  0  0  0
   19.9189  -23.8360  -13.7655 C   0  0  1  0  0  0  0  0  0  0  0  0
   19.3531  -23.4849  -12.4608 C   0  0  0  0  0  0  0  0  0  0  0  0
   20.0301  -22.8532  -11.6269 O   0  0  0  0  0  0  0  0  0  0  0  0
   17.5333  -20.6283  -11.3020 N   0  0  0  0  0  0  0  0  0  0  0  0
   16.3488  -21.3519  -11.0822 C   0  0  0  0  0  0  0  0  0  0  0  0
   15.2434  -20.7024  -11.1538 O   0  0  0  0  0  0  0  0  0  0  0  0
   16.2217  -22.7763  -10.7773 C   0  0  0  0  0  0  0  0  0  0  0  0
   17.5157  -23.5449  -10.7583 C   0  0  2  0  0  0  0  0  0  0  0  0
   18.0251  -23.8309  -12.0625 N   0  0  0  0  0  0  0  0  0  0  0  0
   17.2969  -24.7803   -9.9396 C   0  0  0  0  0  0  0  0  0  0  0  0
   17.0890  -25.8946  -10.5023 O   0  0  0  0  0  0  0  0  0  0  0  0
   17.3315  -24.6540   -8.5269 N   0  0  0  0  0  0  0  0  0  0  0  0
   17.1198  -25.8174   -7.6580 C   0  0  1  0  0  0  0  0  0  0  0  0
   17.8643  -25.5585   -6.3735 C   0  0  0  0  0  0  0  0  0  0  0  0
   17.7282  -26.6278   -5.3456 C   0  0  0  0  0  0  0  0  0  0  0  0
   18.3654  -26.2629   -4.0304 C   0  0  0  0  0  0  0  0  0  0  0  0
   18.0529  -27.2573   -2.9457 C   0  0  0  0  0  0  0  0  0  0  0  0
   18.6845  -26.9701   -1.6973 N   0  0  0  0  0  0  0  0  0  0  0  0
   15.6721  -26.0574   -7.4570 C   0  0  0  0  0  0  0  0  0  0  0  0
   14.8898  -25.0827   -7.3820 O   0  0  0  0  0  0  0  0  0  0  0  0
   15.1434  -27.3337   -7.3474 O   0  0  0  0  0  0  0  0  0  0  0  0
  1  2  1  0
  2  3  1  0
  4  3  1  0
  5  1  1  0
  5  4  1  0
  5  6  1  1
  7  6  2  0
  8  9  1  0
  9 11  1  0
 10  9  2  0
 12 11  1  6
 12 13  1  0
 13  6  1  0
 14 12  1  0
 14 15  2  0
 16 14  1  0
 17 16  1  0
 17 18  1  1
 19 18  1  0
 19 20  1  0
 21 22  1  0
 21 20  1  0
 23 17  1  0
 24 23  2  0
 25 23  1  0
M  END
$$$$
