PNK.pdb
     RDKit          3D

 25 25  0  0  1  0  0  0  0  0999 V2000
   23.7333  -13.6009  -16.7282 N   0  0  0  0  0  0  0  0  0  0  0  0
   24.9686  -12.9111  -17.0337 C   0  0  0  0  0  0  0  0  0  0  0  0
   25.5391  -12.3775  -15.7547 C   0  0  0  0  0  0  0  0  0  0  0  0
   24.5519  -12.8105  -14.7236 C   0  0  0  0  0  0  0  0  0  0  0  0
   23.2828  -12.9389  -15.5248 C   0  0  1  0  0  0  0  0  0  0  0  0
   22.6659  -11.6593  -15.8823 C   0  0  0  0  0  0  0  0  0  0  0  0
   22.8380  -11.1684  -17.0146 O   0  0  0  0  0  0  0  0  0  0  0  0
   17.9663   -8.6836  -16.4623 N   0  0  0  0  0  0  0  0  0  0  0  0
   18.7707   -8.7531  -15.3121 C   0  0  0  0  0  0  0  0  0  0  0  0
   18.7607   -7.7366  -14.5276 O   0  0  0  0  0  0  0  0  0  0  0  0
   19.6304   -9.8599  -14.8951 C   0  0  0  0  0  0  0  0  0  0  0  0
   21.0395   -9.8097  -15.4216 C   0  0  2  0  0  0  0  0  0  0  0  0
   21.8475  -10.9050  -14.9859 N   0  0  0  0  0  0  0  0  0  0  0  0
   21.6170   -8.4797  -15.0443 C   0  0  0  0  0  0  0  0  0  0  0  0
   22.2332   -8.3352  -13.9484 O   0  0  0  0  0  0  0  0  0  0  0  0
   21.4483   -7.4025  -15.9520 N   0  0  0  0  0  0  0  0  0  0  0  0
   22.1175   -6.1153  -15.7310 C   0  0  1  0  0  0  0  0  0  0  0  0
   22.2706   -5.4534  -17.0762 C   0  0  0  0  0  0  0  0  0  0  0  0
   22.8648   -4.0881  -17.0372 C   0  0  0  0  0  0  0  0  0  0  0  0
   23.0320   -3.4808  -18.4054 C   0  0  0  0  0  0  0  0  0  0  0  0
   23.5946   -2.0868  -18.3498 C   0  0  0  0  0  0  0  0  0  0  0  0
   23.6534   -1.4349  -19.6194 N   0  0  0  0  0  0  0  0  0  0  0  0
   21.3572   -5.2962  -14.7590 C   0  0  0  0  0  0  0  0  0  0  0  0
   21.9754   -4.6105  -13.9133 O   0  0  0  0  0  0  0  0  0  0  0  0
   19.9719   -5.2587  -14.7489 O   0  0  0  0  0  0  0  0  0  0  0  0
  1  2  1  0
  2  3  1  0
  4  3  1  0
  5  1  1  0
  5  4  1  0
  5  6  1  6
  7  6  2  0
  8  9  1  0
  9 11  1  0
 10  9  2  0
 12 11  1  1
 12 13  1  0
 13  6  1  0
 14 12  1  0
 14 15  2  0
 16 14  1  0
 17 16  1  0
 17 18  1  6
 19 18  1  0
 19 20  1  0
 21 22  1  0
 21 20  1  0
 23 17  1  0
 24 23  2  0
 25 23  1  0
M  END
$$$$
