PNK.pdb
     RDKit          3D

 25 25  0  0  1  0  0  0  0  0999 V2000
   46.2273  -13.5328   -6.8997 N   0  0  0  0  0  0  0  0  0  0  0  0
   45.5989  -14.8331   -6.9974 C   0  0  0  0  0  0  0  0  0  0  0  0
   46.3040  -15.6184   -8.0615 C   0  0  0  0  0  0  0  0  0  0  0  0
   47.3583  -14.6815   -8.5473 C   0  0  0  0  0  0  0  0  0  0  0  0
   46.7665  -13.3340   -8.2260 C   0  0  1  0  0  0  0  0  0  0  0  0
   45.6874  -12.9216   -9.1267 C   0  0  0  0  0  0  0  0  0  0  0  0
   45.9113  -12.7339  -10.3381 O   0  0  0  0  0  0  0  0  0  0  0  0
   42.3412  -15.7738   -9.2248 N   0  0  0  0  0  0  0  0  0  0  0  0
   42.3052  -14.5987   -9.9947 C   0  0  0  0  0  0  0  0  0  0  0  0
   42.4779  -14.7222  -11.2611 O   0  0  0  0  0  0  0  0  0  0  0  0
   42.0917  -13.2322   -9.5202 C   0  0  0  0  0  0  0  0  0  0  0  0
   43.2968  -12.3335   -9.5932 C   0  0  2  0  0  0  0  0  0  0  0  0
   44.3417  -12.7112   -8.6943 N   0  0  0  0  0  0  0  0  0  0  0  0
   42.8274  -10.9275   -9.3754 C   0  0  0  0  0  0  0  0  0  0  0  0
   41.8875  -10.4491  -10.0750 O   0  0  0  0  0  0  0  0  0  0  0  0
   43.4694  -10.1631   -8.3673 N   0  0  0  0  0  0  0  0  0  0  0  0
   43.1076   -8.7598   -8.1363 C   0  0  1  0  0  0  0  0  0  0  0  0
   43.6294   -8.3811   -6.7743 C   0  0  0  0  0  0  0  0  0  0  0  0
   43.3846   -6.9650   -6.3824 C   0  0  0  0  0  0  0  0  0  0  0  0
   43.8966   -6.6400   -5.0037 C   0  0  0  0  0  0  0  0  0  0  0  0
   43.4823   -5.2681   -4.5462 C   0  0  0  0  0  0  0  0  0  0  0  0
   43.9118   -4.9447   -3.2229 N   0  0  0  0  0  0  0  0  0  0  0  0
   43.6344   -7.9032   -9.2237 C   0  0  0  0  0  0  0  0  0  0  0  0
   44.7558   -8.1561   -9.7199 O   0  0  0  0  0  0  0  0  0  0  0  0
   42.9262   -6.8199   -9.7193 O   0  0  0  0  0  0  0  0  0  0  0  0
  1  2  1  0
  2  3  1  0
  4  3  1  0
  5  1  1  0
  5  4  1  0
  5  6  1  6
  7  6  2  0
  8  9  1  0
  9 11  1  0
 10  9  2  0
 12 11  1  1
 12 13  1  0
 13  6  1  0
 14 12  1  0
 14 15  2  0
 16 14  1  0
 17 16  1  0
 17 18  1  1
 19 18  1  0
 19 20  1  0
 21 22  1  0
 21 20  1  0
 23 17  1  0
 24 23  2  0
 25 23  1  0
M  END
$$$$
