PNK.pdb
     RDKit          3D

 25 25  0  0  1  0  0  0  0  0999 V2000
   16.9397  -13.0884    4.7152 N   0  0  0  0  0  0  0  0  0  0  0  0
   18.2517  -12.6961    5.1842 C   0  0  0  0  0  0  0  0  0  0  0  0
   19.2527  -13.0346    4.1214 C   0  0  0  0  0  0  0  0  0  0  0  0
   18.4226  -13.6354    3.0373 C   0  0  0  0  0  0  0  0  0  0  0  0
   17.2337  -14.1646    3.7960 C   0  0  1  0  0  0  0  0  0  0  0  0
   17.5023  -15.3869    4.5572 C   0  0  0  0  0  0  0  0  0  0  0  0
   18.4194  -16.1575    4.2139 O   0  0  0  0  0  0  0  0  0  0  0  0
   18.8892  -15.6026    8.1095 N   0  0  0  0  0  0  0  0  0  0  0  0
   17.7395  -16.2338    8.6141 C   0  0  0  0  0  0  0  0  0  0  0  0
   17.5468  -16.1741    9.8822 O   0  0  0  0  0  0  0  0  0  0  0  0
   16.7212  -16.9611    7.8576 C   0  0  0  0  0  0  0  0  0  0  0  0
   16.9513  -17.0248    6.3716 C   0  0  2  0  0  0  0  0  0  0  0  0
   16.7549  -15.7719    5.7127 N   0  0  0  0  0  0  0  0  0  0  0  0
   16.0752  -18.1095    5.8235 C   0  0  0  0  0  0  0  0  0  0  0  0
   14.8166  -17.9772    5.8191 O   0  0  0  0  0  0  0  0  0  0  0  0
   16.7035  -19.2760    5.3162 N   0  0  0  0  0  0  0  0  0  0  0  0
   15.9133  -20.3761    4.7514 C   0  0  1  0  0  0  0  0  0  0  0  0
   16.1464  -20.3767    3.2626 C   0  0  0  0  0  0  0  0  0  0  0  0
   15.4155  -21.4381    2.5157 C   0  0  0  0  0  0  0  0  0  0  0  0
   15.6253  -21.3589    1.0263 C   0  0  0  0  0  0  0  0  0  0  0  0
   14.8030  -22.3710    0.2762 C   0  0  0  0  0  0  0  0  0  0  0  0
   14.9765  -22.3226   -1.1407 N   0  0  0  0  0  0  0  0  0  0  0  0
   16.2722  -21.6582    5.4004 C   0  0  0  0  0  0  0  0  0  0  0  0
   17.4148  -21.8024    5.8915 O   0  0  0  0  0  0  0  0  0  0  0  0
   15.3821  -22.7170    5.4862 O   0  0  0  0  0  0  0  0  0  0  0  0
  1  2  1  0
  2  3  1  0
  4  3  1  0
  5  1  1  0
  5  4  1  0
  5  6  1  1
  7  6  2  0
  8  9  1  0
  9 11  1  0
 10  9  2  0
 12 11  1  1
 12 13  1  0
 13  6  1  0
 14 12  1  0
 14 15  2  0
 16 14  1  0
 17 16  1  0
 17 18  1  6
 19 18  1  0
 19 20  1  0
 21 22  1  0
 21 20  1  0
 23 17  1  0
 24 23  2  0
 25 23  1  0
M  END
$$$$
