PNK.pdb
     RDKit          3D

 25 25  0  0  1  0  0  0  0  0999 V2000
   25.7735  -21.5968  -15.2946 N   0  0  0  0  0  0  0  0  0  0  0  0
   25.8243  -20.4210  -16.1373 C   0  0  0  0  0  0  0  0  0  0  0  0
   26.4786  -19.3157  -15.3650 C   0  0  0  0  0  0  0  0  0  0  0  0
   26.7882  -19.9445  -14.0481 C   0  0  0  0  0  0  0  0  0  0  0  0
   25.7561  -21.0383  -13.9614 C   0  0  1  0  0  0  0  0  0  0  0  0
   24.4038  -20.5655  -13.6560 C   0  0  0  0  0  0  0  0  0  0  0  0
   24.1803  -19.9155  -12.6166 O   0  0  0  0  0  0  0  0  0  0  0  0
   22.7525  -18.0692  -16.7389 N   0  0  0  0  0  0  0  0  0  0  0  0
   21.9690  -18.3262  -15.6009 C   0  0  0  0  0  0  0  0  0  0  0  0
   21.8190  -17.3646  -14.7632 O   0  0  0  0  0  0  0  0  0  0  0  0
   21.2942  -19.5752  -15.2508 C   0  0  0  0  0  0  0  0  0  0  0  0
   21.9573  -20.3786  -14.1644 C   0  0  2  0  0  0  0  0  0  0  0  0
   23.2779  -20.8082  -14.5020 N   0  0  0  0  0  0  0  0  0  0  0  0
   21.0475  -21.5194  -13.8249 C   0  0  0  0  0  0  0  0  0  0  0  0
   21.0046  -22.5473  -14.5619 O   0  0  0  0  0  0  0  0  0  0  0  0
   20.2462  -21.4040  -12.6599 N   0  0  0  0  0  0  0  0  0  0  0  0
   19.3809  -22.5064  -12.2246 C   0  0  1  0  0  0  0  0  0  0  0  0
   19.6172  -22.7057  -10.7497 C   0  0  0  0  0  0  0  0  0  0  0  0
   18.8396  -23.8184  -10.1366 C   0  0  0  0  0  0  0  0  0  0  0  0
   19.0582  -23.9392   -8.6512 C   0  0  0  0  0  0  0  0  0  0  0  0
   18.4146  -25.1707   -8.0747 C   0  0  0  0  0  0  0  0  0  0  0  0
   18.5089  -25.2615   -6.6524 N   0  0  0  0  0  0  0  0  0  0  0  0
   17.9668  -22.2173  -12.5569 C   0  0  0  0  0  0  0  0  0  0  0  0
   17.5744  -21.0292  -12.6028 O   0  0  0  0  0  0  0  0  0  0  0  0
   17.0502  -23.2223  -12.8220 O   0  0  0  0  0  0  0  0  0  0  0  0
  1  2  1  0
  2  3  1  0
  4  3  1  0
  5  1  1  0
  5  4  1  0
  5  6  1  6
  7  6  2  0
  8  9  1  0
  9 11  1  0
 10  9  2  0
 12 11  1  6
 12 13  1  0
 13  6  1  0
 14 12  1  0
 14 15  2  0
 16 14  1  0
 17 16  1  0
 17 18  1  1
 19 18  1  0
 19 20  1  0
 21 22  1  0
 21 20  1  0
 23 17  1  0
 24 23  2  0
 25 23  1  0
M  END
$$$$
