PNK.pdb
     RDKit          3D

 25 25  0  0  1  0  0  0  0  0999 V2000
   16.8498  -18.2530    3.8343 N   0  0  0  0  0  0  0  0  0  0  0  0
   18.0040  -17.9961    2.9995 C   0  0  0  0  0  0  0  0  0  0  0  0
   18.4697  -19.2998    2.4253 C   0  0  0  0  0  0  0  0  0  0  0  0
   17.5092  -20.2930    2.9876 C   0  0  0  0  0  0  0  0  0  0  0  0
   17.0542  -19.6203    4.2563 C   0  0  1  0  0  0  0  0  0  0  0  0
   18.0415  -19.6471    5.3379 C   0  0  0  0  0  0  0  0  0  0  0  0
   18.3185  -20.7159    5.9157 O   0  0  0  0  0  0  0  0  0  0  0  0
   21.8030  -18.6451    8.9222 N   0  0  0  0  0  0  0  0  0  0  0  0
   21.8837  -17.8641    7.7567 C   0  0  0  0  0  0  0  0  0  0  0  0
   22.9867  -17.2423    7.5430 O   0  0  0  0  0  0  0  0  0  0  0  0
   20.8475  -17.6716    6.7432 C   0  0  0  0  0  0  0  0  0  0  0  0
   19.6096  -18.5080    6.9261 C   0  0  2  0  0  0  0  0  0  0  0  0
   18.7370  -18.4852    5.7945 N   0  0  0  0  0  0  0  0  0  0  0  0
   18.9364  -18.0520    8.1843 C   0  0  0  0  0  0  0  0  0  0  0  0
   18.3013  -16.9577    8.2121 O   0  0  0  0  0  0  0  0  0  0  0  0
   19.0373  -18.8841    9.3290 N   0  0  0  0  0  0  0  0  0  0  0  0
   18.2458  -18.6117   10.5343 C   0  0  1  0  0  0  0  0  0  0  0  0
   16.7937  -18.6403   10.1325 C   0  0  0  0  0  0  0  0  0  0  0  0
   15.9319  -17.6462   10.8311 C   0  0  0  0  0  0  0  0  0  0  0  0
   14.4923  -17.7053   10.3920 C   0  0  0  0  0  0  0  0  0  0  0  0
   13.6627  -16.6050   10.9953 C   0  0  0  0  0  0  0  0  0  0  0  0
   12.2822  -16.6549   10.6321 N   0  0  0  0  0  0  0  0  0  0  0  0
   18.5767  -19.5835   11.6020 C   0  0  0  0  0  0  0  0  0  0  0  0
   18.9280  -20.7445   11.2921 O   0  0  0  0  0  0  0  0  0  0  0  0
   18.5119  -19.2538   12.9465 O   0  0  0  0  0  0  0  0  0  0  0  0
  1  2  1  0
  2  3  1  0
  4  3  1  0
  5  1  1  0
  5  4  1  0
  5  6  1  1
  7  6  2  0
  8  9  1  0
  9 11  1  0
 10  9  2  0
 12 11  1  6
 12 13  1  0
 13  6  1  0
 14 12  1  0
 14 15  2  0
 16 14  1  0
 17 16  1  0
 17 18  1  6
 19 18  1  0
 19 20  1  0
 21 22  1  0
 21 20  1  0
 23 17  1  0
 24 23  2  0
 25 23  1  0
M  END
$$$$
