PNK.pdb
     RDKit          3D

 25 25  0  0  1  0  0  0  0  0999 V2000
   19.6067  -11.9090  -15.7256 N   0  0  0  0  0  0  0  0  0  0  0  0
   18.3081  -12.3136  -15.2305 C   0  0  0  0  0  0  0  0  0  0  0  0
   17.2766  -11.9357  -16.2500 C   0  0  0  0  0  0  0  0  0  0  0  0
   18.0757  -11.3003  -17.3377 C   0  0  0  0  0  0  0  0  0  0  0  0
   19.2891  -10.8010  -16.5979 C   0  0  1  0  0  0  0  0  0  0  0  0
   19.0486   -9.6049  -15.7873 C   0  0  0  0  0  0  0  0  0  0  0  0
   18.5988   -8.5666  -16.3093 O   0  0  0  0  0  0  0  0  0  0  0  0
   18.5189   -6.0878  -11.7927 N   0  0  0  0  0  0  0  0  0  0  0  0
   18.5826   -7.4228  -11.3584 C   0  0  0  0  0  0  0  0  0  0  0  0
   18.2863   -7.6545  -10.1306 O   0  0  0  0  0  0  0  0  0  0  0  0
   18.9511   -8.5970  -12.1480 C   0  0  0  0  0  0  0  0  0  0  0  0
   19.1298   -8.3474  -13.6214 C   0  0  2  0  0  0  0  0  0  0  0  0
   19.3046   -9.5443  -14.3827 N   0  0  0  0  0  0  0  0  0  0  0  0
   20.2689   -7.3879  -13.7836 C   0  0  0  0  0  0  0  0  0  0  0  0
   21.4314   -7.6998  -13.3924 O   0  0  0  0  0  0  0  0  0  0  0  0
   19.9971   -6.1321  -14.3852 N   0  0  0  0  0  0  0  0  0  0  0  0
   21.0841   -5.2121  -14.7396 C   0  0  1  0  0  0  0  0  0  0  0  0
   20.8247   -4.7326  -16.1445 C   0  0  0  0  0  0  0  0  0  0  0  0
   21.7798   -3.7025  -16.6399 C   0  0  0  0  0  0  0  0  0  0  0  0
   21.5134   -3.2908  -18.0641 C   0  0  0  0  0  0  0  0  0  0  0  0
   22.5729   -2.3688  -18.6029 C   0  0  0  0  0  0  0  0  0  0  0  0
   22.2982   -1.8747  -19.9145 N   0  0  0  0  0  0  0  0  0  0  0  0
   21.1735   -4.1112  -13.7528 C   0  0  0  0  0  0  0  0  0  0  0  0
   22.2925   -3.6266  -13.4689 O   0  0  0  0  0  0  0  0  0  0  0  0
   20.0537   -3.5904  -13.1239 O   0  0  0  0  0  0  0  0  0  0  0  0
  1  2  1  0
  2  3  1  0
  4  3  1  0
  5  1  1  0
  5  4  1  0
  5  6  1  1
  7  6  2  0
  8  9  1  0
  9 11  1  0
 10  9  2  0
 12 11  1  1
 12 13  1  0
 13  6  1  0
 14 12  1  0
 14 15  2  0
 16 14  1  0
 17 16  1  0
 17 18  1  6
 19 18  1  0
 19 20  1  0
 21 22  1  0
 21 20  1  0
 23 17  1  0
 24 23  2  0
 25 23  1  0
M  END
$$$$
