PNK.pdb
     RDKit          3D

 25 25  0  0  1  0  0  0  0  0999 V2000
   27.0548  -19.2817  -15.1892 N   0  0  0  0  0  0  0  0  0  0  0  0
   27.8871  -19.1731  -14.0099 C   0  0  0  0  0  0  0  0  0  0  0  0
   28.6911  -20.4314  -13.8831 C   0  0  0  0  0  0  0  0  0  0  0  0
   28.2588  -21.2429  -15.0579 C   0  0  0  0  0  0  0  0  0  0  0  0
   26.8763  -20.7094  -15.3282 C   0  0  1  0  0  0  0  0  0  0  0  0
   25.8606  -21.1619  -14.3748 C   0  0  0  0  0  0  0  0  0  0  0  0
   25.5746  -22.3712  -14.2812 O   0  0  0  0  0  0  0  0  0  0  0  0
   26.2825  -21.9054  -10.9204 N   0  0  0  0  0  0  0  0  0  0  0  0
   25.4460  -20.8689  -10.4722 C   0  0  0  0  0  0  0  0  0  0  0  0
   25.6679  -20.4037   -9.2962 O   0  0  0  0  0  0  0  0  0  0  0  0
   24.3370  -20.2474  -11.1947 C   0  0  0  0  0  0  0  0  0  0  0  0
   24.1390  -20.7339  -12.6052 C   0  0  2  0  0  0  0  0  0  0  0  0
   25.1463  -20.2765  -13.5099 N   0  0  0  0  0  0  0  0  0  0  0  0
   22.7578  -20.3396  -13.0308 C   0  0  0  0  0  0  0  0  0  0  0  0
   22.4535  -19.1193  -13.1718 O   0  0  0  0  0  0  0  0  0  0  0  0
   21.8162  -21.3743  -13.2666 N   0  0  0  0  0  0  0  0  0  0  0  0
   20.4497  -21.0680  -13.7053 C   0  0  1  0  0  0  0  0  0  0  0  0
   20.0778  -22.0841  -14.7543 C   0  0  0  0  0  0  0  0  0  0  0  0
   20.7703  -21.9147  -16.0621 C   0  0  0  0  0  0  0  0  0  0  0  0
   20.2714  -22.8653  -17.1186 C   0  0  0  0  0  0  0  0  0  0  0  0
   21.0729  -22.7836  -18.3890 C   0  0  0  0  0  0  0  0  0  0  0  0
   20.5852  -23.6233  -19.4364 N   0  0  0  0  0  0  0  0  0  0  0  0
   19.5248  -21.0557  -12.5486 C   0  0  0  0  0  0  0  0  0  0  0  0
   19.8055  -21.7230  -11.5271 O   0  0  0  0  0  0  0  0  0  0  0  0
   18.3467  -20.3258  -12.5529 O   0  0  0  0  0  0  0  0  0  0  0  0
  1  2  1  0
  2  3  1  0
  4  3  1  0
  5  1  1  0
  5  4  1  0
  5  6  1  1
  7  6  2  0
  8  9  1  0
  9 11  1  0
 10  9  2  0
 12 11  1  1
 12 13  1  0
 13  6  1  0
 14 12  1  0
 14 15  2  0
 16 14  1  0
 17 16  1  0
 17 18  1  6
 19 18  1  0
 19 20  1  0
 21 22  1  0
 21 20  1  0
 23 17  1  0
 24 23  2  0
 25 23  1  0
M  END
$$$$
