PNK.pdb
     RDKit          3D

 25 25  0  0  1  0  0  0  0  0999 V2000
   20.4866  -12.6741  -16.9054 N   0  0  0  0  0  0  0  0  0  0  0  0
   19.0916  -13.0598  -16.8867 C   0  0  0  0  0  0  0  0  0  0  0  0
   18.5958  -13.1032  -18.3004 C   0  0  0  0  0  0  0  0  0  0  0  0
   19.7936  -12.7209  -19.1033 C   0  0  0  0  0  0  0  0  0  0  0  0
   20.5921  -11.9021  -18.1229 C   0  0  1  0  0  0  0  0  0  0  0  0
   20.0589  -10.5583  -17.8877 C   0  0  0  0  0  0  0  0  0  0  0  0
   19.9876   -9.7338  -18.8194 O   0  0  0  0  0  0  0  0  0  0  0  0
   16.7438   -7.3523  -17.3000 N   0  0  0  0  0  0  0  0  0  0  0  0
   16.8384   -7.9538  -16.0335 C   0  0  0  0  0  0  0  0  0  0  0  0
   15.8032   -7.8914  -15.2763 O   0  0  0  0  0  0  0  0  0  0  0  0
   17.9907   -8.6523  -15.4659 C   0  0  0  0  0  0  0  0  0  0  0  0
   19.1849   -8.7617  -16.3755 C   0  0  2  0  0  0  0  0  0  0  0  0
   19.5963  -10.1097  -16.6122 N   0  0  0  0  0  0  0  0  0  0  0  0
   20.2772   -7.9180  -15.7928 C   0  0  0  0  0  0  0  0  0  0  0  0
   21.0508   -8.3901  -14.9093 O   0  0  0  0  0  0  0  0  0  0  0  0
   20.4089   -6.5863  -16.2639 N   0  0  0  0  0  0  0  0  0  0  0  0
   21.4899   -5.7176  -15.7841 C   0  0  1  0  0  0  0  0  0  0  0  0
   21.5958   -4.5618  -16.7453 C   0  0  0  0  0  0  0  0  0  0  0  0
   22.6921   -3.5987  -16.4468 C   0  0  0  0  0  0  0  0  0  0  0  0
   22.8752   -2.5640  -17.5260 C   0  0  0  0  0  0  0  0  0  0  0  0
   24.0675   -1.6809  -17.2781 C   0  0  0  0  0  0  0  0  0  0  0  0
   24.3631   -0.7911  -18.3556 N   0  0  0  0  0  0  0  0  0  0  0  0
   21.2344   -5.2956  -14.3875 C   0  0  0  0  0  0  0  0  0  0  0  0
   20.0676   -5.0129  -14.0322 O   0  0  0  0  0  0  0  0  0  0  0  0
   22.2483   -5.2004  -13.4476 O   0  0  0  0  0  0  0  0  0  0  0  0
  1  2  1  0
  2  3  1  0
  4  3  1  0
  5  1  1  0
  5  4  1  0
  5  6  1  1
  7  6  2  0
  8  9  1  0
  9 11  1  0
 10  9  2  0
 12 11  1  1
 12 13  1  0
 13  6  1  0
 14 12  1  0
 14 15  2  0
 16 14  1  0
 17 16  1  0
 17 18  1  6
 19 18  1  0
 19 20  1  0
 21 22  1  0
 21 20  1  0
 23 17  1  0
 24 23  2  0
 25 23  1  0
M  END
$$$$
