PNK.pdb
     RDKit          3D

 25 25  0  0  1  0  0  0  0  0999 V2000
   16.3575  -26.1373   -3.7901 N   0  0  0  0  0  0  0  0  0  0  0  0
   17.7070  -25.6470   -3.9731 C   0  0  0  0  0  0  0  0  0  0  0  0
   18.6390  -26.5352   -3.2058 C   0  0  0  0  0  0  0  0  0  0  0  0
   17.7312  -27.5451   -2.5883 C   0  0  0  0  0  0  0  0  0  0  0  0
   16.4252  -26.7988   -2.5067 C   0  0  1  0  0  0  0  0  0  0  0  0
   16.3739  -25.7922   -1.4438 C   0  0  0  0  0  0  0  0  0  0  0  0
   17.4232  -25.2917   -0.9950 O   0  0  0  0  0  0  0  0  0  0  0  0
   14.8451  -21.0594    0.7831 N   0  0  0  0  0  0  0  0  0  0  0  0
   13.9838  -22.1691    0.8251 C   0  0  0  0  0  0  0  0  0  0  0  0
   13.0943  -22.1859    1.7509 O   0  0  0  0  0  0  0  0  0  0  0  0
   13.9788  -23.3238   -0.0719 C   0  0  0  0  0  0  0  0  0  0  0  0
   15.1195  -24.2872    0.1182 C   0  0  2  0  0  0  0  0  0  0  0  0
   15.1545  -25.3259   -0.8628 N   0  0  0  0  0  0  0  0  0  0  0  0
   15.0374  -24.8163    1.5173 C   0  0  0  0  0  0  0  0  0  0  0  0
   14.3680  -25.8601    1.7705 O   0  0  0  0  0  0  0  0  0  0  0  0
   15.7303  -24.1106    2.5345 N   0  0  0  0  0  0  0  0  0  0  0  0
   15.6709  -24.5485    3.9339 C   0  0  1  0  0  0  0  0  0  0  0  0
   16.6546  -23.7093    4.7079 C   0  0  0  0  0  0  0  0  0  0  0  0
   16.7053  -23.9937    6.1691 C   0  0  0  0  0  0  0  0  0  0  0  0
   17.6233  -23.0630    6.9173 C   0  0  0  0  0  0  0  0  0  0  0  0
   17.6082  -23.3117    8.4008 C   0  0  0  0  0  0  0  0  0  0  0  0
   18.5378  -22.5107    9.1318 N   0  0  0  0  0  0  0  0  0  0  0  0
   14.2857  -24.4507    4.4490 C   0  0  0  0  0  0  0  0  0  0  0  0
   13.8235  -25.3753    5.1554 O   0  0  0  0  0  0  0  0  0  0  0  0
   13.4716  -23.3628    4.1764 O   0  0  0  0  0  0  0  0  0  0  0  0
  1  2  1  0
  2  3  1  0
  4  3  1  0
  5  1  1  0
  5  4  1  0
  5  6  1  1
  7  6  2  0
  8  9  1  0
  9 11  1  0
 10  9  2  0
 12 11  1  6
 12 13  1  0
 13  6  1  0
 14 12  1  0
 14 15  2  0
 16 14  1  0
 17 16  1  0
 17 18  1  1
 19 18  1  0
 19 20  1  0
 21 22  1  0
 21 20  1  0
 23 17  1  0
 24 23  2  0
 25 23  1  0
M  END
$$$$
