VCM.pdb
     RDKit          3D

 22 21  0  0  1  0  0  0  0  0999 V2000
    9.2485  -17.4489   18.3473 C   0  0  0  0  0  0  0  0  0  0  0  0
   10.3907  -18.1552   19.0240 C   0  0  2  0  0  0  0  0  0  0  0  0
   10.5985  -19.5549   18.4446 C   0  0  0  0  0  0  0  0  0  0  0  0
   10.2857  -18.1697   20.5144 C   0  0  2  0  0  0  0  0  0  0  0  0
    9.2435  -19.1072   20.8845 N   0  0  0  0  0  0  0  0  0  0  0  0
   10.0234  -16.8661   21.1270 C   0  0  0  0  0  0  0  0  0  0  0  0
   10.7595  -15.8595   21.0314 O   0  0  0  0  0  0  0  0  0  0  0  0
    8.8383  -16.6659   21.9150 N   0  0  0  0  0  0  0  0  0  0  0  0
    8.5499  -15.4490   22.5970 C   0  0  1  0  0  0  0  0  0  0  0  0
    7.1654  -14.9342   22.4406 C   0  0  0  0  0  0  0  0  0  0  0  0
    6.7186  -13.6771   23.6392 S   0  0  0  0  0  0  0  0  0  0  0  0
    8.8229  -15.6245   24.0678 C   0  0  0  0  0  0  0  0  0  0  0  0
    8.1985  -16.4654   24.7567 O   0  0  0  0  0  0  0  0  0  0  0  0
    6.0606  -11.4962   26.5066 C   0  0  0  0  0  0  0  0  0  0  0  0
    7.3870  -11.9138   27.6794 S   0  0  0  0  0  0  0  0  0  0  0  0
    8.7418  -12.6628   26.7452 C   0  0  0  0  0  0  0  0  0  0  0  0
    8.5914  -14.1475   26.6559 C   0  0  0  0  0  0  0  0  0  0  0  0
    9.8597  -14.8517   26.1915 C   0  0  2  0  0  0  0  0  0  0  0  0
    9.7979  -14.8476   24.7418 N   0  0  0  0  0  0  0  0  0  0  0  0
    9.9085  -16.2348   26.7285 C   0  0  0  0  0  0  0  0  0  0  0  0
    9.0375  -17.0873   26.4841 O   0  0  0  0  0  0  0  0  0  0  0  0
   10.9734  -16.6046   27.5440 O   0  0  0  0  0  0  0  0  0  0  0  0
  2  1  1  6
  2  3  1  0
  4  2  1  0
  4  5  1  6
  6  4  1  0
  6  8  1  0
  7  6  2  0
  9  8  1  0
  9 12  1  0
  9 10  1  1
 11 10  1  0
 12 13  2  0
 12 19  1  0
 14 15  1  0
 16 15  1  0
 17 16  1  0
 18 17  1  1
 18 20  1  0
 19 18  1  0
 20 22  1  0
 21 20  2  0
M  END
$$$$
