VCM.pdb
     RDKit          3D

 22 21  0  0  1  0  0  0  0  0999 V2000
    8.1489  -12.4582   18.1181 C   0  0  0  0  0  0  0  0  0  0  0  0
    7.8429  -13.3811   19.2652 C   0  0  2  0  0  0  0  0  0  0  0  0
    8.2020  -12.7382   20.6053 C   0  0  0  0  0  0  0  0  0  0  0  0
    8.4400  -14.7423   19.1129 C   0  0  2  0  0  0  0  0  0  0  0  0
    7.9647  -15.3067   17.8648 N   0  0  0  0  0  0  0  0  0  0  0  0
    8.1610  -15.6651   20.2148 C   0  0  0  0  0  0  0  0  0  0  0  0
    7.1107  -16.3296   20.3547 O   0  0  0  0  0  0  0  0  0  0  0  0
    9.1362  -15.8652   21.2513 N   0  0  0  0  0  0  0  0  0  0  0  0
    8.9120  -16.6987   22.3845 C   0  0  1  0  0  0  0  0  0  0  0  0
    9.6053  -18.0122   22.3665 C   0  0  0  0  0  0  0  0  0  0  0  0
    9.4539  -18.9340   23.8976 S   0  0  0  0  0  0  0  0  0  0  0  0
    9.3265  -15.9653   23.6331 C   0  0  0  0  0  0  0  0  0  0  0  0
   10.4836  -15.5029   23.7706 O   0  0  0  0  0  0  0  0  0  0  0  0
    6.1311  -10.4547   26.2494 C   0  0  0  0  0  0  0  0  0  0  0  0
    6.1438  -12.1810   26.8231 S   0  0  0  0  0  0  0  0  0  0  0  0
    7.5291  -13.0239   26.0235 C   0  0  0  0  0  0  0  0  0  0  0  0
    7.6746  -14.4281   26.5154 C   0  0  0  0  0  0  0  0  0  0  0  0
    8.8897  -15.1427   25.9384 C   0  0  2  0  0  0  0  0  0  0  0  0
    8.4286  -15.7637   24.7108 N   0  0  0  0  0  0  0  0  0  0  0  0
    9.3992  -16.1530   26.8994 C   0  0  0  0  0  0  0  0  0  0  0  0
    8.9438  -17.3071   26.9736 O   0  0  0  0  0  0  0  0  0  0  0  0
   10.4337  -15.8026   27.7613 O   0  0  0  0  0  0  0  0  0  0  0  0
  2  1  1  6
  2  3  1  0
  4  2  1  0
  4  5  1  6
  6  4  1  0
  6  8  1  0
  7  6  2  0
  9  8  1  0
  9 12  1  0
  9 10  1  6
 11 10  1  0
 12 13  2  0
 12 19  1  0
 14 15  1  0
 16 15  1  0
 17 16  1  0
 18 17  1  1
 18 20  1  0
 19 18  1  0
 20 22  1  0
 21 20  2  0
M  END
$$$$
