VCM.pdb
     RDKit          3D

 22 21  0  0  1  0  0  0  0  0999 V2000
    7.0113  -21.1411   20.5110 C   0  0  0  0  0  0  0  0  0  0  0  0
    6.7108  -20.1363   19.4334 C   0  0  2  0  0  0  0  0  0  0  0  0
    7.0584  -20.6864   18.0497 C   0  0  0  0  0  0  0  0  0  0  0  0
    7.3224  -18.7953   19.6790 C   0  0  2  0  0  0  0  0  0  0  0  0
    8.7583  -18.9662   19.7830 N   0  0  0  0  0  0  0  0  0  0  0  0
    6.8175  -18.0942   20.8610 C   0  0  0  0  0  0  0  0  0  0  0  0
    5.6138  -17.8552   21.1022 O   0  0  0  0  0  0  0  0  0  0  0  0
    7.7326  -17.6175   21.8613 N   0  0  0  0  0  0  0  0  0  0  0  0
    7.3283  -16.8335   22.9799 C   0  0  1  0  0  0  0  0  0  0  0  0
    6.2135  -17.3898   23.7886 C   0  0  0  0  0  0  0  0  0  0  0  0
    6.6975  -17.8992   25.4387 S   0  0  0  0  0  0  0  0  0  0  0  0
    8.5082  -16.6182   23.8909 C   0  0  0  0  0  0  0  0  0  0  0  0
    9.1762  -17.5794   24.3399 O   0  0  0  0  0  0  0  0  0  0  0  0
    5.8014  -11.3350   27.0745 C   0  0  0  0  0  0  0  0  0  0  0  0
    7.4490  -11.7908   26.4525 S   0  0  0  0  0  0  0  0  0  0  0  0
    7.2690  -13.2710   25.4299 C   0  0  0  0  0  0  0  0  0  0  0  0
    7.7228  -14.4971   26.1549 C   0  0  0  0  0  0  0  0  0  0  0  0
    9.0830  -15.0002   25.6891 C   0  0  2  0  0  0  0  0  0  0  0  0
    8.9186  -15.3198   24.2833 N   0  0  0  0  0  0  0  0  0  0  0  0
    9.4882  -16.1939   26.4731 C   0  0  0  0  0  0  0  0  0  0  0  0
    8.7233  -16.7804   27.2578 O   0  0  0  0  0  0  0  0  0  0  0  0
   10.7815  -16.6871   26.3308 O   0  0  0  0  0  0  0  0  0  0  0  0
  2  1  1  1
  2  3  1  0
  4  2  1  0
  4  5  1  1
  6  4  1  0
  6  8  1  0
  7  6  2  0
  9  8  1  0
  9 12  1  0
  9 10  1  1
 11 10  1  0
 12 13  2  0
 12 19  1  0
 14 15  1  0
 16 15  1  0
 17 16  1  0
 18 17  1  1
 18 20  1  0
 19 18  1  0
 20 22  1  0
 21 20  2  0
M  END
$$$$
