VCM.pdb
     RDKit          3D

 22 21  0  0  1  0  0  0  0  0999 V2000
    8.3326  -13.1323   17.6471 C   0  0  0  0  0  0  0  0  0  0  0  0
    7.9429  -13.7464   18.9633 C   0  0  2  0  0  0  0  0  0  0  0  0
    7.1075  -12.7780   19.8014 C   0  0  0  0  0  0  0  0  0  0  0  0
    9.0988  -14.3043   19.7282 C   0  0  2  0  0  0  0  0  0  0  0  0
    9.7392  -15.3128   18.9067 N   0  0  0  0  0  0  0  0  0  0  0  0
    8.7585  -14.8694   21.0352 C   0  0  0  0  0  0  0  0  0  0  0  0
    8.1156  -14.2821   21.9331 O   0  0  0  0  0  0  0  0  0  0  0  0
    9.1699  -16.2046   21.3721 N   0  0  0  0  0  0  0  0  0  0  0  0
    8.8359  -16.8378   22.6036 C   0  0  1  0  0  0  0  0  0  0  0  0
    9.3431  -18.2233   22.7751 C   0  0  0  0  0  0  0  0  0  0  0  0
   11.1158  -18.3801   22.5524 S   0  0  0  0  0  0  0  0  0  0  0  0
    9.3489  -16.0043   23.7485 C   0  0  0  0  0  0  0  0  0  0  0  0
   10.4287  -15.3724   23.6697 O   0  0  0  0  0  0  0  0  0  0  0  0
    6.0475  -11.7675   26.3096 C   0  0  0  0  0  0  0  0  0  0  0  0
    6.9250  -12.0774   27.8727 S   0  0  0  0  0  0  0  0  0  0  0  0
    8.2986  -13.2013   27.5275 C   0  0  0  0  0  0  0  0  0  0  0  0
    8.0050  -14.0830   26.3565 C   0  0  0  0  0  0  0  0  0  0  0  0
    9.1378  -15.0490   26.0343 C   0  0  2  0  0  0  0  0  0  0  0  0
    8.6354  -15.8953   24.9681 N   0  0  0  0  0  0  0  0  0  0  0  0
    9.4954  -15.8445   27.2356 C   0  0  0  0  0  0  0  0  0  0  0  0
   10.0976  -15.3642   28.2111 O   0  0  0  0  0  0  0  0  0  0  0  0
    9.1455  -17.1903   27.2821 O   0  0  0  0  0  0  0  0  0  0  0  0
  2  1  1  6
  2  3  1  0
  4  2  1  0
  4  5  1  6
  6  4  1  0
  6  8  1  0
  7  6  2  0
  9  8  1  0
  9 12  1  0
  9 10  1  6
 11 10  1  0
 12 13  2  0
 12 19  1  0
 14 15  1  0
 16 15  1  0
 17 16  1  0
 18 17  1  1
 18 20  1  0
 19 18  1  0
 20 22  1  0
 21 20  2  0
M  END
$$$$
