VCM.pdb
     RDKit          3D

 22 21  0  0  1  0  0  0  0  0999 V2000
    7.6491  -19.8768   24.7262 C   0  0  0  0  0  0  0  0  0  0  0  0
    6.4815  -19.5409   23.8402 C   0  0  2  0  0  0  0  0  0  0  0  0
    5.3063  -20.4869   24.0889 C   0  0  0  0  0  0  0  0  0  0  0  0
    6.8370  -19.4491   22.3918 C   0  0  2  0  0  0  0  0  0  0  0  0
    7.2220  -20.7708   21.9369 N   0  0  0  0  0  0  0  0  0  0  0  0
    7.8939  -18.4865   22.0759 C   0  0  0  0  0  0  0  0  0  0  0  0
    9.1091  -18.7577   21.9579 O   0  0  0  0  0  0  0  0  0  0  0  0
    7.5695  -17.1010   21.8740 N   0  0  0  0  0  0  0  0  0  0  0  0
    8.5501  -16.0959   21.6342 C   0  0  1  0  0  0  0  0  0  0  0  0
    8.1009  -14.9376   20.8201 C   0  0  0  0  0  0  0  0  0  0  0  0
    6.3948  -14.4658   21.1083 S   0  0  0  0  0  0  0  0  0  0  0  0
    9.0627  -15.5747   22.9510 C   0  0  0  0  0  0  0  0  0  0  0  0
   10.0068  -14.7520   23.0099 O   0  0  0  0  0  0  0  0  0  0  0  0
    6.1397  -11.0349   26.5344 C   0  0  0  0  0  0  0  0  0  0  0  0
    6.2332  -12.8276   26.8293 S   0  0  0  0  0  0  0  0  0  0  0  0
    7.6803  -13.4623   25.9505 C   0  0  0  0  0  0  0  0  0  0  0  0
    7.8803  -14.9217   26.2053 C   0  0  0  0  0  0  0  0  0  0  0  0
    9.0569  -15.5089   25.4365 C   0  0  2  0  0  0  0  0  0  0  0  0
    8.5023  -15.9895   24.1848 N   0  0  0  0  0  0  0  0  0  0  0  0
    9.6821  -16.6101   26.2112 C   0  0  0  0  0  0  0  0  0  0  0  0
   10.3859  -16.4157   27.2171 O   0  0  0  0  0  0  0  0  0  0  0  0
    9.4775  -17.9239   25.8014 O   0  0  0  0  0  0  0  0  0  0  0  0
  2  1  1  1
  2  3  1  0
  4  2  1  0
  4  5  1  1
  6  4  1  0
  6  8  1  0
  7  6  2  0
  9  8  1  0
  9 12  1  0
  9 10  1  1
 11 10  1  0
 12 13  2  0
 12 19  1  0
 14 15  1  0
 16 15  1  0
 17 16  1  0
 18 17  1  1
 18 20  1  0
 19 18  1  0
 20 22  1  0
 21 20  2  0
M  END
$$$$
