VCM.pdb
     RDKit          3D

 22 21  0  0  1  0  0  0  0  0999 V2000
    8.1022  -12.2826   18.3513 C   0  0  0  0  0  0  0  0  0  0  0  0
    7.8157  -13.2762   19.4430 C   0  0  2  0  0  0  0  0  0  0  0  0
    8.1421  -12.6969   20.8199 C   0  0  0  0  0  0  0  0  0  0  0  0
    8.4572  -14.6076   19.2229 C   0  0  2  0  0  0  0  0  0  0  0  0
    7.9639  -15.1449   17.9699 N   0  0  0  0  0  0  0  0  0  0  0  0
    8.2472  -15.5788   20.2982 C   0  0  0  0  0  0  0  0  0  0  0  0
    7.5056  -16.5837   20.2319 O   0  0  0  0  0  0  0  0  0  0  0  0
    8.9213  -15.4168   21.5571 N   0  0  0  0  0  0  0  0  0  0  0  0
    8.8770  -16.3885   22.5978 C   0  0  1  0  0  0  0  0  0  0  0  0
    9.3580  -17.7459   22.2339 C   0  0  0  0  0  0  0  0  0  0  0  0
   10.9692  -17.7582   21.4462 S   0  0  0  0  0  0  0  0  0  0  0  0
    9.6871  -15.9012   23.7703 C   0  0  0  0  0  0  0  0  0  0  0  0
   10.5135  -14.9656   23.6551 O   0  0  0  0  0  0  0  0  0  0  0  0
    6.2696  -11.9566   26.1005 C   0  0  0  0  0  0  0  0  0  0  0  0
    7.7158  -12.5651   27.0210 S   0  0  0  0  0  0  0  0  0  0  0  0
    7.4882  -14.3354   27.3101 C   0  0  0  0  0  0  0  0  0  0  0  0
    7.9135  -15.1437   26.1267 C   0  0  0  0  0  0  0  0  0  0  0  0
    9.3540  -15.6301   26.2192 C   0  0  2  0  0  0  0  0  0  0  0  0
    9.5535  -16.4772   25.0582 N   0  0  0  0  0  0  0  0  0  0  0  0
    9.5651  -16.3817   27.4819 C   0  0  0  0  0  0  0  0  0  0  0  0
    9.7395  -15.8257   28.5798 O   0  0  0  0  0  0  0  0  0  0  0  0
    9.5700  -17.7726   27.4463 O   0  0  0  0  0  0  0  0  0  0  0  0
  2  1  1  6
  2  3  1  0
  4  2  1  0
  4  5  1  6
  6  4  1  0
  6  8  1  0
  7  6  2  0
  9  8  1  0
  9 12  1  0
  9 10  1  6
 11 10  1  0
 12 13  2  0
 12 19  1  0
 14 15  1  0
 16 15  1  0
 17 16  1  0
 18 17  1  1
 18 20  1  0
 19 18  1  0
 20 22  1  0
 21 20  2  0
M  END
$$$$
