VCM.pdb
     RDKit          3D

 22 21  0  0  1  0  0  0  0  0999 V2000
    5.8224  -21.0735   23.4890 C   0  0  0  0  0  0  0  0  0  0  0  0
    6.8019  -19.9334   23.4439 C   0  0  2  0  0  0  0  0  0  0  0  0
    6.5534  -18.9434   24.5823 C   0  0  0  0  0  0  0  0  0  0  0  0
    6.8728  -19.2585   22.1127 C   0  0  2  0  0  0  0  0  0  0  0  0
    7.0613  -20.2779   21.0991 N   0  0  0  0  0  0  0  0  0  0  0  0
    7.9163  -18.2385   21.9931 C   0  0  0  0  0  0  0  0  0  0  0  0
    9.1361  -18.4653   21.8353 O   0  0  0  0  0  0  0  0  0  0  0  0
    7.5716  -16.8447   22.0547 N   0  0  0  0  0  0  0  0  0  0  0  0
    8.5089  -15.7971   21.8237 C   0  0  1  0  0  0  0  0  0  0  0  0
    7.9872  -14.6144   21.0920 C   0  0  0  0  0  0  0  0  0  0  0  0
    6.6563  -14.9952   19.9517 S   0  0  0  0  0  0  0  0  0  0  0  0
    9.0662  -15.3266   23.1414 C   0  0  0  0  0  0  0  0  0  0  0  0
   10.0429  -14.5428   23.2000 O   0  0  0  0  0  0  0  0  0  0  0  0
    6.6786  -11.1791   27.3159 C   0  0  0  0  0  0  0  0  0  0  0  0
    6.0438  -12.7621   26.6832 S   0  0  0  0  0  0  0  0  0  0  0  0
    7.3472  -13.5292   25.6922 C   0  0  0  0  0  0  0  0  0  0  0  0
    7.9903  -14.6670   26.4180 C   0  0  0  0  0  0  0  0  0  0  0  0
    9.1143  -15.3239   25.6273 C   0  0  2  0  0  0  0  0  0  0  0  0
    8.5133  -15.7477   24.3765 N   0  0  0  0  0  0  0  0  0  0  0  0
    9.6701  -16.4763   26.3801 C   0  0  0  0  0  0  0  0  0  0  0  0
    9.5157  -17.6567   26.0225 O   0  0  0  0  0  0  0  0  0  0  0  0
   10.3989  -16.2357   27.5406 O   0  0  0  0  0  0  0  0  0  0  0  0
  2  1  1  6
  2  3  1  0
  4  2  1  0
  4  5  1  6
  6  4  1  0
  6  8  1  0
  7  6  2  0
  9  8  1  0
  9 12  1  0
  9 10  1  1
 11 10  1  0
 12 13  2  0
 12 19  1  0
 14 15  1  0
 16 15  1  0
 17 16  1  0
 18 17  1  1
 18 20  1  0
 19 18  1  0
 20 22  1  0
 21 20  2  0
M  END
$$$$
