VCM.pdb
     RDKit          3D

 22 21  0  0  1  0  0  0  0  0999 V2000
    6.7900  -23.0434   21.2316 C   0  0  0  0  0  0  0  0  0  0  0  0
    5.9026  -22.4868   22.3105 C   0  0  2  0  0  0  0  0  0  0  0  0
    4.5094  -22.1626   21.7702 C   0  0  0  0  0  0  0  0  0  0  0  0
    6.5063  -21.3347   23.0459 C   0  0  2  0  0  0  0  0  0  0  0  0
    5.6801  -21.0555   24.2041 N   0  0  0  0  0  0  0  0  0  0  0  0
    6.6775  -20.1171   22.2512 C   0  0  0  0  0  0  0  0  0  0  0  0
    7.4733  -19.9815   21.2959 O   0  0  0  0  0  0  0  0  0  0  0  0
    5.8946  -18.9485   22.5459 N   0  0  0  0  0  0  0  0  0  0  0  0
    5.9810  -17.7406   21.7958 C   0  0  1  0  0  0  0  0  0  0  0  0
    4.6849  -17.1124   21.4327 C   0  0  0  0  0  0  0  0  0  0  0  0
    3.2799  -18.2194   21.5634 S   0  0  0  0  0  0  0  0  0  0  0  0
    6.7929  -16.7323   22.5656 C   0  0  0  0  0  0  0  0  0  0  0  0
    6.8325  -15.5252   22.2294 O   0  0  0  0  0  0  0  0  0  0  0  0
    6.8823  -11.1825   26.4482 C   0  0  0  0  0  0  0  0  0  0  0  0
    6.2774  -12.8824   26.2168 S   0  0  0  0  0  0  0  0  0  0  0  0
    7.5852  -13.8343   25.4089 C   0  0  0  0  0  0  0  0  0  0  0  0
    7.1351  -15.2236   25.0895 C   0  0  0  0  0  0  0  0  0  0  0  0
    8.2353  -16.0863   24.4851 C   0  0  2  0  0  0  0  0  0  0  0  0
    7.5501  -17.1004   23.7057 N   0  0  0  0  0  0  0  0  0  0  0  0
    9.0631  -16.6935   25.5574 C   0  0  0  0  0  0  0  0  0  0  0  0
    9.0043  -17.8981   25.8582 O   0  0  0  0  0  0  0  0  0  0  0  0
    9.9487  -15.8864   26.2647 O   0  0  0  0  0  0  0  0  0  0  0  0
  2  1  1  6
  2  3  1  0
  4  2  1  0
  4  5  1  1
  6  4  1  0
  6  8  1  0
  7  6  2  0
  9  8  1  0
  9 12  1  0
  9 10  1  1
 11 10  1  0
 12 13  2  0
 12 19  1  0
 14 15  1  0
 16 15  1  0
 17 16  1  0
 18 17  1  1
 18 20  1  0
 19 18  1  0
 20 22  1  0
 21 20  2  0
M  END
$$$$
