VCM.pdb
     RDKit          3D

 22 21  0  0  1  0  0  0  0  0999 V2000
   11.3499  -17.1830   20.2820 C   0  0  0  0  0  0  0  0  0  0  0  0
   10.9615  -18.6330   20.1934 C   0  0  2  0  0  0  0  0  0  0  0  0
   11.8381  -19.3815   19.1887 C   0  0  0  0  0  0  0  0  0  0  0  0
    9.5043  -18.8473   19.9424 C   0  0  2  0  0  0  0  0  0  0  0  0
    9.2248  -18.4841   18.5669 N   0  0  0  0  0  0  0  0  0  0  0  0
    8.6095  -18.1167   20.8419 C   0  0  0  0  0  0  0  0  0  0  0  0
    8.1694  -16.9625   20.6456 O   0  0  0  0  0  0  0  0  0  0  0  0
    8.1662  -18.7238   22.0667 N   0  0  0  0  0  0  0  0  0  0  0  0
    7.3294  -18.0604   23.0095 C   0  0  1  0  0  0  0  0  0  0  0  0
    6.4860  -18.9424   23.8563 C   0  0  0  0  0  0  0  0  0  0  0  0
    7.3927  -20.2721   24.6477 S   0  0  0  0  0  0  0  0  0  0  0  0
    8.1775  -17.2085   23.9168 C   0  0  0  0  0  0  0  0  0  0  0  0
    9.3802  -17.4821   24.1411 O   0  0  0  0  0  0  0  0  0  0  0  0
    5.8413  -11.7493   26.0798 C   0  0  0  0  0  0  0  0  0  0  0  0
    7.3972  -11.5996   27.0104 S   0  0  0  0  0  0  0  0  0  0  0  0
    8.4053  -13.0564   26.6489 C   0  0  0  0  0  0  0  0  0  0  0  0
    7.6778  -14.0227   25.7704 C   0  0  0  0  0  0  0  0  0  0  0  0
    8.5094  -15.2459   25.4068 C   0  0  2  0  0  0  0  0  0  0  0  0
    7.6562  -16.0580   24.5595 N   0  0  0  0  0  0  0  0  0  0  0  0
    8.9125  -15.9793   26.6330 C   0  0  0  0  0  0  0  0  0  0  0  0
    9.9503  -15.7208   27.2663 O   0  0  0  0  0  0  0  0  0  0  0  0
    8.0986  -17.0050   27.1038 O   0  0  0  0  0  0  0  0  0  0  0  0
  2  1  1  6
  2  3  1  0
  4  2  1  0
  4  5  1  6
  6  4  1  0
  6  8  1  0
  7  6  2  0
  9  8  1  0
  9 12  1  0
  9 10  1  1
 11 10  1  0
 12 13  2  0
 12 19  1  0
 14 15  1  0
 16 15  1  0
 17 16  1  0
 18 17  1  1
 18 20  1  0
 19 18  1  0
 20 22  1  0
 21 20  2  0
M  END
$$$$
