VCM.pdb
     RDKit          3D

 22 21  0  0  1  0  0  0  0  0999 V2000
    8.2946  -12.3724   18.0514 C   0  0  0  0  0  0  0  0  0  0  0  0
    8.0403  -13.4244   19.0954 C   0  0  2  0  0  0  0  0  0  0  0  0
    8.3625  -12.9043   20.4967 C   0  0  0  0  0  0  0  0  0  0  0  0
    8.7125  -14.7274   18.8072 C   0  0  2  0  0  0  0  0  0  0  0  0
    8.2638  -15.1893   17.5082 N   0  0  0  0  0  0  0  0  0  0  0  0
    8.4913  -15.7706   19.8103 C   0  0  0  0  0  0  0  0  0  0  0  0
    7.8904  -16.8496   19.6128 O   0  0  0  0  0  0  0  0  0  0  0  0
    8.9818  -15.5974   21.1501 N   0  0  0  0  0  0  0  0  0  0  0  0
    8.9492  -16.6277   22.1333 C   0  0  1  0  0  0  0  0  0  0  0  0
    9.6259  -17.8965   21.7609 C   0  0  0  0  0  0  0  0  0  0  0  0
    9.6945  -19.0996   23.0892 S   0  0  0  0  0  0  0  0  0  0  0  0
    9.5699  -16.1204   23.4083 C   0  0  0  0  0  0  0  0  0  0  0  0
   10.7731  -15.7721   23.4608 O   0  0  0  0  0  0  0  0  0  0  0  0
    6.0221  -12.2752   26.3694 C   0  0  0  0  0  0  0  0  0  0  0  0
    7.1290  -12.4299   27.8047 S   0  0  0  0  0  0  0  0  0  0  0  0
    8.5300  -13.4647   27.3192 C   0  0  0  0  0  0  0  0  0  0  0  0
    8.2077  -14.2969   26.1199 C   0  0  0  0  0  0  0  0  0  0  0  0
    9.3381  -15.2365   25.7207 C   0  0  2  0  0  0  0  0  0  0  0  0
    8.8235  -16.0130   24.6082 N   0  0  0  0  0  0  0  0  0  0  0  0
    9.7133  -16.1075   26.8628 C   0  0  0  0  0  0  0  0  0  0  0  0
   10.3810  -15.7048   27.8308 O   0  0  0  0  0  0  0  0  0  0  0  0
    9.3040  -17.4373   26.8599 O   0  0  0  0  0  0  0  0  0  0  0  0
  2  1  1  6
  2  3  1  0
  4  2  1  0
  4  5  1  6
  6  4  1  0
  6  8  1  0
  7  6  2  0
  9  8  1  0
  9 12  1  0
  9 10  1  6
 11 10  1  0
 12 13  2  0
 12 19  1  0
 14 15  1  0
 16 15  1  0
 17 16  1  0
 18 17  1  1
 18 20  1  0
 19 18  1  0
 20 22  1  0
 21 20  2  0
M  END
$$$$
