GNE.pdb
     RDKit          3D

 22 21  0  0  1  0  0  0  0  0999 V2000
    6.5156  -17.5264   20.2222 N   0  0  0  0  0  0  0  0  0  0  0  0
    6.3009  -17.2272   21.6208 C   0  0  0  0  0  0  0  0  0  0  0  0
    7.0215  -16.0341   22.0705 C   0  0  0  0  0  0  0  0  0  0  0  0
    7.9359  -15.5699   21.3422 O   0  0  0  0  0  0  0  0  0  0  0  0
    6.3103  -13.1680   27.0756 N   0  0  0  0  0  0  0  0  0  0  0  0
    6.3143  -13.8131   25.8301 C   0  0  0  0  0  0  0  0  0  0  0  0
    5.8734  -15.0110   25.7857 O   0  0  0  0  0  0  0  0  0  0  0  0
    6.7738  -13.2600   24.5557 C   0  0  0  0  0  0  0  0  0  0  0  0
    7.5675  -14.2129   23.7127 C   0  0  2  0  0  0  0  0  0  0  0  0
    6.7664  -15.3444   23.2877 N   0  0  0  0  0  0  0  0  0  0  0  0
    8.8150  -14.6633   24.3765 C   0  0  0  0  0  0  0  0  0  0  0  0
    9.6929  -13.8484   24.8089 O   0  0  0  0  0  0  0  0  0  0  0  0
    9.0910  -16.0176   24.5621 N   0  0  0  0  0  0  0  0  0  0  0  0
   10.2972  -16.5542   25.2050 C   0  0  1  0  0  0  0  0  0  0  0  0
    9.9722  -17.4107   26.3572 C   0  0  0  0  0  0  0  0  0  0  0  0
   11.1986  -17.9845   26.9967 C   0  0  0  0  0  0  0  0  0  0  0  0
   10.9827  -18.8383   28.1587 C   0  0  0  0  0  0  0  0  0  0  0  0
    9.9171  -18.8537   28.8015 O   0  0  0  0  0  0  0  0  0  0  0  0
   11.0064  -17.3235   24.1615 C   0  0  0  0  0  0  0  0  0  0  0  0
   12.3754  -17.5608   24.1863 O   0  0  0  0  0  0  0  0  0  0  0  0
   12.0071  -19.6737   28.5724 O   0  0  0  0  0  0  0  0  0  0  0  0
   10.3072  -17.7829   23.1934 O   0  0  0  0  0  0  0  0  0  0  0  0
  2  3  1  0
  2  1  1  0
  3  4  2  0
  5  6  1  0
  6  8  1  0
  7  6  2  0
  9  8  1  1
 10  3  1  0
 10  9  1  0
 11 13  1  0
 11  9  1  0
 12 11  2  0
 14 13  1  0
 14 15  1  1
 15 16  1  0
 16 17  1  0
 17 21  1  0
 18 17  2  0
 19 20  1  0
 19 14  1  0
 22 19  2  0
M  END
$$$$
