GNE.pdb
     RDKit          3D

 22 21  0  0  1  0  0  0  0  0999 V2000
    8.6934  -15.7783   13.3890 N   0  0  0  0  0  0  0  0  0  0  0  0
    8.0795  -16.1308   14.6501 C   0  0  0  0  0  0  0  0  0  0  0  0
    8.6011  -15.3575   15.7792 C   0  0  0  0  0  0  0  0  0  0  0  0
    9.7940  -14.9607   15.7404 O   0  0  0  0  0  0  0  0  0  0  0  0
    8.2237  -11.5367   20.0585 N   0  0  0  0  0  0  0  0  0  0  0  0
    7.8565  -12.8905   20.0450 C   0  0  0  0  0  0  0  0  0  0  0  0
    7.9670  -13.5418   21.1381 O   0  0  0  0  0  0  0  0  0  0  0  0
    7.3532  -13.6528   18.9019 C   0  0  0  0  0  0  0  0  0  0  0  0
    8.4192  -14.2127   18.0081 C   0  0  2  0  0  0  0  0  0  0  0  0
    7.8537  -15.0124   16.9389 N   0  0  0  0  0  0  0  0  0  0  0  0
    9.4511  -14.9738   18.7536 C   0  0  0  0  0  0  0  0  0  0  0  0
    9.3467  -16.2216   18.9858 O   0  0  0  0  0  0  0  0  0  0  0  0
   10.6001  -14.3529   19.2424 N   0  0  0  0  0  0  0  0  0  0  0  0
   11.7706  -15.0508   19.7891 C   0  0  1  0  0  0  0  0  0  0  0  0
   13.0316  -14.3969   19.4028 C   0  0  0  0  0  0  0  0  0  0  0  0
   14.2266  -15.0943   19.9753 C   0  0  0  0  0  0  0  0  0  0  0  0
   15.5243  -14.4950   19.6878 C   0  0  0  0  0  0  0  0  0  0  0  0
   16.4858  -14.5467   20.4763 O   0  0  0  0  0  0  0  0  0  0  0  0
   11.6013  -15.0406   21.2571 C   0  0  0  0  0  0  0  0  0  0  0  0
   12.2803  -15.9027   22.1096 O   0  0  0  0  0  0  0  0  0  0  0  0
   15.7026  -13.8357   18.4828 O   0  0  0  0  0  0  0  0  0  0  0  0
   10.7813  -14.1898   21.7477 O   0  0  0  0  0  0  0  0  0  0  0  0
  2  3  1  0
  2  1  1  0
  3  4  2  0
  5  6  1  0
  6  8  1  0
  7  6  2  0
  9  8  1  1
 10  3  1  0
 10  9  1  0
 11 13  1  0
 11  9  1  0
 12 11  2  0
 14 13  1  0
 14 15  1  1
 15 16  1  0
 16 17  1  0
 17 21  1  0
 18 17  2  0
 19 20  1  0
 19 14  1  0
 22 19  2  0
M  END
$$$$
