GNE.pdb
     RDKit          3D

 22 21  0  0  1  0  0  0  0  0999 V2000
    6.1532  -19.3423   19.0254 N   0  0  0  0  0  0  0  0  0  0  0  0
    5.9951  -18.2682   19.9809 C   0  0  0  0  0  0  0  0  0  0  0  0
    7.1780  -17.4106   20.0825 C   0  0  0  0  0  0  0  0  0  0  0  0
    8.3008  -17.8916   19.7826 O   0  0  0  0  0  0  0  0  0  0  0  0
    6.5575  -12.4031   19.1989 N   0  0  0  0  0  0  0  0  0  0  0  0
    7.5937  -13.3308   19.3814 C   0  0  0  0  0  0  0  0  0  0  0  0
    8.1437  -13.8132   18.3344 O   0  0  0  0  0  0  0  0  0  0  0  0
    8.1241  -13.8160   20.6559 C   0  0  0  0  0  0  0  0  0  0  0  0
    8.3789  -15.2930   20.7031 C   0  0  2  0  0  0  0  0  0  0  0  0
    7.1598  -16.0517   20.5014 N   0  0  0  0  0  0  0  0  0  0  0  0
    9.0699  -15.7162   21.9453 C   0  0  0  0  0  0  0  0  0  0  0  0
    8.5330  -15.6151   23.0956 O   0  0  0  0  0  0  0  0  0  0  0  0
   10.3568  -16.2523   21.9140 N   0  0  0  0  0  0  0  0  0  0  0  0
   11.0747  -16.7957   23.0740 C   0  0  1  0  0  0  0  0  0  0  0  0
   11.3608  -18.2316   22.9212 C   0  0  0  0  0  0  0  0  0  0  0  0
   12.0524  -18.7995   24.1218 C   0  0  0  0  0  0  0  0  0  0  0  0
   12.4086  -20.2117   24.0552 C   0  0  0  0  0  0  0  0  0  0  0  0
   13.5513  -20.6363   24.3056 O   0  0  0  0  0  0  0  0  0  0  0  0
   12.3270  -16.0183   23.1782 C   0  0  0  0  0  0  0  0  0  0  0  0
   13.0384  -15.8726   24.3630 O   0  0  0  0  0  0  0  0  0  0  0  0
   11.4348  -21.1293   23.6971 O   0  0  0  0  0  0  0  0  0  0  0  0
   12.7595  -15.4561   22.1134 O   0  0  0  0  0  0  0  0  0  0  0  0
  2  3  1  0
  2  1  1  0
  3  4  2  0
  5  6  1  0
  6  8  1  0
  7  6  2  0
  9  8  1  1
 10  3  1  0
 10  9  1  0
 11 13  1  0
 11  9  1  0
 12 11  2  0
 14 13  1  0
 14 15  1  6
 15 16  1  0
 16 17  1  0
 17 21  1  0
 18 17  2  0
 19 20  1  0
 19 14  1  0
 22 19  2  0
M  END
$$$$
