GNE.pdb
     RDKit          3D

 22 21  0  0  1  0  0  0  0  0999 V2000
    6.7502  -19.5697   19.4689 N   0  0  0  0  0  0  0  0  0  0  0  0
    6.3751  -18.3427   20.1363 C   0  0  0  0  0  0  0  0  0  0  0  0
    7.4746  -17.3797   20.2291 C   0  0  0  0  0  0  0  0  0  0  0  0
    8.6477  -17.7791   20.0140 O   0  0  0  0  0  0  0  0  0  0  0  0
    6.3172  -12.5486   19.1616 N   0  0  0  0  0  0  0  0  0  0  0  0
    7.4748  -13.3156   19.3595 C   0  0  0  0  0  0  0  0  0  0  0  0
    8.0813  -13.7456   18.3209 O   0  0  0  0  0  0  0  0  0  0  0  0
    8.0757  -13.6845   20.6417 C   0  0  0  0  0  0  0  0  0  0  0  0
    8.4594  -15.1296   20.7573 C   0  0  2  0  0  0  0  0  0  0  0  0
    7.3205  -16.0026   20.5493 N   0  0  0  0  0  0  0  0  0  0  0  0
    9.1422  -15.4410   22.0365 C   0  0  0  0  0  0  0  0  0  0  0  0
    8.5731  -15.3031   23.1674 O   0  0  0  0  0  0  0  0  0  0  0  0
   10.4567  -15.9058   22.0640 N   0  0  0  0  0  0  0  0  0  0  0  0
   11.1955  -16.2810   23.2762 C   0  0  1  0  0  0  0  0  0  0  0  0
   10.9817  -17.6922   23.6365 C   0  0  0  0  0  0  0  0  0  0  0  0
   11.7417  -18.0813   24.8667 C   0  0  0  0  0  0  0  0  0  0  0  0
   11.5676  -19.4536   25.3273 C   0  0  0  0  0  0  0  0  0  0  0  0
   10.4690  -20.0382   25.3199 O   0  0  0  0  0  0  0  0  0  0  0  0
   12.6203  -16.0241   22.9801 C   0  0  0  0  0  0  0  0  0  0  0  0
   13.1106  -15.8369   21.6934 O   0  0  0  0  0  0  0  0  0  0  0  0
   12.6722  -20.1451   25.7965 O   0  0  0  0  0  0  0  0  0  0  0  0
   13.4273  -15.9789   23.9719 O   0  0  0  0  0  0  0  0  0  0  0  0
  2  3  1  0
  2  1  1  0
  3  4  2  0
  5  6  1  0
  6  8  1  0
  7  6  2  0
  9  8  1  1
 10  3  1  0
 10  9  1  0
 11 13  1  0
 11  9  1  0
 12 11  2  0
 14 13  1  0
 14 15  1  6
 15 16  1  0
 16 17  1  0
 17 21  1  0
 18 17  2  0
 19 20  1  0
 19 14  1  0
 22 19  2  0
M  END
$$$$
