KFE.pdb
     RDKit          3D

 30 30  0  0  1  0  0  0  0  0999 V2000
    7.9041  -16.3866   19.6707 N   0  0  0  0  0  0  0  0  0  0  0  0
    8.7887  -15.2611   19.6854 C   0  0  1  0  0  0  0  0  0  0  0  0
    8.2176  -14.2029   18.7627 C   0  0  0  0  0  0  0  0  0  0  0  0
    8.1685  -14.7742   17.3733 C   0  0  0  0  0  0  0  0  0  0  0  0
    8.1438  -13.6804   16.3180 C   0  0  0  0  0  0  0  0  0  0  0  0
    7.9820  -14.3692   14.9788 C   0  0  0  0  0  0  0  0  0  0  0  0
    7.7601  -13.3397   13.9898 N   0  0  0  0  0  0  0  0  0  0  0  0
    8.9294  -14.6902   21.0748 C   0  0  0  0  0  0  0  0  0  0  0  0
    9.7214  -13.7445   21.2870 O   0  0  0  0  0  0  0  0  0  0  0  0
    8.1678  -15.2191   22.1472 N   0  0  0  0  0  0  0  0  0  0  0  0
    8.3056  -14.6536   23.4701 C   0  0  1  0  0  0  0  0  0  0  0  0
    7.0069  -14.6139   24.2368 C   0  0  0  0  0  0  0  0  0  0  0  0
    7.0640  -13.8424   25.4933 C   0  0  0  0  0  0  0  0  0  0  0  0
    7.6393  -14.3343   26.6415 C   0  0  0  0  0  0  0  0  0  0  0  0
    7.6959  -13.5877   27.8134 C   0  0  0  0  0  0  0  0  0  0  0  0
    7.1641  -12.3215   27.8333 C   0  0  0  0  0  0  0  0  0  0  0  0
    6.5861  -11.8180   26.6924 C   0  0  0  0  0  0  0  0  0  0  0  0
    6.5381  -12.5710   25.5390 C   0  0  0  0  0  0  0  0  0  0  0  0
    9.4468  -15.2090   24.2046 C   0  0  0  0  0  0  0  0  0  0  0  0
   10.4258  -14.5094   24.5935 O   0  0  0  0  0  0  0  0  0  0  0  0
    9.5470  -16.5915   24.5412 N   0  0  0  0  0  0  0  0  0  0  0  0
   10.6524  -17.0835   25.4271 C   0  0  1  0  0  0  0  0  0  0  0  0
   10.1416  -18.2877   26.1146 C   0  0  0  0  0  0  0  0  0  0  0  0
   11.0581  -19.0607   26.9540 C   0  0  0  0  0  0  0  0  0  0  0  0
   10.7358  -19.2647   28.3718 C   0  0  0  0  0  0  0  0  0  0  0  0
    9.5941  -18.9813   28.8757 O   0  0  0  0  0  0  0  0  0  0  0  0
   11.7920  -17.2535   24.5176 C   0  0  0  0  0  0  0  0  0  0  0  0
   11.6234  -17.8373   23.2402 O   0  0  0  0  0  0  0  0  0  0  0  0
   11.6671  -19.7936   29.2840 O   0  0  0  0  0  0  0  0  0  0  0  0
   12.9714  -16.9186   24.7612 O   0  0  0  0  0  0  0  0  0  0  0  0
  2  1  1  1
  2  3  1  0
  4  5  1  0
  4  3  1  0
  6  5  1  0
  7  6  1  0
  8  9  2  0
  8  2  1  0
 10  8  1  0
 11 10  1  0
 11 12  1  1
 13 12  1  0
 13 14  2  0
 15 14  1  0
 16 15  2  0
 17 18  2  0
 17 16  1  0
 18 13  1  0
 19 21  1  0
 19 11  1  0
 20 19  2  0
 22 21  1  0
 22 27  1  0
 22 23  1  6
 23 24  1  0
 24 25  1  0
 25 26  2  0
 25 29  1  0
 27 28  1  0
 30 27  2  0
M  END
$$$$
