KFE.pdb
     RDKit          3D

 30 30  0  0  1  0  0  0  0  0999 V2000
    9.1907  -16.3469   18.6647 N   0  0  0  0  0  0  0  0  0  0  0  0
    8.2075  -16.5960   19.6750 C   0  0  1  0  0  0  0  0  0  0  0  0
    8.1756  -18.0878   19.9414 C   0  0  0  0  0  0  0  0  0  0  0  0
    7.9145  -18.7880   18.6374 C   0  0  0  0  0  0  0  0  0  0  0  0
    6.5278  -19.4097   18.6027 C   0  0  0  0  0  0  0  0  0  0  0  0
    6.4065  -20.1331   17.2775 C   0  0  0  0  0  0  0  0  0  0  0  0
    6.7429  -21.5185   17.5115 N   0  0  0  0  0  0  0  0  0  0  0  0
    8.5360  -15.8663   20.9540 C   0  0  0  0  0  0  0  0  0  0  0  0
    9.7034  -15.8859   21.4051 O   0  0  0  0  0  0  0  0  0  0  0  0
    7.5279  -15.1553   21.6524 N   0  0  0  0  0  0  0  0  0  0  0  0
    7.8176  -14.5947   22.9527 C   0  0  1  0  0  0  0  0  0  0  0  0
    6.7697  -13.6172   23.4244 C   0  0  0  0  0  0  0  0  0  0  0  0
    6.9993  -13.0850   24.7813 C   0  0  0  0  0  0  0  0  0  0  0  0
    7.9019  -12.0808   25.0425 C   0  0  0  0  0  0  0  0  0  0  0  0
    8.0959  -11.5823   26.3261 C   0  0  0  0  0  0  0  0  0  0  0  0
    7.3691  -12.1023   27.3691 C   0  0  0  0  0  0  0  0  0  0  0  0
    6.4635  -13.1063   27.1217 C   0  0  0  0  0  0  0  0  0  0  0  0
    6.2832  -13.5893   25.8434 C   0  0  0  0  0  0  0  0  0  0  0  0
    8.2056  -15.6143   23.9325 C   0  0  0  0  0  0  0  0  0  0  0  0
    7.6101  -16.7238   24.0489 O   0  0  0  0  0  0  0  0  0  0  0  0
    9.2916  -15.4367   24.8400 N   0  0  0  0  0  0  0  0  0  0  0  0
   10.1715  -16.5922   25.2134 C   0  0  1  0  0  0  0  0  0  0  0  0
   11.4544  -16.3949   24.5072 C   0  0  0  0  0  0  0  0  0  0  0  0
   12.5558  -17.3201   24.7771 C   0  0  0  0  0  0  0  0  0  0  0  0
   13.8381  -17.1323   24.0871 C   0  0  0  0  0  0  0  0  0  0  0  0
   14.9700  -17.2805   24.6655 O   0  0  0  0  0  0  0  0  0  0  0  0
   10.1938  -16.5662   26.6809 C   0  0  0  0  0  0  0  0  0  0  0  0
    9.9312  -15.3719   27.3922 O   0  0  0  0  0  0  0  0  0  0  0  0
   13.9135  -16.7756   22.7284 O   0  0  0  0  0  0  0  0  0  0  0  0
   10.4346  -17.5445   27.4208 O   0  0  0  0  0  0  0  0  0  0  0  0
  2  1  1  6
  2  3  1  0
  4  5  1  0
  4  3  1  0
  6  5  1  0
  7  6  1  0
  8  9  2  0
  8  2  1  0
 10  8  1  0
 11 10  1  0
 11 12  1  1
 13 12  1  0
 13 14  2  0
 15 14  1  0
 16 15  2  0
 17 18  2  0
 17 16  1  0
 18 13  1  0
 19 21  1  0
 19 11  1  0
 20 19  2  0
 22 21  1  0
 22 27  1  0
 22 23  1  6
 23 24  1  0
 24 25  1  0
 25 26  2  0
 25 29  1  0
 27 28  1  0
 30 27  2  0
M  END
$$$$
