KFE.pdb
     RDKit          3D

 30 30  0  0  1  0  0  0  0  0999 V2000
    9.5227  -16.2552   19.3166 N   0  0  0  0  0  0  0  0  0  0  0  0
    9.3395  -16.9999   20.5255 C   0  0  1  0  0  0  0  0  0  0  0  0
   10.4470  -18.0309   20.6142 C   0  0  0  0  0  0  0  0  0  0  0  0
   10.1615  -19.1088   19.6063 C   0  0  0  0  0  0  0  0  0  0  0  0
   11.2409  -19.1778   18.5383 C   0  0  0  0  0  0  0  0  0  0  0  0
   10.8889  -20.3426   17.6363 C   0  0  0  0  0  0  0  0  0  0  0  0
   11.7966  -20.3060   16.5130 N   0  0  0  0  0  0  0  0  0  0  0  0
    9.3928  -16.1030   21.7375 C   0  0  0  0  0  0  0  0  0  0  0  0
   10.4717  -15.5638   22.0717 O   0  0  0  0  0  0  0  0  0  0  0  0
    8.2245  -15.8650   22.5044 N   0  0  0  0  0  0  0  0  0  0  0  0
    8.3030  -15.0462   23.6928 C   0  0  1  0  0  0  0  0  0  0  0  0
    7.0536  -14.2374   23.9399 C   0  0  0  0  0  0  0  0  0  0  0  0
    7.0518  -13.4921   25.2134 C   0  0  0  0  0  0  0  0  0  0  0  0
    6.3345  -13.9019   26.3129 C   0  0  0  0  0  0  0  0  0  0  0  0
    6.3549  -13.1938   27.5096 C   0  0  0  0  0  0  0  0  0  0  0  0
    7.1107  -12.0510   27.6047 C   0  0  0  0  0  0  0  0  0  0  0  0
    7.8324  -11.6304   26.5131 C   0  0  0  0  0  0  0  0  0  0  0  0
    7.8014  -12.3437   25.3342 C   0  0  0  0  0  0  0  0  0  0  0  0
    8.8075  -15.7854   24.8545 C   0  0  0  0  0  0  0  0  0  0  0  0
    8.1850  -16.7503   25.3840 O   0  0  0  0  0  0  0  0  0  0  0  0
   10.0479  -15.4740   25.4862 N   0  0  0  0  0  0  0  0  0  0  0  0
   10.6294  -16.3910   26.5205 C   0  0  1  0  0  0  0  0  0  0  0  0
   12.0220  -16.6659   26.1096 C   0  0  0  0  0  0  0  0  0  0  0  0
   12.2623  -17.2742   24.8003 C   0  0  0  0  0  0  0  0  0  0  0  0
   13.6429  -17.4679   24.3399 C   0  0  0  0  0  0  0  0  0  0  0  0
   14.6641  -17.1733   25.0528 O   0  0  0  0  0  0  0  0  0  0  0  0
   10.4238  -15.6787   27.7874 C   0  0  0  0  0  0  0  0  0  0  0  0
    9.9852  -14.3339   27.8039 O   0  0  0  0  0  0  0  0  0  0  0  0
   13.9433  -17.9984   23.0721 O   0  0  0  0  0  0  0  0  0  0  0  0
   10.6046  -16.1583   28.9275 O   0  0  0  0  0  0  0  0  0  0  0  0
  2  1  1  6
  2  3  1  0
  4  5  1  0
  4  3  1  0
  6  5  1  0
  7  6  1  0
  8  9  2  0
  8  2  1  0
 10  8  1  0
 11 10  1  0
 11 12  1  1
 13 12  1  0
 13 14  2  0
 15 14  1  0
 16 15  2  0
 17 18  2  0
 17 16  1  0
 18 13  1  0
 19 21  1  0
 19 11  1  0
 20 19  2  0
 22 21  1  0
 22 27  1  0
 22 23  1  6
 23 24  1  0
 24 25  1  0
 25 26  2  0
 25 29  1  0
 27 28  1  0
 30 27  2  0
M  END
$$$$
