KFE.pdb
     RDKit          3D

 30 30  0  0  1  0  0  0  0  0999 V2000
    8.4229  -17.7695   20.3705 N   0  0  0  0  0  0  0  0  0  0  0  0
    9.5850  -16.9361   20.4368 C   0  0  1  0  0  0  0  0  0  0  0  0
    9.6444  -16.1112   19.1666 C   0  0  0  0  0  0  0  0  0  0  0  0
   10.4057  -16.8973   18.1362 C   0  0  0  0  0  0  0  0  0  0  0  0
    9.7785  -16.7695   16.7576 C   0  0  0  0  0  0  0  0  0  0  0  0
   10.5659  -17.6756   15.8338 C   0  0  0  0  0  0  0  0  0  0  0  0
   10.0138  -17.5222   14.5077 N   0  0  0  0  0  0  0  0  0  0  0  0
    9.5333  -16.0143   21.6300 C   0  0  0  0  0  0  0  0  0  0  0  0
   10.5614  -15.3991   21.9922 O   0  0  0  0  0  0  0  0  0  0  0  0
    8.3234  -15.8385   22.3477 N   0  0  0  0  0  0  0  0  0  0  0  0
    8.3269  -15.0901   23.5841 C   0  0  1  0  0  0  0  0  0  0  0  0
    7.0383  -14.3452   23.8306 C   0  0  0  0  0  0  0  0  0  0  0  0
    7.0012  -13.5950   25.1006 C   0  0  0  0  0  0  0  0  0  0  0  0
    6.5021  -14.1300   26.2651 C   0  0  0  0  0  0  0  0  0  0  0  0
    6.4870  -13.4128   27.4564 C   0  0  0  0  0  0  0  0  0  0  0  0
    6.9830  -12.1322   27.4794 C   0  0  0  0  0  0  0  0  0  0  0  0
    7.4848  -11.5855   26.3224 C   0  0  0  0  0  0  0  0  0  0  0  0
    7.4924  -12.3099   25.1498 C   0  0  0  0  0  0  0  0  0  0  0  0
    8.8187  -15.8782   24.7187 C   0  0  0  0  0  0  0  0  0  0  0  0
    8.4874  -17.0818   24.9203 O   0  0  0  0  0  0  0  0  0  0  0  0
    9.7150  -15.3483   25.6936 N   0  0  0  0  0  0  0  0  0  0  0  0
   10.5184  -16.2629   26.5693 C   0  0  1  0  0  0  0  0  0  0  0  0
   11.8490  -16.3930   25.9400 C   0  0  0  0  0  0  0  0  0  0  0  0
   12.8728  -17.1902   26.6171 C   0  0  0  0  0  0  0  0  0  0  0  0
   14.2068  -17.3084   26.0153 C   0  0  0  0  0  0  0  0  0  0  0  0
   14.9062  -18.3785   26.0732 O   0  0  0  0  0  0  0  0  0  0  0  0
   10.4535  -15.6378   27.8959 C   0  0  0  0  0  0  0  0  0  0  0  0
   10.6189  -16.4063   29.0719 O   0  0  0  0  0  0  0  0  0  0  0  0
   14.8145  -16.2446   25.3238 O   0  0  0  0  0  0  0  0  0  0  0  0
   10.2554  -14.4236   28.1173 O   0  0  0  0  0  0  0  0  0  0  0  0
  2  1  1  6
  2  3  1  0
  4  5  1  0
  4  3  1  0
  6  5  1  0
  7  6  1  0
  8  9  2  0
  8  2  1  0
 10  8  1  0
 11 10  1  0
 11 12  1  1
 13 12  1  0
 13 14  2  0
 15 14  1  0
 16 15  2  0
 17 18  2  0
 17 16  1  0
 18 13  1  0
 19 21  1  0
 19 11  1  0
 20 19  2  0
 22 21  1  0
 22 27  1  0
 22 23  1  6
 23 24  1  0
 24 25  1  0
 25 26  2  0
 25 29  1  0
 27 28  1  0
 30 27  2  0
M  END
$$$$
