KFE.pdb
     RDKit          3D

 30 30  0  0  1  0  0  0  0  0999 V2000
    8.2542  -17.1087   19.8085 N   0  0  0  0  0  0  0  0  0  0  0  0
    8.6913  -15.7492   19.7087 C   0  0  1  0  0  0  0  0  0  0  0  0
    7.6861  -14.9937   18.8623 C   0  0  0  0  0  0  0  0  0  0  0  0
    8.3198  -14.7100   17.5293 C   0  0  0  0  0  0  0  0  0  0  0  0
    7.3606  -13.9915   16.5942 C   0  0  0  0  0  0  0  0  0  0  0  0
    8.0946  -13.7925   15.2842 C   0  0  0  0  0  0  0  0  0  0  0  0
    7.1616  -13.1991   14.3545 N   0  0  0  0  0  0  0  0  0  0  0  0
    8.7883  -15.1013   21.0678 C   0  0  0  0  0  0  0  0  0  0  0  0
    9.6573  -14.2273   21.2853 O   0  0  0  0  0  0  0  0  0  0  0  0
    7.8983  -15.4768   22.1054 N   0  0  0  0  0  0  0  0  0  0  0  0
    8.0717  -14.9271   23.4308 C   0  0  1  0  0  0  0  0  0  0  0  0
    6.8354  -14.2389   23.9543 C   0  0  0  0  0  0  0  0  0  0  0  0
    6.9799  -13.6740   25.3097 C   0  0  0  0  0  0  0  0  0  0  0  0
    6.5578  -14.3355   26.4391 C   0  0  0  0  0  0  0  0  0  0  0  0
    6.7140  -13.7934   27.7102 C   0  0  0  0  0  0  0  0  0  0  0  0
    7.3059  -12.5621   27.8507 C   0  0  0  0  0  0  0  0  0  0  0  0
    7.7323  -11.8902   26.7299 C   0  0  0  0  0  0  0  0  0  0  0  0
    7.5700  -12.4415   25.4771 C   0  0  0  0  0  0  0  0  0  0  0  0
    8.6970  -15.8761   24.3574 C   0  0  0  0  0  0  0  0  0  0  0  0
    8.2500  -17.0415   24.5601 O   0  0  0  0  0  0  0  0  0  0  0  0
    9.8663  -15.5603   25.1107 N   0  0  0  0  0  0  0  0  0  0  0  0
   10.5856  -16.6235   25.8860 C   0  0  1  0  0  0  0  0  0  0  0  0
   12.0030  -16.5653   25.4725 C   0  0  0  0  0  0  0  0  0  0  0  0
   12.3317  -16.7508   24.0584 C   0  0  0  0  0  0  0  0  0  0  0  0
   13.5679  -17.4540   23.6938 C   0  0  0  0  0  0  0  0  0  0  0  0
   13.6573  -18.7298   23.6476 O   0  0  0  0  0  0  0  0  0  0  0  0
   10.2745  -16.3177   27.2876 C   0  0  0  0  0  0  0  0  0  0  0  0
    9.7136  -15.0718   27.6539 O   0  0  0  0  0  0  0  0  0  0  0  0
   14.7512  -16.7686   23.3637 O   0  0  0  0  0  0  0  0  0  0  0  0
   10.4618  -17.0845   28.2568 O   0  0  0  0  0  0  0  0  0  0  0  0
  2  1  1  1
  2  3  1  0
  4  5  1  0
  4  3  1  0
  6  5  1  0
  7  6  1  0
  8  9  2  0
  8  2  1  0
 10  8  1  0
 11 10  1  0
 11 12  1  1
 13 12  1  0
 13 14  2  0
 15 14  1  0
 16 15  2  0
 17 18  2  0
 17 16  1  0
 18 13  1  0
 19 21  1  0
 19 11  1  0
 20 19  2  0
 22 21  1  0
 22 27  1  0
 22 23  1  1
 23 24  1  0
 24 25  1  0
 25 26  2  0
 25 29  1  0
 27 28  1  0
 30 27  2  0
M  END
$$$$
