KFE.pdb
     RDKit          3D

 30 30  0  0  1  0  0  0  0  0999 V2000
    7.5069  -16.5492   19.7958 N   0  0  0  0  0  0  0  0  0  0  0  0
    8.4515  -15.4791   19.6858 C   0  0  1  0  0  0  0  0  0  0  0  0
    7.8629  -14.4257   18.7686 C   0  0  0  0  0  0  0  0  0  0  0  0
    7.4057  -15.1076   17.5096 C   0  0  0  0  0  0  0  0  0  0  0  0
    7.5659  -14.2079   16.2949 C   0  0  0  0  0  0  0  0  0  0  0  0
    8.3651  -14.9908   15.2738 C   0  0  0  0  0  0  0  0  0  0  0  0
    8.5698  -14.1271   14.1340 N   0  0  0  0  0  0  0  0  0  0  0  0
    8.7443  -14.8634   21.0317 C   0  0  0  0  0  0  0  0  0  0  0  0
    9.5892  -13.9454   21.1309 O   0  0  0  0  0  0  0  0  0  0  0  0
    8.0666  -15.3189   22.1906 N   0  0  0  0  0  0  0  0  0  0  0  0
    8.1978  -14.5875   23.4302 C   0  0  1  0  0  0  0  0  0  0  0  0
    6.9222  -14.5498   24.2349 C   0  0  0  0  0  0  0  0  0  0  0  0
    6.9630  -13.6456   25.4003 C   0  0  0  0  0  0  0  0  0  0  0  0
    6.7654  -12.2887   25.2949 C   0  0  0  0  0  0  0  0  0  0  0  0
    6.7943  -11.4532   26.4062 C   0  0  0  0  0  0  0  0  0  0  0  0
    7.0266  -11.9905   27.6487 C   0  0  0  0  0  0  0  0  0  0  0  0
    7.2258  -13.3453   27.7678 C   0  0  0  0  0  0  0  0  0  0  0  0
    7.1939  -14.1597   26.6563 C   0  0  0  0  0  0  0  0  0  0  0  0
    9.3990  -14.9638   24.1825 C   0  0  0  0  0  0  0  0  0  0  0  0
   10.0762  -14.1398   24.8617 O   0  0  0  0  0  0  0  0  0  0  0  0
    9.9049  -16.2972   24.2088 N   0  0  0  0  0  0  0  0  0  0  0  0
   11.1436  -16.6287   24.9864 C   0  0  1  0  0  0  0  0  0  0  0  0
   10.6980  -17.1053   26.3122 C   0  0  0  0  0  0  0  0  0  0  0  0
   10.1100  -18.4414   26.4185 C   0  0  0  0  0  0  0  0  0  0  0  0
    9.8787  -19.0215   27.7472 C   0  0  0  0  0  0  0  0  0  0  0  0
   10.7843  -19.0824   28.6494 O   0  0  0  0  0  0  0  0  0  0  0  0
   11.8612  -17.5800   24.1292 C   0  0  0  0  0  0  0  0  0  0  0  0
   13.1833  -17.9807   24.4336 O   0  0  0  0  0  0  0  0  0  0  0  0
    8.6329  -19.5536   28.1267 O   0  0  0  0  0  0  0  0  0  0  0  0
   11.4055  -18.1102   23.0930 O   0  0  0  0  0  0  0  0  0  0  0  0
  2  1  1  1
  2  3  1  0
  4  5  1  0
  4  3  1  0
  6  5  1  0
  7  6  1  0
  8  9  2  0
  8  2  1  0
 10  8  1  0
 11 10  1  0
 11 12  1  1
 13 12  1  0
 13 14  2  0
 15 14  1  0
 16 15  2  0
 17 18  2  0
 17 16  1  0
 18 13  1  0
 19 21  1  0
 19 11  1  0
 20 19  2  0
 22 21  1  0
 22 27  1  0
 22 23  1  1
 23 24  1  0
 24 25  1  0
 25 26  2  0
 25 29  1  0
 27 28  1  0
 30 27  2  0
M  END
$$$$
