KFE.pdb
     RDKit          3D

 30 30  0  0  1  0  0  0  0  0999 V2000
    7.9119  -17.5140   19.9906 N   0  0  0  0  0  0  0  0  0  0  0  0
    9.2745  -17.1793   20.2747 C   0  0  1  0  0  0  0  0  0  0  0  0
    9.8451  -16.4669   19.0645 C   0  0  0  0  0  0  0  0  0  0  0  0
   10.5499  -17.4860   18.2138 C   0  0  0  0  0  0  0  0  0  0  0  0
    9.5650  -18.3620   17.4568 C   0  0  0  0  0  0  0  0  0  0  0  0
   10.3856  -19.2817   16.5764 C   0  0  0  0  0  0  0  0  0  0  0  0
    9.4613  -20.1372   15.8687 N   0  0  0  0  0  0  0  0  0  0  0  0
    9.3798  -16.2791   21.4808 C   0  0  0  0  0  0  0  0  0  0  0  0
   10.4950  -15.8374   21.8383 O   0  0  0  0  0  0  0  0  0  0  0  0
    8.2197  -15.9281   22.2161 N   0  0  0  0  0  0  0  0  0  0  0  0
    8.3469  -15.1364   23.4186 C   0  0  1  0  0  0  0  0  0  0  0  0
    7.0840  -14.3922   23.7756 C   0  0  0  0  0  0  0  0  0  0  0  0
    7.1501  -13.6571   25.0533 C   0  0  0  0  0  0  0  0  0  0  0  0
    7.8218  -12.4649   25.1905 C   0  0  0  0  0  0  0  0  0  0  0  0
    7.8625  -11.7790   26.3996 C   0  0  0  0  0  0  0  0  0  0  0  0
    7.2159  -12.3004   27.4934 C   0  0  0  0  0  0  0  0  0  0  0  0
    6.5408  -13.4913   27.3697 C   0  0  0  0  0  0  0  0  0  0  0  0
    6.5101  -14.1587   26.1641 C   0  0  0  0  0  0  0  0  0  0  0  0
    8.9652  -15.8804   24.5207 C   0  0  0  0  0  0  0  0  0  0  0  0
    8.4714  -16.9401   25.0026 O   0  0  0  0  0  0  0  0  0  0  0  0
   10.1800  -15.4668   25.1432 N   0  0  0  0  0  0  0  0  0  0  0  0
   11.0011  -16.4391   25.9366 C   0  0  1  0  0  0  0  0  0  0  0  0
   12.3600  -16.4199   25.3567 C   0  0  0  0  0  0  0  0  0  0  0  0
   13.4197  -17.1793   26.0217 C   0  0  0  0  0  0  0  0  0  0  0  0
   14.5629  -17.6588   25.2351 C   0  0  0  0  0  0  0  0  0  0  0  0
   15.5358  -16.9040   24.8864 O   0  0  0  0  0  0  0  0  0  0  0  0
   10.8493  -15.9873   27.3250 C   0  0  0  0  0  0  0  0  0  0  0  0
   10.9606  -16.8965   28.4029 O   0  0  0  0  0  0  0  0  0  0  0  0
   14.6719  -18.9946   24.8077 O   0  0  0  0  0  0  0  0  0  0  0  0
   10.6177  -14.8129   27.6850 O   0  0  0  0  0  0  0  0  0  0  0  0
  2  1  1  6
  2  3  1  0
  4  5  1  0
  4  3  1  0
  6  5  1  0
  7  6  1  0
  8  9  2  0
  8  2  1  0
 10  8  1  0
 11 10  1  0
 11 12  1  1
 13 12  1  0
 13 14  2  0
 15 14  1  0
 16 15  2  0
 17 18  2  0
 17 16  1  0
 18 13  1  0
 19 21  1  0
 19 11  1  0
 20 19  2  0
 22 21  1  0
 22 27  1  0
 22 23  1  6
 23 24  1  0
 24 25  1  0
 25 26  2  0
 25 29  1  0
 27 28  1  0
 30 27  2  0
M  END
$$$$
