MKT.pdb
     RDKit          3D

 25 24  0  0  1  0  0  0  0  0999 V2000
   27.0865  -16.9332  -16.3415 C   0  0  0  0  0  0  0  0  0  0  0  0
   28.5668  -17.8722  -16.8759 S   0  0  0  0  0  0  0  0  0  0  0  0
   28.5488  -19.4707  -16.0151 C   0  0  0  0  0  0  0  0  0  0  0  0
   27.1592  -19.7646  -15.4686 C   0  0  0  0  0  0  0  0  0  0  0  0
   27.2600  -21.0450  -14.6818 C   0  0  2  0  0  0  0  0  0  0  0  0
   27.5532  -22.1344  -15.5913 N   0  0  0  0  0  0  0  0  0  0  0  0
   26.0487  -21.3578  -13.9166 C   0  0  0  0  0  0  0  0  0  0  0  0
   25.1877  -22.2048  -14.2680 O   0  0  0  0  0  0  0  0  0  0  0  0
   25.7793  -20.6814  -12.6775 N   0  0  0  0  0  0  0  0  0  0  0  0
   24.4653  -20.7395  -12.0402 C   0  0  1  0  0  0  0  0  0  0  0  0
   24.5246  -20.2933  -10.6084 C   0  0  0  0  0  0  0  0  0  0  0  0
   23.2409  -20.2333   -9.8875 C   0  0  0  0  0  0  0  0  0  0  0  0
   22.8907  -21.5083   -9.1829 C   0  0  0  0  0  0  0  0  0  0  0  0
   21.5892  -21.5046   -8.4485 C   0  0  0  0  0  0  0  0  0  0  0  0
   21.2027  -22.7317   -7.8427 N   0  0  0  0  0  0  0  0  0  0  0  0
   23.4629  -19.9901  -12.8380 C   0  0  0  0  0  0  0  0  0  0  0  0
   23.6468  -18.7723  -13.0578 O   0  0  0  0  0  0  0  0  0  0  0  0
   22.3629  -19.7493  -16.1994 C   0  0  0  0  0  0  0  0  0  0  0  0
   21.0919  -20.2220  -15.4900 C   0  0  1  0  0  0  0  0  0  0  0  0
   21.0043  -21.6105  -15.6098 O   0  0  0  0  0  0  0  0  0  0  0  0
   21.2395  -19.8145  -14.0326 C   0  0  2  0  0  0  0  0  0  0  0  0
   22.2879  -20.5734  -13.3787 N   0  0  0  0  0  0  0  0  0  0  0  0
   19.9290  -20.0830  -13.3781 C   0  0  0  0  0  0  0  0  0  0  0  0
   19.8180  -20.8979  -12.4289 O   0  0  0  0  0  0  0  0  0  0  0  0
   18.7705  -19.4412  -13.7914 O   0  0  0  0  0  0  0  0  0  0  0  0
  2  1  1  0
  3  2  1  0
  4  3  1  0
  5  7  1  0
  5  4  1  0
  5  6  1  6
  7  8  2  0
  9 10  1  0
  9  7  1  0
 10 11  1  1
 11 12  1  0
 12 13  1  0
 13 14  1  0
 15 14  1  0
 16 22  1  0
 16 10  1  0
 17 16  2  0
 19 18  1  6
 19 21  1  0
 20 19  1  0
 21 22  1  1
 23 21  1  0
 23 25  1  0
 24 23  2  0
M  END
$$$$
