MKT.pdb
     RDKit          3D

 25 24  0  0  1  0  0  0  0  0999 V2000
   18.2858  -17.3159  -14.8278 C   0  0  0  0  0  0  0  0  0  0  0  0
   18.2899  -16.4294  -16.4318 S   0  0  0  0  0  0  0  0  0  0  0  0
   20.0148  -16.2832  -16.9790 C   0  0  0  0  0  0  0  0  0  0  0  0
   20.8417  -17.4448  -16.4468 C   0  0  0  0  0  0  0  0  0  0  0  0
   22.2752  -17.1670  -16.8159 C   0  0  2  0  0  0  0  0  0  0  0  0
   22.3940  -17.1468  -18.2600 N   0  0  0  0  0  0  0  0  0  0  0  0
   23.2211  -18.1402  -16.2599 C   0  0  0  0  0  0  0  0  0  0  0  0
   22.8916  -19.2586  -15.7881 O   0  0  0  0  0  0  0  0  0  0  0  0
   24.6277  -17.8469  -16.2279 N   0  0  0  0  0  0  0  0  0  0  0  0
   25.5989  -18.7979  -15.6905 C   0  0  1  0  0  0  0  0  0  0  0  0
   27.0075  -18.3907  -16.0110 C   0  0  0  0  0  0  0  0  0  0  0  0
   28.0555  -19.3909  -15.7419 C   0  0  0  0  0  0  0  0  0  0  0  0
   27.7541  -20.7418  -16.3156 C   0  0  0  0  0  0  0  0  0  0  0  0
   28.8147  -21.7770  -16.1236 C   0  0  0  0  0  0  0  0  0  0  0  0
   28.4785  -23.1041  -16.5082 N   0  0  0  0  0  0  0  0  0  0  0  0
   25.3749  -19.0110  -14.2389 C   0  0  0  0  0  0  0  0  0  0  0  0
   25.5409  -18.0541  -13.4503 O   0  0  0  0  0  0  0  0  0  0  0  0
   22.6426  -19.7569  -11.9775 C   0  0  0  0  0  0  0  0  0  0  0  0
   23.5662  -20.9643  -11.8011 C   0  0  1  0  0  0  0  0  0  0  0  0
   23.0985  -22.0051  -12.6063 O   0  0  0  0  0  0  0  0  0  0  0  0
   24.9477  -20.5145  -12.2493 C   0  0  2  0  0  0  0  0  0  0  0  0
   24.9773  -20.2508  -13.6748 N   0  0  0  0  0  0  0  0  0  0  0  0
   25.8878  -21.6198  -11.9137 C   0  0  0  0  0  0  0  0  0  0  0  0
   26.4909  -22.2688  -12.8038 O   0  0  0  0  0  0  0  0  0  0  0  0
   26.1379  -21.9803  -10.5975 O   0  0  0  0  0  0  0  0  0  0  0  0
  2  1  1  0
  3  2  1  0
  4  3  1  0
  5  7  1  0
  5  4  1  0
  5  6  1  6
  7  8  2  0
  9 10  1  0
  9  7  1  0
 10 11  1  1
 11 12  1  0
 12 13  1  0
 13 14  1  0
 15 14  1  0
 16 22  1  0
 16 10  1  0
 17 16  2  0
 19 18  1  6
 19 21  1  0
 20 19  1  0
 21 22  1  6
 23 21  1  0
 23 25  1  0
 24 23  2  0
M  END
$$$$
