MKT.pdb
     RDKit          3D

 25 24  0  0  1  0  0  0  0  0999 V2000
   27.2334  -24.6027  -18.7360 C   0  0  0  0  0  0  0  0  0  0  0  0
   28.3124  -23.1302  -18.8977 S   0  0  0  0  0  0  0  0  0  0  0  0
   28.3830  -22.3150  -17.2769 C   0  0  0  0  0  0  0  0  0  0  0  0
   27.1597  -22.6762  -16.4465 C   0  0  0  0  0  0  0  0  0  0  0  0
   26.5278  -21.3801  -16.0114 C   0  0  2  0  0  0  0  0  0  0  0  0
   27.4804  -20.6374  -15.2109 N   0  0  0  0  0  0  0  0  0  0  0  0
   25.2857  -21.5610  -15.2529 C   0  0  0  0  0  0  0  0  0  0  0  0
   24.3088  -22.2483  -15.6468 O   0  0  0  0  0  0  0  0  0  0  0  0
   25.1221  -20.9339  -13.9702 N   0  0  0  0  0  0  0  0  0  0  0  0
   23.9177  -21.1319  -13.1661 C   0  0  1  0  0  0  0  0  0  0  0  0
   24.0714  -20.5566  -11.7884 C   0  0  0  0  0  0  0  0  0  0  0  0
   25.0142  -21.2481  -10.8916 C   0  0  0  0  0  0  0  0  0  0  0  0
   25.2581  -20.5206   -9.6048 C   0  0  0  0  0  0  0  0  0  0  0  0
   26.2791  -21.1314   -8.7003 C   0  0  0  0  0  0  0  0  0  0  0  0
   26.5813  -20.4111   -7.5120 N   0  0  0  0  0  0  0  0  0  0  0  0
   22.7222  -20.6154  -13.8780 C   0  0  0  0  0  0  0  0  0  0  0  0
   22.6839  -19.4092  -14.2077 O   0  0  0  0  0  0  0  0  0  0  0  0
   21.1951  -21.0235  -17.1295 C   0  0  0  0  0  0  0  0  0  0  0  0
   20.1241  -21.5481  -16.1705 C   0  0  1  0  0  0  0  0  0  0  0  0
   20.2516  -22.9355  -16.0752 O   0  0  0  0  0  0  0  0  0  0  0  0
   20.3929  -20.8881  -14.8275 C   0  0  2  0  0  0  0  0  0  0  0  0
   21.5985  -21.4130  -14.2163 N   0  0  0  0  0  0  0  0  0  0  0  0
   19.2140  -21.1775  -13.9645 C   0  0  0  0  0  0  0  0  0  0  0  0
   19.3149  -21.8544  -12.9115 O   0  0  0  0  0  0  0  0  0  0  0  0
   17.9491  -20.7091  -14.2894 O   0  0  0  0  0  0  0  0  0  0  0  0
  2  1  1  0
  3  2  1  0
  4  3  1  0
  5  7  1  0
  5  4  1  0
  5  6  1  1
  7  8  2  0
  9 10  1  0
  9  7  1  0
 10 11  1  1
 11 12  1  0
 12 13  1  0
 13 14  1  0
 15 14  1  0
 16 22  1  0
 16 10  1  0
 17 16  2  0
 19 18  1  6
 19 21  1  0
 20 19  1  0
 21 22  1  1
 23 21  1  0
 23 25  1  0
 24 23  2  0
M  END
$$$$
