MKT.pdb
     RDKit          3D

 25 24  0  0  1  0  0  0  0  0999 V2000
   29.8736  -22.0875  -10.2638 C   0  0  0  0  0  0  0  0  0  0  0  0
   31.3039  -21.3399  -11.1323 S   0  0  0  0  0  0  0  0  0  0  0  0
   30.7602  -20.8845  -12.8036 C   0  0  0  0  0  0  0  0  0  0  0  0
   29.4203  -20.1647  -12.7491 C   0  0  0  0  0  0  0  0  0  0  0  0
   28.8684  -20.1604  -14.1505 C   0  0  2  0  0  0  0  0  0  0  0  0
   29.5751  -19.1653  -14.9316 N   0  0  0  0  0  0  0  0  0  0  0  0
   27.4269  -19.8973  -14.2102 C   0  0  0  0  0  0  0  0  0  0  0  0
   26.8961  -18.7922  -13.9290 O   0  0  0  0  0  0  0  0  0  0  0  0
   26.5167  -20.9352  -14.6100 N   0  0  0  0  0  0  0  0  0  0  0  0
   25.0696  -20.7302  -14.6102 C   0  0  1  0  0  0  0  0  0  0  0  0
   24.4512  -21.1519  -15.9111 C   0  0  0  0  0  0  0  0  0  0  0  0
   22.9874  -21.0181  -16.0141 C   0  0  0  0  0  0  0  0  0  0  0  0
   22.4349  -21.4872  -17.3254 C   0  0  0  0  0  0  0  0  0  0  0  0
   22.3108  -20.4414  -18.3857 C   0  0  0  0  0  0  0  0  0  0  0  0
   21.8237  -20.8775  -19.6485 N   0  0  0  0  0  0  0  0  0  0  0  0
   24.4474  -21.3882  -13.4343 C   0  0  0  0  0  0  0  0  0  0  0  0
   24.6241  -22.6141  -13.2584 O   0  0  0  0  0  0  0  0  0  0  0  0
   25.0635  -21.2173  -10.0438 C   0  0  0  0  0  0  0  0  0  0  0  0
   23.5744  -20.8647  -10.0324 C   0  0  1  0  0  0  0  0  0  0  0  0
   23.4451  -19.4783   -9.9261 O   0  0  0  0  0  0  0  0  0  0  0  0
   23.0080  -21.3596  -11.3537 C   0  0  2  0  0  0  0  0  0  0  0  0
   23.6507  -20.7071  -12.4779 N   0  0  0  0  0  0  0  0  0  0  0  0
   21.5528  -21.0426  -11.3415 C   0  0  0  0  0  0  0  0  0  0  0  0
   21.0513  -20.2055  -12.1320 O   0  0  0  0  0  0  0  0  0  0  0  0
   20.6864  -21.6618  -10.4523 O   0  0  0  0  0  0  0  0  0  0  0  0
  2  1  1  0
  3  2  1  0
  4  3  1  0
  5  7  1  0
  5  4  1  0
  5  6  1  6
  7  8  2  0
  9 10  1  0
  9  7  1  0
 10 11  1  6
 11 12  1  0
 12 13  1  0
 13 14  1  0
 15 14  1  0
 16 22  1  0
 16 10  1  0
 17 16  2  0
 19 18  1  6
 19 21  1  0
 20 19  1  0
 21 22  1  6
 23 21  1  0
 23 25  1  0
 24 23  2  0
M  END
$$$$
