MKT.pdb
     RDKit          3D

 25 24  0  0  1  0  0  0  0  0999 V2000
   26.3210  -18.7507   -6.5583 C   0  0  0  0  0  0  0  0  0  0  0  0
   27.9684  -19.5342   -6.7333 S   0  0  0  0  0  0  0  0  0  0  0  0
   27.8266  -20.8493   -7.9769 C   0  0  0  0  0  0  0  0  0  0  0  0
   27.2516  -20.2958   -9.2728 C   0  0  0  0  0  0  0  0  0  0  0  0
   27.1019  -21.4593  -10.2174 C   0  0  2  0  0  0  0  0  0  0  0  0
   28.4178  -21.9630  -10.5560 N   0  0  0  0  0  0  0  0  0  0  0  0
   26.3740  -21.1250  -11.4459 C   0  0  0  0  0  0  0  0  0  0  0  0
   26.9239  -20.8645  -12.5466 O   0  0  0  0  0  0  0  0  0  0  0  0
   24.9375  -21.0780  -11.4471 N   0  0  0  0  0  0  0  0  0  0  0  0
   24.1706  -21.0522  -12.6910 C   0  0  1  0  0  0  0  0  0  0  0  0
   22.7158  -21.3318  -12.4500 C   0  0  0  0  0  0  0  0  0  0  0  0
   21.8572  -21.4092  -13.6449 C   0  0  0  0  0  0  0  0  0  0  0  0
   20.4585  -21.8568  -13.3481 C   0  0  0  0  0  0  0  0  0  0  0  0
   19.5394  -21.9288  -14.5243 C   0  0  0  0  0  0  0  0  0  0  0  0
   18.2475  -22.4719  -14.2835 N   0  0  0  0  0  0  0  0  0  0  0  0
   24.4015  -19.7814  -13.4221 C   0  0  0  0  0  0  0  0  0  0  0  0
   24.1742  -18.6960  -12.8432 O   0  0  0  0  0  0  0  0  0  0  0  0
   27.1941  -17.8761  -14.6787 C   0  0  0  0  0  0  0  0  0  0  0  0
   26.4148  -18.2253  -15.9486 C   0  0  1  0  0  0  0  0  0  0  0  0
   26.9729  -19.3744  -16.5127 O   0  0  0  0  0  0  0  0  0  0  0  0
   24.9805  -18.4800  -15.5132 C   0  0  2  0  0  0  0  0  0  0  0  0
   24.8719  -19.7137  -14.7591 N   0  0  0  0  0  0  0  0  0  0  0  0
   24.1645  -18.5663  -16.7561 C   0  0  0  0  0  0  0  0  0  0  0  0
   23.5186  -19.6016  -17.0531 O   0  0  0  0  0  0  0  0  0  0  0  0
   24.0834  -17.5016  -17.6420 O   0  0  0  0  0  0  0  0  0  0  0  0
  2  1  1  0
  3  2  1  0
  4  3  1  0
  5  7  1  0
  5  4  1  0
  5  6  1  6
  7  8  2  0
  9 10  1  0
  9  7  1  0
 10 11  1  1
 11 12  1  0
 12 13  1  0
 13 14  1  0
 15 14  1  0
 16 22  1  0
 16 10  1  0
 17 16  2  0
 19 18  1  1
 19 21  1  0
 20 19  1  0
 21 22  1  6
 23 21  1  0
 23 25  1  0
 24 23  2  0
M  END
$$$$
