MKT.pdb
     RDKit          3D

 25 24  0  0  1  0  0  0  0  0999 V2000
   29.9806  -20.0011  -11.1548 C   0  0  0  0  0  0  0  0  0  0  0  0
   29.3090  -21.1990   -9.9412 S   0  0  0  0  0  0  0  0  0  0  0  0
   27.5017  -21.2070  -10.1135 C   0  0  0  0  0  0  0  0  0  0  0  0
   27.1068  -21.0897  -11.5786 C   0  0  0  0  0  0  0  0  0  0  0  0
   25.6038  -21.0010  -11.6210 C   0  0  2  0  0  0  0  0  0  0  0  0
   25.0447  -22.2057  -11.0414 N   0  0  0  0  0  0  0  0  0  0  0  0
   25.0673  -20.8129  -12.9729 C   0  0  0  0  0  0  0  0  0  0  0  0
   25.3175  -21.5694  -13.9461 O   0  0  0  0  0  0  0  0  0  0  0  0
   24.1940  -19.7078  -13.2587 N   0  0  0  0  0  0  0  0  0  0  0  0
   23.6827  -19.4608  -14.6055 C   0  0  1  0  0  0  0  0  0  0  0  0
   22.2079  -19.1826  -14.5951 C   0  0  0  0  0  0  0  0  0  0  0  0
   21.5786  -18.9372  -15.9046 C   0  0  0  0  0  0  0  0  0  0  0  0
   20.0979  -18.7228  -15.8256 C   0  0  0  0  0  0  0  0  0  0  0  0
   19.4145  -18.4451  -17.1254 C   0  0  0  0  0  0  0  0  0  0  0  0
   17.9945  -18.3796  -17.0906 N   0  0  0  0  0  0  0  0  0  0  0  0
   24.4674  -18.3942  -15.2759 C   0  0  0  0  0  0  0  0  0  0  0  0
   24.4607  -17.2396  -14.7944 O   0  0  0  0  0  0  0  0  0  0  0  0
   27.8360  -17.7687  -15.5017 C   0  0  0  0  0  0  0  0  0  0  0  0
   27.4984  -17.8186  -16.9935 C   0  0  1  0  0  0  0  0  0  0  0  0
   27.8156  -19.0885  -17.4804 O   0  0  0  0  0  0  0  0  0  0  0  0
   26.0047  -17.5566  -17.1025 C   0  0  2  0  0  0  0  0  0  0  0  0
   25.2394  -18.6002  -16.4485 N   0  0  0  0  0  0  0  0  0  0  0  0
   25.6814  -17.5193  -18.5559 C   0  0  0  0  0  0  0  0  0  0  0  0
   24.9117  -18.3593  -19.0844 O   0  0  0  0  0  0  0  0  0  0  0  0
   26.2194  -16.5504  -19.3906 O   0  0  0  0  0  0  0  0  0  0  0  0
  2  1  1  0
  3  2  1  0
  4  3  1  0
  5  7  1  0
  5  4  1  0
  5  6  1  6
  7  8  2  0
  9 10  1  0
  9  7  1  0
 10 11  1  1
 11 12  1  0
 12 13  1  0
 13 14  1  0
 15 14  1  0
 16 22  1  0
 16 10  1  0
 17 16  2  0
 19 18  1  1
 19 21  1  0
 20 19  1  0
 21 22  1  1
 23 21  1  0
 23 25  1  0
 24 23  2  0
M  END
$$$$
