MKT.pdb
     RDKit          3D

 25 24  0  0  1  0  0  0  0  0999 V2000
    9.6296  -15.2693  -11.6724 C   0  0  0  0  0  0  0  0  0  0  0  0
   10.8173  -14.0956  -10.9171 S   0  0  0  0  0  0  0  0  0  0  0  0
   12.3061  -14.0695  -11.9558 C   0  0  0  0  0  0  0  0  0  0  0  0
   13.2727  -12.9978  -11.4725 C   0  0  0  0  0  0  0  0  0  0  0  0
   14.4710  -13.0460  -12.3838 C   0  0  2  0  0  0  0  0  0  0  0  0
   15.1554  -14.3093  -12.1949 N   0  0  0  0  0  0  0  0  0  0  0  0
   15.4123  -11.9419  -12.1706 C   0  0  0  0  0  0  0  0  0  0  0  0
   16.3002  -11.9299  -11.2798 O   0  0  0  0  0  0  0  0  0  0  0  0
   15.3602  -10.7735  -13.0059 N   0  0  0  0  0  0  0  0  0  0  0  0
   16.3537   -9.7069  -12.8981 C   0  0  1  0  0  0  0  0  0  0  0  0
   16.9243   -9.3449  -14.2383 C   0  0  0  0  0  0  0  0  0  0  0  0
   17.8322  -10.3303  -14.8513 C   0  0  0  0  0  0  0  0  0  0  0  0
   18.4552   -9.8557  -16.1285 C   0  0  0  0  0  0  0  0  0  0  0  0
   19.3901  -10.8172  -16.7881 C   0  0  0  0  0  0  0  0  0  0  0  0
   19.9428  -10.4072  -18.0325 N   0  0  0  0  0  0  0  0  0  0  0  0
   15.7919   -8.5393  -12.1745 C   0  0  0  0  0  0  0  0  0  0  0  0
   14.5969   -8.2219  -12.3657 O   0  0  0  0  0  0  0  0  0  0  0  0
   15.4491   -7.7601   -8.4266 C   0  0  0  0  0  0  0  0  0  0  0  0
   16.3496   -6.6941   -9.0548 C   0  0  1  0  0  0  0  0  0  0  0  0
   17.6805   -7.0883   -8.9025 O   0  0  0  0  0  0  0  0  0  0  0  0
   15.9713   -6.6283  -10.5260 C   0  0  2  0  0  0  0  0  0  0  0  0
   16.5331   -7.7436  -11.2630 N   0  0  0  0  0  0  0  0  0  0  0  0
   16.5128   -5.3438  -11.0503 C   0  0  0  0  0  0  0  0  0  0  0  0
   17.4204   -5.3132  -11.9179 O   0  0  0  0  0  0  0  0  0  0  0  0
   16.0349   -4.1215  -10.6003 O   0  0  0  0  0  0  0  0  0  0  0  0
  2  1  1  0
  3  2  1  0
  4  3  1  0
  5  7  1  0
  5  4  1  0
  5  6  1  1
  7  8  2  0
  9 10  1  0
  9  7  1  0
 10 11  1  6
 11 12  1  0
 12 13  1  0
 13 14  1  0
 15 14  1  0
 16 22  1  0
 16 10  1  0
 17 16  2  0
 19 18  1  1
 19 21  1  0
 20 19  1  0
 21 22  1  6
 23 21  1  0
 23 25  1  0
 24 23  2  0
M  END
$$$$
