MKT.pdb
     RDKit          3D

 25 24  0  0  1  0  0  0  0  0999 V2000
   19.1060  -22.1576  -18.2208 C   0  0  0  0  0  0  0  0  0  0  0  0
   18.3784  -20.5049  -17.9084 S   0  0  0  0  0  0  0  0  0  0  0  0
   19.7438  -19.3473  -17.6051 C   0  0  0  0  0  0  0  0  0  0  0  0
   20.9734  -20.0940  -17.1082 C   0  0  0  0  0  0  0  0  0  0  0  0
   22.1102  -19.7236  -18.0242 C   0  0  2  0  0  0  0  0  0  0  0  0
   23.2822  -20.4912  -17.6539 N   0  0  0  0  0  0  0  0  0  0  0  0
   22.4346  -18.2935  -18.0044 C   0  0  0  0  0  0  0  0  0  0  0  0
   22.3058  -17.5517  -16.9968 O   0  0  0  0  0  0  0  0  0  0  0  0
   22.9359  -17.6476  -19.1864 N   0  0  0  0  0  0  0  0  0  0  0  0
   23.2787  -16.2269  -19.1990 C   0  0  1  0  0  0  0  0  0  0  0  0
   24.2876  -15.9106  -20.2643 C   0  0  0  0  0  0  0  0  0  0  0  0
   25.6933  -16.2182  -19.9468 C   0  0  0  0  0  0  0  0  0  0  0  0
   26.6386  -15.9219  -21.0708 C   0  0  0  0  0  0  0  0  0  0  0  0
   28.0617  -16.3148  -20.8391 C   0  0  0  0  0  0  0  0  0  0  0  0
   28.9450  -16.1678  -21.9439 N   0  0  0  0  0  0  0  0  0  0  0  0
   22.0544  -15.3937  -19.2968 C   0  0  0  0  0  0  0  0  0  0  0  0
   21.1919  -15.6777  -20.1574 O   0  0  0  0  0  0  0  0  0  0  0  0
   19.1595  -15.0380  -17.2912 C   0  0  0  0  0  0  0  0  0  0  0  0
   19.7537  -13.6280  -17.2639 C   0  0  1  0  0  0  0  0  0  0  0  0
   20.5636  -13.5070  -16.1328 O   0  0  0  0  0  0  0  0  0  0  0  0
   20.5768  -13.4866  -18.5344 C   0  0  2  0  0  0  0  0  0  0  0  0
   21.7913  -14.2756  -18.4638 N   0  0  0  0  0  0  0  0  0  0  0  0
   20.9122  -12.0418  -18.6689 C   0  0  0  0  0  0  0  0  0  0  0  0
   20.0249  -11.1695  -18.8398 O   0  0  0  0  0  0  0  0  0  0  0  0
   22.2250  -11.5969  -18.6105 O   0  0  0  0  0  0  0  0  0  0  0  0
  2  1  1  0
  3  2  1  0
  4  3  1  0
  5  7  1  0
  5  4  1  0
  5  6  1  1
  7  8  2  0
  9 10  1  0
  9  7  1  0
 10 11  1  6
 11 12  1  0
 12 13  1  0
 13 14  1  0
 15 14  1  0
 16 22  1  0
 16 10  1  0
 17 16  2  0
 19 18  1  6
 19 21  1  0
 20 19  1  0
 21 22  1  1
 23 21  1  0
 23 25  1  0
 24 23  2  0
M  END
$$$$
