MKT.pdb
     RDKit          3D

 25 24  0  0  1  0  0  0  0  0999 V2000
   31.1785  -20.1299  -20.9626 C   0  0  0  0  0  0  0  0  0  0  0  0
   29.7232  -19.9270  -19.8672 S   0  0  0  0  0  0  0  0  0  0  0  0
   29.4255  -21.5166  -19.0422 C   0  0  0  0  0  0  0  0  0  0  0  0
   28.3368  -21.3729  -17.9884 C   0  0  0  0  0  0  0  0  0  0  0  0
   28.8594  -22.0130  -16.7291 C   0  0  2  0  0  0  0  0  0  0  0  0
   29.4425  -23.2974  -17.0610 N   0  0  0  0  0  0  0  0  0  0  0  0
   27.8343  -22.1924  -15.6958 C   0  0  0  0  0  0  0  0  0  0  0  0
   27.1511  -23.2384  -15.5497 O   0  0  0  0  0  0  0  0  0  0  0  0
   27.5520  -21.1356  -14.7636 N   0  0  0  0  0  0  0  0  0  0  0  0
   26.5546  -21.2895  -13.7065 C   0  0  1  0  0  0  0  0  0  0  0  0
   27.0331  -20.7125  -12.4061 C   0  0  0  0  0  0  0  0  0  0  0  0
   26.3203  -21.1512  -11.1934 C   0  0  0  0  0  0  0  0  0  0  0  0
   24.9342  -20.5938  -11.0802 C   0  0  0  0  0  0  0  0  0  0  0  0
   24.2226  -20.8858   -9.7988 C   0  0  0  0  0  0  0  0  0  0  0  0
   22.9303  -20.3117   -9.6494 N   0  0  0  0  0  0  0  0  0  0  0  0
   25.2460  -20.7373  -14.1370 C   0  0  0  0  0  0  0  0  0  0  0  0
   25.1395  -19.5064  -14.3336 O   0  0  0  0  0  0  0  0  0  0  0  0
   23.2158  -21.4958  -17.0979 C   0  0  0  0  0  0  0  0  0  0  0  0
   22.2385  -21.7314  -15.9441 C   0  0  1  0  0  0  0  0  0  0  0  0
   22.1746  -23.1024  -15.6865 O   0  0  0  0  0  0  0  0  0  0  0  0
   22.8028  -20.9832  -14.7468 C   0  0  2  0  0  0  0  0  0  0  0  0
   24.0855  -21.5269  -14.3448 N   0  0  0  0  0  0  0  0  0  0  0  0
   21.8144  -21.1339  -13.6430 C   0  0  0  0  0  0  0  0  0  0  0  0
   20.6768  -20.6043  -13.6964 O   0  0  0  0  0  0  0  0  0  0  0  0
   22.1102  -21.8692  -12.5043 O   0  0  0  0  0  0  0  0  0  0  0  0
  2  1  1  0
  3  2  1  0
  4  3  1  0
  5  7  1  0
  5  4  1  0
  5  6  1  6
  7  8  2  0
  9 10  1  0
  9  7  1  0
 10 11  1  1
 11 12  1  0
 12 13  1  0
 13 14  1  0
 15 14  1  0
 16 22  1  0
 16 10  1  0
 17 16  2  0
 19 18  1  6
 19 21  1  0
 20 19  1  0
 21 22  1  1
 23 21  1  0
 23 25  1  0
 24 23  2  0
M  END
$$$$
