MKT.pdb
     RDKit          3D

 25 24  0  0  1  0  0  0  0  0999 V2000
   23.7570  -14.6758  -21.8874 C   0  0  0  0  0  0  0  0  0  0  0  0
   22.7495  -13.2117  -21.4404 S   0  0  0  0  0  0  0  0  0  0  0  0
   23.0634  -12.8367  -19.6920 C   0  0  0  0  0  0  0  0  0  0  0  0
   22.3015  -11.5882  -19.2709 C   0  0  0  0  0  0  0  0  0  0  0  0
   22.5621  -11.3915  -17.8006 C   0  0  2  0  0  0  0  0  0  0  0  0
   22.0481  -12.5352  -17.0743 N   0  0  0  0  0  0  0  0  0  0  0  0
   21.9709  -10.1623  -17.2615 C   0  0  0  0  0  0  0  0  0  0  0  0
   22.1976   -9.0102  -17.7124 O   0  0  0  0  0  0  0  0  0  0  0  0
   21.0672  -10.2217  -16.1456 N   0  0  0  0  0  0  0  0  0  0  0  0
   20.3163   -9.0489  -15.7017 C   0  0  1  0  0  0  0  0  0  0  0  0
   19.0937   -9.4372  -14.9224 C   0  0  0  0  0  0  0  0  0  0  0  0
   17.9767  -10.0057  -15.6971 C   0  0  0  0  0  0  0  0  0  0  0  0
   16.8290  -10.4585  -14.8470 C   0  0  0  0  0  0  0  0  0  0  0  0
   15.6312  -10.9556  -15.5896 C   0  0  0  0  0  0  0  0  0  0  0  0
   14.4971  -11.2965  -14.8024 N   0  0  0  0  0  0  0  0  0  0  0  0
   21.1986   -8.1111  -14.9636 C   0  0  0  0  0  0  0  0  0  0  0  0
   21.8631   -8.5368  -13.9928 O   0  0  0  0  0  0  0  0  0  0  0  0
   21.8268   -4.2239  -16.4108 C   0  0  0  0  0  0  0  0  0  0  0  0
   22.9611   -4.9366  -15.6709 C   0  0  1  0  0  0  0  0  0  0  0  0
   23.7493   -3.9770  -15.0322 O   0  0  0  0  0  0  0  0  0  0  0  0
   22.2985   -5.8536  -14.6550 C   0  0  2  0  0  0  0  0  0  0  0  0
   21.3418   -6.7380  -15.2914 N   0  0  0  0  0  0  0  0  0  0  0  0
   21.6073   -4.9745  -13.6714 C   0  0  0  0  0  0  0  0  0  0  0  0
   20.3571   -4.9707  -13.5514 O   0  0  0  0  0  0  0  0  0  0  0  0
   22.3188   -4.1192  -12.8425 O   0  0  0  0  0  0  0  0  0  0  0  0
  2  1  1  0
  3  2  1  0
  4  3  1  0
  5  7  1  0
  5  4  1  0
  5  6  1  1
  7  8  2  0
  9 10  1  0
  9  7  1  0
 10 11  1  1
 11 12  1  0
 12 13  1  0
 13 14  1  0
 15 14  1  0
 16 22  1  0
 16 10  1  0
 17 16  2  0
 19 18  1  1
 19 21  1  0
 20 19  1  0
 21 22  1  6
 23 21  1  0
 23 25  1  0
 24 23  2  0
M  END
$$$$
