MKT.pdb
     RDKit          3D

 25 24  0  0  1  0  0  0  0  0999 V2000
   28.8467  -13.7617  -15.7777 C   0  0  0  0  0  0  0  0  0  0  0  0
   27.9852  -12.1482  -15.8920 S   0  0  0  0  0  0  0  0  0  0  0  0
   26.3520  -12.4438  -16.6278 C   0  0  0  0  0  0  0  0  0  0  0  0
   25.5436  -11.1547  -16.6630 C   0  0  0  0  0  0  0  0  0  0  0  0
   24.1999  -11.4967  -17.2512 C   0  0  2  0  0  0  0  0  0  0  0  0
   24.3804  -11.9114  -18.6279 N   0  0  0  0  0  0  0  0  0  0  0  0
   23.2384  -10.3907  -17.1945 C   0  0  0  0  0  0  0  0  0  0  0  0
   23.0564   -9.5619  -18.1229 O   0  0  0  0  0  0  0  0  0  0  0  0
   22.4261  -10.1957  -16.0250 N   0  0  0  0  0  0  0  0  0  0  0  0
   21.4346   -9.1247  -15.9479 C   0  0  1  0  0  0  0  0  0  0  0  0
   20.1045   -9.6349  -15.4754 C   0  0  0  0  0  0  0  0  0  0  0  0
   19.0004   -8.6595  -15.4503 C   0  0  0  0  0  0  0  0  0  0  0  0
   17.6785   -9.2623  -15.0843 C   0  0  0  0  0  0  0  0  0  0  0  0
   16.5021   -8.3453  -15.1768 C   0  0  0  0  0  0  0  0  0  0  0  0
   15.2261   -8.9306  -14.9499 N   0  0  0  0  0  0  0  0  0  0  0  0
   21.9449   -7.9968  -15.1293 C   0  0  0  0  0  0  0  0  0  0  0  0
   22.5202   -8.2423  -14.0458 O   0  0  0  0  0  0  0  0  0  0  0  0
   24.5045   -5.4236  -15.8335 C   0  0  0  0  0  0  0  0  0  0  0  0
   23.2307   -4.6265  -15.5438 C   0  0  1  0  0  0  0  0  0  0  0  0
   22.6170   -4.3096  -16.7575 O   0  0  0  0  0  0  0  0  0  0  0  0
   22.3400   -5.5332  -14.7094 C   0  0  2  0  0  0  0  0  0  0  0  0
   21.8220   -6.6327  -15.5002 N   0  0  0  0  0  0  0  0  0  0  0  0
   21.2189   -4.6898  -14.2094 C   0  0  0  0  0  0  0  0  0  0  0  0
   20.0308   -4.8902  -14.5640 O   0  0  0  0  0  0  0  0  0  0  0  0
   21.4411   -3.6427  -13.3268 O   0  0  0  0  0  0  0  0  0  0  0  0
  2  1  1  0
  3  2  1  0
  4  3  1  0
  5  7  1  0
  5  4  1  0
  5  6  1  6
  7  8  2  0
  9 10  1  0
  9  7  1  0
 10 11  1  1
 11 12  1  0
 12 13  1  0
 13 14  1  0
 15 14  1  0
 16 22  1  0
 16 10  1  0
 17 16  2  0
 19 18  1  6
 19 21  1  0
 20 19  1  0
 21 22  1  6
 23 21  1  0
 23 25  1  0
 24 23  2  0
M  END
$$$$
