VSD.pdb
     RDKit          3D

 22 21  0  0  1  0  0  0  0  0999 V2000
   17.9470   -8.1528  -18.9494 C   0  0  0  0  0  0  0  0  0  0  0  0
   18.8748   -9.2647  -19.3844 C   0  0  2  0  0  0  0  0  0  0  0  0
   18.3401   -9.8591  -20.6607 C   0  0  0  0  0  0  0  0  0  0  0  0
   19.1014  -10.2883  -18.3167 C   0  0  2  0  0  0  0  0  0  0  0  0
   17.8833  -11.0487  -18.1443 N   0  0  0  0  0  0  0  0  0  0  0  0
   19.5275   -9.7403  -17.0296 C   0  0  0  0  0  0  0  0  0  0  0  0
   18.7256   -9.3322  -16.1363 O   0  0  0  0  0  0  0  0  0  0  0  0
   22.8996   -8.8091  -13.7512 O   0  0  0  0  0  0  0  0  0  0  0  0
   22.6816   -9.3880  -14.9822 C   0  0  0  0  0  0  0  0  0  0  0  0
   21.3693   -8.8959  -15.5269 C   0  0  2  0  0  0  0  0  0  0  0  0
   20.9193   -9.6228  -16.6776 N   0  0  0  0  0  0  0  0  0  0  0  0
   21.4355   -7.4354  -15.7501 C   0  0  0  0  0  0  0  0  0  0  0  0
   21.8557   -6.9982  -16.8493 O   0  0  0  0  0  0  0  0  0  0  0  0
   21.0411   -6.4935  -14.7668 N   0  0  0  0  0  0  0  0  0  0  0  0
   21.0568   -5.0739  -14.9195 C   0  0  1  0  0  0  0  0  0  0  0  0
   19.6633   -4.5203  -14.7901 C   0  0  0  0  0  0  0  0  0  0  0  0
   19.6236   -3.0557  -14.9902 C   0  0  0  0  0  0  0  0  0  0  0  0
   20.6116   -2.4288  -15.4484 O   0  0  0  0  0  0  0  0  0  0  0  0
   22.0363   -4.4014  -14.0412 C   0  0  0  0  0  0  0  0  0  0  0  0
   22.2362   -3.1794  -14.0842 O   0  0  0  0  0  0  0  0  0  0  0  0
   18.4547   -2.3843  -14.6556 O   0  0  0  0  0  0  0  0  0  0  0  0
   22.7631   -5.1723  -13.1296 O   0  0  0  0  0  0  0  0  0  0  0  0
  2  1  1  1
  2  3  1  0
  2  4  1  0
  4  6  1  0
  4  5  1  1
  6  7  2  0
  8  9  1  0
 10  9  1  6
 10 12  1  0
 11  6  1  0
 11 10  1  0
 12 13  2  0
 12 14  1  0
 14 15  1  0
 15 16  1  1
 16 17  1  0
 17 21  1  0
 18 17  2  0
 19 15  1  0
 19 22  1  0
 20 19  2  0
M  END
$$$$
