VSD.pdb
     RDKit          3D

 22 21  0  0  1  0  0  0  0  0999 V2000
   14.4497   -9.3036   -9.1072 C   0  0  0  0  0  0  0  0  0  0  0  0
   13.9753   -8.2529  -10.0857 C   0  0  2  0  0  0  0  0  0  0  0  0
   12.4704   -8.2896  -10.1313 C   0  0  0  0  0  0  0  0  0  0  0  0
   14.6012   -8.3884  -11.4380 C   0  0  2  0  0  0  0  0  0  0  0  0
   14.2325   -9.6744  -11.9875 N   0  0  0  0  0  0  0  0  0  0  0  0
   16.0566   -8.2448  -11.4516 C   0  0  0  0  0  0  0  0  0  0  0  0
   16.6867   -7.3818  -10.7690 O   0  0  0  0  0  0  0  0  0  0  0  0
   18.9675  -11.0798  -11.8450 O   0  0  0  0  0  0  0  0  0  0  0  0
   19.0523  -10.1210  -12.8307 C   0  0  0  0  0  0  0  0  0  0  0  0
   18.3100   -8.8928  -12.3815 C   0  0  2  0  0  0  0  0  0  0  0  0
   16.8958   -9.0924  -12.2590 N   0  0  0  0  0  0  0  0  0  0  0  0
   18.6636   -7.7484  -13.2491 C   0  0  0  0  0  0  0  0  0  0  0  0
   18.0548   -7.5870  -14.3351 O   0  0  0  0  0  0  0  0  0  0  0  0
   19.6717   -6.8127  -12.9065 N   0  0  0  0  0  0  0  0  0  0  0  0
   20.0981   -5.7146  -13.7137 C   0  0  1  0  0  0  0  0  0  0  0  0
   19.3712   -4.4594  -13.3122 C   0  0  0  0  0  0  0  0  0  0  0  0
   19.6919   -3.3206  -14.1992 C   0  0  0  0  0  0  0  0  0  0  0  0
   20.4948   -3.4414  -15.1582 O   0  0  0  0  0  0  0  0  0  0  0  0
   21.5662   -5.5522  -13.7530 C   0  0  0  0  0  0  0  0  0  0  0  0
   22.2588   -5.5323  -12.7260 O   0  0  0  0  0  0  0  0  0  0  0  0
   19.0766   -2.1021  -13.9427 O   0  0  0  0  0  0  0  0  0  0  0  0
   22.1951   -5.4161  -14.9938 O   0  0  0  0  0  0  0  0  0  0  0  0
  2  1  1  1
  2  3  1  0
  2  4  1  0
  4  6  1  0
  4  5  1  1
  6  7  2  0
  8  9  1  0
 10  9  1  6
 10 12  1  0
 11  6  1  0
 11 10  1  0
 12 13  2  0
 12 14  1  0
 14 15  1  0
 15 16  1  1
 16 17  1  0
 17 21  1  0
 18 17  2  0
 19 15  1  0
 19 22  1  0
 20 19  2  0
M  END
$$$$
