VSD.pdb
     RDKit          3D

 22 21  0  0  1  0  0  0  0  0999 V2000
   16.8018  -12.8021  -14.9220 C   0  0  0  0  0  0  0  0  0  0  0  0
   15.7359  -12.2000  -15.8095 C   0  0  2  0  0  0  0  0  0  0  0  0
   15.1667  -13.2912  -16.6775 C   0  0  0  0  0  0  0  0  0  0  0  0
   16.2259  -11.0263  -16.5979 C   0  0  2  0  0  0  0  0  0  0  0  0
   17.1915  -11.4955  -17.5669 N   0  0  0  0  0  0  0  0  0  0  0  0
   16.8142   -9.9562  -15.7931 C   0  0  0  0  0  0  0  0  0  0  0  0
   16.2598   -9.4590  -14.7669 O   0  0  0  0  0  0  0  0  0  0  0  0
   20.6800   -8.9730  -14.5850 O   0  0  0  0  0  0  0  0  0  0  0  0
   20.1195   -8.1258  -15.5157 C   0  0  0  0  0  0  0  0  0  0  0  0
   18.6219   -8.2340  -15.4342 C   0  0  2  0  0  0  0  0  0  0  0  0
   18.0935   -9.3785  -16.1164 N   0  0  0  0  0  0  0  0  0  0  0  0
   18.0035   -6.9618  -15.8659 C   0  0  0  0  0  0  0  0  0  0  0  0
   17.8186   -6.7504  -17.0895 O   0  0  0  0  0  0  0  0  0  0  0  0
   17.6044   -5.9565  -14.9496 N   0  0  0  0  0  0  0  0  0  0  0  0
   17.0993   -4.6666  -15.2961 C   0  0  1  0  0  0  0  0  0  0  0  0
   15.9900   -4.2721  -14.3587 C   0  0  0  0  0  0  0  0  0  0  0  0
   14.7618   -5.0646  -14.5823 C   0  0  0  0  0  0  0  0  0  0  0  0
   14.4095   -5.4179  -15.7356 O   0  0  0  0  0  0  0  0  0  0  0  0
   18.1536   -3.6387  -15.4188 C   0  0  0  0  0  0  0  0  0  0  0  0
   17.9256   -2.5047  -15.8626 O   0  0  0  0  0  0  0  0  0  0  0  0
   14.0002   -5.4118  -13.4740 O   0  0  0  0  0  0  0  0  0  0  0  0
   19.4544   -3.9580  -15.0195 O   0  0  0  0  0  0  0  0  0  0  0  0
  2  1  1  6
  2  3  1  0
  2  4  1  0
  4  6  1  0
  4  5  1  6
  6  7  2  0
  8  9  1  0
 10  9  1  6
 10 12  1  0
 11  6  1  0
 11 10  1  0
 12 13  2  0
 12 14  1  0
 14 15  1  0
 15 16  1  1
 16 17  1  0
 17 21  1  0
 18 17  2  0
 19 15  1  0
 19 22  1  0
 20 19  2  0
M  END
$$$$
