VSD.pdb
     RDKit          3D

 22 21  0  0  1  0  0  0  0  0999 V2000
   26.5150  -34.2552   -8.2576 C   0  0  0  0  0  0  0  0  0  0  0  0
   25.1255  -33.9482   -8.7691 C   0  0  2  0  0  0  0  0  0  0  0  0
   25.2222  -33.6017  -10.2315 C   0  0  0  0  0  0  0  0  0  0  0  0
   24.4267  -32.8957   -7.9674 C   0  0  2  0  0  0  0  0  0  0  0  0
   25.0826  -31.6284   -8.2031 N   0  0  0  0  0  0  0  0  0  0  0  0
   24.3709  -33.1628   -6.5306 C   0  0  0  0  0  0  0  0  0  0  0  0
   25.3215  -32.9140   -5.7293 O   0  0  0  0  0  0  0  0  0  0  0  0
   21.0544  -33.1289   -3.9948 O   0  0  0  0  0  0  0  0  0  0  0  0
   21.7526  -34.3163   -4.0153 C   0  0  0  0  0  0  0  0  0  0  0  0
   23.1472  -34.0536   -4.5127 C   0  0  2  0  0  0  0  0  0  0  0  0
   23.2061  -33.7400   -5.9102 N   0  0  0  0  0  0  0  0  0  0  0  0
   24.0351  -35.1724   -4.1290 C   0  0  0  0  0  0  0  0  0  0  0  0
   24.2660  -36.0877   -4.9566 O   0  0  0  0  0  0  0  0  0  0  0  0
   24.6457  -35.2603   -2.8528 N   0  0  0  0  0  0  0  0  0  0  0  0
   25.5363  -36.2911   -2.4246 C   0  0  1  0  0  0  0  0  0  0  0  0
   26.9649  -35.8576   -2.6141 C   0  0  0  0  0  0  0  0  0  0  0  0
   27.3675  -34.8204   -1.6401 C   0  0  0  0  0  0  0  0  0  0  0  0
   26.5467  -33.9738   -1.2058 O   0  0  0  0  0  0  0  0  0  0  0  0
   25.2509  -36.7820   -1.0605 C   0  0  0  0  0  0  0  0  0  0  0  0
   24.4933  -36.1823   -0.2850 O   0  0  0  0  0  0  0  0  0  0  0  0
   28.6891  -34.8058   -1.2134 O   0  0  0  0  0  0  0  0  0  0  0  0
   25.8578  -37.9653   -0.6305 O   0  0  0  0  0  0  0  0  0  0  0  0
  2  1  1  1
  2  3  1  0
  2  4  1  0
  4  6  1  0
  4  5  1  1
  6  7  2  0
  8  9  1  0
 10  9  1  6
 10 12  1  0
 11  6  1  0
 11 10  1  0
 12 13  2  0
 12 14  1  0
 14 15  1  0
 15 16  1  1
 16 17  1  0
 17 21  1  0
 18 17  2  0
 19 15  1  0
 19 22  1  0
 20 19  2  0
M  END
$$$$
