PGE.pdb
     RDKit          3D

 21 21  0  0  1  0  0  0  0  0999 V2000
   21.1987  -12.5296  -18.9221 N   0  0  0  0  0  0  0  0  0  0  0  0
   20.7683  -13.8729  -19.3781 C   0  0  0  0  0  0  0  0  0  0  0  0
   19.8676  -14.2074  -18.1792 C   0  0  0  0  0  0  0  0  0  0  0  0
   18.9895  -12.9764  -18.1601 C   0  0  0  0  0  0  0  0  0  0  0  0
   20.0009  -11.8786  -18.5049 C   0  0  1  0  0  0  0  0  0  0  0  0
   20.0970  -10.9872  -17.3586 C   0  0  0  0  0  0  0  0  0  0  0  0
   19.0446  -10.3244  -17.0644 O   0  0  0  0  0  0  0  0  0  0  0  0
   21.2435  -10.7888  -16.5451 N   0  0  0  0  0  0  0  0  0  0  0  0
   21.1490   -9.9580  -15.3965 C   0  0  0  0  0  0  0  0  0  0  0  0
   21.6938   -8.5913  -15.5603 C   0  0  0  0  0  0  0  0  0  0  0  0
   22.6999   -8.4064  -16.3382 O   0  0  0  0  0  0  0  0  0  0  0  0
   21.1966   -7.4324  -14.9217 N   0  0  0  0  0  0  0  0  0  0  0  0
   21.6407   -6.0900  -15.3465 C   0  0  1  0  0  0  0  0  0  0  0  0
   20.5017   -5.3515  -15.9564 C   0  0  0  0  0  0  0  0  0  0  0  0
   19.3275   -5.2453  -15.0404 C   0  0  0  0  0  0  0  0  0  0  0  0
   18.2075   -4.4620  -15.5968 C   0  0  0  0  0  0  0  0  0  0  0  0
   17.0170   -4.7333  -15.4360 O   0  0  0  0  0  0  0  0  0  0  0  0
   22.1602   -5.4153  -14.1363 C   0  0  0  0  0  0  0  0  0  0  0  0
   22.0117   -5.9006  -13.0017 O   0  0  0  0  0  0  0  0  0  0  0  0
   18.5410   -3.3406  -16.3541 O   0  0  0  0  0  0  0  0  0  0  0  0
   22.8373   -4.2002  -14.2587 O   0  0  0  0  0  0  0  0  0  0  0  0
  2  1  1  0
  3  4  1  0
  3  2  1  0
  4  5  1  0
  5  1  1  0
  6  8  1  0
  5  6  1  1
  7  6  2  0
  9 10  1  0
  9  8  1  0
 10 11  2  0
 12 13  1  0
 12 10  1  0
 13 14  1  1
 14 15  1  0
 16 15  1  0
 16 20  1  0
 17 16  2  0
 18 21  1  0
 18 13  1  0
 19 18  2  0
M  END
$$$$
