PGE.pdb
     RDKit          3D

 21 21  0  0  1  0  0  0  0  0999 V2000
   17.1826  -10.9321  -16.3185 N   0  0  0  0  0  0  0  0  0  0  0  0
   18.4728  -11.6218  -16.5578 C   0  0  0  0  0  0  0  0  0  0  0  0
   19.3867  -10.5406  -15.9610 C   0  0  0  0  0  0  0  0  0  0  0  0
   18.7357  -10.3659  -14.6073 C   0  0  0  0  0  0  0  0  0  0  0  0
   17.2512  -10.4756  -14.9696 C   0  0  1  0  0  0  0  0  0  0  0  0
   16.6253   -9.1962  -14.6714 C   0  0  0  0  0  0  0  0  0  0  0  0
   16.6740   -8.8098  -13.4541 O   0  0  0  0  0  0  0  0  0  0  0  0
   15.9712   -8.3461  -15.6016 N   0  0  0  0  0  0  0  0  0  0  0  0
   15.4690   -7.0905  -15.1662 C   0  0  0  0  0  0  0  0  0  0  0  0
   16.4730   -6.0060  -15.0782 C   0  0  0  0  0  0  0  0  0  0  0  0
   16.0800   -4.8052  -14.8437 O   0  0  0  0  0  0  0  0  0  0  0  0
   17.8683   -6.1709  -15.2327 N   0  0  0  0  0  0  0  0  0  0  0  0
   18.7866   -5.0311  -15.0403 C   0  0  1  0  0  0  0  0  0  0  0  0
   20.0322   -5.4944  -14.3705 C   0  0  0  0  0  0  0  0  0  0  0  0
   21.0424   -4.4058  -14.2163 C   0  0  0  0  0  0  0  0  0  0  0  0
   22.2831   -4.8361  -13.5433 C   0  0  0  0  0  0  0  0  0  0  0  0
   22.3548   -5.1796  -12.3628 O   0  0  0  0  0  0  0  0  0  0  0  0
   19.0502   -4.4705  -16.3843 C   0  0  0  0  0  0  0  0  0  0  0  0
   18.9201   -5.1528  -17.4149 O   0  0  0  0  0  0  0  0  0  0  0  0
   23.4439   -4.8475  -14.3143 O   0  0  0  0  0  0  0  0  0  0  0  0
   19.4567   -3.1408  -16.5115 O   0  0  0  0  0  0  0  0  0  0  0  0
  2  1  1  0
  3  4  1  0
  3  2  1  0
  4  5  1  0
  5  1  1  0
  6  8  1  0
  5  6  1  6
  7  6  2  0
  9 10  1  0
  9  8  1  0
 10 11  2  0
 12 13  1  0
 12 10  1  0
 13 14  1  6
 14 15  1  0
 16 15  1  0
 16 20  1  0
 17 16  2  0
 18 21  1  0
 18 13  1  0
 19 18  2  0
M  END
$$$$
