PGE.pdb
     RDKit          3D

 21 21  0  0  1  0  0  0  0  0999 V2000
   21.9704  -11.6630  -18.5351 N   0  0  0  0  0  0  0  0  0  0  0  0
   21.6957  -12.9995  -19.1145 C   0  0  0  0  0  0  0  0  0  0  0  0
   20.6553  -13.4522  -18.0785 C   0  0  0  0  0  0  0  0  0  0  0  0
   19.7075  -12.2749  -18.1280 C   0  0  0  0  0  0  0  0  0  0  0  0
   20.6863  -11.1046  -18.2666 C   0  0  1  0  0  0  0  0  0  0  0  0
   20.5605  -10.2769  -17.0762 C   0  0  0  0  0  0  0  0  0  0  0  0
   19.4353   -9.6956  -16.9047 O   0  0  0  0  0  0  0  0  0  0  0  0
   21.5654  -10.0584  -16.0974 N   0  0  0  0  0  0  0  0  0  0  0  0
   21.2702   -9.2590  -14.9606 C   0  0  0  0  0  0  0  0  0  0  0  0
   21.5104   -7.8081  -15.1305 C   0  0  0  0  0  0  0  0  0  0  0  0
   22.2322   -7.4029  -16.1136 O   0  0  0  0  0  0  0  0  0  0  0  0
   21.0051   -6.7927  -14.2869 N   0  0  0  0  0  0  0  0  0  0  0  0
   21.1758   -5.3689  -14.6376 C   0  0  1  0  0  0  0  0  0  0  0  0
   19.8628   -4.6716  -14.5692 C   0  0  0  0  0  0  0  0  0  0  0  0
   18.9609   -5.0291  -15.7040 C   0  0  0  0  0  0  0  0  0  0  0  0
   17.6831   -4.2912  -15.7041 C   0  0  0  0  0  0  0  0  0  0  0  0
   17.3960   -3.3907  -14.9145 O   0  0  0  0  0  0  0  0  0  0  0  0
   22.1545   -4.8125  -13.6771 C   0  0  0  0  0  0  0  0  0  0  0  0
   22.4335   -5.3954  -12.6155 O   0  0  0  0  0  0  0  0  0  0  0  0
   16.7491   -4.6534  -16.6729 O   0  0  0  0  0  0  0  0  0  0  0  0
   22.7885   -3.6009  -13.9594 O   0  0  0  0  0  0  0  0  0  0  0  0
  2  1  1  0
  3  4  1  0
  3  2  1  0
  4  5  1  0
  5  1  1  0
  6  8  1  0
  5  6  1  1
  7  6  2  0
  9 10  1  0
  9  8  1  0
 10 11  2  0
 12 13  1  0
 12 10  1  0
 13 14  1  1
 14 15  1  0
 16 15  1  0
 16 20  1  0
 17 16  2  0
 18 21  1  0
 18 13  1  0
 19 18  2  0
M  END
$$$$
