PGE.pdb
     RDKit          3D

 21 21  0  0  1  0  0  0  0  0999 V2000
   27.2063  -21.7320  -15.4441 N   0  0  0  0  0  0  0  0  0  0  0  0
   28.0412  -22.5969  -16.3115 C   0  0  0  0  0  0  0  0  0  0  0  0
   27.7453  -21.8855  -17.6407 C   0  0  0  0  0  0  0  0  0  0  0  0
   28.0812  -20.4621  -17.2559 C   0  0  0  0  0  0  0  0  0  0  0  0
   27.5328  -20.3980  -15.8269 C   0  0  1  0  0  0  0  0  0  0  0  0
   26.4540  -19.4215  -15.8084 C   0  0  0  0  0  0  0  0  0  0  0  0
   26.7366  -18.2543  -16.2458 O   0  0  0  0  0  0  0  0  0  0  0  0
   25.1283  -19.6457  -15.3524 N   0  0  0  0  0  0  0  0  0  0  0  0
   24.1600  -18.6149  -15.4877 C   0  0  0  0  0  0  0  0  0  0  0  0
   22.7759  -18.9991  -15.1294 C   0  0  0  0  0  0  0  0  0  0  0  0
   22.5331  -20.2103  -14.7754 O   0  0  0  0  0  0  0  0  0  0  0  0
   21.6595  -18.1321  -15.1400 N   0  0  0  0  0  0  0  0  0  0  0  0
   20.3296  -18.6127  -14.7157 C   0  0  1  0  0  0  0  0  0  0  0  0
   19.4423  -17.4530  -14.4283 C   0  0  0  0  0  0  0  0  0  0  0  0
   18.0632  -17.8668  -14.0336 C   0  0  0  0  0  0  0  0  0  0  0  0
   17.1502  -16.7345  -13.7852 C   0  0  0  0  0  0  0  0  0  0  0  0
   15.9317  -16.8383  -13.6395 O   0  0  0  0  0  0  0  0  0  0  0  0
   19.8126  -19.4518  -15.8195 C   0  0  0  0  0  0  0  0  0  0  0  0
   20.1305  -19.2447  -17.0031 O   0  0  0  0  0  0  0  0  0  0  0  0
   17.7262  -15.4676  -13.7141 O   0  0  0  0  0  0  0  0  0  0  0  0
   18.9437  -20.5076  -15.5371 O   0  0  0  0  0  0  0  0  0  0  0  0
  2  1  1  0
  3  4  1  0
  3  2  1  0
  4  5  1  0
  5  1  1  0
  6  8  1  0
  5  6  1  6
  7  6  2  0
  9 10  1  0
  9  8  1  0
 10 11  2  0
 12 13  1  0
 12 10  1  0
 13 14  1  6
 14 15  1  0
 16 15  1  0
 16 20  1  0
 17 16  2  0
 18 21  1  0
 18 13  1  0
 19 18  2  0
M  END
$$$$
