PGE.pdb
     RDKit          3D

 21 21  0  0  1  0  0  0  0  0999 V2000
   21.7257  -14.5434  -16.6046 N   0  0  0  0  0  0  0  0  0  0  0  0
   21.3584  -15.8187  -15.9442 C   0  0  0  0  0  0  0  0  0  0  0  0
   19.9794  -15.3813  -15.4268 C   0  0  0  0  0  0  0  0  0  0  0  0
   19.3705  -14.8636  -16.7105 C   0  0  0  0  0  0  0  0  0  0  0  0
   20.5739  -14.1710  -17.3579 C   0  0  1  0  0  0  0  0  0  0  0  0
   20.2733  -12.7501  -17.4481 C   0  0  0  0  0  0  0  0  0  0  0  0
   19.3108  -12.4210  -18.2220 O   0  0  0  0  0  0  0  0  0  0  0  0
   20.9462  -11.7058  -16.7609 N   0  0  0  0  0  0  0  0  0  0  0  0
   20.5215  -10.3625  -16.9445 C   0  0  0  0  0  0  0  0  0  0  0  0
   21.1861   -9.3665  -16.0740 C   0  0  0  0  0  0  0  0  0  0  0  0
   21.9715   -9.7734  -15.1417 O   0  0  0  0  0  0  0  0  0  0  0  0
   21.0342   -7.9647  -16.1737 N   0  0  0  0  0  0  0  0  0  0  0  0
   21.7377   -7.0633  -15.2399 C   0  0  1  0  0  0  0  0  0  0  0  0
   21.6557   -5.6617  -15.7336 C   0  0  0  0  0  0  0  0  0  0  0  0
   22.3908   -4.6995  -14.8603 C   0  0  0  0  0  0  0  0  0  0  0  0
   22.2945   -3.2965  -15.3075 C   0  0  0  0  0  0  0  0  0  0  0  0
   23.2019   -2.6762  -15.8629 O   0  0  0  0  0  0  0  0  0  0  0  0
   21.0865   -7.2303  -13.9216 C   0  0  0  0  0  0  0  0  0  0  0  0
   19.8885   -7.5448  -13.8186 O   0  0  0  0  0  0  0  0  0  0  0  0
   21.0842   -2.6456  -15.0760 O   0  0  0  0  0  0  0  0  0  0  0  0
   21.8269   -7.0320  -12.7544 O   0  0  0  0  0  0  0  0  0  0  0  0
  2  1  1  0
  3  4  1  0
  3  2  1  0
  4  5  1  0
  5  1  1  0
  6  8  1  0
  5  6  1  1
  7  6  2  0
  9 10  1  0
  9  8  1  0
 10 11  2  0
 12 13  1  0
 12 10  1  0
 13 14  1  6
 14 15  1  0
 16 15  1  0
 16 20  1  0
 17 16  2  0
 18 21  1  0
 18 13  1  0
 19 18  2  0
M  END
$$$$
