PGE.pdb
     RDKit          3D

 21 21  0  0  1  0  0  0  0  0999 V2000
   24.3949  -12.3249  -16.6485 N   0  0  0  0  0  0  0  0  0  0  0  0
   24.7634  -13.6048  -15.9977 C   0  0  0  0  0  0  0  0  0  0  0  0
   23.5535  -13.7012  -15.0557 C   0  0  0  0  0  0  0  0  0  0  0  0
   22.4306  -13.5285  -16.0537 C   0  0  0  0  0  0  0  0  0  0  0  0
   23.0171  -12.4648  -16.9873 C   0  0  1  0  0  0  0  0  0  0  0  0
   22.1859  -11.2749  -16.8828 C   0  0  0  0  0  0  0  0  0  0  0  0
   21.0063  -11.3615  -17.3670 O   0  0  0  0  0  0  0  0  0  0  0  0
   22.5632  -10.0377  -16.2975 N   0  0  0  0  0  0  0  0  0  0  0  0
   21.5833   -9.0262  -16.1110 C   0  0  0  0  0  0  0  0  0  0  0  0
   22.0837   -7.7650  -15.5188 C   0  0  0  0  0  0  0  0  0  0  0  0
   23.2887   -7.7155  -15.0751 O   0  0  0  0  0  0  0  0  0  0  0  0
   21.3379   -6.5711  -15.3906 N   0  0  0  0  0  0  0  0  0  0  0  0
   21.9550   -5.3556  -14.8238 C   0  0  1  0  0  0  0  0  0  0  0  0
   21.1553   -4.1596  -15.2042 C   0  0  0  0  0  0  0  0  0  0  0  0
   21.0920   -3.9552  -16.6818 C   0  0  0  0  0  0  0  0  0  0  0  0
   20.2588   -2.8073  -17.0887 C   0  0  0  0  0  0  0  0  0  0  0  0
   19.6488   -2.0751  -16.3087 O   0  0  0  0  0  0  0  0  0  0  0  0
   22.0037   -5.5520  -13.3578 C   0  0  0  0  0  0  0  0  0  0  0  0
   21.3605   -6.4554  -12.7968 O   0  0  0  0  0  0  0  0  0  0  0  0
   20.1685   -2.5504  -18.4554 O   0  0  0  0  0  0  0  0  0  0  0  0
   22.7897   -4.7063  -12.5725 O   0  0  0  0  0  0  0  0  0  0  0  0
  2  1  1  0
  3  4  1  0
  3  2  1  0
  4  5  1  0
  5  1  1  0
  6  8  1  0
  5  6  1  1
  7  6  2  0
  9 10  1  0
  9  8  1  0
 10 11  2  0
 12 13  1  0
 12 10  1  0
 13 14  1  1
 14 15  1  0
 16 15  1  0
 16 20  1  0
 17 16  2  0
 18 21  1  0
 18 13  1  0
 19 18  2  0
M  END
$$$$
