PGE.pdb
     RDKit          3D

 21 21  0  0  1  0  0  0  0  0999 V2000
   26.7103  -19.8913  -11.3650 N   0  0  0  0  0  0  0  0  0  0  0  0
   25.9645  -21.0705  -10.8639 C   0  0  0  0  0  0  0  0  0  0  0  0
   25.0790  -21.2826  -12.1014 C   0  0  0  0  0  0  0  0  0  0  0  0
   26.1397  -21.3219  -13.1785 C   0  0  0  0  0  0  0  0  0  0  0  0
   27.1072  -20.2394  -12.6894 C   0  0  1  0  0  0  0  0  0  0  0  0
   27.1172  -19.1725  -13.6790 C   0  0  0  0  0  0  0  0  0  0  0  0
   27.5987  -19.4660  -14.8260 O   0  0  0  0  0  0  0  0  0  0  0  0
   26.6454  -17.8473  -13.4875 N   0  0  0  0  0  0  0  0  0  0  0  0
   26.7111  -16.9209  -14.5627 C   0  0  0  0  0  0  0  0  0  0  0  0
   25.8005  -17.2036  -15.6952 C   0  0  0  0  0  0  0  0  0  0  0  0
   26.2601  -17.8036  -16.7345 O   0  0  0  0  0  0  0  0  0  0  0  0
   24.4289  -16.8654  -15.7438 N   0  0  0  0  0  0  0  0  0  0  0  0
   23.5537  -17.4212  -16.7948 C   0  0  1  0  0  0  0  0  0  0  0  0
   23.0997  -18.7838  -16.4048 C   0  0  0  0  0  0  0  0  0  0  0  0
   22.2007  -18.7722  -15.2129 C   0  0  0  0  0  0  0  0  0  0  0  0
   21.6784  -20.1033  -14.8484 C   0  0  0  0  0  0  0  0  0  0  0  0
   20.7192  -20.6509  -15.3931 O   0  0  0  0  0  0  0  0  0  0  0  0
   22.4238  -16.4775  -16.9451 C   0  0  0  0  0  0  0  0  0  0  0  0
   22.2633  -15.5200  -16.1691 O   0  0  0  0  0  0  0  0  0  0  0  0
   22.3296  -20.7711  -13.8129 O   0  0  0  0  0  0  0  0  0  0  0  0
   21.5063  -16.6566  -17.9823 O   0  0  0  0  0  0  0  0  0  0  0  0
  2  1  1  0
  3  4  1  0
  3  2  1  0
  4  5  1  0
  5  1  1  0
  6  8  1  0
  5  6  1  6
  7  6  2  0
  9 10  1  0
  9  8  1  0
 10 11  2  0
 12 13  1  0
 12 10  1  0
 13 14  1  1
 14 15  1  0
 16 15  1  0
 16 20  1  0
 17 16  2  0
 18 21  1  0
 18 13  1  0
 19 18  2  0
M  END
$$$$
