EYG.pdb
     RDKit          3D

 26 26  0  0  1  0  0  0  0  0999 V2000
    8.2367  -18.0690   20.0293 N   0  0  0  0  0  0  0  0  0  0  0  0
    9.4689  -17.3595   20.1455 C   0  0  1  0  0  0  0  0  0  0  0  0
    9.7243  -16.6194   18.8389 C   0  0  0  0  0  0  0  0  0  0  0  0
    9.5886  -17.5786   17.6829 C   0  0  0  0  0  0  0  0  0  0  0  0
    9.8287  -16.7987   16.4301 C   0  0  0  0  0  0  0  0  0  0  0  0
   10.9887  -16.7921   15.9613 O   0  0  0  0  0  0  0  0  0  0  0  0
    9.4875  -16.3743   21.2588 C   0  0  0  0  0  0  0  0  0  0  0  0
   10.4731  -15.6066   21.4258 O   0  0  0  0  0  0  0  0  0  0  0  0
    8.8366  -16.1023   15.7887 O   0  0  0  0  0  0  0  0  0  0  0  0
    6.2994  -11.4012   27.8799 O   0  0  0  0  0  0  0  0  0  0  0  0
    6.5539  -12.1508   26.7397 C   0  0  0  0  0  0  0  0  0  0  0  0
    5.8609  -13.3092   26.5088 C   0  0  0  0  0  0  0  0  0  0  0  0
    6.1135  -14.0616   25.3684 C   0  0  0  0  0  0  0  0  0  0  0  0
    7.0553  -13.6820   24.4366 C   0  0  0  0  0  0  0  0  0  0  0  0
    7.2800  -14.5172   23.2511 C   0  0  0  0  0  0  0  0  0  0  0  0
    8.4450  -15.4495   23.3525 C   0  0  2  0  0  0  0  0  0  0  0  0
    8.4069  -16.2853   22.1389 N   0  0  0  0  0  0  0  0  0  0  0  0
    8.3923  -16.3631   24.5095 C   0  0  0  0  0  0  0  0  0  0  0  0
    7.3809  -17.0876   24.6742 O   0  0  0  0  0  0  0  0  0  0  0  0
    7.7414  -12.5136   24.6874 C   0  0  0  0  0  0  0  0  0  0  0  0
    7.4993  -11.7515   25.8233 C   0  0  0  0  0  0  0  0  0  0  0  0
    9.4451  -16.4425   25.4317 N   0  0  0  0  0  0  0  0  0  0  0  0
    9.4869  -17.3411   26.5520 C   0  0  0  0  0  0  0  0  0  0  0  0
   10.7247  -17.2538   27.3273 C   0  0  0  0  0  0  0  0  0  0  0  0
   10.9102  -18.0059   28.4692 O   0  0  0  0  0  0  0  0  0  0  0  0
   11.6388  -16.4853   26.9561 O   0  0  0  0  0  0  0  0  0  0  0  0
  2  1  1  6
  2  7  1  0
  3  4  1  0
  3  2  1  0
  4  5  1  0
  5  6  2  0
  7  8  2  0
  9  5  1  0
 10 11  1  0
 11 21  2  0
 12 11  1  0
 12 13  2  0
 13 14  1  0
 14 20  2  0
 14 15  1  0
 16 15  1  6
 16 18  1  0
 17 16  1  0
 17  7  1  0
 18 19  2  0
 18 22  1  0
 21 20  1  0
 22 23  1  0
 24 25  1  0
 24 23  1  0
 26 24  2  0
M  END
$$$$
