EYG.pdb
     RDKit          3D

 26 26  0  0  1  0  0  0  0  0999 V2000
   10.5676  -17.7574   20.0325 N   0  0  0  0  0  0  0  0  0  0  0  0
    9.8141  -17.9371   21.2306 C   0  0  1  0  0  0  0  0  0  0  0  0
   10.3354  -19.1762   21.9469 C   0  0  0  0  0  0  0  0  0  0  0  0
   11.8432  -19.1824   21.9082 C   0  0  0  0  0  0  0  0  0  0  0  0
   12.2979  -20.4404   22.5761 C   0  0  0  0  0  0  0  0  0  0  0  0
   11.9749  -21.5287   22.0501 O   0  0  0  0  0  0  0  0  0  0  0  0
    9.8932  -16.7825   22.1639 C   0  0  0  0  0  0  0  0  0  0  0  0
   10.8735  -15.9909   22.1308 O   0  0  0  0  0  0  0  0  0  0  0  0
   13.0444  -20.4410   23.7264 O   0  0  0  0  0  0  0  0  0  0  0  0
    6.1033  -10.6266   27.3906 O   0  0  0  0  0  0  0  0  0  0  0  0
    6.4091  -11.6867   26.5484 C   0  0  0  0  0  0  0  0  0  0  0  0
    6.2994  -12.9760   26.9971 C   0  0  0  0  0  0  0  0  0  0  0  0
    6.6048  -14.0391   26.1562 C   0  0  0  0  0  0  0  0  0  0  0  0
    7.0238  -13.8462   24.8576 C   0  0  0  0  0  0  0  0  0  0  0  0
    7.3335  -15.0076   24.0156 C   0  0  0  0  0  0  0  0  0  0  0  0
    8.7909  -15.3166   23.8848 C   0  0  2  0  0  0  0  0  0  0  0  0
    8.8765  -16.5579   23.0944 N   0  0  0  0  0  0  0  0  0  0  0  0
    9.4747  -15.5712   25.1668 C   0  0  0  0  0  0  0  0  0  0  0  0
    9.7527  -14.6044   25.9171 O   0  0  0  0  0  0  0  0  0  0  0  0
    7.1276  -12.5418   24.4255 C   0  0  0  0  0  0  0  0  0  0  0  0
    6.8256  -11.4693   25.2551 C   0  0  0  0  0  0  0  0  0  0  0  0
    9.8227  -16.8683   25.5691 N   0  0  0  0  0  0  0  0  0  0  0  0
   10.4446  -17.1985   26.8215 C   0  0  0  0  0  0  0  0  0  0  0  0
   10.6997  -18.6293   26.9898 C   0  0  0  0  0  0  0  0  0  0  0  0
   11.2004  -19.1343   28.1723 O   0  0  0  0  0  0  0  0  0  0  0  0
   10.4627  -19.4187   26.0493 O   0  0  0  0  0  0  0  0  0  0  0  0
  2  1  1  6
  2  7  1  0
  3  4  1  0
  3  2  1  0
  4  5  1  0
  5  6  2  0
  7  8  2  0
  9  5  1  0
 10 11  1  0
 11 21  2  0
 12 11  1  0
 12 13  2  0
 13 14  1  0
 14 20  2  0
 14 15  1  0
 16 15  1  1
 16 18  1  0
 17 16  1  0
 17  7  1  0
 18 19  2  0
 18 22  1  0
 21 20  1  0
 22 23  1  0
 24 25  1  0
 24 23  1  0
 26 24  2  0
M  END
$$$$
