EYG.pdb
     RDKit          3D

 26 26  0  0  1  0  0  0  0  0999 V2000
    7.6249  -17.6389   19.3312 N   0  0  0  0  0  0  0  0  0  0  0  0
    8.7880  -16.8181   19.2374 C   0  0  1  0  0  0  0  0  0  0  0  0
    8.6436  -15.9145   18.0197 C   0  0  0  0  0  0  0  0  0  0  0  0
    9.4351  -16.4882   16.8711 C   0  0  0  0  0  0  0  0  0  0  0  0
    8.6058  -16.3266   15.6376 C   0  0  0  0  0  0  0  0  0  0  0  0
    7.6322  -17.0975   15.4850 O   0  0  0  0  0  0  0  0  0  0  0  0
    9.0152  -15.9662   20.4345 C   0  0  0  0  0  0  0  0  0  0  0  0
   10.0603  -15.2699   20.5430 O   0  0  0  0  0  0  0  0  0  0  0  0
    8.8722  -15.3776   14.6842 O   0  0  0  0  0  0  0  0  0  0  0  0
    7.0376  -11.6564   27.9183 O   0  0  0  0  0  0  0  0  0  0  0  0
    7.0460  -12.3039   26.6905 C   0  0  0  0  0  0  0  0  0  0  0  0
    8.1591  -12.2553   25.8943 C   0  0  0  0  0  0  0  0  0  0  0  0
    8.1703  -12.9025   24.6649 C   0  0  0  0  0  0  0  0  0  0  0  0
    7.0815  -13.6087   24.2013 C   0  0  0  0  0  0  0  0  0  0  0  0
    7.1504  -14.2716   22.8938 C   0  0  0  0  0  0  0  0  0  0  0  0
    8.3059  -15.2059   22.7245 C   0  0  2  0  0  0  0  0  0  0  0  0
    8.0683  -15.9253   21.4600 N   0  0  0  0  0  0  0  0  0  0  0  0
    8.4244  -16.2232   23.7861 C   0  0  0  0  0  0  0  0  0  0  0  0
    7.4347  -16.9456   24.0575 O   0  0  0  0  0  0  0  0  0  0  0  0
    5.9716  -13.6455   25.0172 C   0  0  0  0  0  0  0  0  0  0  0  0
    5.9464  -13.0032   26.2487 C   0  0  0  0  0  0  0  0  0  0  0  0
    9.6167  -16.4037   24.5011 N   0  0  0  0  0  0  0  0  0  0  0  0
    9.8115  -17.3815   25.5356 C   0  0  0  0  0  0  0  0  0  0  0  0
   11.1659  -17.3870   26.0892 C   0  0  0  0  0  0  0  0  0  0  0  0
   12.1394  -16.5339   25.6114 O   0  0  0  0  0  0  0  0  0  0  0  0
   11.4571  -18.1768   27.0140 O   0  0  0  0  0  0  0  0  0  0  0  0
  2  1  1  1
  2  7  1  0
  3  4  1  0
  3  2  1  0
  4  5  1  0
  5  6  2  0
  7  8  2  0
  9  5  1  0
 10 11  1  0
 11 21  2  0
 12 11  1  0
 12 13  2  0
 13 14  1  0
 14 20  2  0
 14 15  1  0
 16 15  1  1
 16 18  1  0
 17 16  1  0
 17  7  1  0
 18 19  2  0
 18 22  1  0
 21 20  1  0
 22 23  1  0
 24 25  1  0
 24 23  1  0
 26 24  2  0
M  END
$$$$
