EYG.pdb
     RDKit          3D

 26 26  0  0  1  0  0  0  0  0999 V2000
    9.8294  -18.6342   21.4557 N   0  0  0  0  0  0  0  0  0  0  0  0
   11.0024  -17.8489   21.6621 C   0  0  1  0  0  0  0  0  0  0  0  0
   11.5274  -17.4001   20.3045 C   0  0  0  0  0  0  0  0  0  0  0  0
   10.9511  -18.2827   19.2257 C   0  0  0  0  0  0  0  0  0  0  0  0
   11.4644  -17.7743   17.9167 C   0  0  0  0  0  0  0  0  0  0  0  0
   10.7061  -17.8504   16.9245 O   0  0  0  0  0  0  0  0  0  0  0  0
   10.7736  -16.6442   22.5028 C   0  0  0  0  0  0  0  0  0  0  0  0
   11.6863  -15.7914   22.6717 O   0  0  0  0  0  0  0  0  0  0  0  0
   12.7173  -17.2366   17.7701 O   0  0  0  0  0  0  0  0  0  0  0  0
    5.7455  -10.9257   27.1923 O   0  0  0  0  0  0  0  0  0  0  0  0
    6.2643  -11.8964   26.3466 C   0  0  0  0  0  0  0  0  0  0  0  0
    5.8394  -13.1944   26.4462 C   0  0  0  0  0  0  0  0  0  0  0  0
    6.3570  -14.1682   25.6010 C   0  0  0  0  0  0  0  0  0  0  0  0
    7.3036  -13.8758   24.6430 C   0  0  0  0  0  0  0  0  0  0  0  0
    7.8152  -14.9458   23.7789 C   0  0  0  0  0  0  0  0  0  0  0  0
    9.2639  -15.2658   23.9678 C   0  0  2  0  0  0  0  0  0  0  0  0
    9.5374  -16.4398   23.1194 N   0  0  0  0  0  0  0  0  0  0  0  0
    9.6288  -15.6347   25.3486 C   0  0  0  0  0  0  0  0  0  0  0  0
    9.6355  -14.7503   26.2391 O   0  0  0  0  0  0  0  0  0  0  0  0
    7.7178  -12.5642   24.5591 C   0  0  0  0  0  0  0  0  0  0  0  0
    7.2090  -11.5803   25.3974 C   0  0  0  0  0  0  0  0  0  0  0  0
    9.9692  -16.9505   25.6921 N   0  0  0  0  0  0  0  0  0  0  0  0
   10.2875  -17.3941   27.0212 C   0  0  0  0  0  0  0  0  0  0  0  0
   10.6152  -18.8178   27.1010 C   0  0  0  0  0  0  0  0  0  0  0  0
   11.3681  -19.4363   26.1241 O   0  0  0  0  0  0  0  0  0  0  0  0
   10.2095  -19.4965   28.0699 O   0  0  0  0  0  0  0  0  0  0  0  0
  2  1  1  6
  2  7  1  0
  3  4  1  0
  3  2  1  0
  4  5  1  0
  5  6  2  0
  7  8  2  0
  9  5  1  0
 10 11  1  0
 11 21  2  0
 12 11  1  0
 12 13  2  0
 13 14  1  0
 14 20  2  0
 14 15  1  0
 16 15  1  1
 16 18  1  0
 17 16  1  0
 17  7  1  0
 18 19  2  0
 18 22  1  0
 21 20  1  0
 22 23  1  0
 24 25  1  0
 24 23  1  0
 26 24  2  0
M  END
$$$$
