EYG.pdb
     RDKit          3D

 26 26  0  0  1  0  0  0  0  0999 V2000
    9.2488  -18.4740   21.1555 N   0  0  0  0  0  0  0  0  0  0  0  0
   10.3066  -17.5267   21.0172 C   0  0  1  0  0  0  0  0  0  0  0  0
   10.3298  -17.0368   19.5751 C   0  0  0  0  0  0  0  0  0  0  0  0
    9.7228  -18.0862   18.6778 C   0  0  0  0  0  0  0  0  0  0  0  0
    9.6963  -17.5228   17.2931 C   0  0  0  0  0  0  0  0  0  0  0  0
    8.5843  -17.2090   16.8130 O   0  0  0  0  0  0  0  0  0  0  0  0
   10.1740  -16.3491   21.9150 C   0  0  0  0  0  0  0  0  0  0  0  0
   11.0047  -15.4024   21.8657 O   0  0  0  0  0  0  0  0  0  0  0  0
   10.8309  -17.3417   16.5444 O   0  0  0  0  0  0  0  0  0  0  0  0
    5.8398  -10.7442   27.3073 O   0  0  0  0  0  0  0  0  0  0  0  0
    6.2549  -11.7192   26.4108 C   0  0  0  0  0  0  0  0  0  0  0  0
    5.8483  -13.0173   26.5688 C   0  0  0  0  0  0  0  0  0  0  0  0
    6.2622  -13.9954   25.6729 C   0  0  0  0  0  0  0  0  0  0  0  0
    7.0850  -13.7072   24.6056 C   0  0  0  0  0  0  0  0  0  0  0  0
    7.4908  -14.7817   23.6922 C   0  0  0  0  0  0  0  0  0  0  0  0
    8.9450  -15.1282   23.7383 C   0  0  2  0  0  0  0  0  0  0  0  0
    9.1211  -16.2752   22.8294 N   0  0  0  0  0  0  0  0  0  0  0  0
    9.4263  -15.5505   25.0672 C   0  0  0  0  0  0  0  0  0  0  0  0
    9.3360  -14.7556   26.0341 O   0  0  0  0  0  0  0  0  0  0  0  0
    7.4828  -12.3955   24.4643 C   0  0  0  0  0  0  0  0  0  0  0  0
    7.0768  -11.4074   25.3523 C   0  0  0  0  0  0  0  0  0  0  0  0
    9.9834  -16.8196   25.2778 N   0  0  0  0  0  0  0  0  0  0  0  0
   10.4359  -17.3151   26.5482 C   0  0  0  0  0  0  0  0  0  0  0  0
   11.0491  -18.6416   26.4751 C   0  0  0  0  0  0  0  0  0  0  0  0
   11.1977  -19.2975   25.2703 O   0  0  0  0  0  0  0  0  0  0  0  0
   11.4498  -19.2005   27.5196 O   0  0  0  0  0  0  0  0  0  0  0  0
  2  1  1  6
  2  7  1  0
  3  4  1  0
  3  2  1  0
  4  5  1  0
  5  6  2  0
  7  8  2  0
  9  5  1  0
 10 11  1  0
 11 21  2  0
 12 11  1  0
 12 13  2  0
 13 14  1  0
 14 20  2  0
 14 15  1  0
 16 15  1  1
 16 18  1  0
 17 16  1  0
 17  7  1  0
 18 19  2  0
 18 22  1  0
 21 20  1  0
 22 23  1  0
 24 25  1  0
 24 23  1  0
 26 24  2  0
M  END
$$$$
