EYG.pdb
     RDKit          3D

 26 26  0  0  1  0  0  0  0  0999 V2000
    7.1170  -17.9344   19.0639 N   0  0  0  0  0  0  0  0  0  0  0  0
    8.3498  -17.2421   18.8735 C   0  0  1  0  0  0  0  0  0  0  0  0
    8.2726  -16.4717   17.5617 C   0  0  0  0  0  0  0  0  0  0  0  0
    7.5568  -17.3067   16.5295 C   0  0  0  0  0  0  0  0  0  0  0  0
    8.0199  -16.8422   15.1859 C   0  0  0  0  0  0  0  0  0  0  0  0
    9.0000  -17.4270   14.6733 O   0  0  0  0  0  0  0  0  0  0  0  0
    8.6721  -16.2861   19.9655 C   0  0  0  0  0  0  0  0  0  0  0  0
    9.7230  -15.5911   19.9265 O   0  0  0  0  0  0  0  0  0  0  0  0
    7.4163  -15.8141   14.5083 O   0  0  0  0  0  0  0  0  0  0  0  0
    7.2817  -11.8635   27.5900 O   0  0  0  0  0  0  0  0  0  0  0  0
    7.1744  -12.6071   26.4228 C   0  0  0  0  0  0  0  0  0  0  0  0
    7.2376  -11.9870   25.2035 C   0  0  0  0  0  0  0  0  0  0  0  0
    7.1305  -12.7287   24.0335 C   0  0  0  0  0  0  0  0  0  0  0  0
    6.9590  -14.0961   24.0486 C   0  0  0  0  0  0  0  0  0  0  0  0
    6.8510  -14.8274   22.7809 C   0  0  0  0  0  0  0  0  0  0  0  0
    8.1506  -15.3190   22.2278 C   0  0  2  0  0  0  0  0  0  0  0  0
    7.8099  -16.1440   21.0547 N   0  0  0  0  0  0  0  0  0  0  0  0
    8.9182  -16.1754   23.1516 C   0  0  0  0  0  0  0  0  0  0  0  0
    8.3488  -17.1483   23.7032 O   0  0  0  0  0  0  0  0  0  0  0  0
    6.8979  -14.7008   25.2854 C   0  0  0  0  0  0  0  0  0  0  0  0
    7.0036  -13.9718   26.4631 C   0  0  0  0  0  0  0  0  0  0  0  0
   10.2700  -15.9295   23.4297 N   0  0  0  0  0  0  0  0  0  0  0  0
   11.0628  -16.6768   24.3664 C   0  0  0  0  0  0  0  0  0  0  0  0
   12.4475  -16.2141   24.4623 C   0  0  0  0  0  0  0  0  0  0  0  0
   12.9246  -15.2058   23.6502 O   0  0  0  0  0  0  0  0  0  0  0  0
   13.2222  -16.7364   25.2936 O   0  0  0  0  0  0  0  0  0  0  0  0
  2  1  1  1
  2  7  1  0
  3  4  1  0
  3  2  1  0
  4  5  1  0
  5  6  2  0
  7  8  2  0
  9  5  1  0
 10 11  1  0
 11 21  2  0
 12 11  1  0
 12 13  2  0
 13 14  1  0
 14 20  2  0
 14 15  1  0
 16 15  1  1
 16 18  1  0
 17 16  1  0
 17  7  1  0
 18 19  2  0
 18 22  1  0
 21 20  1  0
 22 23  1  0
 24 25  1  0
 24 23  1  0
 26 24  2  0
M  END
$$$$
