EYG.pdb
     RDKit          3D

 26 26  0  0  1  0  0  0  0  0999 V2000
   10.2070  -16.8044   19.0067 N   0  0  0  0  0  0  0  0  0  0  0  0
    9.6851  -17.2388   20.2614 C   0  0  1  0  0  0  0  0  0  0  0  0
   10.4455  -18.4857   20.6943 C   0  0  0  0  0  0  0  0  0  0  0  0
   10.5001  -19.4647   19.5483 C   0  0  0  0  0  0  0  0  0  0  0  0
   11.1721  -20.7009   20.0539 C   0  0  0  0  0  0  0  0  0  0  0  0
   10.4734  -21.5300   20.6780 O   0  0  0  0  0  0  0  0  0  0  0  0
    9.7948  -16.2198   21.3383 C   0  0  0  0  0  0  0  0  0  0  0  0
   10.7298  -15.3745   21.3352 O   0  0  0  0  0  0  0  0  0  0  0  0
   12.5063  -20.9518   19.8595 O   0  0  0  0  0  0  0  0  0  0  0  0
    6.2839  -10.8568   27.5110 O   0  0  0  0  0  0  0  0  0  0  0  0
    6.5522  -11.8589   26.5888 C   0  0  0  0  0  0  0  0  0  0  0  0
    6.4184  -11.6142   25.2480 C   0  0  0  0  0  0  0  0  0  0  0  0
    6.6862  -12.6154   24.3226 C   0  0  0  0  0  0  0  0  0  0  0  0
    7.0908  -13.8756   24.7065 C   0  0  0  0  0  0  0  0  0  0  0  0
    7.3586  -14.8939   23.6843 C   0  0  0  0  0  0  0  0  0  0  0  0
    8.8044  -15.0836   23.3517 C   0  0  2  0  0  0  0  0  0  0  0  0
    8.8578  -16.1848   22.3732 N   0  0  0  0  0  0  0  0  0  0  0  0
    9.6436  -15.4813   24.4978 C   0  0  0  0  0  0  0  0  0  0  0  0
    9.8035  -14.6789   25.4494 O   0  0  0  0  0  0  0  0  0  0  0  0
    7.2194  -14.1015   26.0598 C   0  0  0  0  0  0  0  0  0  0  0  0
    6.9550  -13.1099   26.9961 C   0  0  0  0  0  0  0  0  0  0  0  0
   10.2685  -16.7351   24.5510 N   0  0  0  0  0  0  0  0  0  0  0  0
   11.0776  -17.2015   25.6428 C   0  0  0  0  0  0  0  0  0  0  0  0
   11.7022  -18.5014   25.3957 C   0  0  0  0  0  0  0  0  0  0  0  0
   12.4664  -18.7273   24.2693 O   0  0  0  0  0  0  0  0  0  0  0  0
   11.5464  -19.4327   26.2156 O   0  0  0  0  0  0  0  0  0  0  0  0
  2  1  1  6
  2  7  1  0
  3  4  1  0
  3  2  1  0
  4  5  1  0
  5  6  2  0
  7  8  2  0
  9  5  1  0
 10 11  1  0
 11 21  2  0
 12 11  1  0
 12 13  2  0
 13 14  1  0
 14 20  2  0
 14 15  1  0
 16 15  1  1
 16 18  1  0
 17 16  1  0
 17  7  1  0
 18 19  2  0
 18 22  1  0
 21 20  1  0
 22 23  1  0
 24 25  1  0
 24 23  1  0
 26 24  2  0
M  END
$$$$
