EYG.pdb
     RDKit          3D

 26 26  0  0  1  0  0  0  0  0999 V2000
    6.9154  -15.4851   20.9101 N   0  0  0  0  0  0  0  0  0  0  0  0
    8.0998  -14.7441   20.6214 C   0  0  1  0  0  0  0  0  0  0  0  0
    7.6970  -13.4188   19.9877 C   0  0  0  0  0  0  0  0  0  0  0  0
    6.6844  -13.6695   18.8983 C   0  0  0  0  0  0  0  0  0  0  0  0
    7.3946  -14.3754   17.7879 C   0  0  0  0  0  0  0  0  0  0  0  0
    8.0396  -13.6787   16.9732 O   0  0  0  0  0  0  0  0  0  0  0  0
    8.9339  -14.4617   21.8193 C   0  0  0  0  0  0  0  0  0  0  0  0
    9.9211  -13.6812   21.7497 O   0  0  0  0  0  0  0  0  0  0  0  0
    7.3629  -15.7379   17.6355 O   0  0  0  0  0  0  0  0  0  0  0  0
   10.9132  -14.5351   30.5157 O   0  0  0  0  0  0  0  0  0  0  0  0
   10.3258  -14.6804   29.2665 C   0  0  0  0  0  0  0  0  0  0  0  0
    9.8586  -13.5828   28.5938 C   0  0  0  0  0  0  0  0  0  0  0  0
    9.2702  -13.7253   27.3432 C   0  0  0  0  0  0  0  0  0  0  0  0
    9.1334  -14.9549   26.7361 C   0  0  0  0  0  0  0  0  0  0  0  0
    8.5024  -15.0447   25.4142 C   0  0  0  0  0  0  0  0  0  0  0  0
    9.4253  -14.8079   24.2614 C   0  0  2  0  0  0  0  0  0  0  0  0
    8.6326  -15.0601   23.0445 N   0  0  0  0  0  0  0  0  0  0  0  0
   10.5870  -15.7158   24.2177 C   0  0  0  0  0  0  0  0  0  0  0  0
   11.4979  -15.5890   25.0716 O   0  0  0  0  0  0  0  0  0  0  0  0
    9.6097  -16.0464   27.4294 C   0  0  0  0  0  0  0  0  0  0  0  0
   10.2002  -15.9188   28.6803 C   0  0  0  0  0  0  0  0  0  0  0  0
   10.6998  -16.7185   23.2445 N   0  0  0  0  0  0  0  0  0  0  0  0
   11.7075  -17.7426   23.2362 C   0  0  0  0  0  0  0  0  0  0  0  0
   11.5529  -18.7081   22.1478 C   0  0  0  0  0  0  0  0  0  0  0  0
   10.8183  -19.8643   22.3137 O   0  0  0  0  0  0  0  0  0  0  0  0
   12.0933  -18.4904   21.0412 O   0  0  0  0  0  0  0  0  0  0  0  0
  2  1  1  1
  2  7  1  0
  3  4  1  0
  3  2  1  0
  4  5  1  0
  5  6  2  0
  7  8  2  0
  9  5  1  0
 10 11  1  0
 11 21  2  0
 12 11  1  0
 12 13  2  0
 13 14  1  0
 14 20  2  0
 14 15  1  0
 16 15  1  1
 16 18  1  0
 17 16  1  0
 17  7  1  0
 18 19  2  0
 18 22  1  0
 21 20  1  0
 22 23  1  0
 24 25  1  0
 24 23  1  0
 26 24  2  0
M  END
$$$$
