EYG.pdb
     RDKit          3D

 26 26  0  0  1  0  0  0  0  0999 V2000
    8.2239  -13.6121   19.7304 N   0  0  0  0  0  0  0  0  0  0  0  0
    7.8376  -14.7421   20.5109 C   0  0  1  0  0  0  0  0  0  0  0  0
    8.2327  -16.0060   19.7581 C   0  0  0  0  0  0  0  0  0  0  0  0
    7.8834  -15.8520   18.2989 C   0  0  0  0  0  0  0  0  0  0  0  0
    8.0458  -17.1944   17.6609 C   0  0  0  0  0  0  0  0  0  0  0  0
    7.2317  -18.0910   17.9750 O   0  0  0  0  0  0  0  0  0  0  0  0
    8.4642  -14.7787   21.8587 C   0  0  0  0  0  0  0  0  0  0  0  0
    9.5286  -14.1459   22.0937 O   0  0  0  0  0  0  0  0  0  0  0  0
    9.0405  -17.4708   16.7583 O   0  0  0  0  0  0  0  0  0  0  0  0
    6.4097  -10.3101   27.6452 O   0  0  0  0  0  0  0  0  0  0  0  0
    6.6121  -11.5419   27.0382 C   0  0  0  0  0  0  0  0  0  0  0  0
    5.5918  -12.1486   26.3553 C   0  0  0  0  0  0  0  0  0  0  0  0
    5.7915  -13.3816   25.7468 C   0  0  0  0  0  0  0  0  0  0  0  0
    7.0031  -14.0361   25.8026 C   0  0  0  0  0  0  0  0  0  0  0  0
    7.1555  -15.3373   25.1416 C   0  0  0  0  0  0  0  0  0  0  0  0
    8.3692  -15.4632   24.2769 C   0  0  2  0  0  0  0  0  0  0  0  0
    7.8781  -15.5182   22.8882 N   0  0  0  0  0  0  0  0  0  0  0  0
    9.1542  -16.6905   24.5078 C   0  0  0  0  0  0  0  0  0  0  0  0
    8.9431  -17.3689   25.5423 O   0  0  0  0  0  0  0  0  0  0  0  0
    8.0166  -13.4089   26.4943 C   0  0  0  0  0  0  0  0  0  0  0  0
    7.8311  -12.1763   27.1076 C   0  0  0  0  0  0  0  0  0  0  0  0
   10.1322  -17.1191   23.5994 N   0  0  0  0  0  0  0  0  0  0  0  0
   10.9590  -18.2812   23.7735 C   0  0  0  0  0  0  0  0  0  0  0  0
   11.9271  -18.4785   22.6943 C   0  0  0  0  0  0  0  0  0  0  0  0
   12.5546  -19.6930   22.5069 O   0  0  0  0  0  0  0  0  0  0  0  0
   12.1983  -17.5339   21.9209 O   0  0  0  0  0  0  0  0  0  0  0  0
  2  1  1  6
  2  7  1  0
  3  4  1  0
  3  2  1  0
  4  5  1  0
  5  6  2  0
  7  8  2  0
  9  5  1  0
 10 11  1  0
 11 21  2  0
 12 11  1  0
 12 13  2  0
 13 14  1  0
 14 20  2  0
 14 15  1  0
 16 15  1  1
 16 18  1  0
 17 16  1  0
 17  7  1  0
 18 19  2  0
 18 22  1  0
 21 20  1  0
 22 23  1  0
 24 25  1  0
 24 23  1  0
 26 24  2  0
M  END
$$$$
