EYG.pdb
     RDKit          3D

 26 26  0  0  1  0  0  0  0  0999 V2000
    8.7511  -18.2847   20.7131 N   0  0  0  0  0  0  0  0  0  0  0  0
    9.8726  -17.4096   20.6047 C   0  0  1  0  0  0  0  0  0  0  0  0
    9.8977  -16.8301   19.1962 C   0  0  0  0  0  0  0  0  0  0  0  0
    8.6959  -17.3216   18.4287 C   0  0  0  0  0  0  0  0  0  0  0  0
    8.8248  -16.8104   17.0296 C   0  0  0  0  0  0  0  0  0  0  0  0
    7.8592  -16.1755   16.5501 O   0  0  0  0  0  0  0  0  0  0  0  0
    9.8491  -16.2862   21.5782 C   0  0  0  0  0  0  0  0  0  0  0  0
   10.7268  -15.3822   21.5428 O   0  0  0  0  0  0  0  0  0  0  0  0
    9.9471  -17.0108   16.2675 O   0  0  0  0  0  0  0  0  0  0  0  0
    6.1879  -10.7672   27.4905 O   0  0  0  0  0  0  0  0  0  0  0  0
    6.4527  -11.7827   26.5820 C   0  0  0  0  0  0  0  0  0  0  0  0
    7.0921  -11.5026   25.4038 C   0  0  0  0  0  0  0  0  0  0  0  0
    7.3584  -12.5171   24.4925 C   0  0  0  0  0  0  0  0  0  0  0  0
    6.9974  -13.8257   24.7301 C   0  0  0  0  0  0  0  0  0  0  0  0
    7.3039  -14.8553   23.7303 C   0  0  0  0  0  0  0  0  0  0  0  0
    8.7625  -15.1061   23.5152 C   0  0  2  0  0  0  0  0  0  0  0  0
    8.8485  -16.2167   22.5497 N   0  0  0  0  0  0  0  0  0  0  0  0
    9.4908  -15.5278   24.7266 C   0  0  0  0  0  0  0  0  0  0  0  0
    9.5879  -14.7328   25.6928 O   0  0  0  0  0  0  0  0  0  0  0  0
    6.3552  -14.0865   25.9211 C   0  0  0  0  0  0  0  0  0  0  0  0
    6.0825  -13.0822   26.8413 C   0  0  0  0  0  0  0  0  0  0  0  0
   10.0787  -16.7966   24.8262 N   0  0  0  0  0  0  0  0  0  0  0  0
   10.7369  -17.3049   25.9979 C   0  0  0  0  0  0  0  0  0  0  0  0
   11.2307  -18.6737   25.8453 C   0  0  0  0  0  0  0  0  0  0  0  0
   11.1131  -19.3492   24.6479 O   0  0  0  0  0  0  0  0  0  0  0  0
   11.7717  -19.2519   26.8133 O   0  0  0  0  0  0  0  0  0  0  0  0
  2  1  1  6
  2  7  1  0
  3  4  1  0
  3  2  1  0
  4  5  1  0
  5  6  2  0
  7  8  2  0
  9  5  1  0
 10 11  1  0
 11 21  2  0
 12 11  1  0
 12 13  2  0
 13 14  1  0
 14 20  2  0
 14 15  1  0
 16 15  1  1
 16 18  1  0
 17 16  1  0
 17  7  1  0
 18 19  2  0
 18 22  1  0
 21 20  1  0
 22 23  1  0
 24 25  1  0
 24 23  1  0
 26 24  2  0
M  END
$$$$
