EYG.pdb
     RDKit          3D

 26 26  0  0  1  0  0  0  0  0999 V2000
    7.9421  -18.6283   19.7581 N   0  0  0  0  0  0  0  0  0  0  0  0
    8.4616  -17.3905   19.2751 C   0  0  1  0  0  0  0  0  0  0  0  0
    7.5341  -16.8711   18.1841 C   0  0  0  0  0  0  0  0  0  0  0  0
    6.2109  -17.5905   18.2645 C   0  0  0  0  0  0  0  0  0  0  0  0
    6.1952  -18.6116   17.1724 C   0  0  0  0  0  0  0  0  0  0  0  0
    6.4562  -18.2264   16.0110 O   0  0  0  0  0  0  0  0  0  0  0  0
    8.5882  -16.3461   20.3255 C   0  0  0  0  0  0  0  0  0  0  0  0
    9.0683  -15.2125   20.0549 O   0  0  0  0  0  0  0  0  0  0  0  0
    5.9091  -19.9337   17.3977 O   0  0  0  0  0  0  0  0  0  0  0  0
    6.8424  -11.7433   27.6214 O   0  0  0  0  0  0  0  0  0  0  0  0
    6.8761  -12.6436   26.5654 C   0  0  0  0  0  0  0  0  0  0  0  0
    7.2730  -13.9373   26.7764 C   0  0  0  0  0  0  0  0  0  0  0  0
    7.3077  -14.8407   25.7213 C   0  0  0  0  0  0  0  0  0  0  0  0
    6.9509  -14.4810   24.4397 C   0  0  0  0  0  0  0  0  0  0  0  0
    7.0083  -15.4778   23.3643 C   0  0  0  0  0  0  0  0  0  0  0  0
    8.3519  -15.6357   22.7265 C   0  0  2  0  0  0  0  0  0  0  0  0
    8.1739  -16.6081   21.6331 N   0  0  0  0  0  0  0  0  0  0  0  0
    9.3896  -16.1778   23.6238 C   0  0  0  0  0  0  0  0  0  0  0  0
    9.4817  -17.4201   23.7761 O   0  0  0  0  0  0  0  0  0  0  0  0
    6.5547  -13.1750   24.2485 C   0  0  0  0  0  0  0  0  0  0  0  0
    6.5151  -12.2612   25.2940 C   0  0  0  0  0  0  0  0  0  0  0  0
   10.2772  -15.3389   24.3121 N   0  0  0  0  0  0  0  0  0  0  0  0
   11.4877  -15.7752   24.9515 C   0  0  0  0  0  0  0  0  0  0  0  0
   11.2632  -16.4685   26.2202 C   0  0  0  0  0  0  0  0  0  0  0  0
   12.0427  -17.5424   26.5983 O   0  0  0  0  0  0  0  0  0  0  0  0
   10.3491  -16.0881   26.9842 O   0  0  0  0  0  0  0  0  0  0  0  0
  2  1  1  1
  2  7  1  0
  3  4  1  0
  3  2  1  0
  4  5  1  0
  5  6  2  0
  7  8  2  0
  9  5  1  0
 10 11  1  0
 11 21  2  0
 12 11  1  0
 12 13  2  0
 13 14  1  0
 14 20  2  0
 14 15  1  0
 16 15  1  1
 16 18  1  0
 17 16  1  0
 17  7  1  0
 18 19  2  0
 18 22  1  0
 21 20  1  0
 22 23  1  0
 24 25  1  0
 24 23  1  0
 26 24  2  0
M  END
$$$$
