NTM.pdb
     RDKit          3D

 24 23  0  0  1  0  0  0  0  0999 V2000
   15.4084  -15.2711   19.4711 N   0  0  0  0  0  0  0  0  0  0  0  0
   14.5457  -14.2677   18.9849 C   0  0  0  0  0  0  0  0  0  0  0  0
   14.9557  -13.4672   18.1119 O   0  0  0  0  0  0  0  0  0  0  0  0
   13.1686  -14.1396   19.4837 C   0  0  0  0  0  0  0  0  0  0  0  0
   12.3442  -15.3872   19.2904 C   0  0  2  0  0  0  0  0  0  0  0  0
   12.0831  -15.5161   17.8787 N   0  0  0  0  0  0  0  0  0  0  0  0
   11.0919  -15.2865   20.0815 C   0  0  0  0  0  0  0  0  0  0  0  0
   10.1990  -14.4401   19.8403 O   0  0  0  0  0  0  0  0  0  0  0  0
    8.4206  -17.5247   20.1575 C   0  0  0  0  0  0  0  0  0  0  0  0
    8.7707  -17.4216   21.6033 C   0  0  1  0  0  0  0  0  0  0  0  0
    9.3416  -18.5678   22.0881 O   0  0  0  0  0  0  0  0  0  0  0  0
    9.5848  -16.1750   21.8634 C   0  0  2  0  0  0  0  0  0  0  0  0
   10.8479  -16.1794   21.1835 N   0  0  0  0  0  0  0  0  0  0  0  0
    9.7393  -15.9162   23.3304 C   0  0  0  0  0  0  0  0  0  0  0  0
   10.8414  -16.1360   23.9019 O   0  0  0  0  0  0  0  0  0  0  0  0
    6.0919  -10.6476   26.2724 C   0  0  0  0  0  0  0  0  0  0  0  0
    5.9650  -12.4424   26.5326 S   0  0  0  0  0  0  0  0  0  0  0  0
    7.4944  -13.2100   25.8957 C   0  0  0  0  0  0  0  0  0  0  0  0
    7.4840  -14.6921   26.1111 C   0  0  0  0  0  0  0  0  0  0  0  0
    8.7003  -15.3703   25.5840 C   0  0  2  0  0  0  0  0  0  0  0  0
    8.6807  -15.4228   24.1210 N   0  0  0  0  0  0  0  0  0  0  0  0
    9.0129  -16.6579   26.1795 C   0  0  0  0  0  0  0  0  0  0  0  0
    8.6070  -17.7268   25.7037 O   0  0  0  0  0  0  0  0  0  0  0  0
    9.8015  -16.7437   27.3369 O   0  0  0  0  0  0  0  0  0  0  0  0
  2  1  1  0
  2  4  1  0
  3  2  2  0
  4  5  1  0
  5  6  1  6
  5  7  1  0
  7  8  2  0
 10 12  1  0
 10  9  1  6
 10 11  1  0
 12 14  1  0
 13  7  1  0
 12 13  1  1
 14 15  2  0
 14 21  1  0
 16 17  1  0
 18 17  1  0
 19 18  1  0
 20 19  1  1
 20 22  1  0
 21 20  1  0
 22 24  1  0
 23 22  2  0
M  END
$$$$
