NTM.pdb
     RDKit          3D

 24 23  0  0  1  0  0  0  0  0999 V2000
    7.6911  -12.6295   16.9223 N   0  0  0  0  0  0  0  0  0  0  0  0
    8.6282  -13.4321   17.6044 C   0  0  0  0  0  0  0  0  0  0  0  0
    9.7814  -13.5742   17.1342 O   0  0  0  0  0  0  0  0  0  0  0  0
    8.2790  -14.1097   18.8615 C   0  0  0  0  0  0  0  0  0  0  0  0
    8.5168  -15.5981   18.8245 C   0  0  2  0  0  0  0  0  0  0  0  0
    7.6312  -16.1508   17.8305 N   0  0  0  0  0  0  0  0  0  0  0  0
    8.2742  -16.1768   20.1701 C   0  0  0  0  0  0  0  0  0  0  0  0
    7.1906  -16.0405   20.7859 O   0  0  0  0  0  0  0  0  0  0  0  0
    9.6038  -19.2162   23.8063 C   0  0  0  0  0  0  0  0  0  0  0  0
    9.8554  -18.7308   22.4189 C   0  0  1  0  0  0  0  0  0  0  0  0
    9.6578  -19.7056   21.4780 O   0  0  0  0  0  0  0  0  0  0  0  0
    9.0825  -17.4592   22.1545 C   0  0  2  0  0  0  0  0  0  0  0  0
    9.2990  -16.9364   20.8363 N   0  0  0  0  0  0  0  0  0  0  0  0
    9.3377  -16.4313   23.2134 C   0  0  0  0  0  0  0  0  0  0  0  0
   10.4624  -15.8672   23.2938 O   0  0  0  0  0  0  0  0  0  0  0  0
    6.2985  -10.6299   25.6413 C   0  0  0  0  0  0  0  0  0  0  0  0
    5.9985  -12.1487   26.5943 S   0  0  0  0  0  0  0  0  0  0  0  0
    7.4906  -13.1933   26.4675 C   0  0  0  0  0  0  0  0  0  0  0  0
    7.3347  -14.2287   25.3966 C   0  0  0  0  0  0  0  0  0  0  0  0
    8.5526  -15.0640   25.2060 C   0  0  2  0  0  0  0  0  0  0  0  0
    8.3501  -16.0548   24.1473 N   0  0  0  0  0  0  0  0  0  0  0  0
    9.1110  -15.6498   26.4123 C   0  0  0  0  0  0  0  0  0  0  0  0
    9.7294  -14.9813   27.2515 O   0  0  0  0  0  0  0  0  0  0  0  0
    8.9688  -17.0198   26.6800 O   0  0  0  0  0  0  0  0  0  0  0  0
  2  1  1  0
  2  4  1  0
  3  2  2  0
  4  5  1  0
  5  6  1  6
  5  7  1  0
  7  8  2  0
 10 12  1  0
 10  9  1  1
 10 11  1  0
 12 14  1  0
 13  7  1  0
 12 13  1  6
 14 15  2  0
 14 21  1  0
 16 17  1  0
 18 17  1  0
 19 18  1  0
 20 19  1  1
 20 22  1  0
 21 20  1  0
 22 24  1  0
 23 22  2  0
M  END
$$$$
