NTM.pdb
     RDKit          3D

 24 23  0  0  1  0  0  0  0  0999 V2000
   12.2466  -19.0312   16.3855 N   0  0  0  0  0  0  0  0  0  0  0  0
   12.3231  -18.1351   17.4712 C   0  0  0  0  0  0  0  0  0  0  0  0
   13.4399  -17.7018   17.8399 O   0  0  0  0  0  0  0  0  0  0  0  0
   11.1141  -17.6969   18.1839 C   0  0  0  0  0  0  0  0  0  0  0  0
   11.0978  -18.0992   19.6369 C   0  0  2  0  0  0  0  0  0  0  0  0
   10.7615  -19.4998   19.6919 N   0  0  0  0  0  0  0  0  0  0  0  0
   10.1197  -17.2621   20.3765 C   0  0  0  0  0  0  0  0  0  0  0  0
   10.2155  -16.0149   20.4607 O   0  0  0  0  0  0  0  0  0  0  0  0
    6.0825  -17.9370   20.4885 C   0  0  0  0  0  0  0  0  0  0  0  0
    6.6761  -17.7218   21.8394 C   0  0  1  0  0  0  0  0  0  0  0  0
    6.6837  -18.8622   22.5970 O   0  0  0  0  0  0  0  0  0  0  0  0
    8.0274  -17.0547   21.7237 C   0  0  2  0  0  0  0  0  0  0  0  0
    8.9952  -17.8650   21.0421 N   0  0  0  0  0  0  0  0  0  0  0  0
    8.5260  -16.5895   23.0571 C   0  0  0  0  0  0  0  0  0  0  0  0
    9.4909  -17.1784   23.6156 O   0  0  0  0  0  0  0  0  0  0  0  0
    5.3725  -11.9543   27.0613 C   0  0  0  0  0  0  0  0  0  0  0  0
    7.1717  -11.7407   27.2102 S   0  0  0  0  0  0  0  0  0  0  0  0
    7.9583  -13.3481   26.8481 C   0  0  0  0  0  0  0  0  0  0  0  0
    7.6668  -13.7875   25.4462 C   0  0  0  0  0  0  0  0  0  0  0  0
    8.3067  -15.0847   25.0927 C   0  0  2  0  0  0  0  0  0  0  0  0
    7.9513  -15.4927   23.7322 N   0  0  0  0  0  0  0  0  0  0  0  0
    8.1311  -16.1580   26.0556 C   0  0  0  0  0  0  0  0  0  0  0  0
    8.9125  -16.3396   26.9990 O   0  0  0  0  0  0  0  0  0  0  0  0
    7.0500  -17.0468   25.9542 O   0  0  0  0  0  0  0  0  0  0  0  0
  2  1  1  0
  2  4  1  0
  3  2  2  0
  4  5  1  0
  5  6  1  6
  5  7  1  0
  7  8  2  0
 10 12  1  0
 10  9  1  6
 10 11  1  0
 12 14  1  0
 13  7  1  0
 12 13  1  1
 14 15  2  0
 14 21  1  0
 16 17  1  0
 18 17  1  0
 19 18  1  0
 20 19  1  1
 20 22  1  0
 21 20  1  0
 22 24  1  0
 23 22  2  0
M  END
$$$$
