NTM.pdb
     RDKit          3D

 24 23  0  0  1  0  0  0  0  0999 V2000
   13.1811  -15.9529   16.4334 N   0  0  0  0  0  0  0  0  0  0  0  0
   13.0189  -16.3693   17.7705 C   0  0  0  0  0  0  0  0  0  0  0  0
   13.9673  -16.9357   18.3628 O   0  0  0  0  0  0  0  0  0  0  0  0
   11.7540  -16.1527   18.4878 C   0  0  0  0  0  0  0  0  0  0  0  0
   11.3770  -17.2971   19.3942 C   0  0  2  0  0  0  0  0  0  0  0  0
   10.9667  -18.3943   18.5541 N   0  0  0  0  0  0  0  0  0  0  0  0
   10.2966  -16.8685   20.3178 C   0  0  0  0  0  0  0  0  0  0  0  0
    9.5568  -15.8820   20.0910 O   0  0  0  0  0  0  0  0  0  0  0  0
    6.8197  -17.9445   23.4221 C   0  0  0  0  0  0  0  0  0  0  0  0
    7.8993  -18.3279   22.4676 C   0  0  1  0  0  0  0  0  0  0  0  0
    7.4091  -18.7210   21.2512 O   0  0  0  0  0  0  0  0  0  0  0  0
    8.9434  -17.2383   22.3838 C   0  0  2  0  0  0  0  0  0  0  0  0
   10.0499  -17.5871   21.5401 N   0  0  0  0  0  0  0  0  0  0  0  0
    9.3923  -16.8021   23.7443 C   0  0  0  0  0  0  0  0  0  0  0  0
   10.4998  -17.1922   24.2036 O   0  0  0  0  0  0  0  0  0  0  0  0
    6.8970  -10.6637   25.6256 C   0  0  0  0  0  0  0  0  0  0  0  0
    6.8205  -12.1899   26.6104 S   0  0  0  0  0  0  0  0  0  0  0  0
    8.0870  -13.3363   25.9657 C   0  0  0  0  0  0  0  0  0  0  0  0
    7.9045  -14.7127   26.5274 C   0  0  0  0  0  0  0  0  0  0  0  0
    8.8680  -15.7045   25.9751 C   0  0  2  0  0  0  0  0  0  0  0  0
    8.6127  -15.9508   24.5547 N   0  0  0  0  0  0  0  0  0  0  0  0
    9.0104  -16.9356   26.7331 C   0  0  0  0  0  0  0  0  0  0  0  0
    8.2444  -17.8978   26.5887 O   0  0  0  0  0  0  0  0  0  0  0  0
   10.0398  -17.0866   27.6745 O   0  0  0  0  0  0  0  0  0  0  0  0
  2  1  1  0
  2  4  1  0
  3  2  2  0
  4  5  1  0
  5  6  1  6
  5  7  1  0
  7  8  2  0
 10 12  1  0
 10  9  1  1
 10 11  1  0
 12 14  1  0
 13  7  1  0
 12 13  1  6
 14 15  2  0
 14 21  1  0
 16 17  1  0
 18 17  1  0
 19 18  1  0
 20 19  1  1
 20 22  1  0
 21 20  1  0
 22 24  1  0
 23 22  2  0
M  END
$$$$
