NTM.pdb
     RDKit          3D

 24 23  0  0  1  0  0  0  0  0999 V2000
   11.2003  -19.1029   16.5687 N   0  0  0  0  0  0  0  0  0  0  0  0
   11.2474  -17.7877   17.0741 C   0  0  0  0  0  0  0  0  0  0  0  0
   12.1576  -17.0118   16.6993 O   0  0  0  0  0  0  0  0  0  0  0  0
   10.2467  -17.3053   18.0372 C   0  0  0  0  0  0  0  0  0  0  0  0
    9.2659  -18.3682   18.4633 C   0  0  2  0  0  0  0  0  0  0  0  0
    8.4709  -18.7076   17.3097 N   0  0  0  0  0  0  0  0  0  0  0  0
    8.4339  -17.8608   19.5833 C   0  0  0  0  0  0  0  0  0  0  0  0
    7.4255  -17.1363   19.4101 O   0  0  0  0  0  0  0  0  0  0  0  0
    6.6168  -20.0168   21.9431 C   0  0  0  0  0  0  0  0  0  0  0  0
    7.4277  -19.1017   22.7967 C   0  0  1  0  0  0  0  0  0  0  0  0
    8.4621  -19.7456   23.4211 O   0  0  0  0  0  0  0  0  0  0  0  0
    7.8510  -17.8816   22.0115 C   0  0  2  0  0  0  0  0  0  0  0  0
    8.7606  -18.1896   20.9458 N   0  0  0  0  0  0  0  0  0  0  0  0
    8.3837  -16.8081   22.9097 C   0  0  0  0  0  0  0  0  0  0  0  0
    9.6255  -16.6058   22.9911 O   0  0  0  0  0  0  0  0  0  0  0  0
    6.5900  -10.7409   27.7186 C   0  0  0  0  0  0  0  0  0  0  0  0
    5.9857  -11.9080   26.4625 S   0  0  0  0  0  0  0  0  0  0  0  0
    7.3290  -13.0922   26.1062 C   0  0  0  0  0  0  0  0  0  0  0  0
    6.9289  -14.0536   25.0297 C   0  0  0  0  0  0  0  0  0  0  0  0
    8.0091  -15.0123   24.6678 C   0  0  2  0  0  0  0  0  0  0  0  0
    7.5366  -15.9910   23.6867 N   0  0  0  0  0  0  0  0  0  0  0  0
    8.6987  -15.6365   25.7836 C   0  0  0  0  0  0  0  0  0  0  0  0
    8.4052  -16.7655   26.1992 O   0  0  0  0  0  0  0  0  0  0  0  0
    9.7434  -14.9742   26.4460 O   0  0  0  0  0  0  0  0  0  0  0  0
  2  1  1  0
  2  4  1  0
  3  2  2  0
  4  5  1  0
  5  6  1  6
  5  7  1  0
  7  8  2  0
 10 12  1  0
 10  9  1  6
 10 11  1  0
 12 14  1  0
 13  7  1  0
 12 13  1  6
 14 15  2  0
 14 21  1  0
 16 17  1  0
 18 17  1  0
 19 18  1  0
 20 19  1  1
 20 22  1  0
 21 20  1  0
 22 24  1  0
 23 22  2  0
M  END
$$$$
