NTM.pdb
     RDKit          3D

 24 23  0  0  1  0  0  0  0  0999 V2000
   14.0868  -17.6668   17.9379 N   0  0  0  0  0  0  0  0  0  0  0  0
   12.8156  -17.6565   17.3282 C   0  0  0  0  0  0  0  0  0  0  0  0
   12.6932  -18.0462   16.1433 O   0  0  0  0  0  0  0  0  0  0  0  0
   11.6249  -17.1951   18.0569 C   0  0  0  0  0  0  0  0  0  0  0  0
   11.6800  -17.4833   19.5358 C   0  0  2  0  0  0  0  0  0  0  0  0
   11.6015  -18.9134   19.6988 N   0  0  0  0  0  0  0  0  0  0  0  0
   10.5665  -16.7824   20.2236 C   0  0  0  0  0  0  0  0  0  0  0  0
   10.3510  -15.5540   20.0953 O   0  0  0  0  0  0  0  0  0  0  0  0
    6.7273  -17.8748   20.5850 C   0  0  0  0  0  0  0  0  0  0  0  0
    7.3619  -17.6595   21.9171 C   0  0  1  0  0  0  0  0  0  0  0  0
    7.5502  -18.8289   22.6039 O   0  0  0  0  0  0  0  0  0  0  0  0
    8.6129  -16.8228   21.7786 C   0  0  2  0  0  0  0  0  0  0  0  0
    9.6682  -17.5041   21.0858 N   0  0  0  0  0  0  0  0  0  0  0  0
    9.0657  -16.2886   23.1024 C   0  0  0  0  0  0  0  0  0  0  0  0
   10.1303  -16.7124   23.6283 O   0  0  0  0  0  0  0  0  0  0  0  0
    6.2401  -11.2250   25.9625 C   0  0  0  0  0  0  0  0  0  0  0  0
    6.7888  -12.0289   27.4980 S   0  0  0  0  0  0  0  0  0  0  0  0
    7.9032  -13.4021   27.0438 C   0  0  0  0  0  0  0  0  0  0  0  0
    7.6801  -13.8314   25.6264 C   0  0  0  0  0  0  0  0  0  0  0  0
    8.6223  -14.8944   25.1799 C   0  0  2  0  0  0  0  0  0  0  0  0
    8.3369  -15.3059   23.8041 N   0  0  0  0  0  0  0  0  0  0  0  0
    8.7665  -16.0274   26.0774 C   0  0  0  0  0  0  0  0  0  0  0  0
    8.0555  -17.0378   25.9925 O   0  0  0  0  0  0  0  0  0  0  0  0
    9.7344  -16.0228   27.0934 O   0  0  0  0  0  0  0  0  0  0  0  0
  2  1  1  0
  2  4  1  0
  3  2  2  0
  4  5  1  0
  5  6  1  6
  5  7  1  0
  7  8  2  0
 10 12  1  0
 10  9  1  6
 10 11  1  0
 12 14  1  0
 13  7  1  0
 12 13  1  1
 14 15  2  0
 14 21  1  0
 16 17  1  0
 18 17  1  0
 19 18  1  0
 20 19  1  1
 20 22  1  0
 21 20  1  0
 22 24  1  0
 23 22  2  0
M  END
$$$$
