NTM.pdb
     RDKit          3D

 24 23  0  0  1  0  0  0  0  0999 V2000
   11.8472  -17.5054   15.4681 N   0  0  0  0  0  0  0  0  0  0  0  0
   12.1476  -17.5670   16.8442 C   0  0  0  0  0  0  0  0  0  0  0  0
   13.1021  -18.2769   17.2392 O   0  0  0  0  0  0  0  0  0  0  0  0
   11.3602  -16.8126   17.8304 C   0  0  0  0  0  0  0  0  0  0  0  0
   11.0976  -17.5817   19.1003 C   0  0  2  0  0  0  0  0  0  0  0  0
   10.2147  -18.6717   18.7686 N   0  0  0  0  0  0  0  0  0  0  0  0
   10.5077  -16.6775   20.1195 C   0  0  0  0  0  0  0  0  0  0  0  0
   11.0132  -15.5714   20.4243 O   0  0  0  0  0  0  0  0  0  0  0  0
    6.5786  -15.8870   20.6533 C   0  0  0  0  0  0  0  0  0  0  0  0
    7.2369  -16.3097   21.9228 C   0  0  1  0  0  0  0  0  0  0  0  0
    6.8179  -17.5426   22.3459 O   0  0  0  0  0  0  0  0  0  0  0  0
    8.7384  -16.1790   21.8097 C   0  0  2  0  0  0  0  0  0  0  0  0
    9.3022  -17.0447   20.8145 N   0  0  0  0  0  0  0  0  0  0  0  0
    9.4058  -16.3456   23.1400 C   0  0  0  0  0  0  0  0  0  0  0  0
   10.1922  -17.3105   23.3401 O   0  0  0  0  0  0  0  0  0  0  0  0
   10.7201  -13.1514   30.2909 C   0  0  0  0  0  0  0  0  0  0  0  0
    9.8026  -13.0068   28.7281 S   0  0  0  0  0  0  0  0  0  0  0  0
   10.1138  -14.5195   27.7541 C   0  0  0  0  0  0  0  0  0  0  0  0
    9.5357  -14.4030   26.3774 C   0  0  0  0  0  0  0  0  0  0  0  0
    9.7132  -15.6349   25.5600 C   0  0  2  0  0  0  0  0  0  0  0  0
    9.1903  -15.4470   24.2055 N   0  0  0  0  0  0  0  0  0  0  0  0
    9.2444  -16.8682   26.1677 C   0  0  0  0  0  0  0  0  0  0  0  0
    8.0939  -17.2957   26.0022 O   0  0  0  0  0  0  0  0  0  0  0  0
   10.0910  -17.6383   26.9795 O   0  0  0  0  0  0  0  0  0  0  0  0
  2  1  1  0
  2  4  1  0
  3  2  2  0
  4  5  1  0
  5  6  1  6
  5  7  1  0
  7  8  2  0
 10 12  1  0
 10  9  1  6
 10 11  1  0
 12 14  1  0
 13  7  1  0
 12 13  1  6
 14 15  2  0
 14 21  1  0
 16 17  1  0
 18 17  1  0
 19 18  1  0
 20 19  1  1
 20 22  1  0
 21 20  1  0
 22 24  1  0
 23 22  2  0
M  END
$$$$
