NTM.pdb
     RDKit          3D

 24 23  0  0  1  0  0  0  0  0999 V2000
    9.0153  -13.9149   16.4648 N   0  0  0  0  0  0  0  0  0  0  0  0
    8.3314  -13.2557   17.5065 C   0  0  0  0  0  0  0  0  0  0  0  0
    7.9875  -12.0591   17.3626 O   0  0  0  0  0  0  0  0  0  0  0  0
    8.0123  -13.9461   18.7648 C   0  0  0  0  0  0  0  0  0  0  0  0
    8.5151  -15.3667   18.8116 C   0  0  2  0  0  0  0  0  0  0  0  0
    7.7978  -16.1104   17.8065 N   0  0  0  0  0  0  0  0  0  0  0  0
    8.3086  -15.9258   20.1714 C   0  0  0  0  0  0  0  0  0  0  0  0
    7.1845  -16.2787   20.6003 O   0  0  0  0  0  0  0  0  0  0  0  0
    9.6632  -18.9986   21.3224 C   0  0  0  0  0  0  0  0  0  0  0  0
   10.0666  -18.0510   22.4008 C   0  0  1  0  0  0  0  0  0  0  0  0
   11.4194  -17.8434   22.4381 O   0  0  0  0  0  0  0  0  0  0  0  0
    9.2541  -16.7791   22.3193 C   0  0  2  0  0  0  0  0  0  0  0  0
    9.4186  -16.0887   21.0727 N   0  0  0  0  0  0  0  0  0  0  0  0
    9.5137  -15.8856   23.4928 C   0  0  0  0  0  0  0  0  0  0  0  0
    9.8255  -14.6770   23.3147 O   0  0  0  0  0  0  0  0  0  0  0  0
    7.7641  -11.1776   26.2941 C   0  0  0  0  0  0  0  0  0  0  0  0
    6.4619  -12.4160   26.0191 S   0  0  0  0  0  0  0  0  0  0  0  0
    7.0688  -14.0171   26.6531 C   0  0  0  0  0  0  0  0  0  0  0  0
    7.6423  -14.8517   25.5497 C   0  0  0  0  0  0  0  0  0  0  0  0
    8.8987  -15.5515   25.9354 C   0  0  2  0  0  0  0  0  0  0  0  0
    9.4205  -16.3468   24.8224 N   0  0  0  0  0  0  0  0  0  0  0  0
    8.8459  -16.3049   27.1764 C   0  0  0  0  0  0  0  0  0  0  0  0
    8.4502  -17.4772   27.2263 O   0  0  0  0  0  0  0  0  0  0  0  0
    9.2489  -15.7247   28.3887 O   0  0  0  0  0  0  0  0  0  0  0  0
  2  1  1  0
  2  4  1  0
  3  2  2  0
  4  5  1  0
  5  6  1  6
  5  7  1  0
  7  8  2  0
 10 12  1  0
 10  9  1  6
 10 11  1  0
 12 14  1  0
 13  7  1  0
 12 13  1  6
 14 15  2  0
 14 21  1  0
 16 17  1  0
 18 17  1  0
 19 18  1  0
 20 19  1  6
 20 22  1  0
 21 20  1  0
 22 24  1  0
 23 22  2  0
M  END
$$$$
