NTM.pdb
     RDKit          3D

 24 23  0  0  1  0  0  0  0  0999 V2000
   14.6715  -19.0049   20.4766 N   0  0  0  0  0  0  0  0  0  0  0  0
   13.6904  -18.8756   19.4725 C   0  0  0  0  0  0  0  0  0  0  0  0
   13.5861  -19.7596   18.5901 O   0  0  0  0  0  0  0  0  0  0  0  0
   12.7832  -17.7191   19.4382 C   0  0  0  0  0  0  0  0  0  0  0  0
   11.3291  -18.1028   19.3307 C   0  0  2  0  0  0  0  0  0  0  0  0
   11.0129  -18.2025   17.9279 N   0  0  0  0  0  0  0  0  0  0  0  0
   10.4920  -17.0885   20.0196 C   0  0  0  0  0  0  0  0  0  0  0  0
   10.3558  -15.9158   19.5975 O   0  0  0  0  0  0  0  0  0  0  0  0
    6.9034  -17.0286   20.4227 C   0  0  0  0  0  0  0  0  0  0  0  0
    7.4393  -16.9906   21.8137 C   0  0  1  0  0  0  0  0  0  0  0  0
    7.2650  -18.1762   22.4759 O   0  0  0  0  0  0  0  0  0  0  0  0
    8.8658  -16.4910   21.8181 C   0  0  2  0  0  0  0  0  0  0  0  0
    9.7861  -17.4204   21.2291 N   0  0  0  0  0  0  0  0  0  0  0  0
    9.2959  -16.0698   23.1894 C   0  0  0  0  0  0  0  0  0  0  0  0
   10.1196  -16.7685   23.8398 O   0  0  0  0  0  0  0  0  0  0  0  0
    5.3438  -11.8389   26.4452 C   0  0  0  0  0  0  0  0  0  0  0  0
    6.8484  -11.8112   27.4652 S   0  0  0  0  0  0  0  0  0  0  0  0
    7.8096  -13.3165   27.0861 C   0  0  0  0  0  0  0  0  0  0  0  0
    7.9340  -13.5189   25.6074 C   0  0  0  0  0  0  0  0  0  0  0  0
    8.8364  -14.6459   25.2430 C   0  0  2  0  0  0  0  0  0  0  0  0
    8.8101  -14.8953   23.8006 N   0  0  0  0  0  0  0  0  0  0  0  0
    8.6700  -15.8633   26.0179 C   0  0  0  0  0  0  0  0  0  0  0  0
    7.8297  -16.7258   25.7290 O   0  0  0  0  0  0  0  0  0  0  0  0
    9.4690  -16.1154   27.1435 O   0  0  0  0  0  0  0  0  0  0  0  0
  2  1  1  0
  2  4  1  0
  3  2  2  0
  4  5  1  0
  5  6  1  6
  5  7  1  0
  7  8  2  0
 10 12  1  0
 10  9  1  6
 10 11  1  0
 12 14  1  0
 13  7  1  0
 12 13  1  1
 14 15  2  0
 14 21  1  0
 16 17  1  0
 18 17  1  0
 19 18  1  0
 20 19  1  6
 20 22  1  0
 21 20  1  0
 22 24  1  0
 23 22  2  0
M  END
$$$$
