MIR.pdb
     RDKit          3D

 28 27  0  0  1  0  0  0  0  0999 V2000
   23.3400  -19.6018  -18.0684 C   0  0  0  0  0  0  0  0  0  0  0  0
   24.6289  -18.5356  -17.4414 S   0  0  0  0  0  0  0  0  0  0  0  0
   25.8457  -19.3018  -16.3873 C   0  0  0  0  0  0  0  0  0  0  0  0
   25.3159  -19.9099  -15.1339 C   0  0  0  0  0  0  0  0  0  0  0  0
   26.4017  -20.4626  -14.2681 C   0  0  2  0  0  0  0  0  0  0  0  0
   27.2565  -21.3939  -14.9271 N   0  0  0  0  0  0  0  0  0  0  0  0
   25.8068  -21.1159  -13.0468 C   0  0  0  0  0  0  0  0  0  0  0  0
   25.7585  -22.3793  -13.0183 O   0  0  0  0  0  0  0  0  0  0  0  0
   27.1541  -18.8886   -8.6808 C   0  0  0  0  0  0  0  0  0  0  0  0
   26.7236  -20.1657   -9.4065 C   0  0  0  0  0  0  0  0  0  0  0  0
   25.2490  -20.1729   -9.5963 C   0  0  2  0  0  0  0  0  0  0  0  0
   24.5023  -20.5361   -8.3337 C   0  0  0  0  0  0  0  0  0  0  0  0
   24.7997  -21.0127  -10.7714 C   0  0  2  0  0  0  0  0  0  0  0  0
   25.3276  -20.3363  -11.9882 N   0  0  0  0  0  0  0  0  0  0  0  0
   23.3419  -21.0873  -10.9436 C   0  0  0  0  0  0  0  0  0  0  0  0
   22.7638  -20.2785  -11.7308 O   0  0  0  0  0  0  0  0  0  0  0  0
   18.3011  -24.4468   -6.5771 N   0  0  0  0  0  0  0  0  0  0  0  0
   17.5433  -25.0722   -7.6122 C   0  0  0  0  0  0  0  0  0  0  0  0
   16.3797  -25.5572   -7.3620 N   0  0  0  0  0  0  0  0  0  0  0  0
   18.0300  -25.1880   -8.9414 N   0  0  0  0  0  0  0  0  0  0  0  0
   18.4186  -24.0442   -9.7193 C   0  0  0  0  0  0  0  0  0  0  0  0
   19.1362  -22.9774   -8.9574 C   0  0  0  0  0  0  0  0  0  0  0  0
   20.6104  -22.9583   -9.1740 C   0  0  0  0  0  0  0  0  0  0  0  0
   21.0956  -22.0417  -10.2304 C   0  0  2  0  0  0  0  0  0  0  0  0
   22.5409  -22.0523  -10.2522 N   0  0  0  0  0  0  0  0  0  0  0  0
   20.5762  -20.6542  -10.1537 C   0  0  0  0  0  0  0  0  0  0  0  0
   21.0558  -19.8079   -9.3626 O   0  0  0  0  0  0  0  0  0  0  0  0
   19.5334  -20.2328  -10.9539 O   0  0  0  0  0  0  0  0  0  0  0  0
  2  1  1  0
  3  2  1  0
  4  3  1  0
  5  4  1  0
  5  6  1  6
  7  5  1  0
  7  8  2  0
 10  9  1  0
 11 10  1  0
 11 13  1  0
 11 12  1  1
 13 15  1  0
 13 14  1  6
 14  7  1  0
 15 16  2  0
 18 17  1  0
 18 20  1  0
 19 18  2  0
 20 21  1  0
 21 22  1  0
 22 23  1  0
 24 23  1  1
 24 26  1  0
 25 24  1  0
 25 15  1  0
 26 27  2  0
 26 28  1  0
M  END
$$$$
