MIR.pdb
     RDKit          3D

 28 27  0  0  1  0  0  0  0  0999 V2000
   25.8640  -16.3438  -16.7839 C   0  0  0  0  0  0  0  0  0  0  0  0
   27.5444  -16.3586  -16.1778 S   0  0  0  0  0  0  0  0  0  0  0  0
   28.1279  -17.9023  -15.5030 C   0  0  0  0  0  0  0  0  0  0  0  0
   27.1189  -18.6900  -14.7395 C   0  0  0  0  0  0  0  0  0  0  0  0
   27.6594  -20.0027  -14.2718 C   0  0  2  0  0  0  0  0  0  0  0  0
   28.0744  -20.8711  -15.3235 N   0  0  0  0  0  0  0  0  0  0  0  0
   26.6348  -20.7101  -13.4219 C   0  0  0  0  0  0  0  0  0  0  0  0
   25.9939  -21.6667  -13.9448 O   0  0  0  0  0  0  0  0  0  0  0  0
   27.1868  -20.6340   -8.0282 C   0  0  0  0  0  0  0  0  0  0  0  0
   26.8706  -21.1525   -9.4332 C   0  0  0  0  0  0  0  0  0  0  0  0
   25.5521  -20.6339   -9.8842 C   0  0  2  0  0  0  0  0  0  0  0  0
   24.4138  -21.0972   -9.0048 C   0  0  0  0  0  0  0  0  0  0  0  0
   25.2713  -20.8999  -11.3465 C   0  0  2  0  0  0  0  0  0  0  0  0
   26.4115  -20.3092  -12.1000 N   0  0  0  0  0  0  0  0  0  0  0  0
   24.0583  -20.2487  -11.8612 C   0  0  0  0  0  0  0  0  0  0  0  0
   24.1152  -19.0449  -12.2556 O   0  0  0  0  0  0  0  0  0  0  0  0
   20.8012  -20.3782  -18.9393 N   0  0  0  0  0  0  0  0  0  0  0  0
   22.1272  -19.9395  -18.6457 C   0  0  0  0  0  0  0  0  0  0  0  0
   22.9820  -19.7790  -19.5919 N   0  0  0  0  0  0  0  0  0  0  0  0
   22.5576  -19.6668  -17.3200 N   0  0  0  0  0  0  0  0  0  0  0  0
   21.6364  -19.5375  -16.2249 C   0  0  0  0  0  0  0  0  0  0  0  0
   21.4191  -20.7859  -15.4326 C   0  0  0  0  0  0  0  0  0  0  0  0
   22.3580  -20.9541  -14.2876 C   0  0  0  0  0  0  0  0  0  0  0  0
   21.7980  -20.6704  -12.9469 C   0  0  2  0  0  0  0  0  0  0  0  0
   22.8016  -20.9308  -11.9396 N   0  0  0  0  0  0  0  0  0  0  0  0
   20.5308  -21.3725  -12.6274 C   0  0  0  0  0  0  0  0  0  0  0  0
   20.5123  -22.5594  -12.2239 O   0  0  0  0  0  0  0  0  0  0  0  0
   19.3087  -20.7455  -12.7639 O   0  0  0  0  0  0  0  0  0  0  0  0
  2  1  1  0
  3  2  1  0
  4  3  1  0
  5  4  1  0
  5  6  1  6
  7  5  1  0
  7  8  2  0
 10  9  1  0
 11 10  1  0
 11 13  1  0
 11 12  1  1
 13 15  1  0
 13 14  1  6
 14  7  1  0
 15 16  2  0
 18 17  1  0
 18 20  1  0
 19 18  2  0
 20 21  1  0
 21 22  1  0
 22 23  1  0
 24 23  1  6
 24 26  1  0
 25 24  1  0
 25 15  1  0
 26 27  2  0
 26 28  1  0
M  END
$$$$
