MIR.pdb
     RDKit          3D

 28 27  0  0  1  0  0  0  0  0999 V2000
   26.5248  -16.3428  -17.1115 C   0  0  0  0  0  0  0  0  0  0  0  0
   28.0128  -17.1240  -17.7172 S   0  0  0  0  0  0  0  0  0  0  0  0
   28.6064  -18.5233  -16.7855 C   0  0  0  0  0  0  0  0  0  0  0  0
   27.5640  -19.2884  -16.0442 C   0  0  0  0  0  0  0  0  0  0  0  0
   28.1477  -20.3884  -15.2174 C   0  0  2  0  0  0  0  0  0  0  0  0
   28.8208  -21.3923  -15.9733 N   0  0  0  0  0  0  0  0  0  0  0  0
   27.0711  -21.0355  -14.3841 C   0  0  0  0  0  0  0  0  0  0  0  0
   26.4780  -22.0431  -14.8661 O   0  0  0  0  0  0  0  0  0  0  0  0
   25.4100  -21.1692   -8.4873 C   0  0  0  0  0  0  0  0  0  0  0  0
   25.0137  -21.4951   -9.9294 C   0  0  0  0  0  0  0  0  0  0  0  0
   26.0038  -20.9147  -10.8747 C   0  0  2  0  0  0  0  0  0  0  0  0
   26.2567  -19.4463  -10.6223 C   0  0  0  0  0  0  0  0  0  0  0  0
   25.6755  -21.1828  -12.3266 C   0  0  2  0  0  0  0  0  0  0  0  0
   26.7499  -20.5260  -13.1210 N   0  0  0  0  0  0  0  0  0  0  0  0
   24.4091  -20.5926  -12.7830 C   0  0  0  0  0  0  0  0  0  0  0  0
   24.2964  -19.3314  -12.8505 O   0  0  0  0  0  0  0  0  0  0  0  0
   18.1099  -22.7043  -15.2778 N   0  0  0  0  0  0  0  0  0  0  0  0
   17.8897  -22.3195  -16.6344 C   0  0  0  0  0  0  0  0  0  0  0  0
   16.7754  -22.5926  -17.2136 N   0  0  0  0  0  0  0  0  0  0  0  0
   18.8727  -21.6320  -17.3947 N   0  0  0  0  0  0  0  0  0  0  0  0
   20.2504  -21.5694  -16.9914 C   0  0  0  0  0  0  0  0  0  0  0  0
   20.4847  -20.9876  -15.6350 C   0  0  0  0  0  0  0  0  0  0  0  0
   21.7081  -21.4980  -14.9542 C   0  0  0  0  0  0  0  0  0  0  0  0
   22.0370  -20.8641  -13.6574 C   0  0  2  0  0  0  0  0  0  0  0  0
   23.2866  -21.3966  -13.1629 N   0  0  0  0  0  0  0  0  0  0  0  0
   20.9772  -20.9498  -12.6229 C   0  0  0  0  0  0  0  0  0  0  0  0
   20.9497  -21.8727  -11.7746 O   0  0  0  0  0  0  0  0  0  0  0  0
   19.9670  -20.0118  -12.5505 O   0  0  0  0  0  0  0  0  0  0  0  0
  2  1  1  0
  3  2  1  0
  4  3  1  0
  5  4  1  0
  5  6  1  6
  7  5  1  0
  7  8  2  0
 10  9  1  0
 11 10  1  0
 11 13  1  0
 11 12  1  6
 13 15  1  0
 13 14  1  6
 14  7  1  0
 15 16  2  0
 18 17  1  0
 18 20  1  0
 19 18  2  0
 20 21  1  0
 21 22  1  0
 22 23  1  0
 24 23  1  6
 24 26  1  0
 25 24  1  0
 25 15  1  0
 26 27  2  0
 26 28  1  0
M  END
$$$$
