MIR.pdb
     RDKit          3D

 28 27  0  0  1  0  0  0  0  0999 V2000
   26.0620  -15.9193  -15.8232 C   0  0  0  0  0  0  0  0  0  0  0  0
   27.7326  -16.4303  -16.1960 S   0  0  0  0  0  0  0  0  0  0  0  0
   28.2017  -18.0607  -15.6478 C   0  0  0  0  0  0  0  0  0  0  0  0
   27.6562  -18.4730  -14.3234 C   0  0  0  0  0  0  0  0  0  0  0  0
   28.1145  -19.8375  -13.9207 C   0  0  2  0  0  0  0  0  0  0  0  0
   28.5497  -20.6513  -15.0073 N   0  0  0  0  0  0  0  0  0  0  0  0
   27.0161  -20.5528  -13.1762 C   0  0  0  0  0  0  0  0  0  0  0  0
   26.3926  -21.4702  -13.7836 O   0  0  0  0  0  0  0  0  0  0  0  0
   27.0733  -20.3313   -7.6816 C   0  0  0  0  0  0  0  0  0  0  0  0
   26.9672  -20.9009   -9.0984 C   0  0  0  0  0  0  0  0  0  0  0  0
   25.6740  -20.5016   -9.7138 C   0  0  2  0  0  0  0  0  0  0  0  0
   24.4803  -20.9895   -8.9260 C   0  0  0  0  0  0  0  0  0  0  0  0
   25.5663  -20.8716  -11.1765 C   0  0  2  0  0  0  0  0  0  0  0  0
   26.7083  -20.2013  -11.8572 N   0  0  0  0  0  0  0  0  0  0  0  0
   24.3492  -20.3823  -11.8397 C   0  0  0  0  0  0  0  0  0  0  0  0
   24.1842  -19.1355  -12.0011 O   0  0  0  0  0  0  0  0  0  0  0  0
   21.0061  -26.2329  -14.9530 N   0  0  0  0  0  0  0  0  0  0  0  0
   22.4135  -26.1508  -15.1751 C   0  0  0  0  0  0  0  0  0  0  0  0
   23.0500  -27.1470  -15.6792 N   0  0  0  0  0  0  0  0  0  0  0  0
   23.1633  -24.9880  -14.8544 N   0  0  0  0  0  0  0  0  0  0  0  0
   22.5925  -23.8784  -14.1422 C   0  0  0  0  0  0  0  0  0  0  0  0
   22.1400  -22.7427  -15.0017 C   0  0  0  0  0  0  0  0  0  0  0  0
   22.7186  -21.4223  -14.6243 C   0  0  0  0  0  0  0  0  0  0  0  0
   22.3293  -20.9040  -13.2933 C   0  0  2  0  0  0  0  0  0  0  0  0
   23.3334  -21.2701  -12.3200 N   0  0  0  0  0  0  0  0  0  0  0  0
   20.9750  -21.2957  -12.8316 C   0  0  0  0  0  0  0  0  0  0  0  0
   19.9490  -21.0732  -13.5172 O   0  0  0  0  0  0  0  0  0  0  0  0
   20.7843  -21.9243  -11.6176 O   0  0  0  0  0  0  0  0  0  0  0  0
  2  1  1  0
  3  2  1  0
  4  3  1  0
  5  4  1  0
  5  6  1  6
  7  5  1  0
  7  8  2  0
 10  9  1  0
 11 10  1  0
 11 13  1  0
 11 12  1  1
 13 15  1  0
 13 14  1  6
 14  7  1  0
 15 16  2  0
 18 17  1  0
 18 20  1  0
 19 18  2  0
 20 21  1  0
 21 22  1  0
 22 23  1  0
 24 23  1  6
 24 26  1  0
 25 24  1  0
 25 15  1  0
 26 27  2  0
 26 28  1  0
M  END
$$$$
