MIR.pdb
     RDKit          3D

 28 27  0  0  1  0  0  0  0  0999 V2000
   31.6927  -21.8527   -9.6753 C   0  0  0  0  0  0  0  0  0  0  0  0
   30.0926  -21.0680   -9.7989 S   0  0  0  0  0  0  0  0  0  0  0  0
   28.9666  -21.7535  -10.9992 C   0  0  0  0  0  0  0  0  0  0  0  0
   27.6247  -21.1077  -11.0610 C   0  0  0  0  0  0  0  0  0  0  0  0
   26.7721  -21.6738  -12.1504 C   0  0  2  0  0  0  0  0  0  0  0  0
   27.4057  -21.7127  -13.4268 N   0  0  0  0  0  0  0  0  0  0  0  0
   25.4874  -20.8927  -12.2597 C   0  0  0  0  0  0  0  0  0  0  0  0
   25.0137  -20.3856  -11.2025 O   0  0  0  0  0  0  0  0  0  0  0  0
   25.1616  -18.5084  -16.4572 C   0  0  0  0  0  0  0  0  0  0  0  0
   24.4225  -18.3212  -15.1299 C   0  0  0  0  0  0  0  0  0  0  0  0
   23.4478  -19.4256  -14.9279 C   0  0  2  0  0  0  0  0  0  0  0  0
   22.0323  -19.0212  -15.2695 C   0  0  0  0  0  0  0  0  0  0  0  0
   23.5320  -20.0565  -13.5558 C   0  0  2  0  0  0  0  0  0  0  0  0
   24.8517  -20.7432  -13.4974 N   0  0  0  0  0  0  0  0  0  0  0  0
   22.5198  -21.0908  -13.2986 C   0  0  0  0  0  0  0  0  0  0  0  0
   22.5499  -22.1722  -13.9601 O   0  0  0  0  0  0  0  0  0  0  0  0
   16.7404  -24.7353   -8.6816 N   0  0  0  0  0  0  0  0  0  0  0  0
   17.9584  -25.0830   -8.0241 C   0  0  0  0  0  0  0  0  0  0  0  0
   18.0957  -26.2401   -7.4819 N   0  0  0  0  0  0  0  0  0  0  0  0
   19.0545  -24.1840   -7.9374 N   0  0  0  0  0  0  0  0  0  0  0  0
   19.0397  -22.8921   -8.5661 C   0  0  0  0  0  0  0  0  0  0  0  0
   19.2449  -22.9084  -10.0463 C   0  0  0  0  0  0  0  0  0  0  0  0
   20.2482  -21.9209  -10.5350 C   0  0  0  0  0  0  0  0  0  0  0  0
   20.5062  -21.9307  -11.9928 C   0  0  2  0  0  0  0  0  0  0  0  0
   21.4922  -20.9240  -12.3153 N   0  0  0  0  0  0  0  0  0  0  0  0
   19.3040  -21.7900  -12.8505 C   0  0  0  0  0  0  0  0  0  0  0  0
   18.8966  -20.6718  -13.2452 O   0  0  0  0  0  0  0  0  0  0  0  0
   18.5755  -22.8916  -13.2518 O   0  0  0  0  0  0  0  0  0  0  0  0
  2  1  1  0
  3  2  1  0
  4  3  1  0
  5  4  1  0
  5  6  1  6
  7  5  1  0
  7  8  2  0
 10  9  1  0
 11 10  1  0
 11 13  1  0
 11 12  1  1
 13 15  1  0
 13 14  1  6
 14  7  1  0
 15 16  2  0
 18 17  1  0
 18 20  1  0
 19 18  2  0
 20 21  1  0
 21 22  1  0
 22 23  1  0
 24 23  1  1
 24 26  1  0
 25 24  1  0
 25 15  1  0
 26 27  2  0
 26 28  1  0
M  END
$$$$
