SGK.pdb
     RDKit          3D

 20 19  0  0  1  0  0  0  0  0999 V2000
   27.1288  -12.8812  -16.7092 O   0  0  0  0  0  0  0  0  0  0  0  0
   26.3019  -12.0083  -16.0058 C   0  0  0  0  0  0  0  0  0  0  0  0
   26.4844  -10.5782  -16.4671 C   0  0  2  0  0  0  0  0  0  0  0  0
   27.8493  -10.1586  -16.4411 N   0  0  0  0  0  0  0  0  0  0  0  0
   25.5879   -9.7181  -15.6400 C   0  0  0  0  0  0  0  0  0  0  0  0
   25.9652   -9.5026  -14.4561 O   0  0  0  0  0  0  0  0  0  0  0  0
   24.3809   -9.1628  -16.1252 N   0  0  0  0  0  0  0  0  0  0  0  0
   23.5774   -8.2609  -15.3620 C   0  0  0  0  0  0  0  0  0  0  0  0
   22.3803   -7.7848  -16.0947 C   0  0  0  0  0  0  0  0  0  0  0  0
   22.2659   -8.0172  -17.3231 O   0  0  0  0  0  0  0  0  0  0  0  0
   21.3244   -7.0638  -15.4866 N   0  0  0  0  0  0  0  0  0  0  0  0
   20.1119   -6.6509  -16.2132 C   0  0  1  0  0  0  0  0  0  0  0  0
   18.8879   -7.0961  -15.5024 C   0  0  0  0  0  0  0  0  0  0  0  0
   17.6559   -6.8368  -16.3156 C   0  0  0  0  0  0  0  0  0  0  0  0
   16.3939   -7.2914  -15.5849 C   0  0  0  0  0  0  0  0  0  0  0  0
   15.2286   -7.0871  -16.5363 C   0  0  0  0  0  0  0  0  0  0  0  0
   13.9710   -7.4073  -15.9124 N   0  0  0  0  0  0  0  0  0  0  0  0
   20.1059   -5.2035  -16.4296 C   0  0  0  0  0  0  0  0  0  0  0  0
   20.5163   -4.3584  -15.6243 O   0  0  0  0  0  0  0  0  0  0  0  0
   19.5938   -4.7245  -17.6495 O   0  0  0  0  0  0  0  0  0  0  0  0
  2  1  1  0
  3  2  1  0
  3  4  1  1
  5  6  2  0
  5  3  1  0
  7  5  1  0
  8  7  1  0
  9  8  1  0
 10  9  2  0
 11  9  1  0
 12 13  1  1
 12 11  1  0
 13 14  1  0
 14 15  1  0
 15 16  1  0
 16 17  1  0
 18 12  1  0
 19 18  2  0
 20 18  1  0
M  END
$$$$
