SGK.pdb
     RDKit          3D

 20 19  0  0  1  0  0  0  0  0999 V2000
   18.6927  -11.7331  -19.5355 O   0  0  0  0  0  0  0  0  0  0  0  0
   18.9612  -11.3707  -18.2176 C   0  0  0  0  0  0  0  0  0  0  0  0
   18.0599  -10.2452  -17.7569 C   0  0  2  0  0  0  0  0  0  0  0  0
   18.0445   -9.1424  -18.6641 N   0  0  0  0  0  0  0  0  0  0  0  0
   18.4795   -9.8660  -16.3757 C   0  0  0  0  0  0  0  0  0  0  0  0
   18.6062  -10.8154  -15.5552 O   0  0  0  0  0  0  0  0  0  0  0  0
   18.7281   -8.5313  -15.9790 N   0  0  0  0  0  0  0  0  0  0  0  0
   19.2538   -8.1862  -14.6960 C   0  0  0  0  0  0  0  0  0  0  0  0
   20.7320   -8.0798  -14.6818 C   0  0  0  0  0  0  0  0  0  0  0  0
   21.3155   -7.6153  -13.6720 O   0  0  0  0  0  0  0  0  0  0  0  0
   21.5568   -8.4780  -15.7614 N   0  0  0  0  0  0  0  0  0  0  0  0
   23.0268   -8.3993  -15.7196 C   0  0  1  0  0  0  0  0  0  0  0  0
   23.6389   -9.7192  -16.0104 C   0  0  0  0  0  0  0  0  0  0  0  0
   25.1341   -9.6624  -15.9225 C   0  0  0  0  0  0  0  0  0  0  0  0
   25.7654  -11.0271  -16.1908 C   0  0  0  0  0  0  0  0  0  0  0  0
   27.2527  -10.8930  -15.9169 C   0  0  0  0  0  0  0  0  0  0  0  0
   27.9662  -12.0963  -16.2579 N   0  0  0  0  0  0  0  0  0  0  0  0
   23.5164   -7.3707  -16.6384 C   0  0  0  0  0  0  0  0  0  0  0  0
   22.9224   -6.9729  -17.6484 O   0  0  0  0  0  0  0  0  0  0  0  0
   24.7625   -6.7803  -16.3587 O   0  0  0  0  0  0  0  0  0  0  0  0
  2  1  1  0
  3  2  1  0
  3  4  1  6
  5  6  2  0
  5  3  1  0
  7  5  1  0
  8  7  1  0
  9  8  1  0
 10  9  2  0
 11  9  1  0
 12 13  1  6
 12 11  1  0
 13 14  1  0
 14 15  1  0
 15 16  1  0
 16 17  1  0
 18 12  1  0
 19 18  2  0
 20 18  1  0
M  END
$$$$
