SGK.pdb
     RDKit          3D

 20 19  0  0  1  0  0  0  0  0999 V2000
   26.0312  -21.4795  -10.0567 O   0  0  0  0  0  0  0  0  0  0  0  0
   26.8551  -22.1026  -10.9912 C   0  0  0  0  0  0  0  0  0  0  0  0
   26.6892  -21.4969  -12.3684 C   0  0  2  0  0  0  0  0  0  0  0  0
   26.9104  -20.0861  -12.3824 N   0  0  0  0  0  0  0  0  0  0  0  0
   25.3404  -21.8867  -12.8747 C   0  0  0  0  0  0  0  0  0  0  0  0
   25.2065  -23.0916  -13.2223 O   0  0  0  0  0  0  0  0  0  0  0  0
   24.2566  -20.9830  -12.9712 N   0  0  0  0  0  0  0  0  0  0  0  0
   22.9581  -21.3711  -13.4236 C   0  0  0  0  0  0  0  0  0  0  0  0
   22.0088  -20.2362  -13.5116 C   0  0  0  0  0  0  0  0  0  0  0  0
   22.1002  -19.2808  -12.7024 O   0  0  0  0  0  0  0  0  0  0  0  0
   20.9744  -20.1525  -14.4746 N   0  0  0  0  0  0  0  0  0  0  0  0
   19.9657  -19.0795  -14.4775 C   0  0  1  0  0  0  0  0  0  0  0  0
   19.1155  -19.1517  -15.6914 C   0  0  0  0  0  0  0  0  0  0  0  0
   18.0583  -18.0893  -15.6851 C   0  0  0  0  0  0  0  0  0  0  0  0
   18.0617  -17.2850  -16.9836 C   0  0  0  0  0  0  0  0  0  0  0  0
   17.0280  -16.1837  -16.8299 C   0  0  0  0  0  0  0  0  0  0  0  0
   17.0030  -15.3146  -17.9777 N   0  0  0  0  0  0  0  0  0  0  0  0
   19.1582  -19.1248  -13.2577 C   0  0  0  0  0  0  0  0  0  0  0  0
   18.6675  -18.1419  -12.6883 O   0  0  0  0  0  0  0  0  0  0  0  0
   18.9148  -20.3836  -12.6782 O   0  0  0  0  0  0  0  0  0  0  0  0
  2  1  1  0
  3  2  1  0
  3  4  1  1
  5  6  2  0
  5  3  1  0
  7  5  1  0
  8  7  1  0
  9  8  1  0
 10  9  2  0
 11  9  1  0
 12 13  1  6
 12 11  1  0
 13 14  1  0
 14 15  1  0
 15 16  1  0
 16 17  1  0
 18 12  1  0
 19 18  2  0
 20 18  1  0
M  END
$$$$
