SGK.pdb
     RDKit          3D

 20 19  0  0  1  0  0  0  0  0999 V2000
   11.3013   -8.9476   -9.0273 O   0  0  0  0  0  0  0  0  0  0  0  0
   12.4226   -8.1379   -9.1926 C   0  0  0  0  0  0  0  0  0  0  0  0
   13.6385   -8.9478   -9.5886 C   0  0  2  0  0  0  0  0  0  0  0  0
   13.9520   -9.9723   -8.6444 N   0  0  0  0  0  0  0  0  0  0  0  0
   14.7630   -7.9933   -9.8173 C   0  0  0  0  0  0  0  0  0  0  0  0
   14.6512   -7.2360  -10.8196 O   0  0  0  0  0  0  0  0  0  0  0  0
   15.8996   -7.9178   -8.9788 N   0  0  0  0  0  0  0  0  0  0  0  0
   16.9834   -7.0177   -9.2168 C   0  0  0  0  0  0  0  0  0  0  0  0
   17.9354   -7.5103  -10.2404 C   0  0  0  0  0  0  0  0  0  0  0  0
   18.5854   -8.5641  -10.0336 O   0  0  0  0  0  0  0  0  0  0  0  0
   18.1697   -6.8544  -11.4730 N   0  0  0  0  0  0  0  0  0  0  0  0
   19.1508   -7.3316  -12.4621 C   0  0  1  0  0  0  0  0  0  0  0  0
   18.4828   -8.0765  -13.5578 C   0  0  0  0  0  0  0  0  0  0  0  0
   19.4748   -8.5888  -14.5577 C   0  0  0  0  0  0  0  0  0  0  0  0
   18.7982   -9.4206  -15.6456 C   0  0  0  0  0  0  0  0  0  0  0  0
   19.8999  -10.0045  -16.5117 C   0  0  0  0  0  0  0  0  0  0  0  0
   19.3694  -10.8633  -17.5386 N   0  0  0  0  0  0  0  0  0  0  0  0
   19.9455   -6.2179  -12.9819 C   0  0  0  0  0  0  0  0  0  0  0  0
   21.0767   -6.3152  -13.4738 O   0  0  0  0  0  0  0  0  0  0  0  0
   19.3861   -4.9283  -12.9216 O   0  0  0  0  0  0  0  0  0  0  0  0
  2  1  1  0
  3  2  1  0
  3  4  1  1
  5  6  2  0
  5  3  1  0
  7  5  1  0
  8  7  1  0
  9  8  1  0
 10  9  2  0
 11  9  1  0
 12 13  1  6
 12 11  1  0
 13 14  1  0
 14 15  1  0
 15 16  1  0
 16 17  1  0
 18 12  1  0
 19 18  2  0
 20 18  1  0
M  END
$$$$
