SGK.pdb
     RDKit          3D

 20 19  0  0  1  0  0  0  0  0999 V2000
   23.7441  -13.4265  -17.8370 O   0  0  0  0  0  0  0  0  0  0  0  0
   24.3405  -12.1761  -17.9829 C   0  0  0  0  0  0  0  0  0  0  0  0
   24.5530  -11.5031  -16.6439 C   0  0  2  0  0  0  0  0  0  0  0  0
   23.3805  -11.5108  -15.8287 N   0  0  0  0  0  0  0  0  0  0  0  0
   25.0795  -10.1311  -16.9056 C   0  0  0  0  0  0  0  0  0  0  0  0
   26.1709  -10.0676  -17.5342 O   0  0  0  0  0  0  0  0  0  0  0  0
   24.4180   -8.9531  -16.4870 N   0  0  0  0  0  0  0  0  0  0  0  0
   24.8760   -7.6423  -16.8238 C   0  0  0  0  0  0  0  0  0  0  0  0
   23.9922   -6.5675  -16.3134 C   0  0  0  0  0  0  0  0  0  0  0  0
   24.2401   -5.3691  -16.5929 O   0  0  0  0  0  0  0  0  0  0  0  0
   22.8527   -6.8063  -15.5078 N   0  0  0  0  0  0  0  0  0  0  0  0
   21.8951   -5.7501  -15.1390 C   0  0  1  0  0  0  0  0  0  0  0  0
   20.5039   -6.2661  -15.1488 C   0  0  0  0  0  0  0  0  0  0  0  0
   20.0742   -6.6602  -16.5295 C   0  0  0  0  0  0  0  0  0  0  0  0
   18.6576   -7.2314  -16.5359 C   0  0  0  0  0  0  0  0  0  0  0  0
   18.3069   -7.5402  -17.9804 C   0  0  0  0  0  0  0  0  0  0  0  0
   17.0501   -8.2351  -18.0850 N   0  0  0  0  0  0  0  0  0  0  0  0
   22.2392   -5.1697  -13.8404 C   0  0  0  0  0  0  0  0  0  0  0  0
   23.0974   -5.6101  -13.0653 O   0  0  0  0  0  0  0  0  0  0  0  0
   21.5432   -4.0173  -13.4315 O   0  0  0  0  0  0  0  0  0  0  0  0
  2  1  1  0
  3  2  1  0
  3  4  1  6
  5  6  2  0
  5  3  1  0
  7  5  1  0
  8  7  1  0
  9  8  1  0
 10  9  2  0
 11  9  1  0
 12 13  1  1
 12 11  1  0
 13 14  1  0
 14 15  1  0
 15 16  1  0
 16 17  1  0
 18 12  1  0
 19 18  2  0
 20 18  1  0
M  END
$$$$
