IGE.pdb
     RDKit          3D

 22 21  0  0  1  0  0  0  0  0999 V2000
   17.4736  -14.9404  -19.8058 C   0  0  0  0  0  0  0  0  0  0  0  0
   17.0070  -15.1066  -18.3888 C   0  0  0  0  0  0  0  0  0  0  0  0
   17.3545  -13.8524  -17.5736 C   0  0  2  0  0  0  0  0  0  0  0  0
   17.0421  -12.6825  -18.4423 C   0  0  0  0  0  0  0  0  0  0  0  0
   18.8191  -14.0026  -17.2225 C   0  0  2  0  0  0  0  0  0  0  0  0
   18.9076  -15.2668  -16.4832 N   0  0  0  0  0  0  0  0  0  0  0  0
   19.3645  -12.9037  -16.4211 C   0  0  0  0  0  0  0  0  0  0  0  0
   18.8166  -12.6279  -15.3089 O   0  0  0  0  0  0  0  0  0  0  0  0
   20.4738  -12.1160  -16.8015 N   0  0  0  0  0  0  0  0  0  0  0  0
   20.8449  -10.9832  -15.9972 C   0  0  0  0  0  0  0  0  0  0  0  0
   20.0334   -9.7765  -16.3342 C   0  0  0  0  0  0  0  0  0  0  0  0
   19.0352   -9.8788  -17.0923 O   0  0  0  0  0  0  0  0  0  0  0  0
   20.3480   -8.4932  -15.8244 N   0  0  0  0  0  0  0  0  0  0  0  0
   19.5217   -7.3175  -16.0848 C   0  0  1  0  0  0  0  0  0  0  0  0
   18.1401   -7.6495  -15.5332 C   0  0  0  0  0  0  0  0  0  0  0  0
   17.2842   -6.4130  -15.6789 C   0  0  0  0  0  0  0  0  0  0  0  0
   15.8848   -6.6910  -15.2503 C   0  0  0  0  0  0  0  0  0  0  0  0
   15.1070   -7.4414  -15.9124 O   0  0  0  0  0  0  0  0  0  0  0  0
   20.0867   -6.1159  -15.4626 C   0  0  0  0  0  0  0  0  0  0  0  0
   19.7299   -4.8616  -15.9016 O   0  0  0  0  0  0  0  0  0  0  0  0
   15.4008   -6.1197  -14.0933 O   0  0  0  0  0  0  0  0  0  0  0  0
   20.9016   -6.2278  -14.5231 O   0  0  0  0  0  0  0  0  0  0  0  0
  2  3  1  0
  2  1  1  0
  3  5  1  0
  3  4  1  6
  5  7  1  0
  5  6  1  1
  7  8  2  0
  9 10  1  0
  9  7  1  0
 10 11  1  0
 11 12  2  0
 11 13  1  0
 13 14  1  0
 14 15  1  1
 15 16  1  0
 17 21  1  0
 17 16  1  0
 18 17  2  0
 19 20  1  0
 19 14  1  0
 22 19  2  0
M  END
$$$$
