IGE.pdb
     RDKit          3D

 22 21  0  0  1  0  0  0  0  0999 V2000
   18.5319  -16.8518  -18.7752 C   0  0  0  0  0  0  0  0  0  0  0  0
   18.6683  -16.1233  -17.4698 C   0  0  0  0  0  0  0  0  0  0  0  0
   17.9943  -14.7468  -17.5666 C   0  0  2  0  0  0  0  0  0  0  0  0
   18.6769  -14.0177  -18.6725 C   0  0  0  0  0  0  0  0  0  0  0  0
   18.1706  -14.1236  -16.1985 C   0  0  2  0  0  0  0  0  0  0  0  0
   17.6224  -15.1062  -15.2569 N   0  0  0  0  0  0  0  0  0  0  0  0
   17.5022  -12.8301  -16.0328 C   0  0  0  0  0  0  0  0  0  0  0  0
   16.2488  -12.7607  -16.2259 O   0  0  0  0  0  0  0  0  0  0  0  0
   18.1611  -11.6353  -15.6672 N   0  0  0  0  0  0  0  0  0  0  0  0
   17.4338  -10.3948  -15.6803 C   0  0  0  0  0  0  0  0  0  0  0  0
   18.2888   -9.2575  -16.1318 C   0  0  0  0  0  0  0  0  0  0  0  0
   19.4762   -9.4643  -16.4907 O   0  0  0  0  0  0  0  0  0  0  0  0
   17.8076   -7.9262  -16.1735 N   0  0  0  0  0  0  0  0  0  0  0  0
   18.5914   -6.8217  -16.7195 C   0  0  1  0  0  0  0  0  0  0  0  0
   17.6635   -5.6123  -16.7182 C   0  0  0  0  0  0  0  0  0  0  0  0
   16.5873   -5.8650  -17.7481 C   0  0  0  0  0  0  0  0  0  0  0  0
   15.6352   -4.7205  -17.8024 C   0  0  0  0  0  0  0  0  0  0  0  0
   15.5435   -3.9594  -18.8118 O   0  0  0  0  0  0  0  0  0  0  0  0
   19.8046   -6.5832  -15.9312 C   0  0  0  0  0  0  0  0  0  0  0  0
   20.8654   -5.8876  -16.4643 O   0  0  0  0  0  0  0  0  0  0  0  0
   14.8158   -4.4647  -16.7243 O   0  0  0  0  0  0  0  0  0  0  0  0
   19.8802   -7.0148  -14.7618 O   0  0  0  0  0  0  0  0  0  0  0  0
  2  3  1  0
  2  1  1  0
  3  5  1  0
  3  4  1  6
  5  7  1  0
  5  6  1  1
  7  8  2  0
  9 10  1  0
  9  7  1  0
 10 11  1  0
 11 12  2  0
 11 13  1  0
 13 14  1  0
 14 15  1  1
 15 16  1  0
 17 21  1  0
 17 16  1  0
 18 17  2  0
 19 20  1  0
 19 14  1  0
 22 19  2  0
M  END
$$$$
