IGE.pdb
     RDKit          3D

 22 21  0  0  1  0  0  0  0  0999 V2000
   18.7133  -15.1851  -15.9587 C   0  0  0  0  0  0  0  0  0  0  0  0
   18.8986  -13.9737  -16.8256 C   0  0  0  0  0  0  0  0  0  0  0  0
   18.4165  -12.7198  -16.0813 C   0  0  2  0  0  0  0  0  0  0  0  0
   16.9580  -12.9055  -15.8389 C   0  0  0  0  0  0  0  0  0  0  0  0
   18.7608  -11.5622  -16.9936 C   0  0  2  0  0  0  0  0  0  0  0  0
   20.1864  -11.7265  -17.2990 N   0  0  0  0  0  0  0  0  0  0  0  0
   18.5126  -10.2400  -16.4125 C   0  0  0  0  0  0  0  0  0  0  0  0
   17.3383   -9.9551  -16.0211 O   0  0  0  0  0  0  0  0  0  0  0  0
   19.5007   -9.2432  -16.2526 N   0  0  0  0  0  0  0  0  0  0  0  0
   19.1793   -8.0383  -15.5364 C   0  0  0  0  0  0  0  0  0  0  0  0
   20.3387   -7.0993  -15.4861 C   0  0  0  0  0  0  0  0  0  0  0  0
   21.4164   -7.3958  -16.0624 O   0  0  0  0  0  0  0  0  0  0  0  0
   20.2737   -5.8614  -14.8011 N   0  0  0  0  0  0  0  0  0  0  0  0
   21.3430   -4.8688  -14.8643 C   0  0  1  0  0  0  0  0  0  0  0  0
   20.6557   -3.5108  -14.7802 C   0  0  0  0  0  0  0  0  0  0  0  0
   19.9154   -3.2957  -16.0796 C   0  0  0  0  0  0  0  0  0  0  0  0
   19.2223   -1.9771  -16.0754 C   0  0  0  0  0  0  0  0  0  0  0  0
   19.5351   -1.0417  -16.8716 O   0  0  0  0  0  0  0  0  0  0  0  0
   22.3163   -5.0590  -13.7842 C   0  0  0  0  0  0  0  0  0  0  0  0
   23.6394   -4.7254  -13.9618 O   0  0  0  0  0  0  0  0  0  0  0  0
   18.2006   -1.7477  -15.1796 O   0  0  0  0  0  0  0  0  0  0  0  0
   21.9444   -5.5288  -12.6886 O   0  0  0  0  0  0  0  0  0  0  0  0
  2  3  1  0
  2  1  1  0
  3  5  1  0
  3  4  1  6
  5  7  1  0
  5  6  1  1
  7  8  2  0
  9 10  1  0
  9  7  1  0
 10 11  1  0
 11 12  2  0
 11 13  1  0
 13 14  1  0
 14 15  1  1
 15 16  1  0
 17 21  1  0
 17 16  1  0
 18 17  2  0
 19 20  1  0
 19 14  1  0
 22 19  2  0
M  END
$$$$
