LSA.pdb
     RDKit          3D

 20 19  0  0  1  0  0  0  0  0999 V2000
    7.5290  -12.1888   19.4504 C   0  0  0  0  0  0  0  0  0  0  0  0
    7.9784  -13.6542   19.6913 C   0  0  1  0  0  0  0  0  0  0  0  0
    9.4591  -13.5843   20.0108 C   0  0  0  0  0  0  0  0  0  0  0  0
    7.1157  -14.1500   20.7821 C   0  0  0  0  0  0  0  0  0  0  0  0
    7.4247  -15.4769   21.3524 C   0  0  2  0  0  0  0  0  0  0  0  0
    6.5885  -16.5039   20.6679 N   0  0  0  0  0  0  0  0  0  0  0  0
    7.1622  -15.6256   22.7874 C   0  0  0  0  0  0  0  0  0  0  0  0
    6.0915  -15.3126   23.3649 O   0  0  0  0  0  0  0  0  0  0  0  0
    8.9108  -18.5103   25.1012 O   0  0  0  0  0  0  0  0  0  0  0  0
    7.8076  -17.7594   25.4179 C   0  0  0  0  0  0  0  0  0  0  0  0
    7.9562  -16.3023   25.0388 C   0  0  2  0  0  0  0  0  0  0  0  0
    8.1785  -16.1658   23.6321 N   0  0  0  0  0  0  0  0  0  0  0  0
    9.0756  -15.6593   25.7859 C   0  0  0  0  0  0  0  0  0  0  0  0
   10.2456  -15.7088   25.3319 O   0  0  0  0  0  0  0  0  0  0  0  0
    9.3141  -13.3192   28.6243 C   0  0  0  0  0  0  0  0  0  0  0  0
    9.8849  -14.4348   27.7645 C   0  0  2  0  0  0  0  0  0  0  0  0
    8.7926  -15.0009   27.0024 N   0  0  0  0  0  0  0  0  0  0  0  0
   10.3882  -15.5157   28.6602 C   0  0  0  0  0  0  0  0  0  0  0  0
    9.8139  -16.6234   28.7898 O   0  0  0  0  0  0  0  0  0  0  0  0
   11.5526  -15.3299   29.4107 O   0  0  0  0  0  0  0  0  0  0  0  0
  2  1  1  1
  3  2  1  0
  4  2  1  0
  4  5  1  0
  5  7  1  0
  5  6  1  6
  7  8  2  0
  9 10  1  0
 11 10  1  6
 11 13  1  0
 12 11  1  0
 12  7  1  0
 13 14  2  0
 13 17  1  0
 16 15  1  1
 16 18  1  0
 17 16  1  0
 18 19  2  0
 18 20  1  0
M  END
$$$$
