LSA.pdb
     RDKit          3D

 20 19  0  0  1  0  0  0  0  0999 V2000
    7.3381  -12.0993   19.3795 C   0  0  0  0  0  0  0  0  0  0  0  0
    8.0816  -13.4526   19.5308 C   0  0  1  0  0  0  0  0  0  0  0  0
    9.5600  -13.1183   19.4858 C   0  0  0  0  0  0  0  0  0  0  0  0
    7.5972  -14.0209   20.8045 C   0  0  0  0  0  0  0  0  0  0  0  0
    8.1653  -15.3129   21.2398 C   0  0  2  0  0  0  0  0  0  0  0  0
    7.4849  -16.4139   20.5000 N   0  0  0  0  0  0  0  0  0  0  0  0
    8.0136  -15.6227   22.6650 C   0  0  0  0  0  0  0  0  0  0  0  0
    6.9847  -15.3996   23.3501 O   0  0  0  0  0  0  0  0  0  0  0  0
   10.6782  -18.2568   24.6243 O   0  0  0  0  0  0  0  0  0  0  0  0
    9.3794  -18.0072   24.9872 C   0  0  0  0  0  0  0  0  0  0  0  0
    8.9655  -16.5713   24.7509 C   0  0  2  0  0  0  0  0  0  0  0  0
    9.0987  -16.2275   23.3686 N   0  0  0  0  0  0  0  0  0  0  0  0
    9.7742  -15.6309   25.5795 C   0  0  0  0  0  0  0  0  0  0  0  0
   10.9442  -15.3335   25.2330 O   0  0  0  0  0  0  0  0  0  0  0  0
    9.0827  -13.1633   28.1677 C   0  0  0  0  0  0  0  0  0  0  0  0
   10.0027  -14.2266   27.5907 C   0  0  2  0  0  0  0  0  0  0  0  0
    9.2000  -15.0886   26.7499 N   0  0  0  0  0  0  0  0  0  0  0  0
   10.5126  -15.0719   28.7085 C   0  0  0  0  0  0  0  0  0  0  0  0
   11.2385  -14.6275   29.6299 O   0  0  0  0  0  0  0  0  0  0  0  0
   10.1915  -16.4307   28.7733 O   0  0  0  0  0  0  0  0  0  0  0  0
  2  1  1  1
  3  2  1  0
  4  2  1  0
  4  5  1  0
  5  7  1  0
  5  6  1  6
  7  8  2  0
  9 10  1  0
 11 10  1  6
 11 13  1  0
 12 11  1  0
 12  7  1  0
 13 14  2  0
 13 17  1  0
 16 15  1  1
 16 18  1  0
 17 16  1  0
 18 19  2  0
 18 20  1  0
M  END
$$$$
