LSA.pdb
     RDKit          3D

 20 19  0  0  1  0  0  0  0  0999 V2000
    7.6158  -12.1815   19.3629 C   0  0  0  0  0  0  0  0  0  0  0  0
    8.4540  -13.4807   19.4926 C   0  0  1  0  0  0  0  0  0  0  0  0
    9.9015  -13.0331   19.5549 C   0  0  0  0  0  0  0  0  0  0  0  0
    7.9437  -14.1519   20.7046 C   0  0  0  0  0  0  0  0  0  0  0  0
    8.6433  -15.3702   21.1605 C   0  0  2  0  0  0  0  0  0  0  0  0
    8.0996  -16.5451   20.4212 N   0  0  0  0  0  0  0  0  0  0  0  0
    8.5042  -15.6837   22.5862 C   0  0  0  0  0  0  0  0  0  0  0  0
    7.5305  -15.3561   23.3090 O   0  0  0  0  0  0  0  0  0  0  0  0
   11.1367  -18.4554   24.3050 O   0  0  0  0  0  0  0  0  0  0  0  0
    9.8610  -18.2694   24.7731 C   0  0  0  0  0  0  0  0  0  0  0  0
    9.3690  -16.8493   24.5988 C   0  0  2  0  0  0  0  0  0  0  0  0
    9.5357  -16.4190   23.2446 N   0  0  0  0  0  0  0  0  0  0  0  0
   10.0843  -15.9119   25.5122 C   0  0  0  0  0  0  0  0  0  0  0  0
   11.2215  -15.4773   25.2033 O   0  0  0  0  0  0  0  0  0  0  0  0
    9.1203  -13.6149   28.1167 C   0  0  0  0  0  0  0  0  0  0  0  0
   10.1466  -14.6116   27.6037 C   0  0  2  0  0  0  0  0  0  0  0  0
    9.4602  -15.5286   26.7192 N   0  0  0  0  0  0  0  0  0  0  0  0
   10.6437  -15.4181   28.7555 C   0  0  0  0  0  0  0  0  0  0  0  0
   10.3396  -16.6220   28.9331 O   0  0  0  0  0  0  0  0  0  0  0  0
   11.4916  -14.8462   29.7081 O   0  0  0  0  0  0  0  0  0  0  0  0
  2  1  1  1
  3  2  1  0
  4  2  1  0
  4  5  1  0
  5  7  1  0
  5  6  1  6
  7  8  2  0
  9 10  1  0
 11 10  1  6
 11 13  1  0
 12 11  1  0
 12  7  1  0
 13 14  2  0
 13 17  1  0
 16 15  1  1
 16 18  1  0
 17 16  1  0
 18 19  2  0
 18 20  1  0
M  END
$$$$
