LSA.pdb
     RDKit          3D

 20 19  0  0  1  0  0  0  0  0999 V2000
    5.5018  -12.4797   26.8873 C   0  0  0  0  0  0  0  0  0  0  0  0
    6.6321  -12.5249   25.8253 C   0  0  1  0  0  0  0  0  0  0  0  0
    7.6904  -11.5519   26.3077 C   0  0  0  0  0  0  0  0  0  0  0  0
    7.0503  -13.9396   25.7641 C   0  0  0  0  0  0  0  0  0  0  0  0
    8.2964  -14.2561   25.0371 C   0  0  2  0  0  0  0  0  0  0  0  0
    8.1543  -13.8158   23.6199 N   0  0  0  0  0  0  0  0  0  0  0  0
    8.6581  -15.6764   24.9900 C   0  0  0  0  0  0  0  0  0  0  0  0
    8.1439  -16.5794   25.6957 O   0  0  0  0  0  0  0  0  0  0  0  0
   12.0782  -16.9862   22.8331 O   0  0  0  0  0  0  0  0  0  0  0  0
   10.9370  -17.7469   22.8234 C   0  0  0  0  0  0  0  0  0  0  0  0
   10.0455  -17.4897   24.0185 C   0  0  2  0  0  0  0  0  0  0  0  0
    9.6716  -16.1103   24.0829 N   0  0  0  0  0  0  0  0  0  0  0  0
   10.7167  -17.8851   25.2904 C   0  0  0  0  0  0  0  0  0  0  0  0
   11.3972  -17.0455   25.9303 O   0  0  0  0  0  0  0  0  0  0  0  0
   10.7987  -21.0225   27.3018 C   0  0  0  0  0  0  0  0  0  0  0  0
   11.2377  -19.6043   26.9763 C   0  0  2  0  0  0  0  0  0  0  0  0
   10.5710  -19.2109   25.7535 N   0  0  0  0  0  0  0  0  0  0  0  0
   12.6999  -19.6143   26.6833 C   0  0  0  0  0  0  0  0  0  0  0  0
   13.1702  -19.8377   25.5420 O   0  0  0  0  0  0  0  0  0  0  0  0
   13.6282  -19.3678   27.6986 O   0  0  0  0  0  0  0  0  0  0  0  0
  2  1  1  1
  3  2  1  0
  4  2  1  0
  4  5  1  0
  5  7  1  0
  5  6  1  6
  7  8  2  0
  9 10  1  0
 11 10  1  6
 11 13  1  0
 12 11  1  0
 12  7  1  0
 13 14  2  0
 13 17  1  0
 16 15  1  6
 16 18  1  0
 17 16  1  0
 18 19  2  0
 18 20  1  0
M  END
$$$$
