LSA.pdb
     RDKit          3D

 20 19  0  0  1  0  0  0  0  0999 V2000
    7.6788  -12.2221   19.1985 C   0  0  0  0  0  0  0  0  0  0  0  0
    8.4414  -13.5614   19.3775 C   0  0  1  0  0  0  0  0  0  0  0  0
    9.9136  -13.1982   19.3970 C   0  0  0  0  0  0  0  0  0  0  0  0
    7.9141  -14.1440   20.6274 C   0  0  0  0  0  0  0  0  0  0  0  0
    8.4747  -15.4359   21.0726 C   0  0  2  0  0  0  0  0  0  0  0  0
    7.8968  -16.5271   20.2372 N   0  0  0  0  0  0  0  0  0  0  0  0
    8.1997  -15.7982   22.4666 C   0  0  0  0  0  0  0  0  0  0  0  0
    7.0661  -15.7905   23.0077 O   0  0  0  0  0  0  0  0  0  0  0  0
   10.5917  -18.3808   24.5701 O   0  0  0  0  0  0  0  0  0  0  0  0
    9.3159  -18.0136   24.9141 C   0  0  0  0  0  0  0  0  0  0  0  0
    9.0402  -16.5447   24.6786 C   0  0  2  0  0  0  0  0  0  0  0  0
    9.2789  -16.1982   23.3113 N   0  0  0  0  0  0  0  0  0  0  0  0
    9.8790  -15.6870   25.5649 C   0  0  0  0  0  0  0  0  0  0  0  0
   11.0937  -15.5077   25.3008 O   0  0  0  0  0  0  0  0  0  0  0  0
    9.2602  -13.2496   28.2290 C   0  0  0  0  0  0  0  0  0  0  0  0
   10.1153  -14.3485   27.6196 C   0  0  2  0  0  0  0  0  0  0  0  0
    9.2822  -15.0878   26.6955 N   0  0  0  0  0  0  0  0  0  0  0  0
   10.5073  -15.3000   28.6989 C   0  0  0  0  0  0  0  0  0  0  0  0
   10.0233  -16.4522   28.8080 O   0  0  0  0  0  0  0  0  0  0  0  0
   11.4563  -14.9333   29.6572 O   0  0  0  0  0  0  0  0  0  0  0  0
  2  1  1  1
  3  2  1  0
  4  2  1  0
  4  5  1  0
  5  7  1  0
  5  6  1  6
  7  8  2  0
  9 10  1  0
 11 10  1  6
 11 13  1  0
 12 11  1  0
 12  7  1  0
 13 14  2  0
 13 17  1  0
 16 15  1  1
 16 18  1  0
 17 16  1  0
 18 19  2  0
 18 20  1  0
M  END
$$$$
