LSA.pdb
     RDKit          3D

 20 19  0  0  1  0  0  0  0  0999 V2000
    6.4665  -11.8322   26.9582 C   0  0  0  0  0  0  0  0  0  0  0  0
    6.2909  -12.7508   25.7203 C   0  0  1  0  0  0  0  0  0  0  0  0
    6.9588  -12.0240   24.5692 C   0  0  0  0  0  0  0  0  0  0  0  0
    6.9064  -14.0375   26.1019 C   0  0  0  0  0  0  0  0  0  0  0  0
    6.9208  -15.1171   25.0940 C   0  0  2  0  0  0  0  0  0  0  0  0
    5.5534  -15.7025   24.9933 N   0  0  0  0  0  0  0  0  0  0  0  0
    7.8250  -16.2359   25.3782 C   0  0  0  0  0  0  0  0  0  0  0  0
    7.6288  -17.1252   26.2434 O   0  0  0  0  0  0  0  0  0  0  0  0
   11.6286  -16.5199   23.4908 O   0  0  0  0  0  0  0  0  0  0  0  0
   10.8400  -17.6328   23.6340 C   0  0  0  0  0  0  0  0  0  0  0  0
    9.8631  -17.5205   24.7838 C   0  0  2  0  0  0  0  0  0  0  0  0
    9.0369  -16.3621   24.6342 N   0  0  0  0  0  0  0  0  0  0  0  0
   10.5729  -17.4617   26.0943 C   0  0  0  0  0  0  0  0  0  0  0  0
   11.1693  -16.4120   26.4405 O   0  0  0  0  0  0  0  0  0  0  0  0
   10.7374  -19.6208   29.0863 C   0  0  0  0  0  0  0  0  0  0  0  0
   11.3388  -18.5886   28.1468 C   0  0  2  0  0  0  0  0  0  0  0  0
   10.5590  -18.6014   26.9277 N   0  0  0  0  0  0  0  0  0  0  0  0
   12.7165  -19.0254   27.7791 C   0  0  0  0  0  0  0  0  0  0  0  0
   13.6868  -18.9780   28.5727 O   0  0  0  0  0  0  0  0  0  0  0  0
   12.9861  -19.5182   26.4994 O   0  0  0  0  0  0  0  0  0  0  0  0
  2  1  1  1
  3  2  1  0
  4  2  1  0
  4  5  1  0
  5  7  1  0
  5  6  1  1
  7  8  2  0
  9 10  1  0
 11 10  1  6
 11 13  1  0
 12 11  1  0
 12  7  1  0
 13 14  2  0
 13 17  1  0
 16 15  1  1
 16 18  1  0
 17 16  1  0
 18 19  2  0
 18 20  1  0
M  END
$$$$
