LSA.pdb
     RDKit          3D

 20 19  0  0  1  0  0  0  0  0999 V2000
    7.4364  -12.2814   18.9471 C   0  0  0  0  0  0  0  0  0  0  0  0
    8.1272  -13.6052   19.3685 C   0  0  1  0  0  0  0  0  0  0  0  0
    9.6101  -13.2948   19.4311 C   0  0  0  0  0  0  0  0  0  0  0  0
    7.5012  -13.9775   20.6528 C   0  0  0  0  0  0  0  0  0  0  0  0
    8.0381  -15.1568   21.3616 C   0  0  2  0  0  0  0  0  0  0  0  0
    7.5381  -16.3918   20.6928 N   0  0  0  0  0  0  0  0  0  0  0  0
    7.6585  -15.2735   22.7732 C   0  0  0  0  0  0  0  0  0  0  0  0
    6.7471  -14.6171   23.3357 O   0  0  0  0  0  0  0  0  0  0  0  0
    8.8504  -18.5695   25.1440 O   0  0  0  0  0  0  0  0  0  0  0  0
    7.7622  -17.7631   25.3597 C   0  0  0  0  0  0  0  0  0  0  0  0
    8.0172  -16.3169   24.9957 C   0  0  2  0  0  0  0  0  0  0  0  0
    8.3553  -16.1959   23.6109 N   0  0  0  0  0  0  0  0  0  0  0  0
    9.1077  -15.7326   25.8289 C   0  0  0  0  0  0  0  0  0  0  0  0
   10.3053  -15.8464   25.4678 O   0  0  0  0  0  0  0  0  0  0  0  0
    9.2526  -13.3035   28.5769 C   0  0  0  0  0  0  0  0  0  0  0  0
    9.8227  -14.5055   27.8419 C   0  0  2  0  0  0  0  0  0  0  0  0
    8.7662  -15.0558   27.0200 N   0  0  0  0  0  0  0  0  0  0  0  0
   10.1757  -15.5522   28.8438 C   0  0  0  0  0  0  0  0  0  0  0  0
    9.5363  -16.6238   28.9719 O   0  0  0  0  0  0  0  0  0  0  0  0
   11.2638  -15.3735   29.7026 O   0  0  0  0  0  0  0  0  0  0  0  0
  2  1  1  1
  3  2  1  0
  4  2  1  0
  4  5  1  0
  5  7  1  0
  5  6  1  6
  7  8  2  0
  9 10  1  0
 11 10  1  1
 11 13  1  0
 12 11  1  0
 12  7  1  0
 13 14  2  0
 13 17  1  0
 16 15  1  1
 16 18  1  0
 17 16  1  0
 18 19  2  0
 18 20  1  0
M  END
$$$$
