LSA.pdb
     RDKit          3D

 20 19  0  0  1  0  0  0  0  0999 V2000
    6.9814  -12.8852   18.7422 C   0  0  0  0  0  0  0  0  0  0  0  0
    8.0993  -13.7659   19.3601 C   0  0  1  0  0  0  0  0  0  0  0  0
    9.3845  -12.9788   19.1923 C   0  0  0  0  0  0  0  0  0  0  0  0
    7.6783  -14.0051   20.7549 C   0  0  0  0  0  0  0  0  0  0  0  0
    8.5670  -14.8172   21.6105 C   0  0  2  0  0  0  0  0  0  0  0  0
    8.5699  -16.2212   21.1092 N   0  0  0  0  0  0  0  0  0  0  0  0
    8.1905  -14.8888   23.0258 C   0  0  0  0  0  0  0  0  0  0  0  0
    7.8717  -13.9073   23.7420 O   0  0  0  0  0  0  0  0  0  0  0  0
    8.3945  -18.5936   25.2321 O   0  0  0  0  0  0  0  0  0  0  0  0
    7.4293  -17.6426   25.4442 C   0  0  0  0  0  0  0  0  0  0  0  0
    7.8852  -16.2467   25.0801 C   0  0  2  0  0  0  0  0  0  0  0  0
    8.1715  -16.1570   23.6813 N   0  0  0  0  0  0  0  0  0  0  0  0
    9.0909  -15.8489   25.8630 C   0  0  0  0  0  0  0  0  0  0  0  0
   10.2395  -16.0782   25.4097 O   0  0  0  0  0  0  0  0  0  0  0  0
    9.7095  -13.6022   28.6914 C   0  0  0  0  0  0  0  0  0  0  0  0
   10.0800  -14.8302   27.8763 C   0  0  2  0  0  0  0  0  0  0  0  0
    8.9128  -15.2153   27.1122 N   0  0  0  0  0  0  0  0  0  0  0  0
   10.3688  -15.9539   28.8133 C   0  0  0  0  0  0  0  0  0  0  0  0
    9.6209  -16.9531   28.9387 O   0  0  0  0  0  0  0  0  0  0  0  0
   11.5169  -15.9354   29.6101 O   0  0  0  0  0  0  0  0  0  0  0  0
  2  1  1  6
  3  2  1  0
  4  2  1  0
  4  5  1  0
  5  7  1  0
  5  6  1  6
  7  8  2  0
  9 10  1  0
 11 10  1  1
 11 13  1  0
 12 11  1  0
 12  7  1  0
 13 14  2  0
 13 17  1  0
 16 15  1  1
 16 18  1  0
 17 16  1  0
 18 19  2  0
 18 20  1  0
M  END
$$$$
