HIA.pdb
     RDKit          3D

 24 24  0  0  1  0  0  0  0  0999 V2000
   10.0255  -14.6540   20.7013 N   0  0  0  0  0  0  0  0  0  0  0  0
    8.8659  -14.3509   21.4871 C   0  0  1  0  0  0  0  0  0  0  0  0
    7.6073  -14.9596   20.9612 C   0  0  0  0  0  0  0  0  0  0  0  0
    7.4031  -14.5688   19.5571 C   0  0  0  0  0  0  0  0  0  0  0  0
    7.3762  -13.2729   19.0332 C   0  0  0  0  0  0  0  0  0  0  0  0
    7.1651  -13.3504   17.7132 N   0  0  0  0  0  0  0  0  0  0  0  0
    7.0608  -14.6499   17.4038 C   0  0  0  0  0  0  0  0  0  0  0  0
    7.2037  -15.3979   18.5157 N   0  0  0  0  0  0  0  0  0  0  0  0
    9.0657  -14.7048   22.9299 C   0  0  0  0  0  0  0  0  0  0  0  0
   10.1599  -15.1636   23.3453 O   0  0  0  0  0  0  0  0  0  0  0  0
    5.9002  -11.5894   26.2249 C   0  0  0  0  0  0  0  0  0  0  0  0
    7.0933  -12.2045   25.5122 C   0  0  0  0  0  0  0  0  0  0  0  0
    7.2224  -13.6161   25.9970 C   0  0  2  0  0  0  0  0  0  0  0  0
    7.5685  -13.5644   27.4727 C   0  0  0  0  0  0  0  0  0  0  0  0
    8.3141  -14.3871   25.3071 C   0  0  2  0  0  0  0  0  0  0  0  0
    8.0357  -14.5420   23.9006 N   0  0  0  0  0  0  0  0  0  0  0  0
    8.5878  -15.6941   25.9083 C   0  0  0  0  0  0  0  0  0  0  0  0
    9.0041  -15.7704   27.1136 O   0  0  0  0  0  0  0  0  0  0  0  0
    9.4489  -19.0483   24.8177 C   0  0  0  0  0  0  0  0  0  0  0  0
    8.7017  -18.2200   25.8428 C   0  0  2  0  0  0  0  0  0  0  0  0
    8.4245  -16.9351   25.2420 N   0  0  0  0  0  0  0  0  0  0  0  0
    9.5400  -18.1054   27.0572 C   0  0  0  0  0  0  0  0  0  0  0  0
    9.1696  -18.7465   28.0722 O   0  0  0  0  0  0  0  0  0  0  0  0
   10.6866  -17.3459   27.1346 O   0  0  0  0  0  0  0  0  0  0  0  0
  2  1  1  6
  3  2  1  0
  4  3  1  0
  5  4  2  0
  6  5  1  0
  7  6  1  0
  7  8  2  0
  8  4  1  0
  9 10  2  0
  9  2  1  0
 11 12  1  0
 12 13  1  0
 13 15  1  0
 13 14  1  1
 15 16  1  6
 16  9  1  0
 17 15  1  0
 18 17  2  0
 20 19  1  6
 20 21  1  0
 21 17  1  0
 22 20  1  0
 23 22  2  0
 24 22  1  0
M  END
$$$$
