HIA.pdb
     RDKit          3D

 24 24  0  0  1  0  0  0  0  0999 V2000
    9.4539  -15.5062   20.7534 N   0  0  0  0  0  0  0  0  0  0  0  0
    8.4692  -15.8542   21.7347 C   0  0  1  0  0  0  0  0  0  0  0  0
    8.0396  -17.2836   21.6750 C   0  0  0  0  0  0  0  0  0  0  0  0
    7.3485  -17.5528   20.4039 C   0  0  0  0  0  0  0  0  0  0  0  0
    7.1754  -16.6740   19.3304 C   0  0  0  0  0  0  0  0  0  0  0  0
    6.4929  -17.3060   18.3672 N   0  0  0  0  0  0  0  0  0  0  0  0
    6.2386  -18.5451   18.8089 C   0  0  0  0  0  0  0  0  0  0  0  0
    6.7535  -18.7053   20.0440 N   0  0  0  0  0  0  0  0  0  0  0  0
    8.9127  -15.4892   23.1192 C   0  0  0  0  0  0  0  0  0  0  0  0
   10.1025  -15.6546   23.4897 O   0  0  0  0  0  0  0  0  0  0  0  0
    6.1302  -11.6870   25.9786 C   0  0  0  0  0  0  0  0  0  0  0  0
    7.2970  -12.4309   25.3503 C   0  0  0  0  0  0  0  0  0  0  0  0
    7.4684  -13.7118   26.1080 C   0  0  2  0  0  0  0  0  0  0  0  0
    8.0535  -13.3676   27.4643 C   0  0  0  0  0  0  0  0  0  0  0  0
    8.4123  -14.6767   25.4444 C   0  0  2  0  0  0  0  0  0  0  0  0
    8.0181  -14.9398   24.0824 N   0  0  0  0  0  0  0  0  0  0  0  0
    8.5764  -15.9388   26.1689 C   0  0  0  0  0  0  0  0  0  0  0  0
    7.6008  -16.7589   26.2561 O   0  0  0  0  0  0  0  0  0  0  0  0
   10.6847  -18.5498   26.6809 C   0  0  0  0  0  0  0  0  0  0  0  0
    9.9147  -17.5792   27.5528 C   0  0  2  0  0  0  0  0  0  0  0  0
    9.7735  -16.3480   26.8092 N   0  0  0  0  0  0  0  0  0  0  0  0
   10.6583  -17.3912   28.8186 C   0  0  0  0  0  0  0  0  0  0  0  0
   10.7694  -18.3903   29.5721 O   0  0  0  0  0  0  0  0  0  0  0  0
   11.2266  -16.1991   29.2099 O   0  0  0  0  0  0  0  0  0  0  0  0
  2  1  1  6
  3  2  1  0
  4  3  1  0
  5  4  2  0
  6  5  1  0
  7  6  1  0
  7  8  2  0
  8  4  1  0
  9 10  2  0
  9  2  1  0
 11 12  1  0
 12 13  1  0
 13 15  1  0
 13 14  1  1
 15 16  1  6
 16  9  1  0
 17 15  1  0
 18 17  2  0
 20 19  1  6
 20 21  1  0
 21 17  1  0
 22 20  1  0
 23 22  2  0
 24 22  1  0
M  END
$$$$
