HIA.pdb
     RDKit          3D

 24 24  0  0  1  0  0  0  0  0999 V2000
    9.8084  -18.0675   16.7574 N   0  0  0  0  0  0  0  0  0  0  0  0
    8.8957  -18.0807   17.8622 C   0  0  1  0  0  0  0  0  0  0  0  0
    8.5456  -19.4532   18.3365 C   0  0  0  0  0  0  0  0  0  0  0  0
    7.7993  -20.1753   17.2938 C   0  0  0  0  0  0  0  0  0  0  0  0
    8.2769  -21.1885   16.4573 C   0  0  0  0  0  0  0  0  0  0  0  0
    7.2827  -21.5797   15.6500 N   0  0  0  0  0  0  0  0  0  0  0  0
    6.2074  -20.8428   15.9593 C   0  0  0  0  0  0  0  0  0  0  0  0
    6.5100  -19.9873   16.9557 N   0  0  0  0  0  0  0  0  0  0  0  0
    9.3870  -17.2345   18.9976 C   0  0  0  0  0  0  0  0  0  0  0  0
   10.6019  -17.2137   19.3198 O   0  0  0  0  0  0  0  0  0  0  0  0
    6.9649  -12.4143   20.0614 C   0  0  0  0  0  0  0  0  0  0  0  0
    8.0700  -13.4306   19.8253 C   0  0  0  0  0  0  0  0  0  0  0  0
    8.0750  -14.3633   20.9976 C   0  0  2  0  0  0  0  0  0  0  0  0
    8.5770  -13.5865   22.1996 C   0  0  0  0  0  0  0  0  0  0  0  0
    8.9862  -15.5462   20.8159 C   0  0  2  0  0  0  0  0  0  0  0  0
    8.5118  -16.4147   19.7669 N   0  0  0  0  0  0  0  0  0  0  0  0
    9.2072  -16.3181   22.0407 C   0  0  0  0  0  0  0  0  0  0  0  0
    8.2435  -16.9670   22.5716 O   0  0  0  0  0  0  0  0  0  0  0  0
   12.1431  -17.5597   23.9467 C   0  0  0  0  0  0  0  0  0  0  0  0
   10.6689  -17.2137   23.9004 C   0  0  2  0  0  0  0  0  0  0  0  0
   10.4495  -16.4124   22.7177 N   0  0  0  0  0  0  0  0  0  0  0  0
   10.3151  -16.4925   25.1436 C   0  0  0  0  0  0  0  0  0  0  0  0
   10.1498  -15.2500   25.0582 O   0  0  0  0  0  0  0  0  0  0  0  0
   10.1596  -17.0994   26.3702 O   0  0  0  0  0  0  0  0  0  0  0  0
  2  1  1  6
  3  2  1  0
  4  3  1  0
  5  4  2  0
  6  5  1  0
  7  6  1  0
  7  8  2  0
  8  4  1  0
  9 10  2  0
  9  2  1  0
 11 12  1  0
 12 13  1  0
 13 15  1  0
 13 14  1  1
 15 16  1  6
 16  9  1  0
 17 15  1  0
 18 17  2  0
 20 19  1  1
 20 21  1  0
 21 17  1  0
 22 20  1  0
 23 22  2  0
 24 22  1  0
M  END
$$$$
