HIA.pdb
     RDKit          3D

 24 24  0  0  1  0  0  0  0  0999 V2000
    7.2149  -13.5808   20.9489 N   0  0  0  0  0  0  0  0  0  0  0  0
    7.9137  -14.7754   21.3209 C   0  0  1  0  0  0  0  0  0  0  0  0
    8.9483  -15.1999   20.3307 C   0  0  0  0  0  0  0  0  0  0  0  0
    8.5445  -14.8015   18.9728 C   0  0  0  0  0  0  0  0  0  0  0  0
    7.7456  -13.7126   18.6112 C   0  0  0  0  0  0  0  0  0  0  0  0
    7.6167  -13.7017   17.2784 N   0  0  0  0  0  0  0  0  0  0  0  0
    8.3087  -14.7465   16.8044 C   0  0  0  0  0  0  0  0  0  0  0  0
    8.8756  -15.4206   17.8244 N   0  0  0  0  0  0  0  0  0  0  0  0
    8.5041  -14.6677   22.6944 C   0  0  0  0  0  0  0  0  0  0  0  0
    9.7320  -14.4585   22.8639 O   0  0  0  0  0  0  0  0  0  0  0  0
    6.0243  -11.7084   26.1694 C   0  0  0  0  0  0  0  0  0  0  0  0
    7.1474  -12.3771   25.3939 C   0  0  0  0  0  0  0  0  0  0  0  0
    7.3911  -13.7131   26.0263 C   0  0  2  0  0  0  0  0  0  0  0  0
    8.1127  -13.4746   27.3387 C   0  0  0  0  0  0  0  0  0  0  0  0
    8.2591  -14.6178   25.1953 C   0  0  2  0  0  0  0  0  0  0  0  0
    7.7130  -14.7953   23.8725 N   0  0  0  0  0  0  0  0  0  0  0  0
    8.5138  -15.9229   25.8090 C   0  0  0  0  0  0  0  0  0  0  0  0
    7.5404  -16.7049   26.0788 O   0  0  0  0  0  0  0  0  0  0  0  0
   11.3697  -18.2073   26.2946 C   0  0  0  0  0  0  0  0  0  0  0  0
   10.0379  -17.6851   26.7935 C   0  0  2  0  0  0  0  0  0  0  0  0
    9.8004  -16.4158   26.1444 N   0  0  0  0  0  0  0  0  0  0  0  0
   10.1026  -17.5613   28.2670 C   0  0  0  0  0  0  0  0  0  0  0  0
   10.2583  -16.4075   28.7391 O   0  0  0  0  0  0  0  0  0  0  0  0
   10.0030  -18.6254   29.1359 O   0  0  0  0  0  0  0  0  0  0  0  0
  2  1  1  6
  3  2  1  0
  4  3  1  0
  5  4  2  0
  6  5  1  0
  7  6  1  0
  7  8  2  0
  8  4  1  0
  9 10  2  0
  9  2  1  0
 11 12  1  0
 12 13  1  0
 13 15  1  0
 13 14  1  1
 15 16  1  6
 16  9  1  0
 17 15  1  0
 18 17  2  0
 20 19  1  6
 20 21  1  0
 21 17  1  0
 22 20  1  0
 23 22  2  0
 24 22  1  0
M  END
$$$$
