HIA.pdb
     RDKit          3D

 24 24  0  0  1  0  0  0  0  0999 V2000
    8.9698  -15.3526   20.3408 N   0  0  0  0  0  0  0  0  0  0  0  0
    8.0717  -15.7013   21.4017 C   0  0  1  0  0  0  0  0  0  0  0  0
    7.7093  -17.1501   21.4310 C   0  0  0  0  0  0  0  0  0  0  0  0
    7.0377  -17.5304   20.1780 C   0  0  0  0  0  0  0  0  0  0  0  0
    6.8228  -16.7274   19.0538 C   0  0  0  0  0  0  0  0  0  0  0  0
    6.1776  -17.4506   18.1297 N   0  0  0  0  0  0  0  0  0  0  0  0
    5.9867  -18.6727   18.6446 C   0  0  0  0  0  0  0  0  0  0  0  0
    6.5049  -18.7319   19.8873 N   0  0  0  0  0  0  0  0  0  0  0  0
    8.5892  -15.2551   22.7357 C   0  0  0  0  0  0  0  0  0  0  0  0
    9.8223  -15.2023   22.9745 O   0  0  0  0  0  0  0  0  0  0  0  0
    5.7625  -11.7176   25.7979 C   0  0  0  0  0  0  0  0  0  0  0  0
    6.9274  -12.3875   25.0879 C   0  0  0  0  0  0  0  0  0  0  0  0
    7.2462  -13.6423   25.8417 C   0  0  2  0  0  0  0  0  0  0  0  0
    7.9060  -13.2386   27.1462 C   0  0  0  0  0  0  0  0  0  0  0  0
    8.2035  -14.5478   25.1165 C   0  0  2  0  0  0  0  0  0  0  0  0
    7.7198  -14.8698   23.7966 N   0  0  0  0  0  0  0  0  0  0  0  0
    8.5231  -15.7777   25.8444 C   0  0  0  0  0  0  0  0  0  0  0  0
    7.5888  -16.5733   26.1994 O   0  0  0  0  0  0  0  0  0  0  0  0
   11.3998  -17.9794   26.2828 C   0  0  0  0  0  0  0  0  0  0  0  0
   10.1413  -17.4079   26.9032 C   0  0  2  0  0  0  0  0  0  0  0  0
    9.8340  -16.1802   26.2052 N   0  0  0  0  0  0  0  0  0  0  0  0
   10.3850  -17.1898   28.3467 C   0  0  0  0  0  0  0  0  0  0  0  0
   10.6052  -18.2067   29.0510 O   0  0  0  0  0  0  0  0  0  0  0  0
   10.3836  -15.9522   28.9512 O   0  0  0  0  0  0  0  0  0  0  0  0
  2  1  1  6
  3  2  1  0
  4  3  1  0
  5  4  2  0
  6  5  1  0
  7  6  1  0
  7  8  2  0
  8  4  1  0
  9 10  2  0
  9  2  1  0
 11 12  1  0
 12 13  1  0
 13 15  1  0
 13 14  1  1
 15 16  1  6
 16  9  1  0
 17 15  1  0
 18 17  2  0
 20 19  1  6
 20 21  1  0
 21 17  1  0
 22 20  1  0
 23 22  2  0
 24 22  1  0
M  END
$$$$
