HIA.pdb
     RDKit          3D

 24 24  0  0  1  0  0  0  0  0999 V2000
    8.8477  -15.5585   20.7752 N   0  0  0  0  0  0  0  0  0  0  0  0
    8.1603  -16.0578   21.9294 C   0  0  1  0  0  0  0  0  0  0  0  0
    8.0640  -17.5478   21.9741 C   0  0  0  0  0  0  0  0  0  0  0  0
    7.2920  -18.0410   20.8223 C   0  0  0  0  0  0  0  0  0  0  0  0
    6.4530  -17.3003   19.9844 C   0  0  0  0  0  0  0  0  0  0  0  0
    5.9404  -18.1217   19.0594 N   0  0  0  0  0  0  0  0  0  0  0  0
    6.4340  -19.3443   19.2973 C   0  0  0  0  0  0  0  0  0  0  0  0
    7.2555  -19.3064   20.3650 N   0  0  0  0  0  0  0  0  0  0  0  0
    8.7499  -15.5243   23.2000 C   0  0  0  0  0  0  0  0  0  0  0  0
    9.9927  -15.5088   23.3884 O   0  0  0  0  0  0  0  0  0  0  0  0
    6.0442  -11.7332   25.9768 C   0  0  0  0  0  0  0  0  0  0  0  0
    7.2142  -12.4413   25.3138 C   0  0  0  0  0  0  0  0  0  0  0  0
    7.5990  -13.5884   26.1972 C   0  0  2  0  0  0  0  0  0  0  0  0
    8.3677  -13.0220   27.3756 C   0  0  0  0  0  0  0  0  0  0  0  0
    8.4922  -14.5909   25.5193 C   0  0  2  0  0  0  0  0  0  0  0  0
    7.9412  -15.0102   24.2543 N   0  0  0  0  0  0  0  0  0  0  0  0
    8.8001  -15.7626   26.3422 C   0  0  0  0  0  0  0  0  0  0  0  0
    7.8644  -16.5503   26.7109 O   0  0  0  0  0  0  0  0  0  0  0  0
   11.4850  -18.0485   26.9795 C   0  0  0  0  0  0  0  0  0  0  0  0
   10.3871  -17.2419   27.6423 C   0  0  2  0  0  0  0  0  0  0  0  0
   10.1005  -16.1145   26.7845 N   0  0  0  0  0  0  0  0  0  0  0  0
   10.8532  -16.8252   28.9839 C   0  0  0  0  0  0  0  0  0  0  0  0
   11.0304  -17.7310   29.8362 O   0  0  0  0  0  0  0  0  0  0  0  0
   11.0997  -15.5186   29.3438 O   0  0  0  0  0  0  0  0  0  0  0  0
  2  1  1  6
  3  2  1  0
  4  3  1  0
  5  4  2  0
  6  5  1  0
  7  6  1  0
  7  8  2  0
  8  4  1  0
  9 10  2  0
  9  2  1  0
 11 12  1  0
 12 13  1  0
 13 15  1  0
 13 14  1  1
 15 16  1  6
 16  9  1  0
 17 15  1  0
 18 17  2  0
 20 19  1  6
 20 21  1  0
 21 17  1  0
 22 20  1  0
 23 22  2  0
 24 22  1  0
M  END
$$$$
