HIA.pdb
     RDKit          3D

 24 24  0  0  1  0  0  0  0  0999 V2000
    9.0642  -15.4518   20.4998 N   0  0  0  0  0  0  0  0  0  0  0  0
    8.1737  -15.7621   21.5790 C   0  0  1  0  0  0  0  0  0  0  0  0
    7.7470  -17.1932   21.6139 C   0  0  0  0  0  0  0  0  0  0  0  0
    7.0144  -17.5343   20.3840 C   0  0  0  0  0  0  0  0  0  0  0  0
    6.8043  -16.7181   19.2685 C   0  0  0  0  0  0  0  0  0  0  0  0
    6.0911  -17.4037   18.3661 N   0  0  0  0  0  0  0  0  0  0  0  0
    5.8534  -18.6154   18.8861 C   0  0  0  0  0  0  0  0  0  0  0  0
    6.4094  -18.7052   20.1105 N   0  0  0  0  0  0  0  0  0  0  0  0
    8.7388  -15.3428   22.9024 C   0  0  0  0  0  0  0  0  0  0  0  0
    9.9770  -15.3569   23.1188 O   0  0  0  0  0  0  0  0  0  0  0  0
    5.9861  -11.8632   26.1002 C   0  0  0  0  0  0  0  0  0  0  0  0
    7.1688  -12.4838   25.3751 C   0  0  0  0  0  0  0  0  0  0  0  0
    7.5046  -13.7610   26.0825 C   0  0  2  0  0  0  0  0  0  0  0  0
    8.2133  -13.3978   27.3732 C   0  0  0  0  0  0  0  0  0  0  0  0
    8.4285  -14.6526   25.2991 C   0  0  2  0  0  0  0  0  0  0  0  0
    7.9109  -14.9094   23.9778 N   0  0  0  0  0  0  0  0  0  0  0  0
    8.7395  -15.9179   25.9676 C   0  0  0  0  0  0  0  0  0  0  0  0
    7.7979  -16.7125   26.3051 O   0  0  0  0  0  0  0  0  0  0  0  0
   11.6421  -18.1329   26.3595 C   0  0  0  0  0  0  0  0  0  0  0  0
   10.3460  -17.6099   26.9442 C   0  0  2  0  0  0  0  0  0  0  0  0
   10.0492  -16.3574   26.2868 N   0  0  0  0  0  0  0  0  0  0  0  0
   10.5183  -17.4524   28.4058 C   0  0  0  0  0  0  0  0  0  0  0  0
   10.5366  -16.2803   28.8579 O   0  0  0  0  0  0  0  0  0  0  0  0
   10.6577  -18.5042   29.2842 O   0  0  0  0  0  0  0  0  0  0  0  0
  2  1  1  6
  3  2  1  0
  4  3  1  0
  5  4  2  0
  6  5  1  0
  7  6  1  0
  7  8  2  0
  8  4  1  0
  9 10  2  0
  9  2  1  0
 11 12  1  0
 12 13  1  0
 13 15  1  0
 13 14  1  1
 15 16  1  6
 16  9  1  0
 17 15  1  0
 18 17  2  0
 20 19  1  6
 20 21  1  0
 21 17  1  0
 22 20  1  0
 23 22  2  0
 24 22  1  0
M  END
$$$$
