HIA.pdb
     RDKit          3D

 24 24  0  0  1  0  0  0  0  0999 V2000
    9.3962  -18.5888   16.6551 N   0  0  0  0  0  0  0  0  0  0  0  0
    8.6801  -18.4792   17.8916 C   0  0  1  0  0  0  0  0  0  0  0  0
    8.5809  -19.7652   18.6451 C   0  0  0  0  0  0  0  0  0  0  0  0
    7.8256  -20.7555   17.8610 C   0  0  0  0  0  0  0  0  0  0  0  0
    6.4365  -20.8691   17.7517 C   0  0  0  0  0  0  0  0  0  0  0  0
    6.1548  -21.8991   16.9437 N   0  0  0  0  0  0  0  0  0  0  0  0
    7.3223  -22.4255   16.5502 C   0  0  0  0  0  0  0  0  0  0  0  0
    8.3427  -21.7389   17.1012 N   0  0  0  0  0  0  0  0  0  0  0  0
    9.2390  -17.3943   18.7619 C   0  0  0  0  0  0  0  0  0  0  0  0
   10.4782  -17.2067   18.8585 O   0  0  0  0  0  0  0  0  0  0  0  0
    7.5803  -11.8254   20.4328 C   0  0  0  0  0  0  0  0  0  0  0  0
    8.5829  -12.9392   20.6857 C   0  0  0  0  0  0  0  0  0  0  0  0
    8.0184  -14.1909   20.0866 C   0  0  2  0  0  0  0  0  0  0  0  0
    6.7261  -14.5057   20.8151 C   0  0  0  0  0  0  0  0  0  0  0  0
    8.9206  -15.3849   20.2377 C   0  0  2  0  0  0  0  0  0  0  0  0
    8.4038  -16.5243   19.5203 N   0  0  0  0  0  0  0  0  0  0  0  0
    9.1900  -15.7522   21.6295 C   0  0  0  0  0  0  0  0  0  0  0  0
    8.5257  -16.6917   22.1844 O   0  0  0  0  0  0  0  0  0  0  0  0
    9.1413  -15.6859   24.5333 C   0  0  0  0  0  0  0  0  0  0  0  0
   10.4615  -15.5362   23.8053 C   0  0  2  0  0  0  0  0  0  0  0  0
   10.1648  -15.1303   22.4503 N   0  0  0  0  0  0  0  0  0  0  0  0
   11.1798  -16.8291   23.8620 C   0  0  0  0  0  0  0  0  0  0  0  0
   11.5382  -17.2367   24.9951 O   0  0  0  0  0  0  0  0  0  0  0  0
   11.4724  -17.5984   22.7575 O   0  0  0  0  0  0  0  0  0  0  0  0
  2  1  1  6
  3  2  1  0
  4  3  1  0
  5  4  2  0
  6  5  1  0
  7  6  1  0
  7  8  2  0
  8  4  1  0
  9 10  2  0
  9  2  1  0
 11 12  1  0
 12 13  1  0
 13 15  1  0
 13 14  1  1
 15 16  1  6
 16  9  1  0
 17 15  1  0
 18 17  2  0
 20 19  1  1
 20 21  1  0
 21 17  1  0
 22 20  1  0
 23 22  2  0
 24 22  1  0
M  END
$$$$
