HIA.pdb
     RDKit          3D

 24 24  0  0  1  0  0  0  0  0999 V2000
   11.1505  -17.4330   16.6813 N   0  0  0  0  0  0  0  0  0  0  0  0
   10.0414  -17.5747   17.5779 C   0  0  1  0  0  0  0  0  0  0  0  0
    9.7319  -18.9924   17.9321 C   0  0  0  0  0  0  0  0  0  0  0  0
    9.1404  -19.6864   16.7770 C   0  0  0  0  0  0  0  0  0  0  0  0
    8.8720  -19.1517   15.5133 C   0  0  0  0  0  0  0  0  0  0  0  0
    8.3344  -20.1111   14.7493 N   0  0  0  0  0  0  0  0  0  0  0  0
    8.2616  -21.2200   15.4978 C   0  0  0  0  0  0  0  0  0  0  0  0
    8.7481  -20.9731   16.7301 N   0  0  0  0  0  0  0  0  0  0  0  0
   10.2169  -16.7438   18.8129 C   0  0  0  0  0  0  0  0  0  0  0  0
   11.3461  -16.5920   19.3441 O   0  0  0  0  0  0  0  0  0  0  0  0
    6.9936  -12.3839   19.8209 C   0  0  0  0  0  0  0  0  0  0  0  0
    8.2184  -13.2678   19.6532 C   0  0  0  0  0  0  0  0  0  0  0  0
    8.2039  -14.2655   20.7707 C   0  0  2  0  0  0  0  0  0  0  0  0
    8.4476  -13.5103   22.0631 C   0  0  0  0  0  0  0  0  0  0  0  0
    9.2793  -15.3105   20.6524 C   0  0  2  0  0  0  0  0  0  0  0  0
    9.1234  -16.0864   19.4468 N   0  0  0  0  0  0  0  0  0  0  0  0
    9.3699  -16.2018   21.8109 C   0  0  0  0  0  0  0  0  0  0  0  0
    8.3943  -16.9724   22.1043 O   0  0  0  0  0  0  0  0  0  0  0  0
   12.0549  -17.3854   24.1045 C   0  0  0  0  0  0  0  0  0  0  0  0
   10.5843  -17.1920   23.7963 C   0  0  2  0  0  0  0  0  0  0  0  0
   10.4930  -16.2883   22.6721 N   0  0  0  0  0  0  0  0  0  0  0  0
    9.9162  -16.6582   25.0044 C   0  0  0  0  0  0  0  0  0  0  0  0
    9.8872  -17.3995   26.0183 O   0  0  0  0  0  0  0  0  0  0  0  0
    9.3333  -15.4123   25.0769 O   0  0  0  0  0  0  0  0  0  0  0  0
  2  1  1  1
  3  2  1  0
  4  3  1  0
  5  4  2  0
  6  5  1  0
  7  6  1  0
  7  8  2  0
  8  4  1  0
  9 10  2  0
  9  2  1  0
 11 12  1  0
 12 13  1  0
 13 15  1  0
 13 14  1  1
 15 16  1  6
 16  9  1  0
 17 15  1  0
 18 17  2  0
 20 19  1  1
 20 21  1  0
 21 17  1  0
 22 20  1  0
 23 22  2  0
 24 22  1  0
M  END
$$$$
