HIA.pdb
     RDKit          3D

 24 24  0  0  1  0  0  0  0  0999 V2000
    9.5485  -13.3315   20.4866 N   0  0  0  0  0  0  0  0  0  0  0  0
    8.5105  -14.0445   21.1707 C   0  0  1  0  0  0  0  0  0  0  0  0
    8.1642  -15.3537   20.5404 C   0  0  0  0  0  0  0  0  0  0  0  0
    7.7067  -15.1454   19.1572 C   0  0  0  0  0  0  0  0  0  0  0  0
    7.6645  -13.9397   18.4508 C   0  0  0  0  0  0  0  0  0  0  0  0
    7.1847  -14.1802   17.2240 N   0  0  0  0  0  0  0  0  0  0  0  0
    6.9290  -15.4933   17.1485 C   0  0  0  0  0  0  0  0  0  0  0  0
    7.2423  -16.0884   18.3164 N   0  0  0  0  0  0  0  0  0  0  0  0
    8.8250  -14.2211   22.6256 C   0  0  0  0  0  0  0  0  0  0  0  0
    9.9991  -14.4367   23.0195 O   0  0  0  0  0  0  0  0  0  0  0  0
    5.6954  -11.6639   26.3298 C   0  0  0  0  0  0  0  0  0  0  0  0
    6.8987  -12.1619   25.5464 C   0  0  0  0  0  0  0  0  0  0  0  0
    7.0825  -13.6096   25.8851 C   0  0  2  0  0  0  0  0  0  0  0  0
    7.5536  -13.6877   27.3245 C   0  0  0  0  0  0  0  0  0  0  0  0
    8.1183  -14.2947   25.0365 C   0  0  2  0  0  0  0  0  0  0  0  0
    7.8193  -14.1548   23.6326 N   0  0  0  0  0  0  0  0  0  0  0  0
    8.3147  -15.7080   25.3662 C   0  0  0  0  0  0  0  0  0  0  0  0
    7.3160  -16.5041   25.3939 O   0  0  0  0  0  0  0  0  0  0  0  0
   10.9910  -18.1945   25.4145 C   0  0  0  0  0  0  0  0  0  0  0  0
    9.7405  -17.6681   26.0887 C   0  0  2  0  0  0  0  0  0  0  0  0
    9.5688  -16.2953   25.6705 N   0  0  0  0  0  0  0  0  0  0  0  0
    9.9068  -17.7944   27.5540 C   0  0  0  0  0  0  0  0  0  0  0  0
   10.0001  -18.9564   28.0224 O   0  0  0  0  0  0  0  0  0  0  0  0
    9.9640  -16.7242   28.4192 O   0  0  0  0  0  0  0  0  0  0  0  0
  2  1  1  6
  3  2  1  0
  4  3  1  0
  5  4  2  0
  6  5  1  0
  7  6  1  0
  7  8  2  0
  8  4  1  0
  9 10  2  0
  9  2  1  0
 11 12  1  0
 12 13  1  0
 13 15  1  0
 13 14  1  1
 15 16  1  6
 16  9  1  0
 17 15  1  0
 18 17  2  0
 20 19  1  6
 20 21  1  0
 21 17  1  0
 22 20  1  0
 23 22  2  0
 24 22  1  0
M  END
$$$$
