HIA.pdb
     RDKit          3D

 24 24  0  0  1  0  0  0  0  0999 V2000
    7.1494  -15.4411   21.4166 N   0  0  0  0  0  0  0  0  0  0  0  0
    8.5332  -15.1252   21.6146 C   0  0  1  0  0  0  0  0  0  0  0  0
    9.0385  -14.0460   20.7140 C   0  0  0  0  0  0  0  0  0  0  0  0
    8.6101  -14.2992   19.3290 C   0  0  0  0  0  0  0  0  0  0  0  0
    8.6756  -15.5076   18.6290 C   0  0  0  0  0  0  0  0  0  0  0  0
    8.1857  -15.3147   17.3977 N   0  0  0  0  0  0  0  0  0  0  0  0
    7.8199  -14.0286   17.3133 C   0  0  0  0  0  0  0  0  0  0  0  0
    8.0732  -13.4033   18.4800 N   0  0  0  0  0  0  0  0  0  0  0  0
    8.8290  -14.8036   23.0485 C   0  0  0  0  0  0  0  0  0  0  0  0
    9.9825  -14.4686   23.4190 O   0  0  0  0  0  0  0  0  0  0  0  0
    5.8125  -11.4982   25.7173 C   0  0  0  0  0  0  0  0  0  0  0  0
    6.9644  -12.3086   25.1462 C   0  0  0  0  0  0  0  0  0  0  0  0
    7.0866  -13.5522   25.9724 C   0  0  2  0  0  0  0  0  0  0  0  0
    7.5448  -13.1392   27.3579 C   0  0  0  0  0  0  0  0  0  0  0  0
    8.0990  -14.5275   25.4376 C   0  0  2  0  0  0  0  0  0  0  0  0
    7.8279  -14.8595   24.0606 N   0  0  0  0  0  0  0  0  0  0  0  0
    8.2195  -15.7522   26.2315 C   0  0  0  0  0  0  0  0  0  0  0  0
    8.5545  -15.6873   27.4626 O   0  0  0  0  0  0  0  0  0  0  0  0
    7.2288  -19.3209   25.7963 C   0  0  0  0  0  0  0  0  0  0  0  0
    7.9911  -18.2509   26.5506 C   0  0  2  0  0  0  0  0  0  0  0  0
    7.9872  -17.0591   25.7329 N   0  0  0  0  0  0  0  0  0  0  0  0
    9.3599  -18.7471   26.8172 C   0  0  0  0  0  0  0  0  0  0  0  0
   10.3016  -18.1920   26.1980 O   0  0  0  0  0  0  0  0  0  0  0  0
    9.6534  -19.7685   27.6935 O   0  0  0  0  0  0  0  0  0  0  0  0
  2  1  1  1
  3  2  1  0
  4  3  1  0
  5  4  2  0
  6  5  1  0
  7  6  1  0
  7  8  2  0
  8  4  1  0
  9 10  2  0
  9  2  1  0
 11 12  1  0
 12 13  1  0
 13 15  1  0
 13 14  1  1
 15 16  1  6
 16  9  1  0
 17 15  1  0
 18 17  2  0
 20 19  1  6
 20 21  1  0
 21 17  1  0
 22 20  1  0
 23 22  2  0
 24 22  1  0
M  END
$$$$
