HIA.pdb
     RDKit          3D

 24 24  0  0  1  0  0  0  0  0999 V2000
    8.2008  -17.5806   16.6074 N   0  0  0  0  0  0  0  0  0  0  0  0
    9.5564  -17.1161   16.5864 C   0  0  1  0  0  0  0  0  0  0  0  0
    9.9192  -16.3760   15.3407 C   0  0  0  0  0  0  0  0  0  0  0  0
    9.6500  -17.2100   14.1585 C   0  0  0  0  0  0  0  0  0  0  0  0
   10.5609  -18.0056   13.4572 C   0  0  0  0  0  0  0  0  0  0  0  0
    9.9165  -18.6024   12.4463 N   0  0  0  0  0  0  0  0  0  0  0  0
    8.6388  -18.2026   12.4993 C   0  0  0  0  0  0  0  0  0  0  0  0
    8.4663  -17.3573   13.5347 N   0  0  0  0  0  0  0  0  0  0  0  0
    9.8831  -16.3033   17.8026 C   0  0  0  0  0  0  0  0  0  0  0  0
   11.0272  -15.8109   17.9723 O   0  0  0  0  0  0  0  0  0  0  0  0
    7.0653  -12.2878   19.8367 C   0  0  0  0  0  0  0  0  0  0  0  0
    8.2271  -13.1853   19.4437 C   0  0  0  0  0  0  0  0  0  0  0  0
    8.2523  -14.3298   20.4100 C   0  0  2  0  0  0  0  0  0  0  0  0
    8.6312  -13.7741   21.7694 C   0  0  0  0  0  0  0  0  0  0  0  0
    9.2646  -15.3855   20.0592 C   0  0  2  0  0  0  0  0  0  0  0  0
    8.9233  -16.0465   18.8238 N   0  0  0  0  0  0  0  0  0  0  0  0
    9.4756  -16.3787   21.1146 C   0  0  0  0  0  0  0  0  0  0  0  0
    8.5255  -17.1608   21.4575 O   0  0  0  0  0  0  0  0  0  0  0  0
   12.2280  -18.1893   22.6391 C   0  0  0  0  0  0  0  0  0  0  0  0
   10.8857  -17.5267   22.8726 C   0  0  2  0  0  0  0  0  0  0  0  0
   10.6932  -16.5561   21.8192 N   0  0  0  0  0  0  0  0  0  0  0  0
   10.8942  -16.9061   24.2163 C   0  0  0  0  0  0  0  0  0  0  0  0
   11.0217  -15.6574   24.2702 O   0  0  0  0  0  0  0  0  0  0  0  0
   10.7720  -17.6115   25.3930 O   0  0  0  0  0  0  0  0  0  0  0  0
  2  1  1  6
  3  2  1  0
  4  3  1  0
  5  4  2  0
  6  5  1  0
  7  6  1  0
  7  8  2  0
  8  4  1  0
  9 10  2  0
  9  2  1  0
 11 12  1  0
 12 13  1  0
 13 15  1  0
 13 14  1  1
 15 16  1  6
 16  9  1  0
 17 15  1  0
 18 17  2  0
 20 19  1  6
 20 21  1  0
 21 17  1  0
 22 20  1  0
 23 22  2  0
 24 22  1  0
M  END
$$$$
