MTR.pdb
     RDKit          3D

 27 26  0  0  1  0  0  0  0  0999 V2000
   28.3329  -22.1400   -8.7770 C   0  0  0  0  0  0  0  0  0  0  0  0
   29.6632  -21.8566   -9.9334 S   0  0  0  0  0  0  0  0  0  0  0  0
   29.1227  -21.1398  -11.4486 C   0  0  0  0  0  0  0  0  0  0  0  0
   27.6722  -20.8461  -11.5607 C   0  0  0  0  0  0  0  0  0  0  0  0
   27.1042  -20.4249  -12.8523 C   0  0  2  0  0  0  0  0  0  0  0  0
   27.7899  -19.2461  -13.3699 N   0  0  0  0  0  0  0  0  0  0  0  0
   25.6351  -20.0541  -12.6921 C   0  0  0  0  0  0  0  0  0  0  0  0
   25.3753  -18.8720  -12.4052 O   0  0  0  0  0  0  0  0  0  0  0  0
   21.8625  -19.6902  -15.1138 C   0  0  0  0  0  0  0  0  0  0  0  0
   23.2141  -19.8710  -14.5104 C   0  0  1  0  0  0  0  0  0  0  0  0
   23.6472  -18.5483  -14.1862 O   0  0  0  0  0  0  0  0  0  0  0  0
   23.2107  -20.5790  -13.1582 C   0  0  2  0  0  0  0  0  0  0  0  0
   24.5948  -20.9935  -12.8573 N   0  0  0  0  0  0  0  0  0  0  0  0
   22.3081  -21.7213  -13.0700 C   0  0  0  0  0  0  0  0  0  0  0  0
   22.5697  -22.7394  -13.8101 O   0  0  0  0  0  0  0  0  0  0  0  0
   19.1278  -24.9236   -6.2488 N   0  0  0  0  0  0  0  0  0  0  0  0
   17.9962  -24.2749   -6.7813 C   0  0  0  0  0  0  0  0  0  0  0  0
   17.0366  -23.9489   -6.0021 N   0  0  0  0  0  0  0  0  0  0  0  0
   17.9226  -23.9848   -8.1604 N   0  0  0  0  0  0  0  0  0  0  0  0
   18.8163  -24.5611   -9.0936 C   0  0  0  0  0  0  0  0  0  0  0  0
   18.7280  -24.0361  -10.4789 C   0  0  0  0  0  0  0  0  0  0  0  0
   19.6957  -22.9718  -10.8341 C   0  0  0  0  0  0  0  0  0  0  0  0
   20.3704  -23.0402  -12.1513 C   0  0  2  0  0  0  0  0  0  0  0  0
   21.1846  -21.7960  -12.2430 N   0  0  0  0  0  0  0  0  0  0  0  0
   19.3413  -22.8880  -13.2570 C   0  0  0  0  0  0  0  0  0  0  0  0
   18.9511  -21.7581  -13.6533 O   0  0  0  0  0  0  0  0  0  0  0  0
   18.8036  -23.9847  -13.8561 O   0  0  0  0  0  0  0  0  0  0  0  0
  2  1  1  0
  3  2  1  0
  4  5  1  0
  4  3  1  0
  5  7  1  0
  5  6  1  1
  7  8  2  0
 10  9  1  1
 10 12  1  0
 11 10  1  0
 12 13  1  6
 13  7  1  0
 14 12  1  0
 14 15  2  0
 17 16  1  0
 18 17  2  0
 19 17  1  0
 20 19  1  0
 21 20  1  0
 21 22  1  0
 23 22  1  1
 23 24  1  0
 23 25  1  0
 24 14  1  0
 25 26  2  0
 25 27  1  0
M  END
$$$$
