MTR.pdb
     RDKit          3D

 27 26  0  0  1  0  0  0  0  0999 V2000
   23.0295  -21.3613   -7.7141 C   0  0  0  0  0  0  0  0  0  0  0  0
   24.5590  -22.2728   -7.5837 S   0  0  0  0  0  0  0  0  0  0  0  0
   25.9604  -21.3553   -8.1277 C   0  0  0  0  0  0  0  0  0  0  0  0
   26.2759  -21.4268   -9.5761 C   0  0  0  0  0  0  0  0  0  0  0  0
   26.1807  -20.2175  -10.4108 C   0  0  2  0  0  0  0  0  0  0  0  0
   24.9709  -19.4615  -10.1065 N   0  0  0  0  0  0  0  0  0  0  0  0
   26.1151  -20.5928  -11.8860 C   0  0  0  0  0  0  0  0  0  0  0  0
   27.0436  -21.2864  -12.3378 O   0  0  0  0  0  0  0  0  0  0  0  0
   25.7666  -22.8938  -13.3307 C   0  0  0  0  0  0  0  0  0  0  0  0
   24.7620  -22.1397  -14.1342 C   0  0  1  0  0  0  0  0  0  0  0  0
   23.5305  -22.3114  -13.4299 O   0  0  0  0  0  0  0  0  0  0  0  0
   24.9594  -20.6262  -14.1296 C   0  0  2  0  0  0  0  0  0  0  0  0
   25.0566  -20.1835  -12.7250 N   0  0  0  0  0  0  0  0  0  0  0  0
   23.9236  -19.8738  -14.8285 C   0  0  0  0  0  0  0  0  0  0  0  0
   22.8722  -19.5558  -14.1606 O   0  0  0  0  0  0  0  0  0  0  0  0
   27.5974  -15.3470  -19.4296 N   0  0  0  0  0  0  0  0  0  0  0  0
   26.4840  -14.4979  -19.2749 C   0  0  0  0  0  0  0  0  0  0  0  0
   26.6252  -13.2404  -19.4568 N   0  0  0  0  0  0  0  0  0  0  0  0
   25.2241  -15.0290  -18.9254 N   0  0  0  0  0  0  0  0  0  0  0  0
   25.0336  -16.4124  -18.6991 C   0  0  0  0  0  0  0  0  0  0  0  0
   23.6286  -16.8440  -18.4933 C   0  0  0  0  0  0  0  0  0  0  0  0
   23.4325  -18.2643  -18.1199 C   0  0  0  0  0  0  0  0  0  0  0  0
   22.9505  -18.5766  -16.7542 C   0  0  2  0  0  0  0  0  0  0  0  0
   23.9865  -19.4701  -16.1644 N   0  0  0  0  0  0  0  0  0  0  0  0
   21.7146  -19.4540  -16.8406 C   0  0  0  0  0  0  0  0  0  0  0  0
   21.7916  -20.6969  -17.0286 O   0  0  0  0  0  0  0  0  0  0  0  0
   20.4728  -18.9124  -16.7177 O   0  0  0  0  0  0  0  0  0  0  0  0
  2  1  1  0
  3  2  1  0
  4  5  1  0
  4  3  1  0
  5  7  1  0
  5  6  1  1
  7  8  2  0
 10  9  1  1
 10 12  1  0
 11 10  1  0
 12 13  1  1
 13  7  1  0
 14 12  1  0
 14 15  2  0
 17 16  1  0
 18 17  2  0
 19 17  1  0
 20 19  1  0
 21 20  1  0
 21 22  1  0
 23 22  1  6
 23 24  1  0
 23 25  1  0
 24 14  1  0
 25 26  2  0
 25 27  1  0
M  END
$$$$
