MTR.pdb
     RDKit          3D

 27 26  0  0  1  0  0  0  0  0999 V2000
   26.0607  -14.0345  -14.5990 C   0  0  0  0  0  0  0  0  0  0  0  0
   26.8079  -13.9065  -16.2153 S   0  0  0  0  0  0  0  0  0  0  0  0
   25.9373  -14.8065  -17.4539 C   0  0  0  0  0  0  0  0  0  0  0  0
   25.6837  -16.2416  -17.1729 C   0  0  0  0  0  0  0  0  0  0  0  0
   26.7880  -17.1126  -16.7370 C   0  0  2  0  0  0  0  0  0  0  0  0
   27.6689  -17.4438  -17.8514 N   0  0  0  0  0  0  0  0  0  0  0  0
   26.2450  -18.4267  -16.1895 C   0  0  0  0  0  0  0  0  0  0  0  0
   25.8418  -19.2637  -17.0167 O   0  0  0  0  0  0  0  0  0  0  0  0
   28.1698  -20.3510  -13.2199 C   0  0  0  0  0  0  0  0  0  0  0  0
   27.2010  -20.8420  -14.2417 C   0  0  1  0  0  0  0  0  0  0  0  0
   26.7935  -22.1272  -13.7680 O   0  0  0  0  0  0  0  0  0  0  0  0
   25.8923  -20.0585  -14.2966 C   0  0  2  0  0  0  0  0  0  0  0  0
   26.1914  -18.7066  -14.8072 N   0  0  0  0  0  0  0  0  0  0  0  0
   25.1773  -19.9753  -13.0279 C   0  0  0  0  0  0  0  0  0  0  0  0
   25.5900  -19.1083  -12.1731 O   0  0  0  0  0  0  0  0  0  0  0  0
   19.9536  -24.1935   -8.6412 N   0  0  0  0  0  0  0  0  0  0  0  0
   19.2171  -23.0223   -8.3754 C   0  0  0  0  0  0  0  0  0  0  0  0
   18.6950  -22.8595   -7.2199 N   0  0  0  0  0  0  0  0  0  0  0  0
   19.0588  -22.0366   -9.3728 N   0  0  0  0  0  0  0  0  0  0  0  0
   19.9023  -21.9798  -10.5072 C   0  0  0  0  0  0  0  0  0  0  0  0
   21.2424  -21.3824  -10.2841 C   0  0  0  0  0  0  0  0  0  0  0  0
   22.0723  -21.1762  -11.4941 C   0  0  0  0  0  0  0  0  0  0  0  0
   23.4453  -20.6448  -11.3280 C   0  0  2  0  0  0  0  0  0  0  0  0
   24.0791  -20.7616  -12.6712 N   0  0  0  0  0  0  0  0  0  0  0  0
   24.2532  -21.5901  -10.4572 C   0  0  0  0  0  0  0  0  0  0  0  0
   24.7169  -22.6734  -10.9015 O   0  0  0  0  0  0  0  0  0  0  0  0
   24.4994  -21.2884   -9.1537 O   0  0  0  0  0  0  0  0  0  0  0  0
  2  1  1  0
  3  2  1  0
  4  5  1  0
  4  3  1  0
  5  7  1  0
  5  6  1  6
  7  8  2  0
 10  9  1  1
 10 12  1  0
 11 10  1  0
 12 13  1  1
 13  7  1  0
 14 12  1  0
 14 15  2  0
 17 16  1  0
 18 17  2  0
 19 17  1  0
 20 19  1  0
 21 20  1  0
 21 22  1  0
 23 22  1  6
 23 24  1  0
 23 25  1  0
 24 14  1  0
 25 26  2  0
 25 27  1  0
M  END
$$$$
