MTR.pdb
     RDKit          3D

 27 26  0  0  1  0  0  0  0  0999 V2000
   25.4693  -12.4035  -19.5533 C   0  0  0  0  0  0  0  0  0  0  0  0
   24.1727  -12.2252  -18.3391 S   0  0  0  0  0  0  0  0  0  0  0  0
   22.9985  -13.5371  -18.3822 C   0  0  0  0  0  0  0  0  0  0  0  0
   23.4820  -14.8717  -17.9486 C   0  0  0  0  0  0  0  0  0  0  0  0
   24.3397  -14.9927  -16.7578 C   0  0  2  0  0  0  0  0  0  0  0  0
   25.6826  -14.4885  -17.0225 N   0  0  0  0  0  0  0  0  0  0  0  0
   24.4821  -16.4540  -16.3508 C   0  0  0  0  0  0  0  0  0  0  0  0
   23.4348  -17.1123  -16.2203 O   0  0  0  0  0  0  0  0  0  0  0  0
   26.3155  -19.0595  -18.1766 C   0  0  0  0  0  0  0  0  0  0  0  0
   26.7806  -19.1571  -16.7631 C   0  0  1  0  0  0  0  0  0  0  0  0
   27.9657  -18.3600  -16.7147 O   0  0  0  0  0  0  0  0  0  0  0  0
   25.8621  -18.4800  -15.7496 C   0  0  2  0  0  0  0  0  0  0  0  0
   25.7375  -17.0584  -16.1259 N   0  0  0  0  0  0  0  0  0  0  0  0
   26.2910  -18.6018  -14.3608 C   0  0  0  0  0  0  0  0  0  0  0  0
   27.1309  -17.7323  -13.9235 O   0  0  0  0  0  0  0  0  0  0  0  0
   22.3109  -21.2767   -7.3881 N   0  0  0  0  0  0  0  0  0  0  0  0
   22.2790  -21.4728   -8.7828 C   0  0  0  0  0  0  0  0  0  0  0  0
   21.1569  -21.6722   -9.3618 N   0  0  0  0  0  0  0  0  0  0  0  0
   23.4729  -21.4468   -9.5350 N   0  0  0  0  0  0  0  0  0  0  0  0
   24.7017  -21.0298   -8.9713 C   0  0  0  0  0  0  0  0  0  0  0  0
   25.8221  -20.8526   -9.9283 C   0  0  0  0  0  0  0  0  0  0  0  0
   25.4493  -20.4055  -11.2908 C   0  0  0  0  0  0  0  0  0  0  0  0
   26.4788  -19.7414  -12.1238 C   0  0  2  0  0  0  0  0  0  0  0  0
   25.8587  -19.5869  -13.4695 N   0  0  0  0  0  0  0  0  0  0  0  0
   27.6346  -20.6971  -12.3594 C   0  0  0  0  0  0  0  0  0  0  0  0
   27.6435  -21.5073  -13.3235 O   0  0  0  0  0  0  0  0  0  0  0  0
   28.7063  -20.7051  -11.5214 O   0  0  0  0  0  0  0  0  0  0  0  0
  2  1  1  0
  3  2  1  0
  4  5  1  0
  4  3  1  0
  5  7  1  0
  5  6  1  6
  7  8  2  0
 10  9  1  6
 10 12  1  0
 11 10  1  0
 12 13  1  6
 13  7  1  0
 14 12  1  0
 14 15  2  0
 17 16  1  0
 18 17  2  0
 19 17  1  0
 20 19  1  0
 21 20  1  0
 21 22  1  0
 23 22  1  1
 23 24  1  0
 23 25  1  0
 24 14  1  0
 25 26  2  0
 25 27  1  0
M  END
$$$$
