MTR.pdb
     RDKit          3D

 27 26  0  0  1  0  0  0  0  0999 V2000
   24.9960  -17.5532  -24.8054 C   0  0  0  0  0  0  0  0  0  0  0  0
   25.0003  -17.6417  -23.0223 S   0  0  0  0  0  0  0  0  0  0  0  0
   25.8491  -19.0543  -22.4012 C   0  0  0  0  0  0  0  0  0  0  0  0
   25.8668  -19.2195  -20.9263 C   0  0  0  0  0  0  0  0  0  0  0  0
   25.7468  -18.0407  -20.0522 C   0  0  2  0  0  0  0  0  0  0  0  0
   27.0590  -17.5040  -19.7087 N   0  0  0  0  0  0  0  0  0  0  0  0
   25.0600  -18.4153  -18.7447 C   0  0  0  0  0  0  0  0  0  0  0  0
   25.6283  -19.2554  -18.0246 O   0  0  0  0  0  0  0  0  0  0  0  0
   24.8293  -16.5512  -15.8921 C   0  0  0  0  0  0  0  0  0  0  0  0
   23.4070  -16.9255  -16.1385 C   0  0  1  0  0  0  0  0  0  0  0  0
   22.8822  -15.8577  -16.9300 O   0  0  0  0  0  0  0  0  0  0  0  0
   23.2235  -18.1476  -17.0342 C   0  0  2  0  0  0  0  0  0  0  0  0
   23.8313  -17.8474  -18.3451 N   0  0  0  0  0  0  0  0  0  0  0  0
   21.8401  -18.5782  -17.2028 C   0  0  0  0  0  0  0  0  0  0  0  0
   21.1552  -18.0145  -18.1332 O   0  0  0  0  0  0  0  0  0  0  0  0
   15.1947  -20.3252  -16.7508 N   0  0  0  0  0  0  0  0  0  0  0  0
   15.0845  -21.7065  -17.0050 C   0  0  0  0  0  0  0  0  0  0  0  0
   13.9350  -22.2080  -17.2530 N   0  0  0  0  0  0  0  0  0  0  0  0
   16.2311  -22.5291  -16.9892 N   0  0  0  0  0  0  0  0  0  0  0  0
   17.5380  -21.9897  -17.0395 C   0  0  0  0  0  0  0  0  0  0  0  0
   18.1311  -21.6154  -15.7315 C   0  0  0  0  0  0  0  0  0  0  0  0
   19.5039  -21.0598  -15.7750 C   0  0  0  0  0  0  0  0  0  0  0  0
   19.7600  -19.8726  -16.6235 C   0  0  2  0  0  0  0  0  0  0  0  0
   21.2034  -19.5559  -16.4345 N   0  0  0  0  0  0  0  0  0  0  0  0
   19.0406  -18.6687  -16.0420 C   0  0  0  0  0  0  0  0  0  0  0  0
   17.9478  -18.2546  -16.5114 O   0  0  0  0  0  0  0  0  0  0  0  0
   19.5666  -17.9941  -14.9842 O   0  0  0  0  0  0  0  0  0  0  0  0
  2  1  1  0
  3  2  1  0
  4  5  1  0
  4  3  1  0
  5  7  1  0
  5  6  1  1
  7  8  2  0
 10  9  1  6
 10 12  1  0
 11 10  1  0
 12 13  1  6
 13  7  1  0
 14 12  1  0
 14 15  2  0
 17 16  1  0
 18 17  2  0
 19 17  1  0
 20 19  1  0
 21 20  1  0
 21 22  1  0
 23 22  1  1
 23 24  1  0
 23 25  1  0
 24 14  1  0
 25 26  2  0
 25 27  1  0
M  END
$$$$
