AWC.pdb
     RDKit          3D

 26 27  0  0  1  0  0  0  0  0999 V2000
    7.2522  -14.5132   20.4493 C   0  0  0  0  0  0  0  0  0  0  0  0
    8.2675  -15.5918   20.7473 C   0  0  2  0  0  0  0  0  0  0  0  0
    7.5571  -16.8482   20.8989 N   0  0  0  0  0  0  0  0  0  0  0  0
    9.0862  -15.2658   21.9313 C   0  0  0  0  0  0  0  0  0  0  0  0
    9.7889  -14.2063   21.8806 O   0  0  0  0  0  0  0  0  0  0  0  0
    9.0930  -16.0811   23.0651 N   0  0  0  0  0  0  0  0  0  0  0  0
    9.8201  -15.7013   24.3228 C   0  0  1  0  0  0  0  0  0  0  0  0
    8.8596  -16.1504   25.3658 C   0  0  0  0  0  0  0  0  0  0  0  0
    7.6308  -15.4109   25.5763 C   0  0  0  0  0  0  0  0  0  0  0  0
    6.2977  -15.6944   25.4978 C   0  0  0  0  0  0  0  0  0  0  0  0
    5.5661  -14.6176   25.8321 N   0  0  0  0  0  0  0  0  0  0  0  0
    6.3962  -13.6032   26.1387 C   0  0  0  0  0  0  0  0  0  0  0  0
    6.1610  -12.2863   26.5554 C   0  0  0  0  0  0  0  0  0  0  0  0
    7.2253  -11.4575   26.8150 C   0  0  0  0  0  0  0  0  0  0  0  0
    8.5280  -11.8784   26.6784 C   0  0  0  0  0  0  0  0  0  0  0  0
    8.7143  -13.1828   26.2659 C   0  0  0  0  0  0  0  0  0  0  0  0
    7.6788  -14.0638   25.9902 C   0  0  0  0  0  0  0  0  0  0  0  0
   11.0205  -16.5754   24.3127 C   0  0  0  0  0  0  0  0  0  0  0  0
   10.9021  -17.7469   23.7828 O   0  0  0  0  0  0  0  0  0  0  0  0
   12.2946  -16.2163   24.8369 N   0  0  0  0  0  0  0  0  0  0  0  0
   13.3902  -17.1613   24.9523 C   0  0  1  0  0  0  0  0  0  0  0  0
   14.7270  -16.4426   24.8222 C   0  0  0  0  0  0  0  0  0  0  0  0
   14.7480  -15.2546   23.4530 S   0  0  0  0  0  0  0  0  0  0  0  0
   13.3295  -17.8871   26.2134 C   0  0  0  0  0  0  0  0  0  0  0  0
   14.3133  -18.8524   26.4878 O   0  0  0  0  0  0  0  0  0  0  0  0
   12.4438  -17.7142   27.1017 O   0  0  0  0  0  0  0  0  0  0  0  0
  2  1  1  1
  3  2  1  0
  4  2  1  0
  4  5  2  0
  6  4  1  0
  7  6  1  0
  7  8  1  1
  9  8  1  0
  9 17  1  0
 10 11  1  0
 10  9  2  0
 11 12  1  0
 12 17  2  0
 12 13  1  0
 13 14  2  0
 14 15  1  0
 16 15  2  0
 17 16  1  0
 18  7  1  0
 19 18  2  0
 20 18  1  0
 21 20  1  0
 21 24  1  0
 21 22  1  1
 23 22  1  0
 24 25  1  0
 26 24  2  0
M  END
$$$$
