AWC.pdb
     RDKit          3D

 26 27  0  0  1  0  0  0  0  0999 V2000
    7.9020  -17.2615   19.7421 C   0  0  0  0  0  0  0  0  0  0  0  0
    7.4019  -16.0432   20.4828 C   0  0  2  0  0  0  0  0  0  0  0  0
    7.1609  -14.9934   19.5101 N   0  0  0  0  0  0  0  0  0  0  0  0
    8.3382  -15.6198   21.5424 C   0  0  0  0  0  0  0  0  0  0  0  0
    9.1733  -14.7052   21.2513 O   0  0  0  0  0  0  0  0  0  0  0  0
    8.3132  -16.1939   22.8152 N   0  0  0  0  0  0  0  0  0  0  0  0
    9.2038  -15.7200   23.9274 C   0  0  1  0  0  0  0  0  0  0  0  0
    8.3733  -16.0285   25.1221 C   0  0  0  0  0  0  0  0  0  0  0  0
    7.2140  -15.2112   25.4209 C   0  0  0  0  0  0  0  0  0  0  0  0
    5.8636  -15.4097   25.4507 C   0  0  0  0  0  0  0  0  0  0  0  0
    5.2301  -14.2867   25.8302 N   0  0  0  0  0  0  0  0  0  0  0  0
    6.1441  -13.3255   26.0597 C   0  0  0  0  0  0  0  0  0  0  0  0
    6.0261  -11.9941   26.4798 C   0  0  0  0  0  0  0  0  0  0  0  0
    7.1576  -11.2332   26.6460 C   0  0  0  0  0  0  0  0  0  0  0  0
    8.4164  -11.7368   26.4117 C   0  0  0  0  0  0  0  0  0  0  0  0
    8.4868  -13.0527   25.9995 C   0  0  0  0  0  0  0  0  0  0  0  0
    7.3794  -13.8676   25.8155 C   0  0  0  0  0  0  0  0  0  0  0  0
   10.3712  -16.6351   23.8573 C   0  0  0  0  0  0  0  0  0  0  0  0
   10.1381  -17.8845   23.6300 O   0  0  0  0  0  0  0  0  0  0  0  0
   11.7292  -16.2373   24.0148 N   0  0  0  0  0  0  0  0  0  0  0  0
   12.8339  -17.1769   23.9559 C   0  0  1  0  0  0  0  0  0  0  0  0
   14.0487  -16.5278   23.3053 C   0  0  0  0  0  0  0  0  0  0  0  0
   13.6614  -15.7780   21.7010 S   0  0  0  0  0  0  0  0  0  0  0  0
   13.1768  -17.6708   25.2824 C   0  0  0  0  0  0  0  0  0  0  0  0
   12.3948  -17.2685   26.3785 O   0  0  0  0  0  0  0  0  0  0  0  0
   14.1424  -18.4508   25.5328 O   0  0  0  0  0  0  0  0  0  0  0  0
  2  1  1  6
  3  2  1  0
  4  2  1  0
  4  5  2  0
  6  4  1  0
  7  6  1  0
  7  8  1  1
  9  8  1  0
  9 17  1  0
 10 11  1  0
 10  9  2  0
 11 12  1  0
 12 17  2  0
 12 13  1  0
 13 14  2  0
 14 15  1  0
 16 15  2  0
 17 16  1  0
 18  7  1  0
 19 18  2  0
 20 18  1  0
 21 20  1  0
 21 24  1  0
 21 22  1  1
 23 22  1  0
 24 25  1  0
 26 24  2  0
M  END
$$$$
