AWC.pdb
     RDKit          3D

 26 27  0  0  1  0  0  0  0  0999 V2000
    8.1302  -18.4994   20.1185 C   0  0  0  0  0  0  0  0  0  0  0  0
    7.6986  -17.1394   20.6156 C   0  0  2  0  0  0  0  0  0  0  0  0
    7.4458  -16.2981   19.4604 N   0  0  0  0  0  0  0  0  0  0  0  0
    8.6922  -16.5471   21.5322 C   0  0  0  0  0  0  0  0  0  0  0  0
    9.5379  -15.7387   21.0321 O   0  0  0  0  0  0  0  0  0  0  0  0
    8.7085  -16.8551   22.8943 N   0  0  0  0  0  0  0  0  0  0  0  0
    9.6279  -16.1675   23.8621 C   0  0  1  0  0  0  0  0  0  0  0  0
    8.9170  -16.3857   25.1502 C   0  0  0  0  0  0  0  0  0  0  0  0
    7.6927  -15.6604   25.4262 C   0  0  0  0  0  0  0  0  0  0  0  0
    6.3651  -15.9745   25.4794 C   0  0  0  0  0  0  0  0  0  0  0  0
    5.6384  -14.8955   25.8172 N   0  0  0  0  0  0  0  0  0  0  0  0
    6.4663  -13.8491   25.9951 C   0  0  0  0  0  0  0  0  0  0  0  0
    6.2350  -12.5159   26.3587 C   0  0  0  0  0  0  0  0  0  0  0  0
    7.2967  -11.6526   26.4795 C   0  0  0  0  0  0  0  0  0  0  0  0
    8.5930  -12.0543   26.2532 C   0  0  0  0  0  0  0  0  0  0  0  0
    8.7756  -13.3758   25.8973 C   0  0  0  0  0  0  0  0  0  0  0  0
    7.7425  -14.2915   25.7608 C   0  0  0  0  0  0  0  0  0  0  0  0
   10.8676  -16.9832   23.8096 C   0  0  0  0  0  0  0  0  0  0  0  0
   10.7423  -18.2461   23.5721 O   0  0  0  0  0  0  0  0  0  0  0  0
   12.1852  -16.4762   23.9944 N   0  0  0  0  0  0  0  0  0  0  0  0
   13.3670  -17.3150   23.9147 C   0  0  1  0  0  0  0  0  0  0  0  0
   14.4474  -16.6325   23.0858 C   0  0  0  0  0  0  0  0  0  0  0  0
   14.6953  -14.8997   23.5568 S   0  0  0  0  0  0  0  0  0  0  0  0
   13.8767  -17.6348   25.2409 C   0  0  0  0  0  0  0  0  0  0  0  0
   14.9758  -18.5033   25.3534 O   0  0  0  0  0  0  0  0  0  0  0  0
   13.4000  -17.1830   26.3237 O   0  0  0  0  0  0  0  0  0  0  0  0
  2  1  1  6
  3  2  1  0
  4  2  1  0
  4  5  2  0
  6  4  1  0
  7  6  1  0
  7  8  1  1
  9  8  1  0
  9 17  1  0
 10 11  1  0
 10  9  2  0
 11 12  1  0
 12 17  2  0
 12 13  1  0
 13 14  2  0
 14 15  1  0
 16 15  2  0
 17 16  1  0
 18  7  1  0
 19 18  2  0
 20 18  1  0
 21 20  1  0
 21 24  1  0
 21 22  1  6
 23 22  1  0
 24 25  1  0
 26 24  2  0
M  END
$$$$
