AWC.pdb
     RDKit          3D

 26 27  0  0  1  0  0  0  0  0999 V2000
    7.7394  -15.9207   19.1684 C   0  0  0  0  0  0  0  0  0  0  0  0
    7.3507  -14.8493   20.1605 C   0  0  2  0  0  0  0  0  0  0  0  0
    7.2852  -13.5840   19.4528 N   0  0  0  0  0  0  0  0  0  0  0  0
    8.2760  -14.8005   21.3093 C   0  0  0  0  0  0  0  0  0  0  0  0
    9.2597  -13.9973   21.2320 O   0  0  0  0  0  0  0  0  0  0  0  0
    8.0850  -15.5989   22.4391 N   0  0  0  0  0  0  0  0  0  0  0  0
    9.0558  -15.6147   23.5846 C   0  0  1  0  0  0  0  0  0  0  0  0
    8.1910  -16.0895   24.6976 C   0  0  0  0  0  0  0  0  0  0  0  0
    7.1071  -15.2521   25.1720 C   0  0  0  0  0  0  0  0  0  0  0  0
    5.7589  -15.3996   25.3286 C   0  0  0  0  0  0  0  0  0  0  0  0
    5.2199  -14.2840   25.8496 N   0  0  0  0  0  0  0  0  0  0  0  0
    6.1960  -13.3788   26.0489 C   0  0  0  0  0  0  0  0  0  0  0  0
    6.1830  -12.0786   26.5708 C   0  0  0  0  0  0  0  0  0  0  0  0
    7.3596  -11.3767   26.6706 C   0  0  0  0  0  0  0  0  0  0  0  0
    8.5634  -11.9102   26.2717 C   0  0  0  0  0  0  0  0  0  0  0  0
    8.5307  -13.1937   25.7637 C   0  0  0  0  0  0  0  0  0  0  0  0
    7.3737  -13.9490   25.6399 C   0  0  0  0  0  0  0  0  0  0  0  0
   10.0331  -16.6655   23.2029 C   0  0  0  0  0  0  0  0  0  0  0  0
    9.8419  -17.2813   22.0843 O   0  0  0  0  0  0  0  0  0  0  0  0
   11.1696  -17.0403   23.9742 N   0  0  0  0  0  0  0  0  0  0  0  0
   12.4920  -17.1982   23.3972 C   0  0  1  0  0  0  0  0  0  0  0  0
   12.9072  -15.9280   22.6662 C   0  0  0  0  0  0  0  0  0  0  0  0
   14.5570  -16.0585   21.9264 S   0  0  0  0  0  0  0  0  0  0  0  0
   13.4751  -17.5363   24.4172 C   0  0  0  0  0  0  0  0  0  0  0  0
   14.3570  -18.6046   24.1807 O   0  0  0  0  0  0  0  0  0  0  0  0
   13.6027  -16.9319   25.5226 O   0  0  0  0  0  0  0  0  0  0  0  0
  2  1  1  6
  3  2  1  0
  4  2  1  0
  4  5  2  0
  6  4  1  0
  7  6  1  0
  7  8  1  1
  9  8  1  0
  9 17  1  0
 10 11  1  0
 10  9  2  0
 11 12  1  0
 12 17  2  0
 12 13  1  0
 13 14  2  0
 14 15  1  0
 16 15  2  0
 17 16  1  0
 18  7  1  0
 19 18  2  0
 20 18  1  0
 21 20  1  0
 21 24  1  0
 21 22  1  1
 23 22  1  0
 24 25  1  0
 26 24  2  0
M  END
$$$$
