AWC.pdb
     RDKit          3D

 26 27  0  0  1  0  0  0  0  0999 V2000
    8.2322  -17.8019   19.5103 C   0  0  0  0  0  0  0  0  0  0  0  0
    7.4670  -17.0233   20.5549 C   0  0  2  0  0  0  0  0  0  0  0  0
    6.5515  -16.1304   19.8688 N   0  0  0  0  0  0  0  0  0  0  0  0
    8.3685  -16.3018   21.4743 C   0  0  0  0  0  0  0  0  0  0  0  0
    8.9186  -15.2407   21.0382 O   0  0  0  0  0  0  0  0  0  0  0  0
    8.6110  -16.7581   22.7717 N   0  0  0  0  0  0  0  0  0  0  0  0
    9.4840  -16.0085   23.7364 C   0  0  1  0  0  0  0  0  0  0  0  0
    8.7893  -16.2678   25.0257 C   0  0  0  0  0  0  0  0  0  0  0  0
    7.5678  -15.5531   25.3394 C   0  0  0  0  0  0  0  0  0  0  0  0
    6.2405  -15.8684   25.3913 C   0  0  0  0  0  0  0  0  0  0  0  0
    5.5174  -14.8029   25.7763 N   0  0  0  0  0  0  0  0  0  0  0  0
    6.3474  -13.7645   25.9874 C   0  0  0  0  0  0  0  0  0  0  0  0
    6.1201  -12.4461   26.4039 C   0  0  0  0  0  0  0  0  0  0  0  0
    7.1834  -11.5886   26.5491 C   0  0  0  0  0  0  0  0  0  0  0  0
    8.4775  -11.9818   26.2970 C   0  0  0  0  0  0  0  0  0  0  0  0
    8.6562  -13.2888   25.8891 C   0  0  0  0  0  0  0  0  0  0  0  0
    7.6214  -14.1981   25.7259 C   0  0  0  0  0  0  0  0  0  0  0  0
   10.7742  -16.7418   23.6862 C   0  0  0  0  0  0  0  0  0  0  0  0
   10.7272  -18.0313   23.6416 O   0  0  0  0  0  0  0  0  0  0  0  0
   12.0597  -16.1297   23.6761 N   0  0  0  0  0  0  0  0  0  0  0  0
   13.2930  -16.8944   23.7049 C   0  0  1  0  0  0  0  0  0  0  0  0
   14.4411  -16.0717   23.1344 C   0  0  0  0  0  0  0  0  0  0  0  0
   14.0945  -15.4576   21.4644 S   0  0  0  0  0  0  0  0  0  0  0  0
   13.6104  -17.3318   25.0573 C   0  0  0  0  0  0  0  0  0  0  0  0
   14.7709  -18.0961   25.2676 O   0  0  0  0  0  0  0  0  0  0  0  0
   12.9110  -17.0726   26.0806 O   0  0  0  0  0  0  0  0  0  0  0  0
  2  1  1  6
  3  2  1  0
  4  2  1  0
  4  5  2  0
  6  4  1  0
  7  6  1  0
  7  8  1  1
  9  8  1  0
  9 17  1  0
 10 11  1  0
 10  9  2  0
 11 12  1  0
 12 17  2  0
 12 13  1  0
 13 14  2  0
 14 15  1  0
 16 15  2  0
 17 16  1  0
 18  7  1  0
 19 18  2  0
 20 18  1  0
 21 20  1  0
 21 24  1  0
 21 22  1  1
 23 22  1  0
 24 25  1  0
 26 24  2  0
M  END
$$$$
