AWC.pdb
     RDKit          3D

 26 27  0  0  1  0  0  0  0  0999 V2000
    7.8192  -17.8136   19.9143 C   0  0  0  0  0  0  0  0  0  0  0  0
    7.1703  -16.7180   20.7277 C   0  0  2  0  0  0  0  0  0  0  0  0
    6.5936  -15.7560   19.8067 N   0  0  0  0  0  0  0  0  0  0  0  0
    8.1215  -16.0923   21.6670 C   0  0  0  0  0  0  0  0  0  0  0  0
    8.7563  -15.0682   21.2583 O   0  0  0  0  0  0  0  0  0  0  0  0
    8.3205  -16.5971   22.9539 N   0  0  0  0  0  0  0  0  0  0  0  0
    9.2610  -15.9542   23.9320 C   0  0  1  0  0  0  0  0  0  0  0  0
    8.5262  -16.1377   25.2120 C   0  0  0  0  0  0  0  0  0  0  0  0
    7.3877  -15.2926   25.5136 C   0  0  0  0  0  0  0  0  0  0  0  0
    6.0373  -15.4726   25.6019 C   0  0  0  0  0  0  0  0  0  0  0  0
    5.4305  -14.3251   25.9505 N   0  0  0  0  0  0  0  0  0  0  0  0
    6.3627  -13.3657   26.1006 C   0  0  0  0  0  0  0  0  0  0  0  0
    6.2747  -12.0146   26.4609 C   0  0  0  0  0  0  0  0  0  0  0  0
    7.4199  -11.2610   26.5493 C   0  0  0  0  0  0  0  0  0  0  0  0
    8.6635  -11.7909   26.2936 C   0  0  0  0  0  0  0  0  0  0  0  0
    8.7044  -13.1255   25.9421 C   0  0  0  0  0  0  0  0  0  0  0  0
    7.5821  -13.9342   25.8376 C   0  0  0  0  0  0  0  0  0  0  0  0
   10.4606  -16.8286   23.8930 C   0  0  0  0  0  0  0  0  0  0  0  0
   10.2694  -18.1055   23.8888 O   0  0  0  0  0  0  0  0  0  0  0  0
   11.8062  -16.3649   23.8526 N   0  0  0  0  0  0  0  0  0  0  0  0
   12.9464  -17.2627   23.8737 C   0  0  1  0  0  0  0  0  0  0  0  0
   14.0913  -16.6861   23.0508 C   0  0  0  0  0  0  0  0  0  0  0  0
   13.5448  -15.3829   21.9154 S   0  0  0  0  0  0  0  0  0  0  0  0
   13.3874  -17.5224   25.2372 C   0  0  0  0  0  0  0  0  0  0  0  0
   14.4592  -18.4072   25.4459 O   0  0  0  0  0  0  0  0  0  0  0  0
   12.8730  -17.0036   26.2715 O   0  0  0  0  0  0  0  0  0  0  0  0
  2  1  1  6
  3  2  1  0
  4  2  1  0
  4  5  2  0
  6  4  1  0
  7  6  1  0
  7  8  1  1
  9  8  1  0
  9 17  1  0
 10 11  1  0
 10  9  2  0
 11 12  1  0
 12 17  2  0
 12 13  1  0
 13 14  2  0
 14 15  1  0
 16 15  2  0
 17 16  1  0
 18  7  1  0
 19 18  2  0
 20 18  1  0
 21 20  1  0
 21 24  1  0
 21 22  1  6
 23 22  1  0
 24 25  1  0
 26 24  2  0
M  END
$$$$
