AWC.pdb
     RDKit          3D

 26 27  0  0  1  0  0  0  0  0999 V2000
    8.7074  -16.4469   19.5101 C   0  0  0  0  0  0  0  0  0  0  0  0
    7.8505  -15.6679   20.4806 C   0  0  2  0  0  0  0  0  0  0  0  0
    7.3218  -14.5098   19.7840 N   0  0  0  0  0  0  0  0  0  0  0  0
    8.5968  -15.2957   21.6984 C   0  0  0  0  0  0  0  0  0  0  0  0
    9.2659  -14.2141   21.6645 O   0  0  0  0  0  0  0  0  0  0  0  0
    8.5727  -16.0921   22.8453 N   0  0  0  0  0  0  0  0  0  0  0  0
    9.2926  -15.7071   24.1055 C   0  0  1  0  0  0  0  0  0  0  0  0
    8.3075  -16.1122   25.1436 C   0  0  0  0  0  0  0  0  0  0  0  0
    7.1875  -15.2437   25.4481 C   0  0  0  0  0  0  0  0  0  0  0  0
    5.8276  -15.3587   25.4115 C   0  0  0  0  0  0  0  0  0  0  0  0
    5.2469  -14.2237   25.8370 N   0  0  0  0  0  0  0  0  0  0  0  0
    6.2061  -13.3377   26.1638 C   0  0  0  0  0  0  0  0  0  0  0  0
    6.1501  -12.0299   26.6635 C   0  0  0  0  0  0  0  0  0  0  0  0
    7.3171  -11.3532   26.9229 C   0  0  0  0  0  0  0  0  0  0  0  0
    8.5523  -11.9194   26.7068 C   0  0  0  0  0  0  0  0  0  0  0  0
    8.5614  -13.2092   26.2140 C   0  0  0  0  0  0  0  0  0  0  0  0
    7.4160  -13.9401   25.9344 C   0  0  0  0  0  0  0  0  0  0  0  0
   10.4705  -16.6111   24.1279 C   0  0  0  0  0  0  0  0  0  0  0  0
   10.3100  -17.8126   23.6833 O   0  0  0  0  0  0  0  0  0  0  0  0
   11.7659  -16.2505   24.5961 N   0  0  0  0  0  0  0  0  0  0  0  0
   12.8708  -17.1902   24.6488 C   0  0  1  0  0  0  0  0  0  0  0  0
   14.1986  -16.4564   24.5118 C   0  0  0  0  0  0  0  0  0  0  0  0
   14.1988  -15.2676   23.1433 S   0  0  0  0  0  0  0  0  0  0  0  0
   12.8473  -17.9625   25.8832 C   0  0  0  0  0  0  0  0  0  0  0  0
   11.8190  -17.7256   26.8115 O   0  0  0  0  0  0  0  0  0  0  0  0
   13.6958  -18.8497   26.1937 O   0  0  0  0  0  0  0  0  0  0  0  0
  2  1  1  6
  3  2  1  0
  4  2  1  0
  4  5  2  0
  6  4  1  0
  7  6  1  0
  7  8  1  1
  9  8  1  0
  9 17  1  0
 10 11  1  0
 10  9  2  0
 11 12  1  0
 12 17  2  0
 12 13  1  0
 13 14  2  0
 14 15  1  0
 16 15  2  0
 17 16  1  0
 18  7  1  0
 19 18  2  0
 20 18  1  0
 21 20  1  0
 21 24  1  0
 21 22  1  1
 23 22  1  0
 24 25  1  0
 26 24  2  0
M  END
$$$$
