AWC.pdb
     RDKit          3D

 26 27  0  0  1  0  0  0  0  0999 V2000
   10.8795  -18.7640   20.2060 C   0  0  0  0  0  0  0  0  0  0  0  0
   10.3646  -17.3435   20.2018 C   0  0  2  0  0  0  0  0  0  0  0  0
   11.1481  -16.5844   19.2446 N   0  0  0  0  0  0  0  0  0  0  0  0
   10.3935  -16.7431   21.5498 C   0  0  0  0  0  0  0  0  0  0  0  0
   11.5175  -16.3310   21.9806 O   0  0  0  0  0  0  0  0  0  0  0  0
    9.2381  -16.6269   22.3257 N   0  0  0  0  0  0  0  0  0  0  0  0
    9.2421  -15.9782   23.6799 C   0  0  1  0  0  0  0  0  0  0  0  0
    7.7852  -15.8354   23.9429 C   0  0  0  0  0  0  0  0  0  0  0  0
    7.3330  -15.0286   25.0590 C   0  0  0  0  0  0  0  0  0  0  0  0
    6.1229  -14.6025   25.5258 C   0  0  0  0  0  0  0  0  0  0  0  0
    6.2785  -13.8788   26.6477 N   0  0  0  0  0  0  0  0  0  0  0  0
    7.5893  -13.8118   26.9463 C   0  0  0  0  0  0  0  0  0  0  0  0
    8.2861  -13.2015   27.9975 C   0  0  0  0  0  0  0  0  0  0  0  0
    9.6542  -13.3106   28.0571 C   0  0  0  0  0  0  0  0  0  0  0  0
   10.3726  -14.0048   27.1110 C   0  0  0  0  0  0  0  0  0  0  0  0
    9.6465  -14.5904   26.0931 C   0  0  0  0  0  0  0  0  0  0  0  0
    8.2658  -14.5137   25.9825 C   0  0  0  0  0  0  0  0  0  0  0  0
    9.8294  -17.0157   24.5651 C   0  0  0  0  0  0  0  0  0  0  0  0
    9.5232  -18.2472   24.3271 O   0  0  0  0  0  0  0  0  0  0  0  0
   10.7109  -16.7554   25.6525 N   0  0  0  0  0  0  0  0  0  0  0  0
   11.3164  -17.8121   26.4420 C   0  0  1  0  0  0  0  0  0  0  0  0
   12.8043  -17.9188   26.1340 C   0  0  0  0  0  0  0  0  0  0  0  0
   13.3639  -16.6568   24.9590 S   0  0  0  0  0  0  0  0  0  0  0  0
   11.1118  -17.5888   27.8666 C   0  0  0  0  0  0  0  0  0  0  0  0
   10.4400  -16.4260   28.2807 O   0  0  0  0  0  0  0  0  0  0  0  0
   11.4977  -18.3750   28.7812 O   0  0  0  0  0  0  0  0  0  0  0  0
  2  1  1  1
  3  2  1  0
  4  2  1  0
  4  5  2  0
  6  4  1  0
  7  6  1  0
  7  8  1  1
  9  8  1  0
  9 17  1  0
 10 11  1  0
 10  9  2  0
 11 12  1  0
 12 17  2  0
 12 13  1  0
 13 14  2  0
 14 15  1  0
 16 15  2  0
 17 16  1  0
 18  7  1  0
 19 18  2  0
 20 18  1  0
 21 20  1  0
 21 24  1  0
 21 22  1  1
 23 22  1  0
 24 25  1  0
 26 24  2  0
M  END
$$$$
