AWC.pdb
     RDKit          3D

 26 27  0  0  1  0  0  0  0  0999 V2000
    7.9563  -17.8187   20.0129 C   0  0  0  0  0  0  0  0  0  0  0  0
    7.4500  -16.5439   20.6465 C   0  0  2  0  0  0  0  0  0  0  0  0
    7.1402  -15.6058   19.5833 N   0  0  0  0  0  0  0  0  0  0  0  0
    8.4142  -15.9905   21.6173 C   0  0  0  0  0  0  0  0  0  0  0  0
    9.1872  -15.0661   21.2092 O   0  0  0  0  0  0  0  0  0  0  0  0
    8.4797  -16.4561   22.9323 N   0  0  0  0  0  0  0  0  0  0  0  0
    9.4009  -15.8524   23.9529 C   0  0  1  0  0  0  0  0  0  0  0  0
    8.6626  -16.1255   25.2148 C   0  0  0  0  0  0  0  0  0  0  0  0
    7.4639  -15.3709   25.5228 C   0  0  0  0  0  0  0  0  0  0  0  0
    6.1287  -15.6478   25.5894 C   0  0  0  0  0  0  0  0  0  0  0  0
    5.4383  -14.5553   25.9586 N   0  0  0  0  0  0  0  0  0  0  0  0
    6.2986  -13.5367   26.1443 C   0  0  0  0  0  0  0  0  0  0  0  0
    6.1111  -12.2049   26.5370 C   0  0  0  0  0  0  0  0  0  0  0  0
    7.1990  -11.3749   26.6587 C   0  0  0  0  0  0  0  0  0  0  0  0
    8.4798  -11.8091   26.4058 C   0  0  0  0  0  0  0  0  0  0  0  0
    8.6190  -13.1280   26.0218 C   0  0  0  0  0  0  0  0  0  0  0  0
    7.5580  -14.0109   25.8829 C   0  0  0  0  0  0  0  0  0  0  0  0
   10.6187  -16.6982   23.8715 C   0  0  0  0  0  0  0  0  0  0  0  0
   10.4572  -17.9568   23.6329 O   0  0  0  0  0  0  0  0  0  0  0  0
   11.9521  -16.2245   24.0296 N   0  0  0  0  0  0  0  0  0  0  0  0
   13.1106  -17.0928   23.9264 C   0  0  1  0  0  0  0  0  0  0  0  0
   14.2823  -16.3428   23.3060 C   0  0  0  0  0  0  0  0  0  0  0  0
   13.8586  -15.5829   21.7157 S   0  0  0  0  0  0  0  0  0  0  0  0
   13.4869  -17.6264   25.2281 C   0  0  0  0  0  0  0  0  0  0  0  0
   12.7013  -17.3007   26.3469 O   0  0  0  0  0  0  0  0  0  0  0  0
   14.4851  -18.3770   25.4374 O   0  0  0  0  0  0  0  0  0  0  0  0
  2  1  1  6
  3  2  1  0
  4  2  1  0
  4  5  2  0
  6  4  1  0
  7  6  1  0
  7  8  1  1
  9  8  1  0
  9 17  1  0
 10 11  1  0
 10  9  2  0
 11 12  1  0
 12 17  2  0
 12 13  1  0
 13 14  2  0
 14 15  1  0
 16 15  2  0
 17 16  1  0
 18  7  1  0
 19 18  2  0
 20 18  1  0
 21 20  1  0
 21 24  1  0
 21 22  1  1
 23 22  1  0
 24 25  1  0
 26 24  2  0
M  END
$$$$
