AWC.pdb
     RDKit          3D

 26 27  0  0  1  0  0  0  0  0999 V2000
   12.4832  -18.1513   21.1400 C   0  0  0  0  0  0  0  0  0  0  0  0
   11.3916  -17.2394   20.6303 C   0  0  2  0  0  0  0  0  0  0  0  0
   11.8750  -16.5890   19.4263 N   0  0  0  0  0  0  0  0  0  0  0  0
   10.9607  -16.2692   21.6557 C   0  0  0  0  0  0  0  0  0  0  0  0
   11.6139  -15.1806   21.7395 O   0  0  0  0  0  0  0  0  0  0  0  0
    9.8800  -16.5277   22.5016 N   0  0  0  0  0  0  0  0  0  0  0  0
    9.3956  -15.5297   23.5135 C   0  0  1  0  0  0  0  0  0  0  0  0
    7.9462  -15.8565   23.5798 C   0  0  0  0  0  0  0  0  0  0  0  0
    7.1338  -15.3041   24.6457 C   0  0  0  0  0  0  0  0  0  0  0  0
    6.3860  -15.8170   25.6662 C   0  0  0  0  0  0  0  0  0  0  0  0
    5.8457  -14.8277   26.3983 N   0  0  0  0  0  0  0  0  0  0  0  0
    6.2239  -13.6442   25.8805 C   0  0  0  0  0  0  0  0  0  0  0  0
    5.9567  -12.3218   26.2587 C   0  0  0  0  0  0  0  0  0  0  0  0
    6.4993  -11.2875   25.5356 C   0  0  0  0  0  0  0  0  0  0  0  0
    7.3040  -11.5058   24.4412 C   0  0  0  0  0  0  0  0  0  0  0  0
    7.5414  -12.8234   24.1037 C   0  0  0  0  0  0  0  0  0  0  0  0
    7.0211  -13.9068   24.7966 C   0  0  0  0  0  0  0  0  0  0  0  0
   10.0775  -15.9405   24.7669 C   0  0  0  0  0  0  0  0  0  0  0  0
   10.4645  -17.1687   24.8617 O   0  0  0  0  0  0  0  0  0  0  0  0
   10.3433  -15.0802   25.8698 N   0  0  0  0  0  0  0  0  0  0  0  0
   10.9289  -15.5534   27.1107 C   0  0  1  0  0  0  0  0  0  0  0  0
   10.7008  -14.5406   28.2254 C   0  0  0  0  0  0  0  0  0  0  0  0
   11.3033  -15.1262   29.8317 S   0  0  0  0  0  0  0  0  0  0  0  0
   10.3847  -16.8501   27.4894 C   0  0  0  0  0  0  0  0  0  0  0  0
   11.2639  -17.8473   27.9450 O   0  0  0  0  0  0  0  0  0  0  0  0
    9.1572  -17.1576   27.4415 O   0  0  0  0  0  0  0  0  0  0  0  0
  2  1  1  1
  3  2  1  0
  4  2  1  0
  4  5  2  0
  6  4  1  0
  7  6  1  0
  7  8  1  1
  9  8  1  0
  9 17  1  0
 10 11  1  0
 10  9  2  0
 11 12  1  0
 12 17  2  0
 12 13  1  0
 13 14  2  0
 14 15  1  0
 16 15  2  0
 17 16  1  0
 18  7  1  0
 19 18  2  0
 20 18  1  0
 21 20  1  0
 21 24  1  0
 21 22  1  1
 23 22  1  0
 24 25  1  0
 26 24  2  0
M  END
$$$$
