AWC.pdb
     RDKit          3D

 26 27  0  0  1  0  0  0  0  0999 V2000
    7.4594  -15.2696   18.9473 C   0  0  0  0  0  0  0  0  0  0  0  0
    7.3064  -14.1752   19.9778 C   0  0  2  0  0  0  0  0  0  0  0  0
    7.5085  -12.9008   19.3134 N   0  0  0  0  0  0  0  0  0  0  0  0
    8.2223  -14.3620   21.1200 C   0  0  0  0  0  0  0  0  0  0  0  0
    9.2910  -13.6718   21.1294 O   0  0  0  0  0  0  0  0  0  0  0  0
    7.9334  -15.2566   22.1528 N   0  0  0  0  0  0  0  0  0  0  0  0
    8.7965  -15.3771   23.3756 C   0  0  1  0  0  0  0  0  0  0  0  0
    7.8619  -16.0261   24.3335 C   0  0  0  0  0  0  0  0  0  0  0  0
    6.9774  -15.2080   25.1394 C   0  0  0  0  0  0  0  0  0  0  0  0
    5.7679  -15.3877   25.7466 C   0  0  0  0  0  0  0  0  0  0  0  0
    5.4026  -14.2763   26.4082 N   0  0  0  0  0  0  0  0  0  0  0  0
    6.3591  -13.3417   26.2542 C   0  0  0  0  0  0  0  0  0  0  0  0
    6.4826  -12.0318   26.7359 C   0  0  0  0  0  0  0  0  0  0  0  0
    7.6003  -11.2972   26.4223 C   0  0  0  0  0  0  0  0  0  0  0  0
    8.6134  -11.8069   25.6434 C   0  0  0  0  0  0  0  0  0  0  0  0
    8.4510  -13.1009   25.1902 C   0  0  0  0  0  0  0  0  0  0  0  0
    7.3454  -13.8889   25.4751 C   0  0  0  0  0  0  0  0  0  0  0  0
    9.8595  -16.3284   22.9634 C   0  0  0  0  0  0  0  0  0  0  0  0
    9.5028  -17.3624   22.2774 O   0  0  0  0  0  0  0  0  0  0  0  0
   11.2441  -16.1825   23.2616 N   0  0  0  0  0  0  0  0  0  0  0  0
   12.2304  -17.1918   22.9220 C   0  0  1  0  0  0  0  0  0  0  0  0
   13.5188  -16.5350   22.4435 C   0  0  0  0  0  0  0  0  0  0  0  0
   13.2544  -15.4336   21.0281 S   0  0  0  0  0  0  0  0  0  0  0  0
   12.5015  -18.0659   24.0548 C   0  0  0  0  0  0  0  0  0  0  0  0
   13.4544  -19.0885   23.9089 O   0  0  0  0  0  0  0  0  0  0  0  0
   11.9369  -17.9763   25.1847 O   0  0  0  0  0  0  0  0  0  0  0  0
  2  1  1  6
  3  2  1  0
  4  2  1  0
  4  5  2  0
  6  4  1  0
  7  6  1  0
  7  8  1  1
  9  8  1  0
  9 17  1  0
 10 11  1  0
 10  9  2  0
 11 12  1  0
 12 17  2  0
 12 13  1  0
 13 14  2  0
 14 15  1  0
 16 15  2  0
 17 16  1  0
 18  7  1  0
 19 18  2  0
 20 18  1  0
 21 20  1  0
 21 24  1  0
 21 22  1  1
 23 22  1  0
 24 25  1  0
 26 24  2  0
M  END
$$$$
