AWC.pdb
     RDKit          3D

 26 27  0  0  1  0  0  0  0  0999 V2000
    7.2936  -13.9978   20.2014 C   0  0  0  0  0  0  0  0  0  0  0  0
    8.1596  -15.1900   20.5355 C   0  0  2  0  0  0  0  0  0  0  0  0
    7.3078  -16.3639   20.5868 N   0  0  0  0  0  0  0  0  0  0  0  0
    8.9125  -14.9900   21.7891 C   0  0  0  0  0  0  0  0  0  0  0  0
    9.7032  -13.9947   21.8420 O   0  0  0  0  0  0  0  0  0  0  0  0
    8.7666  -15.8527   22.8776 N   0  0  0  0  0  0  0  0  0  0  0  0
    9.5270  -15.6647   24.1587 C   0  0  1  0  0  0  0  0  0  0  0  0
    8.5424  -16.1536   25.1606 C   0  0  0  0  0  0  0  0  0  0  0  0
    7.3928  -15.3365   25.4952 C   0  0  0  0  0  0  0  0  0  0  0  0
    6.0423  -15.5297   25.5474 C   0  0  0  0  0  0  0  0  0  0  0  0
    5.4214  -14.4106   25.9579 N   0  0  0  0  0  0  0  0  0  0  0  0
    6.3441  -13.4574   26.1861 C   0  0  0  0  0  0  0  0  0  0  0  0
    6.2402  -12.1328   26.6308 C   0  0  0  0  0  0  0  0  0  0  0  0
    7.3782  -11.3797   26.7881 C   0  0  0  0  0  0  0  0  0  0  0  0
    8.6299  -11.8847   26.5214 C   0  0  0  0  0  0  0  0  0  0  0  0
    8.6864  -13.1937   26.0857 C   0  0  0  0  0  0  0  0  0  0  0  0
    7.5719  -14.0006   25.9092 C   0  0  0  0  0  0  0  0  0  0  0  0
   10.6600  -16.6169   24.0381 C   0  0  0  0  0  0  0  0  0  0  0  0
   10.3943  -17.8136   23.6328 O   0  0  0  0  0  0  0  0  0  0  0  0
   12.0191  -16.3075   24.3288 N   0  0  0  0  0  0  0  0  0  0  0  0
   13.0972  -17.2622   24.1476 C   0  0  1  0  0  0  0  0  0  0  0  0
   14.3902  -16.5410   23.7894 C   0  0  0  0  0  0  0  0  0  0  0  0
   14.3819  -14.8020   24.3012 S   0  0  0  0  0  0  0  0  0  0  0  0
   13.2878  -18.0747   25.3411 C   0  0  0  0  0  0  0  0  0  0  0  0
   14.2443  -19.1040   25.3146 O   0  0  0  0  0  0  0  0  0  0  0  0
   12.6487  -17.9245   26.4239 O   0  0  0  0  0  0  0  0  0  0  0  0
  2  1  1  1
  3  2  1  0
  4  2  1  0
  4  5  2  0
  6  4  1  0
  7  6  1  0
  7  8  1  1
  9  8  1  0
  9 17  1  0
 10 11  1  0
 10  9  2  0
 11 12  1  0
 12 17  2  0
 12 13  1  0
 13 14  2  0
 14 15  1  0
 16 15  2  0
 17 16  1  0
 18  7  1  0
 19 18  2  0
 20 18  1  0
 21 20  1  0
 21 24  1  0
 21 22  1  1
 23 22  1  0
 24 25  1  0
 26 24  2  0
M  END
$$$$
