YCE.pdb
     RDKit          3D

 28 28  0  0  1  0  0  0  0  0999 V2000
    7.8385  -14.8722   12.9260 O   0  0  0  0  0  0  0  0  0  0  0  0
    8.2263  -14.9551   14.2760 C   0  0  0  0  0  0  0  0  0  0  0  0
    7.4985  -15.6951   15.1864 C   0  0  0  0  0  0  0  0  0  0  0  0
    7.8871  -15.7726   16.5096 C   0  0  0  0  0  0  0  0  0  0  0  0
    9.0129  -15.1201   16.9857 C   0  0  0  0  0  0  0  0  0  0  0  0
    9.4385  -15.1971   18.4063 C   0  0  0  0  0  0  0  0  0  0  0  0
    9.4601  -13.8675   19.1042 C   0  0  2  0  0  0  0  0  0  0  0  0
   10.5188  -12.9961   18.6944 N   0  0  0  0  0  0  0  0  0  0  0  0
    9.5623  -14.1312   20.5700 C   0  0  0  0  0  0  0  0  0  0  0  0
   10.6634  -14.5521   21.0732 O   0  0  0  0  0  0  0  0  0  0  0  0
    9.7284  -14.3847   16.0610 C   0  0  0  0  0  0  0  0  0  0  0  0
    9.3453  -14.3032   14.7364 C   0  0  0  0  0  0  0  0  0  0  0  0
    8.5035  -13.9457   21.4677 N   0  0  0  0  0  0  0  0  0  0  0  0
    8.4750  -14.3546   22.8397 C   0  0  1  0  0  0  0  0  0  0  0  0
    7.0985  -14.0982   23.4455 C   0  0  0  0  0  0  0  0  0  0  0  0
    7.0063  -14.5746   25.1855 S   0  0  0  0  0  0  0  0  0  0  0  0
    8.8274  -15.7548   23.0522 C   0  0  0  0  0  0  0  0  0  0  0  0
    8.5630  -16.6506   22.2226 O   0  0  0  0  0  0  0  0  0  0  0  0
    9.4981  -16.1330   24.2452 N   0  0  0  0  0  0  0  0  0  0  0  0
   10.2187  -17.4110   24.3642 C   0  0  1  0  0  0  0  0  0  0  0  0
   11.3170  -17.4624   23.3203 C   0  0  0  0  0  0  0  0  0  0  0  0
   12.1353  -18.7185   23.3818 C   0  0  0  0  0  0  0  0  0  0  0  0
   13.1384  -18.6561   22.2696 C   0  0  0  0  0  0  0  0  0  0  0  0
   14.0920  -19.4883   22.3852 O   0  0  0  0  0  0  0  0  0  0  0  0
   10.8123  -17.5432   25.6989 C   0  0  0  0  0  0  0  0  0  0  0  0
   10.9014  -16.5383   26.4394 O   0  0  0  0  0  0  0  0  0  0  0  0
   13.0479  -17.7838   21.2190 O   0  0  0  0  0  0  0  0  0  0  0  0
   11.2739  -18.7488   26.1599 O   0  0  0  0  0  0  0  0  0  0  0  0
  2  1  1  0
  3  2  2  0
  4  3  1  0
  5 11  1  0
  5  4  2  0
  6  7  1  0
  6  5  1  0
  7  8  1  6
  9  7  1  0
  9 10  2  0
 11 12  2  0
 12  2  1  0
 13 14  1  0
 13  9  1  0
 14 15  1  6
 16 15  1  0
 17 18  2  0
 17 14  1  0
 19 17  1  0
 20 19  1  0
 20 25  1  0
 20 21  1  6
 22 21  1  0
 23 22  1  0
 24 23  2  0
 25 28  1  0
 26 25  2  0
 27 23  1  0
M  END
$$$$
