YCE.pdb
     RDKit          3D

 28 28  0  0  1  0  0  0  0  0999 V2000
    7.4103  -14.1747   15.7201 O   0  0  0  0  0  0  0  0  0  0  0  0
    7.7256  -14.0256   17.0832 C   0  0  0  0  0  0  0  0  0  0  0  0
    7.3388  -12.9043   17.7897 C   0  0  0  0  0  0  0  0  0  0  0  0
    7.6509  -12.7667   19.1282 C   0  0  0  0  0  0  0  0  0  0  0  0
    8.3592  -13.7344   19.8222 C   0  0  0  0  0  0  0  0  0  0  0  0
    8.6998  -13.5954   21.2608 C   0  0  0  0  0  0  0  0  0  0  0  0
    8.3004  -14.7793   22.0942 C   0  0  2  0  0  0  0  0  0  0  0  0
    6.8946  -15.0465   22.1151 N   0  0  0  0  0  0  0  0  0  0  0  0
    8.7886  -14.5359   23.4837 C   0  0  0  0  0  0  0  0  0  0  0  0
    9.0949  -13.3494   23.8599 O   0  0  0  0  0  0  0  0  0  0  0  0
    8.7378  -14.8489   19.0995 C   0  0  0  0  0  0  0  0  0  0  0  0
    8.4288  -14.9928   17.7609 C   0  0  0  0  0  0  0  0  0  0  0  0
    8.9424  -15.5467   24.4407 N   0  0  0  0  0  0  0  0  0  0  0  0
    9.3834  -15.3737   25.7919 C   0  0  1  0  0  0  0  0  0  0  0  0
    8.4349  -14.4500   26.5499 C   0  0  0  0  0  0  0  0  0  0  0  0
    8.8460  -14.3211   28.3041 S   0  0  0  0  0  0  0  0  0  0  0  0
    9.5207  -16.6201   26.5387 C   0  0  0  0  0  0  0  0  0  0  0  0
    8.5376  -17.2848   26.9286 O   0  0  0  0  0  0  0  0  0  0  0  0
   10.8171  -17.1123   26.8440 N   0  0  0  0  0  0  0  0  0  0  0  0
   11.0238  -18.4149   27.4977 C   0  0  1  0  0  0  0  0  0  0  0  0
   12.2901  -19.0484   26.9562 C   0  0  0  0  0  0  0  0  0  0  0  0
   13.3774  -18.0535   26.6744 C   0  0  0  0  0  0  0  0  0  0  0  0
   14.4933  -18.7879   25.9945 C   0  0  0  0  0  0  0  0  0  0  0  0
   15.3638  -19.2597   26.7913 O   0  0  0  0  0  0  0  0  0  0  0  0
   11.1488  -18.2464   28.9494 C   0  0  0  0  0  0  0  0  0  0  0  0
   11.1059  -17.0984   29.4457 O   0  0  0  0  0  0  0  0  0  0  0  0
   14.5796  -18.9417   24.6373 O   0  0  0  0  0  0  0  0  0  0  0  0
   11.3110  -19.3227   29.7827 O   0  0  0  0  0  0  0  0  0  0  0  0
  2  1  1  0
  3  2  2  0
  4  3  1  0
  5 11  1  0
  5  4  2  0
  6  7  1  0
  6  5  1  0
  7  8  1  1
  9  7  1  0
  9 10  2  0
 11 12  2  0
 12  2  1  0
 13 14  1  0
 13  9  1  0
 14 15  1  1
 16 15  1  0
 17 18  2  0
 17 14  1  0
 19 17  1  0
 20 19  1  0
 20 25  1  0
 20 21  1  6
 22 21  1  0
 23 22  1  0
 24 23  2  0
 25 28  1  0
 26 25  2  0
 27 23  1  0
M  END
$$$$
