YCE.pdb
     RDKit          3D

 28 28  0  0  1  0  0  0  0  0999 V2000
    6.5516  -12.4392   18.4103 O   0  0  0  0  0  0  0  0  0  0  0  0
    7.8572  -12.9361   18.5782 C   0  0  0  0  0  0  0  0  0  0  0  0
    8.6509  -12.5241   19.6302 C   0  0  0  0  0  0  0  0  0  0  0  0
    9.9310  -13.0182   19.7887 C   0  0  0  0  0  0  0  0  0  0  0  0
   10.4778  -13.9408   18.9116 C   0  0  0  0  0  0  0  0  0  0  0  0
   11.8529  -14.4775   19.0735 C   0  0  0  0  0  0  0  0  0  0  0  0
   11.9017  -15.8302   19.7240 C   0  0  2  0  0  0  0  0  0  0  0  0
   10.9316  -16.7621   19.2355 N   0  0  0  0  0  0  0  0  0  0  0  0
   11.7149  -15.6300   21.1915 C   0  0  0  0  0  0  0  0  0  0  0  0
   12.6173  -15.0346   21.8801 O   0  0  0  0  0  0  0  0  0  0  0  0
    9.6697  -14.3414   17.8656 C   0  0  0  0  0  0  0  0  0  0  0  0
    8.3887  -13.8514   17.7014 C   0  0  0  0  0  0  0  0  0  0  0  0
   10.5842  -16.0617   21.8961 N   0  0  0  0  0  0  0  0  0  0  0  0
   10.4962  -16.2712   23.3098 C   0  0  1  0  0  0  0  0  0  0  0  0
    9.1291  -15.8381   23.8305 C   0  0  0  0  0  0  0  0  0  0  0  0
    8.8921  -16.2396   25.5756 S   0  0  0  0  0  0  0  0  0  0  0  0
   10.7413  -17.6486   23.7251 C   0  0  0  0  0  0  0  0  0  0  0  0
   10.0380  -18.6055   23.3375 O   0  0  0  0  0  0  0  0  0  0  0  0
   11.8186  -17.9315   24.6057 N   0  0  0  0  0  0  0  0  0  0  0  0
   12.0964  -19.2947   25.0868 C   0  0  1  0  0  0  0  0  0  0  0  0
   13.4199  -19.7642   24.5157 C   0  0  0  0  0  0  0  0  0  0  0  0
   14.5428  -18.7965   24.7479 C   0  0  0  0  0  0  0  0  0  0  0  0
   15.7456  -19.3217   24.0237 C   0  0  0  0  0  0  0  0  0  0  0  0
   15.5463  -20.4215   23.4187 O   0  0  0  0  0  0  0  0  0  0  0  0
   12.1654  -19.3177   26.5518 C   0  0  0  0  0  0  0  0  0  0  0  0
   12.3566  -20.4024   27.1458 O   0  0  0  0  0  0  0  0  0  0  0  0
   16.9566  -18.6843   24.0095 O   0  0  0  0  0  0  0  0  0  0  0  0
   12.0264  -18.1724   27.2921 O   0  0  0  0  0  0  0  0  0  0  0  0
  2  1  1  0
  3  2  2  0
  4  3  1  0
  5 11  1  0
  5  4  2  0
  6  7  1  0
  6  5  1  0
  7  8  1  6
  9  7  1  0
  9 10  2  0
 11 12  2  0
 12  2  1  0
 13 14  1  0
 13  9  1  0
 14 15  1  6
 16 15  1  0
 17 18  2  0
 17 14  1  0
 19 17  1  0
 20 19  1  0
 20 25  1  0
 20 21  1  6
 22 21  1  0
 23 22  1  0
 24 23  2  0
 25 28  1  0
 26 25  2  0
 27 23  1  0
M  END
$$$$
