YCE.pdb
     RDKit          3D

 28 28  0  0  1  0  0  0  0  0999 V2000
    7.0053  -16.0764   12.6477 O   0  0  0  0  0  0  0  0  0  0  0  0
    7.5639  -15.8183   13.9131 C   0  0  0  0  0  0  0  0  0  0  0  0
    8.7753  -15.1688   14.0426 C   0  0  0  0  0  0  0  0  0  0  0  0
    9.3157  -14.9177   15.2887 C   0  0  0  0  0  0  0  0  0  0  0  0
    8.6784  -15.2998   16.4581 C   0  0  0  0  0  0  0  0  0  0  0  0
    9.2515  -15.0346   17.8021 C   0  0  0  0  0  0  0  0  0  0  0  0
    8.4137  -14.1182   18.6470 C   0  0  2  0  0  0  0  0  0  0  0  0
    8.2980  -12.7834   18.1440 N   0  0  0  0  0  0  0  0  0  0  0  0
    9.0144  -14.0924   20.0133 C   0  0  0  0  0  0  0  0  0  0  0  0
   10.0562  -13.3826   20.2453 O   0  0  0  0  0  0  0  0  0  0  0  0
    7.4679  -15.9481   16.3093 C   0  0  0  0  0  0  0  0  0  0  0  0
    6.9219  -16.2022   15.0662 C   0  0  0  0  0  0  0  0  0  0  0  0
    8.5040  -14.8143   21.0994 N   0  0  0  0  0  0  0  0  0  0  0  0
    9.0941  -14.9179   22.3999 C   0  0  1  0  0  0  0  0  0  0  0  0
    8.0368  -14.7289   23.4834 C   0  0  0  0  0  0  0  0  0  0  0  0
    6.7219  -13.5972   22.9801 S   0  0  0  0  0  0  0  0  0  0  0  0
    9.7915  -16.1773   22.6398 C   0  0  0  0  0  0  0  0  0  0  0  0
    9.2020  -17.2779   22.6803 O   0  0  0  0  0  0  0  0  0  0  0  0
   11.1975  -16.1704   22.8380 N   0  0  0  0  0  0  0  0  0  0  0  0
   11.9541  -17.4040   23.1073 C   0  0  1  0  0  0  0  0  0  0  0  0
   13.4083  -17.1869   22.7379 C   0  0  0  0  0  0  0  0  0  0  0  0
   13.9783  -15.9156   23.2949 C   0  0  0  0  0  0  0  0  0  0  0  0
   15.3558  -15.7538   22.7263 C   0  0  0  0  0  0  0  0  0  0  0  0
   15.4936  -16.2351   21.5581 O   0  0  0  0  0  0  0  0  0  0  0  0
   11.8630  -17.7623   24.5267 C   0  0  0  0  0  0  0  0  0  0  0  0
   12.3892  -18.8227   24.9328 O   0  0  0  0  0  0  0  0  0  0  0  0
   16.3827  -15.1459   23.3962 O   0  0  0  0  0  0  0  0  0  0  0  0
   11.2128  -16.9583   25.4267 O   0  0  0  0  0  0  0  0  0  0  0  0
  2  1  1  0
  3  2  2  0
  4  3  1  0
  5 11  1  0
  5  4  2  0
  6  7  1  0
  6  5  1  0
  7  8  1  6
  9  7  1  0
  9 10  2  0
 11 12  2  0
 12  2  1  0
 13 14  1  0
 13  9  1  0
 14 15  1  1
 16 15  1  0
 17 18  2  0
 17 14  1  0
 19 17  1  0
 20 19  1  0
 20 25  1  0
 20 21  1  1
 22 21  1  0
 23 22  1  0
 24 23  2  0
 25 28  1  0
 26 25  2  0
 27 23  1  0
M  END
$$$$
