YCE.pdb
     RDKit          3D

 28 28  0  0  1  0  0  0  0  0999 V2000
    9.8577  -12.3163   17.7990 O   0  0  0  0  0  0  0  0  0  0  0  0
    9.2051  -13.2461   18.6293 C   0  0  0  0  0  0  0  0  0  0  0  0
    7.8559  -13.5052   18.4930 C   0  0  0  0  0  0  0  0  0  0  0  0
    7.2234  -14.4210   19.3111 C   0  0  0  0  0  0  0  0  0  0  0  0
    7.9014  -15.1178   20.2982 C   0  0  0  0  0  0  0  0  0  0  0  0
    7.2303  -16.1038   21.1827 C   0  0  0  0  0  0  0  0  0  0  0  0
    6.4103  -15.4777   22.2741 C   0  0  2  0  0  0  0  0  0  0  0  0
    5.4061  -14.5662   21.8171 N   0  0  0  0  0  0  0  0  0  0  0  0
    7.3507  -14.7728   23.1944 C   0  0  0  0  0  0  0  0  0  0  0  0
    7.7241  -13.5735   22.9386 O   0  0  0  0  0  0  0  0  0  0  0  0
    9.2501  -14.8458   20.4200 C   0  0  0  0  0  0  0  0  0  0  0  0
    9.8887  -13.9314   19.6051 C   0  0  0  0  0  0  0  0  0  0  0  0
    7.8741  -15.3478   24.3592 N   0  0  0  0  0  0  0  0  0  0  0  0
    8.7207  -14.7015   25.3162 C   0  0  1  0  0  0  0  0  0  0  0  0
    8.0715  -13.4175   25.8235 C   0  0  0  0  0  0  0  0  0  0  0  0
    7.0461  -13.6890   27.2856 S   0  0  0  0  0  0  0  0  0  0  0  0
    9.0702  -15.5348   26.4622 C   0  0  0  0  0  0  0  0  0  0  0  0
    8.2159  -15.9850   27.2546 O   0  0  0  0  0  0  0  0  0  0  0  0
   10.4321  -15.8568   26.7023 N   0  0  0  0  0  0  0  0  0  0  0  0
   10.8332  -16.8525   27.7095 C   0  0  1  0  0  0  0  0  0  0  0  0
   12.2149  -17.3758   27.3697 C   0  0  0  0  0  0  0  0  0  0  0  0
   12.2698  -18.0944   26.0537 C   0  0  0  0  0  0  0  0  0  0  0  0
   13.7149  -18.3148   25.7220 C   0  0  0  0  0  0  0  0  0  0  0  0
   14.5210  -17.8646   26.5954 O   0  0  0  0  0  0  0  0  0  0  0  0
   10.8589  -16.2488   29.0460 C   0  0  0  0  0  0  0  0  0  0  0  0
   10.6148  -15.0287   29.1793 O   0  0  0  0  0  0  0  0  0  0  0  0
   14.1412  -18.9415   24.5825 O   0  0  0  0  0  0  0  0  0  0  0  0
   11.1442  -16.9931   30.1613 O   0  0  0  0  0  0  0  0  0  0  0  0
  2  1  1  0
  3  2  2  0
  4  3  1  0
  5 11  1  0
  5  4  2  0
  6  7  1  0
  6  5  1  0
  7  8  1  6
  9  7  1  0
  9 10  2  0
 11 12  2  0
 12  2  1  0
 13 14  1  0
 13  9  1  0
 14 15  1  1
 16 15  1  0
 17 18  2  0
 17 14  1  0
 19 17  1  0
 20 19  1  0
 20 25  1  0
 20 21  1  6
 22 21  1  0
 23 22  1  0
 24 23  2  0
 25 28  1  0
 26 25  2  0
 27 23  1  0
M  END
$$$$
