YCE.pdb
     RDKit          3D

 28 28  0  0  1  0  0  0  0  0999 V2000
    0.5187  -20.9057   21.8141 O   0  0  0  0  0  0  0  0  0  0  0  0
    1.7065  -20.2905   22.2508 C   0  0  0  0  0  0  0  0  0  0  0  0
    2.9214  -20.9415   22.1721 C   0  0  0  0  0  0  0  0  0  0  0  0
    4.0830  -20.3296   22.6014 C   0  0  0  0  0  0  0  0  0  0  0  0
    4.0889  -19.0474   23.1264 C   0  0  0  0  0  0  0  0  0  0  0  0
    5.3323  -18.3814   23.5908 C   0  0  0  0  0  0  0  0  0  0  0  0
    5.7956  -17.2709   22.6921 C   0  0  2  0  0  0  0  0  0  0  0  0
    6.2313  -17.6949   21.3965 N   0  0  0  0  0  0  0  0  0  0  0  0
    6.9074  -16.5614   23.3913 C   0  0  0  0  0  0  0  0  0  0  0  0
    8.1217  -16.9284   23.2075 O   0  0  0  0  0  0  0  0  0  0  0  0
    2.8648  -18.4117   23.1974 C   0  0  0  0  0  0  0  0  0  0  0  0
    1.6996  -19.0178   22.7698 C   0  0  0  0  0  0  0  0  0  0  0  0
    6.7127  -15.4850   24.2658 N   0  0  0  0  0  0  0  0  0  0  0  0
    7.7047  -14.8883   25.1085 C   0  0  1  0  0  0  0  0  0  0  0  0
    7.0991  -13.7501   25.9241 C   0  0  0  0  0  0  0  0  0  0  0  0
    8.2533  -13.0766   27.1395 S   0  0  0  0  0  0  0  0  0  0  0  0
    8.3542  -15.8246   26.0204 C   0  0  0  0  0  0  0  0  0  0  0  0
    7.7212  -16.4935   26.8644 O   0  0  0  0  0  0  0  0  0  0  0  0
    9.7626  -15.9949   25.9604 N   0  0  0  0  0  0  0  0  0  0  0  0
   10.4697  -16.9595   26.8185 C   0  0  1  0  0  0  0  0  0  0  0  0
   11.8197  -17.2752   26.2052 C   0  0  0  0  0  0  0  0  0  0  0  0
   12.7287  -16.0841   26.1268 C   0  0  0  0  0  0  0  0  0  0  0  0
   13.9036  -16.4705   25.2798 C   0  0  0  0  0  0  0  0  0  0  0  0
   13.8308  -17.6443   24.7979 O   0  0  0  0  0  0  0  0  0  0  0  0
   10.6658  -16.4039   28.1617 C   0  0  0  0  0  0  0  0  0  0  0  0
   10.5541  -15.1709   28.3444 O   0  0  0  0  0  0  0  0  0  0  0  0
   14.9672  -15.6430   25.0410 O   0  0  0  0  0  0  0  0  0  0  0  0
   10.9690  -17.2072   29.2303 O   0  0  0  0  0  0  0  0  0  0  0  0
  2  1  1  0
  3  2  2  0
  4  3  1  0
  5 11  1  0
  5  4  2  0
  6  7  1  0
  6  5  1  0
  7  8  1  6
  9  7  1  0
  9 10  2  0
 11 12  2  0
 12  2  1  0
 13 14  1  0
 13  9  1  0
 14 15  1  1
 16 15  1  0
 17 18  2  0
 17 14  1  0
 19 17  1  0
 20 19  1  0
 20 25  1  0
 20 21  1  6
 22 21  1  0
 23 22  1  0
 24 23  2  0
 25 28  1  0
 26 25  2  0
 27 23  1  0
M  END
$$$$
