YCE.pdb
     RDKit          3D

 28 28  0  0  1  0  0  0  0  0999 V2000
    7.3071  -13.9933   15.3795 O   0  0  0  0  0  0  0  0  0  0  0  0
    7.7609  -14.0396   16.7105 C   0  0  0  0  0  0  0  0  0  0  0  0
    7.3642  -13.0951   17.6361 C   0  0  0  0  0  0  0  0  0  0  0  0
    7.8130  -13.1490   18.9413 C   0  0  0  0  0  0  0  0  0  0  0  0
    8.6734  -14.1408   19.3836 C   0  0  0  0  0  0  0  0  0  0  0  0
    9.1615  -14.2070   20.7845 C   0  0  0  0  0  0  0  0  0  0  0  0
    8.4162  -15.1918   21.6390 C   0  0  2  0  0  0  0  0  0  0  0  0
    7.0048  -15.2349   21.4061 N   0  0  0  0  0  0  0  0  0  0  0  0
    8.6820  -14.8405   23.0653 C   0  0  0  0  0  0  0  0  0  0  0  0
    9.8752  -14.8954   23.5303 O   0  0  0  0  0  0  0  0  0  0  0  0
    9.0595  -15.0769   18.4442 C   0  0  0  0  0  0  0  0  0  0  0  0
    8.6143  -15.0288   17.1375 C   0  0  0  0  0  0  0  0  0  0  0  0
    7.6858  -14.4413   23.9650 N   0  0  0  0  0  0  0  0  0  0  0  0
    7.8672  -14.1514   25.3554 C   0  0  1  0  0  0  0  0  0  0  0  0
    6.7623  -13.2268   25.8574 C   0  0  0  0  0  0  0  0  0  0  0  0
    6.9041  -12.8707   27.6227 S   0  0  0  0  0  0  0  0  0  0  0  0
    7.9137  -15.3335   26.2101 C   0  0  0  0  0  0  0  0  0  0  0  0
    7.0294  -16.2155   26.1905 O   0  0  0  0  0  0  0  0  0  0  0  0
    9.0010  -15.5045   27.1071 N   0  0  0  0  0  0  0  0  0  0  0  0
    9.4368  -16.8352   27.5612 C   0  0  1  0  0  0  0  0  0  0  0  0
   10.0011  -17.6034   26.3823 C   0  0  0  0  0  0  0  0  0  0  0  0
   10.5421  -18.9517   26.7572 C   0  0  0  0  0  0  0  0  0  0  0  0
   11.0341  -19.6038   25.5003 C   0  0  0  0  0  0  0  0  0  0  0  0
   10.9527  -18.8664   24.4684 O   0  0  0  0  0  0  0  0  0  0  0  0
   10.4675  -16.7118   28.5973 C   0  0  0  0  0  0  0  0  0  0  0  0
   10.9570  -15.5888   28.8534 O   0  0  0  0  0  0  0  0  0  0  0  0
   11.5273  -20.8795   25.4546 O   0  0  0  0  0  0  0  0  0  0  0  0
   10.9105  -17.8031   29.2986 O   0  0  0  0  0  0  0  0  0  0  0  0
  2  1  1  0
  3  2  2  0
  4  3  1  0
  5 11  1  0
  5  4  2  0
  6  7  1  0
  6  5  1  0
  7  8  1  6
  9  7  1  0
  9 10  2  0
 11 12  2  0
 12  2  1  0
 13 14  1  0
 13  9  1  0
 14 15  1  1
 16 15  1  0
 17 18  2  0
 17 14  1  0
 19 17  1  0
 20 19  1  0
 20 25  1  0
 20 21  1  6
 22 21  1  0
 23 22  1  0
 24 23  2  0
 25 28  1  0
 26 25  2  0
 27 23  1  0
M  END
$$$$
