YCE.pdb
     RDKit          3D

 28 28  0  0  1  0  0  0  0  0999 V2000
    2.6621  -18.9980   18.7241 O   0  0  0  0  0  0  0  0  0  0  0  0
    3.6132  -18.4691   19.6160 C   0  0  0  0  0  0  0  0  0  0  0  0
    3.2336  -17.9124   20.8211 C   0  0  0  0  0  0  0  0  0  0  0  0
    4.1740  -17.3970   21.6917 C   0  0  0  0  0  0  0  0  0  0  0  0
    5.5293  -17.4116   21.4044 C   0  0  0  0  0  0  0  0  0  0  0  0
    6.5476  -16.8597   22.3337 C   0  0  0  0  0  0  0  0  0  0  0  0
    6.9733  -15.4583   22.0017 C   0  0  2  0  0  0  0  0  0  0  0  0
    7.6262  -15.3176   20.7360 N   0  0  0  0  0  0  0  0  0  0  0  0
    7.8808  -14.9941   23.0922 C   0  0  0  0  0  0  0  0  0  0  0  0
    9.1523  -15.0553   22.9414 O   0  0  0  0  0  0  0  0  0  0  0  0
    5.8904  -17.9721   20.1948 C   0  0  0  0  0  0  0  0  0  0  0  0
    4.9552  -18.4894   19.3198 C   0  0  0  0  0  0  0  0  0  0  0  0
    7.4273  -14.4783   24.3126 N   0  0  0  0  0  0  0  0  0  0  0  0
    8.1926  -14.3547   25.5165 C   0  0  1  0  0  0  0  0  0  0  0  0
    7.3991  -13.6010   26.5795 C   0  0  0  0  0  0  0  0  0  0  0  0
    6.8843  -11.9598   26.0276 S   0  0  0  0  0  0  0  0  0  0  0  0
    8.6342  -15.6282   26.0761 C   0  0  0  0  0  0  0  0  0  0  0  0
    7.8740  -16.6121   26.1964 O   0  0  0  0  0  0  0  0  0  0  0  0
    9.9793  -15.7729   26.5071 N   0  0  0  0  0  0  0  0  0  0  0  0
   10.4801  -17.0257   27.0957 C   0  0  1  0  0  0  0  0  0  0  0  0
   11.8098  -17.3784   26.4586 C   0  0  0  0  0  0  0  0  0  0  0  0
   11.6898  -17.7755   25.0167 C   0  0  0  0  0  0  0  0  0  0  0  0
   13.0783  -17.9772   24.4891 C   0  0  0  0  0  0  0  0  0  0  0  0
   13.4375  -19.1948   24.4289 O   0  0  0  0  0  0  0  0  0  0  0  0
   10.6611  -16.8761   28.5435 C   0  0  0  0  0  0  0  0  0  0  0  0
   10.4817  -15.7588   29.0780 O   0  0  0  0  0  0  0  0  0  0  0  0
   13.8970  -16.9499   24.1054 O   0  0  0  0  0  0  0  0  0  0  0  0
   11.0228  -17.9373   29.3322 O   0  0  0  0  0  0  0  0  0  0  0  0
  2  1  1  0
  3  2  2  0
  4  3  1  0
  5 11  1  0
  5  4  2  0
  6  7  1  0
  6  5  1  0
  7  8  1  6
  9  7  1  0
  9 10  2  0
 11 12  2  0
 12  2  1  0
 13 14  1  0
 13  9  1  0
 14 15  1  1
 16 15  1  0
 17 18  2  0
 17 14  1  0
 19 17  1  0
 20 19  1  0
 20 25  1  0
 20 21  1  6
 22 21  1  0
 23 22  1  0
 24 23  2  0
 25 28  1  0
 26 25  2  0
 27 23  1  0
M  END
$$$$
