YCE.pdb
     RDKit          3D

 28 28  0  0  1  0  0  0  0  0999 V2000
    5.2898  -10.5606   28.3315 O   0  0  0  0  0  0  0  0  0  0  0  0
    5.9011  -11.4995   27.4803 C   0  0  0  0  0  0  0  0  0  0  0  0
    5.2723  -11.9437   26.3342 C   0  0  0  0  0  0  0  0  0  0  0  0
    5.8802  -12.8642   25.5030 C   0  0  0  0  0  0  0  0  0  0  0  0
    7.1364  -13.3829   25.7729 C   0  0  0  0  0  0  0  0  0  0  0  0
    7.7979  -14.3730   24.8857 C   0  0  0  0  0  0  0  0  0  0  0  0
    7.0660  -15.6806   24.7866 C   0  0  2  0  0  0  0  0  0  0  0  0
    7.0081  -16.4254   26.0074 N   0  0  0  0  0  0  0  0  0  0  0  0
    7.7392  -16.4935   23.7310 C   0  0  0  0  0  0  0  0  0  0  0  0
    8.4360  -17.5194   24.0548 O   0  0  0  0  0  0  0  0  0  0  0  0
    7.7502  -12.9272   26.9232 C   0  0  0  0  0  0  0  0  0  0  0  0
    7.1479  -12.0067   27.7586 C   0  0  0  0  0  0  0  0  0  0  0  0
    7.6623  -16.2056   22.3626 N   0  0  0  0  0  0  0  0  0  0  0  0
    8.6253  -16.5656   21.3659 C   0  0  1  0  0  0  0  0  0  0  0  0
    8.3110  -15.8724   20.0437 C   0  0  0  0  0  0  0  0  0  0  0  0
    6.7931  -14.8958   20.1156 S   0  0  0  0  0  0  0  0  0  0  0  0
   10.0055  -16.2679   21.7350 C   0  0  0  0  0  0  0  0  0  0  0  0
   10.3021  -15.5082   22.6813 O   0  0  0  0  0  0  0  0  0  0  0  0
   11.0678  -16.8565   20.9994 N   0  0  0  0  0  0  0  0  0  0  0  0
   12.3850  -17.1170   21.6028 C   0  0  1  0  0  0  0  0  0  0  0  0
   12.2440  -18.1948   22.6596 C   0  0  0  0  0  0  0  0  0  0  0  0
   11.7909  -17.6665   23.9888 C   0  0  0  0  0  0  0  0  0  0  0  0
   12.3758  -18.5520   25.0474 C   0  0  0  0  0  0  0  0  0  0  0  0
   11.8135  -18.4435   26.1820 O   0  0  0  0  0  0  0  0  0  0  0  0
   13.3385  -17.5620   20.5810 C   0  0  0  0  0  0  0  0  0  0  0  0
   12.9267  -18.1959   19.5836 O   0  0  0  0  0  0  0  0  0  0  0  0
   13.4235  -19.4041   24.8251 O   0  0  0  0  0  0  0  0  0  0  0  0
   14.6792  -17.2979   20.6909 O   0  0  0  0  0  0  0  0  0  0  0  0
  2  1  1  0
  3  2  2  0
  4  3  1  0
  5 11  1  0
  5  4  2  0
  6  7  1  0
  6  5  1  0
  7  8  1  1
  9  7  1  0
  9 10  2  0
 11 12  2  0
 12  2  1  0
 13 14  1  0
 13  9  1  0
 14 15  1  6
 16 15  1  0
 17 18  2  0
 17 14  1  0
 19 17  1  0
 20 19  1  0
 20 25  1  0
 20 21  1  1
 22 21  1  0
 23 22  1  0
 24 23  2  0
 25 28  1  0
 26 25  2  0
 27 23  1  0
M  END
$$$$
