YCE.pdb
     RDKit          3D

 28 28  0  0  1  0  0  0  0  0999 V2000
    5.3751  -10.6002   28.3411 O   0  0  0  0  0  0  0  0  0  0  0  0
    6.0476  -11.5122   27.5071 C   0  0  0  0  0  0  0  0  0  0  0  0
    7.2357  -12.0978   27.8967 C   0  0  0  0  0  0  0  0  0  0  0  0
    7.8885  -12.9936   27.0725 C   0  0  0  0  0  0  0  0  0  0  0  0
    7.3915  -13.3462   25.8282 C   0  0  0  0  0  0  0  0  0  0  0  0
    8.0862  -14.3078   24.9350 C   0  0  0  0  0  0  0  0  0  0  0  0
    7.2800  -15.5363   24.6248 C   0  0  2  0  0  0  0  0  0  0  0  0
    6.9139  -16.3138   25.7692 N   0  0  0  0  0  0  0  0  0  0  0  0
    8.0799  -16.3724   23.6816 C   0  0  0  0  0  0  0  0  0  0  0  0
    8.6455  -17.4462   24.0940 O   0  0  0  0  0  0  0  0  0  0  0  0
    6.2024  -12.7506   25.4552 C   0  0  0  0  0  0  0  0  0  0  0  0
    5.5444  -11.8542   26.2746 C   0  0  0  0  0  0  0  0  0  0  0  0
    8.2644  -16.0567   22.3298 N   0  0  0  0  0  0  0  0  0  0  0  0
    9.2246  -16.6458   21.4459 C   0  0  1  0  0  0  0  0  0  0  0  0
    9.0659  -16.0874   20.0350 C   0  0  0  0  0  0  0  0  0  0  0  0
    7.4003  -16.3254   19.3777 S   0  0  0  0  0  0  0  0  0  0  0  0
   10.6107  -16.4686   21.8672 C   0  0  0  0  0  0  0  0  0  0  0  0
   11.1279  -15.3432   22.0294 O   0  0  0  0  0  0  0  0  0  0  0  0
   11.4194  -17.6109   22.1067 N   0  0  0  0  0  0  0  0  0  0  0  0
   12.7644  -17.5057   22.6955 C   0  0  1  0  0  0  0  0  0  0  0  0
   12.8443  -18.3996   23.9173 C   0  0  0  0  0  0  0  0  0  0  0  0
   12.0559  -17.8814   25.0840 C   0  0  0  0  0  0  0  0  0  0  0  0
   12.1533  -18.8994   26.1799 C   0  0  0  0  0  0  0  0  0  0  0  0
   12.6901  -18.4628   27.2459 O   0  0  0  0  0  0  0  0  0  0  0  0
   13.7833  -17.9194   21.7249 C   0  0  0  0  0  0  0  0  0  0  0  0
   14.9949  -17.7518   21.9895 O   0  0  0  0  0  0  0  0  0  0  0  0
   11.7096  -20.1880   26.0553 O   0  0  0  0  0  0  0  0  0  0  0  0
   13.4396  -18.4908   20.5273 O   0  0  0  0  0  0  0  0  0  0  0  0
  2  1  1  0
  3  2  2  0
  4  3  1  0
  5 11  1  0
  5  4  2  0
  6  7  1  0
  6  5  1  0
  7  8  1  1
  9  7  1  0
  9 10  2  0
 11 12  2  0
 12  2  1  0
 13 14  1  0
 13  9  1  0
 14 15  1  6
 16 15  1  0
 17 18  2  0
 17 14  1  0
 19 17  1  0
 20 19  1  0
 20 25  1  0
 20 21  1  1
 22 21  1  0
 23 22  1  0
 24 23  2  0
 25 28  1  0
 26 25  2  0
 27 23  1  0
M  END
$$$$
