YCE.pdb
     RDKit          3D

 28 28  0  0  1  0  0  0  0  0999 V2000
    7.4638  -14.2207   15.6131 O   0  0  0  0  0  0  0  0  0  0  0  0
    7.3887  -14.0284   17.0049 C   0  0  0  0  0  0  0  0  0  0  0  0
    6.6780  -14.8954   17.8107 C   0  0  0  0  0  0  0  0  0  0  0  0
    6.6109  -14.7004   19.1765 C   0  0  0  0  0  0  0  0  0  0  0  0
    7.2451  -13.6383   19.8005 C   0  0  0  0  0  0  0  0  0  0  0  0
    7.1786  -13.4201   21.2678 C   0  0  0  0  0  0  0  0  0  0  0  0
    8.2995  -14.0696   22.0275 C   0  0  2  0  0  0  0  0  0  0  0  0
    8.3448  -15.4959   21.9197 N   0  0  0  0  0  0  0  0  0  0  0  0
    8.1583  -13.6760   23.4605 C   0  0  0  0  0  0  0  0  0  0  0  0
    7.9779  -12.4467   23.7758 O   0  0  0  0  0  0  0  0  0  0  0  0
    7.9512  -12.7815   18.9788 C   0  0  0  0  0  0  0  0  0  0  0  0
    8.0224  -12.9709   17.6125 C   0  0  0  0  0  0  0  0  0  0  0  0
    8.2112  -14.5854   24.5241 N   0  0  0  0  0  0  0  0  0  0  0  0
    9.0165  -14.4653   25.7020 C   0  0  1  0  0  0  0  0  0  0  0  0
    8.2109  -13.8450   26.8395 C   0  0  0  0  0  0  0  0  0  0  0  0
    9.1221  -13.8147   28.3990 S   0  0  0  0  0  0  0  0  0  0  0  0
    9.5878  -15.7259   26.1650 C   0  0  0  0  0  0  0  0  0  0  0  0
    8.8858  -16.6764   26.5702 O   0  0  0  0  0  0  0  0  0  0  0  0
   10.9974  -15.8966   26.1625 N   0  0  0  0  0  0  0  0  0  0  0  0
   11.6315  -17.1614   26.5688 C   0  0  1  0  0  0  0  0  0  0  0  0
   12.9191  -17.3455   25.7900 C   0  0  0  0  0  0  0  0  0  0  0  0
   14.1049  -16.6984   26.4429 C   0  0  0  0  0  0  0  0  0  0  0  0
   15.2192  -16.6870   25.4403 C   0  0  0  0  0  0  0  0  0  0  0  0
   15.0935  -15.8023   24.5366 O   0  0  0  0  0  0  0  0  0  0  0  0
   11.9314  -17.1471   28.0044 C   0  0  0  0  0  0  0  0  0  0  0  0
   11.7082  -16.1134   28.6736 O   0  0  0  0  0  0  0  0  0  0  0  0
   16.2817  -17.5486   25.4822 O   0  0  0  0  0  0  0  0  0  0  0  0
   12.4524  -18.2460   28.6369 O   0  0  0  0  0  0  0  0  0  0  0  0
  2  1  1  0
  3  2  2  0
  4  3  1  0
  5 11  1  0
  5  4  2  0
  6  7  1  0
  6  5  1  0
  7  8  1  1
  9  7  1  0
  9 10  2  0
 11 12  2  0
 12  2  1  0
 13 14  1  0
 13  9  1  0
 14 15  1  1
 16 15  1  0
 17 18  2  0
 17 14  1  0
 19 17  1  0
 20 19  1  0
 20 25  1  0
 20 21  1  6
 22 21  1  0
 23 22  1  0
 24 23  2  0
 25 28  1  0
 26 25  2  0
 27 23  1  0
M  END
$$$$
