HFW.pdb
     RDKit          3D

 36 39  0  0  1  0  0  0  0  0999 V2000
   26.2093  -26.8478  -17.1111 N   0  0  0  0  0  0  0  0  0  0  0  0
   25.4560  -25.5800  -17.1121 C   0  0  1  0  0  0  0  0  0  0  0  0
   24.0185  -25.9157  -16.8212 C   0  0  0  0  0  0  0  0  0  0  0  0
   23.2864  -26.3891  -17.9926 C   0  0  0  0  0  0  0  0  0  0  0  0
   22.7961  -27.7038  -18.0599 C   0  0  0  0  0  0  0  0  0  0  0  0
   22.1876  -27.8022  -19.2468 N   0  0  0  0  0  0  0  0  0  0  0  0
   22.2712  -26.6311  -19.9165 C   0  0  0  0  0  0  0  0  0  0  0  0
   22.9431  -25.7847  -19.1371 N   0  0  0  0  0  0  0  0  0  0  0  0
   25.9917  -24.7124  -16.0140 C   0  0  0  0  0  0  0  0  0  0  0  0
   26.2742  -25.1191  -14.8682 O   0  0  0  0  0  0  0  0  0  0  0  0
   26.2072  -23.3186  -16.2592 N   0  0  0  0  0  0  0  0  0  0  0  0
   26.7761  -22.4797  -15.2225 C   0  0  1  0  0  0  0  0  0  0  0  0
   27.3753  -21.2162  -15.7912 C   0  0  0  0  0  0  0  0  0  0  0  0
   27.9548  -20.3338  -14.7470 C   0  0  0  0  0  0  0  0  0  0  0  0
   27.2382  -19.2381  -14.3085 C   0  0  0  0  0  0  0  0  0  0  0  0
   27.8160  -18.4442  -13.3316 C   0  0  0  0  0  0  0  0  0  0  0  0
   29.0684  -18.7233  -12.8004 C   0  0  0  0  0  0  0  0  0  0  0  0
   29.7742  -19.8058  -13.2351 C   0  0  0  0  0  0  0  0  0  0  0  0
   29.1983  -20.6089  -14.2181 C   0  0  0  0  0  0  0  0  0  0  0  0
   25.7383  -22.0557  -14.2393 C   0  0  0  0  0  0  0  0  0  0  0  0
   24.6006  -21.6431  -14.5834 O   0  0  0  0  0  0  0  0  0  0  0  0
   26.0837  -22.1348  -12.8625 N   0  0  0  0  0  0  0  0  0  0  0  0
   25.1484  -21.7950  -11.8046 C   0  0  1  0  0  0  0  0  0  0  0  0
   25.8218  -22.2627  -10.5068 C   0  0  0  0  0  0  0  0  0  0  0  0
   26.0050  -21.1525   -9.5643 C   0  0  0  0  0  0  0  0  0  0  0  0
   25.0687  -20.1883   -9.2020 C   0  0  0  0  0  0  0  0  0  0  0  0
   25.6324  -19.3490   -8.3140 N   0  0  0  0  0  0  0  0  0  0  0  0
   26.9057  -19.7604   -8.1058 C   0  0  0  0  0  0  0  0  0  0  0  0
   27.9041  -19.2567   -7.2979 C   0  0  0  0  0  0  0  0  0  0  0  0
   29.1388  -19.8884   -7.2763 C   0  0  0  0  0  0  0  0  0  0  0  0
   29.3866  -20.9944   -8.0351 C   0  0  0  0  0  0  0  0  0  0  0  0
   28.3901  -21.5124   -8.8534 C   0  0  0  0  0  0  0  0  0  0  0  0
   27.1619  -20.8841   -8.8749 C   0  0  0  0  0  0  0  0  0  0  0  0
   24.9736  -20.3260  -11.7844 C   0  0  0  0  0  0  0  0  0  0  0  0
   23.7772  -19.7227  -11.3958 O   0  0  0  0  0  0  0  0  0  0  0  0
   25.9079  -19.5735  -12.1201 O   0  0  0  0  0  0  0  0  0  0  0  0
  2  1  1  1
  3  2  1  0
  4  5  2  0
  4  3  1  0
  6  5  1  0
  7  8  2  0
  7  6  1  0
  8  4  1  0
  9  2  1  0
 10  9  2  0
 11  9  1  0
 12 11  1  0
 12 13  1  6
 13 14  1  0
 14 15  2  0
 15 16  1  0
 17 16  2  0
 18 17  1  0
 19 14  1  0
 19 18  2  0
 20 21  2  0
 20 12  1  0
 22 20  1  0
 23 22  1  0
 23 24  1  1
 24 25  1  0
 25 26  2  0
 25 33  1  0
 26 27  1  0
 27 28  1  0
 28 29  2  0
 29 30  1  0
 31 30  2  0
 32 31  1  0
 33 32  2  0
 33 28  1  0
 34 35  1  0
 34 23  1  0
 36 34  2  0
M  END
$$$$
