HFW.pdb
     RDKit          3D

 36 39  0  0  1  0  0  0  0  0999 V2000
   28.6235  -21.0498  -15.9509 N   0  0  0  0  0  0  0  0  0  0  0  0
   28.1933  -20.2481  -14.7904 C   0  0  1  0  0  0  0  0  0  0  0  0
   27.7293  -18.9168  -15.3159 C   0  0  0  0  0  0  0  0  0  0  0  0
   28.7610  -18.1953  -16.0556 C   0  0  0  0  0  0  0  0  0  0  0  0
   28.4760  -17.5791  -17.2854 C   0  0  0  0  0  0  0  0  0  0  0  0
   29.6233  -17.0187  -17.6833 N   0  0  0  0  0  0  0  0  0  0  0  0
   30.5987  -17.2500  -16.7766 C   0  0  0  0  0  0  0  0  0  0  0  0
   30.0544  -17.9671  -15.7944 N   0  0  0  0  0  0  0  0  0  0  0  0
   27.0418  -20.9479  -14.1346 C   0  0  0  0  0  0  0  0  0  0  0  0
   26.0975  -21.4822  -14.7518 O   0  0  0  0  0  0  0  0  0  0  0  0
   26.9878  -21.0292  -12.7065 N   0  0  0  0  0  0  0  0  0  0  0  0
   25.8513  -21.6540  -12.0584 C   0  0  1  0  0  0  0  0  0  0  0  0
   26.2269  -22.2511  -10.7237 C   0  0  0  0  0  0  0  0  0  0  0  0
   26.8184  -21.2556   -9.7943 C   0  0  0  0  0  0  0  0  0  0  0  0
   28.1784  -21.0193   -9.8268 C   0  0  0  0  0  0  0  0  0  0  0  0
   28.6866  -20.0808   -8.9441 C   0  0  0  0  0  0  0  0  0  0  0  0
   27.8748  -19.3925   -8.0520 C   0  0  0  0  0  0  0  0  0  0  0  0
   26.5321  -19.6275   -8.0216 C   0  0  0  0  0  0  0  0  0  0  0  0
   26.0144  -20.5710   -8.9075 C   0  0  0  0  0  0  0  0  0  0  0  0
   24.7676  -20.6645  -11.7943 C   0  0  0  0  0  0  0  0  0  0  0  0
   24.9880  -19.5244  -11.3099 O   0  0  0  0  0  0  0  0  0  0  0  0
   23.4405  -21.0601  -12.1161 N   0  0  0  0  0  0  0  0  0  0  0  0
   22.3041  -20.1685  -11.9646 C   0  0  1  0  0  0  0  0  0  0  0  0
   22.4594  -19.1257  -13.0802 C   0  0  0  0  0  0  0  0  0  0  0  0
   22.3594  -19.7397  -14.4096 C   0  0  0  0  0  0  0  0  0  0  0  0
   21.4448  -20.7013  -14.8298 C   0  0  0  0  0  0  0  0  0  0  0  0
   21.6911  -20.9998  -16.1185 N   0  0  0  0  0  0  0  0  0  0  0  0
   22.7420  -20.2482  -16.5242 C   0  0  0  0  0  0  0  0  0  0  0  0
   23.3885  -20.1692  -17.7403 C   0  0  0  0  0  0  0  0  0  0  0  0
   24.4571  -19.2961  -17.8818 C   0  0  0  0  0  0  0  0  0  0  0  0
   24.8816  -18.5158  -16.8468 C   0  0  0  0  0  0  0  0  0  0  0  0
   24.2395  -18.5853  -15.6164 C   0  0  0  0  0  0  0  0  0  0  0  0
   23.1766  -19.4537  -15.4756 C   0  0  0  0  0  0  0  0  0  0  0  0
   21.0632  -20.9482  -12.1683 C   0  0  0  0  0  0  0  0  0  0  0  0
   19.7961  -20.3954  -11.9817 O   0  0  0  0  0  0  0  0  0  0  0  0
   21.1174  -22.1425  -12.5188 O   0  0  0  0  0  0  0  0  0  0  0  0
  2  1  1  6
  3  2  1  0
  4  5  2  0
  4  3  1  0
  6  5  1  0
  7  8  2  0
  7  6  1  0
  8  4  1  0
  9  2  1  0
 10  9  2  0
 11  9  1  0
 12 11  1  0
 12 13  1  1
 13 14  1  0
 14 15  2  0
 15 16  1  0
 17 16  2  0
 18 17  1  0
 19 14  1  0
 19 18  2  0
 20 21  2  0
 20 12  1  0
 22 20  1  0
 23 22  1  0
 23 24  1  6
 24 25  1  0
 25 26  2  0
 25 33  1  0
 26 27  1  0
 27 28  1  0
 28 29  2  0
 29 30  1  0
 31 30  2  0
 32 31  1  0
 33 32  2  0
 33 28  1  0
 34 35  1  0
 34 23  1  0
 36 34  2  0
M  END
$$$$
