HFW.pdb
     RDKit          3D

 36 39  0  0  1  0  0  0  0  0999 V2000
   27.9916  -21.1207  -16.6045 N   0  0  0  0  0  0  0  0  0  0  0  0
   27.0753  -20.0907  -16.0813 C   0  0  1  0  0  0  0  0  0  0  0  0
   26.1701  -19.6835  -17.2121 C   0  0  0  0  0  0  0  0  0  0  0  0
   26.8692  -18.9953  -18.2937 C   0  0  0  0  0  0  0  0  0  0  0  0
   27.1207  -17.6146  -18.2329 C   0  0  0  0  0  0  0  0  0  0  0  0
   27.7660  -17.3146  -19.3652 N   0  0  0  0  0  0  0  0  0  0  0  0
   27.9290  -18.4230  -20.1213 C   0  0  0  0  0  0  0  0  0  0  0  0
   27.3768  -19.4345  -19.4525 N   0  0  0  0  0  0  0  0  0  0  0  0
   26.2534  -20.7023  -14.9876 C   0  0  0  0  0  0  0  0  0  0  0  0
   25.7211  -21.8294  -15.0518 O   0  0  0  0  0  0  0  0  0  0  0  0
   26.0438  -19.9743  -13.7730 N   0  0  0  0  0  0  0  0  0  0  0  0
   25.2645  -20.5621  -12.7009 C   0  0  1  0  0  0  0  0  0  0  0  0
   25.8948  -20.3164  -11.3513 C   0  0  0  0  0  0  0  0  0  0  0  0
   27.3186  -20.7345  -11.2969 C   0  0  0  0  0  0  0  0  0  0  0  0
   28.2425  -20.1083  -12.1098 C   0  0  0  0  0  0  0  0  0  0  0  0
   29.5595  -20.5284  -12.0242 C   0  0  0  0  0  0  0  0  0  0  0  0
   29.9558  -21.5400  -11.1592 C   0  0  0  0  0  0  0  0  0  0  0  0
   29.0417  -22.1569  -10.3575 C   0  0  0  0  0  0  0  0  0  0  0  0
   27.7145  -21.7388  -10.4389 C   0  0  0  0  0  0  0  0  0  0  0  0
   23.8938  -19.9779  -12.6452 C   0  0  0  0  0  0  0  0  0  0  0  0
   23.6649  -18.7554  -12.8356 O   0  0  0  0  0  0  0  0  0  0  0  0
   22.8234  -20.8700  -12.3628 N   0  0  0  0  0  0  0  0  0  0  0  0
   21.4335  -20.4490  -12.3821 C   0  0  1  0  0  0  0  0  0  0  0  0
   21.1735  -19.9862  -13.8225 C   0  0  0  0  0  0  0  0  0  0  0  0
   21.5914  -21.0000  -14.7981 C   0  0  0  0  0  0  0  0  0  0  0  0
   21.5358  -22.3836  -14.6556 C   0  0  0  0  0  0  0  0  0  0  0  0
   22.0149  -22.9543  -15.7760 N   0  0  0  0  0  0  0  0  0  0  0  0
   22.3729  -21.9623  -16.6256 C   0  0  0  0  0  0  0  0  0  0  0  0
   22.9125  -22.0017  -17.8946 C   0  0  0  0  0  0  0  0  0  0  0  0
   23.1862  -20.8100  -18.5496 C   0  0  0  0  0  0  0  0  0  0  0  0
   22.9339  -19.6027  -17.9673 C   0  0  0  0  0  0  0  0  0  0  0  0
   22.3905  -19.5483  -16.6896 C   0  0  0  0  0  0  0  0  0  0  0  0
   22.1182  -20.7337  -16.0380 C   0  0  0  0  0  0  0  0  0  0  0  0
   20.5832  -21.6171  -12.0634 C   0  0  0  0  0  0  0  0  0  0  0  0
   19.2234  -21.4936  -11.7773 O   0  0  0  0  0  0  0  0  0  0  0  0
   21.0676  -22.7646  -12.0417 O   0  0  0  0  0  0  0  0  0  0  0  0
  2  1  1  6
  3  2  1  0
  4  5  2  0
  4  3  1  0
  6  5  1  0
  7  8  2  0
  7  6  1  0
  8  4  1  0
  9  2  1  0
 10  9  2  0
 11  9  1  0
 12 11  1  0
 12 13  1  1
 13 14  1  0
 14 15  2  0
 15 16  1  0
 17 16  2  0
 18 17  1  0
 19 14  1  0
 19 18  2  0
 20 21  2  0
 20 12  1  0
 22 20  1  0
 23 22  1  0
 23 24  1  6
 24 25  1  0
 25 26  2  0
 25 33  1  0
 26 27  1  0
 27 28  1  0
 28 29  2  0
 29 30  1  0
 31 30  2  0
 32 31  1  0
 33 32  2  0
 33 28  1  0
 34 35  1  0
 34 23  1  0
 36 34  2  0
M  END
$$$$
