KHN.pdb
     RDKit          3D

 28 28  0  0  1  0  0  0  0  0999 V2000
   26.7202  -19.1286  -20.0279 N   0  0  0  0  0  0  0  0  0  0  0  0
   25.7027  -18.1397  -20.2484 C   0  0  1  0  0  0  0  0  0  0  0  0
   24.6774  -18.6356  -21.2050 C   0  0  0  0  0  0  0  0  0  0  0  0
   24.8730  -20.0230  -21.6521 C   0  0  0  0  0  0  0  0  0  0  0  0
   24.2414  -21.0496  -20.7633 C   0  0  0  0  0  0  0  0  0  0  0  0
   24.3987  -22.3924  -21.5268 C   0  0  0  0  0  0  0  0  0  0  0  0
   24.0172  -23.4290  -20.6098 N   0  0  0  0  0  0  0  0  0  0  0  0
   24.9725  -17.8381  -18.9568 C   0  0  0  0  0  0  0  0  0  0  0  0
   25.4934  -18.1559  -17.8566 O   0  0  0  0  0  0  0  0  0  0  0  0
   23.7013  -17.1987  -18.9539 N   0  0  0  0  0  0  0  0  0  0  0  0
   23.0866  -16.8376  -17.6929 C   0  0  1  0  0  0  0  0  0  0  0  0
   22.4427  -15.4703  -17.7436 C   0  0  0  0  0  0  0  0  0  0  0  0
   21.8466  -15.0639  -16.4706 C   0  0  0  0  0  0  0  0  0  0  0  0
   21.8556  -15.7270  -15.2710 C   0  0  0  0  0  0  0  0  0  0  0  0
   21.1820  -14.9605  -14.3998 N   0  0  0  0  0  0  0  0  0  0  0  0
   20.7508  -13.8427  -15.0059 C   0  0  0  0  0  0  0  0  0  0  0  0
   21.1670  -13.9235  -16.2727 N   0  0  0  0  0  0  0  0  0  0  0  0
   22.1051  -17.8948  -17.2640 C   0  0  0  0  0  0  0  0  0  0  0  0
   21.3592  -18.4765  -18.0963 O   0  0  0  0  0  0  0  0  0  0  0  0
   19.4949  -21.2442  -14.1418 N   0  0  0  0  0  0  0  0  0  0  0  0
   20.5054  -20.5958  -13.3748 C   0  0  0  0  0  0  0  0  0  0  0  0
   20.5956  -20.9044  -12.1840 O   0  0  0  0  0  0  0  0  0  0  0  0
   21.3519  -19.6243  -14.0431 C   0  0  0  0  0  0  0  0  0  0  0  0
   21.0202  -19.3352  -15.4883 C   0  0  2  0  0  0  0  0  0  0  0  0
   21.9805  -18.2792  -15.9046 N   0  0  0  0  0  0  0  0  0  0  0  0
   19.6688  -18.7453  -15.5473 C   0  0  0  0  0  0  0  0  0  0  0  0
   19.4833  -17.5529  -15.2643 O   0  0  0  0  0  0  0  0  0  0  0  0
   18.5956  -19.5260  -15.9213 O   0  0  0  0  0  0  0  0  0  0  0  0
  2  3  1  0
  2  1  1  1
  3  4  1  0
  5  4  1  0
  5  6  1  0
  7  6  1  0
  8  9  2  0
  8  2  1  0
 10  8  1  0
 11 10  1  0
 11 12  1  6
 13 12  1  0
 14 13  2  0
 15 14  1  0
 16 15  1  0
 16 17  2  0
 17 13  1  0
 18 11  1  0
 18 19  2  0
 21 20  1  0
 21 22  2  0
 23 21  1  0
 24 25  1  0
 24 23  1  1
 25 18  1  0
 26 24  1  0
 27 26  2  0
 28 26  1  0
M  END
$$$$
