KHN.pdb
     RDKit          3D

 28 28  0  0  1  0  0  0  0  0999 V2000
   16.1890  -10.0700  -15.7224 N   0  0  0  0  0  0  0  0  0  0  0  0
   15.6510  -10.3665  -14.4245 C   0  0  1  0  0  0  0  0  0  0  0  0
   15.9796  -11.7590  -14.0181 C   0  0  0  0  0  0  0  0  0  0  0  0
   15.5205  -12.7975  -14.9528 C   0  0  0  0  0  0  0  0  0  0  0  0
   15.7896  -14.1979  -14.4956 C   0  0  0  0  0  0  0  0  0  0  0  0
   15.2163  -15.1036  -15.6189 C   0  0  0  0  0  0  0  0  0  0  0  0
   15.5595  -16.4529  -15.2686 N   0  0  0  0  0  0  0  0  0  0  0  0
   16.2654   -9.4593  -13.3797 C   0  0  0  0  0  0  0  0  0  0  0  0
   16.1448   -9.7415  -12.1596 O   0  0  0  0  0  0  0  0  0  0  0  0
   16.9823   -8.2854  -13.7441 N   0  0  0  0  0  0  0  0  0  0  0  0
   17.6076   -7.4820  -12.7136 C   0  0  1  0  0  0  0  0  0  0  0  0
   18.8241   -6.7442  -13.2258 C   0  0  0  0  0  0  0  0  0  0  0  0
   19.8937   -7.6349  -13.6768 C   0  0  0  0  0  0  0  0  0  0  0  0
   19.9554   -9.0025  -13.6061 C   0  0  0  0  0  0  0  0  0  0  0  0
   21.1284   -9.3656  -14.1467 N   0  0  0  0  0  0  0  0  0  0  0  0
   21.8050   -8.2797  -14.5537 C   0  0  0  0  0  0  0  0  0  0  0  0
   21.0337   -7.2297  -14.2580 N   0  0  0  0  0  0  0  0  0  0  0  0
   16.6068   -6.5392  -12.1015 C   0  0  0  0  0  0  0  0  0  0  0  0
   15.7280   -5.9679  -12.8007 O   0  0  0  0  0  0  0  0  0  0  0  0
   14.9105   -7.6530   -7.3006 N   0  0  0  0  0  0  0  0  0  0  0  0
   14.6537   -6.8547   -8.4524 C   0  0  0  0  0  0  0  0  0  0  0  0
   13.7231   -7.2018   -9.1839 O   0  0  0  0  0  0  0  0  0  0  0  0
   15.4987   -5.6972   -8.6831 C   0  0  0  0  0  0  0  0  0  0  0  0
   15.6662   -5.2721  -10.1230 C   0  0  2  0  0  0  0  0  0  0  0  0
   16.6128   -6.2557  -10.7120 N   0  0  0  0  0  0  0  0  0  0  0  0
   16.3327   -3.9558  -10.1458 C   0  0  0  0  0  0  0  0  0  0  0  0
   17.5179   -3.8498  -10.4932 O   0  0  0  0  0  0  0  0  0  0  0  0
   15.6330   -2.8263   -9.7771 O   0  0  0  0  0  0  0  0  0  0  0  0
  2  3  1  0
  2  1  1  6
  3  4  1  0
  5  4  1  0
  5  6  1  0
  7  6  1  0
  8  9  2  0
  8  2  1  0
 10  8  1  0
 11 10  1  0
 11 12  1  6
 13 12  1  0
 14 13  2  0
 15 14  1  0
 16 15  1  0
 16 17  2  0
 17 13  1  0
 18 11  1  0
 18 19  2  0
 21 20  1  0
 21 22  2  0
 23 21  1  0
 24 25  1  0
 24 23  1  1
 25 18  1  0
 26 24  1  0
 27 26  2  0
 28 26  1  0
M  END
$$$$
