KHN.pdb
     RDKit          3D

 28 28  0  0  1  0  0  0  0  0999 V2000
   20.5679  -11.1850  -16.0390 N   0  0  0  0  0  0  0  0  0  0  0  0
   19.8482  -10.2331  -16.8376 C   0  0  1  0  0  0  0  0  0  0  0  0
   18.4903  -10.7390  -17.1732 C   0  0  0  0  0  0  0  0  0  0  0  0
   18.4667  -12.0699  -17.7986 C   0  0  0  0  0  0  0  0  0  0  0  0
   17.0914  -12.6148  -18.0315 C   0  0  0  0  0  0  0  0  0  0  0  0
   17.3158  -14.0569  -18.5612 C   0  0  0  0  0  0  0  0  0  0  0  0
   17.2622  -14.9234  -17.4178 N   0  0  0  0  0  0  0  0  0  0  0  0
   19.6469   -8.9449  -16.0680 C   0  0  0  0  0  0  0  0  0  0  0  0
   18.9660   -8.0158  -16.5737 O   0  0  0  0  0  0  0  0  0  0  0  0
   20.2124   -8.7553  -14.7761 N   0  0  0  0  0  0  0  0  0  0  0  0
   19.8918   -7.5589  -14.0250 C   0  0  1  0  0  0  0  0  0  0  0  0
   19.7699   -7.8320  -12.5427 C   0  0  0  0  0  0  0  0  0  0  0  0
   18.5092   -8.4772  -12.1749 C   0  0  0  0  0  0  0  0  0  0  0  0
   17.5265   -8.9659  -12.9961 C   0  0  0  0  0  0  0  0  0  0  0  0
   16.5685   -9.4638  -12.1996 N   0  0  0  0  0  0  0  0  0  0  0  0
   16.9115   -9.3066  -10.9111 C   0  0  0  0  0  0  0  0  0  0  0  0
   18.1024   -8.7011  -10.9156 N   0  0  0  0  0  0  0  0  0  0  0  0
   20.8978   -6.4755  -14.3062 C   0  0  0  0  0  0  0  0  0  0  0  0
   22.1362   -6.7068  -14.2875 O   0  0  0  0  0  0  0  0  0  0  0  0
   23.1418   -2.2201  -16.1689 N   0  0  0  0  0  0  0  0  0  0  0  0
   22.5348   -3.1802  -17.0289 C   0  0  0  0  0  0  0  0  0  0  0  0
   22.7759   -3.0902  -18.2351 O   0  0  0  0  0  0  0  0  0  0  0  0
   21.6811   -4.1900  -16.4300 C   0  0  0  0  0  0  0  0  0  0  0  0
   21.4874   -4.0960  -14.9347 C   0  0  2  0  0  0  0  0  0  0  0  0
   20.4920   -5.1497  -14.6039 N   0  0  0  0  0  0  0  0  0  0  0  0
   20.8649   -2.7940  -14.6264 C   0  0  0  0  0  0  0  0  0  0  0  0
   21.5424   -1.7563  -14.6007 O   0  0  0  0  0  0  0  0  0  0  0  0
   19.5133   -2.7254  -14.3630 O   0  0  0  0  0  0  0  0  0  0  0  0
  2  3  1  0
  2  1  1  1
  3  4  1  0
  5  4  1  0
  5  6  1  0
  7  6  1  0
  8  9  2  0
  8  2  1  0
 10  8  1  0
 11 10  1  0
 11 12  1  1
 13 12  1  0
 14 13  2  0
 15 14  1  0
 16 15  1  0
 16 17  2  0
 17 13  1  0
 18 11  1  0
 18 19  2  0
 21 20  1  0
 21 22  2  0
 23 21  1  0
 24 25  1  0
 24 23  1  6
 25 18  1  0
 26 24  1  0
 27 26  2  0
 28 26  1  0
M  END
$$$$
