KHN.pdb
     RDKit          3D

 28 28  0  0  1  0  0  0  0  0999 V2000
   16.8440  -25.1818   -4.5752 N   0  0  0  0  0  0  0  0  0  0  0  0
   17.4529  -25.7824   -5.7286 C   0  0  1  0  0  0  0  0  0  0  0  0
   16.6421  -26.9274   -6.2225 C   0  0  0  0  0  0  0  0  0  0  0  0
   16.7252  -28.1417   -5.3970 C   0  0  0  0  0  0  0  0  0  0  0  0
   18.0764  -28.3872   -4.7998 C   0  0  0  0  0  0  0  0  0  0  0  0
   17.9265  -29.7082   -3.9979 C   0  0  0  0  0  0  0  0  0  0  0  0
   19.1969  -29.9531   -3.3756 N   0  0  0  0  0  0  0  0  0  0  0  0
   17.5235  -24.7858   -6.8661 C   0  0  0  0  0  0  0  0  0  0  0  0
   16.6234  -23.9157   -6.9903 O   0  0  0  0  0  0  0  0  0  0  0  0
   18.5908  -24.8068   -7.8070 N   0  0  0  0  0  0  0  0  0  0  0  0
   18.6624  -23.7822   -8.8285 C   0  0  1  0  0  0  0  0  0  0  0  0
   20.0238  -23.7254   -9.4843 C   0  0  0  0  0  0  0  0  0  0  0  0
   20.1216  -22.7036  -10.5270 C   0  0  0  0  0  0  0  0  0  0  0  0
   19.1356  -21.8919  -11.0250 C   0  0  0  0  0  0  0  0  0  0  0  0
   19.7057  -21.1216  -11.9640 N   0  0  0  0  0  0  0  0  0  0  0  0
   21.0105  -21.4183  -12.0747 C   0  0  0  0  0  0  0  0  0  0  0  0
   21.2468  -22.3886  -11.1874 N   0  0  0  0  0  0  0  0  0  0  0  0
   17.5678  -23.9735   -9.8435 C   0  0  0  0  0  0  0  0  0  0  0  0
   17.2242  -25.1217  -10.2320 O   0  0  0  0  0  0  0  0  0  0  0  0
   13.6433  -22.8179  -13.1604 N   0  0  0  0  0  0  0  0  0  0  0  0
   13.9461  -21.6659  -12.3788 C   0  0  0  0  0  0  0  0  0  0  0  0
   13.2407  -20.6681  -12.5471 O   0  0  0  0  0  0  0  0  0  0  0  0
   15.0552  -21.7460  -11.4459 C   0  0  0  0  0  0  0  0  0  0  0  0
   15.7942  -23.0628  -11.4022 C   0  0  2  0  0  0  0  0  0  0  0  0
   16.8786  -22.8681  -10.4038 N   0  0  0  0  0  0  0  0  0  0  0  0
   16.4391  -23.2790  -12.7118 C   0  0  0  0  0  0  0  0  0  0  0  0
   15.9533  -24.0664  -13.5368 O   0  0  0  0  0  0  0  0  0  0  0  0
   17.5965  -22.5991  -13.0268 O   0  0  0  0  0  0  0  0  0  0  0  0
  2  3  1  0
  2  1  1  1
  3  4  1  0
  5  4  1  0
  5  6  1  0
  7  6  1  0
  8  9  2  0
  8  2  1  0
 10  8  1  0
 11 10  1  0
 11 12  1  6
 13 12  1  0
 14 13  2  0
 15 14  1  0
 16 15  1  0
 16 17  2  0
 17 13  1  0
 18 11  1  0
 18 19  2  0
 21 20  1  0
 21 22  2  0
 23 21  1  0
 24 25  1  0
 24 23  1  6
 25 18  1  0
 26 24  1  0
 27 26  2  0
 28 26  1  0
M  END
$$$$
