KHN.pdb
     RDKit          3D

 28 28  0  0  1  0  0  0  0  0999 V2000
   26.9899  -24.1237  -16.0401 N   0  0  0  0  0  0  0  0  0  0  0  0
   27.5714  -22.8112  -16.0701 C   0  0  1  0  0  0  0  0  0  0  0  0
   28.6473  -22.7295  -17.0938 C   0  0  0  0  0  0  0  0  0  0  0  0
   29.1997  -24.0271  -17.5109 C   0  0  0  0  0  0  0  0  0  0  0  0
   30.4665  -24.4095  -16.8098 C   0  0  0  0  0  0  0  0  0  0  0  0
   30.8908  -25.7567  -17.4546 C   0  0  0  0  0  0  0  0  0  0  0  0
   32.1179  -26.1440  -16.8180 N   0  0  0  0  0  0  0  0  0  0  0  0
   26.5309  -21.7828  -16.4597 C   0  0  0  0  0  0  0  0  0  0  0  0
   26.8951  -20.6448  -16.8536 O   0  0  0  0  0  0  0  0  0  0  0  0
   25.1392  -22.0716  -16.3919 N   0  0  0  0  0  0  0  0  0  0  0  0
   24.1821  -21.0849  -16.8490 C   0  0  1  0  0  0  0  0  0  0  0  0
   23.4925  -21.5087  -18.1262 C   0  0  0  0  0  0  0  0  0  0  0  0
   24.3546  -21.4227  -19.3054 C   0  0  0  0  0  0  0  0  0  0  0  0
   24.8735  -22.4410  -20.0622 C   0  0  0  0  0  0  0  0  0  0  0  0
   25.5997  -21.8693  -21.0348 N   0  0  0  0  0  0  0  0  0  0  0  0
   25.5569  -20.5324  -20.9177 C   0  0  0  0  0  0  0  0  0  0  0  0
   24.7902  -20.2777  -19.8537 N   0  0  0  0  0  0  0  0  0  0  0  0
   23.1888  -20.7722  -15.7625 C   0  0  0  0  0  0  0  0  0  0  0  0
   22.9298  -21.6010  -14.8496 O   0  0  0  0  0  0  0  0  0  0  0  0
   19.6942  -18.0662  -12.8845 N   0  0  0  0  0  0  0  0  0  0  0  0
   20.1428  -17.2415  -13.9562 C   0  0  0  0  0  0  0  0  0  0  0  0
   19.6358  -16.1216  -14.0572 O   0  0  0  0  0  0  0  0  0  0  0  0
   21.1576  -17.7726  -14.8479 C   0  0  0  0  0  0  0  0  0  0  0  0
   21.5400  -19.2185  -14.6346 C   0  0  2  0  0  0  0  0  0  0  0  0
   22.5041  -19.5310  -15.7224 N   0  0  0  0  0  0  0  0  0  0  0  0
   20.3443  -20.0544  -14.8563 C   0  0  0  0  0  0  0  0  0  0  0  0
   19.9756  -20.3440  -16.0037 O   0  0  0  0  0  0  0  0  0  0  0  0
   19.6248  -20.5219  -13.7770 O   0  0  0  0  0  0  0  0  0  0  0  0
  2  3  1  0
  2  1  1  6
  3  4  1  0
  5  4  1  0
  5  6  1  0
  7  6  1  0
  8  9  2  0
  8  2  1  0
 10  8  1  0
 11 10  1  0
 11 12  1  6
 13 12  1  0
 14 13  2  0
 15 14  1  0
 16 15  1  0
 16 17  2  0
 17 13  1  0
 18 11  1  0
 18 19  2  0
 21 20  1  0
 21 22  2  0
 23 21  1  0
 24 25  1  0
 24 23  1  6
 25 18  1  0
 26 24  1  0
 27 26  2  0
 28 26  1  0
M  END
$$$$
