KHN.pdb
     RDKit          3D

 28 28  0  0  1  0  0  0  0  0999 V2000
   33.6513  -34.6752   -5.4869 N   0  0  0  0  0  0  0  0  0  0  0  0
   32.5415  -35.5852   -5.5330 C   0  0  1  0  0  0  0  0  0  0  0  0
   32.5995  -36.5522   -4.4044 C   0  0  0  0  0  0  0  0  0  0  0  0
   33.6932  -37.5318   -4.4889 C   0  0  0  0  0  0  0  0  0  0  0  0
   33.4937  -38.5867   -5.5330 C   0  0  0  0  0  0  0  0  0  0  0  0
   34.7492  -39.4945   -5.4308 C   0  0  0  0  0  0  0  0  0  0  0  0
   34.6172  -40.4887   -6.4580 N   0  0  0  0  0  0  0  0  0  0  0  0
   31.2364  -34.8323   -5.3850 C   0  0  0  0  0  0  0  0  0  0  0  0
   31.0351  -34.1274   -4.3626 O   0  0  0  0  0  0  0  0  0  0  0  0
   30.2221  -34.9010   -6.3807 N   0  0  0  0  0  0  0  0  0  0  0  0
   28.9747  -34.1926   -6.1792 C   0  0  1  0  0  0  0  0  0  0  0  0
   28.3396  -33.7738   -7.4861 C   0  0  0  0  0  0  0  0  0  0  0  0
   27.0463  -33.1113   -7.3149 C   0  0  0  0  0  0  0  0  0  0  0  0
   26.3574  -32.8657   -6.1556 C   0  0  0  0  0  0  0  0  0  0  0  0
   25.2256  -32.2350   -6.5039 N   0  0  0  0  0  0  0  0  0  0  0  0
   25.1774  -32.0755   -7.8362 C   0  0  0  0  0  0  0  0  0  0  0  0
   26.3002  -32.6179   -8.3155 N   0  0  0  0  0  0  0  0  0  0  0  0
   28.0306  -35.0159   -5.3451 C   0  0  0  0  0  0  0  0  0  0  0  0
   27.6642  -36.1656   -5.7076 O   0  0  0  0  0  0  0  0  0  0  0  0
   28.9526  -36.6940   -2.4801 N   0  0  0  0  0  0  0  0  0  0  0  0
   28.3488  -35.8535   -1.5009 C   0  0  0  0  0  0  0  0  0  0  0  0
   28.9128  -35.7651   -0.4075 O   0  0  0  0  0  0  0  0  0  0  0  0
   27.1211  -35.1649   -1.8555 C   0  0  0  0  0  0  0  0  0  0  0  0
   26.6278  -35.3696   -3.2687 C   0  0  2  0  0  0  0  0  0  0  0  0
   27.5151  -34.5304   -4.1165 N   0  0  0  0  0  0  0  0  0  0  0  0
   25.2663  -34.8101   -3.3726 C   0  0  0  0  0  0  0  0  0  0  0  0
   25.0575  -33.7582   -3.9942 O   0  0  0  0  0  0  0  0  0  0  0  0
   24.2095  -35.4616   -2.7727 O   0  0  0  0  0  0  0  0  0  0  0  0
  2  3  1  0
  2  1  1  1
  3  4  1  0
  5  4  1  0
  5  6  1  0
  7  6  1  0
  8  9  2  0
  8  2  1  0
 10  8  1  0
 11 10  1  0
 11 12  1  6
 13 12  1  0
 14 13  2  0
 15 14  1  0
 16 15  1  0
 16 17  2  0
 17 13  1  0
 18 11  1  0
 18 19  2  0
 21 20  1  0
 21 22  2  0
 23 21  1  0
 24 25  1  0
 24 23  1  1
 25 18  1  0
 26 24  1  0
 27 26  2  0
 28 26  1  0
M  END
$$$$
