KHN.pdb
     RDKit          3D

 28 28  0  0  1  0  0  0  0  0999 V2000
   27.5048  -23.0413  -17.1827 N   0  0  0  0  0  0  0  0  0  0  0  0
   28.0335  -21.8016  -16.6872 C   0  0  1  0  0  0  0  0  0  0  0  0
   28.6072  -20.9885  -17.7926 C   0  0  0  0  0  0  0  0  0  0  0  0
   29.8811  -21.4907  -18.3290 C   0  0  0  0  0  0  0  0  0  0  0  0
   29.7359  -22.6245  -19.2965 C   0  0  0  0  0  0  0  0  0  0  0  0
   31.1898  -23.0399  -19.6488 C   0  0  0  0  0  0  0  0  0  0  0  0
   31.0903  -24.2124  -20.4711 N   0  0  0  0  0  0  0  0  0  0  0  0
   26.9308  -20.9678  -16.0701 C   0  0  0  0  0  0  0  0  0  0  0  0
   27.1949  -19.8282  -15.6071 O   0  0  0  0  0  0  0  0  0  0  0  0
   25.5914  -21.4428  -15.9992 N   0  0  0  0  0  0  0  0  0  0  0  0
   24.5704  -20.6124  -15.3938 C   0  0  1  0  0  0  0  0  0  0  0  0
   23.4315  -20.3243  -16.3459 C   0  0  0  0  0  0  0  0  0  0  0  0
   23.5835  -19.0584  -17.0638 C   0  0  0  0  0  0  0  0  0  0  0  0
   24.5372  -18.0884  -16.8956 C   0  0  0  0  0  0  0  0  0  0  0  0
   24.2635  -17.1186  -17.7814 N   0  0  0  0  0  0  0  0  0  0  0  0
   23.1756  -17.4421  -18.4986 C   0  0  0  0  0  0  0  0  0  0  0  0
   22.7732  -18.6327  -18.0455 N   0  0  0  0  0  0  0  0  0  0  0  0
   24.0773  -21.2329  -14.1144 C   0  0  0  0  0  0  0  0  0  0  0  0
   23.8515  -22.4694  -14.0274 O   0  0  0  0  0  0  0  0  0  0  0  0
   25.6315  -22.0845  -10.5430 N   0  0  0  0  0  0  0  0  0  0  0  0
   25.1782  -20.8315  -10.0386 C   0  0  0  0  0  0  0  0  0  0  0  0
   25.8642  -20.2923   -9.1667 O   0  0  0  0  0  0  0  0  0  0  0  0
   23.9498  -20.2809  -10.5817 C   0  0  0  0  0  0  0  0  0  0  0  0
   23.3125  -21.0598  -11.7083 C   0  0  2  0  0  0  0  0  0  0  0  0
   23.8470  -20.4503  -12.9546 N   0  0  0  0  0  0  0  0  0  0  0  0
   21.8589  -20.8065  -11.6860 C   0  0  0  0  0  0  0  0  0  0  0  0
   21.3787  -19.8118  -12.2485 O   0  0  0  0  0  0  0  0  0  0  0  0
   21.0198  -21.6843  -11.0329 O   0  0  0  0  0  0  0  0  0  0  0  0
  2  3  1  0
  2  1  1  6
  3  4  1  0
  5  4  1  0
  5  6  1  0
  7  6  1  0
  8  9  2  0
  8  2  1  0
 10  8  1  0
 11 10  1  0
 11 12  1  6
 13 12  1  0
 14 13  2  0
 15 14  1  0
 16 15  1  0
 16 17  2  0
 17 13  1  0
 18 11  1  0
 18 19  2  0
 21 20  1  0
 21 22  2  0
 23 21  1  0
 24 25  1  0
 24 23  1  1
 25 18  1  0
 26 24  1  0
 27 26  2  0
 28 26  1  0
M  END
$$$$
