KHN.pdb
     RDKit          3D

 28 28  0  0  1  0  0  0  0  0999 V2000
   23.6409  -14.8631  -18.6682 N   0  0  0  0  0  0  0  0  0  0  0  0
   22.5448  -13.9379  -18.6024 C   0  0  1  0  0  0  0  0  0  0  0  0
   21.2869  -14.6304  -18.2147 C   0  0  0  0  0  0  0  0  0  0  0  0
   20.9865  -15.8419  -18.9925 C   0  0  0  0  0  0  0  0  0  0  0  0
   19.6255  -16.4130  -18.7388 C   0  0  0  0  0  0  0  0  0  0  0  0
   19.5438  -17.6719  -19.6440 C   0  0  0  0  0  0  0  0  0  0  0  0
   18.2754  -18.2869  -19.3722 N   0  0  0  0  0  0  0  0  0  0  0  0
   22.8022  -12.8910  -17.5395 C   0  0  0  0  0  0  0  0  0  0  0  0
   22.2879  -13.0204  -16.3986 O   0  0  0  0  0  0  0  0  0  0  0  0
   23.6179  -11.7542  -17.7985 N   0  0  0  0  0  0  0  0  0  0  0  0
   23.8257  -10.7717  -16.7546 C   0  0  1  0  0  0  0  0  0  0  0  0
   25.2828  -10.3947  -16.6086 C   0  0  0  0  0  0  0  0  0  0  0  0
   26.1249  -11.5030  -16.1575 C   0  0  0  0  0  0  0  0  0  0  0  0
   25.7579  -12.7887  -15.8555 C   0  0  0  0  0  0  0  0  0  0  0  0
   26.8756  -13.4347  -15.4901 N   0  0  0  0  0  0  0  0  0  0  0  0
   27.9293  -12.6047  -15.5509 C   0  0  0  0  0  0  0  0  0  0  0  0
   27.4505  -11.4270  -15.9613 N   0  0  0  0  0  0  0  0  0  0  0  0
   22.9631   -9.5614  -16.9915 C   0  0  0  0  0  0  0  0  0  0  0  0
   22.9548   -8.9667  -18.1023 O   0  0  0  0  0  0  0  0  0  0  0  0
   19.3535   -5.8270  -16.1879 N   0  0  0  0  0  0  0  0  0  0  0  0
   18.9225   -7.1280  -15.7990 C   0  0  0  0  0  0  0  0  0  0  0  0
   17.7261   -7.2711  -15.5353 O   0  0  0  0  0  0  0  0  0  0  0  0
   19.9139   -8.1867  -15.7407 C   0  0  0  0  0  0  0  0  0  0  0  0
   21.3061   -7.8206  -16.1988 C   0  0  2  0  0  0  0  0  0  0  0  0
   22.1240   -9.0415  -15.9734 N   0  0  0  0  0  0  0  0  0  0  0  0
   21.8304   -6.7713  -15.3035 C   0  0  0  0  0  0  0  0  0  0  0  0
   22.3575   -7.0652  -14.2208 O   0  0  0  0  0  0  0  0  0  0  0  0
   21.7355   -5.4458  -15.6712 O   0  0  0  0  0  0  0  0  0  0  0  0
  2  3  1  0
  2  1  1  1
  3  4  1  0
  5  4  1  0
  5  6  1  0
  7  6  1  0
  8  9  2  0
  8  2  1  0
 10  8  1  0
 11 10  1  0
 11 12  1  6
 13 12  1  0
 14 13  2  0
 15 14  1  0
 16 15  1  0
 16 17  2  0
 17 13  1  0
 18 11  1  0
 18 19  2  0
 21 20  1  0
 21 22  2  0
 23 21  1  0
 24 25  1  0
 24 23  1  1
 25 18  1  0
 26 24  1  0
 27 26  2  0
 28 26  1  0
M  END
$$$$
