KHN.pdb
     RDKit          3D

 28 28  0  0  1  0  0  0  0  0999 V2000
   23.0852  -12.8329  -17.4799 N   0  0  0  0  0  0  0  0  0  0  0  0
   22.6054  -11.8133  -18.3699 C   0  0  1  0  0  0  0  0  0  0  0  0
   21.8542  -12.4100  -19.5065 C   0  0  0  0  0  0  0  0  0  0  0  0
   22.3039  -13.7525  -19.9043 C   0  0  0  0  0  0  0  0  0  0  0  0
   23.6969  -13.7964  -20.4524 C   0  0  0  0  0  0  0  0  0  0  0  0
   24.2499  -15.1848  -20.0316 C   0  0  0  0  0  0  0  0  0  0  0  0
   23.9029  -16.0972  -21.0843 N   0  0  0  0  0  0  0  0  0  0  0  0
   21.6373  -10.8986  -17.6501 C   0  0  0  0  0  0  0  0  0  0  0  0
   21.0532   -9.9836  -18.2859 O   0  0  0  0  0  0  0  0  0  0  0  0
   21.3678  -11.0475  -16.2608 N   0  0  0  0  0  0  0  0  0  0  0  0
   20.4991  -10.0978  -15.5962 C   0  0  1  0  0  0  0  0  0  0  0  0
   19.6429  -10.7534  -14.5362 C   0  0  0  0  0  0  0  0  0  0  0  0
   18.4685  -11.4352  -15.0811 C   0  0  0  0  0  0  0  0  0  0  0  0
   18.0316  -11.4816  -16.3795 C   0  0  0  0  0  0  0  0  0  0  0  0
   16.9159  -12.2268  -16.3862 N   0  0  0  0  0  0  0  0  0  0  0  0
   16.6357  -12.6495  -15.1431 C   0  0  0  0  0  0  0  0  0  0  0  0
   17.5968  -12.1553  -14.3578 N   0  0  0  0  0  0  0  0  0  0  0  0
   21.3014   -8.9570  -15.0306 C   0  0  0  0  0  0  0  0  0  0  0  0
   22.3145   -9.1592  -14.3092 O   0  0  0  0  0  0  0  0  0  0  0  0
   22.9958   -4.0292  -14.2613 N   0  0  0  0  0  0  0  0  0  0  0  0
   22.3552   -4.1581  -15.5273 C   0  0  0  0  0  0  0  0  0  0  0  0
   22.3931   -3.1826  -16.2812 O   0  0  0  0  0  0  0  0  0  0  0  0
   21.7072   -5.4189  -15.8394 C   0  0  0  0  0  0  0  0  0  0  0  0
   21.7758   -6.4847  -14.7709 C   0  0  2  0  0  0  0  0  0  0  0  0
   20.9491   -7.6075  -15.2870 N   0  0  0  0  0  0  0  0  0  0  0  0
   21.1095   -5.9723  -13.5581 C   0  0  0  0  0  0  0  0  0  0  0  0
   19.9230   -6.2433  -13.3225 O   0  0  0  0  0  0  0  0  0  0  0  0
   21.8108   -5.1819  -12.6724 O   0  0  0  0  0  0  0  0  0  0  0  0
  2  3  1  0
  2  1  1  1
  3  4  1  0
  5  4  1  0
  5  6  1  0
  7  6  1  0
  8  9  2  0
  8  2  1  0
 10  8  1  0
 11 10  1  0
 11 12  1  1
 13 12  1  0
 14 13  2  0
 15 14  1  0
 16 15  1  0
 16 17  2  0
 17 13  1  0
 18 11  1  0
 18 19  2  0
 21 20  1  0
 21 22  2  0
 23 21  1  0
 24 25  1  0
 24 23  1  6
 25 18  1  0
 26 24  1  0
 27 26  2  0
 28 26  1  0
M  END
$$$$
