IWW.pdb
     RDKit          3D

 37 40  0  0  1  0  0  0  0  0999 V2000
   22.5916  -22.8778  -17.5426 C   0  0  0  0  0  0  0  0  0  0  0  0
   23.8682  -22.1312  -17.3574 C   0  0  0  0  0  0  0  0  0  0  0  0
   24.5553  -22.4262  -16.0062 C   0  0  2  0  0  0  0  0  0  0  0  0
   23.5591  -22.2435  -14.9055 C   0  0  0  0  0  0  0  0  0  0  0  0
   25.8471  -21.7091  -15.8236 C   0  0  2  0  0  0  0  0  0  0  0  0
   26.8476  -21.9488  -16.7947 N   0  0  0  0  0  0  0  0  0  0  0  0
   26.3152  -21.9625  -14.4107 C   0  0  0  0  0  0  0  0  0  0  0  0
   26.7131  -23.1183  -14.1177 O   0  0  0  0  0  0  0  0  0  0  0  0
   26.3198  -20.9635  -13.4398 N   0  0  0  0  0  0  0  0  0  0  0  0
   26.7246  -21.0897  -12.0802 C   0  0  1  0  0  0  0  0  0  0  0  0
   27.8578  -20.0829  -11.8732 C   0  0  0  0  0  0  0  0  0  0  0  0
   29.1275  -20.4346  -12.4932 C   0  0  0  0  0  0  0  0  0  0  0  0
   29.6454  -20.1627  -13.7302 C   0  0  0  0  0  0  0  0  0  0  0  0
   30.8637  -20.7646  -13.7640 N   0  0  0  0  0  0  0  0  0  0  0  0
   31.1407  -21.3893  -12.6375 C   0  0  0  0  0  0  0  0  0  0  0  0
   32.2284  -22.1385  -12.1714 C   0  0  0  0  0  0  0  0  0  0  0  0
   32.2212  -22.6665  -10.9179 C   0  0  0  0  0  0  0  0  0  0  0  0
   31.1718  -22.5033  -10.0654 C   0  0  0  0  0  0  0  0  0  0  0  0
   30.0898  -21.7658  -10.5146 C   0  0  0  0  0  0  0  0  0  0  0  0
   30.0686  -21.2133  -11.7945 C   0  0  0  0  0  0  0  0  0  0  0  0
   25.6532  -20.9554  -11.0678 C   0  0  0  0  0  0  0  0  0  0  0  0
   24.5444  -20.3964  -11.3082 O   0  0  0  0  0  0  0  0  0  0  0  0
   25.8438  -21.4815   -9.7601 N   0  0  0  0  0  0  0  0  0  0  0  0
   24.9883  -21.3685   -8.6302 C   0  0  1  0  0  0  0  0  0  0  0  0
   25.7069  -21.6314   -7.2934 C   0  0  0  0  0  0  0  0  0  0  0  0
   26.5235  -20.4468   -6.9417 C   0  0  0  0  0  0  0  0  0  0  0  0
   26.5805  -19.2684   -7.6751 C   0  0  0  0  0  0  0  0  0  0  0  0
   27.4084  -18.4441   -7.0672 N   0  0  0  0  0  0  0  0  0  0  0  0
   27.9092  -19.0062   -5.9603 C   0  0  0  0  0  0  0  0  0  0  0  0
   28.7965  -18.5159   -5.0217 C   0  0  0  0  0  0  0  0  0  0  0  0
   29.1522  -19.3105   -3.9452 C   0  0  0  0  0  0  0  0  0  0  0  0
   28.6101  -20.5684   -3.8492 C   0  0  0  0  0  0  0  0  0  0  0  0
   27.7215  -21.0562   -4.7908 C   0  0  0  0  0  0  0  0  0  0  0  0
   27.3649  -20.2662   -5.8616 C   0  0  0  0  0  0  0  0  0  0  0  0
   24.1656  -20.1606   -8.5634 C   0  0  0  0  0  0  0  0  0  0  0  0
   22.9562  -20.0878   -7.8906 O   0  0  0  0  0  0  0  0  0  0  0  0
   24.5296  -19.1011   -9.1410 O   0  0  0  0  0  0  0  0  0  0  0  0
  2  1  1  0
  3  2  1  0
  3  4  1  1
  5  6  1  6
  5  3  1  0
  7  5  1  0
  7  8  2  0
  9  7  1  0
 10  9  1  0
 10 21  1  0
 11 12  1  0
 10 11  1  1
 12 20  1  0
 13 14  1  0
 13 12  2  0
 14 15  1  0
 15 20  2  0
 15 16  1  0
 16 17  2  0
 17 18  1  0
 19 18  2  0
 20 19  1  0
 21 22  2  0
 21 23  1  0
 23 24  1  0
 24 35  1  0
 24 25  1  1
 26 25  1  0
 27 26  2  0
 28 27  1  0
 29 28  1  0
 29 34  2  0
 30 29  1  0
 31 30  2  0
 31 32  1  0
 32 33  2  0
 33 34  1  0
 34 26  1  0
 35 37  2  0
 35 36  1  0
M  END
$$$$
