IWW.pdb
     RDKit          3D

 37 40  0  0  1  0  0  0  0  0999 V2000
   29.4522  -21.4271  -16.5821 C   0  0  0  0  0  0  0  0  0  0  0  0
   28.5790  -20.4479  -15.8751 C   0  0  0  0  0  0  0  0  0  0  0  0
   27.7112  -21.0919  -14.7719 C   0  0  2  0  0  0  0  0  0  0  0  0
   27.1438  -22.3757  -15.2888 C   0  0  0  0  0  0  0  0  0  0  0  0
   26.7247  -20.1564  -14.1653 C   0  0  2  0  0  0  0  0  0  0  0  0
   27.2107  -18.8842  -13.7821 N   0  0  0  0  0  0  0  0  0  0  0  0
   26.0275  -20.8901  -13.0450 C   0  0  0  0  0  0  0  0  0  0  0  0
   25.5907  -22.0458  -13.2765 O   0  0  0  0  0  0  0  0  0  0  0  0
   25.8610  -20.3292  -11.7808 N   0  0  0  0  0  0  0  0  0  0  0  0
   25.0622  -20.8349  -10.7156 C   0  0  1  0  0  0  0  0  0  0  0  0
   25.7587  -20.4167   -9.4192 C   0  0  0  0  0  0  0  0  0  0  0  0
   27.1785  -20.7310   -9.3428 C   0  0  0  0  0  0  0  0  0  0  0  0
   28.0093  -21.4123  -10.1901 C   0  0  0  0  0  0  0  0  0  0  0  0
   29.2303  -21.4135   -9.5928 N   0  0  0  0  0  0  0  0  0  0  0  0
   29.2186  -20.7813   -8.4368 C   0  0  0  0  0  0  0  0  0  0  0  0
   30.1820  -20.5047   -7.4586 C   0  0  0  0  0  0  0  0  0  0  0  0
   29.8544  -19.8017   -6.3412 C   0  0  0  0  0  0  0  0  0  0  0  0
   28.5926  -19.3420   -6.1142 C   0  0  0  0  0  0  0  0  0  0  0  0
   27.6308  -19.6100   -7.0731 C   0  0  0  0  0  0  0  0  0  0  0  0
   27.9369  -20.3288   -8.2278 C   0  0  0  0  0  0  0  0  0  0  0  0
   23.6315  -20.4564  -10.7396 C   0  0  0  0  0  0  0  0  0  0  0  0
   23.1632  -19.4904  -10.0706 O   0  0  0  0  0  0  0  0  0  0  0  0
   22.7194  -21.1839  -11.5531 N   0  0  0  0  0  0  0  0  0  0  0  0
   21.7496  -20.6776  -12.4611 C   0  0  1  0  0  0  0  0  0  0  0  0
   22.2944  -19.5648  -13.3762 C   0  0  0  0  0  0  0  0  0  0  0  0
   21.1800  -19.0078  -14.1772 C   0  0  0  0  0  0  0  0  0  0  0  0
   19.9510  -18.6080  -13.6680 C   0  0  0  0  0  0  0  0  0  0  0  0
   19.2127  -18.1720  -14.6677 N   0  0  0  0  0  0  0  0  0  0  0  0
   19.8831  -18.2549  -15.8233 C   0  0  0  0  0  0  0  0  0  0  0  0
   19.5120  -17.9095  -17.1085 C   0  0  0  0  0  0  0  0  0  0  0  0
   20.4113  -18.0901  -18.1454 C   0  0  0  0  0  0  0  0  0  0  0  0
   21.6480  -18.6135  -17.8593 C   0  0  0  0  0  0  0  0  0  0  0  0
   22.0167  -18.9580  -16.5710 C   0  0  0  0  0  0  0  0  0  0  0  0
   21.1238  -18.7772  -15.5376 C   0  0  0  0  0  0  0  0  0  0  0  0
   20.9997  -21.6749  -13.2249 C   0  0  0  0  0  0  0  0  0  0  0  0
   19.6159  -21.7484  -13.2468 O   0  0  0  0  0  0  0  0  0  0  0  0
   21.6000  -22.5441  -13.9124 O   0  0  0  0  0  0  0  0  0  0  0  0
  2  1  1  0
  3  2  1  0
  3  4  1  6
  5  6  1  1
  5  3  1  0
  7  5  1  0
  7  8  2  0
  9  7  1  0
 10  9  1  0
 10 21  1  0
 11 12  1  0
 10 11  1  1
 12 20  1  0
 13 14  1  0
 13 12  2  0
 14 15  1  0
 15 20  2  0
 15 16  1  0
 16 17  2  0
 17 18  1  0
 19 18  2  0
 20 19  1  0
 21 22  2  0
 21 23  1  0
 23 24  1  0
 24 35  1  0
 24 25  1  6
 26 25  1  0
 27 26  2  0
 28 27  1  0
 29 28  1  0
 29 34  2  0
 30 29  1  0
 31 30  2  0
 31 32  1  0
 32 33  2  0
 33 34  1  0
 34 26  1  0
 35 37  2  0
 35 36  1  0
M  END
$$$$
