IWW.pdb
     RDKit          3D

 37 40  0  0  1  0  0  0  0  0999 V2000
   28.1381  -18.1629  -16.9902 C   0  0  0  0  0  0  0  0  0  0  0  0
   28.6096  -19.4116  -16.3272 C   0  0  0  0  0  0  0  0  0  0  0  0
   27.7540  -19.8127  -15.1058 C   0  0  2  0  0  0  0  0  0  0  0  0
   27.6398  -18.6380  -14.1869 C   0  0  0  0  0  0  0  0  0  0  0  0
   28.1867  -21.0848  -14.4649 C   0  0  2  0  0  0  0  0  0  0  0  0
   28.3272  -22.2068  -15.3152 N   0  0  0  0  0  0  0  0  0  0  0  0
   27.2736  -21.3386  -13.2895 C   0  0  0  0  0  0  0  0  0  0  0  0
   26.1343  -21.8176  -13.5182 O   0  0  0  0  0  0  0  0  0  0  0  0
   27.6565  -21.0623  -11.9789 N   0  0  0  0  0  0  0  0  0  0  0  0
   26.8697  -21.2229  -10.8027 C   0  0  1  0  0  0  0  0  0  0  0  0
   27.8319  -21.0949   -9.6202 C   0  0  0  0  0  0  0  0  0  0  0  0
   27.2243  -20.6881   -8.3610 C   0  0  0  0  0  0  0  0  0  0  0  0
   25.9585  -20.2707   -8.0512 C   0  0  0  0  0  0  0  0  0  0  0  0
   25.9710  -20.0019   -6.7189 N   0  0  0  0  0  0  0  0  0  0  0  0
   27.1521  -20.2233   -6.1783 C   0  0  0  0  0  0  0  0  0  0  0  0
   27.6778  -20.1083   -4.8853 C   0  0  0  0  0  0  0  0  0  0  0  0
   28.9756  -20.4280   -4.6328 C   0  0  0  0  0  0  0  0  0  0  0  0
   29.8208  -20.8638   -5.6078 C   0  0  0  0  0  0  0  0  0  0  0  0
   29.3136  -20.9806   -6.8905 C   0  0  0  0  0  0  0  0  0  0  0  0
   27.9880  -20.6594   -7.1794 C   0  0  0  0  0  0  0  0  0  0  0  0
   25.6956  -20.3303  -10.6790 C   0  0  0  0  0  0  0  0  0  0  0  0
   25.7896  -19.0694  -10.6421 O   0  0  0  0  0  0  0  0  0  0  0  0
   24.3876  -20.8849  -10.6109 N   0  0  0  0  0  0  0  0  0  0  0  0
   23.2692  -20.6129  -11.4457 C   0  0  1  0  0  0  0  0  0  0  0  0
   23.6320  -20.5245  -12.9400 C   0  0  0  0  0  0  0  0  0  0  0  0
   22.8864  -19.4013  -13.5535 C   0  0  0  0  0  0  0  0  0  0  0  0
   21.9224  -18.6353  -12.9103 C   0  0  0  0  0  0  0  0  0  0  0  0
   21.4740  -17.7368  -13.7624 N   0  0  0  0  0  0  0  0  0  0  0  0
   22.0891  -17.8566  -14.9452 C   0  0  0  0  0  0  0  0  0  0  0  0
   21.9457  -17.1342  -16.1140 C   0  0  0  0  0  0  0  0  0  0  0  0
   22.7226  -17.4607  -17.2124 C   0  0  0  0  0  0  0  0  0  0  0  0
   23.6122  -18.5009  -17.1024 C   0  0  0  0  0  0  0  0  0  0  0  0
   23.7537  -19.2221  -15.9302 C   0  0  0  0  0  0  0  0  0  0  0  0
   22.9827  -18.8974  -14.8357 C   0  0  0  0  0  0  0  0  0  0  0  0
   22.0883  -21.4498  -11.2334 C   0  0  0  0  0  0  0  0  0  0  0  0
   20.8613  -20.9599  -10.8151 O   0  0  0  0  0  0  0  0  0  0  0  0
   22.1399  -22.6952  -11.4203 O   0  0  0  0  0  0  0  0  0  0  0  0
  2  1  1  0
  3  2  1  0
  3  4  1  1
  5  6  1  6
  5  3  1  0
  7  5  1  0
  7  8  2  0
  9  7  1  0
 10  9  1  0
 10 21  1  0
 11 12  1  0
 10 11  1  1
 12 20  1  0
 13 14  1  0
 13 12  2  0
 14 15  1  0
 15 20  2  0
 15 16  1  0
 16 17  2  0
 17 18  1  0
 19 18  2  0
 20 19  1  0
 21 22  2  0
 21 23  1  0
 23 24  1  0
 24 35  1  0
 24 25  1  6
 26 25  1  0
 27 26  2  0
 28 27  1  0
 29 28  1  0
 29 34  2  0
 30 29  1  0
 31 30  2  0
 31 32  1  0
 32 33  2  0
 33 34  1  0
 34 26  1  0
 35 37  2  0
 35 36  1  0
M  END
$$$$
