IWW.pdb
     RDKit          3D

 37 40  0  0  1  0  0  0  0  0999 V2000
   29.5972  -17.7536  -17.1064 C   0  0  0  0  0  0  0  0  0  0  0  0
   28.2810  -18.4504  -17.0469 C   0  0  0  0  0  0  0  0  0  0  0  0
   27.7485  -18.6236  -15.6077 C   0  0  2  0  0  0  0  0  0  0  0  0
   28.8126  -19.2588  -14.7701 C   0  0  0  0  0  0  0  0  0  0  0  0
   26.4104  -19.2725  -15.5398 C   0  0  2  0  0  0  0  0  0  0  0  0
   25.4268  -18.7913  -16.4355 N   0  0  0  0  0  0  0  0  0  0  0  0
   25.9644  -19.2511  -14.0974 C   0  0  0  0  0  0  0  0  0  0  0  0
   25.6561  -18.1432  -13.5900 O   0  0  0  0  0  0  0  0  0  0  0  0
   25.8846  -20.4095  -13.3279 N   0  0  0  0  0  0  0  0  0  0  0  0
   25.4051  -20.5210  -11.9915 C   0  0  1  0  0  0  0  0  0  0  0  0
   24.0919  -21.3022  -12.0690 C   0  0  0  0  0  0  0  0  0  0  0  0
   22.9548  -20.5626  -12.5984 C   0  0  0  0  0  0  0  0  0  0  0  0
   22.6024  -20.2220  -13.8759 C   0  0  0  0  0  0  0  0  0  0  0  0
   21.4499  -19.5097  -13.7665 N   0  0  0  0  0  0  0  0  0  0  0  0
   21.0601  -19.3843  -12.5142 C   0  0  0  0  0  0  0  0  0  0  0  0
   19.9752  -18.7658  -11.8802 C   0  0  0  0  0  0  0  0  0  0  0  0
   19.8403  -18.8173  -10.5277 C   0  0  0  0  0  0  0  0  0  0  0  0
   20.7405  -19.4565   -9.7302 C   0  0  0  0  0  0  0  0  0  0  0  0
   21.8183  -20.0708  -10.3447 C   0  0  0  0  0  0  0  0  0  0  0  0
   21.9831  -20.0340  -11.7286 C   0  0  0  0  0  0  0  0  0  0  0  0
   26.3502  -21.0947  -11.0074 C   0  0  0  0  0  0  0  0  0  0  0  0
   27.5128  -21.4860  -11.3159 O   0  0  0  0  0  0  0  0  0  0  0  0
   25.9681  -21.2110   -9.6422 N   0  0  0  0  0  0  0  0  0  0  0  0
   26.7517  -21.6529   -8.5412 C   0  0  1  0  0  0  0  0  0  0  0  0
   28.0803  -20.8876   -8.3933 C   0  0  0  0  0  0  0  0  0  0  0  0
   27.9401  -19.8775   -7.3192 C   0  0  0  0  0  0  0  0  0  0  0  0
   27.1691  -18.7249   -7.4010 C   0  0  0  0  0  0  0  0  0  0  0  0
   27.2881  -18.0679   -6.2658 N   0  0  0  0  0  0  0  0  0  0  0  0
   28.0972  -18.7209   -5.4228 C   0  0  0  0  0  0  0  0  0  0  0  0
   28.4988  -18.4132   -4.1373 C   0  0  0  0  0  0  0  0  0  0  0  0
   29.3491  -19.2765   -3.4678 C   0  0  0  0  0  0  0  0  0  0  0  0
   29.7700  -20.4145   -4.1106 C   0  0  0  0  0  0  0  0  0  0  0  0
   29.3657  -20.7200   -5.3979 C   0  0  0  0  0  0  0  0  0  0  0  0
   28.5180  -19.8630   -6.0650 C   0  0  0  0  0  0  0  0  0  0  0  0
   26.0562  -21.7642   -7.2591 C   0  0  0  0  0  0  0  0  0  0  0  0
   26.5173  -22.5234   -6.1953 O   0  0  0  0  0  0  0  0  0  0  0  0
   24.9672  -21.1607   -7.0629 O   0  0  0  0  0  0  0  0  0  0  0  0
  2  1  1  0
  3  2  1  0
  3  4  1  1
  5  6  1  6
  5  3  1  0
  7  5  1  0
  7  8  2  0
  9  7  1  0
 10  9  1  0
 10 21  1  0
 11 12  1  0
 10 11  1  6
 12 20  1  0
 13 14  1  0
 13 12  2  0
 14 15  1  0
 15 20  2  0
 15 16  1  0
 16 17  2  0
 17 18  1  0
 19 18  2  0
 20 19  1  0
 21 22  2  0
 21 23  1  0
 23 24  1  0
 24 35  1  0
 24 25  1  1
 26 25  1  0
 27 26  2  0
 28 27  1  0
 29 28  1  0
 29 34  2  0
 30 29  1  0
 31 30  2  0
 31 32  1  0
 32 33  2  0
 33 34  1  0
 34 26  1  0
 35 37  2  0
 35 36  1  0
M  END
$$$$
