IWW.pdb
     RDKit          3D

 37 40  0  0  1  0  0  0  0  0999 V2000
   29.1579  -16.7020  -17.2238 C   0  0  0  0  0  0  0  0  0  0  0  0
   28.2589  -17.8897  -17.2719 C   0  0  0  0  0  0  0  0  0  0  0  0
   27.4405  -18.0864  -15.9772 C   0  0  2  0  0  0  0  0  0  0  0  0
   28.3810  -18.1721  -14.8172 C   0  0  0  0  0  0  0  0  0  0  0  0
   26.4353  -19.1810  -16.0662 C   0  0  2  0  0  0  0  0  0  0  0  0
   25.5666  -19.1541  -17.1825 N   0  0  0  0  0  0  0  0  0  0  0  0
   25.7065  -19.2412  -14.7453 C   0  0  0  0  0  0  0  0  0  0  0  0
   24.9126  -18.3080  -14.4646 O   0  0  0  0  0  0  0  0  0  0  0  0
   25.8865  -20.2892  -13.8453 N   0  0  0  0  0  0  0  0  0  0  0  0
   25.1701  -20.5141  -12.6351 C   0  0  1  0  0  0  0  0  0  0  0  0
   23.7821  -21.0121  -13.0427 C   0  0  0  0  0  0  0  0  0  0  0  0
   22.7695  -19.9782  -13.2041 C   0  0  0  0  0  0  0  0  0  0  0  0
   22.4332  -19.1885  -14.2698 C   0  0  0  0  0  0  0  0  0  0  0  0
   21.4246  -18.3874  -13.8356 N   0  0  0  0  0  0  0  0  0  0  0  0
   21.1090  -18.6231  -12.5782 C   0  0  0  0  0  0  0  0  0  0  0  0
   20.1704  -18.0918  -11.6848 C   0  0  0  0  0  0  0  0  0  0  0  0
   20.0793  -18.5633  -10.4122 C   0  0  0  0  0  0  0  0  0  0  0  0
   20.8858  -19.5561   -9.9444 C   0  0  0  0  0  0  0  0  0  0  0  0
   21.8188  -20.0888  -10.8174 C   0  0  0  0  0  0  0  0  0  0  0  0
   21.9358  -19.6250  -12.1269 C   0  0  0  0  0  0  0  0  0  0  0  0
   25.8246  -21.4011  -11.6474 C   0  0  0  0  0  0  0  0  0  0  0  0
   25.9937  -22.6398  -11.8396 O   0  0  0  0  0  0  0  0  0  0  0  0
   26.3089  -20.8632  -10.4230 N   0  0  0  0  0  0  0  0  0  0  0  0
   26.6527  -21.5556   -9.2298 C   0  0  1  0  0  0  0  0  0  0  0  0
   28.0549  -21.1990   -8.7013 C   0  0  0  0  0  0  0  0  0  0  0  0
   27.9401  -20.0735   -7.7454 C   0  0  0  0  0  0  0  0  0  0  0  0
   27.1839  -18.9260   -7.9481 C   0  0  0  0  0  0  0  0  0  0  0  0
   27.3243  -18.1484   -6.8945 N   0  0  0  0  0  0  0  0  0  0  0  0
   28.1337  -18.7151   -5.9915 C   0  0  0  0  0  0  0  0  0  0  0  0
   28.5535  -18.2720   -4.7522 C   0  0  0  0  0  0  0  0  0  0  0  0
   29.3994  -19.0676   -3.9986 C   0  0  0  0  0  0  0  0  0  0  0  0
   29.7978  -20.2762   -4.5142 C   0  0  0  0  0  0  0  0  0  0  0  0
   29.3752  -20.7173   -5.7556 C   0  0  0  0  0  0  0  0  0  0  0  0
   28.5319  -19.9278   -6.5061 C   0  0  0  0  0  0  0  0  0  0  0  0
   25.6571  -21.5265   -8.1584 C   0  0  0  0  0  0  0  0  0  0  0  0
   24.5197  -20.7350   -8.1843 O   0  0  0  0  0  0  0  0  0  0  0  0
   25.7996  -22.2377   -7.1276 O   0  0  0  0  0  0  0  0  0  0  0  0
  2  1  1  0
  3  2  1  0
  3  4  1  1
  5  6  1  6
  5  3  1  0
  7  5  1  0
  7  8  2  0
  9  7  1  0
 10  9  1  0
 10 21  1  0
 11 12  1  0
 10 11  1  6
 12 20  1  0
 13 14  1  0
 13 12  2  0
 14 15  1  0
 15 20  2  0
 15 16  1  0
 16 17  2  0
 17 18  1  0
 19 18  2  0
 20 19  1  0
 21 22  2  0
 21 23  1  0
 23 24  1  0
 24 35  1  0
 24 25  1  1
 26 25  1  0
 27 26  2  0
 28 27  1  0
 29 28  1  0
 29 34  2  0
 30 29  1  0
 31 30  2  0
 31 32  1  0
 32 33  2  0
 33 34  1  0
 34 26  1  0
 35 37  2  0
 35 36  1  0
M  END
$$$$
