IWW.pdb
     RDKit          3D

 37 40  0  0  1  0  0  0  0  0999 V2000
   22.8244  -21.3929  -17.5286 C   0  0  0  0  0  0  0  0  0  0  0  0
   24.2543  -21.1502  -17.1856 C   0  0  0  0  0  0  0  0  0  0  0  0
   24.6036  -21.5283  -15.7296 C   0  0  2  0  0  0  0  0  0  0  0  0
   23.6102  -20.8901  -14.8113 C   0  0  0  0  0  0  0  0  0  0  0  0
   26.0330  -21.3024  -15.3801 C   0  0  2  0  0  0  0  0  0  0  0  0
   26.9947  -21.8953  -16.2316 N   0  0  0  0  0  0  0  0  0  0  0  0
   26.2130  -21.6743  -13.9279 C   0  0  0  0  0  0  0  0  0  0  0  0
   26.2712  -22.8947  -13.6326 O   0  0  0  0  0  0  0  0  0  0  0  0
   26.3173  -20.7148  -12.9233 N   0  0  0  0  0  0  0  0  0  0  0  0
   26.4860  -20.9473  -11.5284 C   0  0  1  0  0  0  0  0  0  0  0  0
   27.5688  -19.9743  -11.0577 C   0  0  0  0  0  0  0  0  0  0  0  0
   28.6569  -20.5709  -10.2959 C   0  0  0  0  0  0  0  0  0  0  0  0
   29.5950  -21.5105  -10.6270 C   0  0  0  0  0  0  0  0  0  0  0  0
   30.3446  -21.6980   -9.5088 N   0  0  0  0  0  0  0  0  0  0  0  0
   29.9413  -20.9424   -8.5076 C   0  0  0  0  0  0  0  0  0  0  0  0
   30.3602  -20.7599   -7.1837 C   0  0  0  0  0  0  0  0  0  0  0  0
   29.7252  -19.8733   -6.3708 C   0  0  0  0  0  0  0  0  0  0  0  0
   28.6624  -19.1325   -6.7911 C   0  0  0  0  0  0  0  0  0  0  0  0
   28.2377  -19.3047   -8.0973 C   0  0  0  0  0  0  0  0  0  0  0  0
   28.8684  -20.2065   -8.9532 C   0  0  0  0  0  0  0  0  0  0  0  0
   25.2589  -20.8738  -10.7040 C   0  0  0  0  0  0  0  0  0  0  0  0
   24.3111  -20.0729  -10.9493 O   0  0  0  0  0  0  0  0  0  0  0  0
   25.1025  -21.7403   -9.5870 N   0  0  0  0  0  0  0  0  0  0  0  0
   24.2437  -21.5865   -8.4644 C   0  0  1  0  0  0  0  0  0  0  0  0
   24.6544  -22.4546   -7.2600 C   0  0  0  0  0  0  0  0  0  0  0  0
   23.7874  -22.1225   -6.1060 C   0  0  0  0  0  0  0  0  0  0  0  0
   22.4429  -22.4533   -5.9945 C   0  0  0  0  0  0  0  0  0  0  0  0
   21.9997  -21.9945   -4.8423 N   0  0  0  0  0  0  0  0  0  0  0  0
   22.9779  -21.3746   -4.1710 C   0  0  0  0  0  0  0  0  0  0  0  0
   22.9730  -20.7566   -2.9355 C   0  0  0  0  0  0  0  0  0  0  0  0
   24.1416  -20.1892   -2.4567 C   0  0  0  0  0  0  0  0  0  0  0  0
   25.2717  -20.2575   -3.2335 C   0  0  0  0  0  0  0  0  0  0  0  0
   25.2733  -20.8775   -4.4704 C   0  0  0  0  0  0  0  0  0  0  0  0
   24.1119  -21.4443   -4.9475 C   0  0  0  0  0  0  0  0  0  0  0  0
   23.9574  -20.2113   -8.0560 C   0  0  0  0  0  0  0  0  0  0  0  0
   22.6810  -19.7289   -7.8137 O   0  0  0  0  0  0  0  0  0  0  0  0
   24.8898  -19.3758   -7.9098 O   0  0  0  0  0  0  0  0  0  0  0  0
  2  1  1  0
  3  2  1  0
  3  4  1  1
  5  6  1  6
  5  3  1  0
  7  5  1  0
  7  8  2  0
  9  7  1  0
 10  9  1  0
 10 21  1  0
 11 12  1  0
 10 11  1  1
 12 20  1  0
 13 14  1  0
 13 12  2  0
 14 15  1  0
 15 20  2  0
 15 16  1  0
 16 17  2  0
 17 18  1  0
 19 18  2  0
 20 19  1  0
 21 22  2  0
 21 23  1  0
 23 24  1  0
 24 35  1  0
 24 25  1  1
 26 25  1  0
 27 26  2  0
 28 27  1  0
 29 28  1  0
 29 34  2  0
 30 29  1  0
 31 30  2  0
 31 32  1  0
 32 33  2  0
 33 34  1  0
 34 26  1  0
 35 37  2  0
 35 36  1  0
M  END
$$$$
