IWW.pdb
     RDKit          3D

 37 40  0  0  1  0  0  0  0  0999 V2000
   20.2487  -29.0250  -15.1884 C   0  0  0  0  0  0  0  0  0  0  0  0
   20.9822  -28.2061  -14.1822 C   0  0  0  0  0  0  0  0  0  0  0  0
   20.2838  -28.1642  -12.8055 C   0  0  2  0  0  0  0  0  0  0  0  0
   18.8650  -27.7297  -12.9946 C   0  0  0  0  0  0  0  0  0  0  0  0
   21.0480  -27.4156  -11.7702 C   0  0  2  0  0  0  0  0  0  0  0  0
   22.4274  -27.7114  -11.6636 N   0  0  0  0  0  0  0  0  0  0  0  0
   20.3057  -27.5561  -10.4630 C   0  0  0  0  0  0  0  0  0  0  0  0
   20.5639  -28.5514   -9.7400 O   0  0  0  0  0  0  0  0  0  0  0  0
   19.3591  -26.6243  -10.0430 N   0  0  0  0  0  0  0  0  0  0  0  0
   18.6297  -26.6331   -8.8198 C   0  0  1  0  0  0  0  0  0  0  0  0
   18.7501  -25.2238   -8.2366 C   0  0  0  0  0  0  0  0  0  0  0  0
   18.0185  -24.9950   -6.9986 C   0  0  0  0  0  0  0  0  0  0  0  0
   18.2933  -25.3302   -5.7007 C   0  0  0  0  0  0  0  0  0  0  0  0
   17.2403  -24.8791   -4.9690 N   0  0  0  0  0  0  0  0  0  0  0  0
   16.3322  -24.2869   -5.7178 C   0  0  0  0  0  0  0  0  0  0  0  0
   15.1010  -23.6692   -5.4647 C   0  0  0  0  0  0  0  0  0  0  0  0
   14.3749  -23.1273   -6.4791 C   0  0  0  0  0  0  0  0  0  0  0  0
   14.7955  -23.1608   -7.7741 C   0  0  0  0  0  0  0  0  0  0  0  0
   16.0105  -23.7698   -8.0376 C   0  0  0  0  0  0  0  0  0  0  0  0
   16.7760  -24.3345   -7.0185 C   0  0  0  0  0  0  0  0  0  0  0  0
   17.2261  -27.0955   -8.9031 C   0  0  0  0  0  0  0  0  0  0  0  0
   16.4281  -26.7153   -9.8079 O   0  0  0  0  0  0  0  0  0  0  0  0
   16.7266  -28.0205   -7.9450 N   0  0  0  0  0  0  0  0  0  0  0  0
   15.4505  -28.6463   -7.9046 C   0  0  1  0  0  0  0  0  0  0  0  0
   14.7574  -28.7052   -9.2789 C   0  0  0  0  0  0  0  0  0  0  0  0
   14.9961  -30.0355   -9.8848 C   0  0  0  0  0  0  0  0  0  0  0  0
   16.2423  -30.5495  -10.2202 C   0  0  0  0  0  0  0  0  0  0  0  0
   16.0682  -31.7481  -10.7374 N   0  0  0  0  0  0  0  0  0  0  0  0
   14.7688  -32.0686  -10.7643 C   0  0  0  0  0  0  0  0  0  0  0  0
   14.1302  -33.2107  -11.2074 C   0  0  0  0  0  0  0  0  0  0  0  0
   12.7516  -33.2960  -11.1142 C   0  0  0  0  0  0  0  0  0  0  0  0
   12.0616  -32.2336  -10.5845 C   0  0  0  0  0  0  0  0  0  0  0  0
   12.7043  -31.0913  -10.1413 C   0  0  0  0  0  0  0  0  0  0  0  0
   14.0762  -31.0055  -10.2315 C   0  0  0  0  0  0  0  0  0  0  0  0
   15.3881  -29.9383   -7.2214 C   0  0  0  0  0  0  0  0  0  0  0  0
   14.2046  -30.5796   -6.8916 O   0  0  0  0  0  0  0  0  0  0  0  0
   16.4431  -30.5402   -6.8848 O   0  0  0  0  0  0  0  0  0  0  0  0
  2  1  1  0
  3  2  1  0
  3  4  1  6
  5  6  1  1
  5  3  1  0
  7  5  1  0
  7  8  2  0
  9  7  1  0
 10  9  1  0
 10 21  1  0
 11 12  1  0
 10 11  1  6
 12 20  1  0
 13 14  1  0
 13 12  2  0
 14 15  1  0
 15 20  2  0
 15 16  1  0
 16 17  2  0
 17 18  1  0
 19 18  2  0
 20 19  1  0
 21 22  2  0
 21 23  1  0
 23 24  1  0
 24 35  1  0
 24 25  1  6
 26 25  1  0
 27 26  2  0
 28 27  1  0
 29 28  1  0
 29 34  2  0
 30 29  1  0
 31 30  2  0
 31 32  1  0
 32 33  2  0
 33 34  1  0
 34 26  1  0
 35 37  2  0
 35 36  1  0
M  END
$$$$
