IWW.pdb
     RDKit          3D

 37 40  0  0  1  0  0  0  0  0999 V2000
   28.7887  -18.3792  -17.2350 C   0  0  0  0  0  0  0  0  0  0  0  0
   29.0948  -19.6466  -16.5130 C   0  0  0  0  0  0  0  0  0  0  0  0
   28.1066  -19.9470  -15.3649 C   0  0  2  0  0  0  0  0  0  0  0  0
   27.9911  -18.7356  -14.4951 C   0  0  0  0  0  0  0  0  0  0  0  0
   28.3909  -21.2214  -14.6499 C   0  0  2  0  0  0  0  0  0  0  0  0
   28.5181  -22.3816  -15.4494 N   0  0  0  0  0  0  0  0  0  0  0  0
   27.3683  -21.3659  -13.5486 C   0  0  0  0  0  0  0  0  0  0  0  0
   26.2226  -21.7818  -13.8559 O   0  0  0  0  0  0  0  0  0  0  0  0
   27.6582  -21.0576  -12.2213 N   0  0  0  0  0  0  0  0  0  0  0  0
   26.7531  -21.0612  -11.1217 C   0  0  1  0  0  0  0  0  0  0  0  0
   27.5988  -20.8334   -9.8673 C   0  0  0  0  0  0  0  0  0  0  0  0
   26.8508  -20.6954   -8.6257 C   0  0  0  0  0  0  0  0  0  0  0  0
   25.5072  -20.6753   -8.3669 C   0  0  0  0  0  0  0  0  0  0  0  0
   25.3895  -20.4976   -7.0245 N   0  0  0  0  0  0  0  0  0  0  0  0
   26.5621  -20.4072   -6.4304 C   0  0  0  0  0  0  0  0  0  0  0  0
   26.9812  -20.2282   -5.1061 C   0  0  0  0  0  0  0  0  0  0  0  0
   28.3051  -20.1808   -4.7976 C   0  0  0  0  0  0  0  0  0  0  0  0
   29.2776  -20.2967   -5.7439 C   0  0  0  0  0  0  0  0  0  0  0  0
   28.8763  -20.4727   -7.0571 C   0  0  0  0  0  0  0  0  0  0  0  0
   27.5268  -20.5244   -7.4034 C   0  0  0  0  0  0  0  0  0  0  0  0
   25.6122  -20.1230  -11.2158 C   0  0  0  0  0  0  0  0  0  0  0  0
   25.7138  -18.9617  -11.7067 O   0  0  0  0  0  0  0  0  0  0  0  0
   24.3270  -20.5216  -10.7549 N   0  0  0  0  0  0  0  0  0  0  0  0
   23.0739  -20.3925  -11.4142 C   0  0  1  0  0  0  0  0  0  0  0  0
   23.1137  -20.8339  -12.8894 C   0  0  0  0  0  0  0  0  0  0  0  0
   22.7548  -19.6824  -13.7490 C   0  0  0  0  0  0  0  0  0  0  0  0
   21.7671  -18.7483  -13.4632 C   0  0  0  0  0  0  0  0  0  0  0  0
   21.7261  -17.8768  -14.4498 N   0  0  0  0  0  0  0  0  0  0  0  0
   22.6378  -18.1746  -15.3836 C   0  0  0  0  0  0  0  0  0  0  0  0
   22.9524  -17.5430  -16.5713 C   0  0  0  0  0  0  0  0  0  0  0  0
   23.9618  -18.0583  -17.3664 C   0  0  0  0  0  0  0  0  0  0  0  0
   24.6172  -19.1892  -16.9460 C   0  0  0  0  0  0  0  0  0  0  0  0
   24.3000  -19.8191  -15.7557 C   0  0  0  0  0  0  0  0  0  0  0  0
   23.2971  -19.3067  -14.9622 C   0  0  0  0  0  0  0  0  0  0  0  0
   21.9189  -20.9614  -10.7196 C   0  0  0  0  0  0  0  0  0  0  0  0
   20.7130  -20.2979  -10.5577 O   0  0  0  0  0  0  0  0  0  0  0  0
   21.9754  -22.1149  -10.2147 O   0  0  0  0  0  0  0  0  0  0  0  0
  2  1  1  0
  3  2  1  0
  3  4  1  1
  5  6  1  6
  5  3  1  0
  7  5  1  0
  7  8  2  0
  9  7  1  0
 10  9  1  0
 10 21  1  0
 11 12  1  0
 10 11  1  1
 12 20  1  0
 13 14  1  0
 13 12  2  0
 14 15  1  0
 15 20  2  0
 15 16  1  0
 16 17  2  0
 17 18  1  0
 19 18  2  0
 20 19  1  0
 21 22  2  0
 21 23  1  0
 23 24  1  0
 24 35  1  0
 24 25  1  6
 26 25  1  0
 27 26  2  0
 28 27  1  0
 29 28  1  0
 29 34  2  0
 30 29  1  0
 31 30  2  0
 31 32  1  0
 32 33  2  0
 33 34  1  0
 34 26  1  0
 35 37  2  0
 35 36  1  0
M  END
$$$$
