IWW.pdb
     RDKit          3D

 37 40  0  0  1  0  0  0  0  0999 V2000
   28.9691  -18.9557  -17.4870 C   0  0  0  0  0  0  0  0  0  0  0  0
   29.5096  -19.9569  -16.5243 C   0  0  0  0  0  0  0  0  0  0  0  0
   28.4972  -20.3559  -15.4286 C   0  0  2  0  0  0  0  0  0  0  0  0
   28.0052  -19.1177  -14.7488 C   0  0  0  0  0  0  0  0  0  0  0  0
   28.9900  -21.4290  -14.5219 C   0  0  2  0  0  0  0  0  0  0  0  0
   29.4344  -22.6232  -15.1366 N   0  0  0  0  0  0  0  0  0  0  0  0
   27.9332  -21.6587  -13.4684 C   0  0  0  0  0  0  0  0  0  0  0  0
   26.8726  -22.2398  -13.8111 O   0  0  0  0  0  0  0  0  0  0  0  0
   28.1019  -21.2519  -12.1467 N   0  0  0  0  0  0  0  0  0  0  0  0
   27.1171  -21.2465  -11.1179 C   0  0  1  0  0  0  0  0  0  0  0  0
   27.8272  -20.7821   -9.8447 C   0  0  0  0  0  0  0  0  0  0  0  0
   26.9544  -20.4545   -8.7262 C   0  0  0  0  0  0  0  0  0  0  0  0
   25.5920  -20.3803   -8.6229 C   0  0  0  0  0  0  0  0  0  0  0  0
   25.3358  -20.0063   -7.3414 N   0  0  0  0  0  0  0  0  0  0  0  0
   26.4400  -19.8442   -6.6409 C   0  0  0  0  0  0  0  0  0  0  0  0
   26.7194  -19.4782   -5.3182 C   0  0  0  0  0  0  0  0  0  0  0  0
   28.0034  -19.4022   -4.8757 C   0  0  0  0  0  0  0  0  0  0  0  0
   29.0682  -19.6675   -5.6823 C   0  0  0  0  0  0  0  0  0  0  0  0
   28.8053  -20.0292   -6.9924 C   0  0  0  0  0  0  0  0  0  0  0  0
   27.4999  -20.1145   -7.4743 C   0  0  0  0  0  0  0  0  0  0  0  0
   25.8882  -20.4705  -11.3982 C   0  0  0  0  0  0  0  0  0  0  0  0
   25.8713  -19.2076  -11.4655 O   0  0  0  0  0  0  0  0  0  0  0  0
   24.6575  -21.1480  -11.6206 N   0  0  0  0  0  0  0  0  0  0  0  0
   23.3947  -20.5932  -11.9655 C   0  0  1  0  0  0  0  0  0  0  0  0
   23.0333  -20.7789  -13.4513 C   0  0  0  0  0  0  0  0  0  0  0  0
   22.6907  -19.4613  -14.0345 C   0  0  0  0  0  0  0  0  0  0  0  0
   23.6103  -18.5229  -14.4856 C   0  0  0  0  0  0  0  0  0  0  0  0
   22.9465  -17.4764  -14.9313 N   0  0  0  0  0  0  0  0  0  0  0  0
   21.6270  -17.6637  -14.8064 C   0  0  0  0  0  0  0  0  0  0  0  0
   20.5640  -16.8485  -15.1442 C   0  0  0  0  0  0  0  0  0  0  0  0
   19.2719  -17.2897  -14.9154 C   0  0  0  0  0  0  0  0  0  0  0  0
   19.0904  -18.5292  -14.3532 C   0  0  0  0  0  0  0  0  0  0  0  0
   20.1572  -19.3434  -14.0165 C   0  0  0  0  0  0  0  0  0  0  0  0
   21.4436  -18.9068  -14.2452 C   0  0  0  0  0  0  0  0  0  0  0  0
   22.2742  -20.9527  -11.0964 C   0  0  0  0  0  0  0  0  0  0  0  0
   22.3446  -21.9228  -10.1093 O   0  0  0  0  0  0  0  0  0  0  0  0
   21.1568  -20.3821  -11.2174 O   0  0  0  0  0  0  0  0  0  0  0  0
  2  1  1  0
  3  2  1  0
  3  4  1  1
  5  6  1  6
  5  3  1  0
  7  5  1  0
  7  8  2  0
  9  7  1  0
 10  9  1  0
 10 21  1  0
 11 12  1  0
 10 11  1  1
 12 20  1  0
 13 14  1  0
 13 12  2  0
 14 15  1  0
 15 20  2  0
 15 16  1  0
 16 17  2  0
 17 18  1  0
 19 18  2  0
 20 19  1  0
 21 22  2  0
 21 23  1  0
 23 24  1  0
 24 35  1  0
 24 25  1  6
 26 25  1  0
 27 26  2  0
 28 27  1  0
 29 28  1  0
 29 34  2  0
 30 29  1  0
 31 30  2  0
 31 32  1  0
 32 33  2  0
 33 34  1  0
 34 26  1  0
 35 37  2  0
 35 36  1  0
M  END
$$$$
