IWW.pdb
     RDKit          3D

 37 40  0  0  1  0  0  0  0  0999 V2000
   30.7320  -19.4208  -19.1921 C   0  0  0  0  0  0  0  0  0  0  0  0
   29.3095  -19.0443  -18.9552 C   0  0  0  0  0  0  0  0  0  0  0  0
   29.0367  -18.5756  -17.5093 C   0  0  2  0  0  0  0  0  0  0  0  0
   29.5646  -19.6029  -16.5588 C   0  0  0  0  0  0  0  0  0  0  0  0
   27.6290  -18.1520  -17.2741 C   0  0  2  0  0  0  0  0  0  0  0  0
   27.1456  -17.0889  -18.0725 N   0  0  0  0  0  0  0  0  0  0  0  0
   27.4666  -17.9065  -15.7932 C   0  0  0  0  0  0  0  0  0  0  0  0
   27.8300  -16.7941  -15.3346 O   0  0  0  0  0  0  0  0  0  0  0  0
   26.9304  -18.8651  -14.9363 N   0  0  0  0  0  0  0  0  0  0  0  0
   26.7458  -18.7511  -13.5287 C   0  0  1  0  0  0  0  0  0  0  0  0
   25.5520  -17.8161  -13.3254 C   0  0  0  0  0  0  0  0  0  0  0  0
   24.2551  -18.3701  -13.6880 C   0  0  0  0  0  0  0  0  0  0  0  0
   23.6558  -19.5629  -13.3871 C   0  0  0  0  0  0  0  0  0  0  0  0
   22.4522  -19.5443  -14.0184 N   0  0  0  0  0  0  0  0  0  0  0  0
   22.2598  -18.4262  -14.6884 C   0  0  0  0  0  0  0  0  0  0  0  0
   21.2207  -17.9221  -15.4808 C   0  0  0  0  0  0  0  0  0  0  0  0
   21.3175  -16.6911  -16.0512 C   0  0  0  0  0  0  0  0  0  0  0  0
   22.4133  -15.8985  -15.8905 C   0  0  0  0  0  0  0  0  0  0  0  0
   23.4479  -16.3859  -15.1106 C   0  0  0  0  0  0  0  0  0  0  0  0
   23.3774  -17.6440  -14.5141 C   0  0  0  0  0  0  0  0  0  0  0  0
   26.6035  -20.0238  -12.7866 C   0  0  0  0  0  0  0  0  0  0  0  0
   25.9691  -21.0192  -13.2412 O   0  0  0  0  0  0  0  0  0  0  0  0
   27.2084  -20.1699  -11.5076 N   0  0  0  0  0  0  0  0  0  0  0  0
   27.1256  -21.2719  -10.6130 C   0  0  1  0  0  0  0  0  0  0  0  0
   28.2632  -21.3004   -9.5750 C   0  0  0  0  0  0  0  0  0  0  0  0
   27.9450  -20.3531   -8.4819 C   0  0  0  0  0  0  0  0  0  0  0  0
   27.0558  -19.2902   -8.5783 C   0  0  0  0  0  0  0  0  0  0  0  0
   27.0306  -18.6673   -7.4182 N   0  0  0  0  0  0  0  0  0  0  0  0
   27.8548  -19.2586   -6.5447 C   0  0  0  0  0  0  0  0  0  0  0  0
   28.1398  -18.9572   -5.2270 C   0  0  0  0  0  0  0  0  0  0  0  0
   29.0392  -19.7461   -4.5304 C   0  0  0  0  0  0  0  0  0  0  0  0
   29.6238  -20.8058   -5.1790 C   0  0  0  0  0  0  0  0  0  0  0  0
   29.3359  -21.1052   -6.4987 C   0  0  0  0  0  0  0  0  0  0  0  0
   28.4397  -20.3223   -7.1929 C   0  0  0  0  0  0  0  0  0  0  0  0
   25.8243  -21.4933   -9.9824 C   0  0  0  0  0  0  0  0  0  0  0  0
   24.7470  -20.6314  -10.1144 O   0  0  0  0  0  0  0  0  0  0  0  0
   25.6225  -22.5072   -9.2613 O   0  0  0  0  0  0  0  0  0  0  0  0
  2  1  1  0
  3  2  1  0
  3  4  1  1
  5  6  1  6
  5  3  1  0
  7  5  1  0
  7  8  2  0
  9  7  1  0
 10  9  1  0
 10 21  1  0
 11 12  1  0
 10 11  1  6
 12 20  1  0
 13 14  1  0
 13 12  2  0
 14 15  1  0
 15 20  2  0
 15 16  1  0
 16 17  2  0
 17 18  1  0
 19 18  2  0
 20 19  1  0
 21 22  2  0
 21 23  1  0
 23 24  1  0
 24 35  1  0
 24 25  1  1
 26 25  1  0
 27 26  2  0
 28 27  1  0
 29 28  1  0
 29 34  2  0
 30 29  1  0
 31 30  2  0
 31 32  1  0
 32 33  2  0
 33 34  1  0
 34 26  1  0
 35 37  2  0
 35 36  1  0
M  END
$$$$
