IWW.pdb
     RDKit          3D

 37 40  0  0  1  0  0  0  0  0999 V2000
   30.8442  -21.6743  -20.7010 C   0  0  0  0  0  0  0  0  0  0  0  0
   30.3339  -22.5242  -19.5881 C   0  0  0  0  0  0  0  0  0  0  0  0
   29.5483  -21.7268  -18.5242 C   0  0  2  0  0  0  0  0  0  0  0  0
   30.3658  -20.5482  -18.1000 C   0  0  0  0  0  0  0  0  0  0  0  0
   29.0194  -22.5689  -17.4163 C   0  0  2  0  0  0  0  0  0  0  0  0
   28.1597  -23.6311  -17.7827 N   0  0  0  0  0  0  0  0  0  0  0  0
   28.4178  -21.6438  -16.3859 C   0  0  0  0  0  0  0  0  0  0  0  0
   29.1824  -20.8412  -15.7932 O   0  0  0  0  0  0  0  0  0  0  0  0
   27.0583  -21.6549  -16.0820 N   0  0  0  0  0  0  0  0  0  0  0  0
   26.3914  -20.8661  -15.1015 C   0  0  1  0  0  0  0  0  0  0  0  0
   25.3901  -19.9926  -15.8599 C   0  0  0  0  0  0  0  0  0  0  0  0
   25.9728  -19.0497  -16.8042 C   0  0  0  0  0  0  0  0  0  0  0  0
   26.1291  -19.0973  -18.1627 C   0  0  0  0  0  0  0  0  0  0  0  0
   26.7607  -17.9434  -18.5052 N   0  0  0  0  0  0  0  0  0  0  0  0
   27.0069  -17.1820  -17.4584 C   0  0  0  0  0  0  0  0  0  0  0  0
   27.6141  -15.9337  -17.2726 C   0  0  0  0  0  0  0  0  0  0  0  0
   27.7164  -15.3898  -16.0301 C   0  0  0  0  0  0  0  0  0  0  0  0
   27.2476  -16.0213  -14.9183 C   0  0  0  0  0  0  0  0  0  0  0  0
   26.6464  -17.2566  -15.0884 C   0  0  0  0  0  0  0  0  0  0  0  0
   26.5281  -17.8392  -16.3494 C   0  0  0  0  0  0  0  0  0  0  0  0
   25.7654  -21.6094  -13.9850 C   0  0  0  0  0  0  0  0  0  0  0  0
   25.3082  -22.7822  -14.1088 O   0  0  0  0  0  0  0  0  0  0  0  0
   25.6718  -21.0097  -12.6987 N   0  0  0  0  0  0  0  0  0  0  0  0
   25.1079  -21.5517  -11.5114 C   0  0  1  0  0  0  0  0  0  0  0  0
   26.1649  -22.0400  -10.5030 C   0  0  0  0  0  0  0  0  0  0  0  0
   26.4207  -20.9686   -9.5129 C   0  0  0  0  0  0  0  0  0  0  0  0
   25.5944  -19.8751   -9.2865 C   0  0  0  0  0  0  0  0  0  0  0  0
   26.1396  -19.1347   -8.3436 N   0  0  0  0  0  0  0  0  0  0  0  0
   27.2890  -19.6755   -7.9215 C   0  0  0  0  0  0  0  0  0  0  0  0
   28.1833  -19.2547   -6.9561 C   0  0  0  0  0  0  0  0  0  0  0  0
   29.3121  -20.0143   -6.7005 C   0  0  0  0  0  0  0  0  0  0  0  0
   29.5071  -21.1656   -7.4231 C   0  0  0  0  0  0  0  0  0  0  0  0
   28.6094  -21.5844   -8.3889 C   0  0  0  0  0  0  0  0  0  0  0  0
   27.4846  -20.8308   -8.6432 C   0  0  0  0  0  0  0  0  0  0  0  0
   24.0827  -20.7395  -10.8561 C   0  0  0  0  0  0  0  0  0  0  0  0
   23.0851  -21.2619  -10.0482 O   0  0  0  0  0  0  0  0  0  0  0  0
   24.0568  -19.4888  -11.0098 O   0  0  0  0  0  0  0  0  0  0  0  0
  2  1  1  0
  3  2  1  0
  3  4  1  1
  5  6  1  6
  5  3  1  0
  7  5  1  0
  7  8  2  0
  9  7  1  0
 10  9  1  0
 10 21  1  0
 11 12  1  0
 10 11  1  6
 12 20  1  0
 13 14  1  0
 13 12  2  0
 14 15  1  0
 15 20  2  0
 15 16  1  0
 16 17  2  0
 17 18  1  0
 19 18  2  0
 20 19  1  0
 21 22  2  0
 21 23  1  0
 23 24  1  0
 24 35  1  0
 24 25  1  1
 26 25  1  0
 27 26  2  0
 28 27  1  0
 29 28  1  0
 29 34  2  0
 30 29  1  0
 31 30  2  0
 31 32  1  0
 32 33  2  0
 33 34  1  0
 34 26  1  0
 35 37  2  0
 35 36  1  0
M  END
$$$$
