KCV.pdb
     RDKit          3D

 23 22  0  0  1  0  0  0  0  0999 V2000
    8.4306  -17.3208   19.6924 N   0  0  0  0  0  0  0  0  0  0  0  0
    9.1902  -17.6984   20.8656 C   0  0  1  0  0  0  0  0  0  0  0  0
   10.6605  -17.5999   20.5886 C   0  0  0  0  0  0  0  0  0  0  0  0
   11.0841  -18.6353   19.5911 C   0  0  0  0  0  0  0  0  0  0  0  0
   12.5673  -18.5719   19.2911 C   0  0  0  0  0  0  0  0  0  0  0  0
   12.9606  -19.7191   18.3756 C   0  0  0  0  0  0  0  0  0  0  0  0
   14.3824  -19.6768   18.1248 N   0  0  0  0  0  0  0  0  0  0  0  0
    8.7737  -16.8249   21.9996 C   0  0  0  0  0  0  0  0  0  0  0  0
    8.1638  -15.7348   21.7672 O   0  0  0  0  0  0  0  0  0  0  0  0
    9.0215  -17.1419   23.3570 N   0  0  0  0  0  0  0  0  0  0  0  0
    8.5284  -16.2974   24.4549 C   0  0  1  0  0  0  0  0  0  0  0  0
    7.2158  -16.8387   24.9896 C   0  0  0  0  0  0  0  0  0  0  0  0
    7.4380  -18.4291   25.8212 S   0  0  0  0  0  0  0  0  0  0  0  0
    9.5778  -16.3022   25.5076 C   0  0  0  0  0  0  0  0  0  0  0  0
   10.5969  -17.0673   25.4474 O   0  0  0  0  0  0  0  0  0  0  0  0
   10.7301  -13.0724   27.6262 C   0  0  0  0  0  0  0  0  0  0  0  0
   10.4669  -14.2391   28.5549 C   0  0  1  0  0  0  0  0  0  0  0  0
    9.1232  -14.1295   29.2182 C   0  0  0  0  0  0  0  0  0  0  0  0
   10.5028  -15.5000   27.7190 C   0  0  2  0  0  0  0  0  0  0  0  0
    9.5169  -15.4565   26.6500 N   0  0  0  0  0  0  0  0  0  0  0  0
   10.2635  -16.7091   28.5408 C   0  0  0  0  0  0  0  0  0  0  0  0
   11.0748  -17.0592   29.4310 O   0  0  0  0  0  0  0  0  0  0  0  0
    9.1354  -17.4885   28.3493 O   0  0  0  0  0  0  0  0  0  0  0  0
  2  8  1  0
  2  1  1  6
  3  2  1  0
  4  3  1  0
  5  4  1  0
  6  7  1  0
  6  5  1  0
  8  9  2  0
 10 11  1  0
 10  8  1  0
 11 12  1  1
 13 12  1  0
 14 15  2  0
 14 11  1  0
 17 16  1  6
 17 19  1  0
 18 17  1  0
 19 20  1  6
 20 14  1  0
 21 23  1  0
 21 19  1  0
 22 21  2  0
M  END
$$$$
