KCV.pdb
     RDKit          3D

 23 22  0  0  1  0  0  0  0  0999 V2000
    7.3182  -17.0021   21.2292 N   0  0  0  0  0  0  0  0  0  0  0  0
    6.5587  -16.8279   22.4493 C   0  0  1  0  0  0  0  0  0  0  0  0
    6.3502  -18.1491   23.1267 C   0  0  0  0  0  0  0  0  0  0  0  0
    7.5564  -19.0244   22.9676 C   0  0  0  0  0  0  0  0  0  0  0  0
    7.3202  -20.4286   23.4838 C   0  0  0  0  0  0  0  0  0  0  0  0
    8.5617  -21.2771   23.2651 C   0  0  0  0  0  0  0  0  0  0  0  0
    8.3318  -22.6137   23.7616 N   0  0  0  0  0  0  0  0  0  0  0  0
    7.2814  -15.8585   23.3216 C   0  0  0  0  0  0  0  0  0  0  0  0
    8.5508  -15.8093   23.2958 O   0  0  0  0  0  0  0  0  0  0  0  0
    6.6247  -14.9646   24.2013 N   0  0  0  0  0  0  0  0  0  0  0  0
    7.3692  -14.0904   25.1196 C   0  0  1  0  0  0  0  0  0  0  0  0
    6.4386  -13.0717   25.7506 C   0  0  0  0  0  0  0  0  0  0  0  0
    7.2861  -12.0762   27.0000 S   0  0  0  0  0  0  0  0  0  0  0  0
    7.9798  -14.9689   26.1514 C   0  0  0  0  0  0  0  0  0  0  0  0
    7.3195  -15.8909   26.7357 O   0  0  0  0  0  0  0  0  0  0  0  0
   11.5356  -16.5395   26.0138 C   0  0  0  0  0  0  0  0  0  0  0  0
   11.4002  -15.8862   27.3732 C   0  0  1  0  0  0  0  0  0  0  0  0
   12.1260  -14.5721   27.4332 C   0  0  0  0  0  0  0  0  0  0  0  0
    9.9257  -15.6468   27.6154 C   0  0  2  0  0  0  0  0  0  0  0  0
    9.3377  -14.8413   26.5560 N   0  0  0  0  0  0  0  0  0  0  0  0
    9.6858  -14.9765   28.9145 C   0  0  0  0  0  0  0  0  0  0  0  0
    9.2587  -13.7983   28.9672 O   0  0  0  0  0  0  0  0  0  0  0  0
    9.9266  -15.6326   30.1096 O   0  0  0  0  0  0  0  0  0  0  0  0
  2  8  1  0
  2  1  1  6
  3  2  1  0
  4  3  1  0
  5  4  1  0
  6  7  1  0
  6  5  1  0
  8  9  2  0
 10 11  1  0
 10  8  1  0
 11 12  1  1
 13 12  1  0
 14 15  2  0
 14 11  1  0
 17 16  1  6
 17 19  1  0
 18 17  1  0
 19 20  1  6
 20 14  1  0
 21 23  1  0
 21 19  1  0
 22 21  2  0
M  END
$$$$
