KCV.pdb
     RDKit          3D

 23 22  0  0  1  0  0  0  0  0999 V2000
    9.3852  -18.6184   20.9604 N   0  0  0  0  0  0  0  0  0  0  0  0
   10.3250  -17.5855   21.3421 C   0  0  1  0  0  0  0  0  0  0  0  0
   10.6781  -16.7381   20.1567 C   0  0  0  0  0  0  0  0  0  0  0  0
   11.6902  -17.4276   19.2927 C   0  0  0  0  0  0  0  0  0  0  0  0
   11.1144  -17.8486   17.9565 C   0  0  0  0  0  0  0  0  0  0  0  0
   12.1569  -18.6169   17.1616 C   0  0  0  0  0  0  0  0  0  0  0  0
   11.5738  -19.0985   15.9311 N   0  0  0  0  0  0  0  0  0  0  0  0
    9.7234  -16.7834   22.4454 C   0  0  0  0  0  0  0  0  0  0  0  0
    9.9281  -15.5306   22.5006 O   0  0  0  0  0  0  0  0  0  0  0  0
    8.9160  -17.3447   23.4639 N   0  0  0  0  0  0  0  0  0  0  0  0
    8.3082  -16.5187   24.5176 C   0  0  1  0  0  0  0  0  0  0  0  0
    6.9543  -17.0781   24.9126 C   0  0  0  0  0  0  0  0  0  0  0  0
    7.1049  -18.6993   25.6995 S   0  0  0  0  0  0  0  0  0  0  0  0
    9.2479  -16.5284   25.6692 C   0  0  0  0  0  0  0  0  0  0  0  0
   10.2362  -17.3328   25.7328 O   0  0  0  0  0  0  0  0  0  0  0  0
   10.8219  -14.4561   29.8923 C   0  0  0  0  0  0  0  0  0  0  0  0
    9.7220  -14.4937   28.8521 C   0  0  1  0  0  0  0  0  0  0  0  0
    9.6156  -13.1927   28.1083 C   0  0  0  0  0  0  0  0  0  0  0  0
   10.0633  -15.5954   27.8724 C   0  0  2  0  0  0  0  0  0  0  0  0
    9.1093  -15.6441   26.7749 N   0  0  0  0  0  0  0  0  0  0  0  0
   10.1018  -16.9217   28.5312 C   0  0  0  0  0  0  0  0  0  0  0  0
    9.0654  -17.6185   28.6474 O   0  0  0  0  0  0  0  0  0  0  0  0
   11.2852  -17.4309   29.0381 O   0  0  0  0  0  0  0  0  0  0  0  0
  2  8  1  0
  2  1  1  6
  3  2  1  0
  4  3  1  0
  5  4  1  0
  6  7  1  0
  6  5  1  0
  8  9  2  0
 10 11  1  0
 10  8  1  0
 11 12  1  1
 13 12  1  0
 14 15  2  0
 14 11  1  0
 17 16  1  1
 17 19  1  0
 18 17  1  0
 19 20  1  6
 20 14  1  0
 21 23  1  0
 21 19  1  0
 22 21  2  0
M  END
$$$$
