KCV.pdb
     RDKit          3D

 23 22  0  0  1  0  0  0  0  0999 V2000
    7.6026  -13.6252   20.1660 N   0  0  0  0  0  0  0  0  0  0  0  0
    7.3884  -14.6199   21.1958 C   0  0  1  0  0  0  0  0  0  0  0  0
    8.0222  -15.9210   20.8037 C   0  0  0  0  0  0  0  0  0  0  0  0
    7.6600  -16.2858   19.3958 C   0  0  0  0  0  0  0  0  0  0  0  0
    8.3135  -17.5775   18.9502 C   0  0  0  0  0  0  0  0  0  0  0  0
    7.8609  -17.9289   17.5428 C   0  0  0  0  0  0  0  0  0  0  0  0
    8.4843  -19.1627   17.1245 N   0  0  0  0  0  0  0  0  0  0  0  0
    7.9338  -14.0954   22.4804 C   0  0  0  0  0  0  0  0  0  0  0  0
    9.0356  -13.4627   22.4881 O   0  0  0  0  0  0  0  0  0  0  0  0
    7.2836  -14.2621   23.7269 N   0  0  0  0  0  0  0  0  0  0  0  0
    7.8157  -13.6753   24.9656 C   0  0  1  0  0  0  0  0  0  0  0  0
    6.6821  -13.1937   25.8517 C   0  0  0  0  0  0  0  0  0  0  0  0
    5.5151  -14.5235   26.2258 S   0  0  0  0  0  0  0  0  0  0  0  0
    8.6082  -14.7366   25.6400 C   0  0  0  0  0  0  0  0  0  0  0  0
    8.6408  -15.9372   25.2096 O   0  0  0  0  0  0  0  0  0  0  0  0
   10.5485  -14.0603   29.3109 C   0  0  0  0  0  0  0  0  0  0  0  0
   11.3882  -14.6657   28.2056 C   0  0  1  0  0  0  0  0  0  0  0  0
   12.3792  -15.6598   28.7412 C   0  0  0  0  0  0  0  0  0  0  0  0
   10.4451  -15.3720   27.2560 C   0  0  2  0  0  0  0  0  0  0  0  0
    9.3815  -14.4863   26.8075 N   0  0  0  0  0  0  0  0  0  0  0  0
    9.8376  -16.5712   27.8784 C   0  0  0  0  0  0  0  0  0  0  0  0
   10.5383  -17.5610   28.1987 O   0  0  0  0  0  0  0  0  0  0  0  0
    8.4767  -16.6337   28.1246 O   0  0  0  0  0  0  0  0  0  0  0  0
  2  8  1  0
  2  1  1  6
  3  2  1  0
  4  3  1  0
  5  4  1  0
  6  7  1  0
  6  5  1  0
  8  9  2  0
 10 11  1  0
 10  8  1  0
 11 12  1  1
 13 12  1  0
 14 15  2  0
 14 11  1  0
 17 16  1  1
 17 19  1  0
 18 17  1  0
 19 20  1  1
 20 14  1  0
 21 23  1  0
 21 19  1  0
 22 21  2  0
M  END
$$$$
