KCV.pdb
     RDKit          3D

 23 22  0  0  1  0  0  0  0  0999 V2000
    8.7419  -14.9013   20.2590 N   0  0  0  0  0  0  0  0  0  0  0  0
    7.8164  -15.3364   21.2836 C   0  0  1  0  0  0  0  0  0  0  0  0
    7.8223  -16.8320   21.3904 C   0  0  0  0  0  0  0  0  0  0  0  0
    7.2973  -17.4568   20.1333 C   0  0  0  0  0  0  0  0  0  0  0  0
    8.3196  -18.3538   19.4666 C   0  0  0  0  0  0  0  0  0  0  0  0
    7.6798  -19.0942   18.3040 C   0  0  0  0  0  0  0  0  0  0  0  0
    8.7007  -19.7624   17.5311 N   0  0  0  0  0  0  0  0  0  0  0  0
    8.1920  -14.6812   22.5690 C   0  0  0  0  0  0  0  0  0  0  0  0
    9.4177  -14.5172   22.8606 O   0  0  0  0  0  0  0  0  0  0  0  0
    7.2430  -14.2171   23.5116 N   0  0  0  0  0  0  0  0  0  0  0  0
    7.6479  -13.6236   24.7944 C   0  0  1  0  0  0  0  0  0  0  0  0
    6.4494  -13.0117   25.4953 C   0  0  0  0  0  0  0  0  0  0  0  0
    6.8691  -12.4375   27.1580 S   0  0  0  0  0  0  0  0  0  0  0  0
    8.2424  -14.7170   25.6070 C   0  0  0  0  0  0  0  0  0  0  0  0
    7.7299  -15.8844   25.6538 O   0  0  0  0  0  0  0  0  0  0  0  0
   11.6086  -14.0257   28.1053 C   0  0  0  0  0  0  0  0  0  0  0  0
   11.5494  -15.3170   27.3166 C   0  0  1  0  0  0  0  0  0  0  0  0
   12.1753  -16.4571   28.0688 C   0  0  0  0  0  0  0  0  0  0  0  0
   10.0895  -15.6307   27.0708 C   0  0  2  0  0  0  0  0  0  0  0  0
    9.4195  -14.5362   26.3852 N   0  0  0  0  0  0  0  0  0  0  0  0
    9.3701  -15.9148   28.3342 C   0  0  0  0  0  0  0  0  0  0  0  0
    8.5742  -15.0811   28.8289 O   0  0  0  0  0  0  0  0  0  0  0  0
    9.5560  -17.1110   29.0060 O   0  0  0  0  0  0  0  0  0  0  0  0
  2  8  1  0
  2  1  1  6
  3  2  1  0
  4  3  1  0
  5  4  1  0
  6  7  1  0
  6  5  1  0
  8  9  2  0
 10 11  1  0
 10  8  1  0
 11 12  1  1
 13 12  1  0
 14 15  2  0
 14 11  1  0
 17 16  1  1
 17 19  1  0
 18 17  1  0
 19 20  1  1
 20 14  1  0
 21 23  1  0
 21 19  1  0
 22 21  2  0
M  END
$$$$
