KCV.pdb
     RDKit          3D

 23 22  0  0  1  0  0  0  0  0999 V2000
   10.8796  -19.2129   15.0595 N   0  0  0  0  0  0  0  0  0  0  0  0
   11.1486  -20.0139   16.2351 C   0  0  1  0  0  0  0  0  0  0  0  0
   12.6188  -20.2815   16.3583 C   0  0  0  0  0  0  0  0  0  0  0  0
   13.4081  -19.2962   15.5505 C   0  0  0  0  0  0  0  0  0  0  0  0
   14.8941  -19.5876   15.5800 C   0  0  0  0  0  0  0  0  0  0  0  0
   15.2344  -20.6513   14.5496 C   0  0  0  0  0  0  0  0  0  0  0  0
   16.6649  -20.8449   14.5036 N   0  0  0  0  0  0  0  0  0  0  0  0
   10.6068  -19.3008   17.4270 C   0  0  0  0  0  0  0  0  0  0  0  0
   10.2951  -18.0721   17.3411 O   0  0  0  0  0  0  0  0  0  0  0  0
   10.4121  -19.9234   18.6835 N   0  0  0  0  0  0  0  0  0  0  0  0
    9.7644  -19.2261   19.8043 C   0  0  1  0  0  0  0  0  0  0  0  0
    8.4964  -19.9507   20.2157 C   0  0  0  0  0  0  0  0  0  0  0  0
    8.8378  -21.6445   20.7491 S   0  0  0  0  0  0  0  0  0  0  0  0
   10.7478  -19.1939   20.9184 C   0  0  0  0  0  0  0  0  0  0  0  0
   11.6490  -20.0864   21.0550 O   0  0  0  0  0  0  0  0  0  0  0  0
   12.5730  -15.9956   22.2646 C   0  0  0  0  0  0  0  0  0  0  0  0
   11.9865  -16.7255   23.4548 C   0  0  1  0  0  0  0  0  0  0  0  0
   10.7136  -16.0833   23.9286 C   0  0  0  0  0  0  0  0  0  0  0  0
   11.6900  -18.1429   23.0153 C   0  0  2  0  0  0  0  0  0  0  0  0
   10.7504  -18.1687   21.9048 N   0  0  0  0  0  0  0  0  0  0  0  0
   11.1411  -18.9569   24.1247 C   0  0  0  0  0  0  0  0  0  0  0  0
    9.9217  -19.2462   24.1750 O   0  0  0  0  0  0  0  0  0  0  0  0
   11.9600  -19.4223   25.1393 O   0  0  0  0  0  0  0  0  0  0  0  0
  2  8  1  0
  2  1  1  6
  3  2  1  0
  4  3  1  0
  5  4  1  0
  6  7  1  0
  6  5  1  0
  8  9  2  0
 10 11  1  0
 10  8  1  0
 11 12  1  1
 13 12  1  0
 14 15  2  0
 14 11  1  0
 17 16  1  6
 17 19  1  0
 18 17  1  0
 19 20  1  6
 20 14  1  0
 21 23  1  0
 21 19  1  0
 22 21  2  0
M  END
$$$$
