KCV.pdb
     RDKit          3D

 23 22  0  0  1  0  0  0  0  0999 V2000
    8.6839  -15.5662   20.1996 N   0  0  0  0  0  0  0  0  0  0  0  0
    8.5057  -14.2720   20.8234 C   0  0  1  0  0  0  0  0  0  0  0  0
    7.3464  -13.5502   20.2044 C   0  0  0  0  0  0  0  0  0  0  0  0
    7.7492  -12.9072   18.9118 C   0  0  0  0  0  0  0  0  0  0  0  0
    7.5840  -13.8397   17.7298 C   0  0  0  0  0  0  0  0  0  0  0  0
    7.9979  -13.1327   16.4500 C   0  0  0  0  0  0  0  0  0  0  0  0
    7.7787  -14.0041   15.3193 N   0  0  0  0  0  0  0  0  0  0  0  0
    8.3219  -14.4750   22.2889 C   0  0  0  0  0  0  0  0  0  0  0  0
    8.0767  -13.4794   23.0393 O   0  0  0  0  0  0  0  0  0  0  0  0
    8.4055  -15.7420   22.9149 N   0  0  0  0  0  0  0  0  0  0  0  0
    7.9782  -15.9513   24.3061 C   0  0  1  0  0  0  0  0  0  0  0  0
    7.0351  -17.1364   24.3967 C   0  0  0  0  0  0  0  0  0  0  0  0
    6.5024  -17.4379   26.0983 S   0  0  0  0  0  0  0  0  0  0  0  0
    9.2095  -16.1849   25.1051 C   0  0  0  0  0  0  0  0  0  0  0  0
   10.1897  -16.8686   24.6584 O   0  0  0  0  0  0  0  0  0  0  0  0
   10.8191  -13.5088   27.5453 C   0  0  0  0  0  0  0  0  0  0  0  0
   10.7598  -14.8382   28.2680 C   0  0  1  0  0  0  0  0  0  0  0  0
    9.6178  -14.8905   29.2429 C   0  0  0  0  0  0  0  0  0  0  0  0
   10.5646  -15.9138   27.2216 C   0  0  2  0  0  0  0  0  0  0  0  0
    9.3779  -15.6636   26.4180 N   0  0  0  0  0  0  0  0  0  0  0  0
   10.4531  -17.2587   27.8327 C   0  0  0  0  0  0  0  0  0  0  0  0
    9.3812  -17.9080   27.7802 O   0  0  0  0  0  0  0  0  0  0  0  0
   11.5308  -17.8382   28.4803 O   0  0  0  0  0  0  0  0  0  0  0  0
  2  8  1  0
  2  1  1  6
  3  2  1  0
  4  3  1  0
  5  4  1  0
  6  7  1  0
  6  5  1  0
  8  9  2  0
 10 11  1  0
 10  8  1  0
 11 12  1  6
 13 12  1  0
 14 15  2  0
 14 11  1  0
 17 16  1  6
 17 19  1  0
 18 17  1  0
 19 20  1  1
 20 14  1  0
 21 23  1  0
 21 19  1  0
 22 21  2  0
M  END
$$$$
