KCV.pdb
     RDKit          3D

 23 22  0  0  1  0  0  0  0  0999 V2000
    6.0018  -18.8248   24.0508 N   0  0  0  0  0  0  0  0  0  0  0  0
    7.3098  -19.2410   23.5904 C   0  0  1  0  0  0  0  0  0  0  0  0
    7.1803  -20.3287   22.5666 C   0  0  0  0  0  0  0  0  0  0  0  0
    5.9543  -21.1532   22.8190 C   0  0  0  0  0  0  0  0  0  0  0  0
    5.1377  -21.3692   21.5618 C   0  0  0  0  0  0  0  0  0  0  0  0
    3.9152  -22.2150   21.8767 C   0  0  0  0  0  0  0  0  0  0  0  0
    3.1424  -22.4209   20.6740 N   0  0  0  0  0  0  0  0  0  0  0  0
    8.0236  -18.0475   23.0532 C   0  0  0  0  0  0  0  0  0  0  0  0
    9.1902  -18.1747   22.5661 O   0  0  0  0  0  0  0  0  0  0  0  0
    7.4685  -16.7451   23.0512 N   0  0  0  0  0  0  0  0  0  0  0  0
    8.2089  -15.5855   22.5326 C   0  0  1  0  0  0  0  0  0  0  0  0
    7.3493  -14.8025   21.5579 C   0  0  0  0  0  0  0  0  0  0  0  0
    5.5861  -15.0470   21.8763 S   0  0  0  0  0  0  0  0  0  0  0  0
    8.5823  -14.7525   23.7056 C   0  0  0  0  0  0  0  0  0  0  0  0
    8.8402  -13.5075   23.6002 O   0  0  0  0  0  0  0  0  0  0  0  0
    8.4255  -12.4821   27.5012 C   0  0  0  0  0  0  0  0  0  0  0  0
    8.0323  -13.2792   26.2752 C   0  0  1  0  0  0  0  0  0  0  0  0
    8.1555  -12.4641   25.0191 C   0  0  0  0  0  0  0  0  0  0  0  0
    8.9679  -14.4653   26.1872 C   0  0  2  0  0  0  0  0  0  0  0  0
    8.6771  -15.2855   25.0212 N   0  0  0  0  0  0  0  0  0  0  0  0
    8.8922  -15.3138   27.3992 C   0  0  0  0  0  0  0  0  0  0  0  0
    8.4764  -16.4956   27.3385 O   0  0  0  0  0  0  0  0  0  0  0  0
    9.2789  -14.8255   28.6356 O   0  0  0  0  0  0  0  0  0  0  0  0
  2  8  1  0
  2  1  1  6
  3  2  1  0
  4  3  1  0
  5  4  1  0
  6  7  1  0
  6  5  1  0
  8  9  2  0
 10 11  1  0
 10  8  1  0
 11 12  1  6
 13 12  1  0
 14 15  2  0
 14 11  1  0
 17 16  1  1
 17 19  1  0
 18 17  1  0
 19 20  1  6
 20 14  1  0
 21 23  1  0
 21 19  1  0
 22 21  2  0
M  END
$$$$
