KCV.pdb
     RDKit          3D

 23 22  0  0  1  0  0  0  0  0999 V2000
    8.4284  -18.2141   20.4346 N   0  0  0  0  0  0  0  0  0  0  0  0
    7.5916  -17.0348   20.3645 C   0  0  1  0  0  0  0  0  0  0  0  0
    6.4407  -17.2670   19.4319 C   0  0  0  0  0  0  0  0  0  0  0  0
    6.8423  -18.1722   18.3069 C   0  0  0  0  0  0  0  0  0  0  0  0
    7.4431  -17.4115   17.1431 C   0  0  0  0  0  0  0  0  0  0  0  0
    7.6081  -18.3366   15.9489 C   0  0  0  0  0  0  0  0  0  0  0  0
    8.1224  -17.5919   14.8233 N   0  0  0  0  0  0  0  0  0  0  0  0
    7.1363  -16.6957   21.7431 C   0  0  0  0  0  0  0  0  0  0  0  0
    6.2338  -15.8177   21.9129 O   0  0  0  0  0  0  0  0  0  0  0  0
    7.6606  -17.3071   22.9075 N   0  0  0  0  0  0  0  0  0  0  0  0
    7.1185  -17.0249   24.2448 C   0  0  1  0  0  0  0  0  0  0  0  0
    7.1980  -18.2622   25.1192 C   0  0  0  0  0  0  0  0  0  0  0  0
    6.8293  -17.8831   26.8485 S   0  0  0  0  0  0  0  0  0  0  0  0
    7.9276  -15.9151   24.8129 C   0  0  0  0  0  0  0  0  0  0  0  0
    9.1817  -15.8119   24.6025 O   0  0  0  0  0  0  0  0  0  0  0  0
    7.0446  -12.1373   24.9170 C   0  0  0  0  0  0  0  0  0  0  0  0
    7.3892  -12.5477   26.3333 C   0  0  1  0  0  0  0  0  0  0  0  0
    6.1568  -12.7545   27.1675 C   0  0  0  0  0  0  0  0  0  0  0  0
    8.1550  -13.8504   26.2534 C   0  0  2  0  0  0  0  0  0  0  0  0
    7.3601  -14.8959   25.6272 N   0  0  0  0  0  0  0  0  0  0  0  0
    8.5863  -14.3154   27.5922 C   0  0  0  0  0  0  0  0  0  0  0  0
    8.1631  -15.3945   28.0714 O   0  0  0  0  0  0  0  0  0  0  0  0
    9.4703  -13.5705   28.3540 O   0  0  0  0  0  0  0  0  0  0  0  0
  2  8  1  0
  2  1  1  1
  3  2  1  0
  4  3  1  0
  5  4  1  0
  6  7  1  0
  6  5  1  0
  8  9  2  0
 10 11  1  0
 10  8  1  0
 11 12  1  1
 13 12  1  0
 14 15  2  0
 14 11  1  0
 17 16  1  6
 17 19  1  0
 18 17  1  0
 19 20  1  1
 20 14  1  0
 21 23  1  0
 21 19  1  0
 22 21  2  0
M  END
$$$$
