NDG.pdb
     RDKit          3D

 21 20  0  0  1  0  0  0  0  0999 V2000
   19.4587  -15.5664  -17.4660 N   0  0  0  0  0  0  0  0  0  0  0  0
   19.3400  -14.6073  -16.3920 C   0  0  0  0  0  0  0  0  0  0  0  0
   18.9092  -15.0731  -15.3216 O   0  0  0  0  0  0  0  0  0  0  0  0
   19.7023  -13.2134  -16.5744 C   0  0  0  0  0  0  0  0  0  0  0  0
   19.0598  -12.2257  -15.6198 C   0  0  2  0  0  0  0  0  0  0  0  0
   17.6135  -12.2848  -15.9935 N   0  0  0  0  0  0  0  0  0  0  0  0
   19.4949  -10.8628  -16.0106 C   0  0  0  0  0  0  0  0  0  0  0  0
   20.7495  -10.6361  -15.9993 O   0  0  0  0  0  0  0  0  0  0  0  0
   18.6855   -9.7923  -16.3958 N   0  0  0  0  0  0  0  0  0  0  0  0
   19.2756   -8.4793  -16.6879 C   0  0  1  0  0  0  0  0  0  0  0  0
   18.4820   -7.7019  -17.6754 C   0  0  0  0  0  0  0  0  0  0  0  0
   18.2981   -8.3662  -18.9694 C   0  0  0  0  0  0  0  0  0  0  0  0
   19.1804   -8.8480  -19.6900 O   0  0  0  0  0  0  0  0  0  0  0  0
   19.4628   -7.7220  -15.4264 C   0  0  0  0  0  0  0  0  0  0  0  0
   18.5808   -7.6478  -14.5355 O   0  0  0  0  0  0  0  0  0  0  0  0
   16.9745   -8.4648  -19.4402 O   0  0  0  0  0  0  0  0  0  0  0  0
   20.6966   -7.0491  -15.2153 N   0  0  0  0  0  0  0  0  0  0  0  0
   20.9390   -6.1776  -14.0925 C   0  0  0  0  0  0  0  0  0  0  0  0
   22.3295   -5.6780  -14.1767 C   0  0  0  0  0  0  0  0  0  0  0  0
   23.1134   -6.1832  -15.0135 O   0  0  0  0  0  0  0  0  0  0  0  0
   22.8047   -4.6601  -13.3554 O   0  0  0  0  0  0  0  0  0  0  0  0
  2  1  1  0
  3  2  2  0
  4  2  1  0
  5  4  1  0
  5  6  1  6
  7  5  1  0
  7  9  1  0
  8  7  2  0
 10  9  1  0
 10 14  1  0
 10 11  1  6
 12 11  1  0
 12 13  2  0
 14 15  2  0
 14 17  1  0
 16 12  1  0
 17 18  1  0
 18 19  1  0
 19 21  1  0
 20 19  2  0
M  END
$$$$
