NDG.pdb
     RDKit          3D

 21 20  0  0  1  0  0  0  0  0999 V2000
   19.9075  -10.9950  -20.2853 N   0  0  0  0  0  0  0  0  0  0  0  0
   19.5303  -10.6208  -18.9418 C   0  0  0  0  0  0  0  0  0  0  0  0
   18.3585  -10.9015  -18.6313 O   0  0  0  0  0  0  0  0  0  0  0  0
   20.4658   -9.9685  -18.0437 C   0  0  0  0  0  0  0  0  0  0  0  0
   21.7981   -9.5644  -18.6450 C   0  0  2  0  0  0  0  0  0  0  0  0
   22.5542  -10.8533  -18.6909 N   0  0  0  0  0  0  0  0  0  0  0  0
   22.5195   -8.7394  -17.6458 C   0  0  0  0  0  0  0  0  0  0  0  0
   23.5478   -9.2637  -17.1042 O   0  0  0  0  0  0  0  0  0  0  0  0
   22.2040   -7.4448  -17.2284 N   0  0  0  0  0  0  0  0  0  0  0  0
   23.1592   -6.6659  -16.4295 C   0  0  1  0  0  0  0  0  0  0  0  0
   24.4787   -6.5192  -17.0979 C   0  0  0  0  0  0  0  0  0  0  0  0
   25.4304   -5.6591  -16.3879 C   0  0  0  0  0  0  0  0  0  0  0  0
   25.3968   -5.3405  -15.1933 O   0  0  0  0  0  0  0  0  0  0  0  0
   22.5724   -5.3459  -16.0931 C   0  0  0  0  0  0  0  0  0  0  0  0
   22.3656   -4.4507  -16.9492 O   0  0  0  0  0  0  0  0  0  0  0  0
   26.4957   -5.1416  -17.1497 O   0  0  0  0  0  0  0  0  0  0  0  0
   22.2278   -5.0812  -14.7400 N   0  0  0  0  0  0  0  0  0  0  0  0
   21.6653   -3.8292  -14.2986 C   0  0  0  0  0  0  0  0  0  0  0  0
   20.2155   -3.8344  -14.5958 C   0  0  0  0  0  0  0  0  0  0  0  0
   19.5131   -2.8589  -14.2424 O   0  0  0  0  0  0  0  0  0  0  0  0
   19.5963   -4.8900  -15.2583 O   0  0  0  0  0  0  0  0  0  0  0  0
  2  1  1  0
  3  2  2  0
  4  2  1  0
  5  4  1  0
  5  6  1  1
  7  5  1  0
  7  9  1  0
  8  7  2  0
 10  9  1  0
 10 14  1  0
 10 11  1  6
 12 11  1  0
 12 13  2  0
 14 15  2  0
 14 17  1  0
 16 12  1  0
 17 18  1  0
 18 19  1  0
 19 21  1  0
 20 19  2  0
M  END
$$$$
