NDG.pdb
     RDKit          3D

 21 20  0  0  1  0  0  0  0  0999 V2000
   18.5008  -14.4526  -16.8011 N   0  0  0  0  0  0  0  0  0  0  0  0
   17.9884  -13.3992  -17.6468 C   0  0  0  0  0  0  0  0  0  0  0  0
   17.3863  -13.7916  -18.6625 O   0  0  0  0  0  0  0  0  0  0  0  0
   18.1756  -11.9986  -17.3138 C   0  0  0  0  0  0  0  0  0  0  0  0
   18.9935  -11.7113  -16.0695 C   0  0  2  0  0  0  0  0  0  0  0  0
   18.1163  -12.2072  -14.9651 N   0  0  0  0  0  0  0  0  0  0  0  0
   19.0403  -10.2408  -15.8825 C   0  0  0  0  0  0  0  0  0  0  0  0
   19.7821   -9.5840  -16.6849 O   0  0  0  0  0  0  0  0  0  0  0  0
   18.3591   -9.4857  -14.9257 N   0  0  0  0  0  0  0  0  0  0  0  0
   18.4746   -8.0215  -14.9115 C   0  0  1  0  0  0  0  0  0  0  0  0
   17.1873   -7.3488  -14.5958 C   0  0  0  0  0  0  0  0  0  0  0  0
   16.1278   -7.5623  -15.5865 C   0  0  0  0  0  0  0  0  0  0  0  0
   16.2143   -7.4141  -16.8114 O   0  0  0  0  0  0  0  0  0  0  0  0
   19.5451   -7.6122  -13.9701 C   0  0  0  0  0  0  0  0  0  0  0  0
   19.6708   -8.1034  -12.8212 O   0  0  0  0  0  0  0  0  0  0  0  0
   14.8791   -7.9808  -15.0877 O   0  0  0  0  0  0  0  0  0  0  0  0
   20.4719   -6.6185  -14.3865 N   0  0  0  0  0  0  0  0  0  0  0  0
   21.6056   -6.2136  -13.5929 C   0  0  0  0  0  0  0  0  0  0  0  0
   22.2748   -5.0818  -14.2722 C   0  0  0  0  0  0  0  0  0  0  0  0
   21.9033   -4.7498  -15.4219 O   0  0  0  0  0  0  0  0  0  0  0  0
   23.3098   -4.3656  -13.6788 O   0  0  0  0  0  0  0  0  0  0  0  0
  2  1  1  0
  3  2  2  0
  4  2  1  0
  5  4  1  0
  5  6  1  1
  7  5  1  0
  7  9  1  0
  8  7  2  0
 10  9  1  0
 10 14  1  0
 10 11  1  1
 12 11  1  0
 12 13  2  0
 14 15  2  0
 14 17  1  0
 16 12  1  0
 17 18  1  0
 18 19  1  0
 19 21  1  0
 20 19  2  0
M  END
$$$$
