NDG.pdb
     RDKit          3D

 21 20  0  0  1  0  0  0  0  0999 V2000
   25.0673  -13.8041  -16.2522 N   0  0  0  0  0  0  0  0  0  0  0  0
   25.5431  -12.5243  -16.7243 C   0  0  0  0  0  0  0  0  0  0  0  0
   26.7657  -12.4728  -16.9499 O   0  0  0  0  0  0  0  0  0  0  0  0
   24.6428  -11.4011  -16.9124 C   0  0  0  0  0  0  0  0  0  0  0  0
   23.1780  -11.6627  -16.6194 C   0  0  2  0  0  0  0  0  0  0  0  0
   22.7015  -12.3489  -17.8592 N   0  0  0  0  0  0  0  0  0  0  0  0
   22.4724  -10.3583  -16.6155 C   0  0  0  0  0  0  0  0  0  0  0  0
   22.3499   -9.7692  -17.7397 O   0  0  0  0  0  0  0  0  0  0  0  0
   21.9192   -9.6967  -15.5174 N   0  0  0  0  0  0  0  0  0  0  0  0
   21.1406   -8.4654  -15.7039 C   0  0  1  0  0  0  0  0  0  0  0  0
   19.7157   -8.6242  -15.3117 C   0  0  0  0  0  0  0  0  0  0  0  0
   19.0220   -9.7363  -15.9688 C   0  0  0  0  0  0  0  0  0  0  0  0
   18.9349   -9.9437  -17.1850 O   0  0  0  0  0  0  0  0  0  0  0  0
   21.7838   -7.3492  -14.9687 C   0  0  0  0  0  0  0  0  0  0  0  0
   22.2956   -7.4848  -13.8300 O   0  0  0  0  0  0  0  0  0  0  0  0
   18.3878  -10.6663  -15.1226 O   0  0  0  0  0  0  0  0  0  0  0  0
   21.8232   -6.0670  -15.5803 N   0  0  0  0  0  0  0  0  0  0  0  0
   22.5129   -4.9387  -15.0058 C   0  0  0  0  0  0  0  0  0  0  0  0
   21.6205   -4.2972  -14.0146 C   0  0  0  0  0  0  0  0  0  0  0  0
   20.4768   -4.7709  -13.8215 O   0  0  0  0  0  0  0  0  0  0  0  0
   22.0055   -3.1782  -13.2824 O   0  0  0  0  0  0  0  0  0  0  0  0
  2  1  1  0
  3  2  2  0
  4  2  1  0
  5  4  1  0
  5  6  1  6
  7  5  1  0
  7  9  1  0
  8  7  2  0
 10  9  1  0
 10 14  1  0
 10 11  1  1
 12 11  1  0
 12 13  2  0
 14 15  2  0
 14 17  1  0
 16 12  1  0
 17 18  1  0
 18 19  1  0
 19 21  1  0
 20 19  2  0
M  END
$$$$
