NDG.pdb
     RDKit          3D

 21 20  0  0  1  0  0  0  0  0999 V2000
   17.0120  -15.1896  -15.1597 N   0  0  0  0  0  0  0  0  0  0  0  0
   18.1867  -15.3783  -15.9794 C   0  0  0  0  0  0  0  0  0  0  0  0
   18.4375  -16.5627  -16.2672 O   0  0  0  0  0  0  0  0  0  0  0  0
   18.9946  -14.2554  -16.4197 C   0  0  0  0  0  0  0  0  0  0  0  0
   18.4926  -12.8782  -16.0311 C   0  0  2  0  0  0  0  0  0  0  0  0
   17.2512  -12.7262  -16.8503 N   0  0  0  0  0  0  0  0  0  0  0  0
   19.4346  -11.8752  -16.5843 C   0  0  0  0  0  0  0  0  0  0  0  0
   20.5980  -11.8332  -16.0644 O   0  0  0  0  0  0  0  0  0  0  0  0
   19.1957  -10.9672  -17.6178 N   0  0  0  0  0  0  0  0  0  0  0  0
   20.2525  -10.0489  -18.0619 C   0  0  1  0  0  0  0  0  0  0  0  0
   20.1081   -9.6572  -19.4886 C   0  0  0  0  0  0  0  0  0  0  0  0
   20.2488  -10.7619  -20.4421 C   0  0  0  0  0  0  0  0  0  0  0  0
   19.3405  -11.3345  -21.0562 O   0  0  0  0  0  0  0  0  0  0  0  0
   20.2896   -8.8607  -17.1749 C   0  0  0  0  0  0  0  0  0  0  0  0
   19.2706   -8.1808  -16.8987 O   0  0  0  0  0  0  0  0  0  0  0  0
   21.5591  -11.2183  -20.6829 O   0  0  0  0  0  0  0  0  0  0  0  0
   21.5352   -8.4733  -16.6110 N   0  0  0  0  0  0  0  0  0  0  0  0
   21.6927   -7.3193  -15.7610 C   0  0  0  0  0  0  0  0  0  0  0  0
   21.4554   -7.7317  -14.3596 C   0  0  0  0  0  0  0  0  0  0  0  0
   21.6830   -6.9187  -13.4338 O   0  0  0  0  0  0  0  0  0  0  0  0
   20.9853   -8.9985  -14.0271 O   0  0  0  0  0  0  0  0  0  0  0  0
  2  1  1  0
  3  2  2  0
  4  2  1  0
  5  4  1  0
  5  6  1  6
  7  5  1  0
  7  9  1  0
  8  7  2  0
 10  9  1  0
 10 14  1  0
 10 11  1  6
 12 11  1  0
 12 13  2  0
 14 15  2  0
 14 17  1  0
 16 12  1  0
 17 18  1  0
 18 19  1  0
 19 21  1  0
 20 19  2  0
M  END
$$$$
