NDG.pdb
     RDKit          3D

 21 20  0  0  1  0  0  0  0  0999 V2000
   27.7657  -10.6766  -15.4180 N   0  0  0  0  0  0  0  0  0  0  0  0
   26.4526  -11.1802  -15.7486 C   0  0  0  0  0  0  0  0  0  0  0  0
   26.3884  -12.4142  -15.8950 O   0  0  0  0  0  0  0  0  0  0  0  0
   25.3126  -10.2930  -15.8929 C   0  0  0  0  0  0  0  0  0  0  0  0
   24.1181  -10.8560  -16.6385 C   0  0  2  0  0  0  0  0  0  0  0  0
   24.5779  -10.8607  -18.0611 N   0  0  0  0  0  0  0  0  0  0  0  0
   23.0342   -9.8446  -16.5959 C   0  0  0  0  0  0  0  0  0  0  0  0
   22.8737   -9.1318  -17.6408 O   0  0  0  0  0  0  0  0  0  0  0  0
   22.1604   -9.5822  -15.5390 N   0  0  0  0  0  0  0  0  0  0  0  0
   20.9232   -8.8237  -15.7657 C   0  0  1  0  0  0  0  0  0  0  0  0
   19.7030   -9.6103  -15.4467 C   0  0  0  0  0  0  0  0  0  0  0  0
   18.4438   -8.8779  -15.6127 C   0  0  0  0  0  0  0  0  0  0  0  0
   17.7385   -8.3986  -14.7168 O   0  0  0  0  0  0  0  0  0  0  0  0
   20.9656   -7.5546  -14.9993 C   0  0  0  0  0  0  0  0  0  0  0  0
   19.9872   -6.7717  -14.9172 O   0  0  0  0  0  0  0  0  0  0  0  0
   17.9909   -8.7027  -16.9346 O   0  0  0  0  0  0  0  0  0  0  0  0
   22.1684   -7.2078  -14.3264 N   0  0  0  0  0  0  0  0  0  0  0  0
   22.3511   -5.9597  -13.6281 C   0  0  0  0  0  0  0  0  0  0  0  0
   22.2221   -4.8528  -14.6020 C   0  0  0  0  0  0  0  0  0  0  0  0
   21.9700   -5.1165  -15.8007 O   0  0  0  0  0  0  0  0  0  0  0  0
   22.3712   -3.5188  -14.2352 O   0  0  0  0  0  0  0  0  0  0  0  0
  2  1  1  0
  3  2  2  0
  4  2  1  0
  5  4  1  0
  5  6  1  6
  7  5  1  0
  7  9  1  0
  8  7  2  0
 10  9  1  0
 10 14  1  0
 10 11  1  1
 12 11  1  0
 12 13  2  0
 14 15  2  0
 14 17  1  0
 16 12  1  0
 17 18  1  0
 18 19  1  0
 19 21  1  0
 20 19  2  0
M  END
$$$$
