QMC.pdb
     RDKit          3D

 24 23  0  0  1  0  0  0  0  0999 V2000
    8.7823  -13.0959   17.3654 N   0  0  0  0  0  0  0  0  0  0  0  0
    8.2919  -14.4087   17.1917 C   0  0  0  0  0  0  0  0  0  0  0  0
    7.6971  -14.6812   16.1352 O   0  0  0  0  0  0  0  0  0  0  0  0
    8.4811  -15.4175   18.2386 C   0  0  0  0  0  0  0  0  0  0  0  0
    9.2031  -14.9552   19.4400 C   0  0  0  0  0  0  0  0  0  0  0  0
    9.3550  -15.9367   20.5642 C   0  0  2  0  0  0  0  0  0  0  0  0
    8.3124  -16.8870   20.6342 N   0  0  0  0  0  0  0  0  0  0  0  0
    9.4556  -15.2050   21.8828 C   0  0  0  0  0  0  0  0  0  0  0  0
   10.3162  -14.3374   22.0996 O   0  0  0  0  0  0  0  0  0  0  0  0
    6.1315  -11.6593   27.7887 C   0  0  0  0  0  0  0  0  0  0  0  0
    5.9023  -12.7558   26.3766 S   0  0  0  0  0  0  0  0  0  0  0  0
    7.4336  -13.7305   26.1173 C   0  0  0  0  0  0  0  0  0  0  0  0
    7.2865  -14.4356   24.7796 C   0  0  0  0  0  0  0  0  0  0  0  0
    8.5981  -14.8659   24.2086 C   0  0  2  0  0  0  0  0  0  0  0  0
    8.5558  -15.4859   22.9396 N   0  0  0  0  0  0  0  0  0  0  0  0
    9.2884  -15.6736   25.2402 C   0  0  0  0  0  0  0  0  0  0  0  0
    9.2801  -16.9280   25.1268 O   0  0  0  0  0  0  0  0  0  0  0  0
    9.9648  -15.1311   26.3568 N   0  0  0  0  0  0  0  0  0  0  0  0
   10.8661  -15.9197   27.1941 C   0  0  1  0  0  0  0  0  0  0  0  0
   11.4129  -15.1009   28.3385 C   0  0  0  0  0  0  0  0  0  0  0  0
   10.0491  -14.1842   29.1513 S   0  0  0  0  0  0  0  0  0  0  0  0
   10.1161  -17.0883   27.7133 C   0  0  0  0  0  0  0  0  0  0  0  0
    8.7395  -17.1328   27.6012 O   0  0  0  0  0  0  0  0  0  0  0  0
   10.7049  -18.0506   28.2582 O   0  0  0  0  0  0  0  0  0  0  0  0
  2  3  2  0
  2  1  1  0
  4  2  1  0
  5  4  1  0
  6  5  1  0
  6  7  1  1
  8  6  1  0
  9  8  2  0
 11 12  1  0
 11 10  1  0
 14 13  1  1
 13 12  1  0
 14 15  1  0
 15  8  1  0
 16 18  1  0
 16 14  1  0
 17 16  2  0
 19 22  1  0
 19 20  1  1
 19 18  1  0
 20 21  1  0
 22 23  1  0
 24 22  2  0
M  END
$$$$
