QMC.pdb
     RDKit          3D

 24 23  0  0  1  0  0  0  0  0999 V2000
    8.4484  -12.6724   16.8070 N   0  0  0  0  0  0  0  0  0  0  0  0
    8.1811  -14.0434   16.5993 C   0  0  0  0  0  0  0  0  0  0  0  0
    7.8702  -14.4171   15.4557 O   0  0  0  0  0  0  0  0  0  0  0  0
    8.2670  -14.9944   17.7118 C   0  0  0  0  0  0  0  0  0  0  0  0
    8.5790  -14.4028   19.0276 C   0  0  0  0  0  0  0  0  0  0  0  0
    8.6306  -15.3368   20.2003 C   0  0  2  0  0  0  0  0  0  0  0  0
    7.5192  -16.2044   20.2855 N   0  0  0  0  0  0  0  0  0  0  0  0
    8.7526  -14.5509   21.4855 C   0  0  0  0  0  0  0  0  0  0  0  0
    8.8704  -13.3155   21.5026 O   0  0  0  0  0  0  0  0  0  0  0  0
    6.3365  -12.2702   28.0258 C   0  0  0  0  0  0  0  0  0  0  0  0
    6.2482  -12.5749   26.2515 S   0  0  0  0  0  0  0  0  0  0  0  0
    7.9430  -12.8312   25.6002 C   0  0  0  0  0  0  0  0  0  0  0  0
    7.7971  -13.4747   24.2317 C   0  0  0  0  0  0  0  0  0  0  0  0
    8.8127  -14.5425   23.9866 C   0  0  2  0  0  0  0  0  0  0  0  0
    8.7367  -15.2054   22.7412 N   0  0  0  0  0  0  0  0  0  0  0  0
    8.7828  -15.4594   25.1491 C   0  0  0  0  0  0  0  0  0  0  0  0
    7.6990  -16.0349   25.4332 O   0  0  0  0  0  0  0  0  0  0  0  0
    9.8973  -15.7392   25.9727 N   0  0  0  0  0  0  0  0  0  0  0  0
   10.2085  -17.0845   26.4506 C   0  0  1  0  0  0  0  0  0  0  0  0
   11.5061  -17.5900   25.8678 C   0  0  0  0  0  0  0  0  0  0  0  0
   12.3330  -18.7014   27.0686 S   0  0  0  0  0  0  0  0  0  0  0  0
   10.2927  -17.0453   27.9302 C   0  0  0  0  0  0  0  0  0  0  0  0
   10.4198  -18.2195   28.6477 O   0  0  0  0  0  0  0  0  0  0  0  0
   10.2515  -15.9611   28.5566 O   0  0  0  0  0  0  0  0  0  0  0  0
  2  3  2  0
  2  1  1  0
  4  2  1  0
  5  4  1  0
  6  5  1  0
  6  7  1  1
  8  6  1  0
  9  8  2  0
 11 12  1  0
 11 10  1  0
 14 13  1  1
 13 12  1  0
 14 15  1  0
 15  8  1  0
 16 18  1  0
 16 14  1  0
 17 16  2  0
 19 22  1  0
 19 20  1  6
 19 18  1  0
 20 21  1  0
 22 23  1  0
 24 22  2  0
M  END
$$$$
