QMC.pdb
     RDKit          3D

 24 23  0  0  1  0  0  0  0  0999 V2000
    6.7652  -19.6573   19.9140 N   0  0  0  0  0  0  0  0  0  0  0  0
    6.8202  -18.8786   18.7373 C   0  0  0  0  0  0  0  0  0  0  0  0
    6.2490  -19.3061   17.7199 O   0  0  0  0  0  0  0  0  0  0  0  0
    7.5386  -17.6006   18.7245 C   0  0  0  0  0  0  0  0  0  0  0  0
    8.0856  -17.1689   20.0256 C   0  0  0  0  0  0  0  0  0  0  0  0
    7.6034  -15.8552   20.5660 C   0  0  2  0  0  0  0  0  0  0  0  0
    7.7326  -14.7836   19.6550 N   0  0  0  0  0  0  0  0  0  0  0  0
    8.3372  -15.5182   21.8436 C   0  0  0  0  0  0  0  0  0  0  0  0
    9.5746  -15.5547   21.9309 O   0  0  0  0  0  0  0  0  0  0  0  0
    7.1914  -11.9130   27.5522 C   0  0  0  0  0  0  0  0  0  0  0  0
    6.1492  -11.8675   26.0823 S   0  0  0  0  0  0  0  0  0  0  0  0
    7.0048  -12.7338   24.7113 C   0  0  0  0  0  0  0  0  0  0  0  0
    7.4139  -14.0986   25.2389 C   0  0  0  0  0  0  0  0  0  0  0  0
    8.2334  -14.8725   24.2585 C   0  0  2  0  0  0  0  0  0  0  0  0
    7.6284  -15.1408   23.0101 N   0  0  0  0  0  0  0  0  0  0  0  0
    8.7268  -16.0850   24.9510 C   0  0  0  0  0  0  0  0  0  0  0  0
    7.9738  -17.0931   25.0082 O   0  0  0  0  0  0  0  0  0  0  0  0
    9.9982  -16.1939   25.5595 N   0  0  0  0  0  0  0  0  0  0  0  0
   10.4927  -17.4411   26.1385 C   0  0  1  0  0  0  0  0  0  0  0  0
   11.9302  -17.6955   25.7537 C   0  0  0  0  0  0  0  0  0  0  0  0
   12.5516  -19.1819   26.6286 S   0  0  0  0  0  0  0  0  0  0  0  0
   10.3652  -17.3528   27.6128 C   0  0  0  0  0  0  0  0  0  0  0  0
   10.3914  -18.5020   28.3799 O   0  0  0  0  0  0  0  0  0  0  0  0
   10.2327  -16.2490   28.1904 O   0  0  0  0  0  0  0  0  0  0  0  0
  2  3  2  0
  2  1  1  0
  4  2  1  0
  5  4  1  0
  6  5  1  0
  6  7  1  6
  8  6  1  0
  9  8  2  0
 11 12  1  0
 11 10  1  0
 14 13  1  1
 13 12  1  0
 14 15  1  0
 15  8  1  0
 16 18  1  0
 16 14  1  0
 17 16  2  0
 19 22  1  0
 19 20  1  1
 19 18  1  0
 20 21  1  0
 22 23  1  0
 24 22  2  0
M  END
$$$$
