QMC.pdb
     RDKit          3D

 24 23  0  0  1  0  0  0  0  0999 V2000
    9.5205  -13.6937   17.1678 N   0  0  0  0  0  0  0  0  0  0  0  0
    8.2280  -14.2349   17.3429 C   0  0  0  0  0  0  0  0  0  0  0  0
    7.8056  -15.0395   16.4952 O   0  0  0  0  0  0  0  0  0  0  0  0
    7.4105  -13.8489   18.4971 C   0  0  0  0  0  0  0  0  0  0  0  0
    8.1566  -13.5980   19.7457 C   0  0  0  0  0  0  0  0  0  0  0  0
    8.3997  -14.7753   20.6430 C   0  0  2  0  0  0  0  0  0  0  0  0
    7.3132  -15.6754   20.7072 N   0  0  0  0  0  0  0  0  0  0  0  0
    8.7429  -14.3036   22.0373 C   0  0  0  0  0  0  0  0  0  0  0  0
    9.7570  -13.6316   22.2828 O   0  0  0  0  0  0  0  0  0  0  0  0
    5.3203  -11.3327   26.7041 C   0  0  0  0  0  0  0  0  0  0  0  0
    7.0790  -11.5507   27.0330 S   0  0  0  0  0  0  0  0  0  0  0  0
    7.5463  -13.2879   26.6785 C   0  0  0  0  0  0  0  0  0  0  0  0
    7.1466  -13.5674   25.2396 C   0  0  0  0  0  0  0  0  0  0  0  0
    8.2043  -14.3001   24.4806 C   0  0  2  0  0  0  0  0  0  0  0  0
    7.9057  -14.6156   23.1360 N   0  0  0  0  0  0  0  0  0  0  0  0
    8.6002  -15.4745   25.2911 C   0  0  0  0  0  0  0  0  0  0  0  0
    8.8045  -15.3132   26.5235 O   0  0  0  0  0  0  0  0  0  0  0  0
    8.7669  -16.7800   24.7748 N   0  0  0  0  0  0  0  0  0  0  0  0
    9.0558  -17.9341   25.6233 C   0  0  1  0  0  0  0  0  0  0  0  0
    8.0292  -19.0253   25.4378 C   0  0  0  0  0  0  0  0  0  0  0  0
    6.3761  -18.4121   25.9397 S   0  0  0  0  0  0  0  0  0  0  0  0
   10.4068  -18.4384   25.2793 C   0  0  0  0  0  0  0  0  0  0  0  0
   10.8946  -19.5804   25.8855 O   0  0  0  0  0  0  0  0  0  0  0  0
   11.1285  -17.8490   24.4418 O   0  0  0  0  0  0  0  0  0  0  0  0
  2  3  2  0
  2  1  1  0
  4  2  1  0
  5  4  1  0
  6  5  1  0
  6  7  1  1
  8  6  1  0
  9  8  2  0
 11 12  1  0
 11 10  1  0
 14 13  1  1
 13 12  1  0
 14 15  1  0
 15  8  1  0
 16 18  1  0
 16 14  1  0
 17 16  2  0
 19 22  1  0
 19 20  1  6
 19 18  1  0
 20 21  1  0
 22 23  1  0
 24 22  2  0
M  END
$$$$
