QMC.pdb
     RDKit          3D

 24 23  0  0  1  0  0  0  0  0999 V2000
    8.4252  -12.6649   18.2151 N   0  0  0  0  0  0  0  0  0  0  0  0
    8.0501  -14.0179   18.0644 C   0  0  0  0  0  0  0  0  0  0  0  0
    6.8390  -14.2926   18.0185 O   0  0  0  0  0  0  0  0  0  0  0  0
    9.0707  -15.0661   17.9690 C   0  0  0  0  0  0  0  0  0  0  0  0
    9.8847  -15.2694   19.1833 C   0  0  0  0  0  0  0  0  0  0  0  0
    9.2837  -16.1039   20.2754 C   0  0  2  0  0  0  0  0  0  0  0  0
    7.9208  -16.4132   20.0701 N   0  0  0  0  0  0  0  0  0  0  0  0
    9.4449  -15.4097   21.6082 C   0  0  0  0  0  0  0  0  0  0  0  0
   10.5471  -15.0270   22.0313 O   0  0  0  0  0  0  0  0  0  0  0  0
    6.0207  -11.5853   27.5395 C   0  0  0  0  0  0  0  0  0  0  0  0
    5.8692  -12.5622   26.0323 S   0  0  0  0  0  0  0  0  0  0  0  0
    7.5299  -12.7765   25.2851 C   0  0  0  0  0  0  0  0  0  0  0  0
    7.3286  -13.4937   23.9609 C   0  0  0  0  0  0  0  0  0  0  0  0
    8.3886  -14.5110   23.6905 C   0  0  2  0  0  0  0  0  0  0  0  0
    8.3249  -15.1647   22.4395 N   0  0  0  0  0  0  0  0  0  0  0  0
    8.4178  -15.4396   24.8437 C   0  0  0  0  0  0  0  0  0  0  0  0
    7.3259  -15.8918   25.2794 O   0  0  0  0  0  0  0  0  0  0  0  0
    9.5979  -15.8605   25.4986 N   0  0  0  0  0  0  0  0  0  0  0  0
    9.7210  -17.1663   26.1429 C   0  0  1  0  0  0  0  0  0  0  0  0
    9.7412  -18.2826   25.1267 C   0  0  0  0  0  0  0  0  0  0  0  0
   10.0781  -19.8775   25.9654 S   0  0  0  0  0  0  0  0  0  0  0  0
   10.9711  -17.1765   26.9395 C   0  0  0  0  0  0  0  0  0  0  0  0
   11.9236  -16.1942   26.7457 O   0  0  0  0  0  0  0  0  0  0  0  0
   11.1906  -18.0640   27.7962 O   0  0  0  0  0  0  0  0  0  0  0  0
  2  3  2  0
  2  1  1  0
  4  2  1  0
  5  4  1  0
  6  5  1  0
  6  7  1  6
  8  6  1  0
  9  8  2  0
 11 12  1  0
 11 10  1  0
 14 13  1  1
 13 12  1  0
 14 15  1  0
 15  8  1  0
 16 18  1  0
 16 14  1  0
 17 16  2  0
 19 22  1  0
 19 20  1  6
 19 18  1  0
 20 21  1  0
 22 23  1  0
 24 22  2  0
M  END
$$$$
