QMC.pdb
     RDKit          3D

 24 23  0  0  1  0  0  0  0  0999 V2000
    8.6187  -12.8526   16.5588 N   0  0  0  0  0  0  0  0  0  0  0  0
    7.7224  -13.8587   16.9812 C   0  0  0  0  0  0  0  0  0  0  0  0
    7.0131  -14.4140   16.1251 O   0  0  0  0  0  0  0  0  0  0  0  0
    7.6349  -14.2300   18.3968 C   0  0  0  0  0  0  0  0  0  0  0  0
    8.9020  -14.6645   19.0167 C   0  0  0  0  0  0  0  0  0  0  0  0
    8.8242  -15.7782   20.0187 C   0  0  2  0  0  0  0  0  0  0  0  0
    7.5724  -16.4317   20.0465 N   0  0  0  0  0  0  0  0  0  0  0  0
    9.1488  -15.2578   21.4000 C   0  0  0  0  0  0  0  0  0  0  0  0
   10.2366  -14.7267   21.6736 O   0  0  0  0  0  0  0  0  0  0  0  0
    6.7520  -11.9490   28.0292 C   0  0  0  0  0  0  0  0  0  0  0  0
    6.3246  -12.6486   26.4240 S   0  0  0  0  0  0  0  0  0  0  0  0
    7.7188  -13.6789   25.8266 C   0  0  0  0  0  0  0  0  0  0  0  0
    7.3461  -14.1616   24.4351 C   0  0  0  0  0  0  0  0  0  0  0  0
    8.4461  -14.9303   23.7788 C   0  0  2  0  0  0  0  0  0  0  0  0
    8.2074  -15.3576   22.4533 N   0  0  0  0  0  0  0  0  0  0  0  0
    8.8293  -16.0283   24.6956 C   0  0  0  0  0  0  0  0  0  0  0  0
    7.9773  -16.9185   24.9569 O   0  0  0  0  0  0  0  0  0  0  0  0
   10.0986  -16.1510   25.3059 N   0  0  0  0  0  0  0  0  0  0  0  0
   10.4702  -17.2972   26.1326 C   0  0  1  0  0  0  0  0  0  0  0  0
   11.9356  -17.6295   25.9874 C   0  0  0  0  0  0  0  0  0  0  0  0
   12.3380  -17.8955   24.2187 S   0  0  0  0  0  0  0  0  0  0  0  0
   10.1561  -16.9741   27.5449 C   0  0  0  0  0  0  0  0  0  0  0  0
   10.2579  -17.9504   28.5176 O   0  0  0  0  0  0  0  0  0  0  0  0
    9.7959  -15.8234   27.8855 O   0  0  0  0  0  0  0  0  0  0  0  0
  2  3  2  0
  2  1  1  0
  4  2  1  0
  5  4  1  0
  6  5  1  0
  6  7  1  1
  8  6  1  0
  9  8  2  0
 11 12  1  0
 11 10  1  0
 14 13  1  1
 13 12  1  0
 14 15  1  0
 15  8  1  0
 16 18  1  0
 16 14  1  0
 17 16  2  0
 19 22  1  0
 19 20  1  1
 19 18  1  0
 20 21  1  0
 22 23  1  0
 24 22  2  0
M  END
$$$$
