CYL.pdb
     RDKit          3D

 27 27  0  0  1  0  0  0  0  0999 V2000
   29.0449  -22.1805  -18.7744 N   0  0  0  0  0  0  0  0  0  0  0  0
   28.6181  -22.6033  -17.4679 C   0  0  1  0  0  0  0  0  0  0  0  0
   29.8078  -22.7206  -16.5094 C   0  0  0  0  0  0  0  0  0  0  0  0
   30.4224  -24.4272  -16.6523 S   0  0  0  0  0  0  0  0  0  0  0  0
   27.7258  -21.5561  -16.9056 C   0  0  0  0  0  0  0  0  0  0  0  0
   27.9654  -20.3314  -17.0668 O   0  0  0  0  0  0  0  0  0  0  0  0
   20.0004  -18.0284  -14.8827 O   0  0  0  0  0  0  0  0  0  0  0  0
   21.1140  -18.7044  -15.3234 C   0  0  0  0  0  0  0  0  0  0  0  0
   21.1385  -20.0786  -15.2082 C   0  0  0  0  0  0  0  0  0  0  0  0
   22.2642  -20.7392  -15.6559 C   0  0  0  0  0  0  0  0  0  0  0  0
   23.3518  -20.0621  -16.2092 C   0  0  0  0  0  0  0  0  0  0  0  0
   24.5172  -20.8212  -16.6303 C   0  0  0  0  0  0  0  0  0  0  0  0
   25.6125  -20.9368  -15.6448 C   0  0  2  0  0  0  0  0  0  0  0  0
   26.5802  -21.9370  -16.1721 N   0  0  0  0  0  0  0  0  0  0  0  0
   25.2986  -21.2994  -14.2780 C   0  0  0  0  0  0  0  0  0  0  0  0
   24.8459  -22.4785  -14.0683 O   0  0  0  0  0  0  0  0  0  0  0  0
   23.2881  -18.7073  -16.3050 C   0  0  0  0  0  0  0  0  0  0  0  0
   22.1762  -18.0072  -15.8672 C   0  0  0  0  0  0  0  0  0  0  0  0
   25.9518  -19.5044   -8.3204 C   0  0  0  0  0  0  0  0  0  0  0  0
   25.4320  -20.4984   -9.3015 C   0  0  2  0  0  0  0  0  0  0  0  0
   25.9173  -21.9072   -8.8934 C   0  0  0  0  0  0  0  0  0  0  0  0
   25.7351  -20.2771  -10.7334 C   0  0  0  0  0  0  0  0  0  0  0  0
   24.9201  -20.9413  -11.7877 C   0  0  2  0  0  0  0  0  0  0  0  0
   25.4376  -20.4964  -13.1141 N   0  0  0  0  0  0  0  0  0  0  0  0
   23.4744  -20.8280  -11.7448 C   0  0  0  0  0  0  0  0  0  0  0  0
   22.5499  -21.7943  -11.4120 O   0  0  0  0  0  0  0  0  0  0  0  0
   22.9467  -19.6945  -12.0584 O   0  0  0  0  0  0  0  0  0  0  0  0
  2  1  1  6
  3  2  1  0
  4  3  1  0
  5  2  1  0
  5  6  2  0
  7  8  1  0
  8 18  2  0
  9  8  1  0
  9 10  2  0
 10 11  1  0
 11 17  2  0
 11 12  1  0
 13 12  1  6
 13 14  1  0
 14  5  1  0
 15 13  1  0
 16 15  2  0
 18 17  1  0
 20 19  1  1
 21 20  1  0
 23 22  1  1
 22 20  1  0
 23 24  1  0
 24 15  1  0
 25 26  1  0
 25 23  1  0
 27 25  2  0
M  END
$$$$
