CYL.pdb
     RDKit          3D

 27 27  0  0  1  0  0  0  0  0999 V2000
   27.4631  -22.3730  -15.9690 N   0  0  0  0  0  0  0  0  0  0  0  0
   26.1492  -22.8435  -16.3155 C   0  0  1  0  0  0  0  0  0  0  0  0
   25.9634  -24.3099  -15.9116 C   0  0  0  0  0  0  0  0  0  0  0  0
   27.2950  -25.2446  -16.7262 S   0  0  0  0  0  0  0  0  0  0  0  0
   25.1524  -22.0626  -15.5373 C   0  0  0  0  0  0  0  0  0  0  0  0
   25.4010  -21.6518  -14.3743 O   0  0  0  0  0  0  0  0  0  0  0  0
   27.1184  -16.2133  -16.7156 O   0  0  0  0  0  0  0  0  0  0  0  0
   26.0471  -17.0674  -16.5953 C   0  0  0  0  0  0  0  0  0  0  0  0
   25.7163  -17.8641  -17.6714 C   0  0  0  0  0  0  0  0  0  0  0  0
   24.6385  -18.7144  -17.5318 C   0  0  0  0  0  0  0  0  0  0  0  0
   23.8947  -18.7832  -16.3530 C   0  0  0  0  0  0  0  0  0  0  0  0
   22.7526  -19.6794  -16.2890 C   0  0  0  0  0  0  0  0  0  0  0  0
   22.9101  -20.8787  -15.4397 C   0  0  2  0  0  0  0  0  0  0  0  0
   23.8945  -21.7710  -16.1102 N   0  0  0  0  0  0  0  0  0  0  0  0
   21.7428  -21.6712  -15.1117 C   0  0  0  0  0  0  0  0  0  0  0  0
   21.2837  -22.4504  -16.0178 O   0  0  0  0  0  0  0  0  0  0  0  0
   24.2535  -17.9810  -15.3153 C   0  0  0  0  0  0  0  0  0  0  0  0
   25.3288  -17.1140  -15.4156 C   0  0  0  0  0  0  0  0  0  0  0  0
   19.4058  -25.5452  -14.5562 C   0  0  0  0  0  0  0  0  0  0  0  0
   20.4695  -25.0376  -13.6442 C   0  0  2  0  0  0  0  0  0  0  0  0
   20.8057  -26.1323  -12.6072 C   0  0  0  0  0  0  0  0  0  0  0  0
   20.2203  -23.7607  -12.9379 C   0  0  0  0  0  0  0  0  0  0  0  0
   19.8169  -22.5454  -13.6977 C   0  0  2  0  0  0  0  0  0  0  0  0
   21.0304  -21.6978  -13.8827 N   0  0  0  0  0  0  0  0  0  0  0  0
   18.7077  -21.7431  -13.2176 C   0  0  0  0  0  0  0  0  0  0  0  0
   17.3589  -22.0162  -13.2915 O   0  0  0  0  0  0  0  0  0  0  0  0
   18.9764  -20.6183  -12.6479 O   0  0  0  0  0  0  0  0  0  0  0  0
  2  1  1  1
  3  2  1  0
  4  3  1  0
  5  2  1  0
  5  6  2  0
  7  8  1  0
  8 18  2  0
  9  8  1  0
  9 10  2  0
 10 11  1  0
 11 17  2  0
 11 12  1  0
 13 12  1  6
 13 14  1  0
 14  5  1  0
 15 13  1  0
 16 15  2  0
 18 17  1  0
 20 19  1  1
 21 20  1  0
 23 22  1  1
 22 20  1  0
 23 24  1  0
 24 15  1  0
 25 26  1  0
 25 23  1  0
 27 25  2  0
M  END
$$$$
