CYL.pdb
     RDKit          3D

 27 27  0  0  1  0  0  0  0  0999 V2000
   27.8496  -26.1093  -18.4753 N   0  0  0  0  0  0  0  0  0  0  0  0
   26.8871  -26.1523  -17.4077 C   0  0  1  0  0  0  0  0  0  0  0  0
   27.5422  -26.5807  -16.0905 C   0  0  0  0  0  0  0  0  0  0  0  0
   28.0404  -28.3181  -16.3003 S   0  0  0  0  0  0  0  0  0  0  0  0
   26.3667  -24.7770  -17.1915 C   0  0  0  0  0  0  0  0  0  0  0  0
   27.0966  -23.7645  -17.3507 O   0  0  0  0  0  0  0  0  0  0  0  0
   24.9363  -21.9780  -22.8770 O   0  0  0  0  0  0  0  0  0  0  0  0
   24.5317  -22.2788  -21.5974 C   0  0  0  0  0  0  0  0  0  0  0  0
   24.3318  -21.2425  -20.7094 C   0  0  0  0  0  0  0  0  0  0  0  0
   23.9261  -21.5641  -19.4303 C   0  0  0  0  0  0  0  0  0  0  0  0
   23.7189  -22.8837  -19.0266 C   0  0  0  0  0  0  0  0  0  0  0  0
   23.3224  -23.1492  -17.6540 C   0  0  0  0  0  0  0  0  0  0  0  0
   24.4161  -23.2419  -16.6644 C   0  0  2  0  0  0  0  0  0  0  0  0
   25.0223  -24.5945  -16.7982 N   0  0  0  0  0  0  0  0  0  0  0  0
   24.1222  -23.0230  -15.2629 C   0  0  0  0  0  0  0  0  0  0  0  0
   23.6343  -24.0042  -14.6010 O   0  0  0  0  0  0  0  0  0  0  0  0
   23.9270  -23.8763  -19.9324 C   0  0  0  0  0  0  0  0  0  0  0  0
   24.3344  -23.5952  -21.2258 C   0  0  0  0  0  0  0  0  0  0  0  0
   25.8148  -19.5385  -10.4504 C   0  0  0  0  0  0  0  0  0  0  0  0
   25.0249  -20.7025  -10.9424 C   0  0  2  0  0  0  0  0  0  0  0  0
   25.3986  -21.9499  -10.1111 C   0  0  0  0  0  0  0  0  0  0  0  0
   25.1117  -21.0354  -12.3822 C   0  0  0  0  0  0  0  0  0  0  0  0
   24.0013  -21.7638  -13.0555 C   0  0  2  0  0  0  0  0  0  0  0  0
   24.3162  -21.8325  -14.5120 N   0  0  0  0  0  0  0  0  0  0  0  0
   22.6350  -21.3197  -12.8537 C   0  0  0  0  0  0  0  0  0  0  0  0
   21.6765  -21.8525  -12.0190 O   0  0  0  0  0  0  0  0  0  0  0  0
   22.2235  -20.3018  -13.5294 O   0  0  0  0  0  0  0  0  0  0  0  0
  2  1  1  6
  3  2  1  0
  4  3  1  0
  5  2  1  0
  5  6  2  0
  7  8  1  0
  8 18  2  0
  9  8  1  0
  9 10  2  0
 10 11  1  0
 11 17  2  0
 11 12  1  0
 13 12  1  6
 13 14  1  0
 14  5  1  0
 15 13  1  0
 16 15  2  0
 18 17  1  0
 20 19  1  6
 21 20  1  0
 23 22  1  1
 22 20  1  0
 23 24  1  0
 24 15  1  0
 25 26  1  0
 25 23  1  0
 27 25  2  0
M  END
$$$$
