CYL.pdb
     RDKit          3D

 27 27  0  0  1  0  0  0  0  0999 V2000
   25.7645  -20.8799  -14.9839 N   0  0  0  0  0  0  0  0  0  0  0  0
   26.2620  -21.3309  -13.7123 C   0  0  1  0  0  0  0  0  0  0  0  0
   27.7911  -21.2506  -13.6575 C   0  0  0  0  0  0  0  0  0  0  0  0
   28.4167  -22.4269  -14.8967 S   0  0  0  0  0  0  0  0  0  0  0  0
   25.7540  -20.4133  -12.6591 C   0  0  0  0  0  0  0  0  0  0  0  0
   25.7015  -19.1692  -12.8397 O   0  0  0  0  0  0  0  0  0  0  0  0
   19.4081  -20.5590  -13.8506 O   0  0  0  0  0  0  0  0  0  0  0  0
   20.3871  -20.6068  -12.8858 C   0  0  0  0  0  0  0  0  0  0  0  0
   21.4814  -19.7776  -13.0165 C   0  0  0  0  0  0  0  0  0  0  0  0
   22.4530  -19.8399  -12.0388 C   0  0  0  0  0  0  0  0  0  0  0  0
   22.3537  -20.7036  -10.9471 C   0  0  0  0  0  0  0  0  0  0  0  0
   23.4311  -20.7379   -9.9725 C   0  0  0  0  0  0  0  0  0  0  0  0
   24.6969  -20.0899  -10.3751 C   0  0  2  0  0  0  0  0  0  0  0  0
   25.3183  -20.9431  -11.4242 N   0  0  0  0  0  0  0  0  0  0  0  0
   25.7034  -19.8182   -9.3692 C   0  0  0  0  0  0  0  0  0  0  0  0
   25.6506  -18.6879   -8.7704 O   0  0  0  0  0  0  0  0  0  0  0  0
   21.2590  -21.5048  -10.8551 C   0  0  0  0  0  0  0  0  0  0  0  0
   20.2617  -21.4723  -11.8156 C   0  0  0  0  0  0  0  0  0  0  0  0
   28.7706  -20.3630   -4.4667 C   0  0  0  0  0  0  0  0  0  0  0  0
   28.7939  -19.7951   -5.8443 C   0  0  2  0  0  0  0  0  0  0  0  0
   28.7559  -18.2535   -5.7523 C   0  0  0  0  0  0  0  0  0  0  0  0
   27.7544  -20.2499   -6.7951 C   0  0  0  0  0  0  0  0  0  0  0  0
   27.9728  -20.1329   -8.2633 C   0  0  2  0  0  0  0  0  0  0  0  0
   26.7617  -20.6684   -8.9500 N   0  0  0  0  0  0  0  0  0  0  0  0
   29.1760  -20.6929   -8.8493 C   0  0  0  0  0  0  0  0  0  0  0  0
   29.3847  -21.9727   -9.3161 O   0  0  0  0  0  0  0  0  0  0  0  0
   30.2080  -19.9283   -8.9591 O   0  0  0  0  0  0  0  0  0  0  0  0
  2  1  1  6
  3  2  1  0
  4  3  1  0
  5  2  1  0
  5  6  2  0
  7  8  1  0
  8 18  2  0
  9  8  1  0
  9 10  2  0
 10 11  1  0
 11 17  2  0
 11 12  1  0
 13 12  1  1
 13 14  1  0
 14  5  1  0
 15 13  1  0
 16 15  2  0
 18 17  1  0
 20 19  1  1
 21 20  1  0
 23 22  1  1
 22 20  1  0
 23 24  1  0
 24 15  1  0
 25 26  1  0
 25 23  1  0
 27 25  2  0
M  END
$$$$
