CYL.pdb
     RDKit          3D

 27 27  0  0  1  0  0  0  0  0999 V2000
   13.7642  -11.3638  -15.0328 N   0  0  0  0  0  0  0  0  0  0  0  0
   14.8732  -12.0328  -15.6576 C   0  0  1  0  0  0  0  0  0  0  0  0
   14.4001  -12.9350  -16.8023 C   0  0  0  0  0  0  0  0  0  0  0  0
   13.2753  -14.1607  -16.0653 S   0  0  0  0  0  0  0  0  0  0  0  0
   15.7556  -11.0048  -16.2687 C   0  0  0  0  0  0  0  0  0  0  0  0
   16.1543  -11.1026  -17.4581 O   0  0  0  0  0  0  0  0  0  0  0  0
   18.7310   -2.8239  -17.5030 O   0  0  0  0  0  0  0  0  0  0  0  0
   18.0885   -3.9941  -17.1720 C   0  0  0  0  0  0  0  0  0  0  0  0
   17.6197   -4.1462  -15.8839 C   0  0  0  0  0  0  0  0  0  0  0  0
   16.9779   -5.3270  -15.5709 C   0  0  0  0  0  0  0  0  0  0  0  0
   16.7978   -6.3454  -16.5078 C   0  0  0  0  0  0  0  0  0  0  0  0
   16.1404   -7.5749  -16.0981 C   0  0  0  0  0  0  0  0  0  0  0  0
   16.9808   -8.7905  -16.0809 C   0  0  2  0  0  0  0  0  0  0  0  0
   16.1602   -9.8891  -15.5024 N   0  0  0  0  0  0  0  0  0  0  0  0
   18.2475   -8.7646  -15.3787 C   0  0  0  0  0  0  0  0  0  0  0  0
   18.2171   -8.8451  -14.1014 O   0  0  0  0  0  0  0  0  0  0  0  0
   17.2749   -6.1561  -17.7670 C   0  0  0  0  0  0  0  0  0  0  0  0
   17.9247   -4.9854  -18.1210 C   0  0  0  0  0  0  0  0  0  0  0  0
   23.8929   -9.3939  -14.8794 C   0  0  0  0  0  0  0  0  0  0  0  0
   22.7014  -10.1450  -14.3923 C   0  0  2  0  0  0  0  0  0  0  0  0
   23.0279  -11.6549  -14.3868 C   0  0  0  0  0  0  0  0  0  0  0  0
   21.4162   -9.9293  -15.0944 C   0  0  0  0  0  0  0  0  0  0  0  0
   20.7687   -8.5885  -15.0861 C   0  0  2  0  0  0  0  0  0  0  0  0
   19.5485   -8.6645  -15.9409 N   0  0  0  0  0  0  0  0  0  0  0  0
   21.5543   -7.4180  -15.4287 C   0  0  0  0  0  0  0  0  0  0  0  0
   21.6780   -6.7989  -16.6538 O   0  0  0  0  0  0  0  0  0  0  0  0
   22.2462   -6.8593  -14.4954 O   0  0  0  0  0  0  0  0  0  0  0  0
  2  1  1  6
  3  2  1  0
  4  3  1  0
  5  2  1  0
  5  6  2  0
  7  8  1  0
  8 18  2  0
  9  8  1  0
  9 10  2  0
 10 11  1  0
 11 17  2  0
 11 12  1  0
 13 12  1  1
 13 14  1  0
 14  5  1  0
 15 13  1  0
 16 15  2  0
 18 17  1  0
 20 19  1  6
 21 20  1  0
 23 22  1  6
 22 20  1  0
 23 24  1  0
 24 15  1  0
 25 26  1  0
 25 23  1  0
 27 25  2  0
M  END
$$$$
