CYL.pdb
     RDKit          3D

 27 27  0  0  1  0  0  0  0  0999 V2000
   22.5479  -22.6188  -14.9000 N   0  0  0  0  0  0  0  0  0  0  0  0
   23.3883  -22.9093  -13.7698 C   0  0  1  0  0  0  0  0  0  0  0  0
   24.7773  -23.3742  -14.2194 C   0  0  0  0  0  0  0  0  0  0  0  0
   24.5638  -25.0377  -14.9251 S   0  0  0  0  0  0  0  0  0  0  0  0
   23.5924  -21.6522  -13.0035 C   0  0  0  0  0  0  0  0  0  0  0  0
   23.4634  -20.5235  -13.5443 O   0  0  0  0  0  0  0  0  0  0  0  0
   18.5793  -21.8273   -8.5553 O   0  0  0  0  0  0  0  0  0  0  0  0
   19.9134  -21.5628   -8.7597 C   0  0  0  0  0  0  0  0  0  0  0  0
   20.2842  -20.8984   -9.9100 C   0  0  0  0  0  0  0  0  0  0  0  0
   21.6270  -20.6421  -10.0975 C   0  0  0  0  0  0  0  0  0  0  0  0
   22.5940  -21.0318   -9.1698 C   0  0  0  0  0  0  0  0  0  0  0  0
   23.9932  -20.7562   -9.4490 C   0  0  0  0  0  0  0  0  0  0  0  0
   24.3409  -20.5108  -10.8643 C   0  0  2  0  0  0  0  0  0  0  0  0
   23.9395  -21.7185  -11.6357 N   0  0  0  0  0  0  0  0  0  0  0  0
   25.7117  -20.1966  -11.2116 C   0  0  0  0  0  0  0  0  0  0  0  0
   26.1889  -19.0863  -10.7891 O   0  0  0  0  0  0  0  0  0  0  0  0
   22.1871  -21.6846   -8.0486 C   0  0  0  0  0  0  0  0  0  0  0  0
   20.8488  -21.9608   -7.8233 C   0  0  0  0  0  0  0  0  0  0  0  0
   31.1047  -22.2158  -10.3276 C   0  0  0  0  0  0  0  0  0  0  0  0
   30.3356  -21.2792  -11.1949 C   0  0  2  0  0  0  0  0  0  0  0  0
   30.7122  -19.8277  -10.8235 C   0  0  0  0  0  0  0  0  0  0  0  0
   28.8611  -21.4085  -11.2116 C   0  0  0  0  0  0  0  0  0  0  0  0
   28.0434  -20.5911  -12.1498 C   0  0  2  0  0  0  0  0  0  0  0  0
   26.6153  -20.9846  -11.9739 N   0  0  0  0  0  0  0  0  0  0  0  0
   28.3914  -20.5652  -13.5579 C   0  0  0  0  0  0  0  0  0  0  0  0
   27.5820  -20.8184  -14.6442 O   0  0  0  0  0  0  0  0  0  0  0  0
   29.6075  -20.2790  -13.8755 O   0  0  0  0  0  0  0  0  0  0  0  0
  2  1  1  6
  3  2  1  0
  4  3  1  0
  5  2  1  0
  5  6  2  0
  7  8  1  0
  8 18  2  0
  9  8  1  0
  9 10  2  0
 10 11  1  0
 11 17  2  0
 11 12  1  0
 13 12  1  1
 13 14  1  0
 14  5  1  0
 15 13  1  0
 16 15  2  0
 18 17  1  0
 20 19  1  1
 21 20  1  0
 23 22  1  1
 22 20  1  0
 23 24  1  0
 24 15  1  0
 25 26  1  0
 25 23  1  0
 27 25  2  0
M  END
$$$$
