CYL.pdb
     RDKit          3D

 27 27  0  0  1  0  0  0  0  0999 V2000
   19.5101  -22.7649   -8.6175 N   0  0  0  0  0  0  0  0  0  0  0  0
   20.5453  -21.9482   -8.0439 C   0  0  1  0  0  0  0  0  0  0  0  0
   21.2180  -22.6573   -6.8638 C   0  0  0  0  0  0  0  0  0  0  0  0
   19.9848  -22.7232   -5.5275 S   0  0  0  0  0  0  0  0  0  0  0  0
   21.6014  -21.7429   -9.0694 C   0  0  0  0  0  0  0  0  0  0  0  0
   21.8240  -22.5982   -9.9650 O   0  0  0  0  0  0  0  0  0  0  0  0
   19.5647  -20.7033  -15.1462 O   0  0  0  0  0  0  0  0  0  0  0  0
   20.4039  -20.3492  -14.1157 C   0  0  0  0  0  0  0  0  0  0  0  0
   19.8498  -19.8313  -12.9637 C   0  0  0  0  0  0  0  0  0  0  0  0
   20.7077  -19.4819  -11.9410 C   0  0  0  0  0  0  0  0  0  0  0  0
   22.0905  -19.6379  -12.0456 C   0  0  0  0  0  0  0  0  0  0  0  0
   22.9350  -19.2184  -10.9398 C   0  0  0  0  0  0  0  0  0  0  0  0
   23.4348  -20.2921  -10.0558 C   0  0  2  0  0  0  0  0  0  0  0  0
   22.3771  -20.5626   -9.0444 N   0  0  0  0  0  0  0  0  0  0  0  0
   24.6860  -20.1026   -9.3508 C   0  0  0  0  0  0  0  0  0  0  0  0
   24.6662  -19.3777   -8.2958 O   0  0  0  0  0  0  0  0  0  0  0  0
   22.5969  -20.1521  -13.1980 C   0  0  0  0  0  0  0  0  0  0  0  0
   21.7696  -20.5151  -14.2477 C   0  0  0  0  0  0  0  0  0  0  0  0
   27.7290  -20.4595   -5.0797 C   0  0  0  0  0  0  0  0  0  0  0  0
   27.8966  -19.9621   -6.4745 C   0  0  2  0  0  0  0  0  0  0  0  0
   27.9738  -18.4193   -6.4511 C   0  0  0  0  0  0  0  0  0  0  0  0
   26.8961  -20.3824   -7.4812 C   0  0  0  0  0  0  0  0  0  0  0  0
   27.1912  -20.2567   -8.9352 C   0  0  2  0  0  0  0  0  0  0  0  0
   25.9595  -20.6357   -9.6865 N   0  0  0  0  0  0  0  0  0  0  0  0
   28.3490  -20.9354   -9.4863 C   0  0  0  0  0  0  0  0  0  0  0  0
   29.6652  -20.8420   -9.0888 O   0  0  0  0  0  0  0  0  0  0  0  0
   28.1656  -21.7328  -10.4825 O   0  0  0  0  0  0  0  0  0  0  0  0
  2  1  1  6
  3  2  1  0
  4  3  1  0
  5  2  1  0
  5  6  2  0
  7  8  1  0
  8 18  2  0
  9  8  1  0
  9 10  2  0
 10 11  1  0
 11 17  2  0
 11 12  1  0
 13 12  1  1
 13 14  1  0
 14  5  1  0
 15 13  1  0
 16 15  2  0
 18 17  1  0
 20 19  1  1
 21 20  1  0
 23 22  1  1
 22 20  1  0
 23 24  1  0
 24 15  1  0
 25 26  1  0
 25 23  1  0
 27 25  2  0
M  END
$$$$
