CYL.pdb
     RDKit          3D

 27 27  0  0  1  0  0  0  0  0999 V2000
   26.0607  -25.0859  -16.9522 N   0  0  0  0  0  0  0  0  0  0  0  0
   26.4271  -23.7169  -16.7087 C   0  0  1  0  0  0  0  0  0  0  0  0
   25.9131  -22.8008  -17.8243 C   0  0  0  0  0  0  0  0  0  0  0  0
   26.9790  -23.0953  -19.2691 S   0  0  0  0  0  0  0  0  0  0  0  0
   25.7618  -23.2702  -15.4569 C   0  0  0  0  0  0  0  0  0  0  0  0
   24.6777  -23.7785  -15.0703 O   0  0  0  0  0  0  0  0  0  0  0  0
   25.4655  -19.5463   -7.4191 O   0  0  0  0  0  0  0  0  0  0  0  0
   25.8054  -19.9835   -8.6780 C   0  0  0  0  0  0  0  0  0  0  0  0
   25.6853  -21.3277   -8.9629 C   0  0  0  0  0  0  0  0  0  0  0  0
   26.0310  -21.7473  -10.2311 C   0  0  0  0  0  0  0  0  0  0  0  0
   26.4883  -20.8614  -11.2076 C   0  0  0  0  0  0  0  0  0  0  0  0
   26.8644  -21.3797  -12.5121 C   0  0  0  0  0  0  0  0  0  0  0  0
   25.7538  -21.7867  -13.3982 C   0  0  2  0  0  0  0  0  0  0  0  0
   26.3547  -22.2518  -14.6778 N   0  0  0  0  0  0  0  0  0  0  0  0
   24.7158  -20.8279  -13.7170 C   0  0  0  0  0  0  0  0  0  0  0  0
   24.7964  -20.2215  -14.8416 O   0  0  0  0  0  0  0  0  0  0  0  0
   26.5924  -19.5442  -10.8866 C   0  0  0  0  0  0  0  0  0  0  0  0
   26.2555  -19.0830   -9.6249 C   0  0  0  0  0  0  0  0  0  0  0  0
   20.7566  -19.6745  -16.3970 C   0  0  0  0  0  0  0  0  0  0  0  0
   21.7131  -18.7337  -15.7481 C   0  0  2  0  0  0  0  0  0  0  0  0
   22.4010  -17.8850  -16.8404 C   0  0  0  0  0  0  0  0  0  0  0  0
   22.7467  -19.3072  -14.8570 C   0  0  0  0  0  0  0  0  0  0  0  0
   22.3726  -19.8557  -13.5242 C   0  0  2  0  0  0  0  0  0  0  0  0
   23.5917  -20.4715  -12.9244 N   0  0  0  0  0  0  0  0  0  0  0  0
   21.2445  -20.7618  -13.4200 C   0  0  0  0  0  0  0  0  0  0  0  0
   19.9231  -20.4583  -13.1728 O   0  0  0  0  0  0  0  0  0  0  0  0
   21.4663  -22.0234  -13.5647 O   0  0  0  0  0  0  0  0  0  0  0  0
  2  1  1  6
  3  2  1  0
  4  3  1  0
  5  2  1  0
  5  6  2  0
  7  8  1  0
  8 18  2  0
  9  8  1  0
  9 10  2  0
 10 11  1  0
 11 17  2  0
 11 12  1  0
 13 12  1  1
 13 14  1  0
 14  5  1  0
 15 13  1  0
 16 15  2  0
 18 17  1  0
 20 19  1  6
 21 20  1  0
 23 22  1  6
 22 20  1  0
 23 24  1  0
 24 15  1  0
 25 26  1  0
 25 23  1  0
 27 25  2  0
M  END
$$$$
