NWK.pdb
     RDKit          3D

 32 33  0  0  1  0  0  0  0  0999 V2000
   12.0780  -17.0707   16.5337 N   0  0  0  0  0  0  0  0  0  0  0  0
   10.8071  -16.5253   16.8152 C   0  0  0  0  0  0  0  0  0  0  0  0
    9.9002  -16.6008   15.9675 O   0  0  0  0  0  0  0  0  0  0  0  0
   10.5612  -15.8702   18.1096 C   0  0  0  0  0  0  0  0  0  0  0  0
   10.0683  -16.8888   19.0917 C   0  0  2  0  0  0  0  0  0  0  0  0
    8.8711  -17.5564   18.6278 N   0  0  0  0  0  0  0  0  0  0  0  0
    9.8722  -16.3035   20.4515 C   0  0  0  0  0  0  0  0  0  0  0  0
   10.9061  -15.7766   20.9860 O   0  0  0  0  0  0  0  0  0  0  0  0
    8.6706  -16.2934   21.1581 N   0  0  0  0  0  0  0  0  0  0  0  0
    8.6150  -15.8632   22.5513 C   0  0  1  0  0  0  0  0  0  0  0  0
    7.1792  -15.5898   22.9408 C   0  0  0  0  0  0  0  0  0  0  0  0
    7.0018  -15.0940   24.3159 C   0  0  0  0  0  0  0  0  0  0  0  0
    6.5575  -15.9441   25.3391 C   0  0  0  0  0  0  0  0  0  0  0  0
    6.5411  -15.2248   26.4684 N   0  0  0  0  0  0  0  0  0  0  0  0
    6.9367  -13.9665   26.2807 C   0  0  0  0  0  0  0  0  0  0  0  0
    7.0827  -12.8612   27.0903 C   0  0  0  0  0  0  0  0  0  0  0  0
    7.5203  -11.6412   26.5684 C   0  0  0  0  0  0  0  0  0  0  0  0
    7.7995  -11.5770   25.2274 C   0  0  0  0  0  0  0  0  0  0  0  0
    7.6530  -12.6868   24.4169 C   0  0  0  0  0  0  0  0  0  0  0  0
    7.2261  -13.8883   24.9181 C   0  0  0  0  0  0  0  0  0  0  0  0
    9.2386  -16.7881   23.4866 C   0  0  0  0  0  0  0  0  0  0  0  0
    8.9654  -18.0141   23.4424 O   0  0  0  0  0  0  0  0  0  0  0  0
   10.1777  -16.3887   24.4942 N   0  0  0  0  0  0  0  0  0  0  0  0
   10.8988  -17.3400   25.3149 C   0  0  1  0  0  0  0  0  0  0  0  0
   12.3743  -17.0139   25.3466 C   0  0  0  0  0  0  0  0  0  0  0  0
   13.1323  -17.9675   26.2467 C   0  0  0  0  0  0  0  0  0  0  0  0
   13.6838  -19.1434   25.4952 C   0  0  0  0  0  0  0  0  0  0  0  0
   14.3821  -20.1008   26.4257 C   0  0  0  0  0  0  0  0  0  0  0  0
   14.7139  -21.3395   25.7474 N   0  0  0  0  0  0  0  0  0  0  0  0
   10.4179  -17.2143   26.7301 C   0  0  0  0  0  0  0  0  0  0  0  0
   10.0348  -16.1186   27.1979 O   0  0  0  0  0  0  0  0  0  0  0  0
   10.3923  -18.3276   27.5475 O   0  0  0  0  0  0  0  0  0  0  0  0
  2  1  1  0
  3  2  2  0
  4  2  1  0
  5  6  1  6
  5  4  1  0
  7  9  1  0
  7  5  1  0
  8  7  2  0
 10  9  1  0
 10 11  1  1
 11 12  1  0
 12 20  1  0
 13 12  2  0
 13 14  1  0
 14 15  1  0
 15 16  1  0
 16 17  2  0
 18 17  1  0
 19 18  2  0
 20 15  2  0
 20 19  1  0
 21 10  1  0
 22 21  2  0
 23 21  1  0
 24 30  1  0
 24 23  1  0
 24 25  1  1
 26 25  1  0
 26 27  1  0
 27 28  1  0
 29 28  1  0
 30 32  1  0
 31 30  2  0
M  END
$$$$
