NWK.pdb
     RDKit          3D

 32 33  0  0  1  0  0  0  0  0999 V2000
    6.9195  -13.8717   18.7822 N   0  0  0  0  0  0  0  0  0  0  0  0
    8.0505  -14.5881   19.2289 C   0  0  0  0  0  0  0  0  0  0  0  0
    8.7060  -15.2733   18.4241 O   0  0  0  0  0  0  0  0  0  0  0  0
    8.4487  -14.5210   20.6438 C   0  0  0  0  0  0  0  0  0  0  0  0
    8.7168  -15.9067   21.1466 C   0  0  2  0  0  0  0  0  0  0  0  0
    7.6232  -16.8101   20.8599 N   0  0  0  0  0  0  0  0  0  0  0  0
    9.0629  -15.9159   22.5993 C   0  0  0  0  0  0  0  0  0  0  0  0
    9.9721  -15.0944   22.9608 O   0  0  0  0  0  0  0  0  0  0  0  0
    8.4775  -16.7376   23.5613 N   0  0  0  0  0  0  0  0  0  0  0  0
    8.9564  -16.7498   24.9395 C   0  0  1  0  0  0  0  0  0  0  0  0
    7.7850  -16.6013   25.8848 C   0  0  0  0  0  0  0  0  0  0  0  0
    7.0882  -15.3071   25.7972 C   0  0  0  0  0  0  0  0  0  0  0  0
    5.7492  -15.2334   25.3860 C   0  0  0  0  0  0  0  0  0  0  0  0
    5.3881  -13.9457   25.4519 N   0  0  0  0  0  0  0  0  0  0  0  0
    6.3763  -13.1568   25.8718 C   0  0  0  0  0  0  0  0  0  0  0  0
    6.5142  -11.8038   26.0931 C   0  0  0  0  0  0  0  0  0  0  0  0
    7.7266  -11.2683   26.5355 C   0  0  0  0  0  0  0  0  0  0  0  0
    8.7740  -12.1288   26.7424 C   0  0  0  0  0  0  0  0  0  0  0  0
    8.6336  -13.4857   26.5204 C   0  0  0  0  0  0  0  0  0  0  0  0
    7.4493  -14.0219   26.0880 C   0  0  0  0  0  0  0  0  0  0  0  0
    9.7549  -17.9175   25.2832 C   0  0  0  0  0  0  0  0  0  0  0  0
    9.2682  -19.0714   25.1769 O   0  0  0  0  0  0  0  0  0  0  0  0
   11.1081  -17.8462   25.7527 N   0  0  0  0  0  0  0  0  0  0  0  0
   11.8475  -19.0115   26.1928 C   0  0  1  0  0  0  0  0  0  0  0  0
   13.3109  -18.8869   25.8360 C   0  0  0  0  0  0  0  0  0  0  0  0
   13.5141  -18.8619   24.3352 C   0  0  0  0  0  0  0  0  0  0  0  0
   14.9654  -18.8091   23.9576 C   0  0  0  0  0  0  0  0  0  0  0  0
   15.1346  -18.7970   22.4604 C   0  0  0  0  0  0  0  0  0  0  0  0
   16.5365  -18.7263   22.0942 N   0  0  0  0  0  0  0  0  0  0  0  0
   11.7921  -19.0774   27.6904 C   0  0  0  0  0  0  0  0  0  0  0  0
   11.2471  -18.1767   28.3670 O   0  0  0  0  0  0  0  0  0  0  0  0
   12.3526  -20.1534   28.3510 O   0  0  0  0  0  0  0  0  0  0  0  0
  2  1  1  0
  3  2  2  0
  4  2  1  0
  5  6  1  1
  5  4  1  0
  7  9  1  0
  7  5  1  0
  8  7  2  0
 10  9  1  0
 10 11  1  1
 11 12  1  0
 12 20  1  0
 13 12  2  0
 13 14  1  0
 14 15  1  0
 15 16  1  0
 16 17  2  0
 18 17  1  0
 19 18  2  0
 20 15  2  0
 20 19  1  0
 21 10  1  0
 22 21  2  0
 23 21  1  0
 24 30  1  0
 24 23  1  0
 24 25  1  1
 26 25  1  0
 26 27  1  0
 27 28  1  0
 29 28  1  0
 30 32  1  0
 31 30  2  0
M  END
$$$$
