NWK.pdb
     RDKit          3D

 32 33  0  0  1  0  0  0  0  0999 V2000
   10.0577  -18.5576   17.3123 N   0  0  0  0  0  0  0  0  0  0  0  0
   11.1896  -18.6322   18.1521 C   0  0  0  0  0  0  0  0  0  0  0  0
   12.1071  -19.4279   17.8841 O   0  0  0  0  0  0  0  0  0  0  0  0
   11.2787  -17.7687   19.3402 C   0  0  0  0  0  0  0  0  0  0  0  0
   10.2453  -18.1949   20.3379 C   0  0  2  0  0  0  0  0  0  0  0  0
    8.9500  -18.3985   19.7256 N   0  0  0  0  0  0  0  0  0  0  0  0
   10.1592  -17.2492   21.4904 C   0  0  0  0  0  0  0  0  0  0  0  0
   11.2741  -16.8237   21.9468 O   0  0  0  0  0  0  0  0  0  0  0  0
    8.9774  -16.8114   22.0861 N   0  0  0  0  0  0  0  0  0  0  0  0
    8.9967  -15.9209   23.2419 C   0  0  1  0  0  0  0  0  0  0  0  0
    7.7622  -15.0469   23.2294 C   0  0  0  0  0  0  0  0  0  0  0  0
    7.8501  -13.8513   24.0845 C   0  0  0  0  0  0  0  0  0  0  0  0
    8.6071  -12.7372   23.6935 C   0  0  0  0  0  0  0  0  0  0  0  0
    8.4557  -11.8061   24.6439 N   0  0  0  0  0  0  0  0  0  0  0  0
    7.6616  -12.2091   25.6348 C   0  0  0  0  0  0  0  0  0  0  0  0
    7.2123  -11.6492   26.8109 C   0  0  0  0  0  0  0  0  0  0  0  0
    6.3711  -12.3611   27.6700 C   0  0  0  0  0  0  0  0  0  0  0  0
    6.0068  -13.6325   27.3079 C   0  0  0  0  0  0  0  0  0  0  0  0
    6.4581  -14.1923   26.1277 C   0  0  0  0  0  0  0  0  0  0  0  0
    7.2819  -13.5031   25.2771 C   0  0  0  0  0  0  0  0  0  0  0  0
    9.1346  -16.6048   24.5196 C   0  0  0  0  0  0  0  0  0  0  0  0
    8.3123  -17.4946   24.8539 O   0  0  0  0  0  0  0  0  0  0  0  0
   10.1794  -16.3276   25.4620 N   0  0  0  0  0  0  0  0  0  0  0  0
   10.3874  -17.1193   26.6572 C   0  0  1  0  0  0  0  0  0  0  0  0
   11.7166  -17.8367   26.6031 C   0  0  0  0  0  0  0  0  0  0  0  0
   11.5518  -19.2732   26.1519 C   0  0  0  0  0  0  0  0  0  0  0  0
   12.8598  -20.0065   26.0966 C   0  0  0  0  0  0  0  0  0  0  0  0
   12.6737  -21.4055   25.5688 C   0  0  0  0  0  0  0  0  0  0  0  0
   13.6111  -21.6885   24.4986 N   0  0  0  0  0  0  0  0  0  0  0  0
   10.4644  -16.1960   27.8369 C   0  0  0  0  0  0  0  0  0  0  0  0
   10.4479  -14.9523   27.6987 O   0  0  0  0  0  0  0  0  0  0  0  0
   10.5561  -16.7187   29.1123 O   0  0  0  0  0  0  0  0  0  0  0  0
  2  1  1  0
  3  2  2  0
  4  2  1  0
  5  6  1  6
  5  4  1  0
  7  9  1  0
  7  5  1  0
  8  7  2  0
 10  9  1  0
 10 11  1  1
 11 12  1  0
 12 20  1  0
 13 12  2  0
 13 14  1  0
 14 15  1  0
 15 16  1  0
 16 17  2  0
 18 17  1  0
 19 18  2  0
 20 15  2  0
 20 19  1  0
 21 10  1  0
 22 21  2  0
 23 21  1  0
 24 30  1  0
 24 23  1  0
 24 25  1  6
 26 25  1  0
 26 27  1  0
 27 28  1  0
 29 28  1  0
 30 32  1  0
 31 30  2  0
M  END
$$$$
