NWK.pdb
     RDKit          3D

 32 33  0  0  1  0  0  0  0  0999 V2000
    7.1145  -12.9562   18.3179 N   0  0  0  0  0  0  0  0  0  0  0  0
    7.8629  -13.9922   18.9167 C   0  0  0  0  0  0  0  0  0  0  0  0
    8.3486  -14.8926   18.2095 O   0  0  0  0  0  0  0  0  0  0  0  0
    8.0649  -14.0022   20.3742 C   0  0  0  0  0  0  0  0  0  0  0  0
    8.2747  -15.4130   20.8330 C   0  0  2  0  0  0  0  0  0  0  0  0
    7.0735  -16.2100   20.7068 N   0  0  0  0  0  0  0  0  0  0  0  0
    8.8234  -15.4726   22.2206 C   0  0  0  0  0  0  0  0  0  0  0  0
    9.8521  -14.7489   22.4449 O   0  0  0  0  0  0  0  0  0  0  0  0
    8.3037  -16.2433   23.2595 N   0  0  0  0  0  0  0  0  0  0  0  0
    9.0128  -16.3824   24.5271 C   0  0  1  0  0  0  0  0  0  0  0  0
    8.0203  -16.3624   25.6684 C   0  0  0  0  0  0  0  0  0  0  0  0
    7.1691  -15.1619   25.7182 C   0  0  0  0  0  0  0  0  0  0  0  0
    5.7882  -15.2448   25.4874 C   0  0  0  0  0  0  0  0  0  0  0  0
    5.2886  -14.0126   25.6455 N   0  0  0  0  0  0  0  0  0  0  0  0
    6.2230  -13.1169   25.9613 C   0  0  0  0  0  0  0  0  0  0  0  0
    6.2274  -11.7619   26.2108 C   0  0  0  0  0  0  0  0  0  0  0  0
    7.4156  -11.0906   26.5108 C   0  0  0  0  0  0  0  0  0  0  0  0
    8.5760  -11.8201   26.5490 C   0  0  0  0  0  0  0  0  0  0  0  0
    8.5696  -13.1794   26.2989 C   0  0  0  0  0  0  0  0  0  0  0  0
    7.4104  -13.8481   26.0053 C   0  0  0  0  0  0  0  0  0  0  0  0
    9.8693  -17.5569   24.6058 C   0  0  0  0  0  0  0  0  0  0  0  0
    9.3905  -18.7039   24.4195 O   0  0  0  0  0  0  0  0  0  0  0  0
   11.2736  -17.5002   24.8914 N   0  0  0  0  0  0  0  0  0  0  0  0
   12.0852  -18.6863   25.0726 C   0  0  1  0  0  0  0  0  0  0  0  0
   13.5087  -18.4372   24.6300 C   0  0  0  0  0  0  0  0  0  0  0  0
   13.5977  -18.2571   23.1287 C   0  0  0  0  0  0  0  0  0  0  0  0
   14.9753  -17.8634   22.6829 C   0  0  0  0  0  0  0  0  0  0  0  0
   15.0380  -17.7178   21.1845 C   0  0  0  0  0  0  0  0  0  0  0  0
   16.3751  -17.3600   20.7503 N   0  0  0  0  0  0  0  0  0  0  0  0
   12.1573  -18.9991   26.5379 C   0  0  0  0  0  0  0  0  0  0  0  0
   11.6474  -18.2440   27.3957 O   0  0  0  0  0  0  0  0  0  0  0  0
   12.7994  -20.1456   26.9638 O   0  0  0  0  0  0  0  0  0  0  0  0
  2  1  1  0
  3  2  2  0
  4  2  1  0
  5  6  1  1
  5  4  1  0
  7  9  1  0
  7  5  1  0
  8  7  2  0
 10  9  1  0
 10 11  1  1
 11 12  1  0
 12 20  1  0
 13 12  2  0
 13 14  1  0
 14 15  1  0
 15 16  1  0
 16 17  2  0
 18 17  1  0
 19 18  2  0
 20 15  2  0
 20 19  1  0
 21 10  1  0
 22 21  2  0
 23 21  1  0
 24 30  1  0
 24 23  1  0
 24 25  1  1
 26 25  1  0
 26 27  1  0
 27 28  1  0
 29 28  1  0
 30 32  1  0
 31 30  2  0
M  END
$$$$
