NWK.pdb
     RDKit          3D

 32 33  0  0  1  0  0  0  0  0999 V2000
    7.9714  -18.5131   18.6438 N   0  0  0  0  0  0  0  0  0  0  0  0
    7.9146  -17.1099   18.7846 C   0  0  0  0  0  0  0  0  0  0  0  0
    7.6207  -16.4016   17.8054 O   0  0  0  0  0  0  0  0  0  0  0  0
    8.2031  -16.4919   20.0884 C   0  0  0  0  0  0  0  0  0  0  0  0
    8.5511  -17.5639   21.0756 C   0  0  2  0  0  0  0  0  0  0  0  0
    7.4769  -18.5192   21.2420 N   0  0  0  0  0  0  0  0  0  0  0  0
    8.9812  -16.9955   22.3879 C   0  0  0  0  0  0  0  0  0  0  0  0
   10.0811  -16.3456   22.3802 O   0  0  0  0  0  0  0  0  0  0  0  0
    8.2833  -17.1226   23.5880 N   0  0  0  0  0  0  0  0  0  0  0  0
    8.8234  -16.5966   24.8373 C   0  0  1  0  0  0  0  0  0  0  0  0
    7.7383  -15.8556   25.5866 C   0  0  0  0  0  0  0  0  0  0  0  0
    7.4824  -14.4894   25.1005 C   0  0  0  0  0  0  0  0  0  0  0  0
    7.5031  -14.1943   23.7294 C   0  0  0  0  0  0  0  0  0  0  0  0
    7.1925  -12.8981   23.6016 N   0  0  0  0  0  0  0  0  0  0  0  0
    6.9679  -12.3065   24.7741 C   0  0  0  0  0  0  0  0  0  0  0  0
    6.6367  -11.0298   25.1723 C   0  0  0  0  0  0  0  0  0  0  0  0
    6.4810  -10.7169   26.5251 C   0  0  0  0  0  0  0  0  0  0  0  0
    6.6677  -11.7177   27.4437 C   0  0  0  0  0  0  0  0  0  0  0  0
    6.9994  -12.9980   27.0424 C   0  0  0  0  0  0  0  0  0  0  0  0
    7.1532  -13.3164   25.7187 C   0  0  0  0  0  0  0  0  0  0  0  0
    9.4471  -17.6005   25.6871 C   0  0  0  0  0  0  0  0  0  0  0  0
    9.6655  -17.3563   26.9005 O   0  0  0  0  0  0  0  0  0  0  0  0
    9.8467  -18.8979   25.2246 N   0  0  0  0  0  0  0  0  0  0  0  0
   10.4032  -19.9062   26.1032 C   0  0  1  0  0  0  0  0  0  0  0  0
   10.5216  -21.2343   25.3915 C   0  0  0  0  0  0  0  0  0  0  0  0
   11.0174  -22.3195   26.3246 C   0  0  0  0  0  0  0  0  0  0  0  0
   11.3391  -23.5924   25.5980 C   0  0  0  0  0  0  0  0  0  0  0  0
   11.7642  -24.6716   26.5597 C   0  0  0  0  0  0  0  0  0  0  0  0
   10.6372  -25.1521   27.3365 N   0  0  0  0  0  0  0  0  0  0  0  0
   11.8026  -19.5065   26.4666 C   0  0  0  0  0  0  0  0  0  0  0  0
   12.5082  -18.8159   25.6977 O   0  0  0  0  0  0  0  0  0  0  0  0
   12.3373  -19.9040   27.6767 O   0  0  0  0  0  0  0  0  0  0  0  0
  2  1  1  0
  3  2  2  0
  4  2  1  0
  5  6  1  1
  5  4  1  0
  7  9  1  0
  7  5  1  0
  8  7  2  0
 10  9  1  0
 10 11  1  1
 11 12  1  0
 12 20  1  0
 13 12  2  0
 13 14  1  0
 14 15  1  0
 15 16  1  0
 16 17  2  0
 18 17  1  0
 19 18  2  0
 20 15  2  0
 20 19  1  0
 21 10  1  0
 22 21  2  0
 23 21  1  0
 24 30  1  0
 24 23  1  0
 24 25  1  6
 26 25  1  0
 26 27  1  0
 27 28  1  0
 29 28  1  0
 30 32  1  0
 31 30  2  0
M  END
$$$$
