NWK.pdb
     RDKit          3D

 32 33  0  0  1  0  0  0  0  0999 V2000
   10.6448  -17.3497   18.0375 N   0  0  0  0  0  0  0  0  0  0  0  0
   10.0687  -16.1128   18.3986 C   0  0  0  0  0  0  0  0  0  0  0  0
    9.8114  -15.2707   17.5203 O   0  0  0  0  0  0  0  0  0  0  0  0
    9.7755  -15.8256   19.8116 C   0  0  0  0  0  0  0  0  0  0  0  0
    9.9934  -17.0666   20.6223 C   0  0  2  0  0  0  0  0  0  0  0  0
    8.9801  -18.0678   20.3667 N   0  0  0  0  0  0  0  0  0  0  0  0
   10.1063  -16.7674   22.0810 C   0  0  0  0  0  0  0  0  0  0  0  0
   11.2379  -16.3220   22.4727 O   0  0  0  0  0  0  0  0  0  0  0  0
    9.0888  -16.9366   23.0188 N   0  0  0  0  0  0  0  0  0  0  0  0
    9.3422  -16.7814   24.4473 C   0  0  1  0  0  0  0  0  0  0  0  0
    8.0444  -16.4783   25.1626 C   0  0  0  0  0  0  0  0  0  0  0  0
    7.4578  -15.1675   24.8371 C   0  0  0  0  0  0  0  0  0  0  0  0
    6.6876  -14.9878   23.6788 C   0  0  0  0  0  0  0  0  0  0  0  0
    6.2611  -13.7186   23.6833 N   0  0  0  0  0  0  0  0  0  0  0  0
    6.6846  -13.0390   24.7482 C   0  0  0  0  0  0  0  0  0  0  0  0
    6.5360  -11.7458   25.1996 C   0  0  0  0  0  0  0  0  0  0  0  0
    7.1383  -11.3263   26.3886 C   0  0  0  0  0  0  0  0  0  0  0  0
    7.8811  -12.2395   27.0918 C   0  0  0  0  0  0  0  0  0  0  0  0
    8.0286  -13.5364   26.6378 C   0  0  0  0  0  0  0  0  0  0  0  0
    7.4415  -13.9590   25.4742 C   0  0  0  0  0  0  0  0  0  0  0  0
   10.0190  -17.9153   25.0599 C   0  0  0  0  0  0  0  0  0  0  0  0
    9.5083  -19.0625   25.0062 O   0  0  0  0  0  0  0  0  0  0  0  0
   11.2739  -17.8169   25.7471 N   0  0  0  0  0  0  0  0  0  0  0  0
   11.9438  -18.9644   26.3241 C   0  0  1  0  0  0  0  0  0  0  0  0
   13.4317  -18.7213   26.4315 C   0  0  0  0  0  0  0  0  0  0  0  0
   14.1526  -19.9365   26.9774 C   0  0  0  0  0  0  0  0  0  0  0  0
   15.6353  -19.7255   27.0695 C   0  0  0  0  0  0  0  0  0  0  0  0
   16.3249  -20.9559   27.5995 C   0  0  0  0  0  0  0  0  0  0  0  0
   17.7448  -20.7210   27.7813 N   0  0  0  0  0  0  0  0  0  0  0  0
   11.4534  -19.1496   27.7296 C   0  0  0  0  0  0  0  0  0  0  0  0
   11.0687  -18.1815   28.4231 O   0  0  0  0  0  0  0  0  0  0  0  0
   11.4207  -20.4145   28.2837 O   0  0  0  0  0  0  0  0  0  0  0  0
  2  1  1  0
  3  2  2  0
  4  2  1  0
  5  6  1  1
  5  4  1  0
  7  9  1  0
  7  5  1  0
  8  7  2  0
 10  9  1  0
 10 11  1  1
 11 12  1  0
 12 20  1  0
 13 12  2  0
 13 14  1  0
 14 15  1  0
 15 16  1  0
 16 17  2  0
 18 17  1  0
 19 18  2  0
 20 15  2  0
 20 19  1  0
 21 10  1  0
 22 21  2  0
 23 21  1  0
 24 30  1  0
 24 23  1  0
 24 25  1  1
 26 25  1  0
 26 27  1  0
 27 28  1  0
 29 28  1  0
 30 32  1  0
 31 30  2  0
M  END
$$$$
