NWK.pdb
     RDKit          3D

 32 33  0  0  1  0  0  0  0  0999 V2000
    8.3103  -12.4567   18.6420 N   0  0  0  0  0  0  0  0  0  0  0  0
    7.7329  -13.5734   19.2836 C   0  0  0  0  0  0  0  0  0  0  0  0
    7.0067  -14.3501   18.6384 O   0  0  0  0  0  0  0  0  0  0  0  0
    7.9927  -13.8134   20.7119 C   0  0  0  0  0  0  0  0  0  0  0  0
    8.4633  -15.2238   20.8970 C   0  0  2  0  0  0  0  0  0  0  0  0
    7.4108  -16.1852   20.6477 N   0  0  0  0  0  0  0  0  0  0  0  0
    9.0842  -15.4332   22.2389 C   0  0  0  0  0  0  0  0  0  0  0  0
   10.1656  -14.7896   22.4592 O   0  0  0  0  0  0  0  0  0  0  0  0
    8.5780  -16.2607   23.2401 N   0  0  0  0  0  0  0  0  0  0  0  0
    9.2866  -16.4424   24.5025 C   0  0  1  0  0  0  0  0  0  0  0  0
    8.3076  -16.3483   25.6517 C   0  0  0  0  0  0  0  0  0  0  0  0
    7.4972  -15.1190   25.6663 C   0  0  0  0  0  0  0  0  0  0  0  0
    6.1175  -15.1597   25.4174 C   0  0  0  0  0  0  0  0  0  0  0  0
    5.6581  -13.9085   25.5445 N   0  0  0  0  0  0  0  0  0  0  0  0
    6.6180  -13.0388   25.8562 C   0  0  0  0  0  0  0  0  0  0  0  0
    6.6652  -11.6800   26.0796 C   0  0  0  0  0  0  0  0  0  0  0  0
    7.8713  -11.0434   26.3835 C   0  0  0  0  0  0  0  0  0  0  0  0
    9.0056  -11.8109   26.4524 C   0  0  0  0  0  0  0  0  0  0  0  0
    8.9563  -13.1738   26.2285 C   0  0  0  0  0  0  0  0  0  0  0  0
    7.7792  -13.8086   25.9313 C   0  0  0  0  0  0  0  0  0  0  0  0
   10.0606  -17.6729   24.5805 C   0  0  0  0  0  0  0  0  0  0  0  0
    9.5478  -18.7669   24.2342 O   0  0  0  0  0  0  0  0  0  0  0  0
   11.4174  -17.7319   25.0413 N   0  0  0  0  0  0  0  0  0  0  0  0
   12.1075  -18.9812   25.2888 C   0  0  1  0  0  0  0  0  0  0  0  0
   13.6011  -18.7642   25.3700 C   0  0  0  0  0  0  0  0  0  0  0  0
   14.3295  -20.0499   25.7029 C   0  0  0  0  0  0  0  0  0  0  0  0
   15.8152  -19.8574   25.7874 C   0  0  0  0  0  0  0  0  0  0  0  0
   16.5129  -21.1584   26.0886 C   0  0  0  0  0  0  0  0  0  0  0  0
   17.9411  -20.9602   26.2477 N   0  0  0  0  0  0  0  0  0  0  0  0
   11.6923  -19.5006   26.6334 C   0  0  0  0  0  0  0  0  0  0  0  0
   11.9088  -20.6850   26.9746 O   0  0  0  0  0  0  0  0  0  0  0  0
   11.0544  -18.6612   27.5260 O   0  0  0  0  0  0  0  0  0  0  0  0
  2  1  1  0
  3  2  2  0
  4  2  1  0
  5  6  1  1
  5  4  1  0
  7  9  1  0
  7  5  1  0
  8  7  2  0
 10  9  1  0
 10 11  1  1
 11 12  1  0
 12 20  1  0
 13 12  2  0
 13 14  1  0
 14 15  1  0
 15 16  1  0
 16 17  2  0
 18 17  1  0
 19 18  2  0
 20 15  2  0
 20 19  1  0
 21 10  1  0
 22 21  2  0
 23 21  1  0
 24 30  1  0
 24 23  1  0
 24 25  1  1
 26 25  1  0
 26 27  1  0
 27 28  1  0
 29 28  1  0
 30 32  1  0
 31 30  2  0
M  END
$$$$
