NWK.pdb
     RDKit          3D

 32 33  0  0  1  0  0  0  0  0999 V2000
    6.5996  -13.9462   18.8715 N   0  0  0  0  0  0  0  0  0  0  0  0
    7.8528  -14.3716   19.3621 C   0  0  0  0  0  0  0  0  0  0  0  0
    8.7539  -14.6877   18.5652 O   0  0  0  0  0  0  0  0  0  0  0  0
    8.0872  -14.4390   20.8131 C   0  0  0  0  0  0  0  0  0  0  0  0
    8.6279  -15.7919   21.1627 C   0  0  2  0  0  0  0  0  0  0  0  0
    7.6790  -16.8467   20.8778 N   0  0  0  0  0  0  0  0  0  0  0  0
    9.1021  -15.8547   22.5774 C   0  0  0  0  0  0  0  0  0  0  0  0
   10.1728  -15.2073   22.8356 O   0  0  0  0  0  0  0  0  0  0  0  0
    8.4731  -16.5527   23.6072 N   0  0  0  0  0  0  0  0  0  0  0  0
    9.0745  -16.6508   24.9330 C   0  0  1  0  0  0  0  0  0  0  0  0
    8.0017  -16.5011   25.9888 C   0  0  0  0  0  0  0  0  0  0  0  0
    7.2300  -15.2498   25.9040 C   0  0  0  0  0  0  0  0  0  0  0  0
    5.8714  -15.2607   25.5557 C   0  0  0  0  0  0  0  0  0  0  0  0
    5.4421  -13.9935   25.6083 N   0  0  0  0  0  0  0  0  0  0  0  0
    6.4028  -13.1407   25.9617 C   0  0  0  0  0  0  0  0  0  0  0  0
    6.4747  -11.7769   26.1441 C   0  0  0  0  0  0  0  0  0  0  0  0
    7.6743  -11.1641   26.5153 C   0  0  0  0  0  0  0  0  0  0  0  0
    8.7768  -11.9600   26.6922 C   0  0  0  0  0  0  0  0  0  0  0  0
    8.7026  -13.3279   26.5093 C   0  0  0  0  0  0  0  0  0  0  0  0
    7.5315  -13.9396   26.1468 C   0  0  0  0  0  0  0  0  0  0  0  0
    9.8482  -17.8649   25.1488 C   0  0  0  0  0  0  0  0  0  0  0  0
    9.3162  -18.9921   24.9880 O   0  0  0  0  0  0  0  0  0  0  0  0
   11.2259  -17.8704   25.5472 N   0  0  0  0  0  0  0  0  0  0  0  0
   11.9651  -19.0912   25.7956 C   0  0  1  0  0  0  0  0  0  0  0  0
   13.4094  -18.9406   25.3765 C   0  0  0  0  0  0  0  0  0  0  0  0
   14.2100  -20.1867   25.6935 C   0  0  0  0  0  0  0  0  0  0  0  0
   15.6578  -20.0423   25.3265 C   0  0  0  0  0  0  0  0  0  0  0  0
   16.4159  -21.3143   25.6048 C   0  0  0  0  0  0  0  0  0  0  0  0
   17.8452  -21.1119   25.4624 N   0  0  0  0  0  0  0  0  0  0  0  0
   11.9886  -19.3455   27.2737 C   0  0  0  0  0  0  0  0  0  0  0  0
   12.5217  -20.3705   27.7546 O   0  0  0  0  0  0  0  0  0  0  0  0
   11.4112  -18.4338   28.1360 O   0  0  0  0  0  0  0  0  0  0  0  0
  2  1  1  0
  3  2  2  0
  4  2  1  0
  5  6  1  1
  5  4  1  0
  7  9  1  0
  7  5  1  0
  8  7  2  0
 10  9  1  0
 10 11  1  1
 11 12  1  0
 12 20  1  0
 13 12  2  0
 13 14  1  0
 14 15  1  0
 15 16  1  0
 16 17  2  0
 18 17  1  0
 19 18  2  0
 20 15  2  0
 20 19  1  0
 21 10  1  0
 22 21  2  0
 23 21  1  0
 24 30  1  0
 24 23  1  0
 24 25  1  1
 26 25  1  0
 26 27  1  0
 27 28  1  0
 29 28  1  0
 30 32  1  0
 31 30  2  0
M  END
$$$$
