NWK.pdb
     RDKit          3D

 32 33  0  0  1  0  0  0  0  0999 V2000
    7.6093  -17.2539   18.3926 N   0  0  0  0  0  0  0  0  0  0  0  0
    7.6600  -15.8807   18.7149 C   0  0  0  0  0  0  0  0  0  0  0  0
    7.4023  -15.0312   17.8438 O   0  0  0  0  0  0  0  0  0  0  0  0
    8.0172  -15.4608   20.0791 C   0  0  0  0  0  0  0  0  0  0  0  0
    8.4429  -16.6610   20.8686 C   0  0  2  0  0  0  0  0  0  0  0  0
    7.3541  -17.5924   21.0716 N   0  0  0  0  0  0  0  0  0  0  0  0
    9.0804  -16.2793   22.1640 C   0  0  0  0  0  0  0  0  0  0  0  0
   10.0693  -15.4744   22.0827 O   0  0  0  0  0  0  0  0  0  0  0  0
    8.6809  -16.7293   23.4214 N   0  0  0  0  0  0  0  0  0  0  0  0
    9.5062  -16.5043   24.6036 C   0  0  1  0  0  0  0  0  0  0  0  0
    8.6230  -16.4085   25.8278 C   0  0  0  0  0  0  0  0  0  0  0  0
    7.5570  -15.3968   25.7359 C   0  0  0  0  0  0  0  0  0  0  0  0
    6.2242  -15.7698   25.5088 C   0  0  0  0  0  0  0  0  0  0  0  0
    5.4941  -14.6474   25.5225 N   0  0  0  0  0  0  0  0  0  0  0  0
    6.2312  -13.5588   25.7389 C   0  0  0  0  0  0  0  0  0  0  0  0
    5.9698  -12.2092   25.8321 C   0  0  0  0  0  0  0  0  0  0  0  0
    6.9992  -11.2922   26.0596 C   0  0  0  0  0  0  0  0  0  0  0  0
    8.2761  -11.7752   26.1869 C   0  0  0  0  0  0  0  0  0  0  0  0
    8.5364  -13.1294   26.0937 C   0  0  0  0  0  0  0  0  0  0  0  0
    7.5349  -14.0376   25.8722 C   0  0  0  0  0  0  0  0  0  0  0  0
   10.5543  -17.4958   24.7969 C   0  0  0  0  0  0  0  0  0  0  0  0
   10.2576  -18.7006   24.9969 O   0  0  0  0  0  0  0  0  0  0  0  0
   11.9549  -17.1879   24.7757 N   0  0  0  0  0  0  0  0  0  0  0  0
   12.9809  -18.1900   24.9793 C   0  0  1  0  0  0  0  0  0  0  0  0
   14.3166  -17.7051   24.4646 C   0  0  0  0  0  0  0  0  0  0  0  0
   14.2161  -17.2255   23.0313 C   0  0  0  0  0  0  0  0  0  0  0  0
   15.5554  -16.8750   22.4526 C   0  0  0  0  0  0  0  0  0  0  0  0
   15.4256  -16.4313   21.0186 C   0  0  0  0  0  0  0  0  0  0  0  0
   16.7072  -16.0115   20.4841 N   0  0  0  0  0  0  0  0  0  0  0  0
   13.1589  -18.4018   26.4536 C   0  0  0  0  0  0  0  0  0  0  0  0
   12.5455  -17.7074   27.2949 O   0  0  0  0  0  0  0  0  0  0  0  0
   14.0180  -19.3840   26.9068 O   0  0  0  0  0  0  0  0  0  0  0  0
  2  1  1  0
  3  2  2  0
  4  2  1  0
  5  6  1  1
  5  4  1  0
  7  9  1  0
  7  5  1  0
  8  7  2  0
 10  9  1  0
 10 11  1  1
 11 12  1  0
 12 20  1  0
 13 12  2  0
 13 14  1  0
 14 15  1  0
 15 16  1  0
 16 17  2  0
 18 17  1  0
 19 18  2  0
 20 15  2  0
 20 19  1  0
 21 10  1  0
 22 21  2  0
 23 21  1  0
 24 30  1  0
 24 23  1  0
 24 25  1  1
 26 25  1  0
 26 27  1  0
 27 28  1  0
 29 28  1  0
 30 32  1  0
 31 30  2  0
M  END
$$$$
