NWK.pdb
     RDKit          3D

 32 33  0  0  1  0  0  0  0  0999 V2000
   11.8901  -16.4329   18.3190 N   0  0  0  0  0  0  0  0  0  0  0  0
   11.5401  -17.3078   19.3697 C   0  0  0  0  0  0  0  0  0  0  0  0
   11.3809  -18.5194   19.1384 O   0  0  0  0  0  0  0  0  0  0  0  0
   11.3654  -16.7828   20.7331 C   0  0  0  0  0  0  0  0  0  0  0  0
   10.4745  -17.7065   21.5065 C   0  0  2  0  0  0  0  0  0  0  0  0
    9.1973  -17.9022   20.8548 N   0  0  0  0  0  0  0  0  0  0  0  0
   10.3003  -17.2593   22.9207 C   0  0  0  0  0  0  0  0  0  0  0  0
   11.3306  -16.7442   23.4733 O   0  0  0  0  0  0  0  0  0  0  0  0
    9.1222  -17.3631   23.6586 N   0  0  0  0  0  0  0  0  0  0  0  0
    9.0675  -16.9565   25.0589 C   0  0  1  0  0  0  0  0  0  0  0  0
    7.6716  -16.4804   25.3946 C   0  0  0  0  0  0  0  0  0  0  0  0
    7.3434  -15.1387   24.8843 C   0  0  0  0  0  0  0  0  0  0  0  0
    6.9256  -14.9518   23.5585 C   0  0  0  0  0  0  0  0  0  0  0  0
    6.6606  -13.6477   23.4100 N   0  0  0  0  0  0  0  0  0  0  0  0
    6.8684  -12.9517   24.5270 C   0  0  0  0  0  0  0  0  0  0  0  0
    6.7568  -11.6251   24.8820 C   0  0  0  0  0  0  0  0  0  0  0  0
    7.0740  -11.1981   26.1740 C   0  0  0  0  0  0  0  0  0  0  0  0
    7.4997  -12.1380   27.0771 C   0  0  0  0  0  0  0  0  0  0  0  0
    7.6105  -13.4684   26.7194 C   0  0  0  0  0  0  0  0  0  0  0  0
    7.3008  -13.8985   25.4560 C   0  0  0  0  0  0  0  0  0  0  0  0
    9.5045  -17.9818   25.9954 C   0  0  0  0  0  0  0  0  0  0  0  0
    8.7725  -18.9752   26.2343 O   0  0  0  0  0  0  0  0  0  0  0  0
   10.7569  -17.9409   26.6929 N   0  0  0  0  0  0  0  0  0  0  0  0
   11.2079  -19.0120   27.5576 C   0  0  1  0  0  0  0  0  0  0  0  0
   12.6933  -19.2422   27.3996 C   0  0  0  0  0  0  0  0  0  0  0  0
   13.0410  -19.6593   25.9856 C   0  0  0  0  0  0  0  0  0  0  0  0
   14.5090  -19.9174   25.8125 C   0  0  0  0  0  0  0  0  0  0  0  0
   14.8037  -20.4655   24.4402 C   0  0  0  0  0  0  0  0  0  0  0  0
   16.2325  -20.5943   24.2255 N   0  0  0  0  0  0  0  0  0  0  0  0
   11.0044  -18.5951   28.9841 C   0  0  0  0  0  0  0  0  0  0  0  0
   10.5998  -17.4487   29.2811 O   0  0  0  0  0  0  0  0  0  0  0  0
   11.2662  -19.4890   30.0042 O   0  0  0  0  0  0  0  0  0  0  0  0
  2  1  1  0
  3  2  2  0
  4  2  1  0
  5  6  1  6
  5  4  1  0
  7  9  1  0
  7  5  1  0
  8  7  2  0
 10  9  1  0
 10 11  1  1
 11 12  1  0
 12 20  1  0
 13 12  2  0
 13 14  1  0
 14 15  1  0
 15 16  1  0
 16 17  2  0
 18 17  1  0
 19 18  2  0
 20 15  2  0
 20 19  1  0
 21 10  1  0
 22 21  2  0
 23 21  1  0
 24 30  1  0
 24 23  1  0
 24 25  1  1
 26 25  1  0
 26 27  1  0
 27 28  1  0
 29 28  1  0
 30 32  1  0
 31 30  2  0
M  END
$$$$
