WKG.pdb
     RDKit          3D

 28 29  0  0  1  0  0  0  0  0999 V2000
   27.1099  -21.1940  -14.9540 N   0  0  0  0  0  0  0  0  0  0  0  0
   26.1952  -20.8905  -13.8690 C   0  0  1  0  0  0  0  0  0  0  0  0
   26.7719  -19.6965  -13.1410 C   0  0  0  0  0  0  0  0  0  0  0  0
   27.4050  -20.0569  -11.8612 C   0  0  0  0  0  0  0  0  0  0  0  0
   28.7424  -20.3050  -11.6649 C   0  0  0  0  0  0  0  0  0  0  0  0
   28.9253  -20.5985  -10.3692 N   0  0  0  0  0  0  0  0  0  0  0  0
   27.7635  -20.5580   -9.6852 C   0  0  0  0  0  0  0  0  0  0  0  0
   27.4209  -20.7755   -8.3638 C   0  0  0  0  0  0  0  0  0  0  0  0
   26.1208  -20.6616   -7.9341 C   0  0  0  0  0  0  0  0  0  0  0  0
   25.1560  -20.3235   -8.8539 C   0  0  0  0  0  0  0  0  0  0  0  0
   25.5004  -20.1072  -10.1710 C   0  0  0  0  0  0  0  0  0  0  0  0
   26.8008  -20.2145  -10.6326 C   0  0  0  0  0  0  0  0  0  0  0  0
   24.8727  -20.6184  -14.4484 C   0  0  0  0  0  0  0  0  0  0  0  0
   24.7844  -19.9832  -15.5175 O   0  0  0  0  0  0  0  0  0  0  0  0
   23.6953  -21.0637  -13.8161 N   0  0  0  0  0  0  0  0  0  0  0  0
   22.3555  -20.8662  -14.3669 C   0  0  1  0  0  0  0  0  0  0  0  0
   21.9750  -22.0000  -15.2894 C   0  0  0  0  0  0  0  0  0  0  0  0
   20.7049  -21.7683  -16.0378 C   0  0  0  0  0  0  0  0  0  0  0  0
   20.2625  -22.9104  -16.8908 C   0  0  0  0  0  0  0  0  0  0  0  0
   18.9936  -22.6265  -17.6525 C   0  0  0  0  0  0  0  0  0  0  0  0
   18.5480  -23.7580  -18.4443 N   0  0  0  0  0  0  0  0  0  0  0  0
   21.3456  -20.8606  -13.2644 C   0  0  0  0  0  0  0  0  0  0  0  0
   21.1082  -21.9554  -12.7040 O   0  0  0  0  0  0  0  0  0  0  0  0
   20.6569  -19.7075  -12.8286 N   0  0  0  0  0  0  0  0  0  0  0  0
   19.4232  -19.2394  -13.3946 C   0  0  0  0  0  0  0  0  0  0  0  0
   18.3042  -20.1804  -13.1947 C   0  0  0  0  0  0  0  0  0  0  0  0
   18.4120  -21.3585  -13.5878 O   0  0  0  0  0  0  0  0  0  0  0  0
   17.1420  -19.7737  -12.5791 O   0  0  0  0  0  0  0  0  0  0  0  0
  2  1  1  6
  2  3  1  0
  2 13  1  0
  3  4  1  0
  4  5  2  0
  5  6  1  0
  7  6  1  0
  8  7  2  0
  9  8  1  0
 10 11  1  0
 10  9  2  0
 11 12  2  0
 12  4  1  0
 12  7  1  0
 13 15  1  0
 13 14  2  0
 15 16  1  0
 16 17  1  6
 18 17  1  0
 19 18  1  0
 20 19  1  0
 21 20  1  0
 22 24  1  0
 22 16  1  0
 23 22  2  0
 25 24  1  0
 26 28  1  0
 26 25  1  0
 27 26  2  0
M  END
$$$$
