WKG.pdb
     RDKit          3D

 28 29  0  0  1  0  0  0  0  0999 V2000
   28.0251  -21.1823  -10.8867 N   0  0  0  0  0  0  0  0  0  0  0  0
   26.7522  -20.9862  -10.2181 C   0  0  1  0  0  0  0  0  0  0  0  0
   26.9770  -19.9208   -9.1681 C   0  0  0  0  0  0  0  0  0  0  0  0
   28.1387  -20.2010   -8.3074 C   0  0  0  0  0  0  0  0  0  0  0  0
   29.3061  -20.8097   -8.7017 C   0  0  0  0  0  0  0  0  0  0  0  0
   30.1169  -20.8842   -7.6362 N   0  0  0  0  0  0  0  0  0  0  0  0
   29.5413  -20.3498   -6.5396 C   0  0  0  0  0  0  0  0  0  0  0  0
   29.9461  -20.1849   -5.2283 C   0  0  0  0  0  0  0  0  0  0  0  0
   29.1297  -19.5892   -4.2974 C   0  0  0  0  0  0  0  0  0  0  0  0
   27.8882  -19.1555   -4.6996 C   0  0  0  0  0  0  0  0  0  0  0  0
   27.4870  -19.3213   -6.0079 C   0  0  0  0  0  0  0  0  0  0  0  0
   28.2873  -19.9172   -6.9671 C   0  0  0  0  0  0  0  0  0  0  0  0
   25.7617  -20.5885  -11.2280 C   0  0  0  0  0  0  0  0  0  0  0  0
   25.9990  -19.6236  -11.9809 O   0  0  0  0  0  0  0  0  0  0  0  0
   24.5419  -21.2801  -11.3631 N   0  0  0  0  0  0  0  0  0  0  0  0
   23.6006  -21.0560  -12.4591 C   0  0  1  0  0  0  0  0  0  0  0  0
   23.2694  -22.3502  -13.1637 C   0  0  0  0  0  0  0  0  0  0  0  0
   23.9665  -22.5200  -14.4723 C   0  0  0  0  0  0  0  0  0  0  0  0
   25.3412  -23.0940  -14.3804 C   0  0  0  0  0  0  0  0  0  0  0  0
   26.0660  -23.1146  -15.7015 C   0  0  0  0  0  0  0  0  0  0  0  0
   27.4508  -23.5297  -15.5768 N   0  0  0  0  0  0  0  0  0  0  0  0
   22.3103  -20.5235  -11.9235 C   0  0  0  0  0  0  0  0  0  0  0  0
   21.8888  -21.0214  -10.8543 O   0  0  0  0  0  0  0  0  0  0  0  0
   21.5543  -19.5071  -12.5475 N   0  0  0  0  0  0  0  0  0  0  0  0
   20.3331  -18.9671  -12.0198 C   0  0  0  0  0  0  0  0  0  0  0  0
   19.1634  -19.8287  -12.2784 C   0  0  0  0  0  0  0  0  0  0  0  0
   19.3015  -20.8703  -12.9492 O   0  0  0  0  0  0  0  0  0  0  0  0
   17.9207  -19.4969  -11.7878 O   0  0  0  0  0  0  0  0  0  0  0  0
  2  1  1  6
  2  3  1  0
  2 13  1  0
  3  4  1  0
  4  5  2  0
  5  6  1  0
  7  6  1  0
  8  7  2  0
  9  8  1  0
 10 11  1  0
 10  9  2  0
 11 12  2  0
 12  4  1  0
 12  7  1  0
 13 15  1  0
 13 14  2  0
 15 16  1  0
 16 17  1  1
 18 17  1  0
 19 18  1  0
 20 19  1  0
 21 20  1  0
 22 24  1  0
 22 16  1  0
 23 22  2  0
 25 24  1  0
 26 28  1  0
 26 25  1  0
 27 26  2  0
M  END
$$$$
