WKG.pdb
     RDKit          3D

 28 29  0  0  1  0  0  0  0  0999 V2000
   27.0765  -18.6052   -8.8074 N   0  0  0  0  0  0  0  0  0  0  0  0
   26.9725  -20.0244   -9.0915 C   0  0  1  0  0  0  0  0  0  0  0  0
   26.3976  -20.6709   -7.8507 C   0  0  0  0  0  0  0  0  0  0  0  0
   27.0664  -20.2324   -6.6141 C   0  0  0  0  0  0  0  0  0  0  0  0
   26.5194  -19.4279   -5.6433 C   0  0  0  0  0  0  0  0  0  0  0  0
   27.4362  -19.2564   -4.6799 N   0  0  0  0  0  0  0  0  0  0  0  0
   28.5794  -19.9136   -4.9637 C   0  0  0  0  0  0  0  0  0  0  0  0
   29.7917  -20.0528   -4.3143 C   0  0  0  0  0  0  0  0  0  0  0  0
   30.8086  -20.8045   -4.8518 C   0  0  0  0  0  0  0  0  0  0  0  0
   30.5949  -21.4225   -6.0616 C   0  0  0  0  0  0  0  0  0  0  0  0
   29.3850  -21.2820   -6.7070 C   0  0  0  0  0  0  0  0  0  0  0  0
   28.3431  -20.5318   -6.1902 C   0  0  0  0  0  0  0  0  0  0  0  0
   26.1120  -20.1929  -10.2706 C   0  0  0  0  0  0  0  0  0  0  0  0
   24.9344  -19.7845  -10.2405 O   0  0  0  0  0  0  0  0  0  0  0  0
   26.5941  -20.8102  -11.4414 N   0  0  0  0  0  0  0  0  0  0  0  0
   25.9666  -20.6607  -12.7534 C   0  0  1  0  0  0  0  0  0  0  0  0
   26.9994  -20.6859  -13.8553 C   0  0  0  0  0  0  0  0  0  0  0  0
   26.4877  -20.2061  -15.1725 C   0  0  0  0  0  0  0  0  0  0  0  0
   27.4786  -20.2603  -16.2874 C   0  0  0  0  0  0  0  0  0  0  0  0
   27.6070  -18.9564  -17.0321 C   0  0  0  0  0  0  0  0  0  0  0  0
   28.6510  -18.9847  -18.0395 N   0  0  0  0  0  0  0  0  0  0  0  0
   25.0437  -21.8081  -13.0121 C   0  0  0  0  0  0  0  0  0  0  0  0
   25.5248  -22.9601  -12.9103 O   0  0  0  0  0  0  0  0  0  0  0  0
   23.6824  -21.6654  -13.3591 N   0  0  0  0  0  0  0  0  0  0  0  0
   22.8104  -22.7596  -13.6813 C   0  0  0  0  0  0  0  0  0  0  0  0
   21.4463  -22.3234  -14.0369 C   0  0  0  0  0  0  0  0  0  0  0  0
   21.2612  -21.6696  -15.0820 O   0  0  0  0  0  0  0  0  0  0  0  0
   20.3747  -22.6295  -13.2288 O   0  0  0  0  0  0  0  0  0  0  0  0
  2  1  1  1
  2  3  1  0
  2 13  1  0
  3  4  1  0
  4  5  2  0
  5  6  1  0
  7  6  1  0
  8  7  2  0
  9  8  1  0
 10 11  1  0
 10  9  2  0
 11 12  2  0
 12  4  1  0
 12  7  1  0
 13 15  1  0
 13 14  2  0
 15 16  1  0
 16 17  1  6
 18 17  1  0
 19 18  1  0
 20 19  1  0
 21 20  1  0
 22 24  1  0
 22 16  1  0
 23 22  2  0
 25 24  1  0
 26 28  1  0
 26 25  1  0
 27 26  2  0
M  END
$$$$
