WKG.pdb
     RDKit          3D

 28 29  0  0  1  0  0  0  0  0999 V2000
   20.9568  -18.4188  -15.9010 N   0  0  0  0  0  0  0  0  0  0  0  0
   22.3315  -17.9908  -15.7195 C   0  0  1  0  0  0  0  0  0  0  0  0
   22.2841  -16.7367  -14.8751 C   0  0  0  0  0  0  0  0  0  0  0  0
   22.8133  -15.5543  -15.5755 C   0  0  0  0  0  0  0  0  0  0  0  0
   22.0928  -14.7042  -16.3800 C   0  0  0  0  0  0  0  0  0  0  0  0
   22.9244  -13.7540  -16.8315 N   0  0  0  0  0  0  0  0  0  0  0  0
   24.1768  -13.9308  -16.3628 C   0  0  0  0  0  0  0  0  0  0  0  0
   25.3670  -13.2471  -16.5263 C   0  0  0  0  0  0  0  0  0  0  0  0
   26.5223  -13.6658  -15.9115 C   0  0  0  0  0  0  0  0  0  0  0  0
   26.4715  -14.7904  -15.1218 C   0  0  0  0  0  0  0  0  0  0  0  0
   25.2833  -15.4703  -14.9605 C   0  0  0  0  0  0  0  0  0  0  0  0
   24.1044  -15.0725  -15.5668 C   0  0  0  0  0  0  0  0  0  0  0  0
   23.0692  -19.0842  -15.0721 C   0  0  0  0  0  0  0  0  0  0  0  0
   22.4526  -19.9322  -14.3976 O   0  0  0  0  0  0  0  0  0  0  0  0
   24.4678  -19.1941  -15.1992 N   0  0  0  0  0  0  0  0  0  0  0  0
   25.2438  -20.3152  -14.6712 C   0  0  1  0  0  0  0  0  0  0  0  0
   26.6806  -20.2456  -15.1316 C   0  0  0  0  0  0  0  0  0  0  0  0
   27.5143  -21.3989  -14.6822 C   0  0  0  0  0  0  0  0  0  0  0  0
   28.0568  -22.2472  -15.7840 C   0  0  0  0  0  0  0  0  0  0  0  0
   28.8323  -23.4405  -15.2883 C   0  0  0  0  0  0  0  0  0  0  0  0
   29.1591  -24.3778  -16.3467 N   0  0  0  0  0  0  0  0  0  0  0  0
   25.2746  -20.2567  -13.1776 C   0  0  0  0  0  0  0  0  0  0  0  0
   25.4805  -19.1369  -12.6557 O   0  0  0  0  0  0  0  0  0  0  0  0
   25.0875  -21.3767  -12.3383 N   0  0  0  0  0  0  0  0  0  0  0  0
   25.0674  -21.3186  -10.9038 C   0  0  0  0  0  0  0  0  0  0  0  0
   26.4130  -21.4082  -10.3049 C   0  0  0  0  0  0  0  0  0  0  0  0
   27.4090  -21.5359  -11.0437 O   0  0  0  0  0  0  0  0  0  0  0  0
   26.5828  -21.3526   -8.9400 O   0  0  0  0  0  0  0  0  0  0  0  0
  2  1  1  1
  2  3  1  0
  2 13  1  0
  3  4  1  0
  4  5  2  0
  5  6  1  0
  7  6  1  0
  8  7  2  0
  9  8  1  0
 10 11  1  0
 10  9  2  0
 11 12  2  0
 12  4  1  0
 12  7  1  0
 13 15  1  0
 13 14  2  0
 15 16  1  0
 16 17  1  6
 18 17  1  0
 19 18  1  0
 20 19  1  0
 21 20  1  0
 22 24  1  0
 22 16  1  0
 23 22  2  0
 25 24  1  0
 26 28  1  0
 26 25  1  0
 27 26  2  0
M  END
$$$$
