WKG.pdb
     RDKit          3D

 28 29  0  0  1  0  0  0  0  0999 V2000
   27.1777  -22.5676  -10.5150 N   0  0  0  0  0  0  0  0  0  0  0  0
   26.3705  -21.4766  -10.0015 C   0  0  1  0  0  0  0  0  0  0  0  0
   27.2653  -20.2574   -9.9687 C   0  0  0  0  0  0  0  0  0  0  0  0
   28.2890  -20.3265   -8.9123 C   0  0  0  0  0  0  0  0  0  0  0  0
   29.5900  -20.7383   -9.0760 C   0  0  0  0  0  0  0  0  0  0  0  0
   30.2039  -20.6599   -7.8864 N   0  0  0  0  0  0  0  0  0  0  0  0
   29.3675  -20.2116   -6.9278 C   0  0  0  0  0  0  0  0  0  0  0  0
   29.5057  -19.9609   -5.5755 C   0  0  0  0  0  0  0  0  0  0  0  0
   28.4543  -19.4949   -4.8236 C   0  0  0  0  0  0  0  0  0  0  0  0
   27.2484  -19.2805   -5.4489 C   0  0  0  0  0  0  0  0  0  0  0  0
   27.1134  -19.5314   -6.7976 C   0  0  0  0  0  0  0  0  0  0  0  0
   28.1541  -20.0008   -7.5801 C   0  0  0  0  0  0  0  0  0  0  0  0
   25.2120  -21.3074  -10.8893 C   0  0  0  0  0  0  0  0  0  0  0  0
   25.3594  -21.4032  -12.1236 O   0  0  0  0  0  0  0  0  0  0  0  0
   23.9305  -21.0376  -10.3705 N   0  0  0  0  0  0  0  0  0  0  0  0
   22.7161  -21.0114  -11.1842 C   0  0  1  0  0  0  0  0  0  0  0  0
   21.4845  -20.8925  -10.3179 C   0  0  0  0  0  0  0  0  0  0  0  0
   20.2036  -21.0666  -11.0636 C   0  0  0  0  0  0  0  0  0  0  0  0
   19.8586  -22.4804  -11.3955 C   0  0  0  0  0  0  0  0  0  0  0  0
   18.5815  -22.6107  -12.1849 C   0  0  0  0  0  0  0  0  0  0  0  0
   18.3086  -23.9767  -12.5913 N   0  0  0  0  0  0  0  0  0  0  0  0
   22.7240  -19.8109  -12.0753 C   0  0  0  0  0  0  0  0  0  0  0  0
   22.6922  -18.6889  -11.5196 O   0  0  0  0  0  0  0  0  0  0  0  0
   22.7648  -19.8730  -13.4854 N   0  0  0  0  0  0  0  0  0  0  0  0
   22.8370  -18.7247  -14.3443 C   0  0  0  0  0  0  0  0  0  0  0  0
   21.5145  -18.2818  -14.8260 C   0  0  0  0  0  0  0  0  0  0  0  0
   20.5045  -18.9663  -14.5704 O   0  0  0  0  0  0  0  0  0  0  0  0
   21.3815  -17.1214  -15.5546 O   0  0  0  0  0  0  0  0  0  0  0  0
  2  1  1  6
  2  3  1  0
  2 13  1  0
  3  4  1  0
  4  5  2  0
  5  6  1  0
  7  6  1  0
  8  7  2  0
  9  8  1  0
 10 11  1  0
 10  9  2  0
 11 12  2  0
 12  4  1  0
 12  7  1  0
 13 15  1  0
 13 14  2  0
 15 16  1  0
 16 17  1  1
 18 17  1  0
 19 18  1  0
 20 19  1  0
 21 20  1  0
 22 24  1  0
 22 16  1  0
 23 22  2  0
 25 24  1  0
 26 28  1  0
 26 25  1  0
 27 26  2  0
M  END
$$$$
