WKG.pdb
     RDKit          3D

 28 29  0  0  1  0  0  0  0  0999 V2000
   25.1109  -20.4060   -8.7670 N   0  0  0  0  0  0  0  0  0  0  0  0
   26.3607  -20.3499   -9.5023 C   0  0  1  0  0  0  0  0  0  0  0  0
   27.4388  -20.8303   -8.5563 C   0  0  0  0  0  0  0  0  0  0  0  0
   27.6379  -19.9284   -7.4093 C   0  0  0  0  0  0  0  0  0  0  0  0
   26.9808  -18.7406   -7.1941 C   0  0  0  0  0  0  0  0  0  0  0  0
   27.4361  -18.2153   -6.0473 N   0  0  0  0  0  0  0  0  0  0  0  0
   28.3740  -19.0025   -5.4818 C   0  0  0  0  0  0  0  0  0  0  0  0
   29.1318  -18.9141   -4.3291 C   0  0  0  0  0  0  0  0  0  0  0  0
   30.0373  -19.8911   -3.9920 C   0  0  0  0  0  0  0  0  0  0  0  0
   30.1769  -20.9705   -4.8326 C   0  0  0  0  0  0  0  0  0  0  0  0
   29.4199  -21.0561   -5.9814 C   0  0  0  0  0  0  0  0  0  0  0  0
   28.5006  -20.0880   -6.3466 C   0  0  0  0  0  0  0  0  0  0  0  0
   26.2292  -21.2006  -10.6931 C   0  0  0  0  0  0  0  0  0  0  0  0
   26.7367  -22.3393  -10.6989 O   0  0  0  0  0  0  0  0  0  0  0  0
   25.5369  -20.7524  -11.8351 N   0  0  0  0  0  0  0  0  0  0  0  0
   25.4309  -21.5235  -13.0728 C   0  0  1  0  0  0  0  0  0  0  0  0
   24.2167  -21.1078  -13.8692 C   0  0  0  0  0  0  0  0  0  0  0  0
   23.7228  -22.1576  -14.8077 C   0  0  0  0  0  0  0  0  0  0  0  0
   23.6675  -23.5348  -14.2349 C   0  0  0  0  0  0  0  0  0  0  0  0
   23.1775  -24.5676  -15.2169 C   0  0  0  0  0  0  0  0  0  0  0  0
   23.2516  -25.9195  -14.6951 N   0  0  0  0  0  0  0  0  0  0  0  0
   26.6181  -21.2596  -13.9424 C   0  0  0  0  0  0  0  0  0  0  0  0
   26.8917  -20.0614  -14.1844 O   0  0  0  0  0  0  0  0  0  0  0  0
   27.4334  -22.2709  -14.4961 N   0  0  0  0  0  0  0  0  0  0  0  0
   28.6403  -22.0241  -15.2336 C   0  0  0  0  0  0  0  0  0  0  0  0
   28.4184  -21.9412  -16.6901 C   0  0  0  0  0  0  0  0  0  0  0  0
   27.5576  -21.1591  -17.1387 O   0  0  0  0  0  0  0  0  0  0  0  0
   29.1503  -22.7171  -17.5603 O   0  0  0  0  0  0  0  0  0  0  0  0
  2  1  1  1
  2  3  1  0
  2 13  1  0
  3  4  1  0
  4  5  2  0
  5  6  1  0
  7  6  1  0
  8  7  2  0
  9  8  1  0
 10 11  1  0
 10  9  2  0
 11 12  2  0
 12  4  1  0
 12  7  1  0
 13 15  1  0
 13 14  2  0
 15 16  1  0
 16 17  1  6
 18 17  1  0
 19 18  1  0
 20 19  1  0
 21 20  1  0
 22 24  1  0
 22 16  1  0
 23 22  2  0
 25 24  1  0
 26 28  1  0
 26 25  1  0
 27 26  2  0
M  END
$$$$
