WKG.pdb
     RDKit          3D

 28 29  0  0  1  0  0  0  0  0999 V2000
   27.0119  -21.7699   -9.8372 N   0  0  0  0  0  0  0  0  0  0  0  0
   25.9181  -20.8202   -9.7496 C   0  0  1  0  0  0  0  0  0  0  0  0
   26.3724  -19.7258   -8.8094 C   0  0  0  0  0  0  0  0  0  0  0  0
   26.5645  -20.2002   -7.4285 C   0  0  0  0  0  0  0  0  0  0  0  0
   25.8214  -21.1695   -6.7983 C   0  0  0  0  0  0  0  0  0  0  0  0
   26.3013  -21.3188   -5.5550 N   0  0  0  0  0  0  0  0  0  0  0  0
   27.3384  -20.4882   -5.3231 C   0  0  0  0  0  0  0  0  0  0  0  0
   28.1571  -20.2580   -4.2334 C   0  0  0  0  0  0  0  0  0  0  0  0
   29.1638  -19.3238   -4.2801 C   0  0  0  0  0  0  0  0  0  0  0  0
   29.3432  -18.6144   -5.4444 C   0  0  0  0  0  0  0  0  0  0  0  0
   28.5252  -18.8460   -6.5296 C   0  0  0  0  0  0  0  0  0  0  0  0
   27.5039  -19.7799   -6.5119 C   0  0  0  0  0  0  0  0  0  0  0  0
   25.6334  -20.3245  -11.1032 C   0  0  0  0  0  0  0  0  0  0  0  0
   25.9506  -19.1597  -11.4148 O   0  0  0  0  0  0  0  0  0  0  0  0
   25.0056  -21.1440  -12.0615 N   0  0  0  0  0  0  0  0  0  0  0  0
   24.7022  -20.7104  -13.4244 C   0  0  1  0  0  0  0  0  0  0  0  0
   24.9177  -21.8328  -14.4119 C   0  0  0  0  0  0  0  0  0  0  0  0
   26.0499  -21.5970  -15.3551 C   0  0  0  0  0  0  0  0  0  0  0  0
   27.1441  -22.6098  -15.2866 C   0  0  0  0  0  0  0  0  0  0  0  0
   28.3088  -22.2880  -16.1873 C   0  0  0  0  0  0  0  0  0  0  0  0
   29.4748  -23.1068  -15.9128 N   0  0  0  0  0  0  0  0  0  0  0  0
   23.2613  -20.3254  -13.5292 C   0  0  0  0  0  0  0  0  0  0  0  0
   22.8971  -19.7652  -14.5887 O   0  0  0  0  0  0  0  0  0  0  0  0
   22.3055  -20.5552  -12.5155 N   0  0  0  0  0  0  0  0  0  0  0  0
   20.9215  -20.1847  -12.6091 C   0  0  0  0  0  0  0  0  0  0  0  0
   20.0069  -21.2633  -12.1880 C   0  0  0  0  0  0  0  0  0  0  0  0
   20.4715  -22.3733  -11.8626 O   0  0  0  0  0  0  0  0  0  0  0  0
   18.6460  -21.0593  -12.1497 O   0  0  0  0  0  0  0  0  0  0  0  0
  2  1  1  6
  2  3  1  0
  2 13  1  0
  3  4  1  0
  4  5  2  0
  5  6  1  0
  7  6  1  0
  8  7  2  0
  9  8  1  0
 10 11  1  0
 10  9  2  0
 11 12  2  0
 12  4  1  0
 12  7  1  0
 13 15  1  0
 13 14  2  0
 15 16  1  0
 16 17  1  6
 18 17  1  0
 19 18  1  0
 20 19  1  0
 21 20  1  0
 22 24  1  0
 22 16  1  0
 23 22  2  0
 25 24  1  0
 26 28  1  0
 26 25  1  0
 27 26  2  0
M  END
$$$$
