WKG.pdb
     RDKit          3D

 28 29  0  0  1  0  0  0  0  0999 V2000
   27.5566  -19.5016  -11.3419 N   0  0  0  0  0  0  0  0  0  0  0  0
   26.7839  -20.7299  -11.3503 C   0  0  1  0  0  0  0  0  0  0  0  0
   26.4348  -21.0287   -9.9091 C   0  0  0  0  0  0  0  0  0  0  0  0
   27.5418  -20.7436   -8.9807 C   0  0  0  0  0  0  0  0  0  0  0  0
   27.4770  -19.9314   -7.8739 C   0  0  0  0  0  0  0  0  0  0  0  0
   28.6842  -19.9267   -7.2901 N   0  0  0  0  0  0  0  0  0  0  0  0
   29.5597  -20.7038   -7.9602 C   0  0  0  0  0  0  0  0  0  0  0  0
   30.8911  -21.0264   -7.7762 C   0  0  0  0  0  0  0  0  0  0  0  0
   31.5490  -21.8678   -8.6407 C   0  0  0  0  0  0  0  0  0  0  0  0
   30.8499  -22.3884   -9.7043 C   0  0  0  0  0  0  0  0  0  0  0  0
   29.5222  -22.0650   -9.8855 C   0  0  0  0  0  0  0  0  0  0  0  0
   28.8337  -21.2208   -9.0316 C   0  0  0  0  0  0  0  0  0  0  0  0
   25.5970  -20.5178  -12.1902 C   0  0  0  0  0  0  0  0  0  0  0  0
   24.9314  -19.4708  -12.0675 O   0  0  0  0  0  0  0  0  0  0  0  0
   25.1940  -21.4798  -13.1370 N   0  0  0  0  0  0  0  0  0  0  0  0
   24.0657  -21.2962  -14.0485 C   0  0  1  0  0  0  0  0  0  0  0  0
   24.2639  -22.0821  -15.3230 C   0  0  0  0  0  0  0  0  0  0  0  0
   23.1422  -21.9435  -16.2976 C   0  0  0  0  0  0  0  0  0  0  0  0
   23.3138  -22.7136  -17.5646 C   0  0  0  0  0  0  0  0  0  0  0  0
   22.1851  -22.5087  -18.5419 C   0  0  0  0  0  0  0  0  0  0  0  0
   22.3889  -23.2158  -19.7925 N   0  0  0  0  0  0  0  0  0  0  0  0
   22.8122  -21.8164  -13.4212 C   0  0  0  0  0  0  0  0  0  0  0  0
   22.8762  -22.9369  -12.8651 O   0  0  0  0  0  0  0  0  0  0  0  0
   21.5813  -21.1244  -13.4220 N   0  0  0  0  0  0  0  0  0  0  0  0
   20.3817  -21.6062  -12.7973 C   0  0  0  0  0  0  0  0  0  0  0  0
   19.5557  -22.4333  -13.6978 C   0  0  0  0  0  0  0  0  0  0  0  0
   19.9426  -22.6507  -14.8628 O   0  0  0  0  0  0  0  0  0  0  0  0
   18.3625  -22.9685  -13.2677 O   0  0  0  0  0  0  0  0  0  0  0  0
  2  1  1  1
  2  3  1  0
  2 13  1  0
  3  4  1  0
  4  5  2  0
  5  6  1  0
  7  6  1  0
  8  7  2  0
  9  8  1  0
 10 11  1  0
 10  9  2  0
 11 12  2  0
 12  4  1  0
 12  7  1  0
 13 15  1  0
 13 14  2  0
 15 16  1  0
 16 17  1  6
 18 17  1  0
 19 18  1  0
 20 19  1  0
 21 20  1  0
 22 24  1  0
 22 16  1  0
 23 22  2  0
 25 24  1  0
 26 28  1  0
 26 25  1  0
 27 26  2  0
M  END
$$$$
