DTF.pdb
     RDKit          3D

 27 27  0  0  1  0  0  0  0  0999 V2000
   27.0011  -19.2202  -20.1536 N   0  0  0  0  0  0  0  0  0  0  0  0
   27.0194  -19.8982  -18.8630 C   0  0  1  0  0  0  0  0  0  0  0  0
   28.4247  -20.1464  -18.4031 C   0  0  0  0  0  0  0  0  0  0  0  0
   28.9891  -21.2640  -19.1839 C   0  0  0  0  0  0  0  0  0  0  0  0
   29.7331  -21.0180  -20.1585 O   0  0  0  0  0  0  0  0  0  0  0  0
   26.2240  -19.1112  -17.9183 C   0  0  0  0  0  0  0  0  0  0  0  0
   25.9998  -17.8716  -18.1210 O   0  0  0  0  0  0  0  0  0  0  0  0
   28.7268  -22.5901  -18.8798 O   0  0  0  0  0  0  0  0  0  0  0  0
   23.9237  -17.6962  -17.7030 C   0  0  0  0  0  0  0  0  0  0  0  0
   23.6511  -18.6044  -16.5521 C   0  0  1  0  0  0  0  0  0  0  0  0
   23.1194  -19.8064  -17.0858 O   0  0  0  0  0  0  0  0  0  0  0  0
   24.8731  -19.0367  -15.7799 C   0  0  2  0  0  0  0  0  0  0  0  0
   25.7011  -19.7480  -16.7653 N   0  0  0  0  0  0  0  0  0  0  0  0
   24.5903  -19.9368  -14.6528 C   0  0  0  0  0  0  0  0  0  0  0  0
   24.6073  -21.1859  -14.8706 O   0  0  0  0  0  0  0  0  0  0  0  0
   24.2984  -19.5400  -13.3332 N   0  0  0  0  0  0  0  0  0  0  0  0
   24.1050  -20.5262  -12.2779 C   0  0  1  0  0  0  0  0  0  0  0  0
   24.9936  -20.2728  -11.1083 C   0  0  0  0  0  0  0  0  0  0  0  0
   26.4166  -20.3753  -11.4720 C   0  0  0  0  0  0  0  0  0  0  0  0
   27.1236  -21.4559  -10.9450 C   0  0  0  0  0  0  0  0  0  0  0  0
   28.4497  -21.6157  -11.2641 C   0  0  0  0  0  0  0  0  0  0  0  0
   29.1010  -20.7313  -12.0952 C   0  0  0  0  0  0  0  0  0  0  0  0
   28.4291  -19.6585  -12.6284 C   0  0  0  0  0  0  0  0  0  0  0  0
   27.0930  -19.5087  -12.2993 C   0  0  0  0  0  0  0  0  0  0  0  0
   22.6957  -20.4775  -11.8591 C   0  0  0  0  0  0  0  0  0  0  0  0
   21.8616  -19.6218  -12.2353 O   0  0  0  0  0  0  0  0  0  0  0  0
   22.2220  -21.4404  -10.9792 O   0  0  0  0  0  0  0  0  0  0  0  0
  2  1  1  6
  2  3  1  0
  3  4  1  0
  4  5  2  0
  6  2  1  0
  7  6  2  0
  8  4  1  0
 10  9  1  6
 10 12  1  0
 11 10  1  0
 12 13  1  6
 13  6  1  0
 14 16  1  0
 14 12  1  0
 15 14  2  0
 17 16  1  0
 18 19  1  0
 17 18  1  1
 19 24  2  0
 19 20  1  0
 20 21  2  0
 21 22  1  0
 23 22  2  0
 24 23  1  0
 25 27  1  0
 25 17  1  0
 26 25  2  0
M  END
$$$$
