DTF.pdb
     RDKit          3D

 27 27  0  0  1  0  0  0  0  0999 V2000
   25.1019  -19.4982  -15.3202 N   0  0  0  0  0  0  0  0  0  0  0  0
   26.1327  -19.9007  -14.3710 C   0  0  1  0  0  0  0  0  0  0  0  0
   27.4829  -19.4091  -14.7990 C   0  0  0  0  0  0  0  0  0  0  0  0
   27.8838  -20.1288  -16.0231 C   0  0  0  0  0  0  0  0  0  0  0  0
   27.0682  -20.8969  -16.5788 O   0  0  0  0  0  0  0  0  0  0  0  0
   25.7366  -19.4400  -13.0385 C   0  0  0  0  0  0  0  0  0  0  0  0
   25.0462  -18.3776  -12.8889 O   0  0  0  0  0  0  0  0  0  0  0  0
   29.1403  -19.9883  -16.5901 O   0  0  0  0  0  0  0  0  0  0  0  0
   23.4528  -19.5388  -11.6549 C   0  0  0  0  0  0  0  0  0  0  0  0
   24.2214  -20.1414  -10.5278 C   0  0  1  0  0  0  0  0  0  0  0  0
   24.1281  -21.5501  -10.6653 O   0  0  0  0  0  0  0  0  0  0  0  0
   25.7024  -19.8531  -10.5423 C   0  0  2  0  0  0  0  0  0  0  0  0
   26.1326  -20.1948  -11.9064 N   0  0  0  0  0  0  0  0  0  0  0  0
   26.4829  -20.6452   -9.5811 C   0  0  0  0  0  0  0  0  0  0  0  0
   26.8332  -21.8156   -9.9208 O   0  0  0  0  0  0  0  0  0  0  0  0
   26.8866  -20.2232   -8.2994 N   0  0  0  0  0  0  0  0  0  0  0  0
   27.5498  -21.1401   -7.3813 C   0  0  1  0  0  0  0  0  0  0  0  0
   28.8996  -20.6498   -6.9817 C   0  0  0  0  0  0  0  0  0  0  0  0
   28.8417  -19.8240   -5.7643 C   0  0  0  0  0  0  0  0  0  0  0  0
   28.4756  -18.4882   -5.9279 C   0  0  0  0  0  0  0  0  0  0  0  0
   28.3852  -17.6727   -4.8266 C   0  0  0  0  0  0  0  0  0  0  0  0
   28.6484  -18.1440   -3.5594 C   0  0  0  0  0  0  0  0  0  0  0  0
   29.0108  -19.4551   -3.3692 C   0  0  0  0  0  0  0  0  0  0  0  0
   29.0981  -20.2666   -4.4870 C   0  0  0  0  0  0  0  0  0  0  0  0
   26.6975  -21.2927   -6.1920 C   0  0  0  0  0  0  0  0  0  0  0  0
   25.6466  -20.6474   -5.9714 O   0  0  0  0  0  0  0  0  0  0  0  0
   27.0582  -22.2152   -5.2201 O   0  0  0  0  0  0  0  0  0  0  0  0
  2  1  1  6
  2  3  1  0
  3  4  1  0
  4  5  2  0
  6  2  1  0
  7  6  2  0
  8  4  1  0
 10  9  1  6
 10 12  1  0
 11 10  1  0
 12 13  1  6
 13  6  1  0
 14 16  1  0
 14 12  1  0
 15 14  2  0
 17 16  1  0
 18 19  1  0
 17 18  1  1
 19 24  2  0
 19 20  1  0
 20 21  2  0
 21 22  1  0
 23 22  2  0
 24 23  1  0
 25 27  1  0
 25 17  1  0
 26 25  2  0
M  END
$$$$
