DTF.pdb
     RDKit          3D

 27 27  0  0  1  0  0  0  0  0999 V2000
   22.2551  -19.2220  -16.7859 N   0  0  0  0  0  0  0  0  0  0  0  0
   23.1458  -18.5940  -15.8175 C   0  0  1  0  0  0  0  0  0  0  0  0
   22.9211  -17.1127  -15.7581 C   0  0  0  0  0  0  0  0  0  0  0  0
   23.5611  -16.4883  -16.9318 C   0  0  0  0  0  0  0  0  0  0  0  0
   23.1143  -16.7281  -18.0749 O   0  0  0  0  0  0  0  0  0  0  0  0
   22.9706  -19.2655  -14.5279 C   0  0  0  0  0  0  0  0  0  0  0  0
   21.8330  -19.2940  -13.9510 O   0  0  0  0  0  0  0  0  0  0  0  0
   24.6490  -15.6375  -16.8202 O   0  0  0  0  0  0  0  0  0  0  0  0
   23.0313  -22.6223  -14.0440 C   0  0  0  0  0  0  0  0  0  0  0  0
   24.1325  -22.1231  -13.1711 C   0  0  1  0  0  0  0  0  0  0  0  0
   25.3145  -22.1129  -13.9554 O   0  0  0  0  0  0  0  0  0  0  0  0
   23.9742  -20.6986  -12.6997 C   0  0  2  0  0  0  0  0  0  0  0  0
   24.0897  -19.8893  -13.9222 N   0  0  0  0  0  0  0  0  0  0  0  0
   24.9961  -20.2619  -11.7377 C   0  0  0  0  0  0  0  0  0  0  0  0
   25.8743  -19.4384  -12.1359 O   0  0  0  0  0  0  0  0  0  0  0  0
   25.0954  -20.6754  -10.3949 N   0  0  0  0  0  0  0  0  0  0  0  0
   26.1781  -20.2026   -9.5418 C   0  0  1  0  0  0  0  0  0  0  0  0
   25.8064  -20.2370   -8.0986 C   0  0  0  0  0  0  0  0  0  0  0  0
   26.8754  -19.6900   -7.2468 C   0  0  0  0  0  0  0  0  0  0  0  0
   27.7589  -20.6081   -6.6799 C   0  0  0  0  0  0  0  0  0  0  0  0
   28.7885  -20.1566   -5.8913 C   0  0  0  0  0  0  0  0  0  0  0  0
   28.9705  -18.8135   -5.6458 C   0  0  0  0  0  0  0  0  0  0  0  0
   28.1156  -17.8873   -6.1915 C   0  0  0  0  0  0  0  0  0  0  0  0
   27.0821  -18.3552   -6.9845 C   0  0  0  0  0  0  0  0  0  0  0  0
   27.3532  -21.0552   -9.7792 C   0  0  0  0  0  0  0  0  0  0  0  0
   27.3158  -22.2875  -10.0015 O   0  0  0  0  0  0  0  0  0  0  0  0
   28.6159  -20.4799   -9.7622 O   0  0  0  0  0  0  0  0  0  0  0  0
  2  1  1  6
  2  3  1  0
  3  4  1  0
  4  5  2  0
  6  2  1  0
  7  6  2  0
  8  4  1  0
 10  9  1  6
 10 12  1  0
 11 10  1  0
 12 13  1  6
 13  6  1  0
 14 16  1  0
 14 12  1  0
 15 14  2  0
 17 16  1  0
 18 19  1  0
 17 18  1  1
 19 24  2  0
 19 20  1  0
 20 21  2  0
 21 22  1  0
 23 22  2  0
 24 23  1  0
 25 27  1  0
 25 17  1  0
 26 25  2  0
M  END
$$$$
