DTF.pdb
     RDKit          3D

 27 27  0  0  1  0  0  0  0  0999 V2000
   19.9058  -15.0687  -17.2797 N   0  0  0  0  0  0  0  0  0  0  0  0
   19.3345  -13.7700  -16.9444 C   0  0  1  0  0  0  0  0  0  0  0  0
   18.5378  -13.8414  -15.6763 C   0  0  0  0  0  0  0  0  0  0  0  0
   17.2939  -14.5900  -15.9389 C   0  0  0  0  0  0  0  0  0  0  0  0
   16.3719  -14.0424  -16.5825 O   0  0  0  0  0  0  0  0  0  0  0  0
   20.4196  -12.7874  -16.9003 C   0  0  0  0  0  0  0  0  0  0  0  0
   21.6391  -13.1573  -16.8395 O   0  0  0  0  0  0  0  0  0  0  0  0
   17.1011  -15.8893  -15.4977 O   0  0  0  0  0  0  0  0  0  0  0  0
   21.8681  -11.0500  -19.2542 C   0  0  0  0  0  0  0  0  0  0  0  0
   21.2749   -9.9873  -18.3924 C   0  0  1  0  0  0  0  0  0  0  0  0
   19.9480   -9.7742  -18.8465 O   0  0  0  0  0  0  0  0  0  0  0  0
   21.1261  -10.3579  -16.9374 C   0  0  2  0  0  0  0  0  0  0  0  0
   20.0965  -11.4078  -16.9263 N   0  0  0  0  0  0  0  0  0  0  0  0
   20.6920   -9.2519  -16.0721 C   0  0  0  0  0  0  0  0  0  0  0  0
   19.4504   -9.0043  -16.0013 O   0  0  0  0  0  0  0  0  0  0  0  0
   21.5348   -8.4279  -15.3009 N   0  0  0  0  0  0  0  0  0  0  0  0
   20.9892   -7.3550  -14.4795 C   0  0  1  0  0  0  0  0  0  0  0  0
   22.0283   -6.7366  -13.6078 C   0  0  0  0  0  0  0  0  0  0  0  0
   23.1374   -6.1745  -14.3959 C   0  0  0  0  0  0  0  0  0  0  0  0
   23.1810   -4.7859  -14.5181 C   0  0  0  0  0  0  0  0  0  0  0  0
   24.2030   -4.2017  -15.2252 C   0  0  0  0  0  0  0  0  0  0  0  0
   25.1901   -4.9569  -15.8191 C   0  0  0  0  0  0  0  0  0  0  0  0
   25.1720   -6.3263  -15.7146 C   0  0  0  0  0  0  0  0  0  0  0  0
   24.1368   -6.9028  -14.9992 C   0  0  0  0  0  0  0  0  0  0  0  0
   20.4149   -6.3396  -15.3758 C   0  0  0  0  0  0  0  0  0  0  0  0
   20.6361   -6.2571  -16.6061 O   0  0  0  0  0  0  0  0  0  0  0  0
   19.5575   -5.3846  -14.8481 O   0  0  0  0  0  0  0  0  0  0  0  0
  2  1  1  1
  2  3  1  0
  3  4  1  0
  4  5  2  0
  6  2  1  0
  7  6  2  0
  8  4  1  0
 10  9  1  6
 10 12  1  0
 11 10  1  0
 12 13  1  6
 13  6  1  0
 14 16  1  0
 14 12  1  0
 15 14  2  0
 17 16  1  0
 18 19  1  0
 17 18  1  6
 19 24  2  0
 19 20  1  0
 20 21  2  0
 21 22  1  0
 23 22  2  0
 24 23  1  0
 25 27  1  0
 25 17  1  0
 26 25  2  0
M  END
$$$$
