DTF.pdb
     RDKit          3D

 27 27  0  0  1  0  0  0  0  0999 V2000
   25.8443  -15.0588  -20.0521 N   0  0  0  0  0  0  0  0  0  0  0  0
   24.8055  -16.0594  -19.8394 C   0  0  1  0  0  0  0  0  0  0  0  0
   25.3797  -17.3214  -19.2688 C   0  0  0  0  0  0  0  0  0  0  0  0
   26.2715  -17.9331  -20.2725 C   0  0  0  0  0  0  0  0  0  0  0  0
   27.4408  -18.2380  -19.9504 O   0  0  0  0  0  0  0  0  0  0  0  0
   23.7567  -15.4645  -19.0081 C   0  0  0  0  0  0  0  0  0  0  0  0
   23.4980  -14.2167  -19.0697 O   0  0  0  0  0  0  0  0  0  0  0  0
   25.8641  -18.1871  -21.5722 O   0  0  0  0  0  0  0  0  0  0  0  0
   21.4024  -14.1898  -19.2181 C   0  0  0  0  0  0  0  0  0  0  0  0
   20.9032  -15.2988  -18.3551 C   0  0  1  0  0  0  0  0  0  0  0  0
   20.6639  -16.4113  -19.2022 O   0  0  0  0  0  0  0  0  0  0  0  0
   21.8912  -15.8027  -17.3322 C   0  0  2  0  0  0  0  0  0  0  0  0
   23.0254  -16.2986  -18.1262 N   0  0  0  0  0  0  0  0  0  0  0  0
   21.3848  -16.8934  -16.4870 C   0  0  0  0  0  0  0  0  0  0  0  0
   21.4465  -18.0756  -16.9415 O   0  0  0  0  0  0  0  0  0  0  0  0
   20.8296  -16.7505  -15.2005 N   0  0  0  0  0  0  0  0  0  0  0  0
   20.3502  -17.9084  -14.4567 C   0  0  1  0  0  0  0  0  0  0  0  0
   20.5170  -17.7343  -12.9857 C   0  0  0  0  0  0  0  0  0  0  0  0
   19.9732  -18.8787  -12.2359 C   0  0  0  0  0  0  0  0  0  0  0  0
   18.7565  -18.6814  -11.5835 C   0  0  0  0  0  0  0  0  0  0  0  0
   18.1894  -19.7180  -10.8836 C   0  0  0  0  0  0  0  0  0  0  0  0
   18.7956  -20.9526  -10.8100 C   0  0  0  0  0  0  0  0  0  0  0  0
   19.9941  -21.1748  -11.4431 C   0  0  0  0  0  0  0  0  0  0  0  0
   20.5551  -20.1222  -12.1452 C   0  0  0  0  0  0  0  0  0  0  0  0
   18.9290  -18.1048  -14.7823 C   0  0  0  0  0  0  0  0  0  0  0  0
   18.1171  -17.1879  -15.0459 O   0  0  0  0  0  0  0  0  0  0  0  0
   18.4170  -19.3943  -14.8077 O   0  0  0  0  0  0  0  0  0  0  0  0
  2  1  1  1
  2  3  1  0
  3  4  1  0
  4  5  2  0
  6  2  1  0
  7  6  2  0
  8  4  1  0
 10  9  1  6
 10 12  1  0
 11 10  1  0
 12 13  1  6
 13  6  1  0
 14 16  1  0
 14 12  1  0
 15 14  2  0
 17 16  1  0
 18 19  1  0
 17 18  1  1
 19 24  2  0
 19 20  1  0
 20 21  2  0
 21 22  1  0
 23 22  2  0
 24 23  1  0
 25 27  1  0
 25 17  1  0
 26 25  2  0
M  END
$$$$
