LLH.pdb
     RDKit          3D

 27 27  0  0  1  0  0  0  0  0999 V2000
    8.3980  -12.2907   19.3809 C   0  0  0  0  0  0  0  0  0  0  0  0
    7.9626  -13.5257   20.1631 C   0  0  1  0  0  0  0  0  0  0  0  0
    6.6739  -14.0723   19.6141 C   0  0  0  0  0  0  0  0  0  0  0  0
    9.0470  -14.5500   20.0052 C   0  0  0  0  0  0  0  0  0  0  0  0
    8.7805  -15.6746   20.9843 C   0  0  2  0  0  0  0  0  0  0  0  0
    7.4700  -16.2136   20.8747 N   0  0  0  0  0  0  0  0  0  0  0  0
    9.0340  -15.1582   22.3350 C   0  0  0  0  0  0  0  0  0  0  0  0
   10.1601  -14.6439   22.5736 O   0  0  0  0  0  0  0  0  0  0  0  0
    8.4233  -12.3867   26.5209 C   0  0  0  0  0  0  0  0  0  0  0  0
    7.3487  -13.4564   26.5794 C   0  0  1  0  0  0  0  0  0  0  0  0
    6.0654  -12.7717   27.0576 C   0  0  0  0  0  0  0  0  0  0  0  0
    7.1096  -14.0627   25.2126 C   0  0  0  0  0  0  0  0  0  0  0  0
    8.2839  -14.7945   24.6889 C   0  0  2  0  0  0  0  0  0  0  0  0
    8.0345  -15.2416   23.3310 N   0  0  0  0  0  0  0  0  0  0  0  0
    8.7278  -15.9479   25.4795 C   0  0  0  0  0  0  0  0  0  0  0  0
    7.8577  -16.8000   25.8038 O   0  0  0  0  0  0  0  0  0  0  0  0
   10.0407  -16.1839   25.9062 N   0  0  0  0  0  0  0  0  0  0  0  0
   10.3340  -17.3754   26.6650 C   0  0  1  0  0  0  0  0  0  0  0  0
   11.7326  -17.8008   26.2809 C   0  0  0  0  0  0  0  0  0  0  0  0
   11.8331  -18.1852   24.8535 C   0  0  0  0  0  0  0  0  0  0  0  0
   10.7718  -18.2027   23.9773 C   0  0  0  0  0  0  0  0  0  0  0  0
   11.2463  -18.6040   22.7854 N   0  0  0  0  0  0  0  0  0  0  0  0
   12.5824  -18.8342   22.9119 C   0  0  0  0  0  0  0  0  0  0  0  0
   12.9540  -18.5801   24.1789 N   0  0  0  0  0  0  0  0  0  0  0  0
   10.1431  -17.1573   28.1010 C   0  0  0  0  0  0  0  0  0  0  0  0
    9.9185  -15.9978   28.5336 O   0  0  0  0  0  0  0  0  0  0  0  0
   10.2000  -18.1907   29.0173 O   0  0  0  0  0  0  0  0  0  0  0  0
  2  4  1  0
  2  1  1  6
  3  2  1  0
  5  4  1  0
  5  6  1  1
  7  8  2  0
  7  5  1  0
 10  9  1  6
 10 12  1  0
 11 10  1  0
 13 12  1  1
 13 14  1  0
 14  7  1  0
 15 13  1  0
 15 17  1  0
 16 15  2  0
 18 17  1  0
 18 25  1  0
 18 19  1  1
 19 20  1  0
 20 21  2  0
 21 22  1  0
 23 22  1  0
 24 20  1  0
 24 23  2  0
 25 27  1  0
 26 25  2  0
M  END
$$$$
