LLH.pdb
     RDKit          3D

 27 27  0  0  1  0  0  0  0  0999 V2000
    7.8691  -12.2890   19.2068 C   0  0  0  0  0  0  0  0  0  0  0  0
    7.9038  -13.7057   19.7714 C   0  0  1  0  0  0  0  0  0  0  0  0
    8.5589  -14.6467   18.7985 C   0  0  0  0  0  0  0  0  0  0  0  0
    8.7090  -13.6545   21.0359 C   0  0  0  0  0  0  0  0  0  0  0  0
    8.6084  -15.0049   21.7146 C   0  0  2  0  0  0  0  0  0  0  0  0
    7.3194  -15.5931   21.6029 N   0  0  0  0  0  0  0  0  0  0  0  0
    8.9939  -14.8267   23.1199 C   0  0  0  0  0  0  0  0  0  0  0  0
   10.1261  -14.3306   23.3678 O   0  0  0  0  0  0  0  0  0  0  0  0
    5.3513  -12.8378   26.5932 C   0  0  0  0  0  0  0  0  0  0  0  0
    6.6827  -13.1302   25.9265 C   0  0  1  0  0  0  0  0  0  0  0  0
    7.6858  -12.1092   26.4699 C   0  0  0  0  0  0  0  0  0  0  0  0
    7.1634  -14.5266   26.2608 C   0  0  0  0  0  0  0  0  0  0  0  0
    8.4029  -14.9006   25.5450 C   0  0  2  0  0  0  0  0  0  0  0  0
    8.1106  -15.2051   24.1566 N   0  0  0  0  0  0  0  0  0  0  0  0
    9.1602  -16.0215   26.1129 C   0  0  0  0  0  0  0  0  0  0  0  0
    9.4717  -15.9541   27.3322 O   0  0  0  0  0  0  0  0  0  0  0  0
    9.5682  -17.1641   25.4133 N   0  0  0  0  0  0  0  0  0  0  0  0
   10.3611  -18.1617   26.0898 C   0  0  1  0  0  0  0  0  0  0  0  0
   11.7435  -18.1024   25.4816 C   0  0  0  0  0  0  0  0  0  0  0  0
   11.7122  -18.1728   24.0020 C   0  0  0  0  0  0  0  0  0  0  0  0
   10.5597  -18.2054   23.2503 C   0  0  0  0  0  0  0  0  0  0  0  0
   10.9283  -18.2720   21.9593 N   0  0  0  0  0  0  0  0  0  0  0  0
   12.2888  -18.2811   21.9024 C   0  0  0  0  0  0  0  0  0  0  0  0
   12.7812  -18.2204   23.1521 N   0  0  0  0  0  0  0  0  0  0  0  0
   10.3330  -17.9745   27.5425 C   0  0  0  0  0  0  0  0  0  0  0  0
    9.6828  -18.7736   28.2641 O   0  0  0  0  0  0  0  0  0  0  0  0
   11.0033  -16.9383   28.1652 O   0  0  0  0  0  0  0  0  0  0  0  0
  2  4  1  0
  2  1  1  6
  3  2  1  0
  5  4  1  0
  5  6  1  1
  7  8  2  0
  7  5  1  0
 10  9  1  1
 10 12  1  0
 11 10  1  0
 13 12  1  1
 13 14  1  0
 14  7  1  0
 15 13  1  0
 15 17  1  0
 16 15  2  0
 18 17  1  0
 18 25  1  0
 18 19  1  6
 19 20  1  0
 20 21  2  0
 21 22  1  0
 23 22  1  0
 24 20  1  0
 24 23  2  0
 25 27  1  0
 26 25  2  0
M  END
$$$$
