LLH.pdb
     RDKit          3D

 27 27  0  0  1  0  0  0  0  0999 V2000
    7.9283  -11.9816   19.1100 C   0  0  0  0  0  0  0  0  0  0  0  0
    7.7942  -13.4188   19.6034 C   0  0  1  0  0  0  0  0  0  0  0  0
    8.3773  -14.3780   18.6029 C   0  0  0  0  0  0  0  0  0  0  0  0
    8.5586  -13.5139   20.8906 C   0  0  0  0  0  0  0  0  0  0  0  0
    8.3542  -14.9027   21.4596 C   0  0  2  0  0  0  0  0  0  0  0  0
    7.0046  -15.3430   21.3905 N   0  0  0  0  0  0  0  0  0  0  0  0
    8.8423  -14.8929   22.8440 C   0  0  0  0  0  0  0  0  0  0  0  0
   10.0842  -14.7919   23.0362 O   0  0  0  0  0  0  0  0  0  0  0  0
    5.9960  -12.2573   26.7348 C   0  0  0  0  0  0  0  0  0  0  0  0
    7.1255  -12.8107   25.8859 C   0  0  1  0  0  0  0  0  0  0  0  0
    8.3958  -12.0578   26.2905 C   0  0  0  0  0  0  0  0  0  0  0  0
    7.3221  -14.2905   26.1395 C   0  0  0  0  0  0  0  0  0  0  0  0
    8.3826  -14.8877   25.2985 C   0  0  2  0  0  0  0  0  0  0  0  0
    7.9342  -14.9945   23.9225 N   0  0  0  0  0  0  0  0  0  0  0  0
    8.8783  -16.2010   25.7249 C   0  0  0  0  0  0  0  0  0  0  0  0
    8.0309  -17.1220   25.8733 O   0  0  0  0  0  0  0  0  0  0  0  0
   10.2175  -16.5200   25.9820 N   0  0  0  0  0  0  0  0  0  0  0  0
   10.5564  -17.8554   26.4104 C   0  0  1  0  0  0  0  0  0  0  0  0
   11.9336  -18.1503   25.8618 C   0  0  0  0  0  0  0  0  0  0  0  0
   11.9663  -18.1329   24.3807 C   0  0  0  0  0  0  0  0  0  0  0  0
   10.8474  -18.1111   23.5793 C   0  0  0  0  0  0  0  0  0  0  0  0
   11.2714  -18.1045   22.3038 N   0  0  0  0  0  0  0  0  0  0  0  0
   12.6330  -18.1218   22.3051 C   0  0  0  0  0  0  0  0  0  0  0  0
   13.0709  -18.1393   23.5763 N   0  0  0  0  0  0  0  0  0  0  0  0
   10.4434  -17.9971   27.8641 C   0  0  0  0  0  0  0  0  0  0  0  0
   10.3528  -16.9724   28.5878 O   0  0  0  0  0  0  0  0  0  0  0  0
   10.4314  -19.2319   28.4854 O   0  0  0  0  0  0  0  0  0  0  0  0
  2  4  1  0
  2  1  1  6
  3  2  1  0
  5  4  1  0
  5  6  1  1
  7  8  2  0
  7  5  1  0
 10  9  1  1
 10 12  1  0
 11 10  1  0
 13 12  1  1
 13 14  1  0
 14  7  1  0
 15 13  1  0
 15 17  1  0
 16 15  2  0
 18 17  1  0
 18 25  1  0
 18 19  1  1
 19 20  1  0
 20 21  2  0
 21 22  1  0
 23 22  1  0
 24 20  1  0
 24 23  2  0
 25 27  1  0
 26 25  2  0
M  END
$$$$
