LLH.pdb
     RDKit          3D

 27 27  0  0  1  0  0  0  0  0999 V2000
    7.8064  -11.8198   19.1246 C   0  0  0  0  0  0  0  0  0  0  0  0
    7.8878  -13.2774   19.5669 C   0  0  1  0  0  0  0  0  0  0  0  0
    8.5965  -14.1056   18.5310 C   0  0  0  0  0  0  0  0  0  0  0  0
    8.6685  -13.3044   20.8475 C   0  0  0  0  0  0  0  0  0  0  0  0
    8.6156  -14.7125   21.4031 C   0  0  2  0  0  0  0  0  0  0  0  0
    7.3496  -15.3350   21.2311 N   0  0  0  0  0  0  0  0  0  0  0  0
    8.9895  -14.6459   22.8211 C   0  0  0  0  0  0  0  0  0  0  0  0
   10.1149  -14.1610   23.1174 O   0  0  0  0  0  0  0  0  0  0  0  0
    5.5035  -12.8191   26.3964 C   0  0  0  0  0  0  0  0  0  0  0  0
    6.8028  -13.1593   25.6901 C   0  0  1  0  0  0  0  0  0  0  0  0
    7.8635  -12.1902   26.2192 C   0  0  0  0  0  0  0  0  0  0  0  0
    7.2310  -14.5797   25.9933 C   0  0  0  0  0  0  0  0  0  0  0  0
    8.4240  -15.0022   25.2272 C   0  0  2  0  0  0  0  0  0  0  0  0
    8.1028  -15.1159   23.8167 N   0  0  0  0  0  0  0  0  0  0  0  0
    9.0550  -16.2545   25.6585 C   0  0  0  0  0  0  0  0  0  0  0  0
    8.6970  -16.7339   26.7677 O   0  0  0  0  0  0  0  0  0  0  0  0
   10.0245  -16.9655   24.9404 N   0  0  0  0  0  0  0  0  0  0  0  0
   10.6129  -18.1461   25.5249 C   0  0  1  0  0  0  0  0  0  0  0  0
   11.1603  -18.9692   24.3816 C   0  0  0  0  0  0  0  0  0  0  0  0
   10.1210  -19.3059   23.3808 C   0  0  0  0  0  0  0  0  0  0  0  0
    8.8290  -19.6636   23.6930 C   0  0  0  0  0  0  0  0  0  0  0  0
    8.1893  -19.8963   22.5339 N   0  0  0  0  0  0  0  0  0  0  0  0
    9.0650  -19.6881   21.5122 C   0  0  0  0  0  0  0  0  0  0  0  0
   10.2554  -19.3248   22.0210 N   0  0  0  0  0  0  0  0  0  0  0  0
   11.6032  -17.8014   26.5479 C   0  0  0  0  0  0  0  0  0  0  0  0
   12.1704  -16.6792   26.5172 O   0  0  0  0  0  0  0  0  0  0  0  0
   11.9465  -18.6729   27.5645 O   0  0  0  0  0  0  0  0  0  0  0  0
  2  4  1  0
  2  1  1  6
  3  2  1  0
  5  4  1  0
  5  6  1  1
  7  8  2  0
  7  5  1  0
 10  9  1  1
 10 12  1  0
 11 10  1  0
 13 12  1  1
 13 14  1  0
 14  7  1  0
 15 13  1  0
 15 17  1  0
 16 15  2  0
 18 17  1  0
 18 25  1  0
 18 19  1  6
 19 20  1  0
 20 21  2  0
 21 22  1  0
 23 22  1  0
 24 20  1  0
 24 23  2  0
 25 27  1  0
 26 25  2  0
M  END
$$$$
