LLH.pdb
     RDKit          3D

 27 27  0  0  1  0  0  0  0  0999 V2000
    7.8871  -11.8710   19.3112 C   0  0  0  0  0  0  0  0  0  0  0  0
    8.0104  -13.3196   19.7731 C   0  0  1  0  0  0  0  0  0  0  0  0
    8.7738  -14.1330   18.7648 C   0  0  0  0  0  0  0  0  0  0  0  0
    8.7600  -13.3034   21.0723 C   0  0  0  0  0  0  0  0  0  0  0  0
    8.7556  -14.7088   21.6374 C   0  0  2  0  0  0  0  0  0  0  0  0
    7.5638  -15.4259   21.3455 N   0  0  0  0  0  0  0  0  0  0  0  0
    8.9764  -14.6072   23.0851 C   0  0  0  0  0  0  0  0  0  0  0  0
   10.0518  -14.0868   23.4878 O   0  0  0  0  0  0  0  0  0  0  0  0
    5.3127  -12.5846   26.2691 C   0  0  0  0  0  0  0  0  0  0  0  0
    6.6645  -13.0115   25.7277 C   0  0  1  0  0  0  0  0  0  0  0  0
    7.7136  -12.1206   26.3985 C   0  0  0  0  0  0  0  0  0  0  0  0
    6.9527  -14.4594   26.0641 C   0  0  0  0  0  0  0  0  0  0  0  0
    8.1867  -14.9689   25.4265 C   0  0  2  0  0  0  0  0  0  0  0  0
    8.0020  -15.0836   23.9917 N   0  0  0  0  0  0  0  0  0  0  0  0
    8.6884  -16.2521   25.9305 C   0  0  0  0  0  0  0  0  0  0  0  0
    8.7289  -16.4100   27.1801 O   0  0  0  0  0  0  0  0  0  0  0  0
    9.1278  -17.3204   25.1388 N   0  0  0  0  0  0  0  0  0  0  0  0
    9.6374  -18.5101   25.7765 C   0  0  1  0  0  0  0  0  0  0  0  0
    9.1255  -19.6849   24.9749 C   0  0  0  0  0  0  0  0  0  0  0  0
    7.6736  -19.5876   24.6960 C   0  0  0  0  0  0  0  0  0  0  0  0
    6.6984  -19.5335   25.6658 C   0  0  0  0  0  0  0  0  0  0  0  0
    5.5139  -19.4543   25.0352 N   0  0  0  0  0  0  0  0  0  0  0  0
    5.7424  -19.4586   23.6928 C   0  0  0  0  0  0  0  0  0  0  0  0
    7.0664  -19.5402   23.4727 N   0  0  0  0  0  0  0  0  0  0  0  0
   11.0951  -18.4628   25.9131 C   0  0  0  0  0  0  0  0  0  0  0  0
   11.7389  -17.5000   25.4226 O   0  0  0  0  0  0  0  0  0  0  0  0
   11.8061  -19.4492   26.5707 O   0  0  0  0  0  0  0  0  0  0  0  0
  2  4  1  0
  2  1  1  6
  3  2  1  0
  5  4  1  0
  5  6  1  1
  7  8  2  0
  7  5  1  0
 10  9  1  1
 10 12  1  0
 11 10  1  0
 13 12  1  1
 13 14  1  0
 14  7  1  0
 15 13  1  0
 15 17  1  0
 16 15  2  0
 18 17  1  0
 18 25  1  0
 18 19  1  6
 19 20  1  0
 20 21  2  0
 21 22  1  0
 23 22  1  0
 24 20  1  0
 24 23  2  0
 25 27  1  0
 26 25  2  0
M  END
$$$$
