LLH.pdb
     RDKit          3D

 27 27  0  0  1  0  0  0  0  0999 V2000
    7.2472  -19.0883   20.4637 C   0  0  0  0  0  0  0  0  0  0  0  0
    7.2670  -17.5650   20.3852 C   0  0  1  0  0  0  0  0  0  0  0  0
    5.9057  -17.0363   20.0267 C   0  0  0  0  0  0  0  0  0  0  0  0
    7.6570  -17.0607   21.7430 C   0  0  0  0  0  0  0  0  0  0  0  0
    7.7944  -15.5542   21.6655 C   0  0  2  0  0  0  0  0  0  0  0  0
    8.4793  -15.1136   20.5007 N   0  0  0  0  0  0  0  0  0  0  0  0
    8.4748  -15.1059   22.8866 C   0  0  0  0  0  0  0  0  0  0  0  0
    9.6560  -14.6768   22.7859 O   0  0  0  0  0  0  0  0  0  0  0  0
    5.7638  -12.3335   26.8374 C   0  0  0  0  0  0  0  0  0  0  0  0
    6.8352  -12.7919   25.8656 C   0  0  1  0  0  0  0  0  0  0  0  0
    7.9517  -11.7450   25.9085 C   0  0  0  0  0  0  0  0  0  0  0  0
    7.3988  -14.1373   26.2720 C   0  0  0  0  0  0  0  0  0  0  0  0
    8.4316  -14.6396   25.3395 C   0  0  2  0  0  0  0  0  0  0  0  0
    7.8124  -15.1590   24.1342 N   0  0  0  0  0  0  0  0  0  0  0  0
    9.3349  -15.6655   25.8723 C   0  0  0  0  0  0  0  0  0  0  0  0
    9.9995  -15.3762   26.9032 O   0  0  0  0  0  0  0  0  0  0  0  0
    9.5224  -16.9436   25.3312 N   0  0  0  0  0  0  0  0  0  0  0  0
   10.2953  -17.9157   26.0656 C   0  0  1  0  0  0  0  0  0  0  0  0
   11.7186  -17.8022   25.5697 C   0  0  0  0  0  0  0  0  0  0  0  0
   11.8001  -17.7758   24.0906 C   0  0  0  0  0  0  0  0  0  0  0  0
   11.3112  -18.7653   23.2680 C   0  0  0  0  0  0  0  0  0  0  0  0
   11.5706  -18.3947   22.0022 N   0  0  0  0  0  0  0  0  0  0  0  0
   12.2113  -17.1935   22.0304 C   0  0  0  0  0  0  0  0  0  0  0  0
   12.3577  -16.8036   23.3088 N   0  0  0  0  0  0  0  0  0  0  0  0
   10.1448  -17.7386   27.5120 C   0  0  0  0  0  0  0  0  0  0  0  0
    9.3465  -16.8746   27.9571 O   0  0  0  0  0  0  0  0  0  0  0  0
   10.8556  -18.4951   28.4249 O   0  0  0  0  0  0  0  0  0  0  0  0
  2  4  1  0
  2  1  1  1
  3  2  1  0
  5  4  1  0
  5  6  1  6
  7  8  2  0
  7  5  1  0
 10  9  1  1
 10 12  1  0
 11 10  1  0
 13 12  1  1
 13 14  1  0
 14  7  1  0
 15 13  1  0
 15 17  1  0
 16 15  2  0
 18 17  1  0
 18 25  1  0
 18 19  1  1
 19 20  1  0
 20 21  2  0
 21 22  1  0
 23 22  1  0
 24 20  1  0
 24 23  2  0
 25 27  1  0
 26 25  2  0
M  END
$$$$
