LLH.pdb
     RDKit          3D

 27 27  0  0  1  0  0  0  0  0999 V2000
    6.4995  -18.2511   19.0017 C   0  0  0  0  0  0  0  0  0  0  0  0
    7.0152  -16.8155   19.0000 C   0  0  1  0  0  0  0  0  0  0  0  0
    5.9130  -15.8580   18.6402 C   0  0  0  0  0  0  0  0  0  0  0  0
    7.4986  -16.5213   20.3892 C   0  0  0  0  0  0  0  0  0  0  0  0
    7.9165  -15.0664   20.4454 C   0  0  2  0  0  0  0  0  0  0  0  0
    8.9426  -14.7423   19.5171 N   0  0  0  0  0  0  0  0  0  0  0  0
    8.3316  -14.7754   21.8231 C   0  0  0  0  0  0  0  0  0  0  0  0
    9.5215  -15.0308   22.1524 O   0  0  0  0  0  0  0  0  0  0  0  0
    8.1571  -11.9168   26.4166 C   0  0  0  0  0  0  0  0  0  0  0  0
    7.0289  -12.9197   26.2619 C   0  0  1  0  0  0  0  0  0  0  0  0
    5.7944  -12.3063   26.9281 C   0  0  0  0  0  0  0  0  0  0  0  0
    6.7285  -13.1795   24.8007 C   0  0  0  0  0  0  0  0  0  0  0  0
    7.7990  -13.9348   24.1135 C   0  0  2  0  0  0  0  0  0  0  0  0
    7.4127  -14.2240   22.7449 N   0  0  0  0  0  0  0  0  0  0  0  0
    8.2112  -15.1903   24.7510 C   0  0  0  0  0  0  0  0  0  0  0  0
    7.3887  -16.1451   24.7401 O   0  0  0  0  0  0  0  0  0  0  0  0
    9.4449  -15.4191   25.3729 N   0  0  0  0  0  0  0  0  0  0  0  0
    9.8106  -16.7645   25.7442 C   0  0  1  0  0  0  0  0  0  0  0  0
   10.8404  -17.2270   24.7391 C   0  0  0  0  0  0  0  0  0  0  0  0
   11.3533  -18.5839   25.0408 C   0  0  0  0  0  0  0  0  0  0  0  0
   10.9658  -19.3371   26.1258 C   0  0  0  0  0  0  0  0  0  0  0  0
   11.6422  -20.4972   26.0667 N   0  0  0  0  0  0  0  0  0  0  0  0
   12.4402  -20.4721   24.9636 C   0  0  0  0  0  0  0  0  0  0  0  0
   12.2707  -19.3007   24.3255 N   0  0  0  0  0  0  0  0  0  0  0  0
   10.2551  -16.8340   27.1383 C   0  0  0  0  0  0  0  0  0  0  0  0
   10.3844  -15.7770   27.8076 O   0  0  0  0  0  0  0  0  0  0  0  0
   10.5432  -18.0341   27.7610 O   0  0  0  0  0  0  0  0  0  0  0  0
  2  4  1  0
  2  1  1  1
  3  2  1  0
  5  4  1  0
  5  6  1  6
  7  8  2  0
  7  5  1  0
 10  9  1  6
 10 12  1  0
 11 10  1  0
 13 12  1  1
 13 14  1  0
 14  7  1  0
 15 13  1  0
 15 17  1  0
 16 15  2  0
 18 17  1  0
 18 25  1  0
 18 19  1  6
 19 20  1  0
 20 21  2  0
 21 22  1  0
 23 22  1  0
 24 20  1  0
 24 23  2  0
 25 27  1  0
 26 25  2  0
M  END
$$$$
