LLH.pdb
     RDKit          3D

 27 27  0  0  1  0  0  0  0  0999 V2000
    7.0877  -12.7517   20.7916 C   0  0  0  0  0  0  0  0  0  0  0  0
    7.8705  -13.5645   19.7652 C   0  0  1  0  0  0  0  0  0  0  0  0
    8.4626  -12.6632   18.7172 C   0  0  0  0  0  0  0  0  0  0  0  0
    8.9734  -14.2609   20.5059 C   0  0  0  0  0  0  0  0  0  0  0  0
    8.3630  -15.3920   21.3074 C   0  0  2  0  0  0  0  0  0  0  0  0
    6.9469  -15.4520   21.2024 N   0  0  0  0  0  0  0  0  0  0  0  0
    8.7883  -15.2287   22.7030 C   0  0  0  0  0  0  0  0  0  0  0  0
   10.0143  -15.0463   22.9337 O   0  0  0  0  0  0  0  0  0  0  0  0
    5.6308  -12.5020   26.3436 C   0  0  0  0  0  0  0  0  0  0  0  0
    6.8235  -13.0249   25.5648 C   0  0  1  0  0  0  0  0  0  0  0  0
    8.0320  -12.1836   25.9844 C   0  0  0  0  0  0  0  0  0  0  0  0
    7.0917  -14.4788   25.8919 C   0  0  0  0  0  0  0  0  0  0  0  0
    8.2255  -15.0457   25.1290 C   0  0  2  0  0  0  0  0  0  0  0  0
    7.8393  -15.2768   23.7495 N   0  0  0  0  0  0  0  0  0  0  0  0
    8.8020  -16.2859   25.6601 C   0  0  0  0  0  0  0  0  0  0  0  0
    8.0228  -17.2610   25.8344 O   0  0  0  0  0  0  0  0  0  0  0  0
   10.1489  -16.4795   25.9911 N   0  0  0  0  0  0  0  0  0  0  0  0
   10.5678  -17.7486   26.5349 C   0  0  1  0  0  0  0  0  0  0  0  0
   11.9419  -18.0293   25.9714 C   0  0  0  0  0  0  0  0  0  0  0  0
   11.9311  -18.1550   24.4951 C   0  0  0  0  0  0  0  0  0  0  0  0
   10.8210  -18.4863   23.7519 C   0  0  0  0  0  0  0  0  0  0  0  0
   11.1974  -18.5068   22.4617 N   0  0  0  0  0  0  0  0  0  0  0  0
   12.5210  -18.1937   22.3967 C   0  0  0  0  0  0  0  0  0  0  0  0
   12.9824  -17.9755   23.6407 N   0  0  0  0  0  0  0  0  0  0  0  0
   10.5041  -17.7522   27.9984 C   0  0  0  0  0  0  0  0  0  0  0  0
   10.2679  -16.6830   28.6174 O   0  0  0  0  0  0  0  0  0  0  0  0
   10.6956  -18.9020   28.7416 O   0  0  0  0  0  0  0  0  0  0  0  0
  2  4  1  0
  2  1  1  1
  3  2  1  0
  5  4  1  0
  5  6  1  1
  7  8  2  0
  7  5  1  0
 10  9  1  1
 10 12  1  0
 11 10  1  0
 13 12  1  1
 13 14  1  0
 14  7  1  0
 15 13  1  0
 15 17  1  0
 16 15  2  0
 18 17  1  0
 18 25  1  0
 18 19  1  1
 19 20  1  0
 20 21  2  0
 21 22  1  0
 23 22  1  0
 24 20  1  0
 24 23  2  0
 25 27  1  0
 26 25  2  0
M  END
$$$$
