QRR.pdb
     RDKit          3D

 32 31  0  0  1  0  0  0  0  0999 V2000
   26.4432  -13.9243  -15.0550 N   0  0  0  0  0  0  0  0  0  0  0  0
   25.7920  -14.5529  -16.1341 C   0  0  0  0  0  0  0  0  0  0  0  0
   24.7778  -14.0037  -16.6459 O   0  0  0  0  0  0  0  0  0  0  0  0
   26.3234  -15.8429  -16.6333 C   0  0  0  0  0  0  0  0  0  0  0  0
   27.5279  -16.2964  -15.8647 C   0  0  0  0  0  0  0  0  0  0  0  0
   27.9367  -17.6658  -16.4286 C   0  0  2  0  0  0  0  0  0  0  0  0
   27.7310  -17.6908  -17.8632 N   0  0  0  0  0  0  0  0  0  0  0  0
   27.1204  -18.7345  -15.8177 C   0  0  0  0  0  0  0  0  0  0  0  0
   26.1265  -19.1754  -16.4298 O   0  0  0  0  0  0  0  0  0  0  0  0
   30.6718  -21.8575   -8.9237 N   0  0  0  0  0  0  0  0  0  0  0  0
   31.1403  -22.5325  -10.0749 C   0  0  0  0  0  0  0  0  0  0  0  0
   32.2279  -23.2216  -10.0540 N   0  0  0  0  0  0  0  0  0  0  0  0
   30.3995  -22.4496  -11.3289 N   0  0  0  0  0  0  0  0  0  0  0  0
   29.1178  -21.8329  -11.3232 C   0  0  0  0  0  0  0  0  0  0  0  0
   28.6035  -21.4009  -12.6414 C   0  0  0  0  0  0  0  0  0  0  0  0
   27.2731  -20.7571  -12.6158 C   0  0  0  0  0  0  0  0  0  0  0  0
   26.6985  -20.3170  -13.8927 C   0  0  2  0  0  0  0  0  0  0  0  0
   27.4573  -19.2615  -14.5415 N   0  0  0  0  0  0  0  0  0  0  0  0
   25.3309  -19.7354  -13.5655 C   0  0  0  0  0  0  0  0  0  0  0  0
   25.2354  -18.7501  -12.8315 O   0  0  0  0  0  0  0  0  0  0  0  0
   32.6343  -23.6805  -10.8922 N   0  0  0  0  0  0  0  0  0  0  0  0
   17.2586  -19.3533  -16.5214 C   0  0  0  0  0  0  0  0  0  0  0  0
   17.8877  -18.0770  -16.5587 N   0  0  0  0  0  0  0  0  0  0  0  0
   17.1613  -16.9932  -16.6323 N   0  0  0  0  0  0  0  0  0  0  0  0
   19.2913  -17.9128  -16.5148 C   0  0  0  0  0  0  0  0  0  0  0  0
   20.1791  -19.0158  -16.3890 C   0  0  0  0  0  0  0  0  0  0  0  0
   20.7297  -19.2566  -15.0151 C   0  0  0  0  0  0  0  0  0  0  0  0
   22.2001  -19.5916  -15.0937 C   0  0  1  0  0  0  0  0  0  0  0  0
   22.8408  -19.9449  -13.7964 N   0  0  0  0  0  0  0  0  0  0  0  0
   24.2145  -20.3633  -14.1289 C   0  0  0  0  0  0  0  0  0  0  0  0
   22.1249  -21.0893  -13.1617 O   0  0  0  0  0  0  0  0  0  0  0  0
   21.0841  -20.9387  -12.4886 O   0  0  0  0  0  0  0  0  0  0  0  0
  2  1  1  0
  3  2  2  0
  4  2  1  0
  5  4  1  0
  6  5  1  0
  6  7  1  6
  8  9  2  0
  8  6  1  0
 10 11  1  0
 11 12  2  0
 13 11  1  0
 14 13  1  0
 15 14  1  0
 15 16  1  0
 17 16  1  1
 17 18  1  0
 18  8  1  0
 19 20  2  0
 19 17  1  0
 21 22  1  0
 22 24  1  0
 23 22  2  0
 24 25  1  0
 26 27  1  0
 26 25  1  0
 28 29  1  0
 28 27  1  1
 29 19  1  0
 30 28  1  0
 31 30  2  0
 32 30  1  0
M  END
$$$$
