QRR.pdb
     RDKit          3D

 32 31  0  0  1  0  0  0  0  0999 V2000
   14.6840  -25.0118   -3.7413 N   0  0  0  0  0  0  0  0  0  0  0  0
   14.2480  -25.9913   -4.6547 C   0  0  0  0  0  0  0  0  0  0  0  0
   13.2533  -26.7093   -4.3597 O   0  0  0  0  0  0  0  0  0  0  0  0
   14.9757  -26.1446   -5.9364 C   0  0  0  0  0  0  0  0  0  0  0  0
   16.1190  -25.1826   -6.0588 C   0  0  0  0  0  0  0  0  0  0  0  0
   17.4106  -25.9809   -5.8245 C   0  0  2  0  0  0  0  0  0  0  0  0
   18.1131  -25.4564   -4.6702 N   0  0  0  0  0  0  0  0  0  0  0  0
   18.2966  -25.8766   -7.0018 C   0  0  0  0  0  0  0  0  0  0  0  0
   19.0035  -24.8594   -7.1514 O   0  0  0  0  0  0  0  0  0  0  0  0
   21.0835  -32.1873  -10.0195 N   0  0  0  0  0  0  0  0  0  0  0  0
   22.2125  -31.3479   -9.8743 C   0  0  0  0  0  0  0  0  0  0  0  0
   23.2690  -31.7437   -9.2536 N   0  0  0  0  0  0  0  0  0  0  0  0
   22.1982  -29.9948  -10.4192 N   0  0  0  0  0  0  0  0  0  0  0  0
   21.0518  -29.5640  -11.1425 C   0  0  0  0  0  0  0  0  0  0  0  0
   20.5339  -28.2231  -10.7926 C   0  0  0  0  0  0  0  0  0  0  0  0
   19.7072  -28.1692   -9.5683 C   0  0  0  0  0  0  0  0  0  0  0  0
   19.1756  -26.8650   -9.1554 C   0  0  2  0  0  0  0  0  0  0  0  0
   18.3484  -26.9227   -7.9625 N   0  0  0  0  0  0  0  0  0  0  0  0
   18.2765  -26.3941  -10.2893 C   0  0  0  0  0  0  0  0  0  0  0  0
   17.1473  -26.8692  -10.4235 O   0  0  0  0  0  0  0  0  0  0  0  0
   24.0838  -31.1309   -9.0561 N   0  0  0  0  0  0  0  0  0  0  0  0
   20.4903  -19.6858  -15.6577 C   0  0  0  0  0  0  0  0  0  0  0  0
   19.3532  -20.2610  -16.2919 N   0  0  0  0  0  0  0  0  0  0  0  0
   18.8746  -19.7260  -17.3838 N   0  0  0  0  0  0  0  0  0  0  0  0
   18.6989  -21.4117  -15.7952 C   0  0  0  0  0  0  0  0  0  0  0  0
   19.1043  -22.0538  -14.5935 C   0  0  0  0  0  0  0  0  0  0  0  0
   18.2778  -23.2322  -14.1727 C   0  0  0  0  0  0  0  0  0  0  0  0
   18.8291  -23.8282  -12.8994 C   0  0  1  0  0  0  0  0  0  0  0  0
   18.0270  -24.9415  -12.3204 N   0  0  0  0  0  0  0  0  0  0  0  0
   18.7873  -25.4167  -11.1505 C   0  0  0  0  0  0  0  0  0  0  0  0
   17.9040  -26.0555  -13.3047 O   0  0  0  0  0  0  0  0  0  0  0  0
   18.7158  -27.0030  -13.3497 O   0  0  0  0  0  0  0  0  0  0  0  0
  2  1  1  0
  3  2  2  0
  4  2  1  0
  5  4  1  0
  6  5  1  0
  6  7  1  1
  8  9  2  0
  8  6  1  0
 10 11  1  0
 11 12  2  0
 13 11  1  0
 14 13  1  0
 15 14  1  0
 15 16  1  0
 17 16  1  6
 17 18  1  0
 18  8  1  0
 19 20  2  0
 19 17  1  0
 21 22  1  0
 22 24  1  0
 23 22  2  0
 24 25  1  0
 26 27  1  0
 26 25  1  0
 28 29  1  0
 28 27  1  1
 29 19  1  0
 30 28  1  0
 31 30  2  0
 32 30  1  0
M  END
$$$$
