QRR.pdb
     RDKit          3D

 32 31  0  0  1  0  0  0  0  0999 V2000
   25.2664  -20.9864  -11.9560 N   0  0  0  0  0  0  0  0  0  0  0  0
   26.3854  -20.6559  -11.1671 C   0  0  0  0  0  0  0  0  0  0  0  0
   26.4288  -21.0430   -9.9670 O   0  0  0  0  0  0  0  0  0  0  0  0
   27.4778  -19.8621  -11.7771 C   0  0  0  0  0  0  0  0  0  0  0  0
   27.1421  -19.4067  -13.1653 C   0  0  0  0  0  0  0  0  0  0  0  0
   27.3864  -20.5975  -14.1048 C   0  0  2  0  0  0  0  0  0  0  0  0
   28.4915  -20.3051  -14.9960 N   0  0  0  0  0  0  0  0  0  0  0  0
   26.1826  -20.8613  -14.9192 C   0  0  0  0  0  0  0  0  0  0  0  0
   25.8942  -20.0918  -15.8579 O   0  0  0  0  0  0  0  0  0  0  0  0
   21.9716  -28.4410  -16.3377 N   0  0  0  0  0  0  0  0  0  0  0  0
   23.2662  -27.9013  -16.1556 C   0  0  0  0  0  0  0  0  0  0  0  0
   24.2912  -28.6594  -15.9750 N   0  0  0  0  0  0  0  0  0  0  0  0
   23.4674  -26.4565  -16.1546 N   0  0  0  0  0  0  0  0  0  0  0  0
   22.3268  -25.6100  -16.0798 C   0  0  0  0  0  0  0  0  0  0  0  0
   22.5987  -24.1561  -16.1096 C   0  0  0  0  0  0  0  0  0  0  0  0
   23.8286  -23.7329  -15.4073 C   0  0  0  0  0  0  0  0  0  0  0  0
   24.1694  -22.3054  -15.4189 C   0  0  2  0  0  0  0  0  0  0  0  0
   25.3529  -21.9813  -14.6411 N   0  0  0  0  0  0  0  0  0  0  0  0
   23.0020  -21.5842  -14.7610 C   0  0  0  0  0  0  0  0  0  0  0  0
   22.9041  -21.5547  -13.5328 O   0  0  0  0  0  0  0  0  0  0  0  0
   25.2539  -28.2995  -15.8259 N   0  0  0  0  0  0  0  0  0  0  0  0
   16.1776  -16.7298  -17.0400 C   0  0  0  0  0  0  0  0  0  0  0  0
   17.2501  -15.8196  -16.8227 N   0  0  0  0  0  0  0  0  0  0  0  0
   17.0006  -14.5523  -16.6239 N   0  0  0  0  0  0  0  0  0  0  0  0
   18.6054  -16.2221  -16.8052 C   0  0  0  0  0  0  0  0  0  0  0  0
   19.0017  -17.5589  -17.0820 C   0  0  0  0  0  0  0  0  0  0  0  0
   19.3345  -18.4012  -15.8868 C   0  0  0  0  0  0  0  0  0  0  0  0
   20.5509  -19.2503  -16.1693 C   0  0  1  0  0  0  0  0  0  0  0  0
   20.9504  -20.1726  -15.0702 N   0  0  0  0  0  0  0  0  0  0  0  0
   22.0685  -20.9711  -15.6039 C   0  0  0  0  0  0  0  0  0  0  0  0
   19.8221  -21.0858  -14.7266 O   0  0  0  0  0  0  0  0  0  0  0  0
   19.6484  -22.1816  -15.2992 O   0  0  0  0  0  0  0  0  0  0  0  0
  2  1  1  0
  3  2  2  0
  4  2  1  0
  5  4  1  0
  6  5  1  0
  6  7  1  6
  8  9  2  0
  8  6  1  0
 10 11  1  0
 11 12  2  0
 13 11  1  0
 14 13  1  0
 15 14  1  0
 15 16  1  0
 17 16  1  1
 17 18  1  0
 18  8  1  0
 19 20  2  0
 19 17  1  0
 21 22  1  0
 22 24  1  0
 23 22  2  0
 24 25  1  0
 26 27  1  0
 26 25  1  0
 28 29  1  0
 28 27  1  1
 29 19  1  0
 30 28  1  0
 31 30  2  0
 32 30  1  0
M  END
$$$$
