QRR.pdb
     RDKit          3D

 32 31  0  0  1  0  0  0  0  0999 V2000
   21.0310  -22.6725  -17.3173 N   0  0  0  0  0  0  0  0  0  0  0  0
   20.5985  -23.4416  -16.2195 C   0  0  0  0  0  0  0  0  0  0  0  0
   20.5636  -24.6986  -16.3236 O   0  0  0  0  0  0  0  0  0  0  0  0
   20.1983  -22.7445  -14.9747 C   0  0  0  0  0  0  0  0  0  0  0  0
   20.4236  -21.2646  -15.0550 C   0  0  0  0  0  0  0  0  0  0  0  0
   21.0955  -20.8361  -13.7415 C   0  0  2  0  0  0  0  0  0  0  0  0
   20.0877  -20.4479  -12.7747 N   0  0  0  0  0  0  0  0  0  0  0  0
   21.9898  -19.6842  -13.9769 C   0  0  0  0  0  0  0  0  0  0  0  0
   21.5927  -18.5323  -13.7086 O   0  0  0  0  0  0  0  0  0  0  0  0
   28.3216  -20.5032  -17.0887 N   0  0  0  0  0  0  0  0  0  0  0  0
   28.4105  -20.9569  -15.7521 C   0  0  0  0  0  0  0  0  0  0  0  0
   28.6428  -22.1930  -15.4759 N   0  0  0  0  0  0  0  0  0  0  0  0
   28.2248  -20.0253  -14.6450 N   0  0  0  0  0  0  0  0  0  0  0  0
   28.0093  -18.6508  -14.9405 C   0  0  0  0  0  0  0  0  0  0  0  0
   26.6181  -18.1692  -14.7933 C   0  0  0  0  0  0  0  0  0  0  0  0
   25.5726  -19.1806  -15.0559 C   0  0  0  0  0  0  0  0  0  0  0  0
   24.1713  -18.7816  -14.8792 C   0  0  2  0  0  0  0  0  0  0  0  0
   23.2945  -19.8783  -14.5060 N   0  0  0  0  0  0  0  0  0  0  0  0
   23.6965  -18.2838  -16.2365 C   0  0  0  0  0  0  0  0  0  0  0  0
   22.7384  -18.8223  -16.7941 O   0  0  0  0  0  0  0  0  0  0  0  0
   28.7562  -22.5550  -14.5092 N   0  0  0  0  0  0  0  0  0  0  0  0
   18.0748  -13.2804  -17.7161 C   0  0  0  0  0  0  0  0  0  0  0  0
   18.5930  -13.3742  -19.0385 N   0  0  0  0  0  0  0  0  0  0  0  0
   17.9123  -12.8878  -20.0423 N   0  0  0  0  0  0  0  0  0  0  0  0
   19.8379  -13.9763  -19.3329 C   0  0  0  0  0  0  0  0  0  0  0  0
   20.6436  -14.5792  -18.3289 C   0  0  0  0  0  0  0  0  0  0  0  0
   21.9582  -15.1321  -18.7924 C   0  0  0  0  0  0  0  0  0  0  0  0
   22.6093  -15.9269  -17.6857 C   0  0  1  0  0  0  0  0  0  0  0  0
   23.9176  -16.5473  -18.0347 N   0  0  0  0  0  0  0  0  0  0  0  0
   24.3884  -17.2082  -16.8042 C   0  0  0  0  0  0  0  0  0  0  0  0
   24.8996  -15.4953  -18.4270 O   0  0  0  0  0  0  0  0  0  0  0  0
   25.5122  -14.8035  -17.5874 O   0  0  0  0  0  0  0  0  0  0  0  0
  2  1  1  0
  3  2  2  0
  4  2  1  0
  5  4  1  0
  6  5  1  0
  6  7  1  1
  8  9  2  0
  8  6  1  0
 10 11  1  0
 11 12  2  0
 13 11  1  0
 14 13  1  0
 15 14  1  0
 15 16  1  0
 17 16  1  6
 17 18  1  0
 18  8  1  0
 19 20  2  0
 19 17  1  0
 21 22  1  0
 22 24  1  0
 23 22  2  0
 24 25  1  0
 26 27  1  0
 26 25  1  0
 28 29  1  0
 28 27  1  6
 29 19  1  0
 30 28  1  0
 31 30  2  0
 32 30  1  0
M  END
$$$$
