QRR.pdb
     RDKit          3D

 32 31  0  0  1  0  0  0  0  0999 V2000
   21.7884   -6.0970  -12.5082 N   0  0  0  0  0  0  0  0  0  0  0  0
   22.1846   -5.8531  -13.8376 C   0  0  0  0  0  0  0  0  0  0  0  0
   22.1164   -4.6792  -14.2951 O   0  0  0  0  0  0  0  0  0  0  0  0
   22.6704   -6.9888  -14.6560 C   0  0  0  0  0  0  0  0  0  0  0  0
   22.6277   -8.2871  -13.9078 C   0  0  0  0  0  0  0  0  0  0  0  0
   22.1781   -9.3689  -14.9017 C   0  0  2  0  0  0  0  0  0  0  0  0
   23.0523   -9.3718  -16.0579 N   0  0  0  0  0  0  0  0  0  0  0  0
   20.7980   -9.1034  -15.3564 C   0  0  0  0  0  0  0  0  0  0  0  0
   20.6053   -8.6361  -16.4971 O   0  0  0  0  0  0  0  0  0  0  0  0
   13.1149  -12.6617  -12.6339 N   0  0  0  0  0  0  0  0  0  0  0  0
   12.6926  -11.5781  -13.4388 C   0  0  0  0  0  0  0  0  0  0  0  0
   11.4539  -11.2323  -13.5045 N   0  0  0  0  0  0  0  0  0  0  0  0
   13.6613  -10.8293  -14.2318 N   0  0  0  0  0  0  0  0  0  0  0  0
   15.0220  -10.8242  -13.8175 C   0  0  0  0  0  0  0  0  0  0  0  0
   15.9378   -9.9831  -14.6193 C   0  0  0  0  0  0  0  0  0  0  0  0
   17.3669  -10.0890  -14.2565 C   0  0  0  0  0  0  0  0  0  0  0  0
   18.3111   -9.1760  -14.9115 C   0  0  2  0  0  0  0  0  0  0  0  0
   19.6920   -9.3745  -14.5060 N   0  0  0  0  0  0  0  0  0  0  0  0
   17.9222   -7.7729  -14.4690 C   0  0  0  0  0  0  0  0  0  0  0  0
   18.1568   -7.3981  -13.3186 O   0  0  0  0  0  0  0  0  0  0  0  0
   11.1040  -10.4566  -14.0997 N   0  0  0  0  0  0  0  0  0  0  0  0
   15.5378   -1.5137  -20.2473 C   0  0  0  0  0  0  0  0  0  0  0  0
   15.2686   -0.9136  -18.9849 N   0  0  0  0  0  0  0  0  0  0  0  0
   14.7879    0.3002  -18.9285 N   0  0  0  0  0  0  0  0  0  0  0  0
   15.4943   -1.5773  -17.7570 C   0  0  0  0  0  0  0  0  0  0  0  0
   15.9172   -2.9330  -17.6958 C   0  0  0  0  0  0  0  0  0  0  0  0
   16.1376   -3.4860  -16.3194 C   0  0  0  0  0  0  0  0  0  0  0  0
   16.5771   -4.9284  -16.4008 C   0  0  2  0  0  0  0  0  0  0  0  0
   16.8996   -5.5684  -15.0952 N   0  0  0  0  0  0  0  0  0  0  0  0
   17.2994   -6.9507  -15.4145 C   0  0  0  0  0  0  0  0  0  0  0  0
   15.6893   -5.6020  -14.2238 O   0  0  0  0  0  0  0  0  0  0  0  0
   14.7997   -6.4696  -14.3453 O   0  0  0  0  0  0  0  0  0  0  0  0
  2  1  1  0
  3  2  2  0
  4  2  1  0
  5  4  1  0
  6  5  1  0
  6  7  1  6
  8  9  2  0
  8  6  1  0
 10 11  1  0
 11 12  2  0
 13 11  1  0
 14 13  1  0
 15 14  1  0
 15 16  1  0
 17 16  1  1
 17 18  1  0
 18  8  1  0
 19 20  2  0
 19 17  1  0
 21 22  1  0
 22 24  1  0
 23 22  2  0
 24 25  1  0
 26 27  1  0
 26 25  1  0
 28 29  1  0
 28 27  1  6
 29 19  1  0
 30 28  1  0
 31 30  2  0
 32 30  1  0
M  END
$$$$
