QRR.pdb
     RDKit          3D

 32 31  0  0  1  0  0  0  0  0999 V2000
   21.4600  -18.7749  -10.6360 N   0  0  0  0  0  0  0  0  0  0  0  0
   21.1277  -20.0127  -10.0515 C   0  0  0  0  0  0  0  0  0  0  0  0
   19.9126  -20.3091   -9.8857 O   0  0  0  0  0  0  0  0  0  0  0  0
   22.2220  -20.9278   -9.6506 C   0  0  0  0  0  0  0  0  0  0  0  0
   23.5758  -20.3152   -9.8483 C   0  0  0  0  0  0  0  0  0  0  0  0
   23.9442  -20.4968  -11.3287 C   0  0  2  0  0  0  0  0  0  0  0  0
   23.7391  -21.8764  -11.7232 N   0  0  0  0  0  0  0  0  0  0  0  0
   25.3633  -20.1508  -11.5484 C   0  0  0  0  0  0  0  0  0  0  0  0
   25.7971  -19.0508  -11.1503 O   0  0  0  0  0  0  0  0  0  0  0  0
   32.5293  -21.9155   -9.5760 N   0  0  0  0  0  0  0  0  0  0  0  0
   32.4693  -22.3892  -10.9073 C   0  0  0  0  0  0  0  0  0  0  0  0
   32.9357  -23.5449  -11.2312 N   0  0  0  0  0  0  0  0  0  0  0  0
   31.8830  -21.5625  -11.9566 N   0  0  0  0  0  0  0  0  0  0  0  0
   30.7454  -20.7686  -11.6424 C   0  0  0  0  0  0  0  0  0  0  0  0
   29.5096  -21.5128  -11.3144 C   0  0  0  0  0  0  0  0  0  0  0  0
   28.5788  -21.7135  -12.4451 C   0  0  0  0  0  0  0  0  0  0  0  0
   27.5568  -20.6875  -12.6837 C   0  0  2  0  0  0  0  0  0  0  0  0
   26.2348  -21.0587  -12.2090 N   0  0  0  0  0  0  0  0  0  0  0  0
   27.4526  -20.5342  -14.1941 C   0  0  0  0  0  0  0  0  0  0  0  0
   27.3678  -21.5308  -14.9142 O   0  0  0  0  0  0  0  0  0  0  0  0
   32.9895  -23.8901  -12.2092 N   0  0  0  0  0  0  0  0  0  0  0  0
   22.1793  -17.4012  -17.1433 C   0  0  0  0  0  0  0  0  0  0  0  0
   22.5945  -16.7899  -18.3599 N   0  0  0  0  0  0  0  0  0  0  0  0
   21.7582  -16.6907  -19.3591 N   0  0  0  0  0  0  0  0  0  0  0  0
   23.8942  -16.2667  -18.5502 C   0  0  0  0  0  0  0  0  0  0  0  0
   24.8787  -16.2935  -17.5251 C   0  0  0  0  0  0  0  0  0  0  0  0
   25.8655  -17.4203  -17.5979 C   0  0  0  0  0  0  0  0  0  0  0  0
   26.1903  -17.9198  -16.2103 C   0  0  1  0  0  0  0  0  0  0  0  0
   27.2463  -18.9680  -16.1440 N   0  0  0  0  0  0  0  0  0  0  0  0
   27.4578  -19.2334  -14.7096 C   0  0  0  0  0  0  0  0  0  0  0  0
   28.5172  -18.4588  -16.7360 O   0  0  0  0  0  0  0  0  0  0  0  0
   29.1830  -17.5436  -16.2087 O   0  0  0  0  0  0  0  0  0  0  0  0
  2  1  1  0
  3  2  2  0
  4  2  1  0
  5  4  1  0
  6  5  1  0
  6  7  1  1
  8  9  2  0
  8  6  1  0
 10 11  1  0
 11 12  2  0
 13 11  1  0
 14 13  1  0
 15 14  1  0
 15 16  1  0
 17 16  1  6
 17 18  1  0
 18  8  1  0
 19 20  2  0
 19 17  1  0
 21 22  1  0
 22 24  1  0
 23 22  2  0
 24 25  1  0
 26 27  1  0
 26 25  1  0
 28 29  1  0
 28 27  1  6
 29 19  1  0
 30 28  1  0
 31 30  2  0
 32 30  1  0
M  END
$$$$
