QRR.pdb
     RDKit          3D

 32 31  0  0  1  0  0  0  0  0999 V2000
   20.9187  -22.1871  -12.8000 N   0  0  0  0  0  0  0  0  0  0  0  0
   20.2603  -21.9523  -11.5771 C   0  0  0  0  0  0  0  0  0  0  0  0
   19.3221  -22.7193  -11.2255 O   0  0  0  0  0  0  0  0  0  0  0  0
   20.6949  -20.8079  -10.7422 C   0  0  0  0  0  0  0  0  0  0  0  0
   21.8041  -20.0277  -11.3812 C   0  0  0  0  0  0  0  0  0  0  0  0
   23.1235  -20.7092  -10.9875 C   0  0  2  0  0  0  0  0  0  0  0  0
   23.4115  -20.4578   -9.5893 N   0  0  0  0  0  0  0  0  0  0  0  0
   24.2361  -20.1768  -11.8001 C   0  0  0  0  0  0  0  0  0  0  0  0
   24.2846  -18.9557  -12.0518 O   0  0  0  0  0  0  0  0  0  0  0  0
   31.1261  -20.4935  -10.5187 N   0  0  0  0  0  0  0  0  0  0  0  0
   30.9961  -21.9004  -10.5840 C   0  0  0  0  0  0  0  0  0  0  0  0
   31.4764  -22.6633   -9.6645 N   0  0  0  0  0  0  0  0  0  0  0  0
   30.3189  -22.5249  -11.7151 N   0  0  0  0  0  0  0  0  0  0  0  0
   29.8267  -21.6926  -12.7583 C   0  0  0  0  0  0  0  0  0  0  0  0
   28.5349  -21.0217  -12.4937 C   0  0  0  0  0  0  0  0  0  0  0  0
   27.4137  -21.4574  -13.3528 C   0  0  0  0  0  0  0  0  0  0  0  0
   26.1846  -20.6555  -13.3371 C   0  0  2  0  0  0  0  0  0  0  0  0
   25.2479  -21.0429  -12.2963 N   0  0  0  0  0  0  0  0  0  0  0  0
   25.4920  -20.9126  -14.6674 C   0  0  0  0  0  0  0  0  0  0  0  0
   24.4243  -21.5273  -14.7021 O   0  0  0  0  0  0  0  0  0  0  0  0
   31.4204  -23.6999   -9.6897 N   0  0  0  0  0  0  0  0  0  0  0  0
   20.3310  -15.9711  -17.9285 C   0  0  0  0  0  0  0  0  0  0  0  0
   20.5282  -17.0479  -17.0187 N   0  0  0  0  0  0  0  0  0  0  0  0
   19.5337  -17.4735  -16.2856 N   0  0  0  0  0  0  0  0  0  0  0  0
   21.7719  -17.7024  -16.8638 C   0  0  0  0  0  0  0  0  0  0  0  0
   22.9603  -17.2259  -17.4814 C   0  0  0  0  0  0  0  0  0  0  0  0
   23.9307  -18.2784  -17.9276 C   0  0  0  0  0  0  0  0  0  0  0  0
   24.3974  -19.0929  -16.7447 C   0  0  1  0  0  0  0  0  0  0  0  0
   25.3632  -20.1807  -17.0644 N   0  0  0  0  0  0  0  0  0  0  0  0
   26.1163  -20.4259  -15.8212 C   0  0  0  0  0  0  0  0  0  0  0  0
   26.3110  -19.7341  -18.1261 O   0  0  0  0  0  0  0  0  0  0  0  0
   27.2813  -18.9856  -17.8870 O   0  0  0  0  0  0  0  0  0  0  0  0
  2  1  1  0
  3  2  2  0
  4  2  1  0
  5  4  1  0
  6  5  1  0
  6  7  1  1
  8  9  2  0
  8  6  1  0
 10 11  1  0
 11 12  2  0
 13 11  1  0
 14 13  1  0
 15 14  1  0
 15 16  1  0
 17 16  1  6
 17 18  1  0
 18  8  1  0
 19 20  2  0
 19 17  1  0
 21 22  1  0
 22 24  1  0
 23 22  2  0
 24 25  1  0
 26 27  1  0
 26 25  1  0
 28 29  1  0
 28 27  1  1
 29 19  1  0
 30 28  1  0
 31 30  2  0
 32 30  1  0
M  END
$$$$
