QRR.pdb
     RDKit          3D

 32 31  0  0  1  0  0  0  0  0999 V2000
   23.8770  -25.5600  -14.8847 N   0  0  0  0  0  0  0  0  0  0  0  0
   24.3794  -25.5492  -16.2005 C   0  0  0  0  0  0  0  0  0  0  0  0
   24.0817  -26.4946  -16.9812 O   0  0  0  0  0  0  0  0  0  0  0  0
   25.2433  -24.4223  -16.6240 C   0  0  0  0  0  0  0  0  0  0  0  0
   25.4813  -23.4415  -15.5155 C   0  0  0  0  0  0  0  0  0  0  0  0
   25.2241  -22.0391  -16.0877 C   0  0  2  0  0  0  0  0  0  0  0  0
   26.4558  -21.2749  -16.0953 N   0  0  0  0  0  0  0  0  0  0  0  0
   24.2318  -21.3234  -15.2601 C   0  0  0  0  0  0  0  0  0  0  0  0
   24.4299  -21.1960  -14.0348 O   0  0  0  0  0  0  0  0  0  0  0  0
   23.7381  -15.8383  -18.0970 N   0  0  0  0  0  0  0  0  0  0  0  0
   22.8064  -16.4025  -18.9991 C   0  0  0  0  0  0  0  0  0  0  0  0
   23.0552  -16.4824  -20.2600 N   0  0  0  0  0  0  0  0  0  0  0  0
   21.5226  -16.8992  -18.5160 N   0  0  0  0  0  0  0  0  0  0  0  0
   21.3350  -17.0510  -17.1142 C   0  0  0  0  0  0  0  0  0  0  0  0
   22.0898  -18.1526  -16.4775 C   0  0  0  0  0  0  0  0  0  0  0  0
   21.2691  -19.1183  -15.7166 C   0  0  0  0  0  0  0  0  0  0  0  0
   21.9554  -20.2420  -15.0683 C   0  0  2  0  0  0  0  0  0  0  0  0
   23.0564  -20.7818  -15.8476 N   0  0  0  0  0  0  0  0  0  0  0  0
   20.9238  -21.3533  -14.9398 C   0  0  0  0  0  0  0  0  0  0  0  0
   20.7089  -22.1125  -15.8866 O   0  0  0  0  0  0  0  0  0  0  0  0
   22.4007  -16.8990  -20.9503 N   0  0  0  0  0  0  0  0  0  0  0  0
   16.0339  -25.2975  -10.5096 C   0  0  0  0  0  0  0  0  0  0  0  0
   17.0208  -26.1921  -10.0077 N   0  0  0  0  0  0  0  0  0  0  0  0
   16.6845  -27.4056   -9.6586 N   0  0  0  0  0  0  0  0  0  0  0  0
   18.3808  -25.8322   -9.8667 C   0  0  0  0  0  0  0  0  0  0  0  0
   18.8788  -24.5718  -10.2955 C   0  0  0  0  0  0  0  0  0  0  0  0
   18.7209  -24.2707  -11.7561 C   0  0  0  0  0  0  0  0  0  0  0  0
   19.4377  -22.9881  -12.1048 C   0  0  2  0  0  0  0  0  0  0  0  0
   19.2212  -22.4975  -13.4943 N   0  0  0  0  0  0  0  0  0  0  0  0
   20.2487  -21.4650  -13.7193 C   0  0  0  0  0  0  0  0  0  0  0  0
   17.8715  -21.8744  -13.6175 O   0  0  0  0  0  0  0  0  0  0  0  0
   17.6582  -20.6764  -13.3376 O   0  0  0  0  0  0  0  0  0  0  0  0
  2  1  1  0
  3  2  2  0
  4  2  1  0
  5  4  1  0
  6  5  1  0
  6  7  1  1
  8  9  2  0
  8  6  1  0
 10 11  1  0
 11 12  2  0
 13 11  1  0
 14 13  1  0
 15 14  1  0
 15 16  1  0
 17 16  1  6
 17 18  1  0
 18  8  1  0
 19 20  2  0
 19 17  1  0
 21 22  1  0
 22 24  1  0
 23 22  2  0
 24 25  1  0
 26 27  1  0
 26 25  1  0
 28 29  1  0
 28 27  1  6
 29 19  1  0
 30 28  1  0
 31 30  2  0
 32 30  1  0
M  END
$$$$
