QRR.pdb
     RDKit          3D

 32 31  0  0  1  0  0  0  0  0999 V2000
   23.2011  -16.8987  -21.5219 N   0  0  0  0  0  0  0  0  0  0  0  0
   24.5888  -17.1257  -21.4402 C   0  0  0  0  0  0  0  0  0  0  0  0
   25.3782  -16.1433  -21.5013 O   0  0  0  0  0  0  0  0  0  0  0  0
   25.0752  -18.5166  -21.2841 C   0  0  0  0  0  0  0  0  0  0  0  0
   25.6949  -18.7540  -19.9399 C   0  0  0  0  0  0  0  0  0  0  0  0
   26.2713  -20.1781  -19.9512 C   0  0  2  0  0  0  0  0  0  0  0  0
   27.1778  -20.3354  -21.0713 N   0  0  0  0  0  0  0  0  0  0  0  0
   25.1837  -21.1687  -20.0837 C   0  0  0  0  0  0  0  0  0  0  0  0
   24.7838  -21.4950  -21.2196 O   0  0  0  0  0  0  0  0  0  0  0  0
   28.5885  -26.4279  -16.6110 N   0  0  0  0  0  0  0  0  0  0  0  0
   27.4524  -26.4082  -17.4533 C   0  0  0  0  0  0  0  0  0  0  0  0
   27.5379  -26.7014  -18.7042 N   0  0  0  0  0  0  0  0  0  0  0  0
   26.1467  -26.0375  -16.9187 N   0  0  0  0  0  0  0  0  0  0  0  0
   25.0238  -26.0539  -17.7916 C   0  0  0  0  0  0  0  0  0  0  0  0
   24.8419  -24.8501  -18.6322 C   0  0  0  0  0  0  0  0  0  0  0  0
   23.7715  -23.9315  -18.1900 C   0  0  0  0  0  0  0  0  0  0  0  0
   23.5209  -22.7306  -18.9957 C   0  0  2  0  0  0  0  0  0  0  0  0
   24.5907  -21.7498  -18.9301 N   0  0  0  0  0  0  0  0  0  0  0  0
   22.2849  -22.0706  -18.4021 C   0  0  0  0  0  0  0  0  0  0  0  0
   22.3873  -21.3302  -17.4222 O   0  0  0  0  0  0  0  0  0  0  0  0
   26.7284  -26.6887  -19.3546 N   0  0  0  0  0  0  0  0  0  0  0  0
   19.4933  -17.7223  -22.8858 C   0  0  0  0  0  0  0  0  0  0  0  0
   20.6057  -18.6058  -22.7950 N   0  0  0  0  0  0  0  0  0  0  0  0
   21.7931  -18.1997  -23.1596 N   0  0  0  0  0  0  0  0  0  0  0  0
   20.4947  -19.9312  -22.3156 C   0  0  0  0  0  0  0  0  0  0  0  0
   19.2637  -20.4665  -21.8478 C   0  0  0  0  0  0  0  0  0  0  0  0
   18.9850  -20.2803  -20.3861 C   0  0  0  0  0  0  0  0  0  0  0  0
   18.9111  -21.6205  -19.6942 C   0  0  2  0  0  0  0  0  0  0  0  0
   19.7955  -21.7707  -18.5053 N   0  0  0  0  0  0  0  0  0  0  0  0
   21.0557  -22.3422  -19.0130 C   0  0  0  0  0  0  0  0  0  0  0  0
   19.1901  -22.7214  -17.5282 O   0  0  0  0  0  0  0  0  0  0  0  0
   19.3729  -23.9549  -17.5917 O   0  0  0  0  0  0  0  0  0  0  0  0
  2  1  1  0
  3  2  2  0
  4  2  1  0
  5  4  1  0
  6  5  1  0
  6  7  1  6
  8  9  2  0
  8  6  1  0
 10 11  1  0
 11 12  2  0
 13 11  1  0
 14 13  1  0
 15 14  1  0
 15 16  1  0
 17 16  1  1
 17 18  1  0
 18  8  1  0
 19 20  2  0
 19 17  1  0
 21 22  1  0
 22 24  1  0
 23 22  2  0
 24 25  1  0
 26 27  1  0
 26 25  1  0
 28 29  1  0
 28 27  1  6
 29 19  1  0
 30 28  1  0
 31 30  2  0
 32 30  1  0
M  END
$$$$
