QRR.pdb
     RDKit          3D

 32 31  0  0  1  0  0  0  0  0999 V2000
   16.5526  -24.8424   -5.7639 N   0  0  0  0  0  0  0  0  0  0  0  0
   17.8772  -25.3146   -5.8429 C   0  0  0  0  0  0  0  0  0  0  0  0
   18.4496  -25.7215   -4.7947 O   0  0  0  0  0  0  0  0  0  0  0  0
   18.5551  -25.3175   -7.1606 C   0  0  0  0  0  0  0  0  0  0  0  0
   17.7167  -24.6879   -8.2319 C   0  0  0  0  0  0  0  0  0  0  0  0
   17.9700  -25.4744   -9.5271 C   0  0  2  0  0  0  0  0  0  0  0  0
   18.4992  -26.7868   -9.2128 N   0  0  0  0  0  0  0  0  0  0  0  0
   18.9490  -24.7630  -10.3740 C   0  0  0  0  0  0  0  0  0  0  0  0
   20.1486  -25.1050  -10.3474 O   0  0  0  0  0  0  0  0  0  0  0  0
   17.3031  -21.5711  -17.2959 N   0  0  0  0  0  0  0  0  0  0  0  0
   16.6456  -21.0812  -16.1435 C   0  0  0  0  0  0  0  0  0  0  0  0
   15.3641  -20.9630  -16.0999 N   0  0  0  0  0  0  0  0  0  0  0  0
   17.4160  -20.6815  -14.9710 N   0  0  0  0  0  0  0  0  0  0  0  0
   18.8340  -20.6349  -15.0712 C   0  0  0  0  0  0  0  0  0  0  0  0
   19.5801  -21.3369  -14.0038 C   0  0  0  0  0  0  0  0  0  0  0  0
   18.7799  -22.2808  -13.1951 C   0  0  0  0  0  0  0  0  0  0  0  0
   19.4468  -22.9697  -12.0840 C   0  0  2  0  0  0  0  0  0  0  0  0
   18.5356  -23.6946  -11.2152 N   0  0  0  0  0  0  0  0  0  0  0  0
   20.0902  -21.8831  -11.2349 C   0  0  0  0  0  0  0  0  0  0  0  0
   19.3999  -20.9843  -10.7507 O   0  0  0  0  0  0  0  0  0  0  0  0
   14.8474  -20.6014  -15.2749 N   0  0  0  0  0  0  0  0  0  0  0  0
   25.3002  -22.3724  -14.1105 C   0  0  0  0  0  0  0  0  0  0  0  0
   26.4319  -21.5804  -13.7670 N   0  0  0  0  0  0  0  0  0  0  0  0
   27.2565  -21.1814  -14.6989 N   0  0  0  0  0  0  0  0  0  0  0  0
   26.7180  -21.1876  -12.4392 C   0  0  0  0  0  0  0  0  0  0  0  0
   25.8454  -21.4848  -11.3571 C   0  0  0  0  0  0  0  0  0  0  0  0
   24.4426  -20.9717  -11.4906 C   0  0  0  0  0  0  0  0  0  0  0  0
   23.6290  -21.3559  -10.2779 C   0  0  1  0  0  0  0  0  0  0  0  0
   22.2074  -20.9123  -10.3007 N   0  0  0  0  0  0  0  0  0  0  0  0
   21.4735  -21.9568  -11.0375 C   0  0  0  0  0  0  0  0  0  0  0  0
   22.0814  -19.6203  -11.0355 O   0  0  0  0  0  0  0  0  0  0  0  0
   22.0493  -19.5584  -12.2821 O   0  0  0  0  0  0  0  0  0  0  0  0
  2  1  1  0
  3  2  2  0
  4  2  1  0
  5  4  1  0
  6  5  1  0
  6  7  1  1
  8  9  2  0
  8  6  1  0
 10 11  1  0
 11 12  2  0
 13 11  1  0
 14 13  1  0
 15 14  1  0
 15 16  1  0
 17 16  1  6
 17 18  1  0
 18  8  1  0
 19 20  2  0
 19 17  1  0
 21 22  1  0
 22 24  1  0
 23 22  2  0
 24 25  1  0
 26 27  1  0
 26 25  1  0
 28 29  1  0
 28 27  1  1
 29 19  1  0
 30 28  1  0
 31 30  2  0
 32 30  1  0
M  END
$$$$
