QRR.pdb
     RDKit          3D

 32 31  0  0  1  0  0  0  0  0999 V2000
   29.6736  -22.3032   -9.6893 N   0  0  0  0  0  0  0  0  0  0  0  0
   30.3376  -21.6249  -10.7299 C   0  0  0  0  0  0  0  0  0  0  0  0
   31.5562  -21.8706  -10.9461 O   0  0  0  0  0  0  0  0  0  0  0  0
   29.5783  -20.6424  -11.5385 C   0  0  0  0  0  0  0  0  0  0  0  0
   28.1422  -20.5501  -11.1183 C   0  0  0  0  0  0  0  0  0  0  0  0
   27.2913  -21.0369  -12.3011 C   0  0  2  0  0  0  0  0  0  0  0  0
   27.9673  -20.7445  -13.5496 N   0  0  0  0  0  0  0  0  0  0  0  0
   25.9818  -20.3535  -12.3041 C   0  0  0  0  0  0  0  0  0  0  0  0
   25.9373  -19.1087  -12.2319 O   0  0  0  0  0  0  0  0  0  0  0  0
   20.2807  -17.5733  -17.2504 N   0  0  0  0  0  0  0  0  0  0  0  0
   21.5974  -17.0610  -17.1843 C   0  0  0  0  0  0  0  0  0  0  0  0
   21.8934  -15.9041  -17.6661 N   0  0  0  0  0  0  0  0  0  0  0  0
   22.6633  -17.8479  -16.5739 N   0  0  0  0  0  0  0  0  0  0  0  0
   22.4230  -19.2227  -16.2991 C   0  0  0  0  0  0  0  0  0  0  0  0
   22.3229  -19.5872  -14.8687 C   0  0  0  0  0  0  0  0  0  0  0  0
   23.5726  -20.0903  -14.2602 C   0  0  0  0  0  0  0  0  0  0  0  0
   23.5241  -20.5395  -12.8638 C   0  0  2  0  0  0  0  0  0  0  0  0
   24.7762  -21.1016  -12.3874 N   0  0  0  0  0  0  0  0  0  0  0  0
   22.4941  -21.6585  -12.8127 C   0  0  0  0  0  0  0  0  0  0  0  0
   22.5834  -22.6190  -13.5798 O   0  0  0  0  0  0  0  0  0  0  0  0
   22.8535  -15.5083  -17.6633 N   0  0  0  0  0  0  0  0  0  0  0  0
   18.8270  -25.1996   -7.5504 C   0  0  0  0  0  0  0  0  0  0  0  0
   17.7102  -24.3512   -7.3074 N   0  0  0  0  0  0  0  0  0  0  0  0
   16.6833  -24.8004   -6.6356 N   0  0  0  0  0  0  0  0  0  0  0  0
   17.6511  -23.0133   -7.7607 C   0  0  0  0  0  0  0  0  0  0  0  0
   17.6534  -22.6814   -9.1430 C   0  0  0  0  0  0  0  0  0  0  0  0
   18.7543  -23.2914   -9.9583 C   0  0  0  0  0  0  0  0  0  0  0  0
   19.6617  -22.2126  -10.4998 C   0  0  2  0  0  0  0  0  0  0  0  0
   20.4364  -22.5860  -11.7158 N   0  0  0  0  0  0  0  0  0  0  0  0
   21.4655  -21.5423  -11.8712 C   0  0  0  0  0  0  0  0  0  0  0  0
   19.5502  -22.5766  -12.9157 O   0  0  0  0  0  0  0  0  0  0  0  0
   19.3884  -21.5596  -13.6216 O   0  0  0  0  0  0  0  0  0  0  0  0
  2  1  1  0
  3  2  2  0
  4  2  1  0
  5  4  1  0
  6  5  1  0
  6  7  1  6
  8  9  2  0
  8  6  1  0
 10 11  1  0
 11 12  2  0
 13 11  1  0
 14 13  1  0
 15 14  1  0
 15 16  1  0
 17 16  1  6
 17 18  1  0
 18  8  1  0
 19 20  2  0
 19 17  1  0
 21 22  1  0
 22 24  1  0
 23 22  2  0
 24 25  1  0
 26 27  1  0
 26 25  1  0
 28 29  1  0
 28 27  1  1
 29 19  1  0
 30 28  1  0
 31 30  2  0
 32 30  1  0
M  END
$$$$
