QRR.pdb
     RDKit          3D

 32 31  0  0  1  0  0  0  0  0999 V2000
   28.5369  -27.9970  -15.6733 N   0  0  0  0  0  0  0  0  0  0  0  0
   28.4744  -27.6509  -17.0372 C   0  0  0  0  0  0  0  0  0  0  0  0
   29.0966  -28.3540  -17.8802 O   0  0  0  0  0  0  0  0  0  0  0  0
   27.6760  -26.4682  -17.4363 C   0  0  0  0  0  0  0  0  0  0  0  0
   27.0240  -25.8009  -16.2629 C   0  0  0  0  0  0  0  0  0  0  0  0
   25.7248  -25.1574  -16.7711 C   0  0  2  0  0  0  0  0  0  0  0  0
   25.9040  -24.6905  -18.1316 N   0  0  0  0  0  0  0  0  0  0  0  0
   25.3594  -24.0049  -15.9226 C   0  0  0  0  0  0  0  0  0  0  0  0
   25.1538  -24.1785  -14.7043 O   0  0  0  0  0  0  0  0  0  0  0  0
   27.8900  -17.3972  -16.2583 N   0  0  0  0  0  0  0  0  0  0  0  0
   26.8476  -16.4976  -15.9349 C   0  0  0  0  0  0  0  0  0  0  0  0
   26.9829  -15.2270  -16.0935 N   0  0  0  0  0  0  0  0  0  0  0  0
   25.5870  -16.9957  -15.3954 N   0  0  0  0  0  0  0  0  0  0  0  0
   25.5534  -18.3053  -14.8415 C   0  0  0  0  0  0  0  0  0  0  0  0
   26.1659  -19.3706  -15.6653 C   0  0  0  0  0  0  0  0  0  0  0  0
   25.2076  -20.2626  -16.3517 C   0  0  0  0  0  0  0  0  0  0  0  0
   24.8687  -21.5352  -15.7037 C   0  0  2  0  0  0  0  0  0  0  0  0
   25.2397  -22.7041  -16.4827 N   0  0  0  0  0  0  0  0  0  0  0  0
   23.3525  -21.5570  -15.5764 C   0  0  0  0  0  0  0  0  0  0  0  0
   22.6506  -21.7893  -16.5625 O   0  0  0  0  0  0  0  0  0  0  0  0
   26.2235  -14.5410  -15.9164 N   0  0  0  0  0  0  0  0  0  0  0  0
   18.4689  -25.4695   -9.9739 C   0  0  0  0  0  0  0  0  0  0  0  0
   17.6239  -25.2518  -11.0984 N   0  0  0  0  0  0  0  0  0  0  0  0
   16.3929  -25.6902  -11.0845 N   0  0  0  0  0  0  0  0  0  0  0  0
   18.0527  -24.5656  -12.2579 C   0  0  0  0  0  0  0  0  0  0  0  0
   19.4034  -24.1634  -12.4436 C   0  0  0  0  0  0  0  0  0  0  0  0
   19.6027  -22.7942  -13.0218 C   0  0  0  0  0  0  0  0  0  0  0  0
   21.0466  -22.6007  -13.4191 C   0  0  1  0  0  0  0  0  0  0  0  0
   21.3548  -21.3017  -14.0792 N   0  0  0  0  0  0  0  0  0  0  0  0
   22.8104  -21.3056  -14.3112 C   0  0  0  0  0  0  0  0  0  0  0  0
   21.0106  -20.1677  -13.1733 O   0  0  0  0  0  0  0  0  0  0  0  0
   19.8311  -19.8566  -12.9070 O   0  0  0  0  0  0  0  0  0  0  0  0
  2  1  1  0
  3  2  2  0
  4  2  1  0
  5  4  1  0
  6  5  1  0
  6  7  1  6
  8  9  2  0
  8  6  1  0
 10 11  1  0
 11 12  2  0
 13 11  1  0
 14 13  1  0
 15 14  1  0
 15 16  1  0
 17 16  1  6
 17 18  1  0
 18  8  1  0
 19 20  2  0
 19 17  1  0
 21 22  1  0
 22 24  1  0
 23 22  2  0
 24 25  1  0
 26 27  1  0
 26 25  1  0
 28 29  1  0
 28 27  1  6
 29 19  1  0
 30 28  1  0
 31 30  2  0
 32 30  1  0
M  END
$$$$
