PPD.pdb
     RDKit          3D

 23 24  0  0  1  0  0  0  0  0999 V2000
   39.7463   -9.3077   -7.6026 N   0  0  0  0  0  0  0  0  0  0  0  0
   39.3932   -9.8666   -6.3383 C   0  0  0  0  0  0  0  0  0  0  0  0
   38.0285   -9.3571   -5.9873 C   0  0  0  0  0  0  0  0  0  0  0  0
   37.4898   -8.7188   -7.2262 C   0  0  0  0  0  0  0  0  0  0  0  0
   38.6086   -8.7226   -8.2237 C   0  0  1  0  0  0  0  0  0  0  0  0
   38.8256   -7.3364   -8.7167 C   0  0  0  0  0  0  0  0  0  0  0  0
   39.6843   -6.5747   -8.1812 O   0  0  0  0  0  0  0  0  0  0  0  0
   38.0756   -6.7936   -9.8187 N   0  0  0  0  0  0  0  0  0  0  0  0
   37.0604   -7.5043  -10.5160 C   0  0  0  0  0  0  0  0  0  0  0  0
   36.6639   -6.6246  -11.6758 C   0  0  0  0  0  0  0  0  0  0  0  0
   37.8488   -5.6461  -11.8143 C   0  0  0  0  0  0  0  0  0  0  0  0
   38.2147   -5.4829  -10.3817 C   0  0  1  0  0  0  0  0  0  0  0  0
   37.4231   -4.4574   -9.6633 C   0  0  0  0  0  0  0  0  0  0  0  0
   36.2499   -4.6614   -9.2214 O   0  0  0  0  0  0  0  0  0  0  0  0
   37.9643   -3.1848   -9.4421 N   0  0  0  0  0  0  0  0  0  0  0  0
   37.2924   -2.1373   -8.6632 C   0  0  1  0  0  0  0  0  0  0  0  0
   38.2420   -1.3801   -7.8166 C   0  0  0  0  0  0  0  0  0  0  0  0
   38.5664   -2.1152   -6.5896 C   0  0  0  0  0  0  0  0  0  0  0  0
   39.2692   -3.1429   -6.6244 O   0  0  0  0  0  0  0  0  0  0  0  0
   36.6757   -1.2072   -9.6634 C   0  0  0  0  0  0  0  0  0  0  0  0
   35.6444   -0.3409   -9.4358 O   0  0  0  0  0  0  0  0  0  0  0  0
   38.1192   -1.7214   -5.3282 O   0  0  0  0  0  0  0  0  0  0  0  0
   37.1404   -1.2018  -10.8603 O   0  0  0  0  0  0  0  0  0  0  0  0
  2  1  1  0
  3  2  1  0
  4  3  1  0
  4  5  1  0
  5  6  1  1
  5  1  1  0
  6  7  2  0
  8 12  1  0
  8  6  1  0
  9 10  1  0
  9  8  1  0
 10 11  1  0
 11 12  1  0
 13 15  1  0
 12 13  1  1
 14 13  2  0
 16 15  1  0
 16 17  1  6
 17 18  1  0
 18 19  2  0
 18 22  1  0
 20 16  1  0
 21 20  1  0
 23 20  2  0
M  END
$$$$
