PPD.pdb
     RDKit          3D

 23 24  0  0  1  0  0  0  0  0999 V2000
   15.9464  -19.8415    2.1132 N   0  0  0  0  0  0  0  0  0  0  0  0
   14.7291  -20.5759    2.2342 C   0  0  0  0  0  0  0  0  0  0  0  0
   13.7432  -19.6977    2.9425 C   0  0  0  0  0  0  0  0  0  0  0  0
   14.3438  -18.3298    2.9656 C   0  0  0  0  0  0  0  0  0  0  0  0
   15.7325  -18.4693    2.4192 C   0  0  1  0  0  0  0  0  0  0  0  0
   16.6993  -17.9025    3.3969 C   0  0  0  0  0  0  0  0  0  0  0  0
   17.4533  -18.6513    4.0860 O   0  0  0  0  0  0  0  0  0  0  0  0
   16.8255  -16.4845    3.6088 N   0  0  0  0  0  0  0  0  0  0  0  0
   15.9920  -15.5113    2.9922 C   0  0  0  0  0  0  0  0  0  0  0  0
   16.5753  -14.1716    3.3678 C   0  0  0  0  0  0  0  0  0  0  0  0
   18.0140  -14.5102    3.8104 C   0  0  0  0  0  0  0  0  0  0  0  0
   17.7793  -15.8302    4.4552 C   0  0  1  0  0  0  0  0  0  0  0  0
   17.3402  -15.7492    5.8676 C   0  0  0  0  0  0  0  0  0  0  0  0
   16.1217  -15.7819    6.2248 O   0  0  0  0  0  0  0  0  0  0  0  0
   18.2904  -15.6291    6.8893 N   0  0  0  0  0  0  0  0  0  0  0  0
   17.9653  -15.7106    8.3187 C   0  0  1  0  0  0  0  0  0  0  0  0
   19.0456  -16.3574    9.0974 C   0  0  0  0  0  0  0  0  0  0  0  0
   19.1376  -17.7897    8.7950 C   0  0  0  0  0  0  0  0  0  0  0  0
   18.1421  -18.5316    8.8956 O   0  0  0  0  0  0  0  0  0  0  0  0
   17.7993  -14.2971    8.7880 C   0  0  0  0  0  0  0  0  0  0  0  0
   17.3034  -13.8976    9.9965 O   0  0  0  0  0  0  0  0  0  0  0  0
   20.3204  -18.4042    8.3834 O   0  0  0  0  0  0  0  0  0  0  0  0
   18.1481  -13.3464    7.9987 O   0  0  0  0  0  0  0  0  0  0  0  0
  2  1  1  0
  3  2  1  0
  4  3  1  0
  4  5  1  0
  5  6  1  1
  5  1  1  0
  6  7  2  0
  8 12  1  0
  8  6  1  0
  9 10  1  0
  9  8  1  0
 10 11  1  0
 11 12  1  0
 13 15  1  0
 12 13  1  1
 14 13  2  0
 16 15  1  0
 16 17  1  1
 17 18  1  0
 18 19  2  0
 18 22  1  0
 20 16  1  0
 21 20  1  0
 23 20  2  0
M  END
$$$$
