PPD.pdb
     RDKit          3D

 23 24  0  0  1  0  0  0  0  0999 V2000
   18.8843  -12.6403  -16.7470 N   0  0  0  0  0  0  0  0  0  0  0  0
   18.0583  -12.5774  -17.9087 C   0  0  0  0  0  0  0  0  0  0  0  0
   18.6182  -11.5117  -18.8008 C   0  0  0  0  0  0  0  0  0  0  0  0
   19.9613  -11.1654  -18.2453 C   0  0  0  0  0  0  0  0  0  0  0  0
   20.0893  -11.9137  -16.9529 C   0  0  1  0  0  0  0  0  0  0  0  0
   20.4186  -10.9539  -15.8656 C   0  0  0  0  0  0  0  0  0  0  0  0
   19.5201  -10.4913  -15.1021 O   0  0  0  0  0  0  0  0  0  0  0  0
   21.7652  -10.5045  -15.6281 N   0  0  0  0  0  0  0  0  0  0  0  0
   22.8942  -10.9505  -16.3685 C   0  0  0  0  0  0  0  0  0  0  0  0
   24.0983  -10.3514  -15.6848 C   0  0  0  0  0  0  0  0  0  0  0  0
   23.5714   -9.9674  -14.2865 C   0  0  0  0  0  0  0  0  0  0  0  0
   22.1859   -9.5562  -14.6392 C   0  0  1  0  0  0  0  0  0  0  0  0
   22.0640   -8.1520  -15.0951 C   0  0  0  0  0  0  0  0  0  0  0  0
   22.0772   -7.8095  -16.3182 O   0  0  0  0  0  0  0  0  0  0  0  0
   21.9263   -7.1218  -14.1566 N   0  0  0  0  0  0  0  0  0  0  0  0
   21.5512   -5.7459  -14.5055 C   0  0  1  0  0  0  0  0  0  0  0  0
   20.1204   -5.4759  -14.2375 C   0  0  0  0  0  0  0  0  0  0  0  0
   19.7635   -4.0961  -14.5841 C   0  0  0  0  0  0  0  0  0  0  0  0
   19.4629   -3.2704  -13.7013 O   0  0  0  0  0  0  0  0  0  0  0  0
   22.3901   -4.8548  -13.6406 C   0  0  0  0  0  0  0  0  0  0  0  0
   23.0924   -5.2306  -12.5308 O   0  0  0  0  0  0  0  0  0  0  0  0
   19.7372   -3.6258  -15.8972 O   0  0  0  0  0  0  0  0  0  0  0  0
   22.4763   -3.6110  -13.9471 O   0  0  0  0  0  0  0  0  0  0  0  0
  2  1  1  0
  3  2  1  0
  4  3  1  0
  4  5  1  0
  5  6  1  1
  5  1  1  0
  6  7  2  0
  8 12  1  0
  8  6  1  0
  9 10  1  0
  9  8  1  0
 10 11  1  0
 11 12  1  0
 13 15  1  0
 12 13  1  6
 14 13  2  0
 16 15  1  0
 16 17  1  1
 17 18  1  0
 18 19  2  0
 18 22  1  0
 20 16  1  0
 21 20  1  0
 23 20  2  0
M  END
$$$$
