PPD.pdb
     RDKit          3D

 23 24  0  0  1  0  0  0  0  0999 V2000
   18.9975  -12.4846  -17.9724 N   0  0  0  0  0  0  0  0  0  0  0  0
   18.6043  -12.4259  -19.3427 C   0  0  0  0  0  0  0  0  0  0  0  0
   19.5719  -11.5263  -20.0496 C   0  0  0  0  0  0  0  0  0  0  0  0
   20.7035  -11.3022  -19.1000 C   0  0  0  0  0  0  0  0  0  0  0  0
   20.2995  -11.9378  -17.8041 C   0  0  1  0  0  0  0  0  0  0  0  0
   20.4042  -10.9308  -16.7148 C   0  0  0  0  0  0  0  0  0  0  0  0
   19.3741  -10.3718  -16.2345 O   0  0  0  0  0  0  0  0  0  0  0  0
   21.6723  -10.5424  -16.1557 N   0  0  0  0  0  0  0  0  0  0  0  0
   22.9265  -11.0292  -16.6161 C   0  0  0  0  0  0  0  0  0  0  0  0
   23.9562  -10.4895  -15.6544 C   0  0  0  0  0  0  0  0  0  0  0  0
   23.1275  -10.0972  -14.4136 C   0  0  0  0  0  0  0  0  0  0  0  0
   21.8830   -9.6230  -15.0766 C   0  0  1  0  0  0  0  0  0  0  0  0
   21.9287   -8.2104  -15.5201 C   0  0  0  0  0  0  0  0  0  0  0  0
   22.1046   -7.8616  -16.7287 O   0  0  0  0  0  0  0  0  0  0  0  0
   21.7743   -7.1790  -14.5855 N   0  0  0  0  0  0  0  0  0  0  0  0
   21.4504   -5.7933  -14.9468 C   0  0  1  0  0  0  0  0  0  0  0  0
   19.9904   -5.5483  -14.9534 C   0  0  0  0  0  0  0  0  0  0  0  0
   19.6813   -4.1753  -15.3666 C   0  0  0  0  0  0  0  0  0  0  0  0
   20.1152   -3.7155  -16.4398 O   0  0  0  0  0  0  0  0  0  0  0  0
   22.0890   -4.9313  -13.9004 C   0  0  0  0  0  0  0  0  0  0  0  0
   22.5953   -5.3512  -12.7032 O   0  0  0  0  0  0  0  0  0  0  0  0
   18.8978   -3.3107  -14.6020 O   0  0  0  0  0  0  0  0  0  0  0  0
   22.1832   -3.6701  -14.1218 O   0  0  0  0  0  0  0  0  0  0  0  0
  2  1  1  0
  3  2  1  0
  4  3  1  0
  4  5  1  0
  5  6  1  1
  5  1  1  0
  6  7  2  0
  8 12  1  0
  8  6  1  0
  9 10  1  0
  9  8  1  0
 10 11  1  0
 11 12  1  0
 13 15  1  0
 12 13  1  6
 14 13  2  0
 16 15  1  0
 16 17  1  1
 17 18  1  0
 18 19  2  0
 18 22  1  0
 20 16  1  0
 21 20  1  0
 23 20  2  0
M  END
$$$$
