PPD.pdb
     RDKit          3D

 23 24  0  0  1  0  0  0  0  0999 V2000
   28.4375  -20.3278  -15.9125 N   0  0  0  0  0  0  0  0  0  0  0  0
   28.6906  -19.1760  -16.7155 C   0  0  0  0  0  0  0  0  0  0  0  0
   28.0256  -18.0097  -16.0502 C   0  0  0  0  0  0  0  0  0  0  0  0
   27.6284  -18.4771  -14.6878 C   0  0  0  0  0  0  0  0  0  0  0  0
   27.9202  -19.9466  -14.6439 C   0  0  1  0  0  0  0  0  0  0  0  0
   26.6880  -20.6755  -14.2413 C   0  0  0  0  0  0  0  0  0  0  0  0
   26.0306  -21.3666  -15.0746 O   0  0  0  0  0  0  0  0  0  0  0  0
   26.1831  -20.6321  -12.8941 N   0  0  0  0  0  0  0  0  0  0  0  0
   26.7990  -19.9071  -11.8374 C   0  0  0  0  0  0  0  0  0  0  0  0
   26.0341  -20.2694  -10.5884 C   0  0  0  0  0  0  0  0  0  0  0  0
   25.3022  -21.5720  -10.9729 C   0  0  0  0  0  0  0  0  0  0  0  0
   25.0068  -21.2870  -12.4027 C   0  0  1  0  0  0  0  0  0  0  0  0
   23.7710  -20.5010  -12.6250 C   0  0  0  0  0  0  0  0  0  0  0  0
   23.7166  -19.2367  -12.5163 O   0  0  0  0  0  0  0  0  0  0  0  0
   22.5814  -21.1525  -12.9739 N   0  0  0  0  0  0  0  0  0  0  0  0
   21.4048  -20.4643  -13.5192 C   0  0  1  0  0  0  0  0  0  0  0  0
   21.0161  -20.9960  -14.8452 C   0  0  0  0  0  0  0  0  0  0  0  0
   19.7695  -20.3863  -15.3202 C   0  0  0  0  0  0  0  0  0  0  0  0
   19.5051  -19.1939  -15.0761 O   0  0  0  0  0  0  0  0  0  0  0  0
   20.2922  -20.7094  -12.5457 C   0  0  0  0  0  0  0  0  0  0  0  0
   19.2911  -19.8377  -12.2232 O   0  0  0  0  0  0  0  0  0  0  0  0
   18.8167  -21.0857  -16.0613 O   0  0  0  0  0  0  0  0  0  0  0  0
   20.2492  -21.8401  -11.9390 O   0  0  0  0  0  0  0  0  0  0  0  0
  2  1  1  0
  3  2  1  0
  4  3  1  0
  4  5  1  0
  5  6  1  6
  5  1  1  0
  6  7  2  0
  8 12  1  0
  8  6  1  0
  9 10  1  0
  9  8  1  0
 10 11  1  0
 11 12  1  0
 13 15  1  0
 12 13  1  1
 14 13  2  0
 16 15  1  0
 16 17  1  6
 17 18  1  0
 18 19  2  0
 18 22  1  0
 20 16  1  0
 21 20  1  0
 23 20  2  0
M  END
$$$$
