PPD.pdb
     RDKit          3D

 23 24  0  0  1  0  0  0  0  0999 V2000
   28.4640  -20.4545  -15.1689 N   0  0  0  0  0  0  0  0  0  0  0  0
   28.5766  -19.3700  -16.0890 C   0  0  0  0  0  0  0  0  0  0  0  0
   27.6890  -18.2683  -15.5956 C   0  0  0  0  0  0  0  0  0  0  0  0
   27.2870  -18.6463  -14.2072 C   0  0  0  0  0  0  0  0  0  0  0  0
   27.8112  -20.0317  -13.9783 C   0  0  1  0  0  0  0  0  0  0  0  0
   26.6913  -20.9110  -13.5491 C   0  0  0  0  0  0  0  0  0  0  0  0
   26.3317  -21.9057  -14.2459 O   0  0  0  0  0  0  0  0  0  0  0  0
   25.9637  -20.6774  -12.3294 N   0  0  0  0  0  0  0  0  0  0  0  0
   26.2639  -19.6330  -11.4123 C   0  0  0  0  0  0  0  0  0  0  0  0
   25.3665  -19.8600  -10.2210 C   0  0  0  0  0  0  0  0  0  0  0  0
   24.9330  -21.3336  -10.3653 C   0  0  0  0  0  0  0  0  0  0  0  0
   24.8433  -21.4300  -11.8471 C   0  0  1  0  0  0  0  0  0  0  0  0
   23.5524  -20.9719  -12.4108 C   0  0  0  0  0  0  0  0  0  0  0  0
   23.2639  -19.7488  -12.5954 O   0  0  0  0  0  0  0  0  0  0  0  0
   22.5748  -21.9081  -12.7699 N   0  0  0  0  0  0  0  0  0  0  0  0
   21.3477  -21.5663  -13.4999 C   0  0  1  0  0  0  0  0  0  0  0  0
   20.7205  -22.7562  -14.1186 C   0  0  0  0  0  0  0  0  0  0  0  0
   19.5864  -22.3801  -14.9694 C   0  0  0  0  0  0  0  0  0  0  0  0
   19.5343  -21.2593  -15.5102 O   0  0  0  0  0  0  0  0  0  0  0  0
   20.4089  -20.9869  -12.4856 C   0  0  0  0  0  0  0  0  0  0  0  0
   20.5278  -21.0759  -11.1277 O   0  0  0  0  0  0  0  0  0  0  0  0
   18.5130  -23.2338  -15.2245 O   0  0  0  0  0  0  0  0  0  0  0  0
   19.3827  -20.3382  -12.9034 O   0  0  0  0  0  0  0  0  0  0  0  0
  2  1  1  0
  3  2  1  0
  4  3  1  0
  4  5  1  0
  5  6  1  6
  5  1  1  0
  6  7  2  0
  8 12  1  0
  8  6  1  0
  9 10  1  0
  9  8  1  0
 10 11  1  0
 11 12  1  0
 13 15  1  0
 12 13  1  6
 14 13  2  0
 16 15  1  0
 16 17  1  1
 17 18  1  0
 18 19  2  0
 18 22  1  0
 20 16  1  0
 21 20  1  0
 23 20  2  0
M  END
$$$$
