PPD.pdb
     RDKit          3D

 23 24  0  0  1  0  0  0  0  0999 V2000
   28.3949  -20.4499  -15.2712 N   0  0  0  0  0  0  0  0  0  0  0  0
   28.6591  -19.3526  -16.1439 C   0  0  0  0  0  0  0  0  0  0  0  0
   27.9002  -18.1707  -15.6221 C   0  0  0  0  0  0  0  0  0  0  0  0
   27.4235  -18.5500  -14.2577 C   0  0  0  0  0  0  0  0  0  0  0  0
   27.7709  -19.9968  -14.0763 C   0  0  1  0  0  0  0  0  0  0  0  0
   26.5431  -20.7489  -13.7039 C   0  0  0  0  0  0  0  0  0  0  0  0
   25.9972  -21.5580  -14.5110 O   0  0  0  0  0  0  0  0  0  0  0  0
   25.9169  -20.5958  -12.4170 N   0  0  0  0  0  0  0  0  0  0  0  0
   26.3830  -19.7107  -11.4065 C   0  0  0  0  0  0  0  0  0  0  0  0
   25.5356  -19.9911  -10.1901 C   0  0  0  0  0  0  0  0  0  0  0  0
   24.9339  -21.3826  -10.4766 C   0  0  0  0  0  0  0  0  0  0  0  0
   24.7495  -21.2833  -11.9494 C   0  0  1  0  0  0  0  0  0  0  0  0
   23.4871  -20.6279  -12.3630 C   0  0  0  0  0  0  0  0  0  0  0  0
   23.3435  -19.3679  -12.4347 O   0  0  0  0  0  0  0  0  0  0  0  0
   22.3727  -21.4065  -12.6991 N   0  0  0  0  0  0  0  0  0  0  0  0
   21.2091  -20.8912  -13.4313 C   0  0  1  0  0  0  0  0  0  0  0  0
   20.8282  -21.7723  -14.5585 C   0  0  0  0  0  0  0  0  0  0  0  0
   19.6307  -21.2748  -15.2438 C   0  0  0  0  0  0  0  0  0  0  0  0
   19.5165  -20.0711  -15.5431 O   0  0  0  0  0  0  0  0  0  0  0  0
   20.0841  -20.8435  -12.4425 C   0  0  0  0  0  0  0  0  0  0  0  0
   20.0614  -21.4359  -11.2119 O   0  0  0  0  0  0  0  0  0  0  0  0
   18.5620  -22.0983  -15.5988 O   0  0  0  0  0  0  0  0  0  0  0  0
   19.0239  -20.1898  -12.7544 O   0  0  0  0  0  0  0  0  0  0  0  0
  2  1  1  0
  3  2  1  0
  4  3  1  0
  4  5  1  0
  5  6  1  6
  5  1  1  0
  6  7  2  0
  8 12  1  0
  8  6  1  0
  9 10  1  0
  9  8  1  0
 10 11  1  0
 11 12  1  0
 13 15  1  0
 12 13  1  1
 14 13  2  0
 16 15  1  0
 16 17  1  6
 17 18  1  0
 18 19  2  0
 18 22  1  0
 20 16  1  0
 21 20  1  0
 23 20  2  0
M  END
$$$$
