PPD.pdb
     RDKit          3D

 23 24  0  0  1  0  0  0  0  0999 V2000
   26.3587  -21.9250  -16.1544 N   0  0  0  0  0  0  0  0  0  0  0  0
   27.2480  -22.9937  -15.8339 C   0  0  0  0  0  0  0  0  0  0  0  0
   26.4272  -24.0993  -15.2431 C   0  0  0  0  0  0  0  0  0  0  0  0
   24.9994  -23.7437  -15.5028 C   0  0  0  0  0  0  0  0  0  0  0  0
   25.0080  -22.3654  -16.0916 C   0  0  1  0  0  0  0  0  0  0  0  0
   24.1150  -21.4879  -15.2889 C   0  0  0  0  0  0  0  0  0  0  0  0
   23.8122  -21.7750  -14.0930 O   0  0  0  0  0  0  0  0  0  0  0  0
   23.5527  -20.2770  -15.8267 N   0  0  0  0  0  0  0  0  0  0  0  0
   23.8335  -19.7803  -17.1291 C   0  0  0  0  0  0  0  0  0  0  0  0
   23.1673  -18.4289  -17.2073 C   0  0  0  0  0  0  0  0  0  0  0  0
   22.9340  -18.0502  -15.7300 C   0  0  0  0  0  0  0  0  0  0  0  0
   22.6378  -19.3942  -15.1651 C   0  0  1  0  0  0  0  0  0  0  0  0
   21.2244  -19.8157  -15.3034 C   0  0  0  0  0  0  0  0  0  0  0  0
   20.6718  -20.0558  -16.4215 O   0  0  0  0  0  0  0  0  0  0  0  0
   20.4254  -19.9670  -14.1633 N   0  0  0  0  0  0  0  0  0  0  0  0
   19.0856  -20.5671  -14.1806 C   0  0  1  0  0  0  0  0  0  0  0  0
   18.8253  -21.3783  -12.9697 C   0  0  0  0  0  0  0  0  0  0  0  0
   19.5686  -22.6423  -13.0041 C   0  0  0  0  0  0  0  0  0  0  0  0
   19.7620  -23.2435  -14.0777 O   0  0  0  0  0  0  0  0  0  0  0  0
   18.1187  -19.4230  -14.2233 C   0  0  0  0  0  0  0  0  0  0  0  0
   18.4282  -18.0964  -14.1217 O   0  0  0  0  0  0  0  0  0  0  0  0
   20.0974  -23.2432  -11.8616 O   0  0  0  0  0  0  0  0  0  0  0  0
   16.8698  -19.6836  -14.3680 O   0  0  0  0  0  0  0  0  0  0  0  0
  2  1  1  0
  3  2  1  0
  4  3  1  0
  4  5  1  0
  5  6  1  1
  5  1  1  0
  6  7  2  0
  8 12  1  0
  8  6  1  0
  9 10  1  0
  9  8  1  0
 10 11  1  0
 11 12  1  0
 13 15  1  0
 12 13  1  6
 14 13  2  0
 16 15  1  0
 16 17  1  1
 17 18  1  0
 18 19  2  0
 18 22  1  0
 20 16  1  0
 21 20  1  0
 23 20  2  0
M  END
$$$$
