NKE.pdb
     RDKit          3D

 27 26  0  0  1  0  0  0  0  0999 V2000
   22.2057  -19.6479  -16.1231 N   0  0  0  0  0  0  0  0  0  0  0  0
   22.8857  -19.2189  -14.9546 C   0  0  0  0  0  0  0  0  0  0  0  0
   23.1245  -20.0552  -14.0372 O   0  0  0  0  0  0  0  0  0  0  0  0
   23.3502  -17.8360  -14.7162 C   0  0  0  0  0  0  0  0  0  0  0  0
   22.9899  -16.8965  -15.8443 C   0  0  2  0  0  0  0  0  0  0  0  0
   23.5862  -17.4323  -17.0527 N   0  0  0  0  0  0  0  0  0  0  0  0
   23.5771  -15.5734  -15.5641 C   0  0  0  0  0  0  0  0  0  0  0  0
   23.2258  -14.9327  -14.5148 O   0  0  0  0  0  0  0  0  0  0  0  0
   24.5263  -14.9619  -16.4093 N   0  0  0  0  0  0  0  0  0  0  0  0
   25.0647  -13.6603  -16.1131 C   0  0  1  0  0  0  0  0  0  0  0  0
   26.4081  -13.5497  -16.7796 C   0  0  0  0  0  0  0  0  0  0  0  0
   27.0698  -12.2259  -16.5393 C   0  0  0  0  0  0  0  0  0  0  0  0
   28.3429  -12.1092  -17.3088 C   0  0  0  0  0  0  0  0  0  0  0  0
   29.1106  -10.8542  -16.9972 C   0  0  0  0  0  0  0  0  0  0  0  0
   30.3640  -10.7748  -17.6935 N   0  0  0  0  0  0  0  0  0  0  0  0
   24.1727  -12.6032  -16.6661 C   0  0  0  0  0  0  0  0  0  0  0  0
   23.6371  -12.6921  -17.7916 O   0  0  0  0  0  0  0  0  0  0  0  0
   23.8986  -11.4349  -15.9116 N   0  0  0  0  0  0  0  0  0  0  0  0
   22.9638  -10.4126  -16.1920 C   0  0  1  0  0  0  0  0  0  0  0  0
   22.6202   -9.4533  -15.0966 C   0  0  0  0  0  0  0  0  0  0  0  0
   21.5473   -8.4877  -15.5113 C   0  0  0  0  0  0  0  0  0  0  0  0
   21.2976   -7.5752  -14.3342 C   0  0  0  0  0  0  0  0  0  0  0  0
   21.8766   -7.7103  -13.2349 O   0  0  0  0  0  0  0  0  0  0  0  0
   23.3465   -9.7043  -17.4107 C   0  0  0  0  0  0  0  0  0  0  0  0
   24.5493   -9.3959  -17.5886 O   0  0  0  0  0  0  0  0  0  0  0  0
   20.3910   -6.5382  -14.4597 O   0  0  0  0  0  0  0  0  0  0  0  0
   22.4399   -9.3482  -18.3978 O   0  0  0  0  0  0  0  0  0  0  0  0
  2  1  1  0
  3  2  2  0
  4  2  1  0
  5  4  1  0
  5  6  1  6
  7  8  2  0
  7  5  1  0
  9  7  1  0
 10  9  1  0
 10 11  1  6
 12 11  1  0
 13 12  1  0
 13 14  1  0
 14 15  1  0
 16 10  1  0
 17 16  2  0
 18 16  1  0
 19 18  1  0
 19 20  1  1
 20 21  1  0
 21 22  1  0
 22 26  1  0
 23 22  2  0
 24 19  1  0
 25 24  2  0
 27 24  1  0
M  END
$$$$
