NKE.pdb
     RDKit          3D

 27 26  0  0  1  0  0  0  0  0999 V2000
   27.6292  -22.8826  -16.3565 N   0  0  0  0  0  0  0  0  0  0  0  0
   27.9093  -21.5953  -15.8310 C   0  0  0  0  0  0  0  0  0  0  0  0
   29.1079  -21.1967  -15.7798 O   0  0  0  0  0  0  0  0  0  0  0  0
   26.8856  -20.6567  -15.3246 C   0  0  0  0  0  0  0  0  0  0  0  0
   25.5036  -21.2676  -15.2819 C   0  0  2  0  0  0  0  0  0  0  0  0
   25.1691  -21.6611  -16.6369 N   0  0  0  0  0  0  0  0  0  0  0  0
   24.5465  -20.2417  -14.8288 C   0  0  0  0  0  0  0  0  0  0  0  0
   24.6090  -19.8009  -13.6302 O   0  0  0  0  0  0  0  0  0  0  0  0
   23.5430  -19.7080  -15.6640 N   0  0  0  0  0  0  0  0  0  0  0  0
   22.5264  -18.8302  -15.1467 C   0  0  1  0  0  0  0  0  0  0  0  0
   22.2262  -17.7962  -16.1964 C   0  0  0  0  0  0  0  0  0  0  0  0
   21.2075  -16.7911  -15.7489 C   0  0  0  0  0  0  0  0  0  0  0  0
   20.9415  -15.7792  -16.8128 C   0  0  0  0  0  0  0  0  0  0  0  0
   20.0223  -14.6765  -16.3649 C   0  0  0  0  0  0  0  0  0  0  0  0
   19.7898  -13.6907  -17.3829 N   0  0  0  0  0  0  0  0  0  0  0  0
   21.2817  -19.6005  -14.8705 C   0  0  0  0  0  0  0  0  0  0  0  0
   20.9018  -20.5502  -15.5883 O   0  0  0  0  0  0  0  0  0  0  0  0
   20.4708  -19.2697  -13.7559 N   0  0  0  0  0  0  0  0  0  0  0  0
   19.2701  -19.8851  -13.3350 C   0  0  1  0  0  0  0  0  0  0  0  0
   19.2495  -20.5423  -11.9912 C   0  0  0  0  0  0  0  0  0  0  0  0
   17.8835  -21.0572  -11.6384 C   0  0  0  0  0  0  0  0  0  0  0  0
   17.7681  -22.4411  -12.2315 C   0  0  0  0  0  0  0  0  0  0  0  0
   18.7447  -23.2113  -12.3545 O   0  0  0  0  0  0  0  0  0  0  0  0
   18.1525  -18.9566  -13.4838 C   0  0  0  0  0  0  0  0  0  0  0  0
   18.3136  -17.7497  -13.1822 O   0  0  0  0  0  0  0  0  0  0  0  0
   16.5346  -22.8938  -12.6634 O   0  0  0  0  0  0  0  0  0  0  0  0
   16.9032  -19.3410  -13.9473 O   0  0  0  0  0  0  0  0  0  0  0  0
  2  1  1  0
  3  2  2  0
  4  2  1  0
  5  4  1  0
  5  6  1  6
  7  8  2  0
  7  5  1  0
  9  7  1  0
 10  9  1  0
 10 11  1  6
 12 11  1  0
 13 12  1  0
 13 14  1  0
 14 15  1  0
 16 10  1  0
 17 16  2  0
 18 16  1  0
 19 18  1  0
 19 20  1  1
 20 21  1  0
 21 22  1  0
 22 26  1  0
 23 22  2  0
 24 19  1  0
 25 24  2  0
 27 24  1  0
M  END
$$$$
