NKE.pdb
     RDKit          3D

 27 26  0  0  1  0  0  0  0  0999 V2000
   11.9021  -12.1129  -13.3608 N   0  0  0  0  0  0  0  0  0  0  0  0
   12.8643  -12.0491  -14.4009 C   0  0  0  0  0  0  0  0  0  0  0  0
   12.5465  -12.4385  -15.5608 O   0  0  0  0  0  0  0  0  0  0  0  0
   14.2460  -11.5507  -14.2339 C   0  0  0  0  0  0  0  0  0  0  0  0
   15.2556  -12.3542  -15.0215 C   0  0  2  0  0  0  0  0  0  0  0  0
   15.4036  -13.6302  -14.3487 N   0  0  0  0  0  0  0  0  0  0  0  0
   16.5478  -11.6448  -14.9970 C   0  0  0  0  0  0  0  0  0  0  0  0
   17.2433  -11.6299  -13.9243 O   0  0  0  0  0  0  0  0  0  0  0  0
   17.0705  -10.9661  -16.1176 N   0  0  0  0  0  0  0  0  0  0  0  0
   18.4191  -10.4632  -16.1269 C   0  0  1  0  0  0  0  0  0  0  0  0
   18.9931  -10.6958  -17.4971 C   0  0  0  0  0  0  0  0  0  0  0  0
   19.6372  -12.0425  -17.6374 C   0  0  0  0  0  0  0  0  0  0  0  0
   20.1185  -12.2701  -19.0314 C   0  0  0  0  0  0  0  0  0  0  0  0
   20.6057  -13.6729  -19.2683 C   0  0  0  0  0  0  0  0  0  0  0  0
   21.0732  -13.8863  -20.6092 N   0  0  0  0  0  0  0  0  0  0  0  0
   18.4175   -8.9985  -15.8561 C   0  0  0  0  0  0  0  0  0  0  0  0
   17.5393   -8.2299  -16.3028 O   0  0  0  0  0  0  0  0  0  0  0  0
   19.4392   -8.4188  -15.0627 N   0  0  0  0  0  0  0  0  0  0  0  0
   19.6383   -7.0539  -14.7545 C   0  0  1  0  0  0  0  0  0  0  0  0
   20.8615   -6.6786  -13.9792 C   0  0  0  0  0  0  0  0  0  0  0  0
   20.9077   -5.2076  -13.6798 C   0  0  0  0  0  0  0  0  0  0  0  0
   22.1686   -4.9593  -12.8869 C   0  0  0  0  0  0  0  0  0  0  0  0
   23.1080   -4.2509  -13.3086 O   0  0  0  0  0  0  0  0  0  0  0  0
   19.5126   -6.2439  -15.9633 C   0  0  0  0  0  0  0  0  0  0  0  0
   18.7954   -5.2149  -15.9401 O   0  0  0  0  0  0  0  0  0  0  0  0
   22.3080   -5.5330  -11.6362 O   0  0  0  0  0  0  0  0  0  0  0  0
   20.1518   -6.5538  -17.1543 O   0  0  0  0  0  0  0  0  0  0  0  0
  2  1  1  0
  3  2  2  0
  4  2  1  0
  5  4  1  0
  5  6  1  1
  7  8  2  0
  7  5  1  0
  9  7  1  0
 10  9  1  0
 10 11  1  6
 12 11  1  0
 13 12  1  0
 13 14  1  0
 14 15  1  0
 16 10  1  0
 17 16  2  0
 18 16  1  0
 19 18  1  0
 19 20  1  6
 20 21  1  0
 21 22  1  0
 22 26  1  0
 23 22  2  0
 24 19  1  0
 25 24  2  0
 27 24  1  0
M  END
$$$$
