NKE.pdb
     RDKit          3D

 27 26  0  0  1  0  0  0  0  0999 V2000
   21.0478  -14.7687  -18.1370 N   0  0  0  0  0  0  0  0  0  0  0  0
   20.0459  -14.0235  -18.8097 C   0  0  0  0  0  0  0  0  0  0  0  0
   19.4364  -14.5481  -19.7851 O   0  0  0  0  0  0  0  0  0  0  0  0
   19.6458  -12.6458  -18.4531 C   0  0  0  0  0  0  0  0  0  0  0  0
   20.4216  -12.0986  -17.2768 C   0  0  2  0  0  0  0  0  0  0  0  0
   20.0419  -12.8791  -16.1151 N   0  0  0  0  0  0  0  0  0  0  0  0
   20.0278  -10.6941  -17.0623 C   0  0  0  0  0  0  0  0  0  0  0  0
   20.2471   -9.8270  -17.9760 O   0  0  0  0  0  0  0  0  0  0  0  0
   19.4086  -10.2444  -15.8775 N   0  0  0  0  0  0  0  0  0  0  0  0
   19.0636   -8.8594  -15.6916 C   0  0  1  0  0  0  0  0  0  0  0  0
   17.9007   -8.7931  -14.7406 C   0  0  0  0  0  0  0  0  0  0  0  0
   16.6007   -9.1740  -15.3834 C   0  0  0  0  0  0  0  0  0  0  0  0
   15.4823   -9.1554  -14.3957 C   0  0  0  0  0  0  0  0  0  0  0  0
   14.1694   -9.5998  -14.9791 C   0  0  0  0  0  0  0  0  0  0  0  0
   13.1130   -9.6546  -14.0079 N   0  0  0  0  0  0  0  0  0  0  0  0
   20.2114   -8.1260  -15.0888 C   0  0  0  0  0  0  0  0  0  0  0  0
   20.9350   -8.6192  -14.1973 O   0  0  0  0  0  0  0  0  0  0  0  0
   20.5242   -6.8125  -15.5203 N   0  0  0  0  0  0  0  0  0  0  0  0
   21.6343   -6.0152  -15.1603 C   0  0  1  0  0  0  0  0  0  0  0  0
   22.0875   -4.9637  -16.1232 C   0  0  0  0  0  0  0  0  0  0  0  0
   23.3097   -4.2417  -15.6326 C   0  0  0  0  0  0  0  0  0  0  0  0
   23.6230   -3.1676  -16.6467 C   0  0  0  0  0  0  0  0  0  0  0  0
   23.3661   -1.9591  -16.4579 O   0  0  0  0  0  0  0  0  0  0  0  0
   21.4376   -5.4563  -13.8253 C   0  0  0  0  0  0  0  0  0  0  0  0
   20.2869   -5.1041  -13.4713 O   0  0  0  0  0  0  0  0  0  0  0  0
   24.2210   -3.5179  -17.8437 O   0  0  0  0  0  0  0  0  0  0  0  0
   22.4685   -5.2906  -12.9126 O   0  0  0  0  0  0  0  0  0  0  0  0
  2  1  1  0
  3  2  2  0
  4  2  1  0
  5  4  1  0
  5  6  1  1
  7  8  2  0
  7  5  1  0
  9  7  1  0
 10  9  1  0
 10 11  1  1
 12 11  1  0
 13 12  1  0
 13 14  1  0
 14 15  1  0
 16 10  1  0
 17 16  2  0
 18 16  1  0
 19 18  1  0
 19 20  1  6
 20 21  1  0
 21 22  1  0
 22 26  1  0
 23 22  2  0
 24 19  1  0
 25 24  2  0
 27 24  1  0
M  END
$$$$
