NKE.pdb
     RDKit          3D

 27 26  0  0  1  0  0  0  0  0999 V2000
   27.9310  -12.4966  -15.4366 N   0  0  0  0  0  0  0  0  0  0  0  0
   27.5000  -12.0669  -16.7178 C   0  0  0  0  0  0  0  0  0  0  0  0
   28.2630  -12.2295  -17.7126 O   0  0  0  0  0  0  0  0  0  0  0  0
   26.1957  -11.4272  -16.9915 C   0  0  0  0  0  0  0  0  0  0  0  0
   25.4073  -11.1470  -15.7325 C   0  0  2  0  0  0  0  0  0  0  0  0
   25.0619  -12.4298  -15.1511 N   0  0  0  0  0  0  0  0  0  0  0  0
   24.1688  -10.4355  -16.0983 C   0  0  0  0  0  0  0  0  0  0  0  0
   24.2348   -9.2510  -16.5752 O   0  0  0  0  0  0  0  0  0  0  0  0
   22.8863  -11.0028  -15.9473 N   0  0  0  0  0  0  0  0  0  0  0  0
   21.6972  -10.2688  -16.2923 C   0  0  1  0  0  0  0  0  0  0  0  0
   20.5432  -11.2328  -16.3070 C   0  0  0  0  0  0  0  0  0  0  0  0
   19.2602  -10.5980  -16.7531 C   0  0  0  0  0  0  0  0  0  0  0  0
   18.1386  -11.5821  -16.7479 C   0  0  0  0  0  0  0  0  0  0  0  0
   16.8482  -11.0125  -17.2694 C   0  0  0  0  0  0  0  0  0  0  0  0
   15.8311  -12.0081  -17.4602 N   0  0  0  0  0  0  0  0  0  0  0  0
   21.4288   -9.2237  -15.2654 C   0  0  0  0  0  0  0  0  0  0  0  0
   21.6308   -9.4072  -14.0460 O   0  0  0  0  0  0  0  0  0  0  0  0
   20.9232   -7.9571  -15.6521 N   0  0  0  0  0  0  0  0  0  0  0  0
   20.7125   -6.8164  -14.8448 C   0  0  1  0  0  0  0  0  0  0  0  0
   21.6266   -5.6462  -15.0276 C   0  0  0  0  0  0  0  0  0  0  0  0
   21.2945   -4.5217  -14.0890 C   0  0  0  0  0  0  0  0  0  0  0  0
   22.2850   -3.4148  -14.3606 C   0  0  0  0  0  0  0  0  0  0  0  0
   23.4753   -3.6301  -14.6753 O   0  0  0  0  0  0  0  0  0  0  0  0
   19.3125   -6.4060  -14.9131 C   0  0  0  0  0  0  0  0  0  0  0  0
   18.6923   -6.5197  -15.9976 O   0  0  0  0  0  0  0  0  0  0  0  0
   21.8749   -2.0976  -14.2615 O   0  0  0  0  0  0  0  0  0  0  0  0
   18.6194   -5.8894  -13.8287 O   0  0  0  0  0  0  0  0  0  0  0  0
  2  1  1  0
  3  2  2  0
  4  2  1  0
  5  4  1  0
  5  6  1  6
  7  8  2  0
  7  5  1  0
  9  7  1  0
 10  9  1  0
 10 11  1  1
 12 11  1  0
 13 12  1  0
 13 14  1  0
 14 15  1  0
 16 10  1  0
 17 16  2  0
 18 16  1  0
 19 18  1  0
 19 20  1  6
 20 21  1  0
 21 22  1  0
 22 26  1  0
 23 22  2  0
 24 19  1  0
 25 24  2  0
 27 24  1  0
M  END
$$$$
