NKE.pdb
     RDKit          3D

 27 26  0  0  1  0  0  0  0  0999 V2000
   27.1668  -14.9970  -20.2632 N   0  0  0  0  0  0  0  0  0  0  0  0
   26.5065  -14.9463  -19.0089 C   0  0  0  0  0  0  0  0  0  0  0  0
   26.9677  -14.2008  -18.0981 O   0  0  0  0  0  0  0  0  0  0  0  0
   25.2900  -15.7153  -18.6713 C   0  0  0  0  0  0  0  0  0  0  0  0
   25.2096  -16.0657  -17.2031 C   0  0  2  0  0  0  0  0  0  0  0  0
   26.5702  -16.2246  -16.7273 N   0  0  0  0  0  0  0  0  0  0  0  0
   24.4974  -17.3488  -17.0611 C   0  0  0  0  0  0  0  0  0  0  0  0
   23.2868  -17.4501  -17.4597 O   0  0  0  0  0  0  0  0  0  0  0  0
   25.0920  -18.4966  -16.4967 N   0  0  0  0  0  0  0  0  0  0  0  0
   24.3616  -19.7297  -16.3629 C   0  0  1  0  0  0  0  0  0  0  0  0
   25.3576  -20.8480  -16.2265 C   0  0  0  0  0  0  0  0  0  0  0  0
   24.7109  -22.1994  -16.1669 C   0  0  0  0  0  0  0  0  0  0  0  0
   25.7158  -23.2694  -15.8990 C   0  0  0  0  0  0  0  0  0  0  0  0
   25.1449  -24.6569  -15.9995 C   0  0  0  0  0  0  0  0  0  0  0  0
   26.0866  -25.6794  -15.6390 N   0  0  0  0  0  0  0  0  0  0  0  0
   23.5202  -19.6917  -15.1344 C   0  0  0  0  0  0  0  0  0  0  0  0
   23.9701  -19.3570  -14.0176 O   0  0  0  0  0  0  0  0  0  0  0  0
   22.1485  -20.0434  -15.1982 N   0  0  0  0  0  0  0  0  0  0  0  0
   21.1871  -20.0050  -14.1630 C   0  0  1  0  0  0  0  0  0  0  0  0
   20.2054  -18.8762  -14.1556 C   0  0  0  0  0  0  0  0  0  0  0  0
   18.7871  -19.3653  -14.0853 C   0  0  0  0  0  0  0  0  0  0  0  0
   17.9331  -18.3424  -14.7956 C   0  0  0  0  0  0  0  0  0  0  0  0
   17.1917  -18.6283  -15.7603 O   0  0  0  0  0  0  0  0  0  0  0  0
   20.5074  -21.2940  -14.0626 C   0  0  0  0  0  0  0  0  0  0  0  0
   20.4962  -22.0603  -15.0557 O   0  0  0  0  0  0  0  0  0  0  0  0
   17.9595  -17.0254  -14.3739 O   0  0  0  0  0  0  0  0  0  0  0  0
   19.8636  -21.7248  -12.9124 O   0  0  0  0  0  0  0  0  0  0  0  0
  2  1  1  0
  3  2  2  0
  4  2  1  0
  5  4  1  0
  5  6  1  6
  7  8  2  0
  7  5  1  0
  9  7  1  0
 10  9  1  0
 10 11  1  1
 12 11  1  0
 13 12  1  0
 13 14  1  0
 14 15  1  0
 16 10  1  0
 17 16  2  0
 18 16  1  0
 19 18  1  0
 19 20  1  6
 20 21  1  0
 21 22  1  0
 22 26  1  0
 23 22  2  0
 24 19  1  0
 25 24  2  0
 27 24  1  0
M  END
$$$$
