NKE.pdb
     RDKit          3D

 27 26  0  0  1  0  0  0  0  0999 V2000
   13.3254  -12.7657  -16.0594 N   0  0  0  0  0  0  0  0  0  0  0  0
   13.8083  -11.8260  -15.1132 C   0  0  0  0  0  0  0  0  0  0  0  0
   12.9814  -11.1377  -14.4493 O   0  0  0  0  0  0  0  0  0  0  0  0
   15.2386  -11.5794  -14.8328 C   0  0  0  0  0  0  0  0  0  0  0  0
   16.1551  -12.4315  -15.6806 C   0  0  2  0  0  0  0  0  0  0  0  0
   16.1203  -13.7729  -15.1307 N   0  0  0  0  0  0  0  0  0  0  0  0
   17.5271  -11.9028  -15.5727 C   0  0  0  0  0  0  0  0  0  0  0  0
   18.1414  -11.9561  -14.4526 O   0  0  0  0  0  0  0  0  0  0  0  0
   18.2146  -11.3282  -16.6621 N   0  0  0  0  0  0  0  0  0  0  0  0
   19.5737  -10.8719  -16.5336 C   0  0  1  0  0  0  0  0  0  0  0  0
   20.3532  -11.3953  -17.7081 C   0  0  0  0  0  0  0  0  0  0  0  0
   20.7541  -12.8311  -17.5474 C   0  0  0  0  0  0  0  0  0  0  0  0
   21.6444  -13.2726  -18.6606 C   0  0  0  0  0  0  0  0  0  0  0  0
   22.0946  -14.7013  -18.5279 C   0  0  0  0  0  0  0  0  0  0  0  0
   22.9945  -15.1060  -19.5713 N   0  0  0  0  0  0  0  0  0  0  0  0
   19.6151   -9.3832  -16.5626 C   0  0  0  0  0  0  0  0  0  0  0  0
   18.8751   -8.7011  -17.3032 O   0  0  0  0  0  0  0  0  0  0  0  0
   20.5193   -8.6786  -15.7287 N   0  0  0  0  0  0  0  0  0  0  0  0
   20.6618   -7.2805  -15.5784 C   0  0  1  0  0  0  0  0  0  0  0  0
   21.4730   -6.7753  -14.4274 C   0  0  0  0  0  0  0  0  0  0  0  0
   21.4880   -5.2748  -14.3662 C   0  0  0  0  0  0  0  0  0  0  0  0
   22.3662   -4.8907  -13.1994 C   0  0  0  0  0  0  0  0  0  0  0  0
   22.9354   -5.7322  -12.4714 O   0  0  0  0  0  0  0  0  0  0  0  0
   21.1045   -6.6841  -16.8360 C   0  0  0  0  0  0  0  0  0  0  0  0
   21.9905   -7.2620  -17.5103 O   0  0  0  0  0  0  0  0  0  0  0  0
   22.5611   -3.5527  -12.9080 O   0  0  0  0  0  0  0  0  0  0  0  0
   20.5919   -5.4958  -17.3342 O   0  0  0  0  0  0  0  0  0  0  0  0
  2  1  1  0
  3  2  2  0
  4  2  1  0
  5  4  1  0
  5  6  1  1
  7  8  2  0
  7  5  1  0
  9  7  1  0
 10  9  1  0
 10 11  1  6
 12 11  1  0
 13 12  1  0
 13 14  1  0
 14 15  1  0
 16 10  1  0
 17 16  2  0
 18 16  1  0
 19 18  1  0
 19 20  1  1
 20 21  1  0
 21 22  1  0
 22 26  1  0
 23 22  2  0
 24 19  1  0
 25 24  2  0
 27 24  1  0
M  END
$$$$
