FVW.pdb
     RDKit          3D

 33 35  0  0  1  0  0  0  0  0999 V2000
    6.0490  -19.0315   19.9751 N   0  0  0  0  0  0  0  0  0  0  0  0
    5.7398  -17.8432   20.7790 C   0  0  1  0  0  0  0  0  0  0  0  0
    5.2245  -18.2839   22.1077 C   0  0  0  0  0  0  0  0  0  0  0  0
    3.7832  -18.6239   21.9910 C   0  0  0  0  0  0  0  0  0  0  0  0
    3.1602  -18.5520   20.7634 C   0  0  0  0  0  0  0  0  0  0  0  0
    1.8325  -18.8763   20.6507 C   0  0  0  0  0  0  0  0  0  0  0  0
    1.0878  -19.2766   21.7329 C   0  0  0  0  0  0  0  0  0  0  0  0
    1.7353  -19.3414   22.9562 C   0  0  0  0  0  0  0  0  0  0  0  0
    3.0651  -19.0216   23.0947 C   0  0  0  0  0  0  0  0  0  0  0  0
    6.9617  -17.0098   20.8246 C   0  0  0  0  0  0  0  0  0  0  0  0
    8.1113  -17.4750   20.5903 O   0  0  0  0  0  0  0  0  0  0  0  0
    7.3504  -13.5028   19.1583 C   0  0  0  0  0  0  0  0  0  0  0  0
    7.7758  -13.3877   20.6068 C   0  0  2  0  0  0  0  0  0  0  0  0
    9.0551  -12.5476   20.6472 C   0  0  0  0  0  0  0  0  0  0  0  0
    8.0680  -14.7509   21.1333 C   0  0  2  0  0  0  0  0  0  0  0  0
    6.9181  -15.6215   21.1380 N   0  0  0  0  0  0  0  0  0  0  0  0
    8.7226  -14.7970   22.4326 C   0  0  0  0  0  0  0  0  0  0  0  0
    8.9249  -13.7129   23.0424 O   0  0  0  0  0  0  0  0  0  0  0  0
    9.1522  -16.0138   23.0604 N   0  0  0  0  0  0  0  0  0  0  0  0
    9.8875  -15.9175   24.2927 C   0  0  1  0  0  0  0  0  0  0  0  0
    9.1060  -16.4638   25.4660 C   0  0  0  0  0  0  0  0  0  0  0  0
    7.8697  -15.6731   25.6317 C   0  0  0  0  0  0  0  0  0  0  0  0
    6.5903  -16.0635   25.3010 C   0  0  0  0  0  0  0  0  0  0  0  0
    5.7207  -15.0562   25.5980 N   0  0  0  0  0  0  0  0  0  0  0  0
    6.4159  -14.0235   26.1143 C   0  0  0  0  0  0  0  0  0  0  0  0
    5.9705  -12.7987   26.5554 C   0  0  0  0  0  0  0  0  0  0  0  0
    6.8958  -11.8991   27.0457 C   0  0  0  0  0  0  0  0  0  0  0  0
    8.2396  -12.2477   27.0820 C   0  0  0  0  0  0  0  0  0  0  0  0
    8.6578  -13.4731   26.6372 C   0  0  0  0  0  0  0  0  0  0  0  0
    7.7567  -14.3949   26.1408 C   0  0  0  0  0  0  0  0  0  0  0  0
   11.1962  -16.6303   24.1358 C   0  0  0  0  0  0  0  0  0  0  0  0
   11.4039  -17.2596   23.0782 O   0  0  0  0  0  0  0  0  0  0  0  0
   12.1685  -16.5988   25.1401 O   0  0  0  0  0  0  0  0  0  0  0  0
  2  3  1  0
  2  1  1  6
  4  3  1  0
  5  4  2  0
  6  5  1  0
  7  6  2  0
  7  8  1  0
  8  9  2  0
  9  4  1  0
 10 16  1  0
 10  2  1  0
 11 10  2  0
 13 14  1  6
 13 12  1  0
 15 13  1  0
 15 16  1  1
 17 15  1  0
 17 18  2  0
 19 17  1  0
 20 21  1  1
 20 19  1  0
 22 21  1  0
 22 30  1  0
 23 22  2  0
 24 23  1  0
 24 25  1  0
 25 26  1  0
 25 30  2  0
 26 27  2  0
 27 28  1  0
 29 28  2  0
 30 29  1  0
 31 20  1  0
 31 33  1  0
 32 31  2  0
M  END
$$$$
