FVW.pdb
     RDKit          3D

 33 35  0  0  1  0  0  0  0  0999 V2000
    4.9572  -17.4497   25.1701 N   0  0  0  0  0  0  0  0  0  0  0  0
    5.7082  -16.2061   24.9615 C   0  0  1  0  0  0  0  0  0  0  0  0
    6.0742  -15.6380   26.2913 C   0  0  0  0  0  0  0  0  0  0  0  0
    6.1747  -14.1596   26.1867 C   0  0  0  0  0  0  0  0  0  0  0  0
    5.0332  -13.3897   26.2520 C   0  0  0  0  0  0  0  0  0  0  0  0
    5.1241  -12.0240   26.1671 C   0  0  0  0  0  0  0  0  0  0  0  0
    6.3299  -11.3839   26.0170 C   0  0  0  0  0  0  0  0  0  0  0  0
    7.4633  -12.1784   25.9539 C   0  0  0  0  0  0  0  0  0  0  0  0
    7.3980  -13.5490   26.0367 C   0  0  0  0  0  0  0  0  0  0  0  0
    6.8522  -16.5233   24.0780 C   0  0  0  0  0  0  0  0  0  0  0  0
    7.4514  -17.6334   24.1133 O   0  0  0  0  0  0  0  0  0  0  0  0
    8.5697  -13.6051   21.2662 C   0  0  0  0  0  0  0  0  0  0  0  0
    8.4348  -15.0867   20.9852 C   0  0  2  0  0  0  0  0  0  0  0  0
    7.0663  -15.3110   20.3364 C   0  0  0  0  0  0  0  0  0  0  0  0
    8.4930  -15.8296   22.2758 C   0  0  2  0  0  0  0  0  0  0  0  0
    7.3530  -15.5902   23.1261 N   0  0  0  0  0  0  0  0  0  0  0  0
    9.7193  -15.6645   23.0424 C   0  0  0  0  0  0  0  0  0  0  0  0
    9.9248  -14.5622   23.6173 O   0  0  0  0  0  0  0  0  0  0  0  0
   10.7116  -16.6919   23.1804 N   0  0  0  0  0  0  0  0  0  0  0  0
   11.9677  -16.3437   23.7882 C   0  0  1  0  0  0  0  0  0  0  0  0
   12.2569  -17.1780   25.0154 C   0  0  0  0  0  0  0  0  0  0  0  0
   11.1752  -16.9772   26.0007 C   0  0  0  0  0  0  0  0  0  0  0  0
   10.1191  -17.8263   26.2507 C   0  0  0  0  0  0  0  0  0  0  0  0
    9.3307  -17.2899   27.2253 N   0  0  0  0  0  0  0  0  0  0  0  0
    9.8589  -16.1108   27.6082 C   0  0  0  0  0  0  0  0  0  0  0  0
    9.4148  -15.2158   28.5541 C   0  0  0  0  0  0  0  0  0  0  0  0
   10.1431  -14.0616   28.7620 C   0  0  0  0  0  0  0  0  0  0  0  0
   11.2945  -13.8335   28.0196 C   0  0  0  0  0  0  0  0  0  0  0  0
   11.7159  -14.7398   27.0840 C   0  0  0  0  0  0  0  0  0  0  0  0
   11.0091  -15.9038   26.8527 C   0  0  0  0  0  0  0  0  0  0  0  0
   13.0573  -16.4846   22.7694 C   0  0  0  0  0  0  0  0  0  0  0  0
   12.7708  -16.9843   21.6622 O   0  0  0  0  0  0  0  0  0  0  0  0
   14.3654  -16.0707   23.0389 O   0  0  0  0  0  0  0  0  0  0  0  0
  2  3  1  0
  2  1  1  1
  4  3  1  0
  5  4  2  0
  6  5  1  0
  7  6  2  0
  7  8  1  0
  8  9  2  0
  9  4  1  0
 10 16  1  0
 10  2  1  0
 11 10  2  0
 13 14  1  1
 13 12  1  0
 15 13  1  0
 15 16  1  1
 17 15  1  0
 17 18  2  0
 19 17  1  0
 20 21  1  1
 20 19  1  0
 22 21  1  0
 22 30  1  0
 23 22  2  0
 24 23  1  0
 24 25  1  0
 25 26  1  0
 25 30  2  0
 26 27  2  0
 27 28  1  0
 29 28  2  0
 30 29  1  0
 31 20  1  0
 31 33  1  0
 32 31  2  0
M  END
$$$$
