FVW.pdb
     RDKit          3D

 33 35  0  0  1  0  0  0  0  0999 V2000
    5.9579  -18.0009   19.7927 N   0  0  0  0  0  0  0  0  0  0  0  0
    6.8384  -16.8644   20.0874 C   0  0  1  0  0  0  0  0  0  0  0  0
    5.9975  -15.6911   20.4635 C   0  0  0  0  0  0  0  0  0  0  0  0
    6.8604  -14.4907   20.6087 C   0  0  0  0  0  0  0  0  0  0  0  0
    7.1938  -14.0355   21.8665 C   0  0  0  0  0  0  0  0  0  0  0  0
    7.9996  -12.9344   22.0034 C   0  0  0  0  0  0  0  0  0  0  0  0
    8.4952  -12.2567   20.9166 C   0  0  0  0  0  0  0  0  0  0  0  0
    8.1467  -12.7327   19.6628 C   0  0  0  0  0  0  0  0  0  0  0  0
    7.3407  -13.8343   19.4996 C   0  0  0  0  0  0  0  0  0  0  0  0
    7.7990  -17.3060   21.1228 C   0  0  0  0  0  0  0  0  0  0  0  0
    7.4469  -17.9629   22.1412 O   0  0  0  0  0  0  0  0  0  0  0  0
   11.1938  -19.0511   20.3439 C   0  0  0  0  0  0  0  0  0  0  0  0
   11.4614  -17.9012   21.2917 C   0  0  2  0  0  0  0  0  0  0  0  0
   12.4486  -18.3966   22.3519 C   0  0  0  0  0  0  0  0  0  0  0  0
   10.1836  -17.5150   21.9543 C   0  0  2  0  0  0  0  0  0  0  0  0
    9.1903  -17.0158   21.0356 N   0  0  0  0  0  0  0  0  0  0  0  0
   10.3098  -16.6036   23.0822 C   0  0  0  0  0  0  0  0  0  0  0  0
   10.8481  -15.4806   22.8902 O   0  0  0  0  0  0  0  0  0  0  0  0
    9.8531  -16.9144   24.4067 N   0  0  0  0  0  0  0  0  0  0  0  0
   10.5420  -16.3168   25.5188 C   0  0  1  0  0  0  0  0  0  0  0  0
   10.0751  -14.9036   25.7847 C   0  0  0  0  0  0  0  0  0  0  0  0
    8.6128  -14.9099   25.9909 C   0  0  0  0  0  0  0  0  0  0  0  0
    7.7646  -15.9868   25.8509 C   0  0  0  0  0  0  0  0  0  0  0  0
    6.4875  -15.5927   26.1209 N   0  0  0  0  0  0  0  0  0  0  0  0
    6.4967  -14.2817   26.4325 C   0  0  0  0  0  0  0  0  0  0  0  0
    5.4523  -13.4529   26.7726 C   0  0  0  0  0  0  0  0  0  0  0  0
    5.7259  -12.1283   27.0491 C   0  0  0  0  0  0  0  0  0  0  0  0
    7.0345  -11.6684   26.9784 C   0  0  0  0  0  0  0  0  0  0  0  0
    8.0565  -12.5132   26.6377 C   0  0  0  0  0  0  0  0  0  0  0  0
    7.8153  -13.8437   26.3553 C   0  0  0  0  0  0  0  0  0  0  0  0
   10.3590  -17.1832   26.7275 C   0  0  0  0  0  0  0  0  0  0  0  0
    9.6039  -18.1728   26.6371 O   0  0  0  0  0  0  0  0  0  0  0  0
   11.0118  -16.9020   27.9316 O   0  0  0  0  0  0  0  0  0  0  0  0
  2  3  1  0
  2  1  1  1
  4  3  1  0
  5  4  2  0
  6  5  1  0
  7  6  2  0
  7  8  1  0
  8  9  2  0
  9  4  1  0
 10 16  1  0
 10  2  1  0
 11 10  2  0
 13 14  1  1
 13 12  1  0
 15 13  1  0
 15 16  1  6
 17 15  1  0
 17 18  2  0
 19 17  1  0
 20 21  1  1
 20 19  1  0
 22 21  1  0
 22 30  1  0
 23 22  2  0
 24 23  1  0
 24 25  1  0
 25 26  1  0
 25 30  2  0
 26 27  2  0
 27 28  1  0
 29 28  2  0
 30 29  1  0
 31 20  1  0
 31 33  1  0
 32 31  2  0
M  END
$$$$
