FVW.pdb
     RDKit          3D

 33 35  0  0  1  0  0  0  0  0999 V2000
    7.4835  -17.1805   17.6543 N   0  0  0  0  0  0  0  0  0  0  0  0
    7.9417  -16.2306   18.6750 C   0  0  1  0  0  0  0  0  0  0  0  0
    7.0373  -15.0443   18.6665 C   0  0  0  0  0  0  0  0  0  0  0  0
    7.3726  -14.1588   19.8111 C   0  0  0  0  0  0  0  0  0  0  0  0
    8.1985  -13.0723   19.6170 C   0  0  0  0  0  0  0  0  0  0  0  0
    8.5005  -12.2467   20.6695 C   0  0  0  0  0  0  0  0  0  0  0  0
    8.0028  -12.4652   21.9307 C   0  0  0  0  0  0  0  0  0  0  0  0
    7.1750  -13.5631   22.1016 C   0  0  0  0  0  0  0  0  0  0  0  0
    6.8575  -14.4052   21.0624 C   0  0  0  0  0  0  0  0  0  0  0  0
    8.0075  -16.9604   19.9606 C   0  0  0  0  0  0  0  0  0  0  0  0
    7.2320  -17.9159   20.2407 O   0  0  0  0  0  0  0  0  0  0  0  0
    8.7162  -19.6127   21.0660 C   0  0  0  0  0  0  0  0  0  0  0  0
    9.8139  -18.7993   21.7185 C   0  0  2  0  0  0  0  0  0  0  0  0
   10.2529  -19.5450   22.9816 C   0  0  0  0  0  0  0  0  0  0  0  0
    9.2648  -17.4679   22.1015 C   0  0  2  0  0  0  0  0  0  0  0  0
    8.9557  -16.6289   20.9699 N   0  0  0  0  0  0  0  0  0  0  0  0
   10.0523  -16.7164   23.0678 C   0  0  0  0  0  0  0  0  0  0  0  0
   11.2065  -16.3350   22.7358 O   0  0  0  0  0  0  0  0  0  0  0  0
    9.5853  -16.3844   24.3835 N   0  0  0  0  0  0  0  0  0  0  0  0
   10.5341  -15.8552   25.3260 C   0  0  1  0  0  0  0  0  0  0  0  0
    9.9254  -14.7900   26.2093 C   0  0  0  0  0  0  0  0  0  0  0  0
    8.4626  -14.7734   26.0064 C   0  0  0  0  0  0  0  0  0  0  0  0
    7.6470  -15.8634   25.7933 C   0  0  0  0  0  0  0  0  0  0  0  0
    6.3592  -15.4406   25.6452 N   0  0  0  0  0  0  0  0  0  0  0  0
    6.3295  -14.0981   25.7589 C   0  0  0  0  0  0  0  0  0  0  0  0
    5.2618  -13.2339   25.6796 C   0  0  0  0  0  0  0  0  0  0  0  0
    5.4964  -11.8819   25.8302 C   0  0  0  0  0  0  0  0  0  0  0  0
    6.7903  -11.4306   26.0559 C   0  0  0  0  0  0  0  0  0  0  0  0
    7.8362  -12.3109   26.1308 C   0  0  0  0  0  0  0  0  0  0  0  0
    7.6341  -13.6695   25.9842 C   0  0  0  0  0  0  0  0  0  0  0  0
   11.0897  -16.9822   26.1423 C   0  0  0  0  0  0  0  0  0  0  0  0
   12.0377  -16.7401   26.9171 O   0  0  0  0  0  0  0  0  0  0  0  0
   10.5686  -18.2763   26.0485 O   0  0  0  0  0  0  0  0  0  0  0  0
  2  3  1  0
  2  1  1  6
  4  3  1  0
  5  4  2  0
  6  5  1  0
  7  6  2  0
  7  8  1  0
  8  9  2  0
  9  4  1  0
 10 16  1  0
 10  2  1  0
 11 10  2  0
 13 14  1  1
 13 12  1  0
 15 13  1  0
 15 16  1  6
 17 15  1  0
 17 18  2  0
 19 17  1  0
 20 21  1  1
 20 19  1  0
 22 21  1  0
 22 30  1  0
 23 22  2  0
 24 23  1  0
 24 25  1  0
 25 26  1  0
 25 30  2  0
 26 27  2  0
 27 28  1  0
 29 28  2  0
 30 29  1  0
 31 20  1  0
 31 33  1  0
 32 31  2  0
M  END
$$$$
