FVW.pdb
     RDKit          3D

 33 35  0  0  1  0  0  0  0  0999 V2000
    9.9153  -18.4191   17.7829 N   0  0  0  0  0  0  0  0  0  0  0  0
    9.1697  -18.3607   19.0456 C   0  0  1  0  0  0  0  0  0  0  0  0
    9.4506  -19.6005   19.8262 C   0  0  0  0  0  0  0  0  0  0  0  0
    9.1257  -20.7903   18.9982 C   0  0  0  0  0  0  0  0  0  0  0  0
   10.1401  -21.4990   18.3907 C   0  0  0  0  0  0  0  0  0  0  0  0
    9.8439  -22.6044   17.6351 C   0  0  0  0  0  0  0  0  0  0  0  0
    8.5533  -23.0392   17.4580 C   0  0  0  0  0  0  0  0  0  0  0  0
    7.5508  -22.3112   18.0783 C   0  0  0  0  0  0  0  0  0  0  0  0
    7.8222  -21.1999   18.8406 C   0  0  0  0  0  0  0  0  0  0  0  0
    9.5403  -17.0968   19.7201 C   0  0  0  0  0  0  0  0  0  0  0  0
   10.6998  -16.6035   19.6506 O   0  0  0  0  0  0  0  0  0  0  0  0
    7.4610  -13.7533   19.6017 C   0  0  0  0  0  0  0  0  0  0  0  0
    7.7276  -14.1308   21.0434 C   0  0  2  0  0  0  0  0  0  0  0  0
    8.0878  -12.8481   21.7977 C   0  0  0  0  0  0  0  0  0  0  0  0
    8.8851  -15.0683   21.0904 C   0  0  2  0  0  0  0  0  0  0  0  0
    8.6065  -16.3523   20.4955 N   0  0  0  0  0  0  0  0  0  0  0  0
    9.4901  -15.2564   22.4008 C   0  0  0  0  0  0  0  0  0  0  0  0
   10.1043  -14.2883   22.9238 O   0  0  0  0  0  0  0  0  0  0  0  0
    9.4258  -16.4887   23.1335 N   0  0  0  0  0  0  0  0  0  0  0  0
    9.8940  -16.4939   24.4933 C   0  0  1  0  0  0  0  0  0  0  0  0
    9.6721  -15.1637   25.1768 C   0  0  0  0  0  0  0  0  0  0  0  0
    8.2253  -14.9745   25.4051 C   0  0  0  0  0  0  0  0  0  0  0  0
    7.2211  -15.8751   25.1237 C   0  0  0  0  0  0  0  0  0  0  0  0
    6.0191  -15.3327   25.4705 N   0  0  0  0  0  0  0  0  0  0  0  0
    6.2299  -14.0991   25.9703 C   0  0  0  0  0  0  0  0  0  0  0  0
    5.3249  -13.1783   26.4459 C   0  0  0  0  0  0  0  0  0  0  0  0
    5.7991  -11.9671   26.9084 C   0  0  0  0  0  0  0  0  0  0  0  0
    7.1636  -11.7093   26.8832 C   0  0  0  0  0  0  0  0  0  0  0  0
    8.0441  -12.6423   26.4050 C   0  0  0  0  0  0  0  0  0  0  0  0
    7.6009  -13.8633   25.9352 C   0  0  0  0  0  0  0  0  0  0  0  0
    9.2163  -17.6039   25.2374 C   0  0  0  0  0  0  0  0  0  0  0  0
    8.3327  -18.2586   24.6472 O   0  0  0  0  0  0  0  0  0  0  0  0
    9.5557  -17.9093   26.5590 O   0  0  0  0  0  0  0  0  0  0  0  0
  2  3  1  0
  2  1  1  6
  4  3  1  0
  5  4  2  0
  6  5  1  0
  7  6  2  0
  7  8  1  0
  8  9  2  0
  9  4  1  0
 10 16  1  0
 10  2  1  0
 11 10  2  0
 13 14  1  1
 13 12  1  0
 15 13  1  0
 15 16  1  1
 17 15  1  0
 17 18  2  0
 19 17  1  0
 20 21  1  1
 20 19  1  0
 22 21  1  0
 22 30  1  0
 23 22  2  0
 24 23  1  0
 24 25  1  0
 25 26  1  0
 25 30  2  0
 26 27  2  0
 27 28  1  0
 29 28  2  0
 30 29  1  0
 31 20  1  0
 31 33  1  0
 32 31  2  0
M  END
$$$$
