FVW.pdb
     RDKit          3D

 33 35  0  0  1  0  0  0  0  0999 V2000
   10.3802  -18.3768   17.8009 N   0  0  0  0  0  0  0  0  0  0  0  0
    9.5027  -18.4196   18.9767 C   0  0  1  0  0  0  0  0  0  0  0  0
    9.7270  -19.7072   19.6958 C   0  0  0  0  0  0  0  0  0  0  0  0
    9.2747  -20.8355   18.8420 C   0  0  0  0  0  0  0  0  0  0  0  0
    7.9267  -21.0759   18.6829 C   0  0  0  0  0  0  0  0  0  0  0  0
    7.5062  -22.1098   17.8862 C   0  0  0  0  0  0  0  0  0  0  0  0
    8.3923  -22.9284   17.2298 C   0  0  0  0  0  0  0  0  0  0  0  0
    9.7419  -22.6675   17.4047 C   0  0  0  0  0  0  0  0  0  0  0  0
   10.1881  -21.6372   18.1980 C   0  0  0  0  0  0  0  0  0  0  0  0
    9.7702  -17.2012   19.7727 C   0  0  0  0  0  0  0  0  0  0  0  0
   10.9346  -16.7499   19.9550 O   0  0  0  0  0  0  0  0  0  0  0  0
    7.1839  -14.0596   19.9154 C   0  0  0  0  0  0  0  0  0  0  0  0
    7.6923  -14.4257   21.2938 C   0  0  2  0  0  0  0  0  0  0  0  0
    8.0374  -13.1228   22.0200 C   0  0  0  0  0  0  0  0  0  0  0  0
    8.9267  -15.2482   21.1497 C   0  0  2  0  0  0  0  0  0  0  0  0
    8.7243  -16.4559   20.3878 N   0  0  0  0  0  0  0  0  0  0  0  0
    9.6225  -15.5618   22.3892 C   0  0  0  0  0  0  0  0  0  0  0  0
   10.7236  -14.9944   22.6203 O   0  0  0  0  0  0  0  0  0  0  0  0
    9.1218  -16.4852   23.3669 N   0  0  0  0  0  0  0  0  0  0  0  0
    9.7916  -16.5562   24.6376 C   0  0  1  0  0  0  0  0  0  0  0  0
    9.7510  -15.2381   25.3769 C   0  0  0  0  0  0  0  0  0  0  0  0
    8.3435  -14.8755   25.6388 C   0  0  0  0  0  0  0  0  0  0  0  0
    7.2512  -15.7134   25.5801 C   0  0  0  0  0  0  0  0  0  0  0  0
    6.1244  -15.0068   25.8806 N   0  0  0  0  0  0  0  0  0  0  0  0
    6.4702  -13.7288   26.1320 C   0  0  0  0  0  0  0  0  0  0  0  0
    5.6788  -12.6564   26.4739 C   0  0  0  0  0  0  0  0  0  0  0  0
    6.2821  -11.4319   26.6795 C   0  0  0  0  0  0  0  0  0  0  0  0
    7.6586  -11.3125   26.5382 C   0  0  0  0  0  0  0  0  0  0  0  0
    8.4244  -12.3949   26.1973 C   0  0  0  0  0  0  0  0  0  0  0  0
    7.8506  -13.6333   25.9848 C   0  0  0  0  0  0  0  0  0  0  0  0
    9.1754  -17.6524   25.4523 C   0  0  0  0  0  0  0  0  0  0  0  0
    8.2181  -18.2864   24.9631 O   0  0  0  0  0  0  0  0  0  0  0  0
    9.6510  -17.9675   26.7288 O   0  0  0  0  0  0  0  0  0  0  0  0
  2  3  1  0
  2  1  1  6
  4  3  1  0
  5  4  2  0
  6  5  1  0
  7  6  2  0
  7  8  1  0
  8  9  2  0
  9  4  1  0
 10 16  1  0
 10  2  1  0
 11 10  2  0
 13 14  1  1
 13 12  1  0
 15 13  1  0
 15 16  1  1
 17 15  1  0
 17 18  2  0
 19 17  1  0
 20 21  1  1
 20 19  1  0
 22 21  1  0
 22 30  1  0
 23 22  2  0
 24 23  1  0
 24 25  1  0
 25 26  1  0
 25 30  2  0
 26 27  2  0
 27 28  1  0
 29 28  2  0
 30 29  1  0
 31 20  1  0
 31 33  1  0
 32 31  2  0
M  END
$$$$
