FVW.pdb
     RDKit          3D

 33 35  0  0  1  0  0  0  0  0999 V2000
    6.5810  -18.0385   20.2829 N   0  0  0  0  0  0  0  0  0  0  0  0
    7.3936  -16.9382   20.8150 C   0  0  1  0  0  0  0  0  0  0  0  0
    6.4834  -15.8949   21.3703 C   0  0  0  0  0  0  0  0  0  0  0  0
    7.0698  -14.5507   21.1339 C   0  0  0  0  0  0  0  0  0  0  0  0
    6.4334  -13.4305   21.6243 C   0  0  0  0  0  0  0  0  0  0  0  0
    6.9785  -12.1893   21.4173 C   0  0  0  0  0  0  0  0  0  0  0  0
    8.1541  -12.0174   20.7285 C   0  0  0  0  0  0  0  0  0  0  0  0
    8.7756  -13.1576   20.2453 C   0  0  0  0  0  0  0  0  0  0  0  0
    8.2492  -14.4126   20.4398 C   0  0  0  0  0  0  0  0  0  0  0  0
    8.3463  -17.5212   21.7856 C   0  0  0  0  0  0  0  0  0  0  0  0
    8.0167  -18.4239   22.6037 O   0  0  0  0  0  0  0  0  0  0  0  0
   12.1362  -18.4928   21.1302 C   0  0  0  0  0  0  0  0  0  0  0  0
   12.0560  -17.5894   22.3425 C   0  0  2  0  0  0  0  0  0  0  0  0
   12.9635  -18.1841   23.4227 C   0  0  0  0  0  0  0  0  0  0  0  0
   10.6508  -17.5716   22.8385 C   0  0  2  0  0  0  0  0  0  0  0  0
    9.7039  -17.0980   21.8591 N   0  0  0  0  0  0  0  0  0  0  0  0
   10.4375  -16.8791   24.1009 C   0  0  0  0  0  0  0  0  0  0  0  0
   10.6073  -15.6310   24.1379 O   0  0  0  0  0  0  0  0  0  0  0  0
   10.0429  -17.5417   25.3111 N   0  0  0  0  0  0  0  0  0  0  0  0
   10.1471  -16.8140   26.5472 C   0  0  1  0  0  0  0  0  0  0  0  0
    8.8226  -16.7288   27.2711 C   0  0  0  0  0  0  0  0  0  0  0  0
    7.8769  -15.9413   26.4548 C   0  0  0  0  0  0  0  0  0  0  0  0
    6.8229  -16.4289   25.7130 C   0  0  0  0  0  0  0  0  0  0  0  0
    6.1889  -15.3919   25.0950 N   0  0  0  0  0  0  0  0  0  0  0  0
    6.8146  -14.2448   25.4247 C   0  0  0  0  0  0  0  0  0  0  0  0
    6.5365  -12.9523   25.0434 C   0  0  0  0  0  0  0  0  0  0  0  0
    7.3395  -11.9370   25.5231 C   0  0  0  0  0  0  0  0  0  0  0  0
    8.3975  -12.2406   26.3701 C   0  0  0  0  0  0  0  0  0  0  0  0
    8.6536  -13.5350   26.7349 C   0  0  0  0  0  0  0  0  0  0  0  0
    7.8687  -14.5730   26.2718 C   0  0  0  0  0  0  0  0  0  0  0  0
   11.1920  -17.4594   27.4055 C   0  0  0  0  0  0  0  0  0  0  0  0
   11.7103  -18.5228   27.0077 O   0  0  0  0  0  0  0  0  0  0  0  0
   11.5860  -16.8952   28.6228 O   0  0  0  0  0  0  0  0  0  0  0  0
  2  3  1  0
  2  1  1  1
  4  3  1  0
  5  4  2  0
  6  5  1  0
  7  6  2  0
  7  8  1  0
  8  9  2  0
  9  4  1  0
 10 16  1  0
 10  2  1  0
 11 10  2  0
 13 14  1  1
 13 12  1  0
 15 13  1  0
 15 16  1  6
 17 15  1  0
 17 18  2  0
 19 17  1  0
 20 21  1  1
 20 19  1  0
 22 21  1  0
 22 30  1  0
 23 22  2  0
 24 23  1  0
 24 25  1  0
 25 26  1  0
 25 30  2  0
 26 27  2  0
 27 28  1  0
 29 28  2  0
 30 29  1  0
 31 20  1  0
 31 33  1  0
 32 31  2  0
M  END
$$$$
