NCA.pdb
     RDKit          3D

 20 19  0  0  1  0  0  0  0  0999 V2000
   17.2646  -12.0004  -18.4971 N   0  0  0  0  0  0  0  0  0  0  0  0
   17.9237  -12.7622  -17.4683 C   0  0  0  0  0  0  0  0  0  0  0  0
   17.5153  -13.9136  -17.2811 O   0  0  0  0  0  0  0  0  0  0  0  0
   19.0038  -12.1125  -16.7463 C   0  0  0  0  0  0  0  0  0  0  0  0
   19.3378  -10.6994  -17.1253 C   0  0  2  0  0  0  0  0  0  0  0  0
   20.3221  -10.8039  -18.2454 N   0  0  0  0  0  0  0  0  0  0  0  0
   19.9988   -9.9101  -16.0829 C   0  0  0  0  0  0  0  0  0  0  0  0
   19.3546   -9.7296  -14.9876 O   0  0  0  0  0  0  0  0  0  0  0  0
   21.2737   -9.3268  -16.1473 N   0  0  0  0  0  0  0  0  0  0  0  0
   21.8490   -8.6398  -14.9843 C   0  0  1  0  0  0  0  0  0  0  0  0
   23.3194   -9.0103  -14.8908 C   0  0  0  0  0  0  0  0  0  0  0  0
   23.5395  -10.5658  -14.0172 S   0  0  0  0  0  0  0  0  0  0  0  0
   21.6214   -7.1925  -15.1880 C   0  0  0  0  0  0  0  0  0  0  0  0
   21.9451   -6.6663  -16.3010 O   0  0  0  0  0  0  0  0  0  0  0  0
   19.6937   -4.3061  -13.8305 C   0  0  0  0  0  0  0  0  0  0  0  0
   20.8723   -4.9031  -14.5613 C   0  0  2  0  0  0  0  0  0  0  0  0
   21.0569   -6.3073  -14.2302 N   0  0  0  0  0  0  0  0  0  0  0  0
   22.0735   -4.1571  -14.1291 C   0  0  0  0  0  0  0  0  0  0  0  0
   22.7553   -4.5809  -13.1705 O   0  0  0  0  0  0  0  0  0  0  0  0
   22.4513   -2.9946  -14.7744 O   0  0  0  0  0  0  0  0  0  0  0  0
  1  2  1  0
  2  3  2  0
  4  2  1  0
  5  7  1  0
  5  4  1  0
  5  6  1  6
  7  8  2  0
  9 10  1  0
  9  7  1  0
 10 13  1  0
 11 12  1  0
 10 11  1  6
 13 17  1  0
 13 14  2  0
 16 15  1  1
 16 18  1  0
 17 16  1  0
 18 19  2  0
 18 20  1  0
M  END
$$$$
