NCA.pdb
     RDKit          3D

 20 19  0  0  1  0  0  0  0  0999 V2000
   14.2028  -13.5790  -14.1223 N   0  0  0  0  0  0  0  0  0  0  0  0
   15.1714  -12.5286  -13.9438 C   0  0  0  0  0  0  0  0  0  0  0  0
   16.2317  -12.6379  -14.5694 O   0  0  0  0  0  0  0  0  0  0  0  0
   14.8173  -11.4404  -13.0490 C   0  0  0  0  0  0  0  0  0  0  0  0
   15.6826  -10.2146  -13.0740 C   0  0  2  0  0  0  0  0  0  0  0  0
   17.0235  -10.6572  -12.5835 N   0  0  0  0  0  0  0  0  0  0  0  0
   15.2645   -9.1335  -12.1779 C   0  0  0  0  0  0  0  0  0  0  0  0
   14.0652   -8.6956  -12.3078 O   0  0  0  0  0  0  0  0  0  0  0  0
   16.0362   -8.5198  -11.1791 N   0  0  0  0  0  0  0  0  0  0  0  0
   15.4597   -7.4898  -10.3061 C   0  0  1  0  0  0  0  0  0  0  0  0
   16.1291   -7.5883   -8.9458 C   0  0  0  0  0  0  0  0  0  0  0  0
   15.6577   -6.2102   -7.8923 S   0  0  0  0  0  0  0  0  0  0  0  0
   15.6821   -6.1896  -10.9755 C   0  0  0  0  0  0  0  0  0  0  0  0
   16.8512   -5.8970  -11.3850 O   0  0  0  0  0  0  0  0  0  0  0  0
   13.8048   -3.3901  -12.6097 C   0  0  0  0  0  0  0  0  0  0  0  0
   15.0179   -3.9957  -11.9453 C   0  0  2  0  0  0  0  0  0  0  0  0
   14.6831   -5.2072  -11.2134 N   0  0  0  0  0  0  0  0  0  0  0  0
   15.5319   -2.9947  -10.9861 C   0  0  0  0  0  0  0  0  0  0  0  0
   15.4115   -3.1940   -9.7576 O   0  0  0  0  0  0  0  0  0  0  0  0
   16.1447   -1.8394  -11.4336 O   0  0  0  0  0  0  0  0  0  0  0  0
  1  2  1  0
  2  3  2  0
  4  2  1  0
  5  7  1  0
  5  4  1  0
  5  6  1  1
  7  8  2  0
  9 10  1  0
  9  7  1  0
 10 13  1  0
 11 12  1  0
 10 11  1  1
 13 17  1  0
 13 14  2  0
 16 15  1  1
 16 18  1  0
 17 16  1  0
 18 19  2  0
 18 20  1  0
M  END
$$$$
