NCA.pdb
     RDKit          3D

 20 19  0  0  1  0  0  0  0  0999 V2000
   16.1839  -14.1008  -13.5635 N   0  0  0  0  0  0  0  0  0  0  0  0
   16.1283  -12.8391  -14.2551 C   0  0  0  0  0  0  0  0  0  0  0  0
   15.0109  -12.3292  -14.3926 O   0  0  0  0  0  0  0  0  0  0  0  0
   17.3840  -12.2816  -14.7268 C   0  0  0  0  0  0  0  0  0  0  0  0
   17.3701  -11.5608  -16.0430 C   0  0  2  0  0  0  0  0  0  0  0  0
   17.5423  -12.6192  -17.0844 N   0  0  0  0  0  0  0  0  0  0  0  0
   18.4672  -10.6121  -16.2500 C   0  0  0  0  0  0  0  0  0  0  0  0
   19.6379  -11.1024  -16.4397 O   0  0  0  0  0  0  0  0  0  0  0  0
   18.3789   -9.2115  -16.2688 N   0  0  0  0  0  0  0  0  0  0  0  0
   19.5286   -8.3881  -16.6634 C   0  0  1  0  0  0  0  0  0  0  0  0
   19.1998   -7.7111  -17.9831 C   0  0  0  0  0  0  0  0  0  0  0  0
   17.5705   -6.9535  -17.9325 S   0  0  0  0  0  0  0  0  0  0  0  0
   19.7688   -7.4335  -15.5592 C   0  0  0  0  0  0  0  0  0  0  0  0
   18.7790   -7.0169  -14.8759 O   0  0  0  0  0  0  0  0  0  0  0  0
   22.5470   -5.9956  -13.4773 C   0  0  0  0  0  0  0  0  0  0  0  0
   21.1456   -6.0238  -14.0387 C   0  0  2  0  0  0  0  0  0  0  0  0
   21.0388   -6.9235  -15.1766 N   0  0  0  0  0  0  0  0  0  0  0  0
   20.8333   -4.6522  -14.4939 C   0  0  0  0  0  0  0  0  0  0  0  0
   20.7994   -4.3974  -15.7175 O   0  0  0  0  0  0  0  0  0  0  0  0
   20.5781   -3.6471  -13.5799 O   0  0  0  0  0  0  0  0  0  0  0  0
  1  2  1  0
  2  3  2  0
  4  2  1  0
  5  7  1  0
  5  4  1  0
  5  6  1  6
  7  8  2  0
  9 10  1  0
  9  7  1  0
 10 13  1  0
 11 12  1  0
 10 11  1  6
 13 17  1  0
 13 14  2  0
 16 15  1  6
 16 18  1  0
 17 16  1  0
 18 19  2  0
 18 20  1  0
M  END
$$$$
