NCA.pdb
     RDKit          3D

 20 19  0  0  1  0  0  0  0  0999 V2000
   23.9599  -11.6341  -19.8933 N   0  0  0  0  0  0  0  0  0  0  0  0
   23.7325  -10.2463  -20.2024 C   0  0  0  0  0  0  0  0  0  0  0  0
   24.4504   -9.7463  -21.0754 O   0  0  0  0  0  0  0  0  0  0  0  0
   22.6851   -9.5620  -19.4643 C   0  0  0  0  0  0  0  0  0  0  0  0
   21.9898  -10.3289  -18.3779 C   0  0  2  0  0  0  0  0  0  0  0  0
   21.0056  -11.2126  -19.0743 N   0  0  0  0  0  0  0  0  0  0  0  0
   21.2083   -9.5190  -17.4401 C   0  0  0  0  0  0  0  0  0  0  0  0
   19.9826   -9.2899  -17.7440 O   0  0  0  0  0  0  0  0  0  0  0  0
   21.6540   -8.9633  -16.2308 N   0  0  0  0  0  0  0  0  0  0  0  0
   20.7229   -8.2753  -15.3279 C   0  0  1  0  0  0  0  0  0  0  0  0
   20.8434   -8.9032  -13.9496 C   0  0  0  0  0  0  0  0  0  0  0  0
   19.9180   -7.9634  -12.7283 S   0  0  0  0  0  0  0  0  0  0  0  0
   21.0861   -6.8416  -15.3521 C   0  0  0  0  0  0  0  0  0  0  0  0
   22.3029   -6.5090  -15.1820 O   0  0  0  0  0  0  0  0  0  0  0  0
   19.5853   -3.4175  -15.9405 C   0  0  0  0  0  0  0  0  0  0  0  0
   20.6599   -4.3958  -15.5308 C   0  0  2  0  0  0  0  0  0  0  0  0
   20.1775   -5.7678  -15.5551 N   0  0  0  0  0  0  0  0  0  0  0  0
   21.0470   -4.0590  -14.1441 C   0  0  0  0  0  0  0  0  0  0  0  0
   20.5627   -4.7062  -13.1903 O   0  0  0  0  0  0  0  0  0  0  0  0
   21.9397   -3.0345  -13.8906 O   0  0  0  0  0  0  0  0  0  0  0  0
  1  2  1  0
  2  3  2  0
  4  2  1  0
  5  7  1  0
  5  4  1  0
  5  6  1  6
  7  8  2  0
  9 10  1  0
  9  7  1  0
 10 13  1  0
 11 12  1  0
 10 11  1  1
 13 17  1  0
 13 14  2  0
 16 15  1  1
 16 18  1  0
 17 16  1  0
 18 19  2  0
 18 20  1  0
M  END
$$$$
