NCA.pdb
     RDKit          3D

 20 19  0  0  1  0  0  0  0  0999 V2000
   17.0133  -11.5151  -16.4920 N   0  0  0  0  0  0  0  0  0  0  0  0
   17.4970  -11.6656  -15.1442 C   0  0  0  0  0  0  0  0  0  0  0  0
   17.1919  -12.7096  -14.5573 O   0  0  0  0  0  0  0  0  0  0  0  0
   18.2961  -10.5824  -14.5980 C   0  0  0  0  0  0  0  0  0  0  0  0
   18.5718   -9.4078  -15.4904 C   0  0  2  0  0  0  0  0  0  0  0  0
   19.7362   -9.8092  -16.3374 N   0  0  0  0  0  0  0  0  0  0  0  0
   18.9802   -8.1802  -14.8028 C   0  0  0  0  0  0  0  0  0  0  0  0
   18.1327   -7.6495  -13.9984 O   0  0  0  0  0  0  0  0  0  0  0  0
   20.2101   -7.5150  -14.9236 N   0  0  0  0  0  0  0  0  0  0  0  0
   20.5192   -6.3436  -14.0942 C   0  0  1  0  0  0  0  0  0  0  0  0
   21.9872   -6.4067  -13.7080 C   0  0  0  0  0  0  0  0  0  0  0  0
   22.4954   -4.9093  -12.8531 S   0  0  0  0  0  0  0  0  0  0  0  0
   20.1755   -5.1497  -14.8969 C   0  0  0  0  0  0  0  0  0  0  0  0
   20.5622   -5.0866  -16.1080 O   0  0  0  0  0  0  0  0  0  0  0  0
   17.9729   -2.0995  -14.8297 C   0  0  0  0  0  0  0  0  0  0  0  0
   19.1220   -2.9378  -15.3360 C   0  0  2  0  0  0  0  0  0  0  0  0
   19.4302   -4.0332  -14.4302 N   0  0  0  0  0  0  0  0  0  0  0  0
   20.3022   -2.0508  -15.4186 C   0  0  0  0  0  0  0  0  0  0  0  0
   21.2123   -2.1485  -14.5669 O   0  0  0  0  0  0  0  0  0  0  0  0
   20.4101   -1.1134  -16.4287 O   0  0  0  0  0  0  0  0  0  0  0  0
  1  2  1  0
  2  3  2  0
  4  2  1  0
  5  7  1  0
  5  4  1  0
  5  6  1  6
  7  8  2  0
  9 10  1  0
  9  7  1  0
 10 13  1  0
 11 12  1  0
 10 11  1  6
 13 17  1  0
 13 14  2  0
 16 15  1  1
 16 18  1  0
 17 16  1  0
 18 19  2  0
 18 20  1  0
M  END
$$$$
