NCA.pdb
     RDKit          3D

 20 19  0  0  1  0  0  0  0  0999 V2000
   15.7962  -12.8748  -17.8754 N   0  0  0  0  0  0  0  0  0  0  0  0
   15.0272  -12.4137  -16.7488 C   0  0  0  0  0  0  0  0  0  0  0  0
   13.8026  -12.5693  -16.8103 O   0  0  0  0  0  0  0  0  0  0  0  0
   15.7559  -11.8101  -15.6467 C   0  0  0  0  0  0  0  0  0  0  0  0
   17.2483  -11.7160  -15.7728 C   0  0  2  0  0  0  0  0  0  0  0  0
   17.7878  -12.9379  -15.1018 N   0  0  0  0  0  0  0  0  0  0  0  0
   17.8650  -10.5770  -15.0881 C   0  0  0  0  0  0  0  0  0  0  0  0
   17.7333  -10.5187  -13.8128 O   0  0  0  0  0  0  0  0  0  0  0  0
   18.5956   -9.5334  -15.6771 N   0  0  0  0  0  0  0  0  0  0  0  0
   19.1960   -8.4750  -14.8556 C   0  0  1  0  0  0  0  0  0  0  0  0
   20.6999   -8.5005  -15.0697 C   0  0  0  0  0  0  0  0  0  0  0  0
   21.4891   -7.0924  -14.2786 S   0  0  0  0  0  0  0  0  0  0  0  0
   18.5666   -7.2028  -15.2719 C   0  0  0  0  0  0  0  0  0  0  0  0
   18.5216   -6.9114  -16.5102 O   0  0  0  0  0  0  0  0  0  0  0  0
   16.2280   -4.5871  -13.9821 C   0  0  0  0  0  0  0  0  0  0  0  0
   17.2796   -5.0989  -14.9369 C   0  0  2  0  0  0  0  0  0  0  0  0
   17.9882   -6.2470  -14.3935 N   0  0  0  0  0  0  0  0  0  0  0  0
   18.2500   -4.0021  -15.1415 C   0  0  0  0  0  0  0  0  0  0  0  0
   19.4334   -4.1425  -14.7632 O   0  0  0  0  0  0  0  0  0  0  0  0
   17.8623   -2.8217  -15.7471 O   0  0  0  0  0  0  0  0  0  0  0  0
  1  2  1  0
  2  3  2  0
  4  2  1  0
  5  7  1  0
  5  4  1  0
  5  6  1  1
  7  8  2  0
  9 10  1  0
  9  7  1  0
 10 13  1  0
 11 12  1  0
 10 11  1  6
 13 17  1  0
 13 14  2  0
 16 15  1  1
 16 18  1  0
 17 16  1  0
 18 19  2  0
 18 20  1  0
M  END
$$$$
