NCA.pdb
     RDKit          3D

 20 19  0  0  1  0  0  0  0  0999 V2000
   26.5832  -13.1024  -15.3145 N   0  0  0  0  0  0  0  0  0  0  0  0
   27.2746  -12.1802  -16.1776 C   0  0  0  0  0  0  0  0  0  0  0  0
   28.5068  -12.2693  -16.2134 O   0  0  0  0  0  0  0  0  0  0  0  0
   26.4660  -11.2328  -16.9250 C   0  0  0  0  0  0  0  0  0  0  0  0
   24.9864  -11.2367  -16.6742 C   0  0  2  0  0  0  0  0  0  0  0  0
   24.4625  -12.4519  -17.3694 N   0  0  0  0  0  0  0  0  0  0  0  0
   24.2514  -10.1026  -17.2400 C   0  0  0  0  0  0  0  0  0  0  0  0
   23.9686  -10.1531  -18.4908 O   0  0  0  0  0  0  0  0  0  0  0  0
   23.8132   -8.9567  -16.5584 N   0  0  0  0  0  0  0  0  0  0  0  0
   22.9802   -7.9514  -17.2299 C   0  0  1  0  0  0  0  0  0  0  0  0
   21.6361   -8.5830  -17.5507 C   0  0  0  0  0  0  0  0  0  0  0  0
   20.9841   -9.4714  -16.1304 S   0  0  0  0  0  0  0  0  0  0  0  0
   22.8804   -6.7969  -16.3107 C   0  0  0  0  0  0  0  0  0  0  0  0
   22.7180   -7.0095  -15.0662 O   0  0  0  0  0  0  0  0  0  0  0  0
   23.1762   -3.0267  -16.2591 C   0  0  0  0  0  0  0  0  0  0  0  0
   22.8498   -4.3867  -15.6901 C   0  0  2  0  0  0  0  0  0  0  0  0
   22.9525   -5.4312  -16.6971 N   0  0  0  0  0  0  0  0  0  0  0  0
   21.4519   -4.3321  -15.2114 C   0  0  0  0  0  0  0  0  0  0  0  0
   21.1717   -3.6685  -14.1894 O   0  0  0  0  0  0  0  0  0  0  0  0
   20.4501   -5.0079  -15.8825 O   0  0  0  0  0  0  0  0  0  0  0  0
  1  2  1  0
  2  3  2  0
  4  2  1  0
  5  7  1  0
  5  4  1  0
  5  6  1  6
  7  8  2  0
  9 10  1  0
  9  7  1  0
 10 13  1  0
 11 12  1  0
 10 11  1  1
 13 17  1  0
 13 14  2  0
 16 15  1  6
 16 18  1  0
 17 16  1  0
 18 19  2  0
 18 20  1  0
M  END
$$$$
