AQN.pdb
     RDKit          3D

 23 22  0  0  1  0  0  0  0  0999 V2000
    7.5796  -20.0723   17.0063 C   0  0  0  0  0  0  0  0  0  0  0  0
    8.3106  -18.9020   16.3597 C   0  0  2  0  0  0  0  0  0  0  0  0
    9.3509  -19.5056   15.5265 N   0  0  0  0  0  0  0  0  0  0  0  0
    8.9556  -18.0396   17.4094 C   0  0  0  0  0  0  0  0  0  0  0  0
   10.1914  -18.0551   17.6056 O   0  0  0  0  0  0  0  0  0  0  0  0
    6.5895  -12.9560   20.3207 N   0  0  0  0  0  0  0  0  0  0  0  0
    7.8853  -13.0539   20.8422 C   0  0  0  0  0  0  0  0  0  0  0  0
    8.3400  -12.1599   21.5871 O   0  0  0  0  0  0  0  0  0  0  0  0
    8.7136  -14.2461   20.4912 C   0  0  0  0  0  0  0  0  0  0  0  0
    7.9827  -15.1558   19.5479 C   0  0  0  0  0  0  0  0  0  0  0  0
    8.7902  -16.3629   19.2445 C   0  0  2  0  0  0  0  0  0  0  0  0
    8.1679  -17.1809   18.2081 N   0  0  0  0  0  0  0  0  0  0  0  0
    9.1019  -17.1634   20.4186 C   0  0  0  0  0  0  0  0  0  0  0  0
    8.4556  -18.1487   20.8081 O   0  0  0  0  0  0  0  0  0  0  0  0
   13.5715  -18.1599   20.4436 N   0  0  0  0  0  0  0  0  0  0  0  0
   12.5134  -18.6102   21.2728 C   0  0  0  0  0  0  0  0  0  0  0  0
   11.9333  -19.6921   20.9946 O   0  0  0  0  0  0  0  0  0  0  0  0
   12.0558  -17.8558   22.4631 C   0  0  0  0  0  0  0  0  0  0  0  0
   10.5677  -17.5518   22.4150 C   0  0  2  0  0  0  0  0  0  0  0  0
   10.2520  -16.8148   21.2244 N   0  0  0  0  0  0  0  0  0  0  0  0
   10.1319  -16.8140   23.6277 C   0  0  0  0  0  0  0  0  0  0  0  0
   10.2215  -17.3856   24.7443 O   0  0  0  0  0  0  0  0  0  0  0  0
    9.6338  -15.5286   23.5728 O   0  0  0  0  0  0  0  0  0  0  0  0
  2  1  1  1
  2  4  1  0
  3  2  1  0
  4  5  2  0
  6  7  1  0
  7  9  1  0
  8  7  2  0
  9 10  1  0
 11 10  1  1
 11 13  1  0
 12  4  1  0
 12 11  1  0
 13 14  2  0
 16 15  1  0
 16 18  1  0
 17 16  2  0
 19 18  1  1
 19 21  1  0
 20 13  1  0
 20 19  1  0
 21 22  2  0
 21 23  1  0
M  END
$$$$
