AQN.pdb
     RDKit          3D

 23 22  0  0  1  0  0  0  0  0999 V2000
    7.9805  -19.8715   17.3984 C   0  0  0  0  0  0  0  0  0  0  0  0
    8.7103  -19.4155   18.6560 C   0  0  2  0  0  0  0  0  0  0  0  0
    7.7872  -19.6817   19.7596 N   0  0  0  0  0  0  0  0  0  0  0  0
    8.9948  -17.9400   18.5936 C   0  0  0  0  0  0  0  0  0  0  0  0
    9.9240  -17.4780   17.8943 O   0  0  0  0  0  0  0  0  0  0  0  0
    7.8268  -13.9306   16.8620 N   0  0  0  0  0  0  0  0  0  0  0  0
    7.9370  -12.9382   17.8437 C   0  0  0  0  0  0  0  0  0  0  0  0
    8.2323  -11.7651   17.5313 O   0  0  0  0  0  0  0  0  0  0  0  0
    7.6956  -13.3080   19.2703 C   0  0  0  0  0  0  0  0  0  0  0  0
    7.3345  -14.7584   19.4012 C   0  0  0  0  0  0  0  0  0  0  0  0
    8.5474  -15.6118   19.3588 C   0  0  2  0  0  0  0  0  0  0  0  0
    8.2071  -17.0310   19.3346 N   0  0  0  0  0  0  0  0  0  0  0  0
    9.4969  -15.3250   20.4230 C   0  0  0  0  0  0  0  0  0  0  0  0
   10.0831  -14.2440   20.5903 O   0  0  0  0  0  0  0  0  0  0  0  0
   11.1176  -15.5657   25.7590 N   0  0  0  0  0  0  0  0  0  0  0  0
   11.1781  -16.6584   24.8577 C   0  0  0  0  0  0  0  0  0  0  0  0
   12.0673  -17.5354   25.0150 O   0  0  0  0  0  0  0  0  0  0  0  0
   10.2321  -16.8145   23.7281 C   0  0  0  0  0  0  0  0  0  0  0  0
   10.7114  -16.1035   22.4735 C   0  0  2  0  0  0  0  0  0  0  0  0
    9.8101  -16.3587   21.3858 N   0  0  0  0  0  0  0  0  0  0  0  0
   12.0957  -16.5099   22.1227 C   0  0  0  0  0  0  0  0  0  0  0  0
   12.2584  -17.4030   21.2522 O   0  0  0  0  0  0  0  0  0  0  0  0
   13.2057  -15.9448   22.7161 O   0  0  0  0  0  0  0  0  0  0  0  0
  2  1  1  6
  2  4  1  0
  3  2  1  0
  4  5  2  0
  6  7  1  0
  7  9  1  0
  8  7  2  0
  9 10  1  0
 11 10  1  1
 11 13  1  0
 12  4  1  0
 12 11  1  0
 13 14  2  0
 16 15  1  0
 16 18  1  0
 17 16  2  0
 19 18  1  1
 19 21  1  0
 20 13  1  0
 20 19  1  0
 21 22  2  0
 21 23  1  0
M  END
$$$$
