AQN.pdb
     RDKit          3D

 23 22  0  0  1  0  0  0  0  0999 V2000
   14.6765  -16.3696   18.5942 C   0  0  0  0  0  0  0  0  0  0  0  0
   13.7876  -15.1614   18.3254 C   0  0  2  0  0  0  0  0  0  0  0  0
   14.7064  -14.0504   18.0754 N   0  0  0  0  0  0  0  0  0  0  0  0
   12.9476  -14.8470   19.5326 C   0  0  0  0  0  0  0  0  0  0  0  0
   13.4166  -14.2383   20.5202 O   0  0  0  0  0  0  0  0  0  0  0  0
    7.3354  -11.9655   19.0586 N   0  0  0  0  0  0  0  0  0  0  0  0
    7.8446  -13.2680   19.1292 C   0  0  0  0  0  0  0  0  0  0  0  0
    7.1372  -14.2456   18.8053 O   0  0  0  0  0  0  0  0  0  0  0  0
    9.2482  -13.4669   19.5991 C   0  0  0  0  0  0  0  0  0  0  0  0
    9.3713  -14.7106   20.4294 C   0  0  0  0  0  0  0  0  0  0  0  0
   10.7897  -14.9812   20.7702 C   0  0  2  0  0  0  0  0  0  0  0  0
   11.5909  -15.2382   19.5775 N   0  0  0  0  0  0  0  0  0  0  0  0
   10.9595  -16.0455   21.7473 C   0  0  0  0  0  0  0  0  0  0  0  0
   11.2007  -17.2333   21.4807 O   0  0  0  0  0  0  0  0  0  0  0  0
   11.9382  -18.2703   26.6147 N   0  0  0  0  0  0  0  0  0  0  0  0
   11.0321  -17.1800   26.6039 C   0  0  0  0  0  0  0  0  0  0  0  0
   10.1914  -17.0712   27.5345 O   0  0  0  0  0  0  0  0  0  0  0  0
   11.0309  -16.1538   25.5352 C   0  0  0  0  0  0  0  0  0  0  0  0
   10.9360  -16.7673   24.1481 C   0  0  2  0  0  0  0  0  0  0  0  0
   10.8454  -15.7341   23.1558 N   0  0  0  0  0  0  0  0  0  0  0  0
    9.7838  -17.6988   24.0517 C   0  0  0  0  0  0  0  0  0  0  0  0
    9.8651  -18.8174   24.6208 O   0  0  0  0  0  0  0  0  0  0  0  0
    8.6315  -17.3819   23.3622 O   0  0  0  0  0  0  0  0  0  0  0  0
  2  1  1  1
  2  4  1  0
  3  2  1  0
  4  5  2  0
  6  7  1  0
  7  9  1  0
  8  7  2  0
  9 10  1  0
 11 10  1  6
 11 13  1  0
 12  4  1  0
 12 11  1  0
 13 14  2  0
 16 15  1  0
 16 18  1  0
 17 16  2  0
 19 18  1  1
 19 21  1  0
 20 13  1  0
 20 19  1  0
 21 22  2  0
 21 23  1  0
M  END
$$$$
