AQN.pdb
     RDKit          3D

 23 22  0  0  1  0  0  0  0  0999 V2000
   -3.4447  -30.5118   27.5346 C   0  0  0  0  0  0  0  0  0  0  0  0
   -3.2444  -29.0015   27.5025 C   0  0  2  0  0  0  0  0  0  0  0  0
   -1.9354  -28.7697   28.1140 N   0  0  0  0  0  0  0  0  0  0  0  0
   -4.3018  -28.3128   28.3206 C   0  0  0  0  0  0  0  0  0  0  0  0
   -5.5089  -28.3384   27.9916 O   0  0  0  0  0  0  0  0  0  0  0  0
   -5.1851  -28.1875   34.2808 N   0  0  0  0  0  0  0  0  0  0  0  0
   -6.3025  -27.5099   33.7777 C   0  0  0  0  0  0  0  0  0  0  0  0
   -7.2970  -27.2973   34.5034 O   0  0  0  0  0  0  0  0  0  0  0  0
   -6.2835  -27.0466   32.3581 C   0  0  0  0  0  0  0  0  0  0  0  0
   -4.9905  -27.4065   31.6872 C   0  0  0  0  0  0  0  0  0  0  0  0
   -4.9731  -26.9311   30.2819 C   0  0  2  0  0  0  0  0  0  0  0  0
   -3.9492  -27.6119   29.4954 N   0  0  0  0  0  0  0  0  0  0  0  0
   -4.8461  -25.4871   30.1586 C   0  0  0  0  0  0  0  0  0  0  0  0
   -3.7759  -24.8589   30.1469 O   0  0  0  0  0  0  0  0  0  0  0  0
   -4.8033  -20.9317   27.1191 N   0  0  0  0  0  0  0  0  0  0  0  0
   -4.8957  -21.5114   28.4096 C   0  0  0  0  0  0  0  0  0  0  0  0
   -4.8146  -20.7694   29.4231 O   0  0  0  0  0  0  0  0  0  0  0  0
   -5.0848  -22.9659   28.6195 C   0  0  0  0  0  0  0  0  0  0  0  0
   -5.9578  -23.2646   29.8269 C   0  0  2  0  0  0  0  0  0  0  0  0
   -6.0422  -24.6820   30.0373 N   0  0  0  0  0  0  0  0  0  0  0  0
   -7.3091  -22.6692   29.6719 C   0  0  0  0  0  0  0  0  0  0  0  0
   -8.2256  -23.3766   29.1808 O   0  0  0  0  0  0  0  0  0  0  0  0
   -7.5936  -21.3720   30.0459 O   0  0  0  0  0  0  0  0  0  0  0  0
  2  1  1  1
  2  4  1  0
  3  2  1  0
  4  5  2  0
  6  7  1  0
  7  9  1  0
  8  7  2  0
  9 10  1  0
 11 10  1  1
 11 13  1  0
 12  4  1  0
 12 11  1  0
 13 14  2  0
 16 15  1  0
 16 18  1  0
 17 16  2  0
 19 18  1  6
 19 21  1  0
 20 13  1  0
 20 19  1  0
 21 22  2  0
 21 23  1  0
M  END
$$$$
