AQN.pdb
     RDKit          3D

 23 22  0  0  1  0  0  0  0  0999 V2000
   10.9694  -19.1499   15.8227 C   0  0  0  0  0  0  0  0  0  0  0  0
   10.6352  -17.7633   15.2864 C   0  0  2  0  0  0  0  0  0  0  0  0
   11.5681  -17.5381   14.1820 N   0  0  0  0  0  0  0  0  0  0  0  0
   10.8616  -16.7205   16.3462 C   0  0  0  0  0  0  0  0  0  0  0  0
   11.9948  -16.2342   16.5593 O   0  0  0  0  0  0  0  0  0  0  0  0
    6.5805  -13.2143   19.4236 N   0  0  0  0  0  0  0  0  0  0  0  0
    7.7834  -12.8554   20.0441 C   0  0  0  0  0  0  0  0  0  0  0  0
    7.8016  -11.9845   20.9397 O   0  0  0  0  0  0  0  0  0  0  0  0
    9.0436  -13.5325   19.6154 C   0  0  0  0  0  0  0  0  0  0  0  0
    8.7726  -14.5675   18.5634 C   0  0  0  0  0  0  0  0  0  0  0  0
   10.0139  -15.2979   18.2073 C   0  0  2  0  0  0  0  0  0  0  0  0
    9.7835  -16.2612   17.1351 N   0  0  0  0  0  0  0  0  0  0  0  0
   10.6603  -15.9339   19.3449 C   0  0  0  0  0  0  0  0  0  0  0  0
   10.5164  -17.1196   19.6820 O   0  0  0  0  0  0  0  0  0  0  0  0
   14.6320  -13.9023   19.7287 N   0  0  0  0  0  0  0  0  0  0  0  0
   14.4362  -14.9844   20.6236 C   0  0  0  0  0  0  0  0  0  0  0  0
   15.1468  -16.0164   20.5035 O   0  0  0  0  0  0  0  0  0  0  0  0
   13.4222  -14.9537   21.7034 C   0  0  0  0  0  0  0  0  0  0  0  0
   12.1679  -15.7297   21.3375 C   0  0  2  0  0  0  0  0  0  0  0  0
   11.5516  -15.1539   20.1760 N   0  0  0  0  0  0  0  0  0  0  0  0
   11.2157  -15.7769   22.4758 C   0  0  0  0  0  0  0  0  0  0  0  0
   11.6152  -16.2376   23.5758 O   0  0  0  0  0  0  0  0  0  0  0  0
    9.9130  -15.3352   22.3697 O   0  0  0  0  0  0  0  0  0  0  0  0
  2  1  1  1
  2  4  1  0
  3  2  1  0
  4  5  2  0
  6  7  1  0
  7  9  1  0
  8  7  2  0
  9 10  1  0
 11 10  1  1
 11 13  1  0
 12  4  1  0
 12 11  1  0
 13 14  2  0
 16 15  1  0
 16 18  1  0
 17 16  2  0
 19 18  1  1
 19 21  1  0
 20 13  1  0
 20 19  1  0
 21 22  2  0
 21 23  1  0
M  END
$$$$
