AQN.pdb
     RDKit          3D

 23 22  0  0  1  0  0  0  0  0999 V2000
    8.4074  -15.3966   25.5632 C   0  0  0  0  0  0  0  0  0  0  0  0
    7.2895  -15.9921   24.7159 C   0  0  2  0  0  0  0  0  0  0  0  0
    6.7825  -17.1292   25.4846 N   0  0  0  0  0  0  0  0  0  0  0  0
    7.8303  -16.4846   23.4018 C   0  0  0  0  0  0  0  0  0  0  0  0
    8.0641  -17.6971   23.1994 O   0  0  0  0  0  0  0  0  0  0  0  0
    8.4359  -11.9392   18.4188 N   0  0  0  0  0  0  0  0  0  0  0  0
    8.2677  -13.3293   18.4219 C   0  0  0  0  0  0  0  0  0  0  0  0
    7.6763  -13.9002   17.4809 O   0  0  0  0  0  0  0  0  0  0  0  0
    8.8076  -14.1164   19.5705 C   0  0  0  0  0  0  0  0  0  0  0  0
    7.8758  -15.2289   19.9516 C   0  0  0  0  0  0  0  0  0  0  0  0
    8.4614  -16.0643   21.0288 C   0  0  2  0  0  0  0  0  0  0  0  0
    8.0896  -15.5748   22.3527 N   0  0  0  0  0  0  0  0  0  0  0  0
    9.9035  -16.2233   20.9215 C   0  0  0  0  0  0  0  0  0  0  0  0
   10.5023  -16.7039   19.9465 O   0  0  0  0  0  0  0  0  0  0  0  0
   12.2768  -13.7219   19.6990 N   0  0  0  0  0  0  0  0  0  0  0  0
   12.9837  -14.8234   20.2437 C   0  0  0  0  0  0  0  0  0  0  0  0
   13.5903  -15.6076   19.4682 O   0  0  0  0  0  0  0  0  0  0  0  0
   13.0398  -15.0948   21.6992 C   0  0  0  0  0  0  0  0  0  0  0  0
   12.1108  -16.2250   22.1103 C   0  0  2  0  0  0  0  0  0  0  0  0
   10.7432  -15.7982   22.0205 N   0  0  0  0  0  0  0  0  0  0  0  0
   12.4276  -16.7087   23.4779 C   0  0  0  0  0  0  0  0  0  0  0  0
   11.5621  -16.5721   24.3800 O   0  0  0  0  0  0  0  0  0  0  0  0
   13.6336  -17.3002   23.7927 O   0  0  0  0  0  0  0  0  0  0  0  0
  2  1  1  1
  2  4  1  0
  3  2  1  0
  4  5  2  0
  6  7  1  0
  7  9  1  0
  8  7  2  0
  9 10  1  0
 11 10  1  6
 11 13  1  0
 12  4  1  0
 12 11  1  0
 13 14  2  0
 16 15  1  0
 16 18  1  0
 17 16  2  0
 19 18  1  1
 19 21  1  0
 20 13  1  0
 20 19  1  0
 21 22  2  0
 21 23  1  0
M  END
$$$$
