AQN.pdb
     RDKit          3D

 23 22  0  0  1  0  0  0  0  0999 V2000
    7.8479  -20.9461   21.1749 C   0  0  0  0  0  0  0  0  0  0  0  0
    7.9832  -20.1347   19.8922 C   0  0  2  0  0  0  0  0  0  0  0  0
    8.6991  -21.0026   18.9567 N   0  0  0  0  0  0  0  0  0  0  0  0
    8.7966  -18.8937   20.1376 C   0  0  0  0  0  0  0  0  0  0  0  0
   10.0373  -18.8775   19.9757 O   0  0  0  0  0  0  0  0  0  0  0  0
    6.6318  -13.1079   19.5609 N   0  0  0  0  0  0  0  0  0  0  0  0
    7.5994  -13.5268   18.6395 C   0  0  0  0  0  0  0  0  0  0  0  0
    7.7353  -12.9357   17.5472 O   0  0  0  0  0  0  0  0  0  0  0  0
    8.4653  -14.6931   18.9864 C   0  0  0  0  0  0  0  0  0  0  0  0
    8.0775  -15.2819   20.3109 C   0  0  0  0  0  0  0  0  0  0  0  0
    8.9237  -16.4562   20.6363 C   0  0  2  0  0  0  0  0  0  0  0  0
    8.1674  -17.7024   20.5626 N   0  0  0  0  0  0  0  0  0  0  0  0
    9.6099  -16.3416   21.9139 C   0  0  0  0  0  0  0  0  0  0  0  0
    9.0576  -16.3001   23.0245 O   0  0  0  0  0  0  0  0  0  0  0  0
   11.9959  -18.5970   26.1705 N   0  0  0  0  0  0  0  0  0  0  0  0
   12.4137  -17.8538   25.0378 C   0  0  0  0  0  0  0  0  0  0  0  0
   13.5537  -17.3202   25.0400 O   0  0  0  0  0  0  0  0  0  0  0  0
   11.5590  -17.6755   23.8407 C   0  0  0  0  0  0  0  0  0  0  0  0
   11.7784  -16.3286   23.1721 C   0  0  2  0  0  0  0  0  0  0  0  0
   11.0549  -16.2676   21.9339 N   0  0  0  0  0  0  0  0  0  0  0  0
   13.2238  -16.0664   22.9563 C   0  0  0  0  0  0  0  0  0  0  0  0
   13.9520  -15.8484   23.9582 O   0  0  0  0  0  0  0  0  0  0  0  0
   13.7940  -16.0531   21.7000 O   0  0  0  0  0  0  0  0  0  0  0  0
  2  1  1  1
  2  4  1  0
  3  2  1  0
  4  5  2  0
  6  7  1  0
  7  9  1  0
  8  7  2  0
  9 10  1  0
 11 10  1  1
 11 13  1  0
 12  4  1  0
 12 11  1  0
 13 14  2  0
 16 15  1  0
 16 18  1  0
 17 16  2  0
 19 18  1  6
 19 21  1  0
 20 13  1  0
 20 19  1  0
 21 22  2  0
 21 23  1  0
M  END
$$$$
