AQN.pdb
     RDKit          3D

 23 22  0  0  1  0  0  0  0  0999 V2000
    8.0816  -12.3154   19.1583 C   0  0  0  0  0  0  0  0  0  0  0  0
    8.0139  -13.7804   18.7446 C   0  0  2  0  0  0  0  0  0  0  0  0
    6.7260  -13.9342   18.0673 N   0  0  0  0  0  0  0  0  0  0  0  0
    8.0456  -14.6714   19.9558 C   0  0  0  0  0  0  0  0  0  0  0  0
    7.1513  -14.6259   20.8298 O   0  0  0  0  0  0  0  0  0  0  0  0
    5.2203  -18.4315   19.7009 N   0  0  0  0  0  0  0  0  0  0  0  0
    6.5828  -18.7420   19.7897 C   0  0  0  0  0  0  0  0  0  0  0  0
    6.9644  -19.9317   19.7984 O   0  0  0  0  0  0  0  0  0  0  0  0
    7.5708  -17.6253   19.8743 C   0  0  0  0  0  0  0  0  0  0  0  0
    8.2593  -17.6098   21.2074 C   0  0  0  0  0  0  0  0  0  0  0  0
    9.1526  -16.4315   21.3281 C   0  0  2  0  0  0  0  0  0  0  0  0
    9.1018  -15.5924   20.1348 N   0  0  0  0  0  0  0  0  0  0  0  0
   10.5263  -16.7756   21.6612 C   0  0  0  0  0  0  0  0  0  0  0  0
   11.3626  -17.2388   20.8698 O   0  0  0  0  0  0  0  0  0  0  0  0
   15.4699  -16.3885   23.4893 N   0  0  0  0  0  0  0  0  0  0  0  0
   14.4353  -16.0979   24.4139 C   0  0  0  0  0  0  0  0  0  0  0  0
   14.6876  -16.1280   25.6468 O   0  0  0  0  0  0  0  0  0  0  0  0
   13.0573  -15.7578   23.9889 C   0  0  0  0  0  0  0  0  0  0  0  0
   12.3261  -16.9514   23.3975 C   0  0  2  0  0  0  0  0  0  0  0  0
   10.9944  -16.5758   23.0157 N   0  0  0  0  0  0  0  0  0  0  0  0
   12.3044  -18.0916   24.3484 C   0  0  0  0  0  0  0  0  0  0  0  0
   13.3319  -18.8095   24.4507 O   0  0  0  0  0  0  0  0  0  0  0  0
   11.2008  -18.3903   25.1207 O   0  0  0  0  0  0  0  0  0  0  0  0
  2  1  1  1
  2  4  1  0
  3  2  1  0
  4  5  2  0
  6  7  1  0
  7  9  1  0
  8  7  2  0
  9 10  1  0
 11 10  1  6
 11 13  1  0
 12  4  1  0
 12 11  1  0
 13 14  2  0
 16 15  1  0
 16 18  1  0
 17 16  2  0
 19 18  1  1
 19 21  1  0
 20 13  1  0
 20 19  1  0
 21 22  2  0
 21 23  1  0
M  END
$$$$
