ICW.pdb
     RDKit          3D

 29 30  0  0  1  0  0  0  0  0999 V2000
   29.7516  -18.0773  -16.6035 C   0  0  0  0  0  0  0  0  0  0  0  0
   28.7456  -19.1665  -16.3241 C   0  0  0  0  0  0  0  0  0  0  0  0
   27.8619  -18.8283  -15.1426 C   0  0  2  0  0  0  0  0  0  0  0  0
   28.7780  -18.7460  -13.9250 C   0  0  0  0  0  0  0  0  0  0  0  0
   26.8288  -19.8950  -14.9216 C   0  0  2  0  0  0  0  0  0  0  0  0
   26.1256  -20.1245  -16.1532 N   0  0  0  0  0  0  0  0  0  0  0  0
   25.9370  -19.6123  -13.7876 C   0  0  0  0  0  0  0  0  0  0  0  0
   25.4714  -18.4631  -13.5437 O   0  0  0  0  0  0  0  0  0  0  0  0
   25.5164  -20.6289  -12.8529 N   0  0  0  0  0  0  0  0  0  0  0  0
   24.5863  -20.3761  -11.7981 C   0  0  1  0  0  0  0  0  0  0  0  0
   23.1821  -20.6878  -12.2309 C   0  0  0  0  0  0  0  0  0  0  0  0
   22.5696  -19.6218  -13.5299 S   0  0  0  0  0  0  0  0  0  0  0  0
   24.9532  -21.0304  -10.5177 C   0  0  0  0  0  0  0  0  0  0  0  0
   25.3716  -22.2159  -10.5506 O   0  0  0  0  0  0  0  0  0  0  0  0
   24.8681  -20.4186   -9.2524 N   0  0  0  0  0  0  0  0  0  0  0  0
   25.0916  -21.1045   -7.9930 C   0  0  1  0  0  0  0  0  0  0  0  0
   25.6097  -20.0573   -7.0312 C   0  0  0  0  0  0  0  0  0  0  0  0
   27.0721  -19.9489   -7.0383 C   0  0  0  0  0  0  0  0  0  0  0  0
   27.9353  -20.1400   -8.0945 C   0  0  0  0  0  0  0  0  0  0  0  0
   29.2031  -19.9472   -7.6934 N   0  0  0  0  0  0  0  0  0  0  0  0
   29.2264  -19.6252   -6.3730 C   0  0  0  0  0  0  0  0  0  0  0  0
   30.2415  -19.3341   -5.4881 C   0  0  0  0  0  0  0  0  0  0  0  0
   29.9735  -19.0363   -4.1766 C   0  0  0  0  0  0  0  0  0  0  0  0
   28.6568  -19.0360   -3.7659 C   0  0  0  0  0  0  0  0  0  0  0  0
   27.6320  -19.3254   -4.6411 C   0  0  0  0  0  0  0  0  0  0  0  0
   27.8919  -19.6303   -5.9791 C   0  0  0  0  0  0  0  0  0  0  0  0
   23.8398  -21.7183   -7.5461 C   0  0  0  0  0  0  0  0  0  0  0  0
   22.6313  -21.3746   -8.1267 O   0  0  0  0  0  0  0  0  0  0  0  0
   23.8516  -22.5667   -6.6269 O   0  0  0  0  0  0  0  0  0  0  0  0
  2  1  1  0
  3  4  1  1
  3  2  1  0
  5  6  1  6
  5  3  1  0
  7  5  1  0
  8  7  2  0
  9  7  1  0
 10  9  1  0
 10 11  1  6
 12 11  1  0
 13 10  1  0
 13 14  2  0
 15 13  1  0
 16 15  1  0
 16 17  1  1
 17 18  1  0
 18 26  1  0
 18 19  2  0
 19 20  1  0
 21 22  2  0
 21 20  1  0
 23 22  1  0
 24 23  2  0
 25 24  1  0
 25 26  2  0
 26 21  1  0
 27 16  1  0
 28 27  1  0
 29 27  2  0
M  END
$$$$
