ICW.pdb
     RDKit          3D

 29 30  0  0  1  0  0  0  0  0999 V2000
   22.5423  -18.1615  -16.0522 C   0  0  0  0  0  0  0  0  0  0  0  0
   23.9876  -17.9764  -15.6607 C   0  0  0  0  0  0  0  0  0  0  0  0
   24.4046  -18.9410  -14.5714 C   0  0  2  0  0  0  0  0  0  0  0  0
   24.5693  -18.1144  -13.2994 C   0  0  0  0  0  0  0  0  0  0  0  0
   25.7083  -19.6038  -14.9109 C   0  0  2  0  0  0  0  0  0  0  0  0
   25.5753  -20.2723  -16.1756 N   0  0  0  0  0  0  0  0  0  0  0  0
   26.2095  -20.4790  -13.8413 C   0  0  0  0  0  0  0  0  0  0  0  0
   25.6174  -21.5342  -13.4766 O   0  0  0  0  0  0  0  0  0  0  0  0
   27.4262  -20.2051  -13.1143 N   0  0  0  0  0  0  0  0  0  0  0  0
   27.7919  -20.9031  -11.9224 C   0  0  1  0  0  0  0  0  0  0  0  0
   29.2656  -21.1925  -11.8974 C   0  0  0  0  0  0  0  0  0  0  0  0
   29.8098  -22.0619  -10.4323 S   0  0  0  0  0  0  0  0  0  0  0  0
   27.3129  -20.2447  -10.6818 C   0  0  0  0  0  0  0  0  0  0  0  0
   28.0977  -19.4730  -10.0734 O   0  0  0  0  0  0  0  0  0  0  0  0
   26.0311  -20.4193  -10.1259 N   0  0  0  0  0  0  0  0  0  0  0  0
   25.7678  -21.0913   -8.8667 C   0  0  1  0  0  0  0  0  0  0  0  0
   25.5731  -19.9968   -7.8399 C   0  0  0  0  0  0  0  0  0  0  0  0
   26.8388  -19.4709   -7.3187 C   0  0  0  0  0  0  0  0  0  0  0  0
   27.6304  -18.4758   -7.8484 C   0  0  0  0  0  0  0  0  0  0  0  0
   28.7104  -18.2848   -7.0722 N   0  0  0  0  0  0  0  0  0  0  0  0
   28.6748  -19.1356   -6.0127 C   0  0  0  0  0  0  0  0  0  0  0  0
   29.5157  -19.3495   -4.9427 C   0  0  0  0  0  0  0  0  0  0  0  0
   29.2285  -20.2984   -3.9953 C   0  0  0  0  0  0  0  0  0  0  0  0
   28.0718  -21.0352   -4.1428 C   0  0  0  0  0  0  0  0  0  0  0  0
   27.2220  -20.8311   -5.2088 C   0  0  0  0  0  0  0  0  0  0  0  0
   27.5035  -19.8678   -6.1801 C   0  0  0  0  0  0  0  0  0  0  0  0
   24.5918  -21.9510   -9.0122 C   0  0  0  0  0  0  0  0  0  0  0  0
   24.0913  -22.6611   -7.9347 O   0  0  0  0  0  0  0  0  0  0  0  0
   24.0237  -22.0526  -10.1221 O   0  0  0  0  0  0  0  0  0  0  0  0
  2  1  1  0
  3  4  1  1
  3  2  1  0
  5  6  1  6
  5  3  1  0
  7  5  1  0
  8  7  2  0
  9  7  1  0
 10  9  1  0
 10 11  1  1
 12 11  1  0
 13 10  1  0
 13 14  2  0
 15 13  1  0
 16 15  1  0
 16 17  1  1
 17 18  1  0
 18 26  1  0
 18 19  2  0
 19 20  1  0
 21 22  2  0
 21 20  1  0
 23 22  1  0
 24 23  2  0
 25 24  1  0
 25 26  2  0
 26 21  1  0
 27 16  1  0
 28 27  1  0
 29 27  2  0
M  END
$$$$
