ICW.pdb
     RDKit          3D

 29 30  0  0  1  0  0  0  0  0999 V2000
   29.5316  -16.9206  -16.8191 C   0  0  0  0  0  0  0  0  0  0  0  0
   28.3630  -17.8702  -16.9149 C   0  0  0  0  0  0  0  0  0  0  0  0
   27.5029  -17.8332  -15.6699 C   0  0  2  0  0  0  0  0  0  0  0  0
   28.3580  -18.3893  -14.5349 C   0  0  0  0  0  0  0  0  0  0  0  0
   26.2776  -18.6843  -15.8378 C   0  0  2  0  0  0  0  0  0  0  0  0
   25.5534  -18.2349  -16.9944 N   0  0  0  0  0  0  0  0  0  0  0  0
   25.4496  -18.7543  -14.6251 C   0  0  0  0  0  0  0  0  0  0  0  0
   24.7347  -17.7943  -14.2195 O   0  0  0  0  0  0  0  0  0  0  0  0
   25.3835  -19.9311  -13.7917 N   0  0  0  0  0  0  0  0  0  0  0  0
   24.6227  -19.9846  -12.5834 C   0  0  1  0  0  0  0  0  0  0  0  0
   23.2675  -20.5855  -12.8256 C   0  0  0  0  0  0  0  0  0  0  0  0
   22.3457  -20.9232  -11.3306 S   0  0  0  0  0  0  0  0  0  0  0  0
   25.3455  -20.6278  -11.4583 C   0  0  0  0  0  0  0  0  0  0  0  0
   25.8196  -21.7794  -11.6329 O   0  0  0  0  0  0  0  0  0  0  0  0
   25.5441  -20.0408  -10.1940 N   0  0  0  0  0  0  0  0  0  0  0  0
   26.1326  -20.7232   -9.0562 C   0  0  1  0  0  0  0  0  0  0  0  0
   26.8819  -19.6659   -8.2747 C   0  0  0  0  0  0  0  0  0  0  0  0
   27.4933  -20.1881   -7.0484 C   0  0  0  0  0  0  0  0  0  0  0  0
   27.4699  -21.4787   -6.5677 C   0  0  0  0  0  0  0  0  0  0  0  0
   28.1489  -21.5512   -5.4105 N   0  0  0  0  0  0  0  0  0  0  0  0
   28.6412  -20.3265   -5.0857 C   0  0  0  0  0  0  0  0  0  0  0  0
   29.3908  -19.8582   -4.0290 C   0  0  0  0  0  0  0  0  0  0  0  0
   29.7575  -18.5391   -3.9509 C   0  0  0  0  0  0  0  0  0  0  0  0
   29.3546  -17.6913   -4.9615 C   0  0  0  0  0  0  0  0  0  0  0  0
   28.6044  -18.1471   -6.0243 C   0  0  0  0  0  0  0  0  0  0  0  0
   28.2247  -19.4881   -6.1153 C   0  0  0  0  0  0  0  0  0  0  0  0
   25.0741  -21.3654   -8.2750 C   0  0  0  0  0  0  0  0  0  0  0  0
   25.3052  -22.5543   -7.6051 O   0  0  0  0  0  0  0  0  0  0  0  0
   23.9408  -20.8405   -8.2055 O   0  0  0  0  0  0  0  0  0  0  0  0
  2  1  1  0
  3  4  1  1
  3  2  1  0
  5  6  1  6
  5  3  1  0
  7  5  1  0
  8  7  2  0
  9  7  1  0
 10  9  1  0
 10 11  1  6
 12 11  1  0
 13 10  1  0
 13 14  2  0
 15 13  1  0
 16 15  1  0
 16 17  1  1
 17 18  1  0
 18 26  1  0
 18 19  2  0
 19 20  1  0
 21 22  2  0
 21 20  1  0
 23 22  1  0
 24 23  2  0
 25 24  1  0
 25 26  2  0
 26 21  1  0
 27 16  1  0
 28 27  1  0
 29 27  2  0
M  END
$$$$
