ICW.pdb
     RDKit          3D

 29 30  0  0  1  0  0  0  0  0999 V2000
   21.5486  -18.1328  -16.5471 C   0  0  0  0  0  0  0  0  0  0  0  0
   23.0502  -18.2078  -16.6746 C   0  0  0  0  0  0  0  0  0  0  0  0
   23.6369  -19.2936  -15.7985 C   0  0  2  0  0  0  0  0  0  0  0  0
   23.1867  -18.9911  -14.3722 C   0  0  0  0  0  0  0  0  0  0  0  0
   25.1368  -19.2845  -15.8633 C   0  0  2  0  0  0  0  0  0  0  0  0
   25.5452  -19.4881  -17.2257 N   0  0  0  0  0  0  0  0  0  0  0  0
   25.7636  -20.2243  -14.9226 C   0  0  0  0  0  0  0  0  0  0  0  0
   25.7906  -21.4741  -15.1083 O   0  0  0  0  0  0  0  0  0  0  0  0
   26.4039  -19.7963  -13.7016 N   0  0  0  0  0  0  0  0  0  0  0  0
   26.9811  -20.7096  -12.7666 C   0  0  1  0  0  0  0  0  0  0  0  0
   28.4684  -20.8054  -12.9542 C   0  0  0  0  0  0  0  0  0  0  0  0
   29.2452  -19.2566  -13.3973 S   0  0  0  0  0  0  0  0  0  0  0  0
   26.5940  -20.4384  -11.3600 C   0  0  0  0  0  0  0  0  0  0  0  0
   26.5209  -19.2417  -10.9804 O   0  0  0  0  0  0  0  0  0  0  0  0
   26.2986  -21.4300  -10.4051 N   0  0  0  0  0  0  0  0  0  0  0  0
   25.7937  -21.1599   -9.0714 C   0  0  1  0  0  0  0  0  0  0  0  0
   26.4671  -19.8824   -8.6189 C   0  0  0  0  0  0  0  0  0  0  0  0
   27.7804  -20.1140   -8.0090 C   0  0  0  0  0  0  0  0  0  0  0  0
   28.9096  -20.6435   -8.5937 C   0  0  0  0  0  0  0  0  0  0  0  0
   29.9112  -20.6921   -7.6994 N   0  0  0  0  0  0  0  0  0  0  0  0
   29.4879  -20.2027   -6.5040 C   0  0  0  0  0  0  0  0  0  0  0  0
   30.1002  -20.0311   -5.2818 C   0  0  0  0  0  0  0  0  0  0  0  0
   29.4188  -19.4994   -4.2172 C   0  0  0  0  0  0  0  0  0  0  0  0
   28.1002  -19.1400   -4.4032 C   0  0  0  0  0  0  0  0  0  0  0  0
   27.4758  -19.3065   -5.6207 C   0  0  0  0  0  0  0  0  0  0  0  0
   28.1590  -19.8468   -6.7126 C   0  0  0  0  0  0  0  0  0  0  0  0
   24.3347  -21.0487   -9.1183 C   0  0  0  0  0  0  0  0  0  0  0  0
   23.5570  -21.4239   -8.0365 O   0  0  0  0  0  0  0  0  0  0  0  0
   23.7728  -20.6096  -10.1460 O   0  0  0  0  0  0  0  0  0  0  0  0
  2  1  1  0
  3  4  1  1
  3  2  1  0
  5  6  1  6
  5  3  1  0
  7  5  1  0
  8  7  2  0
  9  7  1  0
 10  9  1  0
 10 11  1  1
 12 11  1  0
 13 10  1  0
 13 14  2  0
 15 13  1  0
 16 15  1  0
 16 17  1  6
 17 18  1  0
 18 26  1  0
 18 19  2  0
 19 20  1  0
 21 22  2  0
 21 20  1  0
 23 22  1  0
 24 23  2  0
 25 24  1  0
 25 26  2  0
 26 21  1  0
 27 16  1  0
 28 27  1  0
 29 27  2  0
M  END
$$$$
