ICW.pdb
     RDKit          3D

 29 30  0  0  1  0  0  0  0  0999 V2000
   30.9776  -21.7990  -19.3162 C   0  0  0  0  0  0  0  0  0  0  0  0
   30.1027  -20.5699  -19.3016 C   0  0  0  0  0  0  0  0  0  0  0  0
   29.7570  -20.1406  -17.8919 C   0  0  2  0  0  0  0  0  0  0  0  0
   29.0246  -21.3143  -17.2481 C   0  0  0  0  0  0  0  0  0  0  0  0
   28.8618  -18.9354  -17.9015 C   0  0  2  0  0  0  0  0  0  0  0  0
   29.6110  -17.8026  -18.3701 N   0  0  0  0  0  0  0  0  0  0  0  0
   28.1952  -18.6980  -16.6128 C   0  0  0  0  0  0  0  0  0  0  0  0
   28.7782  -18.1823  -15.6173 O   0  0  0  0  0  0  0  0  0  0  0  0
   26.8120  -19.0359  -16.3755 N   0  0  0  0  0  0  0  0  0  0  0  0
   26.1616  -18.8095  -15.1235 C   0  0  1  0  0  0  0  0  0  0  0  0
   25.1609  -17.6944  -15.2295 C   0  0  0  0  0  0  0  0  0  0  0  0
   23.9336  -17.6946  -13.9285 S   0  0  0  0  0  0  0  0  0  0  0  0
   25.5910  -20.0407  -14.5232 C   0  0  0  0  0  0  0  0  0  0  0  0
   25.1056  -20.9105  -15.2910 O   0  0  0  0  0  0  0  0  0  0  0  0
   25.5502  -20.3140  -13.1426 N   0  0  0  0  0  0  0  0  0  0  0  0
   25.0499  -21.5480  -12.5652 C   0  0  1  0  0  0  0  0  0  0  0  0
   26.0875  -21.9898  -11.5560 C   0  0  0  0  0  0  0  0  0  0  0  0
   26.1100  -21.1494  -10.3546 C   0  0  0  0  0  0  0  0  0  0  0  0
   25.0568  -20.4998   -9.7496 C   0  0  0  0  0  0  0  0  0  0  0  0
   25.4891  -19.8307   -8.6676 N   0  0  0  0  0  0  0  0  0  0  0  0
   26.8282  -20.0100   -8.5175 C   0  0  0  0  0  0  0  0  0  0  0  0
   27.7458  -19.5565   -7.5954 C   0  0  0  0  0  0  0  0  0  0  0  0
   29.0699  -19.9016   -7.6857 C   0  0  0  0  0  0  0  0  0  0  0  0
   29.4595  -20.7173   -8.7275 C   0  0  0  0  0  0  0  0  0  0  0  0
   28.5516  -21.1778   -9.6568 C   0  0  0  0  0  0  0  0  0  0  0  0
   27.2004  -20.8334   -9.5757 C   0  0  0  0  0  0  0  0  0  0  0  0
   23.7377  -21.3050  -11.9633 C   0  0  0  0  0  0  0  0  0  0  0  0
   23.2986  -20.0172  -11.7090 O   0  0  0  0  0  0  0  0  0  0  0  0
   22.9949  -22.2680  -11.6706 O   0  0  0  0  0  0  0  0  0  0  0  0
  2  1  1  0
  3  4  1  6
  3  2  1  0
  5  6  1  1
  5  3  1  0
  7  5  1  0
  8  7  2  0
  9  7  1  0
 10  9  1  0
 10 11  1  6
 12 11  1  0
 13 10  1  0
 13 14  2  0
 15 13  1  0
 16 15  1  0
 16 17  1  1
 17 18  1  0
 18 26  1  0
 18 19  2  0
 19 20  1  0
 21 22  2  0
 21 20  1  0
 23 22  1  0
 24 23  2  0
 25 24  1  0
 25 26  2  0
 26 21  1  0
 27 16  1  0
 28 27  1  0
 29 27  2  0
M  END
$$$$
