ICW.pdb
     RDKit          3D

 29 30  0  0  1  0  0  0  0  0999 V2000
   28.5282  -22.6269  -20.0591 C   0  0  0  0  0  0  0  0  0  0  0  0
   28.0721  -23.1635  -18.7247 C   0  0  0  0  0  0  0  0  0  0  0  0
   27.9775  -22.0717  -17.6806 C   0  0  2  0  0  0  0  0  0  0  0  0
   29.3969  -21.5562  -17.4617 C   0  0  0  0  0  0  0  0  0  0  0  0
   27.4347  -22.6098  -16.3883 C   0  0  2  0  0  0  0  0  0  0  0  0
   26.2392  -23.3585  -16.6612 N   0  0  0  0  0  0  0  0  0  0  0  0
   27.2498  -21.5744  -15.3612 C   0  0  0  0  0  0  0  0  0  0  0  0
   28.1958  -20.8632  -14.9179 O   0  0  0  0  0  0  0  0  0  0  0  0
   25.9657  -21.2817  -14.7700 N   0  0  0  0  0  0  0  0  0  0  0  0
   25.7880  -20.2998  -13.7473 C   0  0  1  0  0  0  0  0  0  0  0  0
   24.6219  -19.4047  -14.0560 C   0  0  0  0  0  0  0  0  0  0  0  0
   23.8113  -19.7773  -15.6061 S   0  0  0  0  0  0  0  0  0  0  0  0
   25.7271  -20.8748  -12.3807 C   0  0  0  0  0  0  0  0  0  0  0  0
   25.2150  -22.0139  -12.2337 O   0  0  0  0  0  0  0  0  0  0  0  0
   26.2045  -20.2352  -11.2207 N   0  0  0  0  0  0  0  0  0  0  0  0
   26.0799  -20.7719   -9.8779 C   0  0  1  0  0  0  0  0  0  0  0  0
   27.0373  -19.9761   -9.0176 C   0  0  0  0  0  0  0  0  0  0  0  0
   26.8536  -20.2195   -7.5833 C   0  0  0  0  0  0  0  0  0  0  0  0
   25.8338  -20.9033   -6.9590 C   0  0  0  0  0  0  0  0  0  0  0  0
   26.0275  -20.9054   -5.6294 N   0  0  0  0  0  0  0  0  0  0  0  0
   27.1687  -20.2315   -5.3273 C   0  0  0  0  0  0  0  0  0  0  0  0
   27.8122  -19.9439   -4.1436 C   0  0  0  0  0  0  0  0  0  0  0  0
   28.9809  -19.2268   -4.1294 C   0  0  0  0  0  0  0  0  0  0  0  0
   29.4965  -18.7999   -5.3354 C   0  0  0  0  0  0  0  0  0  0  0  0
   28.8626  -19.0809   -6.5267 C   0  0  0  0  0  0  0  0  0  0  0  0
   27.6719  -19.8104   -6.5544 C   0  0  0  0  0  0  0  0  0  0  0  0
   24.6886  -20.6574   -9.4370 C   0  0  0  0  0  0  0  0  0  0  0  0
   24.1248  -21.6091   -8.6050 O   0  0  0  0  0  0  0  0  0  0  0  0
   23.9904  -19.6895   -9.8118 O   0  0  0  0  0  0  0  0  0  0  0  0
  2  1  1  0
  3  4  1  1
  3  2  1  0
  5  6  1  6
  5  3  1  0
  7  5  1  0
  8  7  2  0
  9  7  1  0
 10  9  1  0
 10 11  1  6
 12 11  1  0
 13 10  1  0
 13 14  2  0
 15 13  1  0
 16 15  1  0
 16 17  1  1
 17 18  1  0
 18 26  1  0
 18 19  2  0
 19 20  1  0
 21 22  2  0
 21 20  1  0
 23 22  1  0
 24 23  2  0
 25 24  1  0
 25 26  2  0
 26 21  1  0
 27 16  1  0
 28 27  1  0
 29 27  2  0
M  END
$$$$
