ICW.pdb
     RDKit          3D

 29 30  0  0  1  0  0  0  0  0999 V2000
   29.9240  -16.3914  -17.1362 C   0  0  0  0  0  0  0  0  0  0  0  0
   29.4347  -17.8044  -17.3377 C   0  0  0  0  0  0  0  0  0  0  0  0
   28.3376  -18.1659  -16.3596 C   0  0  2  0  0  0  0  0  0  0  0  0
   28.9514  -18.0744  -14.9656 C   0  0  0  0  0  0  0  0  0  0  0  0
   27.8433  -19.5632  -16.5991 C   0  0  2  0  0  0  0  0  0  0  0  0
   27.4407  -19.6857  -17.9728 N   0  0  0  0  0  0  0  0  0  0  0  0
   26.8018  -19.9805  -15.6492 C   0  0  0  0  0  0  0  0  0  0  0  0
   25.5899  -19.6388  -15.7575 O   0  0  0  0  0  0  0  0  0  0  0  0
   27.0774  -20.8198  -14.5075 N   0  0  0  0  0  0  0  0  0  0  0  0
   26.0890  -21.1485  -13.5294 C   0  0  1  0  0  0  0  0  0  0  0  0
   25.3666  -22.4133  -13.8966 C   0  0  0  0  0  0  0  0  0  0  0  0
   26.4334  -23.6991  -14.5349 S   0  0  0  0  0  0  0  0  0  0  0  0
   26.6145  -21.1673  -12.1418 C   0  0  0  0  0  0  0  0  0  0  0  0
   27.6818  -21.7927  -11.9152 O   0  0  0  0  0  0  0  0  0  0  0  0
   26.0027  -20.5307  -11.0449 N   0  0  0  0  0  0  0  0  0  0  0  0
   26.4417  -20.6668   -9.6682 C   0  0  1  0  0  0  0  0  0  0  0  0
   27.2089  -19.4028   -9.3458 C   0  0  0  0  0  0  0  0  0  0  0  0
   27.4861  -19.2524   -7.9137 C   0  0  0  0  0  0  0  0  0  0  0  0
   26.9062  -18.3781   -7.0211 C   0  0  0  0  0  0  0  0  0  0  0  0
   27.4341  -18.5518   -5.7978 N   0  0  0  0  0  0  0  0  0  0  0  0
   28.3716  -19.5355   -5.8342 C   0  0  0  0  0  0  0  0  0  0  0  0
   29.1925  -20.0955   -4.8801 C   0  0  0  0  0  0  0  0  0  0  0  0
   30.0675  -21.1014   -5.2012 C   0  0  0  0  0  0  0  0  0  0  0  0
   30.1038  -21.5386   -6.5089 C   0  0  0  0  0  0  0  0  0  0  0  0
   29.2878  -20.9868   -7.4731 C   0  0  0  0  0  0  0  0  0  0  0  0
   28.3925  -19.9620   -7.1586 C   0  0  0  0  0  0  0  0  0  0  0  0
   25.2759  -20.8611   -8.8043 C   0  0  0  0  0  0  0  0  0  0  0  0
   25.4033  -21.4516   -7.5589 O   0  0  0  0  0  0  0  0  0  0  0  0
   24.1438  -20.4920   -9.1875 O   0  0  0  0  0  0  0  0  0  0  0  0
  2  1  1  0
  3  4  1  1
  3  2  1  0
  5  6  1  6
  5  3  1  0
  7  5  1  0
  8  7  2  0
  9  7  1  0
 10  9  1  0
 10 11  1  6
 12 11  1  0
 13 10  1  0
 13 14  2  0
 15 13  1  0
 16 15  1  0
 16 17  1  1
 17 18  1  0
 18 26  1  0
 18 19  2  0
 19 20  1  0
 21 22  2  0
 21 20  1  0
 23 22  1  0
 24 23  2  0
 25 24  1  0
 25 26  2  0
 26 21  1  0
 27 16  1  0
 28 27  1  0
 29 27  2  0
M  END
$$$$
