ICW.pdb
     RDKit          3D

 29 30  0  0  1  0  0  0  0  0999 V2000
   25.1391  -17.0349  -17.2597 C   0  0  0  0  0  0  0  0  0  0  0  0
   26.5276  -17.2747  -16.7204 C   0  0  0  0  0  0  0  0  0  0  0  0
   26.5145  -18.1952  -15.5189 C   0  0  2  0  0  0  0  0  0  0  0  0
   26.8089  -17.3237  -14.3013 C   0  0  0  0  0  0  0  0  0  0  0  0
   27.5698  -19.2559  -15.6431 C   0  0  2  0  0  0  0  0  0  0  0  0
   27.3834  -19.9550  -16.8843 N   0  0  0  0  0  0  0  0  0  0  0  0
   27.6338  -20.1493  -14.4773 C   0  0  0  0  0  0  0  0  0  0  0  0
   26.7301  -20.9872  -14.1977 O   0  0  0  0  0  0  0  0  0  0  0  0
   28.7399  -20.1442  -13.5497 N   0  0  0  0  0  0  0  0  0  0  0  0
   28.7751  -20.9633  -12.3795 C   0  0  1  0  0  0  0  0  0  0  0  0
   30.1728  -21.0741  -11.8406 C   0  0  0  0  0  0  0  0  0  0  0  0
   30.3281  -22.1874  -10.4495 S   0  0  0  0  0  0  0  0  0  0  0  0
   27.7895  -20.5600  -11.3463 C   0  0  0  0  0  0  0  0  0  0  0  0
   27.7104  -19.3432  -11.0383 O   0  0  0  0  0  0  0  0  0  0  0  0
   26.9247  -21.4456  -10.6751 N   0  0  0  0  0  0  0  0  0  0  0  0
   26.1676  -21.1077   -9.4839 C   0  0  1  0  0  0  0  0  0  0  0  0
   27.0609  -20.2046   -8.6613 C   0  0  0  0  0  0  0  0  0  0  0  0
   26.7561  -20.2516   -7.2278 C   0  0  0  0  0  0  0  0  0  0  0  0
   25.6324  -20.7572   -6.6119 C   0  0  0  0  0  0  0  0  0  0  0  0
   25.7335  -20.6131   -5.2799 N   0  0  0  0  0  0  0  0  0  0  0  0
   26.9132  -20.0143   -4.9677 C   0  0  0  0  0  0  0  0  0  0  0  0
   27.4998  -19.6431   -3.7778 C   0  0  0  0  0  0  0  0  0  0  0  0
   28.7309  -19.0395   -3.7534 C   0  0  0  0  0  0  0  0  0  0  0  0
   29.3681  -18.8135   -4.9557 C   0  0  0  0  0  0  0  0  0  0  0  0
   28.7922  -19.1800   -6.1532 C   0  0  0  0  0  0  0  0  0  0  0  0
   27.5389  -19.7954   -6.1912 C   0  0  0  0  0  0  0  0  0  0  0  0
   24.9116  -20.4643   -9.8736 C   0  0  0  0  0  0  0  0  0  0  0  0
   23.6912  -21.0402   -9.5657 O   0  0  0  0  0  0  0  0  0  0  0  0
   24.9304  -19.3783  -10.4942 O   0  0  0  0  0  0  0  0  0  0  0  0
  2  1  1  0
  3  4  1  1
  3  2  1  0
  5  6  1  6
  5  3  1  0
  7  5  1  0
  8  7  2  0
  9  7  1  0
 10  9  1  0
 10 11  1  1
 12 11  1  0
 13 10  1  0
 13 14  2  0
 15 13  1  0
 16 15  1  0
 16 17  1  1
 17 18  1  0
 18 26  1  0
 18 19  2  0
 19 20  1  0
 21 22  2  0
 21 20  1  0
 23 22  1  0
 24 23  2  0
 25 24  1  0
 25 26  2  0
 26 21  1  0
 27 16  1  0
 28 27  1  0
 29 27  2  0
M  END
$$$$
