DGH.pdb
     RDKit          3D

 23 23  0  0  1  0  0  0  0  0999 V2000
   22.7500   -2.6816  -14.2422 N   0  0  0  0  0  0  0  0  0  0  0  0
   21.3440   -2.9362  -14.1129 C   0  0  1  0  0  0  0  0  0  0  0  0
   20.5111   -2.1791  -15.1207 C   0  0  0  0  0  0  0  0  0  0  0  0
   20.6064   -0.7349  -14.8443 C   0  0  0  0  0  0  0  0  0  0  0  0
   21.1991   -0.3325  -13.8254 O   0  0  0  0  0  0  0  0  0  0  0  0
   21.0653   -4.3950  -14.1560 C   0  0  0  0  0  0  0  0  0  0  0  0
   19.8878   -4.8556  -14.1568 O   0  0  0  0  0  0  0  0  0  0  0  0
   20.0424    0.1752  -15.7080 O   0  0  0  0  0  0  0  0  0  0  0  0
   22.1504   -5.3241  -14.1983 N   0  0  0  0  0  0  0  0  0  0  0  0
   21.9584   -6.7401  -14.3412 C   0  0  0  0  0  0  0  0  0  0  0  0
   21.8543   -7.2237  -15.7192 C   0  0  0  0  0  0  0  0  0  0  0  0
   21.9569   -8.4809  -15.9459 O   0  0  0  0  0  0  0  0  0  0  0  0
   21.6477   -6.3346  -16.7908 N   0  0  0  0  0  0  0  0  0  0  0  0
   21.4237   -6.9164  -18.1489 C   0  0  1  0  0  0  0  0  0  0  0  0
   20.3918   -6.0395  -18.7666 C   0  0  0  0  0  0  0  0  0  0  0  0
   20.1506   -6.3693  -20.1737 C   0  0  0  0  0  0  0  0  0  0  0  0
   20.6164   -7.4317  -20.8841 C   0  0  0  0  0  0  0  0  0  0  0  0
   20.0612   -7.3556  -22.1307 N   0  0  0  0  0  0  0  0  0  0  0  0
   19.2847   -6.2685  -22.1438 C   0  0  0  0  0  0  0  0  0  0  0  0
   19.3141   -5.6409  -20.9654 N   0  0  0  0  0  0  0  0  0  0  0  0
   22.7588   -6.7584  -18.8101 C   0  0  0  0  0  0  0  0  0  0  0  0
   23.4829   -5.7389  -18.5554 O   0  0  0  0  0  0  0  0  0  0  0  0
   23.2394   -7.6647  -19.6840 O   0  0  0  0  0  0  0  0  0  0  0  0
  2  1  1  6
  2  6  1  0
  2  3  1  0
  3  4  1  0
  4  8  1  0
  4  5  2  0
  6  9  1  0
  7  6  2  0
  9 10  1  0
 10 11  1  0
 11 13  1  0
 11 12  2  0
 13 14  1  0
 14 21  1  0
 14 15  1  6
 16 17  2  0
 16 15  1  0
 18 17  1  0
 19 20  2  0
 19 18  1  0
 20 16  1  0
 21 22  2  0
 21 23  1  0
M  END
$$$$
