DGH.pdb
     RDKit          3D

 23 23  0  0  1  0  0  0  0  0999 V2000
   27.5506  -21.8967  -16.1309 N   0  0  0  0  0  0  0  0  0  0  0  0
   26.8511  -21.3707  -17.2677 C   0  0  1  0  0  0  0  0  0  0  0  0
   25.8639  -22.3495  -17.8593 C   0  0  0  0  0  0  0  0  0  0  0  0
   26.1846  -23.7085  -17.3889 C   0  0  0  0  0  0  0  0  0  0  0  0
   25.6306  -24.1632  -16.3701 O   0  0  0  0  0  0  0  0  0  0  0  0
   26.2065  -20.0733  -16.9374 C   0  0  0  0  0  0  0  0  0  0  0  0
   25.8526  -19.2509  -17.8302 O   0  0  0  0  0  0  0  0  0  0  0  0
   27.0957  -24.4815  -18.0708 O   0  0  0  0  0  0  0  0  0  0  0  0
   25.9700  -19.7256  -15.5716 N   0  0  0  0  0  0  0  0  0  0  0  0
   25.3235  -18.5048  -15.1793 C   0  0  0  0  0  0  0  0  0  0  0  0
   23.9451  -18.6480  -14.7068 C   0  0  0  0  0  0  0  0  0  0  0  0
   23.6779  -19.5470  -13.8334 O   0  0  0  0  0  0  0  0  0  0  0  0
   22.9164  -17.8212  -15.1964 N   0  0  0  0  0  0  0  0  0  0  0  0
   21.5566  -17.9657  -14.5938 C   0  0  1  0  0  0  0  0  0  0  0  0
   20.8634  -16.6904  -14.9232 C   0  0  0  0  0  0  0  0  0  0  0  0
   19.4601  -16.6944  -14.5016 C   0  0  0  0  0  0  0  0  0  0  0  0
   18.8072  -17.6196  -13.7479 C   0  0  0  0  0  0  0  0  0  0  0  0
   17.5371  -17.1542  -13.5522 N   0  0  0  0  0  0  0  0  0  0  0  0
   17.4541  -15.9778  -14.1800 C   0  0  0  0  0  0  0  0  0  0  0  0
   18.6098  -15.6641  -14.7709 N   0  0  0  0  0  0  0  0  0  0  0  0
   20.9755  -19.1263  -15.3422 C   0  0  0  0  0  0  0  0  0  0  0  0
   21.3351  -19.3576  -16.5446 O   0  0  0  0  0  0  0  0  0  0  0  0
   20.0671  -19.9547  -14.7904 O   0  0  0  0  0  0  0  0  0  0  0  0
  2  1  1  1
  2  6  1  0
  2  3  1  0
  3  4  1  0
  4  8  1  0
  4  5  2  0
  6  9  1  0
  7  6  2  0
  9 10  1  0
 10 11  1  0
 11 13  1  0
 11 12  2  0
 13 14  1  0
 14 21  1  0
 14 15  1  6
 16 17  2  0
 16 15  1  0
 18 17  1  0
 19 20  2  0
 19 18  1  0
 20 16  1  0
 21 22  2  0
 21 23  1  0
M  END
$$$$
