DGH.pdb
     RDKit          3D

 23 23  0  0  1  0  0  0  0  0999 V2000
   21.2536  -10.9885  -16.6760 N   0  0  0  0  0  0  0  0  0  0  0  0
   19.9567  -10.4418  -16.3975 C   0  0  1  0  0  0  0  0  0  0  0  0
   19.0695  -11.3891  -15.6243 C   0  0  0  0  0  0  0  0  0  0  0  0
   18.7440  -12.5509  -16.4700 C   0  0  0  0  0  0  0  0  0  0  0  0
   18.7702  -12.4462  -17.7110 O   0  0  0  0  0  0  0  0  0  0  0  0
   20.0732   -9.1238  -15.7213 C   0  0  0  0  0  0  0  0  0  0  0  0
   19.0605   -8.4264  -15.4272 O   0  0  0  0  0  0  0  0  0  0  0  0
   18.4100  -13.7554  -15.8953 O   0  0  0  0  0  0  0  0  0  0  0  0
   21.3636   -8.6107  -15.3837 N   0  0  0  0  0  0  0  0  0  0  0  0
   21.5537   -7.3365  -14.7495 C   0  0  0  0  0  0  0  0  0  0  0  0
   21.7284   -6.2023  -15.6588 C   0  0  0  0  0  0  0  0  0  0  0  0
   22.5902   -6.2902  -16.6033 O   0  0  0  0  0  0  0  0  0  0  0  0
   20.9716   -5.0248  -15.5101 N   0  0  0  0  0  0  0  0  0  0  0  0
   21.1819   -3.9283  -16.5034 C   0  0  1  0  0  0  0  0  0  0  0  0
   19.8372   -3.6993  -17.0989 C   0  0  0  0  0  0  0  0  0  0  0  0
   19.4898   -4.7144  -18.0967 C   0  0  0  0  0  0  0  0  0  0  0  0
   20.1958   -5.0952  -19.1954 C   0  0  0  0  0  0  0  0  0  0  0  0
   19.5116   -6.1270  -19.7744 N   0  0  0  0  0  0  0  0  0  0  0  0
   18.4275   -6.3432  -19.0240 C   0  0  0  0  0  0  0  0  0  0  0  0
   18.3810   -5.4993  -17.9901 N   0  0  0  0  0  0  0  0  0  0  0  0
   21.6180   -2.7766  -15.6501 C   0  0  0  0  0  0  0  0  0  0  0  0
   21.7151   -2.9173  -14.3855 O   0  0  0  0  0  0  0  0  0  0  0  0
   21.9170   -1.5699  -16.1703 O   0  0  0  0  0  0  0  0  0  0  0  0
  2  1  1  1
  2  6  1  0
  2  3  1  0
  3  4  1  0
  4  8  1  0
  4  5  2  0
  6  9  1  0
  7  6  2  0
  9 10  1  0
 10 11  1  0
 11 13  1  0
 11 12  2  0
 13 14  1  0
 14 21  1  0
 14 15  1  1
 16 17  2  0
 16 15  1  0
 18 17  1  0
 19 20  2  0
 19 18  1  0
 20 16  1  0
 21 22  2  0
 21 23  1  0
M  END
$$$$
