DGH.pdb
     RDKit          3D

 23 23  0  0  1  0  0  0  0  0999 V2000
   21.2964  -12.5094  -16.9401 N   0  0  0  0  0  0  0  0  0  0  0  0
   20.0531  -12.5425  -17.6553 C   0  0  1  0  0  0  0  0  0  0  0  0
   18.8747  -12.8910  -16.7765 C   0  0  0  0  0  0  0  0  0  0  0  0
   19.1160  -14.1943  -16.1329 C   0  0  0  0  0  0  0  0  0  0  0  0
   20.2514  -14.4793  -15.7072 O   0  0  0  0  0  0  0  0  0  0  0  0
   19.8324  -11.2700  -18.3900 C   0  0  0  0  0  0  0  0  0  0  0  0
   18.8608  -11.1105  -19.1831 O   0  0  0  0  0  0  0  0  0  0  0  0
   18.0910  -15.1019  -15.9988 O   0  0  0  0  0  0  0  0  0  0  0  0
   20.7369  -10.1787  -18.2073 N   0  0  0  0  0  0  0  0  0  0  0  0
   20.5213   -8.8828  -18.7872 C   0  0  0  0  0  0  0  0  0  0  0  0
   20.3961   -7.7803  -17.8319 C   0  0  0  0  0  0  0  0  0  0  0  0
   20.2776   -6.5840  -18.2757 O   0  0  0  0  0  0  0  0  0  0  0  0
   20.4069   -8.0132  -16.4436 N   0  0  0  0  0  0  0  0  0  0  0  0
   20.1685   -6.8491  -15.5375 C   0  0  1  0  0  0  0  0  0  0  0  0
   19.1657   -7.3397  -14.5532 C   0  0  0  0  0  0  0  0  0  0  0  0
   17.8231   -7.4435  -15.1308 C   0  0  0  0  0  0  0  0  0  0  0  0
   17.0736   -6.4654  -15.7071 C   0  0  0  0  0  0  0  0  0  0  0  0
   15.9295   -7.0549  -16.1672 N   0  0  0  0  0  0  0  0  0  0  0  0
   16.0137   -8.3536  -15.8650 C   0  0  0  0  0  0  0  0  0  0  0  0
   17.1570   -8.6280  -15.2318 N   0  0  0  0  0  0  0  0  0  0  0  0
   21.5096   -6.6305  -14.9062 C   0  0  0  0  0  0  0  0  0  0  0  0
   21.6398   -5.7913  -13.9536 O   0  0  0  0  0  0  0  0  0  0  0  0
   22.6106   -7.2942  -15.3104 O   0  0  0  0  0  0  0  0  0  0  0  0
  2  1  1  1
  2  6  1  0
  2  3  1  0
  3  4  1  0
  4  8  1  0
  4  5  2  0
  6  9  1  0
  7  6  2  0
  9 10  1  0
 10 11  1  0
 11 13  1  0
 11 12  2  0
 13 14  1  0
 14 21  1  0
 14 15  1  1
 16 17  2  0
 16 15  1  0
 18 17  1  0
 19 20  2  0
 19 18  1  0
 20 16  1  0
 21 22  2  0
 21 23  1  0
M  END
$$$$
