DGH.pdb
     RDKit          3D

 23 23  0  0  1  0  0  0  0  0999 V2000
   18.4146  -15.3735  -15.7300 N   0  0  0  0  0  0  0  0  0  0  0  0
   17.4464  -14.7043  -16.5505 C   0  0  1  0  0  0  0  0  0  0  0  0
   16.0710  -14.6625  -15.9270 C   0  0  0  0  0  0  0  0  0  0  0  0
   15.5744  -16.0385  -15.7507 C   0  0  0  0  0  0  0  0  0  0  0  0
   15.8730  -16.9205  -16.5781 O   0  0  0  0  0  0  0  0  0  0  0  0
   17.9201  -13.3470  -16.9261 C   0  0  0  0  0  0  0  0  0  0  0  0
   17.2889  -12.6155  -17.7417 O   0  0  0  0  0  0  0  0  0  0  0  0
   14.7797  -16.3565  -14.6737 O   0  0  0  0  0  0  0  0  0  0  0  0
   19.1264  -12.8335  -16.3573 N   0  0  0  0  0  0  0  0  0  0  0  0
   19.5887  -11.4939  -16.5898 C   0  0  0  0  0  0  0  0  0  0  0  0
   20.8027  -11.1139  -15.8650 C   0  0  0  0  0  0  0  0  0  0  0  0
   21.4167  -12.0010  -15.1732 O   0  0  0  0  0  0  0  0  0  0  0  0
   21.2999   -9.7979  -15.9139 N   0  0  0  0  0  0  0  0  0  0  0  0
   22.6832   -9.5536  -15.4041 C   0  0  1  0  0  0  0  0  0  0  0  0
   23.5621  -10.3364  -16.3152 C   0  0  0  0  0  0  0  0  0  0  0  0
   24.9830  -10.1665  -16.0002 C   0  0  0  0  0  0  0  0  0  0  0  0
   25.5939  -10.2400  -14.7871 C   0  0  0  0  0  0  0  0  0  0  0  0
   26.9352  -10.0921  -15.0035 N   0  0  0  0  0  0  0  0  0  0  0  0
   27.1010   -9.9371  -16.3201 C   0  0  0  0  0  0  0  0  0  0  0  0
   25.9303   -9.9776  -16.9614 N   0  0  0  0  0  0  0  0  0  0  0  0
   22.8581   -8.0775  -15.5918 C   0  0  0  0  0  0  0  0  0  0  0  0
   22.2189   -7.4690  -16.5136 O   0  0  0  0  0  0  0  0  0  0  0  0
   23.6814   -7.3471  -14.8143 O   0  0  0  0  0  0  0  0  0  0  0  0
  2  1  1  1
  2  6  1  0
  2  3  1  0
  3  4  1  0
  4  8  1  0
  4  5  2  0
  6  9  1  0
  7  6  2  0
  9 10  1  0
 10 11  1  0
 11 13  1  0
 11 12  2  0
 13 14  1  0
 14 21  1  0
 14 15  1  6
 16 17  2  0
 16 15  1  0
 18 17  1  0
 19 20  2  0
 19 18  1  0
 20 16  1  0
 21 22  2  0
 21 23  1  0
M  END
$$$$
