DGH.pdb
     RDKit          3D

 23 23  0  0  1  0  0  0  0  0999 V2000
   14.7412  -10.8502  -13.3517 N   0  0  0  0  0  0  0  0  0  0  0  0
   14.6763  -11.6384  -12.1546 C   0  0  1  0  0  0  0  0  0  0  0  0
   15.1507  -13.0587  -12.3556 C   0  0  0  0  0  0  0  0  0  0  0  0
   14.0934  -13.8346  -13.0274 C   0  0  0  0  0  0  0  0  0  0  0  0
   12.9390  -13.3742  -13.1108 O   0  0  0  0  0  0  0  0  0  0  0  0
   15.4004  -10.9703  -11.0424 C   0  0  0  0  0  0  0  0  0  0  0  0
   15.4785  -11.4799   -9.8879 O   0  0  0  0  0  0  0  0  0  0  0  0
   14.3745  -15.0691  -13.5652 O   0  0  0  0  0  0  0  0  0  0  0  0
   16.0362   -9.7099  -11.2650 N   0  0  0  0  0  0  0  0  0  0  0  0
   16.8693   -9.0736  -10.2837 C   0  0  0  0  0  0  0  0  0  0  0  0
   17.4991   -7.8226  -10.7107 C   0  0  0  0  0  0  0  0  0  0  0  0
   18.1887   -7.1532   -9.8629 O   0  0  0  0  0  0  0  0  0  0  0  0
   17.3567   -7.3467  -12.0277 N   0  0  0  0  0  0  0  0  0  0  0  0
   18.0212   -6.0554  -12.3803 C   0  0  1  0  0  0  0  0  0  0  0  0
   18.8625   -6.3781  -13.5649 C   0  0  0  0  0  0  0  0  0  0  0  0
   20.0443   -7.1683  -13.2100 C   0  0  0  0  0  0  0  0  0  0  0  0
   21.2399   -6.7311  -12.7307 C   0  0  0  0  0  0  0  0  0  0  0  0
   21.9990   -7.8385  -12.4749 N   0  0  0  0  0  0  0  0  0  0  0  0
   21.2564   -8.9010  -12.7985 C   0  0  0  0  0  0  0  0  0  0  0  0
   20.0560   -8.5303  -13.2509 N   0  0  0  0  0  0  0  0  0  0  0  0
   16.8688   -5.1678  -12.7391 C   0  0  0  0  0  0  0  0  0  0  0  0
   17.0802   -3.9766  -13.1451 O   0  0  0  0  0  0  0  0  0  0  0  0
   15.5890   -5.5800  -12.6480 O   0  0  0  0  0  0  0  0  0  0  0  0
  2  1  1  6
  2  6  1  0
  2  3  1  0
  3  4  1  0
  4  8  1  0
  4  5  2  0
  6  9  1  0
  7  6  2  0
  9 10  1  0
 10 11  1  0
 11 13  1  0
 11 12  2  0
 13 14  1  0
 14 21  1  0
 14 15  1  6
 16 17  2  0
 16 15  1  0
 18 17  1  0
 19 20  2  0
 19 18  1  0
 20 16  1  0
 21 22  2  0
 21 23  1  0
M  END
$$$$
