WFG.pdb
     RDKit          3D

 30 32  0  0  1  0  0  0  0  0999 V2000
    7.6655  -17.5287   20.4112 N   0  0  0  0  0  0  0  0  0  0  0  0
    7.4591  -17.8246   21.8152 C   0  0  1  0  0  0  0  0  0  0  0  0
    8.1984  -19.0869   22.2149 C   0  0  0  0  0  0  0  0  0  0  0  0
    7.2997  -20.1332   22.7538 C   0  0  0  0  0  0  0  0  0  0  0  0
    6.4614  -21.0174   22.1220 C   0  0  0  0  0  0  0  0  0  0  0  0
    5.8242  -21.7998   23.0132 N   0  0  0  0  0  0  0  0  0  0  0  0
    6.2372  -21.4395   24.2647 C   0  0  0  0  0  0  0  0  0  0  0  0
    5.8918  -21.9266   25.4997 C   0  0  0  0  0  0  0  0  0  0  0  0
    6.4505  -21.3970   26.6343 C   0  0  0  0  0  0  0  0  0  0  0  0
    7.3555  -20.3801   26.5254 C   0  0  0  0  0  0  0  0  0  0  0  0
    7.7003  -19.8931   25.2830 C   0  0  0  0  0  0  0  0  0  0  0  0
    7.1524  -20.4062   24.1000 C   0  0  0  0  0  0  0  0  0  0  0  0
    7.8869  -16.6620   22.6189 C   0  0  0  0  0  0  0  0  0  0  0  0
    8.8004  -15.8914   22.2415 O   0  0  0  0  0  0  0  0  0  0  0  0
    7.2763  -16.3418   23.8893 N   0  0  0  0  0  0  0  0  0  0  0  0
    7.7573  -15.2240   24.6782 C   0  0  1  0  0  0  0  0  0  0  0  0
    6.5210  -14.6654   25.4036 C   0  0  0  0  0  0  0  0  0  0  0  0
    6.6949  -13.2718   25.8410 C   0  0  0  0  0  0  0  0  0  0  0  0
    6.7627  -12.9887   27.1989 C   0  0  0  0  0  0  0  0  0  0  0  0
    6.9440  -11.6606   27.6049 C   0  0  0  0  0  0  0  0  0  0  0  0
    7.0530  -10.6590   26.6883 C   0  0  0  0  0  0  0  0  0  0  0  0
    6.9885  -10.9205   25.3291 C   0  0  0  0  0  0  0  0  0  0  0  0
    6.8064  -12.2621   24.9367 C   0  0  0  0  0  0  0  0  0  0  0  0
    8.6944  -15.7015   25.6971 C   0  0  0  0  0  0  0  0  0  0  0  0
    8.5810  -15.3914   26.9305 O   0  0  0  0  0  0  0  0  0  0  0  0
    9.7853  -16.5481   25.3189 N   0  0  0  0  0  0  0  0  0  0  0  0
   10.7714  -16.9692   26.3110 C   0  0  0  0  0  0  0  0  0  0  0  0
   11.8575  -17.7387   25.6358 C   0  0  0  0  0  0  0  0  0  0  0  0
   12.8855  -18.3216   26.3396 O   0  0  0  0  0  0  0  0  0  0  0  0
   11.8336  -17.8596   24.3823 O   0  0  0  0  0  0  0  0  0  0  0  0
  2  3  1  0
  2  1  1  6
  2 13  1  0
  3  4  1  0
  4 12  1  0
  4  5  2  0
  5  6  1  0
  7  6  1  0
  7  8  2  0
  9  8  1  0
 10  9  2  0
 11 12  2  0
 11 10  1  0
 12  7  1  0
 13 14  2  0
 15 13  1  0
 15 16  1  0
 16 24  1  0
 16 17  1  1
 18 17  1  0
 19 18  2  0
 20 19  1  0
 21 22  1  0
 21 20  2  0
 22 23  2  0
 23 18  1  0
 24 25  2  0
 26 24  1  0
 26 27  1  0
 28 29  1  0
 28 27  1  0
 30 28  2  0
M  END
$$$$
