WFG.pdb
     RDKit          3D

 30 32  0  0  1  0  0  0  0  0999 V2000
    5.8413  -18.1292   24.7275 N   0  0  0  0  0  0  0  0  0  0  0  0
    6.7848  -17.2843   24.0223 C   0  0  1  0  0  0  0  0  0  0  0  0
    7.7060  -16.5750   24.9959 C   0  0  0  0  0  0  0  0  0  0  0  0
    7.0126  -15.5347   25.7896 C   0  0  0  0  0  0  0  0  0  0  0  0
    5.8816  -15.5940   26.5648 C   0  0  0  0  0  0  0  0  0  0  0  0
    5.6073  -14.3945   27.1113 N   0  0  0  0  0  0  0  0  0  0  0  0
    6.5658  -13.5123   26.6996 C   0  0  0  0  0  0  0  0  0  0  0  0
    6.7377  -12.1794   26.9747 C   0  0  0  0  0  0  0  0  0  0  0  0
    7.7958  -11.4921   26.4379 C   0  0  0  0  0  0  0  0  0  0  0  0
    8.6790  -12.1457   25.6269 C   0  0  0  0  0  0  0  0  0  0  0  0
    8.5033  -13.4849   25.3526 C   0  0  0  0  0  0  0  0  0  0  0  0
    7.4357  -14.2228   25.8806 C   0  0  0  0  0  0  0  0  0  0  0  0
    7.5389  -18.1086   23.0567 C   0  0  0  0  0  0  0  0  0  0  0  0
    7.0961  -19.1975   22.6219 O   0  0  0  0  0  0  0  0  0  0  0  0
    8.8333  -17.7079   22.5533 N   0  0  0  0  0  0  0  0  0  0  0  0
    8.9401  -16.7303   21.4875 C   0  0  1  0  0  0  0  0  0  0  0  0
    8.0819  -15.5341   21.9338 C   0  0  0  0  0  0  0  0  0  0  0  0
    8.0420  -14.4541   20.9359 C   0  0  0  0  0  0  0  0  0  0  0  0
    7.7265  -13.1642   21.3423 C   0  0  0  0  0  0  0  0  0  0  0  0
    7.7063  -12.1398   20.3874 C   0  0  0  0  0  0  0  0  0  0  0  0
    7.9906  -12.3980   19.0805 C   0  0  0  0  0  0  0  0  0  0  0  0
    8.3081  -13.6778   18.6549 C   0  0  0  0  0  0  0  0  0  0  0  0
    8.3248  -14.6974   19.6281 C   0  0  0  0  0  0  0  0  0  0  0  0
   10.3249  -16.2679   21.3740 C   0  0  0  0  0  0  0  0  0  0  0  0
   10.7396  -15.5864   20.3771 O   0  0  0  0  0  0  0  0  0  0  0  0
   11.2657  -16.5802   22.4071 N   0  0  0  0  0  0  0  0  0  0  0  0
   12.6221  -16.0400   22.3584 C   0  0  0  0  0  0  0  0  0  0  0  0
   13.4666  -16.8978   21.4761 C   0  0  0  0  0  0  0  0  0  0  0  0
   14.8245  -16.7118   21.3598 O   0  0  0  0  0  0  0  0  0  0  0  0
   12.9208  -17.8218   20.8167 O   0  0  0  0  0  0  0  0  0  0  0  0
  2  3  1  0
  2  1  1  1
  2 13  1  0
  3  4  1  0
  4 12  1  0
  4  5  2  0
  5  6  1  0
  7  6  1  0
  7  8  2  0
  9  8  1  0
 10  9  2  0
 11 12  2  0
 11 10  1  0
 12  7  1  0
 13 14  2  0
 15 13  1  0
 15 16  1  0
 16 24  1  0
 16 17  1  1
 18 17  1  0
 19 18  2  0
 20 19  1  0
 21 22  1  0
 21 20  2  0
 22 23  2  0
 23 18  1  0
 24 25  2  0
 26 24  1  0
 26 27  1  0
 28 29  1  0
 28 27  1  0
 30 28  2  0
M  END
$$$$
