WFG.pdb
     RDKit          3D

 30 32  0  0  1  0  0  0  0  0999 V2000
    7.6245  -14.8581   20.5395 N   0  0  0  0  0  0  0  0  0  0  0  0
    7.1785  -15.8396   21.5086 C   0  0  1  0  0  0  0  0  0  0  0  0
    7.2247  -17.2371   20.9215 C   0  0  0  0  0  0  0  0  0  0  0  0
    5.9621  -17.6202   20.2493 C   0  0  0  0  0  0  0  0  0  0  0  0
    5.6245  -17.6674   18.9198 C   0  0  0  0  0  0  0  0  0  0  0  0
    4.3525  -18.0777   18.7587 N   0  0  0  0  0  0  0  0  0  0  0  0
    3.8226  -18.3109   19.9963 C   0  0  0  0  0  0  0  0  0  0  0  0
    2.5756  -18.7404   20.3734 C   0  0  0  0  0  0  0  0  0  0  0  0
    2.2716  -18.9055   21.7002 C   0  0  0  0  0  0  0  0  0  0  0  0
    3.2213  -18.6395   22.6448 C   0  0  0  0  0  0  0  0  0  0  0  0
    4.4733  -18.2081   22.2624 C   0  0  0  0  0  0  0  0  0  0  0  0
    4.8236  -18.0265   20.9181 C   0  0  0  0  0  0  0  0  0  0  0  0
    8.0116  -15.7284   22.7229 C   0  0  0  0  0  0  0  0  0  0  0  0
    9.2075  -15.3562   22.6782 O   0  0  0  0  0  0  0  0  0  0  0  0
    7.4968  -16.0406   24.0369 N   0  0  0  0  0  0  0  0  0  0  0  0
    8.3549  -15.9618   25.2033 C   0  0  1  0  0  0  0  0  0  0  0  0
    7.4590  -15.4491   26.3440 C   0  0  0  0  0  0  0  0  0  0  0  0
    7.2919  -13.9877   26.3279 C   0  0  0  0  0  0  0  0  0  0  0  0
    6.0833  -13.4460   25.9103 C   0  0  0  0  0  0  0  0  0  0  0  0
    5.9286  -12.0541   25.9134 C   0  0  0  0  0  0  0  0  0  0  0  0
    6.9427  -11.2399   26.3182 C   0  0  0  0  0  0  0  0  0  0  0  0
    8.1559  -11.7603   26.7390 C   0  0  0  0  0  0  0  0  0  0  0  0
    8.2955  -13.1629   26.7307 C   0  0  0  0  0  0  0  0  0  0  0  0
    8.8203  -17.3012   25.5695 C   0  0  0  0  0  0  0  0  0  0  0  0
    8.0167  -18.2465   25.8708 O   0  0  0  0  0  0  0  0  0  0  0  0
   10.2237  -17.5833   25.5973 N   0  0  0  0  0  0  0  0  0  0  0  0
   10.7000  -18.9313   25.8977 C   0  0  0  0  0  0  0  0  0  0  0  0
   10.8134  -19.0996   27.3763 C   0  0  0  0  0  0  0  0  0  0  0  0
   11.9812  -18.8366   28.0538 O   0  0  0  0  0  0  0  0  0  0  0  0
    9.8092  -19.4946   28.0261 O   0  0  0  0  0  0  0  0  0  0  0  0
  2  3  1  0
  2  1  1  6
  2 13  1  0
  3  4  1  0
  4 12  1  0
  4  5  2  0
  5  6  1  0
  7  6  1  0
  7  8  2  0
  9  8  1  0
 10  9  2  0
 11 12  2  0
 11 10  1  0
 12  7  1  0
 13 14  2  0
 15 13  1  0
 15 16  1  0
 16 24  1  0
 16 17  1  1
 18 17  1  0
 19 18  2  0
 20 19  1  0
 21 22  1  0
 21 20  2  0
 22 23  2  0
 23 18  1  0
 24 25  2  0
 26 24  1  0
 26 27  1  0
 28 29  1  0
 28 27  1  0
 30 28  2  0
M  END
$$$$
