WFG.pdb
     RDKit          3D

 30 32  0  0  1  0  0  0  0  0999 V2000
    8.2317  -18.1625   23.0390 N   0  0  0  0  0  0  0  0  0  0  0  0
    9.4513  -17.4713   22.6703 C   0  0  1  0  0  0  0  0  0  0  0  0
    9.2568  -16.6784   21.3923 C   0  0  0  0  0  0  0  0  0  0  0  0
    8.0293  -15.8503   21.4109 C   0  0  0  0  0  0  0  0  0  0  0  0
    6.7286  -16.1692   21.7118 C   0  0  0  0  0  0  0  0  0  0  0  0
    5.9285  -15.0926   21.5974 N   0  0  0  0  0  0  0  0  0  0  0  0
    6.6986  -14.0313   21.2135 C   0  0  0  0  0  0  0  0  0  0  0  0
    6.3667  -12.7237   20.9650 C   0  0  0  0  0  0  0  0  0  0  0  0
    7.3302  -11.8241   20.5875 C   0  0  0  0  0  0  0  0  0  0  0  0
    8.6248  -12.2401   20.4615 C   0  0  0  0  0  0  0  0  0  0  0  0
    8.9548  -13.5547   20.7119 C   0  0  0  0  0  0  0  0  0  0  0  0
    8.0007  -14.5047   21.0993 C   0  0  0  0  0  0  0  0  0  0  0  0
    9.8715  -16.6074   23.7918 C   0  0  0  0  0  0  0  0  0  0  0  0
   10.8344  -15.8111   23.6946 O   0  0  0  0  0  0  0  0  0  0  0  0
    9.1957  -16.6270   25.0694 N   0  0  0  0  0  0  0  0  0  0  0  0
    9.6992  -15.8453   26.1824 C   0  0  1  0  0  0  0  0  0  0  0  0
    8.4625  -15.4606   27.0125 C   0  0  0  0  0  0  0  0  0  0  0  0
    7.8316  -14.2129   26.5552 C   0  0  0  0  0  0  0  0  0  0  0  0
    8.5739  -13.0392   26.5460 C   0  0  0  0  0  0  0  0  0  0  0  0
    7.9691  -11.8596   26.0942 C   0  0  0  0  0  0  0  0  0  0  0  0
    6.6749  -11.8570   25.6695 C   0  0  0  0  0  0  0  0  0  0  0  0
    5.9174  -13.0172   25.6703 C   0  0  0  0  0  0  0  0  0  0  0  0
    6.5407  -14.1959   26.1273 C   0  0  0  0  0  0  0  0  0  0  0  0
   10.5605  -16.6776   27.0249 C   0  0  0  0  0  0  0  0  0  0  0  0
   11.0457  -16.2611   28.1301 O   0  0  0  0  0  0  0  0  0  0  0  0
   10.8837  -18.0104   26.6138 N   0  0  0  0  0  0  0  0  0  0  0  0
   11.7378  -18.8534   27.4468 C   0  0  0  0  0  0  0  0  0  0  0  0
   11.9103  -20.1843   26.7937 C   0  0  0  0  0  0  0  0  0  0  0  0
   11.8226  -21.3612   27.5001 O   0  0  0  0  0  0  0  0  0  0  0  0
   12.1432  -20.2334   25.5568 O   0  0  0  0  0  0  0  0  0  0  0  0
  2  3  1  0
  2  1  1  1
  2 13  1  0
  3  4  1  0
  4 12  1  0
  4  5  2  0
  5  6  1  0
  7  6  1  0
  7  8  2  0
  9  8  1  0
 10  9  2  0
 11 12  2  0
 11 10  1  0
 12  7  1  0
 13 14  2  0
 15 13  1  0
 15 16  1  0
 16 24  1  0
 16 17  1  1
 18 17  1  0
 19 18  2  0
 20 19  1  0
 21 22  1  0
 21 20  2  0
 22 23  2  0
 23 18  1  0
 24 25  2  0
 26 24  1  0
 26 27  1  0
 28 29  1  0
 28 27  1  0
 30 28  2  0
M  END
$$$$
