WFG.pdb
     RDKit          3D

 30 32  0  0  1  0  0  0  0  0999 V2000
    8.2641  -17.1136   22.8229 N   0  0  0  0  0  0  0  0  0  0  0  0
    8.8593  -15.7924   22.8626 C   0  0  1  0  0  0  0  0  0  0  0  0
    7.8225  -14.7247   22.5716 C   0  0  0  0  0  0  0  0  0  0  0  0
    7.3415  -14.7569   21.1715 C   0  0  0  0  0  0  0  0  0  0  0  0
    6.2976  -15.4321   20.5899 C   0  0  0  0  0  0  0  0  0  0  0  0
    6.2242  -15.1656   19.2723 N   0  0  0  0  0  0  0  0  0  0  0  0
    7.2324  -14.2985   18.9587 C   0  0  0  0  0  0  0  0  0  0  0  0
    7.5854  -13.7257   17.7633 C   0  0  0  0  0  0  0  0  0  0  0  0
    8.6539  -12.8692   17.6942 C   0  0  0  0  0  0  0  0  0  0  0  0
    9.3646  -12.5896   18.8264 C   0  0  0  0  0  0  0  0  0  0  0  0
    9.0072  -13.1668   20.0258 C   0  0  0  0  0  0  0  0  0  0  0  0
    7.9229  -14.0469   20.1387 C   0  0  0  0  0  0  0  0  0  0  0  0
    9.4964  -15.5922   24.1797 C   0  0  0  0  0  0  0  0  0  0  0  0
   10.4109  -14.7536   24.3565 O   0  0  0  0  0  0  0  0  0  0  0  0
    9.1021  -16.3507   25.3452 N   0  0  0  0  0  0  0  0  0  0  0  0
    9.6809  -16.0627   26.6433 C   0  0  1  0  0  0  0  0  0  0  0  0
    8.4892  -15.7989   27.5798 C   0  0  0  0  0  0  0  0  0  0  0  0
    7.7870  -14.5433   27.2730 C   0  0  0  0  0  0  0  0  0  0  0  0
    8.3911  -13.3325   27.5856 C   0  0  0  0  0  0  0  0  0  0  0  0
    7.7213  -12.1422   27.2754 C   0  0  0  0  0  0  0  0  0  0  0  0
    6.4980  -12.1651   26.6770 C   0  0  0  0  0  0  0  0  0  0  0  0
    5.8786  -13.3624   26.3565 C   0  0  0  0  0  0  0  0  0  0  0  0
    6.5658  -14.5513   26.6746 C   0  0  0  0  0  0  0  0  0  0  0  0
   10.3893  -17.2423   27.1445 C   0  0  0  0  0  0  0  0  0  0  0  0
   10.8210  -17.3236   28.3433 O   0  0  0  0  0  0  0  0  0  0  0  0
   10.6174  -18.3572   26.2755 N   0  0  0  0  0  0  0  0  0  0  0  0
   11.3710  -19.5171   26.7451 C   0  0  0  0  0  0  0  0  0  0  0  0
   12.8107  -19.3514   26.3882 C   0  0  0  0  0  0  0  0  0  0  0  0
   13.2870  -18.2102   25.7860 O   0  0  0  0  0  0  0  0  0  0  0  0
   13.6165  -20.2845   26.6461 O   0  0  0  0  0  0  0  0  0  0  0  0
  2  3  1  0
  2  1  1  1
  2 13  1  0
  3  4  1  0
  4 12  1  0
  4  5  2  0
  5  6  1  0
  7  6  1  0
  7  8  2  0
  9  8  1  0
 10  9  2  0
 11 12  2  0
 11 10  1  0
 12  7  1  0
 13 14  2  0
 15 13  1  0
 15 16  1  0
 16 24  1  0
 16 17  1  1
 18 17  1  0
 19 18  2  0
 20 19  1  0
 21 22  1  0
 21 20  2  0
 22 23  2  0
 23 18  1  0
 24 25  2  0
 26 24  1  0
 26 27  1  0
 28 29  1  0
 28 27  1  0
 30 28  2  0
M  END
$$$$
