WFG.pdb
     RDKit          3D

 30 32  0  0  1  0  0  0  0  0999 V2000
    9.1905  -16.1479   20.9068 N   0  0  0  0  0  0  0  0  0  0  0  0
    8.8769  -15.8343   22.2869 C   0  0  1  0  0  0  0  0  0  0  0  0
    7.5375  -16.4247   22.6834 C   0  0  0  0  0  0  0  0  0  0  0  0
    7.0300  -15.8879   23.9667 C   0  0  0  0  0  0  0  0  0  0  0  0
    6.5908  -16.5233   25.1014 C   0  0  0  0  0  0  0  0  0  0  0  0
    6.2153  -15.6329   26.0388 N   0  0  0  0  0  0  0  0  0  0  0  0
    6.4030  -14.3785   25.5310 C   0  0  0  0  0  0  0  0  0  0  0  0
    6.1774  -13.1429   26.0825 C   0  0  0  0  0  0  0  0  0  0  0  0
    6.4493  -12.0050   25.3675 C   0  0  0  0  0  0  0  0  0  0  0  0
    6.9478  -12.1111   24.1006 C   0  0  0  0  0  0  0  0  0  0  0  0
    7.1733  -13.3541   23.5494 C   0  0  0  0  0  0  0  0  0  0  0  0
    6.9086  -14.5405   24.2462 C   0  0  0  0  0  0  0  0  0  0  0  0
    9.9690  -16.3257   23.1509 C   0  0  0  0  0  0  0  0  0  0  0  0
   10.6706  -17.3163   22.8390 O   0  0  0  0  0  0  0  0  0  0  0  0
   10.2957  -15.6923   24.4084 N   0  0  0  0  0  0  0  0  0  0  0  0
   11.5334  -16.0092   25.0946 C   0  0  1  0  0  0  0  0  0  0  0  0
   11.8325  -14.7963   25.9925 C   0  0  0  0  0  0  0  0  0  0  0  0
   10.9689  -14.7377   27.1819 C   0  0  0  0  0  0  0  0  0  0  0  0
    9.8159  -13.9645   27.1475 C   0  0  0  0  0  0  0  0  0  0  0  0
    8.9921  -13.9275   28.2796 C   0  0  0  0  0  0  0  0  0  0  0  0
    9.3108  -14.6359   29.3984 C   0  0  0  0  0  0  0  0  0  0  0  0
   10.4562  -15.4137   29.4527 C   0  0  0  0  0  0  0  0  0  0  0  0
   11.2744  -15.4409   28.3052 C   0  0  0  0  0  0  0  0  0  0  0  0
   11.3362  -17.1704   25.9647 C   0  0  0  0  0  0  0  0  0  0  0  0
   12.2347  -17.5797   26.7742 O   0  0  0  0  0  0  0  0  0  0  0  0
   10.0981  -17.8883   25.9226 N   0  0  0  0  0  0  0  0  0  0  0  0
    9.8873  -19.0477   26.7858 C   0  0  0  0  0  0  0  0  0  0  0  0
   10.3160  -20.2847   26.0692 C   0  0  0  0  0  0  0  0  0  0  0  0
    9.8738  -21.5335   26.4392 O   0  0  0  0  0  0  0  0  0  0  0  0
   11.1074  -20.1840   25.0944 O   0  0  0  0  0  0  0  0  0  0  0  0
  2  3  1  0
  2  1  1  6
  2 13  1  0
  3  4  1  0
  4 12  1  0
  4  5  2  0
  5  6  1  0
  7  6  1  0
  7  8  2  0
  9  8  1  0
 10  9  2  0
 11 12  2  0
 11 10  1  0
 12  7  1  0
 13 14  2  0
 15 13  1  0
 15 16  1  0
 16 24  1  0
 16 17  1  1
 18 17  1  0
 19 18  2  0
 20 19  1  0
 21 22  1  0
 21 20  2  0
 22 23  2  0
 23 18  1  0
 24 25  2  0
 26 24  1  0
 26 27  1  0
 28 29  1  0
 28 27  1  0
 30 28  2  0
M  END
$$$$
