WFG.pdb
     RDKit          3D

 30 32  0  0  1  0  0  0  0  0999 V2000
   11.5614  -14.7483   21.7845 N   0  0  0  0  0  0  0  0  0  0  0  0
   10.1653  -14.9976   22.0847 C   0  0  1  0  0  0  0  0  0  0  0  0
    9.5739  -15.9968   21.1093 C   0  0  0  0  0  0  0  0  0  0  0  0
    8.2378  -15.5945   20.6136 C   0  0  0  0  0  0  0  0  0  0  0  0
    7.8463  -14.5426   19.8235 C   0  0  0  0  0  0  0  0  0  0  0  0
    6.5157  -14.5608   19.6196 N   0  0  0  0  0  0  0  0  0  0  0  0
    6.0005  -15.6396   20.2810 C   0  0  0  0  0  0  0  0  0  0  0  0
    4.7117  -16.0978   20.3857 C   0  0  0  0  0  0  0  0  0  0  0  0
    4.4342  -17.2242   21.1166 C   0  0  0  0  0  0  0  0  0  0  0  0
    5.4520  -17.8881   21.7396 C   0  0  0  0  0  0  0  0  0  0  0  0
    6.7457  -17.4250   21.6323 C   0  0  0  0  0  0  0  0  0  0  0  0
    7.0712  -16.2784   20.8958 C   0  0  0  0  0  0  0  0  0  0  0  0
   10.0502  -15.4625   23.4816 C   0  0  0  0  0  0  0  0  0  0  0  0
   11.0561  -15.6617   24.2022 O   0  0  0  0  0  0  0  0  0  0  0  0
    8.7695  -15.7143   24.1027 N   0  0  0  0  0  0  0  0  0  0  0  0
    8.6748  -15.9433   25.5316 C   0  0  1  0  0  0  0  0  0  0  0  0
    7.2629  -15.4829   25.9331 C   0  0  0  0  0  0  0  0  0  0  0  0
    7.1972  -14.0480   26.2503 C   0  0  0  0  0  0  0  0  0  0  0  0
    6.3048  -13.2389   25.5593 C   0  0  0  0  0  0  0  0  0  0  0  0
    6.2387  -11.8771   25.8794 C   0  0  0  0  0  0  0  0  0  0  0  0
    7.0336  -11.3490   26.8512 C   0  0  0  0  0  0  0  0  0  0  0  0
    7.9300  -12.1391   27.5526 C   0  0  0  0  0  0  0  0  0  0  0  0
    7.9841  -13.5076   27.2191 C   0  0  0  0  0  0  0  0  0  0  0  0
    8.7730  -17.3771   25.8127 C   0  0  0  0  0  0  0  0  0  0  0  0
    8.7645  -17.8439   27.0011 O   0  0  0  0  0  0  0  0  0  0  0  0
    8.8837  -18.3079   24.7304 N   0  0  0  0  0  0  0  0  0  0  0  0
   10.1820  -18.8749   24.3742 C   0  0  0  0  0  0  0  0  0  0  0  0
   10.6496  -19.7724   25.4713 C   0  0  0  0  0  0  0  0  0  0  0  0
   10.6961  -21.1394   25.3266 O   0  0  0  0  0  0  0  0  0  0  0  0
   11.0139  -19.2639   26.5646 O   0  0  0  0  0  0  0  0  0  0  0  0
  2  3  1  0
  2  1  1  6
  2 13  1  0
  3  4  1  0
  4 12  1  0
  4  5  2  0
  5  6  1  0
  7  6  1  0
  7  8  2  0
  9  8  1  0
 10  9  2  0
 11 12  2  0
 11 10  1  0
 12  7  1  0
 13 14  2  0
 15 13  1  0
 15 16  1  0
 16 24  1  0
 16 17  1  6
 18 17  1  0
 19 18  2  0
 20 19  1  0
 21 22  1  0
 21 20  2  0
 22 23  2  0
 23 18  1  0
 24 25  2  0
 26 24  1  0
 26 27  1  0
 28 29  1  0
 28 27  1  0
 30 28  2  0
M  END
$$$$
