WFG.pdb
     RDKit          3D

 30 32  0  0  1  0  0  0  0  0999 V2000
   10.7342  -15.9480   21.9039 N   0  0  0  0  0  0  0  0  0  0  0  0
    9.5619  -15.7035   22.7207 C   0  0  1  0  0  0  0  0  0  0  0  0
    8.4131  -16.5983   22.2971 C   0  0  0  0  0  0  0  0  0  0  0  0
    7.5954  -16.0090   21.2122 C   0  0  0  0  0  0  0  0  0  0  0  0
    6.5148  -16.5030   20.5250 C   0  0  0  0  0  0  0  0  0  0  0  0
    6.0782  -15.6171   19.6101 N   0  0  0  0  0  0  0  0  0  0  0  0
    6.8746  -14.5091   19.6795 C   0  0  0  0  0  0  0  0  0  0  0  0
    6.8466  -13.3365   18.9681 C   0  0  0  0  0  0  0  0  0  0  0  0
    7.7648  -12.3503   19.2217 C   0  0  0  0  0  0  0  0  0  0  0  0
    8.7082  -12.5441   20.1899 C   0  0  0  0  0  0  0  0  0  0  0  0
    8.7335  -13.7234   20.9028 C   0  0  0  0  0  0  0  0  0  0  0  0
    7.8139  -14.7555   20.6742 C   0  0  0  0  0  0  0  0  0  0  0  0
    9.9158  -15.9026   24.1405 C   0  0  0  0  0  0  0  0  0  0  0  0
   11.1014  -16.0593   24.5156 O   0  0  0  0  0  0  0  0  0  0  0  0
    8.9157  -15.9271   25.1837 N   0  0  0  0  0  0  0  0  0  0  0  0
    9.3035  -15.8567   26.5794 C   0  0  1  0  0  0  0  0  0  0  0  0
    8.0348  -15.4384   27.3422 C   0  0  0  0  0  0  0  0  0  0  0  0
    7.5579  -14.0980   26.9685 C   0  0  0  0  0  0  0  0  0  0  0  0
    8.2771  -12.9821   27.3762 C   0  0  0  0  0  0  0  0  0  0  0  0
    7.8236  -11.7110   27.0022 C   0  0  0  0  0  0  0  0  0  0  0  0
    6.6967  -11.5649   26.2511 C   0  0  0  0  0  0  0  0  0  0  0  0
    5.9652  -12.6652   25.8338 C   0  0  0  0  0  0  0  0  0  0  0  0
    6.4352  -13.9374   26.2179 C   0  0  0  0  0  0  0  0  0  0  0  0
    9.6919  -17.1861   27.0551 C   0  0  0  0  0  0  0  0  0  0  0  0
   10.0271  -17.4087   28.2668 O   0  0  0  0  0  0  0  0  0  0  0  0
    9.7037  -18.2915   26.1451 N   0  0  0  0  0  0  0  0  0  0  0  0
   10.0756  -19.6258   26.6091 C   0  0  0  0  0  0  0  0  0  0  0  0
   11.5628  -19.7518   26.6171 C   0  0  0  0  0  0  0  0  0  0  0  0
   12.1958  -20.9035   27.0229 O   0  0  0  0  0  0  0  0  0  0  0  0
   12.2619  -18.7741   26.2404 O   0  0  0  0  0  0  0  0  0  0  0  0
  2  3  1  0
  2  1  1  6
  2 13  1  0
  3  4  1  0
  4 12  1  0
  4  5  2  0
  5  6  1  0
  7  6  1  0
  7  8  2  0
  9  8  1  0
 10  9  2  0
 11 12  2  0
 11 10  1  0
 12  7  1  0
 13 14  2  0
 15 13  1  0
 15 16  1  0
 16 24  1  0
 16 17  1  1
 18 17  1  0
 19 18  2  0
 20 19  1  0
 21 22  1  0
 21 20  2  0
 22 23  2  0
 23 18  1  0
 24 25  2  0
 26 24  1  0
 26 27  1  0
 28 29  1  0
 28 27  1  0
 30 28  2  0
M  END
$$$$
