PYS.pdb
     RDKit          3D

 26 27  0  0  1  0  0  0  0  0999 V2000
    7.4028  -15.2010   20.6604 N   0  0  0  0  0  0  0  0  0  0  0  0
    7.2265  -14.5073   19.3974 C   0  0  0  0  0  0  0  0  0  0  0  0
    7.6998  -13.0901   19.6087 C   0  0  0  0  0  0  0  0  0  0  0  0
    8.2404  -13.0913   21.0346 C   0  0  0  0  0  0  0  0  0  0  0  0
    8.5679  -14.5544   21.2228 C   0  0  1  0  0  0  0  0  0  0  0  0
    8.7877  -14.9134   22.6329 C   0  0  0  0  0  0  0  0  0  0  0  0
    9.8828  -14.5787   23.1936 O   0  0  0  0  0  0  0  0  0  0  0  0
    7.2150   -9.9608   26.7245 O   0  0  0  0  0  0  0  0  0  0  0  0
    7.1273  -11.3323   26.4735 C   0  0  0  0  0  0  0  0  0  0  0  0
    6.0071  -11.8476   25.8722 C   0  0  0  0  0  0  0  0  0  0  0  0
    5.8774  -13.2137   25.6024 C   0  0  0  0  0  0  0  0  0  0  0  0
    6.8664  -14.0929   25.9281 C   0  0  0  0  0  0  0  0  0  0  0  0
    6.8059  -15.5497   25.6592 C   0  0  0  0  0  0  0  0  0  0  0  0
    7.9531  -16.0093   24.7576 C   0  0  2  0  0  0  0  0  0  0  0  0
    7.8118  -15.6224   23.3841 N   0  0  0  0  0  0  0  0  0  0  0  0
    8.2792  -17.4381   24.9553 C   0  0  0  0  0  0  0  0  0  0  0  0
    7.3902  -18.3479   24.8221 O   0  0  0  0  0  0  0  0  0  0  0  0
    8.0017  -13.5410   26.5422 C   0  0  0  0  0  0  0  0  0  0  0  0
    8.1338  -12.2029   26.8092 C   0  0  0  0  0  0  0  0  0  0  0  0
   12.0517  -18.5501   24.9790 O   0  0  0  0  0  0  0  0  0  0  0  0
   11.1610  -19.5889   24.7439 C   0  0  0  0  0  0  0  0  0  0  0  0
    9.8618  -19.3150   25.5157 C   0  0  2  0  0  0  0  0  0  0  0  0
    9.5695  -17.9041   25.2996 N   0  0  0  0  0  0  0  0  0  0  0  0
   10.1396  -19.6012   26.9277 C   0  0  0  0  0  0  0  0  0  0  0  0
   10.4962  -20.8569   27.3332 O   0  0  0  0  0  0  0  0  0  0  0  0
   10.0491  -18.6830   27.7734 O   0  0  0  0  0  0  0  0  0  0  0  0
  1  2  1  0
  2  3  1  0
  4  3  1  0
  5  4  1  0
  5  1  1  0
  6 15  1  0
  5  6  1  1
  7  6  2  0
  9 10  2  0
  9  8  1  0
 11 10  1  0
 12 11  2  0
 13 12  1  0
 14 13  1  1
 14 15  1  0
 16 14  1  0
 16 17  2  0
 18 12  1  0
 18 19  2  0
 19  9  1  0
 20 21  1  0
 22 23  1  0
 22 21  1  6
 23 16  1  0
 24 22  1  0
 25 24  1  0
 26 24  2  0
M  END
$$$$
