PYS.pdb
     RDKit          3D

 26 27  0  0  1  0  0  0  0  0999 V2000
    7.8447  -15.1707   18.6120 N   0  0  0  0  0  0  0  0  0  0  0  0
    7.5159  -14.6771   17.2870 C   0  0  0  0  0  0  0  0  0  0  0  0
    7.3851  -13.1782   17.4002 C   0  0  0  0  0  0  0  0  0  0  0  0
    7.7675  -12.8835   18.8468 C   0  0  0  0  0  0  0  0  0  0  0  0
    8.6195  -14.0873   19.1759 C   0  0  1  0  0  0  0  0  0  0  0  0
    8.8469  -14.2478   20.6209 C   0  0  0  0  0  0  0  0  0  0  0  0
   10.0301  -14.4701   21.0405 O   0  0  0  0  0  0  0  0  0  0  0  0
    7.7195  -13.4467   29.3807 O   0  0  0  0  0  0  0  0  0  0  0  0
    7.4932  -13.4728   28.0024 C   0  0  0  0  0  0  0  0  0  0  0  0
    7.0324  -14.6192   27.4063 C   0  0  0  0  0  0  0  0  0  0  0  0
    6.7923  -14.6895   26.0303 C   0  0  0  0  0  0  0  0  0  0  0  0
    7.0078  -13.6138   25.2220 C   0  0  0  0  0  0  0  0  0  0  0  0
    6.7614  -13.6094   23.7599 C   0  0  0  0  0  0  0  0  0  0  0  0
    7.9371  -14.2054   22.9836 C   0  0  2  0  0  0  0  0  0  0  0  0
    7.7827  -14.1615   21.5587 N   0  0  0  0  0  0  0  0  0  0  0  0
    8.3397  -15.5273   23.5102 C   0  0  0  0  0  0  0  0  0  0  0  0
    7.6696  -16.5828   23.2410 O   0  0  0  0  0  0  0  0  0  0  0  0
    7.4794  -12.4534   25.8557 C   0  0  0  0  0  0  0  0  0  0  0  0
    7.7166  -12.3791   27.2038 C   0  0  0  0  0  0  0  0  0  0  0  0
   11.9826  -18.3158   24.4826 O   0  0  0  0  0  0  0  0  0  0  0  0
   11.4161  -17.0930   24.1487 C   0  0  0  0  0  0  0  0  0  0  0  0
    9.9722  -17.0542   24.6702 C   0  0  2  0  0  0  0  0  0  0  0  0
    9.4715  -15.7276   24.3346 N   0  0  0  0  0  0  0  0  0  0  0  0
   10.0405  -17.2568   26.1217 C   0  0  0  0  0  0  0  0  0  0  0  0
   10.4399  -18.4543   26.6459 O   0  0  0  0  0  0  0  0  0  0  0  0
    9.7289  -16.3203   26.8914 O   0  0  0  0  0  0  0  0  0  0  0  0
  1  2  1  0
  2  3  1  0
  4  3  1  0
  5  4  1  0
  5  1  1  0
  6 15  1  0
  5  6  1  1
  7  6  2  0
  9 10  2  0
  9  8  1  0
 11 10  1  0
 12 11  2  0
 13 12  1  0
 14 13  1  1
 14 15  1  0
 16 14  1  0
 16 17  2  0
 18 12  1  0
 18 19  2  0
 19  9  1  0
 20 21  1  0
 22 23  1  0
 22 21  1  1
 23 16  1  0
 24 22  1  0
 25 24  1  0
 26 24  2  0
M  END
$$$$
