PYS.pdb
     RDKit          3D

 26 27  0  0  1  0  0  0  0  0999 V2000
    6.9545  -15.2306   20.4287 N   0  0  0  0  0  0  0  0  0  0  0  0
    6.3336  -14.8201   19.1824 C   0  0  0  0  0  0  0  0  0  0  0  0
    6.8843  -13.4552   18.8498 C   0  0  0  0  0  0  0  0  0  0  0  0
    7.9201  -13.2006   19.9397 C   0  0  0  0  0  0  0  0  0  0  0  0
    8.2603  -14.6125   20.3566 C   0  0  1  0  0  0  0  0  0  0  0  0
    8.9844  -14.6711   21.6363 C   0  0  0  0  0  0  0  0  0  0  0  0
   10.2502  -14.5182   21.6390 O   0  0  0  0  0  0  0  0  0  0  0  0
   10.8217  -15.2177   30.2817 O   0  0  0  0  0  0  0  0  0  0  0  0
   10.1511  -15.0485   29.0679 C   0  0  0  0  0  0  0  0  0  0  0  0
   10.2781  -13.8717   28.3743 C   0  0  0  0  0  0  0  0  0  0  0  0
    9.6249  -13.6597   27.1560 C   0  0  0  0  0  0  0  0  0  0  0  0
    8.8313  -14.6212   26.6059 C   0  0  0  0  0  0  0  0  0  0  0  0
    8.1210  -14.4738   25.3127 C   0  0  0  0  0  0  0  0  0  0  0  0
    8.9488  -15.0136   24.1450 C   0  0  2  0  0  0  0  0  0  0  0  0
    8.3096  -14.8934   22.8670 N   0  0  0  0  0  0  0  0  0  0  0  0
    9.4974  -16.3579   24.4253 C   0  0  0  0  0  0  0  0  0  0  0  0
    8.7384  -17.3848   24.4954 O   0  0  0  0  0  0  0  0  0  0  0  0
    8.7174  -15.8155   27.3347 C   0  0  0  0  0  0  0  0  0  0  0  0
    9.3552  -16.0284   28.5294 C   0  0  0  0  0  0  0  0  0  0  0  0
   12.2485  -17.4646   22.7224 O   0  0  0  0  0  0  0  0  0  0  0  0
   12.5502  -18.1376   23.8988 C   0  0  0  0  0  0  0  0  0  0  0  0
   11.3937  -17.9481   24.8913 C   0  0  2  0  0  0  0  0  0  0  0  0
   10.8732  -16.6118   24.6337 N   0  0  0  0  0  0  0  0  0  0  0  0
   11.9684  -18.0560   26.2370 C   0  0  0  0  0  0  0  0  0  0  0  0
   12.5419  -19.2207   26.6647 O   0  0  0  0  0  0  0  0  0  0  0  0
   11.9334  -17.0681   27.0046 O   0  0  0  0  0  0  0  0  0  0  0  0
  1  2  1  0
  2  3  1  0
  4  3  1  0
  5  4  1  0
  5  1  1  0
  6 15  1  0
  5  6  1  1
  7  6  2  0
  9 10  2  0
  9  8  1  0
 11 10  1  0
 12 11  2  0
 13 12  1  0
 14 13  1  1
 14 15  1  0
 16 14  1  0
 16 17  2  0
 18 12  1  0
 18 19  2  0
 19  9  1  0
 20 21  1  0
 22 23  1  0
 22 21  1  6
 23 16  1  0
 24 22  1  0
 25 24  1  0
 26 24  2  0
M  END
$$$$
