PYS.pdb
     RDKit          3D

 26 27  0  0  1  0  0  0  0  0999 V2000
    7.5132  -14.9862   20.3192 N   0  0  0  0  0  0  0  0  0  0  0  0
    7.0972  -14.3079   19.1050 C   0  0  0  0  0  0  0  0  0  0  0  0
    7.6877  -12.9203   19.1567 C   0  0  0  0  0  0  0  0  0  0  0  0
    8.5352  -12.9278   20.4244 C   0  0  0  0  0  0  0  0  0  0  0  0
    8.8109  -14.4049   20.5840 C   0  0  1  0  0  0  0  0  0  0  0  0
    9.3220  -14.7491   21.9204 C   0  0  0  0  0  0  0  0  0  0  0  0
   10.5399  -14.4973   22.2012 O   0  0  0  0  0  0  0  0  0  0  0  0
    6.2337  -10.2634   26.3101 O   0  0  0  0  0  0  0  0  0  0  0  0
    6.6285  -11.5809   26.0645 C   0  0  0  0  0  0  0  0  0  0  0  0
    5.7235  -12.4854   25.5698 C   0  0  0  0  0  0  0  0  0  0  0  0
    6.0756  -13.8136   25.3095 C   0  0  0  0  0  0  0  0  0  0  0  0
    7.3410  -14.2645   25.5384 C   0  0  0  0  0  0  0  0  0  0  0  0
    7.7904  -15.6522   25.2724 C   0  0  0  0  0  0  0  0  0  0  0  0
    8.9111  -15.6970   24.2322 C   0  0  2  0  0  0  0  0  0  0  0  0
    8.4937  -15.3540   22.9040 N   0  0  0  0  0  0  0  0  0  0  0  0
    9.7007  -16.9445   24.3172 C   0  0  0  0  0  0  0  0  0  0  0  0
    9.2093  -18.0687   23.9562 O   0  0  0  0  0  0  0  0  0  0  0  0
    8.2479  -13.3201   26.0448 C   0  0  0  0  0  0  0  0  0  0  0  0
    7.9080  -12.0172   26.3019 C   0  0  0  0  0  0  0  0  0  0  0  0
   14.1077  -18.8838   24.7728 O   0  0  0  0  0  0  0  0  0  0  0  0
   13.2877  -17.7638   24.8035 C   0  0  0  0  0  0  0  0  0  0  0  0
   11.8213  -18.2197   24.7850 C   0  0  2  0  0  0  0  0  0  0  0  0
   11.0317  -16.9952   24.7932 N   0  0  0  0  0  0  0  0  0  0  0  0
   11.6082  -19.0105   26.0023 C   0  0  0  0  0  0  0  0  0  0  0  0
   12.0834  -20.2882   26.1022 O   0  0  0  0  0  0  0  0  0  0  0  0
   10.9826  -18.5087   26.9632 O   0  0  0  0  0  0  0  0  0  0  0  0
  1  2  1  0
  2  3  1  0
  4  3  1  0
  5  4  1  0
  5  1  1  0
  6 15  1  0
  5  6  1  1
  7  6  2  0
  9 10  2  0
  9  8  1  0
 11 10  1  0
 12 11  2  0
 13 12  1  0
 14 13  1  1
 14 15  1  0
 16 14  1  0
 16 17  2  0
 18 12  1  0
 18 19  2  0
 19  9  1  0
 20 21  1  0
 22 23  1  0
 22 21  1  1
 23 16  1  0
 24 22  1  0
 25 24  1  0
 26 24  2  0
M  END
$$$$
