PYS.pdb
     RDKit          3D

 26 27  0  0  1  0  0  0  0  0999 V2000
    7.4597  -15.0709   20.1294 N   0  0  0  0  0  0  0  0  0  0  0  0
    6.7991  -14.5242   18.9580 C   0  0  0  0  0  0  0  0  0  0  0  0
    6.9614  -13.0256   19.0255 C   0  0  0  0  0  0  0  0  0  0  0  0
    7.8415  -12.8055   20.2514 C   0  0  0  0  0  0  0  0  0  0  0  0
    8.5439  -14.1396   20.3513 C   0  0  1  0  0  0  0  0  0  0  0  0
    9.2045  -14.3410   21.6508 C   0  0  0  0  0  0  0  0  0  0  0  0
   10.4778  -14.3135   21.7089 O   0  0  0  0  0  0  0  0  0  0  0  0
   10.6531  -15.4649   30.3086 O   0  0  0  0  0  0  0  0  0  0  0  0
   10.0292  -15.2141   29.0840 C   0  0  0  0  0  0  0  0  0  0  0  0
   10.1398  -13.9776   28.5003 C   0  0  0  0  0  0  0  0  0  0  0  0
    9.5317  -13.6833   27.2757 C   0  0  0  0  0  0  0  0  0  0  0  0
    8.8006  -14.6205   26.6092 C   0  0  0  0  0  0  0  0  0  0  0  0
    8.1414  -14.3860   25.3020 C   0  0  0  0  0  0  0  0  0  0  0  0
    9.0303  -14.8128   24.1326 C   0  0  2  0  0  0  0  0  0  0  0  0
    8.4601  -14.5650   22.8404 N   0  0  0  0  0  0  0  0  0  0  0  0
    9.5638  -16.1807   24.3084 C   0  0  0  0  0  0  0  0  0  0  0  0
    8.7900  -17.1988   24.3305 O   0  0  0  0  0  0  0  0  0  0  0  0
    8.7024  -15.8771   27.2272 C   0  0  0  0  0  0  0  0  0  0  0  0
    9.2961  -16.1708   28.4274 C   0  0  0  0  0  0  0  0  0  0  0  0
   13.1801  -16.8668   23.3001 O   0  0  0  0  0  0  0  0  0  0  0  0
   12.4398  -18.0296   23.4662 C   0  0  0  0  0  0  0  0  0  0  0  0
   11.4449  -17.8262   24.6182 C   0  0  2  0  0  0  0  0  0  0  0  0
   10.9401  -16.4682   24.4628 N   0  0  0  0  0  0  0  0  0  0  0  0
   12.2024  -17.9838   25.8648 C   0  0  0  0  0  0  0  0  0  0  0  0
   12.7716  -19.1820   26.1944 O   0  0  0  0  0  0  0  0  0  0  0  0
   12.3296  -17.0077   26.6379 O   0  0  0  0  0  0  0  0  0  0  0  0
  1  2  1  0
  2  3  1  0
  4  3  1  0
  5  4  1  0
  5  1  1  0
  6 15  1  0
  5  6  1  1
  7  6  2  0
  9 10  2  0
  9  8  1  0
 11 10  1  0
 12 11  2  0
 13 12  1  0
 14 13  1  1
 14 15  1  0
 16 14  1  0
 16 17  2  0
 18 12  1  0
 18 19  2  0
 19  9  1  0
 20 21  1  0
 22 23  1  0
 22 21  1  6
 23 16  1  0
 24 22  1  0
 25 24  1  0
 26 24  2  0
M  END
$$$$
