PYS.pdb
     RDKit          3D

 26 27  0  0  1  0  0  0  0  0999 V2000
    7.0031  -14.8963   20.2801 N   0  0  0  0  0  0  0  0  0  0  0  0
    6.3523  -14.3347   19.1103 C   0  0  0  0  0  0  0  0  0  0  0  0
    6.7822  -12.8909   19.0233 C   0  0  0  0  0  0  0  0  0  0  0  0
    7.7885  -12.7374   20.1588 C   0  0  0  0  0  0  0  0  0  0  0  0
    8.2499  -14.1651   20.3368 C   0  0  1  0  0  0  0  0  0  0  0  0
    8.9726  -14.3781   21.6009 C   0  0  0  0  0  0  0  0  0  0  0  0
   10.2435  -14.2772   21.6120 O   0  0  0  0  0  0  0  0  0  0  0  0
   10.9409  -15.1360   30.1639 O   0  0  0  0  0  0  0  0  0  0  0  0
   10.2411  -14.9619   28.9674 C   0  0  0  0  0  0  0  0  0  0  0  0
   10.2448  -13.7397   28.3442 C   0  0  0  0  0  0  0  0  0  0  0  0
    9.5581  -13.5211   27.1456 C   0  0  0  0  0  0  0  0  0  0  0  0
    8.8538  -14.5213   26.5451 C   0  0  0  0  0  0  0  0  0  0  0  0
    8.1156  -14.3681   25.2683 C   0  0  0  0  0  0  0  0  0  0  0  0
    8.9213  -14.8944   24.0794 C   0  0  2  0  0  0  0  0  0  0  0  0
    8.2908  -14.6930   22.8073 N   0  0  0  0  0  0  0  0  0  0  0  0
    9.4098  -16.2721   24.3033 C   0  0  0  0  0  0  0  0  0  0  0  0
    8.6000  -17.2569   24.4041 O   0  0  0  0  0  0  0  0  0  0  0  0
    8.8654  -15.7617   27.2023 C   0  0  0  0  0  0  0  0  0  0  0  0
    9.5365  -15.9812   28.3773 C   0  0  0  0  0  0  0  0  0  0  0  0
   13.2470  -17.1023   23.7133 O   0  0  0  0  0  0  0  0  0  0  0  0
   12.3863  -18.1902   23.6557 C   0  0  0  0  0  0  0  0  0  0  0  0
   11.2375  -17.9694   24.6506 C   0  0  2  0  0  0  0  0  0  0  0  0
   10.7794  -16.6054   24.4215 N   0  0  0  0  0  0  0  0  0  0  0  0
   11.8037  -18.1327   25.9943 C   0  0  0  0  0  0  0  0  0  0  0  0
   12.3204  -19.3321   26.3980 O   0  0  0  0  0  0  0  0  0  0  0  0
   11.8140  -17.1606   26.7826 O   0  0  0  0  0  0  0  0  0  0  0  0
  1  2  1  0
  2  3  1  0
  4  3  1  0
  5  4  1  0
  5  1  1  0
  6 15  1  0
  5  6  1  1
  7  6  2  0
  9 10  2  0
  9  8  1  0
 11 10  1  0
 12 11  2  0
 13 12  1  0
 14 13  1  1
 14 15  1  0
 16 14  1  0
 16 17  2  0
 18 12  1  0
 18 19  2  0
 19  9  1  0
 20 21  1  0
 22 23  1  0
 22 21  1  6
 23 16  1  0
 24 22  1  0
 25 24  1  0
 26 24  2  0
M  END
$$$$
