PYS.pdb
     RDKit          3D

 26 27  0  0  1  0  0  0  0  0999 V2000
    7.1779  -15.3518   20.1989 N   0  0  0  0  0  0  0  0  0  0  0  0
    6.5480  -14.9168   18.9654 C   0  0  0  0  0  0  0  0  0  0  0  0
    6.8172  -13.4377   18.8365 C   0  0  0  0  0  0  0  0  0  0  0  0
    7.7212  -13.1232   20.0237 C   0  0  0  0  0  0  0  0  0  0  0  0
    8.3276  -14.4797   20.2981 C   0  0  1  0  0  0  0  0  0  0  0  0
    8.9831  -14.5565   21.6133 C   0  0  0  0  0  0  0  0  0  0  0  0
   10.2557  -14.5076   21.6746 O   0  0  0  0  0  0  0  0  0  0  0  0
   10.5257  -14.9398   30.3017 O   0  0  0  0  0  0  0  0  0  0  0  0
    9.8875  -14.7890   29.0681 C   0  0  0  0  0  0  0  0  0  0  0  0
   10.0146  -13.6144   28.3710 C   0  0  0  0  0  0  0  0  0  0  0  0
    9.3932  -13.4206   27.1332 C   0  0  0  0  0  0  0  0  0  0  0  0
    8.6318  -14.3985   26.5667 C   0  0  0  0  0  0  0  0  0  0  0  0
    7.9565  -14.2707   25.2529 C   0  0  0  0  0  0  0  0  0  0  0  0
    8.8002  -14.8592   24.1207 C   0  0  2  0  0  0  0  0  0  0  0  0
    8.2348  -14.6837   22.8147 N   0  0  0  0  0  0  0  0  0  0  0  0
    9.2376  -16.2414   24.4121 C   0  0  0  0  0  0  0  0  0  0  0  0
    8.4045  -17.2114   24.4373 O   0  0  0  0  0  0  0  0  0  0  0  0
    8.5170  -15.5903   27.2996 C   0  0  0  0  0  0  0  0  0  0  0  0
    9.1238  -15.7854   28.5133 C   0  0  0  0  0  0  0  0  0  0  0  0
   11.8250  -17.7615   22.5834 O   0  0  0  0  0  0  0  0  0  0  0  0
   12.2158  -18.1256   23.8650 C   0  0  0  0  0  0  0  0  0  0  0  0
   11.0154  -17.9796   24.8118 C   0  0  2  0  0  0  0  0  0  0  0  0
   10.5806  -16.5952   24.6802 N   0  0  0  0  0  0  0  0  0  0  0  0
   11.5053  -18.2680   26.1644 C   0  0  0  0  0  0  0  0  0  0  0  0
   11.9386  -19.5194   26.5028 O   0  0  0  0  0  0  0  0  0  0  0  0
   11.5271  -17.3556   27.0210 O   0  0  0  0  0  0  0  0  0  0  0  0
  1  2  1  0
  2  3  1  0
  4  3  1  0
  5  4  1  0
  5  1  1  0
  6 15  1  0
  5  6  1  1
  7  6  2  0
  9 10  2  0
  9  8  1  0
 11 10  1  0
 12 11  2  0
 13 12  1  0
 14 13  1  1
 14 15  1  0
 16 14  1  0
 16 17  2  0
 18 12  1  0
 18 19  2  0
 19  9  1  0
 20 21  1  0
 22 23  1  0
 22 21  1  6
 23 16  1  0
 24 22  1  0
 25 24  1  0
 26 24  2  0
M  END
$$$$
