PYS.pdb
     RDKit          3D

 26 27  0  0  1  0  0  0  0  0999 V2000
    7.3925  -14.8775   20.3502 N   0  0  0  0  0  0  0  0  0  0  0  0
    6.9127  -14.1930   19.1634 C   0  0  0  0  0  0  0  0  0  0  0  0
    7.3878  -12.7642   19.2620 C   0  0  0  0  0  0  0  0  0  0  0  0
    8.2432  -12.7471   20.5244 C   0  0  0  0  0  0  0  0  0  0  0  0
    8.6403  -14.2012   20.6293 C   0  0  1  0  0  0  0  0  0  0  0  0
    9.1884  -14.5495   21.9498 C   0  0  0  0  0  0  0  0  0  0  0  0
   10.3940  -14.2361   22.2220 O   0  0  0  0  0  0  0  0  0  0  0  0
    6.2433  -10.2937   26.7376 O   0  0  0  0  0  0  0  0  0  0  0  0
    6.6281  -11.5928   26.3971 C   0  0  0  0  0  0  0  0  0  0  0  0
    5.7954  -12.3766   25.6393 C   0  0  0  0  0  0  0  0  0  0  0  0
    6.1405  -13.6821   25.2755 C   0  0  0  0  0  0  0  0  0  0  0  0
    7.3266  -14.2306   25.6622 C   0  0  0  0  0  0  0  0  0  0  0  0
    7.7662  -15.6002   25.3022 C   0  0  0  0  0  0  0  0  0  0  0  0
    8.8659  -15.5829   24.2389 C   0  0  2  0  0  0  0  0  0  0  0  0
    8.4093  -15.2251   22.9276 N   0  0  0  0  0  0  0  0  0  0  0  0
    9.6993  -16.8038   24.2794 C   0  0  0  0  0  0  0  0  0  0  0  0
    9.2208  -17.9467   23.9621 O   0  0  0  0  0  0  0  0  0  0  0  0
    8.1604  -13.4089   26.4368 C   0  0  0  0  0  0  0  0  0  0  0  0
    7.8269  -12.1287   26.7963 C   0  0  0  0  0  0  0  0  0  0  0  0
   13.6018  -16.4862   25.2210 O   0  0  0  0  0  0  0  0  0  0  0  0
   13.3016  -17.5836   24.4252 C   0  0  0  0  0  0  0  0  0  0  0  0
   11.8587  -18.0256   24.7104 C   0  0  2  0  0  0  0  0  0  0  0  0
   11.0608  -16.8074   24.6629 N   0  0  0  0  0  0  0  0  0  0  0  0
   11.8560  -18.6237   26.0502 C   0  0  0  0  0  0  0  0  0  0  0  0
   12.5219  -19.7910   26.2998 O   0  0  0  0  0  0  0  0  0  0  0  0
   11.2355  -18.0576   26.9781 O   0  0  0  0  0  0  0  0  0  0  0  0
  1  2  1  0
  2  3  1  0
  4  3  1  0
  5  4  1  0
  5  1  1  0
  6 15  1  0
  5  6  1  1
  7  6  2  0
  9 10  2  0
  9  8  1  0
 11 10  1  0
 12 11  2  0
 13 12  1  0
 14 13  1  1
 14 15  1  0
 16 14  1  0
 16 17  2  0
 18 12  1  0
 18 19  2  0
 19  9  1  0
 20 21  1  0
 22 23  1  0
 22 21  1  1
 23 16  1  0
 24 22  1  0
 25 24  1  0
 26 24  2  0
M  END
$$$$
