PYS.pdb
     RDKit          3D

 26 27  0  0  1  0  0  0  0  0999 V2000
    7.3081  -14.8947   19.9856 N   0  0  0  0  0  0  0  0  0  0  0  0
    6.8912  -14.2025   18.7796 C   0  0  0  0  0  0  0  0  0  0  0  0
    7.5146  -12.8292   18.8276 C   0  0  0  0  0  0  0  0  0  0  0  0
    8.3793  -12.8612   20.0834 C   0  0  0  0  0  0  0  0  0  0  0  0
    8.6226  -14.3448   20.2343 C   0  0  1  0  0  0  0  0  0  0  0  0
    9.1439  -14.7057   21.5622 C   0  0  0  0  0  0  0  0  0  0  0  0
   10.3610  -14.4472   21.8407 O   0  0  0  0  0  0  0  0  0  0  0  0
    6.0661  -10.4920   26.6884 O   0  0  0  0  0  0  0  0  0  0  0  0
    6.4291  -11.7684   26.2518 C   0  0  0  0  0  0  0  0  0  0  0  0
    7.6339  -11.9601   25.6243 C   0  0  0  0  0  0  0  0  0  0  0  0
    8.0372  -13.2203   25.1714 C   0  0  0  0  0  0  0  0  0  0  0  0
    7.2433  -14.3154   25.3373 C   0  0  0  0  0  0  0  0  0  0  0  0
    7.6104  -15.6831   24.8979 C   0  0  0  0  0  0  0  0  0  0  0  0
    8.7444  -15.6649   23.8714 C   0  0  2  0  0  0  0  0  0  0  0  0
    8.3265  -15.3338   22.5403 N   0  0  0  0  0  0  0  0  0  0  0  0
    9.5941  -16.8721   23.9582 C   0  0  0  0  0  0  0  0  0  0  0  0
    9.2088  -17.9928   23.4771 O   0  0  0  0  0  0  0  0  0  0  0  0
    6.0161  -14.0931   25.9816 C   0  0  0  0  0  0  0  0  0  0  0  0
    5.6159  -12.8601   26.4273 C   0  0  0  0  0  0  0  0  0  0  0  0
   14.0344  -18.6228   24.4957 O   0  0  0  0  0  0  0  0  0  0  0  0
   13.1574  -17.5479   24.4395 C   0  0  0  0  0  0  0  0  0  0  0  0
   11.7201  -18.0702   24.5801 C   0  0  2  0  0  0  0  0  0  0  0  0
   10.8713  -16.8859   24.5658 N   0  0  0  0  0  0  0  0  0  0  0  0
   11.6486  -18.7730   25.8660 C   0  0  0  0  0  0  0  0  0  0  0  0
   12.2769  -19.9735   26.0464 O   0  0  0  0  0  0  0  0  0  0  0  0
   11.0035  -18.2669   26.8115 O   0  0  0  0  0  0  0  0  0  0  0  0
  1  2  1  0
  2  3  1  0
  4  3  1  0
  5  4  1  0
  5  1  1  0
  6 15  1  0
  5  6  1  1
  7  6  2  0
  9 10  2  0
  9  8  1  0
 11 10  1  0
 12 11  2  0
 13 12  1  0
 14 13  1  1
 14 15  1  0
 16 14  1  0
 16 17  2  0
 18 12  1  0
 18 19  2  0
 19  9  1  0
 20 21  1  0
 22 23  1  0
 22 21  1  1
 23 16  1  0
 24 22  1  0
 25 24  1  0
 26 24  2  0
M  END
$$$$
