PYS.pdb
     RDKit          3D

 26 27  0  0  1  0  0  0  0  0999 V2000
    7.0635  -15.1952   20.0485 N   0  0  0  0  0  0  0  0  0  0  0  0
    6.4716  -14.6988   18.8194 C   0  0  0  0  0  0  0  0  0  0  0  0
    6.7835  -13.2241   18.7500 C   0  0  0  0  0  0  0  0  0  0  0  0
    7.6705  -12.9778   19.9658 C   0  0  0  0  0  0  0  0  0  0  0  0
    8.2341  -14.3597   20.2024 C   0  0  1  0  0  0  0  0  0  0  0  0
    8.8595  -14.5021   21.5268 C   0  0  0  0  0  0  0  0  0  0  0  0
   10.1305  -14.5621   21.6080 O   0  0  0  0  0  0  0  0  0  0  0  0
   10.2079  -14.8015   30.2492 O   0  0  0  0  0  0  0  0  0  0  0  0
    9.6013  -14.6472   29.0002 C   0  0  0  0  0  0  0  0  0  0  0  0
    9.6787  -13.4439   28.3459 C   0  0  0  0  0  0  0  0  0  0  0  0
    9.0863  -13.2455   27.0946 C   0  0  0  0  0  0  0  0  0  0  0  0
    8.4044  -14.2475   26.4716 C   0  0  0  0  0  0  0  0  0  0  0  0
    7.7649  -14.1156   25.1404 C   0  0  0  0  0  0  0  0  0  0  0  0
    8.6170  -14.7431   24.0358 C   0  0  2  0  0  0  0  0  0  0  0  0
    8.0839  -14.5742   22.7154 N   0  0  0  0  0  0  0  0  0  0  0  0
    9.0127  -16.1310   24.3578 C   0  0  0  0  0  0  0  0  0  0  0  0
    8.1467  -17.0692   24.4329 O   0  0  0  0  0  0  0  0  0  0  0  0
    8.3393  -15.4683   27.1614 C   0  0  0  0  0  0  0  0  0  0  0  0
    8.9179  -15.6680   28.3881 C   0  0  0  0  0  0  0  0  0  0  0  0
   12.2098  -19.4459   23.5862 O   0  0  0  0  0  0  0  0  0  0  0  0
   11.7909  -18.1222   23.5787 C   0  0  0  0  0  0  0  0  0  0  0  0
   10.7507  -17.9228   24.6906 C   0  0  2  0  0  0  0  0  0  0  0  0
   10.3489  -16.5251   24.6032 N   0  0  0  0  0  0  0  0  0  0  0  0
   11.4263  -18.2145   25.9600 C   0  0  0  0  0  0  0  0  0  0  0  0
   11.8464  -19.4807   26.2576 O   0  0  0  0  0  0  0  0  0  0  0  0
   11.6210  -17.2913   26.7823 O   0  0  0  0  0  0  0  0  0  0  0  0
  1  2  1  0
  2  3  1  0
  4  3  1  0
  5  4  1  0
  5  1  1  0
  6 15  1  0
  5  6  1  1
  7  6  2  0
  9 10  2  0
  9  8  1  0
 11 10  1  0
 12 11  2  0
 13 12  1  0
 14 13  1  1
 14 15  1  0
 16 14  1  0
 16 17  2  0
 18 12  1  0
 18 19  2  0
 19  9  1  0
 20 21  1  0
 22 23  1  0
 22 21  1  6
 23 16  1  0
 24 22  1  0
 25 24  1  0
 26 24  2  0
M  END
$$$$
