PYS.pdb
     RDKit          3D

 26 27  0  0  1  0  0  0  0  0999 V2000
    7.1912  -15.0558   19.9492 N   0  0  0  0  0  0  0  0  0  0  0  0
    6.5806  -14.4987   18.7558 C   0  0  0  0  0  0  0  0  0  0  0  0
    6.9712  -13.0421   18.7055 C   0  0  0  0  0  0  0  0  0  0  0  0
    7.9172  -12.8736   19.8897 C   0  0  0  0  0  0  0  0  0  0  0  0
    8.4116  -14.2895   20.0739 C   0  0  1  0  0  0  0  0  0  0  0  0
    9.0792  -14.4971   21.3687 C   0  0  0  0  0  0  0  0  0  0  0  0
   10.3534  -14.5096   21.4135 O   0  0  0  0  0  0  0  0  0  0  0  0
   10.7282  -14.9178   30.0034 O   0  0  0  0  0  0  0  0  0  0  0  0
   10.0947  -14.7412   28.7709 C   0  0  0  0  0  0  0  0  0  0  0  0
    9.3250  -13.6272   28.5506 C   0  0  0  0  0  0  0  0  0  0  0  0
    8.6732  -13.4104   27.3323 C   0  0  0  0  0  0  0  0  0  0  0  0
    8.7785  -14.3037   26.3087 C   0  0  0  0  0  0  0  0  0  0  0  0
    8.1299  -14.1335   24.9862 C   0  0  0  0  0  0  0  0  0  0  0  0
    8.9163  -14.8291   23.8738 C   0  0  2  0  0  0  0  0  0  0  0  0
    8.3408  -14.6838   22.5685 N   0  0  0  0  0  0  0  0  0  0  0  0
    9.2724  -16.2198   24.2288 C   0  0  0  0  0  0  0  0  0  0  0  0
    8.3823  -17.0608   24.5980 O   0  0  0  0  0  0  0  0  0  0  0  0
    9.5711  -15.4349   26.5590 C   0  0  0  0  0  0  0  0  0  0  0  0
   10.2118  -15.6524   27.7512 C   0  0  0  0  0  0  0  0  0  0  0  0
   12.7446  -17.5227   23.0663 O   0  0  0  0  0  0  0  0  0  0  0  0
   11.8552  -18.5544   23.3352 C   0  0  0  0  0  0  0  0  0  0  0  0
   10.9119  -18.1167   24.4652 C   0  0  2  0  0  0  0  0  0  0  0  0
   10.5943  -16.7215   24.1901 N   0  0  0  0  0  0  0  0  0  0  0  0
   11.6567  -18.2660   25.7204 C   0  0  0  0  0  0  0  0  0  0  0  0
   12.0717  -19.4957   26.1491 O   0  0  0  0  0  0  0  0  0  0  0  0
   11.9160  -17.2534   26.4089 O   0  0  0  0  0  0  0  0  0  0  0  0
  1  2  1  0
  2  3  1  0
  4  3  1  0
  5  4  1  0
  5  1  1  0
  6 15  1  0
  5  6  1  1
  7  6  2  0
  9 10  2  0
  9  8  1  0
 11 10  1  0
 12 11  2  0
 13 12  1  0
 14 13  1  1
 14 15  1  0
 16 14  1  0
 16 17  2  0
 18 12  1  0
 18 19  2  0
 19  9  1  0
 20 21  1  0
 22 23  1  0
 22 21  1  6
 23 16  1  0
 24 22  1  0
 25 24  1  0
 26 24  2  0
M  END
$$$$
