PYS.pdb
     RDKit          3D

 26 27  0  0  1  0  0  0  0  0999 V2000
    7.2273  -15.1265   20.0855 N   0  0  0  0  0  0  0  0  0  0  0  0
    6.5759  -14.6673   18.8721 C   0  0  0  0  0  0  0  0  0  0  0  0
    6.6854  -13.1624   18.8613 C   0  0  0  0  0  0  0  0  0  0  0  0
    7.5287  -12.8458   20.0919 C   0  0  0  0  0  0  0  0  0  0  0  0
    8.2737  -14.1469   20.2795 C   0  0  1  0  0  0  0  0  0  0  0  0
    8.9103  -14.2547   21.6018 C   0  0  0  0  0  0  0  0  0  0  0  0
   10.1730  -14.1048   21.6952 O   0  0  0  0  0  0  0  0  0  0  0  0
   10.5161  -14.7636   30.2624 O   0  0  0  0  0  0  0  0  0  0  0  0
    9.8820  -14.6105   29.0270 C   0  0  0  0  0  0  0  0  0  0  0  0
    9.2068  -15.6663   28.4690 C   0  0  0  0  0  0  0  0  0  0  0  0
    8.5581  -15.5571   27.2348 C   0  0  0  0  0  0  0  0  0  0  0  0
    8.5711  -14.3889   26.5333 C   0  0  0  0  0  0  0  0  0  0  0  0
    7.8940  -14.1946   25.2286 C   0  0  0  0  0  0  0  0  0  0  0  0
    8.7115  -14.7733   24.0724 C   0  0  2  0  0  0  0  0  0  0  0  0
    8.1544  -14.5212   22.7753 N   0  0  0  0  0  0  0  0  0  0  0  0
    9.0882  -16.1838   24.3074 C   0  0  0  0  0  0  0  0  0  0  0  0
    8.2016  -17.0966   24.4362 O   0  0  0  0  0  0  0  0  0  0  0  0
    9.2686  -13.3242   27.1252 C   0  0  0  0  0  0  0  0  0  0  0  0
    9.9063  -13.4258   28.3344 C   0  0  0  0  0  0  0  0  0  0  0  0
   12.7745  -17.2799   23.5799 O   0  0  0  0  0  0  0  0  0  0  0  0
   11.8842  -18.3445   23.6243 C   0  0  0  0  0  0  0  0  0  0  0  0
   10.7753  -18.0242   24.6372 C   0  0  2  0  0  0  0  0  0  0  0  0
   10.4274  -16.6282   24.4067 N   0  0  0  0  0  0  0  0  0  0  0  0
   11.3495  -18.2266   25.9721 C   0  0  0  0  0  0  0  0  0  0  0  0
   11.8160  -19.4522   26.3578 O   0  0  0  0  0  0  0  0  0  0  0  0
   11.4135  -17.2640   26.7694 O   0  0  0  0  0  0  0  0  0  0  0  0
  1  2  1  0
  2  3  1  0
  4  3  1  0
  5  4  1  0
  5  1  1  0
  6 15  1  0
  5  6  1  1
  7  6  2  0
  9 10  2  0
  9  8  1  0
 11 10  1  0
 12 11  2  0
 13 12  1  0
 14 13  1  1
 14 15  1  0
 16 14  1  0
 16 17  2  0
 18 12  1  0
 18 19  2  0
 19  9  1  0
 20 21  1  0
 22 23  1  0
 22 21  1  6
 23 16  1  0
 24 22  1  0
 25 24  1  0
 26 24  2  0
M  END
$$$$
