PYS.pdb
     RDKit          3D

 26 27  0  0  1  0  0  0  0  0999 V2000
    7.7734  -15.3604   18.6546 N   0  0  0  0  0  0  0  0  0  0  0  0
    7.5673  -15.0471   17.2522 C   0  0  0  0  0  0  0  0  0  0  0  0
    7.8204  -13.5680   17.0942 C   0  0  0  0  0  0  0  0  0  0  0  0
    8.2786  -13.1229   18.4789 C   0  0  0  0  0  0  0  0  0  0  0  0
    8.8021  -14.4219   19.0462 C   0  0  1  0  0  0  0  0  0  0  0  0
    8.9954  -14.3714   20.5041 C   0  0  0  0  0  0  0  0  0  0  0  0
   10.1805  -14.4041   20.9730 O   0  0  0  0  0  0  0  0  0  0  0  0
    7.5237  -13.0019   29.1273 O   0  0  0  0  0  0  0  0  0  0  0  0
    7.3606  -13.0847   27.7422 C   0  0  0  0  0  0  0  0  0  0  0  0
    8.0612  -12.2400   26.9191 C   0  0  0  0  0  0  0  0  0  0  0  0
    7.9285  -12.2884   25.5277 C   0  0  0  0  0  0  0  0  0  0  0  0
    7.0923  -13.1836   24.9308 C   0  0  0  0  0  0  0  0  0  0  0  0
    6.9121  -13.3032   23.4639 C   0  0  0  0  0  0  0  0  0  0  0  0
    8.0051  -14.1619   22.8252 C   0  0  2  0  0  0  0  0  0  0  0  0
    7.8962  -14.2873   21.4009 N   0  0  0  0  0  0  0  0  0  0  0  0
    8.1913  -15.4456   23.5352 C   0  0  0  0  0  0  0  0  0  0  0  0
    7.3428  -16.3962   23.4246 O   0  0  0  0  0  0  0  0  0  0  0  0
    6.3868  -14.0362   25.7944 C   0  0  0  0  0  0  0  0  0  0  0  0
    6.5129  -13.9929   27.1587 C   0  0  0  0  0  0  0  0  0  0  0  0
   11.2108  -18.6910   25.1094 O   0  0  0  0  0  0  0  0  0  0  0  0
   10.9387  -17.4350   24.5839 C   0  0  0  0  0  0  0  0  0  0  0  0
    9.5129  -17.0268   24.9827 C   0  0  2  0  0  0  0  0  0  0  0  0
    9.2963  -15.7207   24.3743 N   0  0  0  0  0  0  0  0  0  0  0  0
    9.4874  -16.9535   26.4478 C   0  0  0  0  0  0  0  0  0  0  0  0
    9.4923  -18.0893   27.2083 O   0  0  0  0  0  0  0  0  0  0  0  0
    9.4609  -15.8356   27.0100 O   0  0  0  0  0  0  0  0  0  0  0  0
  1  2  1  0
  2  3  1  0
  4  3  1  0
  5  4  1  0
  5  1  1  0
  6 15  1  0
  5  6  1  1
  7  6  2  0
  9 10  2  0
  9  8  1  0
 11 10  1  0
 12 11  2  0
 13 12  1  0
 14 13  1  1
 14 15  1  0
 16 14  1  0
 16 17  2  0
 18 12  1  0
 18 19  2  0
 19  9  1  0
 20 21  1  0
 22 23  1  0
 22 21  1  1
 23 16  1  0
 24 22  1  0
 25 24  1  0
 26 24  2  0
M  END
$$$$
