GCF.pdb
     RDKit          3D

 22 22  0  0  1  0  0  0  0  0999 V2000
    7.7226  -12.5459   18.1996 N   0  0  0  0  0  0  0  0  0  0  0  0
    8.6768  -12.9889   19.1992 C   0  0  0  0  0  0  0  0  0  0  0  0
    8.0739  -13.9989   20.1080 C   0  0  0  0  0  0  0  0  0  0  0  0
    6.8536  -14.2098   20.0634 O   0  0  0  0  0  0  0  0  0  0  0  0
    8.8798  -14.7372   21.0392 N   0  0  0  0  0  0  0  0  0  0  0  0
    8.3165  -15.7620   21.8910 C   0  0  1  0  0  0  0  0  0  0  0  0
    8.8180  -17.1247   21.3940 C   0  0  0  0  0  0  0  0  0  0  0  0
    8.2099  -18.4780   22.3880 S   0  0  0  0  0  0  0  0  0  0  0  0
    8.8832  -15.5969   23.2517 C   0  0  0  0  0  0  0  0  0  0  0  0
   10.0687  -15.2060   23.3554 O   0  0  0  0  0  0  0  0  0  0  0  0
    8.1535  -15.8582   24.4306 N   0  0  0  0  0  0  0  0  0  0  0  0
    8.8073  -15.7190   25.7106 C   0  0  1  0  0  0  0  0  0  0  0  0
    7.8172  -15.3571   26.7941 C   0  0  0  0  0  0  0  0  0  0  0  0
    7.3251  -13.9805   26.6151 C   0  0  0  0  0  0  0  0  0  0  0  0
    6.0140  -13.7494   26.2602 C   0  0  0  0  0  0  0  0  0  0  0  0
    5.5743  -12.4604   26.1046 C   0  0  0  0  0  0  0  0  0  0  0  0
    6.3836  -11.3633   26.2859 C   0  0  0  0  0  0  0  0  0  0  0  0
    7.6996  -11.5804   26.6415 C   0  0  0  0  0  0  0  0  0  0  0  0
    8.1513  -12.8705   26.8004 C   0  0  0  0  0  0  0  0  0  0  0  0
    9.5328  -16.9833   25.9567 C   0  0  0  0  0  0  0  0  0  0  0  0
    9.2407  -18.0244   25.3255 O   0  0  0  0  0  0  0  0  0  0  0  0
   10.5558  -17.0698   26.8861 O   0  0  0  0  0  0  0  0  0  0  0  0
  2  1  1  0
  3  2  1  0
  4  3  2  0
  5  3  1  0
  6  5  1  0
  6  9  1  0
  6  7  1  6
  8  7  1  0
  9 10  2  0
 11  9  1  0
 11 12  1  0
 12 13  1  1
 13 14  1  0
 14 19  2  0
 15 16  2  0
 15 14  1  0
 16 17  1  0
 17 18  2  0
 19 18  1  0
 20 12  1  0
 20 22  1  0
 21 20  2  0
M  END
$$$$
