GCF.pdb
     RDKit          3D

 22 22  0  0  1  0  0  0  0  0999 V2000
    7.9491  -19.6849   18.8080 N   0  0  0  0  0  0  0  0  0  0  0  0
    7.5343  -20.0742   20.1430 C   0  0  0  0  0  0  0  0  0  0  0  0
    7.2052  -18.8851   20.9721 C   0  0  0  0  0  0  0  0  0  0  0  0
    6.7627  -17.8639   20.4272 O   0  0  0  0  0  0  0  0  0  0  0  0
    7.3905  -18.8963   22.3959 N   0  0  0  0  0  0  0  0  0  0  0  0
    6.9328  -17.8093   23.2337 C   0  0  1  0  0  0  0  0  0  0  0  0
    5.9431  -18.3804   24.2584 C   0  0  0  0  0  0  0  0  0  0  0  0
    6.6423  -19.7237   25.2048 S   0  0  0  0  0  0  0  0  0  0  0  0
    8.0872  -17.3142   24.0224 C   0  0  0  0  0  0  0  0  0  0  0  0
    9.0849  -18.0617   24.1439 O   0  0  0  0  0  0  0  0  0  0  0  0
    8.1152  -16.0461   24.6402 N   0  0  0  0  0  0  0  0  0  0  0  0
    9.3346  -15.5934   25.2674 C   0  0  1  0  0  0  0  0  0  0  0  0
    9.4227  -14.0843   25.2666 C   0  0  0  0  0  0  0  0  0  0  0  0
    8.1985  -13.4881   25.8278 C   0  0  0  0  0  0  0  0  0  0  0  0
    7.0979  -13.2723   25.0276 C   0  0  0  0  0  0  0  0  0  0  0  0
    5.9661  -12.7219   25.5709 C   0  0  0  0  0  0  0  0  0  0  0  0
    5.8651  -12.3657   26.8954 C   0  0  0  0  0  0  0  0  0  0  0  0
    6.9604  -12.5762   27.7086 C   0  0  0  0  0  0  0  0  0  0  0  0
    8.1016  -13.1283   27.1733 C   0  0  0  0  0  0  0  0  0  0  0  0
    9.3678  -16.1970   26.6165 C   0  0  0  0  0  0  0  0  0  0  0  0
    8.3518  -16.7474   27.0987 O   0  0  0  0  0  0  0  0  0  0  0  0
   10.5118  -16.1800   27.3968 O   0  0  0  0  0  0  0  0  0  0  0  0
  2  1  1  0
  3  2  1  0
  4  3  2  0
  5  3  1  0
  6  5  1  0
  6  9  1  0
  6  7  1  1
  8  7  1  0
  9 10  2  0
 11  9  1  0
 11 12  1  0
 12 13  1  1
 13 14  1  0
 14 19  2  0
 15 16  2  0
 15 14  1  0
 16 17  1  0
 17 18  2  0
 19 18  1  0
 20 12  1  0
 20 22  1  0
 21 20  2  0
M  END
$$$$
