GCF.pdb
     RDKit          3D

 22 22  0  0  1  0  0  0  0  0999 V2000
   10.9169  -17.8746   17.1219 N   0  0  0  0  0  0  0  0  0  0  0  0
   11.3780  -17.2832   18.3643 C   0  0  0  0  0  0  0  0  0  0  0  0
   10.4679  -17.6196   19.4904 C   0  0  0  0  0  0  0  0  0  0  0  0
    9.4344  -18.2662   19.2684 O   0  0  0  0  0  0  0  0  0  0  0  0
   10.7635  -17.2090   20.8342 N   0  0  0  0  0  0  0  0  0  0  0  0
    9.9445  -17.6176   21.9546 C   0  0  1  0  0  0  0  0  0  0  0  0
   10.7591  -18.5991   22.8084 C   0  0  0  0  0  0  0  0  0  0  0  0
   12.3939  -17.9838   23.1799 S   0  0  0  0  0  0  0  0  0  0  0  0
    9.7124  -16.4325   22.8157 C   0  0  0  0  0  0  0  0  0  0  0  0
   10.6071  -15.5577   22.8720 O   0  0  0  0  0  0  0  0  0  0  0  0
    8.5362  -16.2439   23.5717 N   0  0  0  0  0  0  0  0  0  0  0  0
    8.4058  -15.0619   24.3909 C   0  0  1  0  0  0  0  0  0  0  0  0
    7.0327  -14.4461   24.2482 C   0  0  0  0  0  0  0  0  0  0  0  0
    6.8459  -13.3529   25.2173 C   0  0  0  0  0  0  0  0  0  0  0  0
    7.4296  -12.1234   25.0024 C   0  0  0  0  0  0  0  0  0  0  0  0
    7.2384  -11.1173   25.9136 C   0  0  0  0  0  0  0  0  0  0  0  0
    6.4824  -11.2685   27.0525 C   0  0  0  0  0  0  0  0  0  0  0  0
    5.8920  -12.4953   27.2803 C   0  0  0  0  0  0  0  0  0  0  0  0
    6.0774  -13.5121   26.3719 C   0  0  0  0  0  0  0  0  0  0  0  0
    8.7441  -15.4635   25.7729 C   0  0  0  0  0  0  0  0  0  0  0  0
    9.3801  -14.6933   26.5278 O   0  0  0  0  0  0  0  0  0  0  0  0
    8.3760  -16.6958   26.2866 O   0  0  0  0  0  0  0  0  0  0  0  0
  2  1  1  0
  3  2  1  0
  4  3  2  0
  5  3  1  0
  6  5  1  0
  6  9  1  0
  6  7  1  1
  8  7  1  0
  9 10  2  0
 11  9  1  0
 11 12  1  0
 12 13  1  1
 13 14  1  0
 14 19  2  0
 15 16  2  0
 15 14  1  0
 16 17  1  0
 17 18  2  0
 19 18  1  0
 20 12  1  0
 20 22  1  0
 21 20  2  0
M  END
$$$$
