GCF.pdb
     RDKit          3D

 22 22  0  0  1  0  0  0  0  0999 V2000
    8.0137  -12.8090   17.8969 N   0  0  0  0  0  0  0  0  0  0  0  0
    8.8673  -13.3429   18.9420 C   0  0  0  0  0  0  0  0  0  0  0  0
    8.0934  -14.1866   19.8900 C   0  0  0  0  0  0  0  0  0  0  0  0
    6.9985  -14.6505   19.5412 O   0  0  0  0  0  0  0  0  0  0  0  0
    8.5907  -14.4756   21.2056 N   0  0  0  0  0  0  0  0  0  0  0  0
    8.1128  -15.6066   21.9708 C   0  0  1  0  0  0  0  0  0  0  0  0
    8.5659  -16.8894   21.2602 C   0  0  0  0  0  0  0  0  0  0  0  0
    8.1688  -18.3603   22.1918 S   0  0  0  0  0  0  0  0  0  0  0  0
    8.8071  -15.6063   23.2814 C   0  0  0  0  0  0  0  0  0  0  0  0
   10.0359  -15.3643   23.2999 O   0  0  0  0  0  0  0  0  0  0  0  0
    8.1521  -15.8648   24.5040 N   0  0  0  0  0  0  0  0  0  0  0  0
    8.8808  -15.7115   25.7412 C   0  0  1  0  0  0  0  0  0  0  0  0
    7.9652  -15.2861   26.8663 C   0  0  0  0  0  0  0  0  0  0  0  0
    7.3936  -13.9548   26.6012 C   0  0  0  0  0  0  0  0  0  0  0  0
    8.1557  -12.8208   26.7790 C   0  0  0  0  0  0  0  0  0  0  0  0
    7.6067  -11.5916   26.5210 C   0  0  0  0  0  0  0  0  0  0  0  0
    6.3129  -11.4227   26.0863 C   0  0  0  0  0  0  0  0  0  0  0  0
    5.5380  -12.5505   25.9042 C   0  0  0  0  0  0  0  0  0  0  0  0
    6.0794  -13.7894   26.1602 C   0  0  0  0  0  0  0  0  0  0  0  0
    9.5782  -16.9920   25.9848 C   0  0  0  0  0  0  0  0  0  0  0  0
    9.3065  -18.0099   25.3082 O   0  0  0  0  0  0  0  0  0  0  0  0
   10.5517  -17.1197   26.9615 O   0  0  0  0  0  0  0  0  0  0  0  0
  2  1  1  0
  3  2  1  0
  4  3  2  0
  5  3  1  0
  6  5  1  0
  6  9  1  0
  6  7  1  6
  8  7  1  0
  9 10  2  0
 11  9  1  0
 11 12  1  0
 12 13  1  1
 13 14  1  0
 14 19  2  0
 15 16  2  0
 15 14  1  0
 16 17  1  0
 17 18  2  0
 19 18  1  0
 20 12  1  0
 20 22  1  0
 21 20  2  0
M  END
$$$$
