GCF.pdb
     RDKit          3D

 22 22  0  0  1  0  0  0  0  0999 V2000
    4.4057  -19.1448   21.8064 N   0  0  0  0  0  0  0  0  0  0  0  0
    4.6035  -17.8768   22.4837 C   0  0  0  0  0  0  0  0  0  0  0  0
    5.9251  -17.2866   22.1451 C   0  0  0  0  0  0  0  0  0  0  0  0
    6.9422  -17.9921   22.2030 O   0  0  0  0  0  0  0  0  0  0  0  0
    6.0469  -15.9112   21.7511 N   0  0  0  0  0  0  0  0  0  0  0  0
    7.3344  -15.2990   21.5047 C   0  0  1  0  0  0  0  0  0  0  0  0
    7.0971  -13.9528   20.8067 C   0  0  0  0  0  0  0  0  0  0  0  0
    8.6202  -13.1738   20.2943 S   0  0  0  0  0  0  0  0  0  0  0  0
    7.9494  -14.9702   22.8138 C   0  0  0  0  0  0  0  0  0  0  0  0
    7.8217  -13.8034   23.2510 O   0  0  0  0  0  0  0  0  0  0  0  0
    8.6688  -15.9054   23.5873 N   0  0  0  0  0  0  0  0  0  0  0  0
    9.3183  -15.4671   24.8002 C   0  0  1  0  0  0  0  0  0  0  0  0
    8.3817  -15.5522   25.9838 C   0  0  0  0  0  0  0  0  0  0  0  0
    7.7308  -14.2542   26.2306 C   0  0  0  0  0  0  0  0  0  0  0  0
    6.3575  -14.1464   26.2026 C   0  0  0  0  0  0  0  0  0  0  0  0
    5.7712  -12.9305   26.4410 C   0  0  0  0  0  0  0  0  0  0  0  0
    6.4901  -11.7897   26.7117 C   0  0  0  0  0  0  0  0  0  0  0  0
    7.8669  -11.8834   26.7427 C   0  0  0  0  0  0  0  0  0  0  0  0
    8.4657  -13.0993   26.5049 C   0  0  0  0  0  0  0  0  0  0  0  0
   10.5440  -16.2811   24.9436 C   0  0  0  0  0  0  0  0  0  0  0  0
   10.7192  -17.3062   24.2464 O   0  0  0  0  0  0  0  0  0  0  0  0
   11.5408  -15.9484   25.8457 O   0  0  0  0  0  0  0  0  0  0  0  0
  2  1  1  0
  3  2  1  0
  4  3  2  0
  5  3  1  0
  6  5  1  0
  6  9  1  0
  6  7  1  6
  8  7  1  0
  9 10  2  0
 11  9  1  0
 11 12  1  0
 12 13  1  1
 13 14  1  0
 14 19  2  0
 15 16  2  0
 15 14  1  0
 16 17  1  0
 17 18  2  0
 19 18  1  0
 20 12  1  0
 20 22  1  0
 21 20  2  0
M  END
$$$$
