GCF.pdb
     RDKit          3D

 22 22  0  0  1  0  0  0  0  0999 V2000
    7.1684  -19.3989   18.4620 N   0  0  0  0  0  0  0  0  0  0  0  0
    7.4595  -19.7155   19.8479 C   0  0  0  0  0  0  0  0  0  0  0  0
    6.9838  -18.6395   20.7567 C   0  0  0  0  0  0  0  0  0  0  0  0
    6.5541  -17.5806   20.2774 O   0  0  0  0  0  0  0  0  0  0  0  0
    7.0125  -18.8034   22.1829 N   0  0  0  0  0  0  0  0  0  0  0  0
    6.6227  -17.7385   23.0814 C   0  0  1  0  0  0  0  0  0  0  0  0
    5.7946  -18.3526   24.2184 C   0  0  0  0  0  0  0  0  0  0  0  0
    6.7099  -19.5754   25.1437 S   0  0  0  0  0  0  0  0  0  0  0  0
    7.8477  -17.2004   23.7214 C   0  0  0  0  0  0  0  0  0  0  0  0
    8.8943  -17.8863   23.6659 O   0  0  0  0  0  0  0  0  0  0  0  0
    7.8904  -15.9574   24.3875 N   0  0  0  0  0  0  0  0  0  0  0  0
    9.1542  -15.4655   24.8833 C   0  0  1  0  0  0  0  0  0  0  0  0
    9.2369  -13.9602   24.7725 C   0  0  0  0  0  0  0  0  0  0  0  0
    8.1642  -13.3183   25.5514 C   0  0  0  0  0  0  0  0  0  0  0  0
    8.4149  -12.8359   26.8174 C   0  0  0  0  0  0  0  0  0  0  0  0
    7.4043  -12.2364   27.5234 C   0  0  0  0  0  0  0  0  0  0  0  0
    6.1294  -12.0863   27.0300 C   0  0  0  0  0  0  0  0  0  0  0  0
    5.8642  -12.5653   25.7628 C   0  0  0  0  0  0  0  0  0  0  0  0
    6.8716  -13.1688   25.0455 C   0  0  0  0  0  0  0  0  0  0  0  0
    9.2967  -15.9756   26.2635 C   0  0  0  0  0  0  0  0  0  0  0  0
    8.3182  -16.4674   26.8703 O   0  0  0  0  0  0  0  0  0  0  0  0
   10.5057  -15.9321   26.9376 O   0  0  0  0  0  0  0  0  0  0  0  0
  2  1  1  0
  3  2  1  0
  4  3  2  0
  5  3  1  0
  6  5  1  0
  6  9  1  0
  6  7  1  1
  8  7  1  0
  9 10  2  0
 11  9  1  0
 11 12  1  0
 12 13  1  1
 13 14  1  0
 14 19  2  0
 15 16  2  0
 15 14  1  0
 16 17  1  0
 17 18  2  0
 19 18  1  0
 20 12  1  0
 20 22  1  0
 21 20  2  0
M  END
$$$$
