GCF.pdb
     RDKit          3D

 22 22  0  0  1  0  0  0  0  0999 V2000
    7.8644  -12.6880   18.0415 N   0  0  0  0  0  0  0  0  0  0  0  0
    8.6999  -13.0599   19.1682 C   0  0  0  0  0  0  0  0  0  0  0  0
    8.0382  -14.0896   20.0117 C   0  0  0  0  0  0  0  0  0  0  0  0
    6.9070  -14.4941   19.7074 O   0  0  0  0  0  0  0  0  0  0  0  0
    8.6855  -14.6265   21.1755 N   0  0  0  0  0  0  0  0  0  0  0  0
    8.0606  -15.6402   21.9971 C   0  0  1  0  0  0  0  0  0  0  0  0
    8.4537  -17.0153   21.4400 C   0  0  0  0  0  0  0  0  0  0  0  0
   10.2080  -17.1496   21.1338 S   0  0  0  0  0  0  0  0  0  0  0  0
    8.6570  -15.5703   23.3533 C   0  0  0  0  0  0  0  0  0  0  0  0
    9.7835  -15.0368   23.4774 O   0  0  0  0  0  0  0  0  0  0  0  0
    8.0186  -16.0743   24.5061 N   0  0  0  0  0  0  0  0  0  0  0  0
    8.6477  -15.9002   25.7942 C   0  0  1  0  0  0  0  0  0  0  0  0
    7.6485  -15.4481   26.8345 C   0  0  0  0  0  0  0  0  0  0  0  0
    7.3377  -14.0173   26.6748 C   0  0  0  0  0  0  0  0  0  0  0  0
    6.0715  -13.6154   26.3095 C   0  0  0  0  0  0  0  0  0  0  0  0
    5.8013  -12.2785   26.1722 C   0  0  0  0  0  0  0  0  0  0  0  0
    6.7409  -11.2965   26.3823 C   0  0  0  0  0  0  0  0  0  0  0  0
    8.0137  -11.6851   26.7486 C   0  0  0  0  0  0  0  0  0  0  0  0
    8.2957  -13.0246   26.8893 C   0  0  0  0  0  0  0  0  0  0  0  0
    9.3151  -17.1792   26.1172 C   0  0  0  0  0  0  0  0  0  0  0  0
    9.0866  -18.2104   25.4447 O   0  0  0  0  0  0  0  0  0  0  0  0
   10.2122  -17.2909   27.1664 O   0  0  0  0  0  0  0  0  0  0  0  0
  2  1  1  0
  3  2  1  0
  4  3  2  0
  5  3  1  0
  6  5  1  0
  6  9  1  0
  6  7  1  6
  8  7  1  0
  9 10  2  0
 11  9  1  0
 11 12  1  0
 12 13  1  1
 13 14  1  0
 14 19  2  0
 15 16  2  0
 15 14  1  0
 16 17  1  0
 17 18  2  0
 19 18  1  0
 20 12  1  0
 20 22  1  0
 21 20  2  0
M  END
$$$$
