GCF.pdb
     RDKit          3D

 22 22  0  0  1  0  0  0  0  0999 V2000
    4.0932  -18.7498   21.2868 N   0  0  0  0  0  0  0  0  0  0  0  0
    4.2768  -17.4086   21.8096 C   0  0  0  0  0  0  0  0  0  0  0  0
    5.6350  -16.8911   21.4980 C   0  0  0  0  0  0  0  0  0  0  0  0
    6.5694  -17.6882   21.3327 O   0  0  0  0  0  0  0  0  0  0  0  0
    5.8865  -15.4820   21.3845 N   0  0  0  0  0  0  0  0  0  0  0  0
    7.2135  -14.9611   21.1374 C   0  0  1  0  0  0  0  0  0  0  0  0
    7.0700  -13.5722   20.5002 C   0  0  0  0  0  0  0  0  0  0  0  0
    8.6500  -12.8165   20.1517 S   0  0  0  0  0  0  0  0  0  0  0  0
    7.8745  -14.7367   22.4461 C   0  0  0  0  0  0  0  0  0  0  0  0
    7.5034  -13.7597   23.1365 O   0  0  0  0  0  0  0  0  0  0  0  0
    8.8976  -15.5680   22.9487 N   0  0  0  0  0  0  0  0  0  0  0  0
    9.3993  -15.3411   24.2836 C   0  0  1  0  0  0  0  0  0  0  0  0
    8.3055  -15.5042   25.3142 C   0  0  0  0  0  0  0  0  0  0  0  0
    7.8834  -14.1953   25.8412 C   0  0  0  0  0  0  0  0  0  0  0  0
    6.5506  -13.9339   26.0730 C   0  0  0  0  0  0  0  0  0  0  0  0
    6.1792  -12.7113   26.5695 C   0  0  0  0  0  0  0  0  0  0  0  0
    7.0791  -11.7112   26.8547 C   0  0  0  0  0  0  0  0  0  0  0  0
    8.4177  -11.9595   26.6270 C   0  0  0  0  0  0  0  0  0  0  0  0
    8.8014  -13.1835   26.1289 C   0  0  0  0  0  0  0  0  0  0  0  0
   10.5426  -16.2597   24.4695 C   0  0  0  0  0  0  0  0  0  0  0  0
   11.6552  -15.8308   24.8514 O   0  0  0  0  0  0  0  0  0  0  0  0
   10.4335  -17.6197   24.2320 O   0  0  0  0  0  0  0  0  0  0  0  0
  2  1  1  0
  3  2  1  0
  4  3  2  0
  5  3  1  0
  6  5  1  0
  6  9  1  0
  6  7  1  1
  8  7  1  0
  9 10  2  0
 11  9  1  0
 11 12  1  0
 12 13  1  1
 13 14  1  0
 14 19  2  0
 15 16  2  0
 15 14  1  0
 16 17  1  0
 17 18  2  0
 19 18  1  0
 20 12  1  0
 20 22  1  0
 21 20  2  0
M  END
$$$$
