GCF.pdb
     RDKit          3D

 22 22  0  0  1  0  0  0  0  0999 V2000
    7.8745  -12.5839   18.1441 N   0  0  0  0  0  0  0  0  0  0  0  0
    8.7652  -13.0657   19.1835 C   0  0  0  0  0  0  0  0  0  0  0  0
    8.0871  -14.0622   20.0535 C   0  0  0  0  0  0  0  0  0  0  0  0
    6.9111  -14.3763   19.8211 O   0  0  0  0  0  0  0  0  0  0  0  0
    8.7697  -14.6698   21.1611 N   0  0  0  0  0  0  0  0  0  0  0  0
    8.1234  -15.6420   22.0155 C   0  0  1  0  0  0  0  0  0  0  0  0
    8.4348  -17.0413   21.4671 C   0  0  0  0  0  0  0  0  0  0  0  0
   10.1732  -17.2676   21.1265 S   0  0  0  0  0  0  0  0  0  0  0  0
    8.7633  -15.5825   23.3522 C   0  0  0  0  0  0  0  0  0  0  0  0
    9.9378  -15.1538   23.4273 O   0  0  0  0  0  0  0  0  0  0  0  0
    8.1147  -15.9842   24.5390 N   0  0  0  0  0  0  0  0  0  0  0  0
    8.7913  -15.8182   25.8039 C   0  0  1  0  0  0  0  0  0  0  0  0
    7.8344  -15.3583   26.8800 C   0  0  0  0  0  0  0  0  0  0  0  0
    7.4144  -13.9660   26.6470 C   0  0  0  0  0  0  0  0  0  0  0  0
    8.2955  -12.9277   26.8563 C   0  0  0  0  0  0  0  0  0  0  0  0
    7.8867  -11.6394   26.6278 C   0  0  0  0  0  0  0  0  0  0  0  0
    6.6221  -11.3182   26.1932 C   0  0  0  0  0  0  0  0  0  0  0  0
    5.7289  -12.3488   25.9797 C   0  0  0  0  0  0  0  0  0  0  0  0
    6.1291  -13.6458   26.2059 C   0  0  0  0  0  0  0  0  0  0  0  0
    9.4577  -17.1039   26.1011 C   0  0  0  0  0  0  0  0  0  0  0  0
    9.1672  -18.1404   25.4616 O   0  0  0  0  0  0  0  0  0  0  0  0
   10.4217  -17.2162   27.0890 O   0  0  0  0  0  0  0  0  0  0  0  0
  2  1  1  0
  3  2  1  0
  4  3  2  0
  5  3  1  0
  6  5  1  0
  6  9  1  0
  6  7  1  6
  8  7  1  0
  9 10  2  0
 11  9  1  0
 11 12  1  0
 12 13  1  1
 13 14  1  0
 14 19  2  0
 15 16  2  0
 15 14  1  0
 16 17  1  0
 17 18  2  0
 19 18  1  0
 20 12  1  0
 20 22  1  0
 21 20  2  0
M  END
$$$$
