GCF.pdb
     RDKit          3D

 22 22  0  0  1  0  0  0  0  0999 V2000
    7.6148  -12.4965   18.4479 N   0  0  0  0  0  0  0  0  0  0  0  0
    8.5460  -13.0985   19.3840 C   0  0  0  0  0  0  0  0  0  0  0  0
    7.8539  -14.0451   20.2976 C   0  0  0  0  0  0  0  0  0  0  0  0
    6.6277  -14.1981   20.2042 O   0  0  0  0  0  0  0  0  0  0  0  0
    8.5800  -14.7878   21.2890 N   0  0  0  0  0  0  0  0  0  0  0  0
    7.9303  -15.7575   22.1437 C   0  0  1  0  0  0  0  0  0  0  0  0
    8.1988  -17.1554   21.5696 C   0  0  0  0  0  0  0  0  0  0  0  0
    7.5073  -18.4523   22.5841 S   0  0  0  0  0  0  0  0  0  0  0  0
    8.5995  -15.7310   23.4671 C   0  0  0  0  0  0  0  0  0  0  0  0
    9.8322  -15.5116   23.5024 O   0  0  0  0  0  0  0  0  0  0  0  0
    7.9166  -15.9405   24.6837 N   0  0  0  0  0  0  0  0  0  0  0  0
    8.6290  -15.7804   25.9295 C   0  0  1  0  0  0  0  0  0  0  0  0
    7.7167  -15.2649   27.0191 C   0  0  0  0  0  0  0  0  0  0  0  0
    7.3056  -13.8775   26.7448 C   0  0  0  0  0  0  0  0  0  0  0  0
    8.2104  -12.8454   26.8654 C   0  0  0  0  0  0  0  0  0  0  0  0
    7.8091  -11.5619   26.5996 C   0  0  0  0  0  0  0  0  0  0  0  0
    6.5296  -11.2396   26.2122 C   0  0  0  0  0  0  0  0  0  0  0  0
    5.6127  -12.2639   26.0876 C   0  0  0  0  0  0  0  0  0  0  0  0
    6.0050  -13.5561   26.3519 C   0  0  0  0  0  0  0  0  0  0  0  0
    9.2511  -17.0865   26.2339 C   0  0  0  0  0  0  0  0  0  0  0  0
    8.8642  -18.1308   25.6617 O   0  0  0  0  0  0  0  0  0  0  0  0
   10.2776  -17.2100   27.1553 O   0  0  0  0  0  0  0  0  0  0  0  0
  2  1  1  0
  3  2  1  0
  4  3  2  0
  5  3  1  0
  6  5  1  0
  6  9  1  0
  6  7  1  6
  8  7  1  0
  9 10  2  0
 11  9  1  0
 11 12  1  0
 12 13  1  1
 13 14  1  0
 14 19  2  0
 15 16  2  0
 15 14  1  0
 16 17  1  0
 17 18  2  0
 19 18  1  0
 20 12  1  0
 20 22  1  0
 21 20  2  0
M  END
$$$$
