GFQ.pdb
     RDKit          3D

 25 25  0  0  1  0  0  0  0  0999 V2000
    7.5545  -13.0883   19.1462 N   0  0  0  0  0  0  0  0  0  0  0  0
    6.9728  -13.9930   20.1005 C   0  0  0  0  0  0  0  0  0  0  0  0
    7.8564  -14.1482   21.2767 C   0  0  0  0  0  0  0  0  0  0  0  0
    9.0708  -13.8336   21.1972 O   0  0  0  0  0  0  0  0  0  0  0  0
    7.3953  -14.6475   22.5281 N   0  0  0  0  0  0  0  0  0  0  0  0
    8.2684  -14.7299   23.7004 C   0  0  1  0  0  0  0  0  0  0  0  0
    7.4552  -14.7152   24.9814 C   0  0  0  0  0  0  0  0  0  0  0  0
    7.2737  -13.3900   25.5695 C   0  0  0  0  0  0  0  0  0  0  0  0
    8.1268  -12.3526   25.2138 C   0  0  0  0  0  0  0  0  0  0  0  0
    8.0030  -11.0888   25.7415 C   0  0  0  0  0  0  0  0  0  0  0  0
    7.0131  -10.7781   26.6636 C   0  0  0  0  0  0  0  0  0  0  0  0
    6.1588  -11.8105   27.0217 C   0  0  0  0  0  0  0  0  0  0  0  0
    6.2950  -13.0708   26.4851 C   0  0  0  0  0  0  0  0  0  0  0  0
    9.1249  -15.9492   23.6227 C   0  0  0  0  0  0  0  0  0  0  0  0
    8.6036  -17.0845   23.7790 O   0  0  0  0  0  0  0  0  0  0  0  0
   13.8245  -14.0076   20.5721 N   0  0  0  0  0  0  0  0  0  0  0  0
   13.5290  -15.3894   20.4720 C   0  0  0  0  0  0  0  0  0  0  0  0
   14.3420  -16.1383   19.8303 O   0  0  0  0  0  0  0  0  0  0  0  0
   12.3384  -15.9956   21.0764 C   0  0  0  0  0  0  0  0  0  0  0  0
   12.5284  -16.6793   22.3790 C   0  0  0  0  0  0  0  0  0  0  0  0
   11.3280  -17.1188   23.1353 C   0  0  2  0  0  0  0  0  0  0  0  0
   10.5116  -15.8962   23.3796 N   0  0  0  0  0  0  0  0  0  0  0  0
   11.6109  -17.7141   24.4274 C   0  0  0  0  0  0  0  0  0  0  0  0
   11.9908  -18.9098   24.5137 O   0  0  0  0  0  0  0  0  0  0  0  0
   11.4778  -17.0015   25.6110 O   0  0  0  0  0  0  0  0  0  0  0  0
  2  1  1  0
  3  2  1  0
  3  4  2  0
  5  3  1  0
  6  5  1  0
  6  7  1  1
  8  7  1  0
  8  9  2  0
 10  9  1  0
 11 10  2  0
 12 13  2  0
 12 11  1  0
 13  8  1  0
 14 22  1  0
 14  6  1  0
 15 14  2  0
 16 17  1  0
 17 19  1  0
 18 17  2  0
 20 19  1  0
 21 20  1  1
 21 22  1  0
 21 23  1  0
 23 25  1  0
 24 23  2  0
M  END
$$$$
