GFQ.pdb
     RDKit          3D

 25 25  0  0  1  0  0  0  0  0999 V2000
    8.0438  -16.9387   18.7285 N   0  0  0  0  0  0  0  0  0  0  0  0
    7.3816  -17.2612   19.9635 C   0  0  0  0  0  0  0  0  0  0  0  0
    7.7776  -16.3149   21.0293 C   0  0  0  0  0  0  0  0  0  0  0  0
    8.7989  -15.5964   20.8852 O   0  0  0  0  0  0  0  0  0  0  0  0
    7.0463  -16.1686   22.2424 N   0  0  0  0  0  0  0  0  0  0  0  0
    7.5586  -15.3852   23.3681 C   0  0  1  0  0  0  0  0  0  0  0  0
    6.4313  -14.9720   24.2960 C   0  0  0  0  0  0  0  0  0  0  0  0
    6.8292  -14.0579   25.3641 C   0  0  0  0  0  0  0  0  0  0  0  0
    7.1413  -14.5581   26.6223 C   0  0  0  0  0  0  0  0  0  0  0  0
    7.5160  -13.7412   27.6631 C   0  0  0  0  0  0  0  0  0  0  0  0
    7.6038  -12.3640   27.5131 C   0  0  0  0  0  0  0  0  0  0  0  0
    7.2933  -11.8599   26.2587 C   0  0  0  0  0  0  0  0  0  0  0  0
    6.9197  -12.6901   25.2262 C   0  0  0  0  0  0  0  0  0  0  0  0
    8.6025  -16.1575   24.1031 C   0  0  0  0  0  0  0  0  0  0  0  0
    8.3825  -17.3575   24.4140 O   0  0  0  0  0  0  0  0  0  0  0  0
   15.2802  -15.7012   24.6308 N   0  0  0  0  0  0  0  0  0  0  0  0
   14.5830  -16.1513   23.4827 C   0  0  0  0  0  0  0  0  0  0  0  0
   15.1831  -16.1125   22.3549 O   0  0  0  0  0  0  0  0  0  0  0  0
   13.2100  -16.6638   23.5339 C   0  0  0  0  0  0  0  0  0  0  0  0
   12.2038  -15.8042   24.2040 C   0  0  0  0  0  0  0  0  0  0  0  0
   11.0204  -16.4474   24.8303 C   0  0  2  0  0  0  0  0  0  0  0  0
    9.8439  -15.6046   24.4746 N   0  0  0  0  0  0  0  0  0  0  0  0
   11.0709  -16.5292   26.2776 C   0  0  0  0  0  0  0  0  0  0  0  0
   11.7010  -17.4573   26.8463 O   0  0  0  0  0  0  0  0  0  0  0  0
   10.4358  -15.6002   27.0899 O   0  0  0  0  0  0  0  0  0  0  0  0
  2  1  1  0
  3  2  1  0
  3  4  2  0
  5  3  1  0
  6  5  1  0
  6  7  1  1
  8  7  1  0
  8  9  2  0
 10  9  1  0
 11 10  2  0
 12 13  2  0
 12 11  1  0
 13  8  1  0
 14 22  1  0
 14  6  1  0
 15 14  2  0
 16 17  1  0
 17 19  1  0
 18 17  2  0
 20 19  1  0
 21 20  1  1
 21 22  1  0
 21 23  1  0
 23 25  1  0
 24 23  2  0
M  END
$$$$
