GFQ.pdb
     RDKit          3D

 25 25  0  0  1  0  0  0  0  0999 V2000
    5.6954  -16.5702   20.4647 N   0  0  0  0  0  0  0  0  0  0  0  0
    5.5371  -16.7730   21.8795 C   0  0  0  0  0  0  0  0  0  0  0  0
    6.7078  -16.2470   22.6152 C   0  0  0  0  0  0  0  0  0  0  0  0
    7.7248  -15.8603   21.9856 O   0  0  0  0  0  0  0  0  0  0  0  0
    6.7478  -16.1516   24.0354 N   0  0  0  0  0  0  0  0  0  0  0  0
    7.9528  -15.7290   24.7514 C   0  0  1  0  0  0  0  0  0  0  0  0
    7.6054  -15.2120   26.1351 C   0  0  0  0  0  0  0  0  0  0  0  0
    7.1510  -13.8237   26.1674 C   0  0  0  0  0  0  0  0  0  0  0  0
    7.9448  -12.8231   25.6204 C   0  0  0  0  0  0  0  0  0  0  0  0
    7.5666  -11.5010   25.6295 C   0  0  0  0  0  0  0  0  0  0  0  0
    6.3641  -11.0910   26.1886 C   0  0  0  0  0  0  0  0  0  0  0  0
    5.5680  -12.0865   26.7358 C   0  0  0  0  0  0  0  0  0  0  0  0
    5.9598  -13.4059   26.7194 C   0  0  0  0  0  0  0  0  0  0  0  0
    8.9296  -16.8542   24.8290 C   0  0  0  0  0  0  0  0  0  0  0  0
    8.5451  -17.9829   25.2330 O   0  0  0  0  0  0  0  0  0  0  0  0
   12.4169  -21.7806   23.2942 N   0  0  0  0  0  0  0  0  0  0  0  0
   11.6186  -20.7363   22.7660 C   0  0  0  0  0  0  0  0  0  0  0  0
   10.3944  -20.9858   22.4968 O   0  0  0  0  0  0  0  0  0  0  0  0
   12.1334  -19.3851   22.5220 C   0  0  0  0  0  0  0  0  0  0  0  0
   11.2617  -18.2571   22.9322 C   0  0  0  0  0  0  0  0  0  0  0  0
   11.2072  -17.8840   24.3688 C   0  0  2  0  0  0  0  0  0  0  0  0
   10.2845  -16.7178   24.4677 N   0  0  0  0  0  0  0  0  0  0  0  0
   12.4783  -17.4780   24.9376 C   0  0  0  0  0  0  0  0  0  0  0  0
   12.8661  -16.2844   24.8554 O   0  0  0  0  0  0  0  0  0  0  0  0
   13.3128  -18.3749   25.5898 O   0  0  0  0  0  0  0  0  0  0  0  0
  2  1  1  0
  3  2  1  0
  3  4  2  0
  5  3  1  0
  6  5  1  0
  6  7  1  1
  8  7  1  0
  8  9  2  0
 10  9  1  0
 11 10  2  0
 12 13  2  0
 12 11  1  0
 13  8  1  0
 14 22  1  0
 14  6  1  0
 15 14  2  0
 16 17  1  0
 17 19  1  0
 18 17  2  0
 20 19  1  0
 21 20  1  6
 21 22  1  0
 21 23  1  0
 23 25  1  0
 24 23  2  0
M  END
$$$$
