GFQ.pdb
     RDKit          3D

 25 25  0  0  1  0  0  0  0  0999 V2000
    8.4247  -17.7455   19.7792 N   0  0  0  0  0  0  0  0  0  0  0  0
    8.1158  -18.1530   21.1231 C   0  0  0  0  0  0  0  0  0  0  0  0
    8.3464  -17.0406   22.0706 C   0  0  0  0  0  0  0  0  0  0  0  0
    9.3250  -16.2685   21.9083 O   0  0  0  0  0  0  0  0  0  0  0  0
    7.4985  -16.7888   23.1866 N   0  0  0  0  0  0  0  0  0  0  0  0
    7.8435  -15.8091   24.2183 C   0  0  1  0  0  0  0  0  0  0  0  0
    6.5931  -15.2457   24.8678 C   0  0  0  0  0  0  0  0  0  0  0  0
    6.8337  -14.1304   25.7804 C   0  0  0  0  0  0  0  0  0  0  0  0
    7.3059  -14.3761   27.0638 C   0  0  0  0  0  0  0  0  0  0  0  0
    7.5437  -13.3634   27.9633 C   0  0  0  0  0  0  0  0  0  0  0  0
    7.3239  -12.0323   27.6366 C   0  0  0  0  0  0  0  0  0  0  0  0
    6.8526  -11.7820   26.3562 C   0  0  0  0  0  0  0  0  0  0  0  0
    6.6192  -12.8061   25.4666 C   0  0  0  0  0  0  0  0  0  0  0  0
    8.7452  -16.4247   25.2352 C   0  0  0  0  0  0  0  0  0  0  0  0
    8.3973  -17.4899   25.8091 O   0  0  0  0  0  0  0  0  0  0  0  0
   14.8964  -15.4986   24.5836 N   0  0  0  0  0  0  0  0  0  0  0  0
   13.8470  -15.9678   23.7558 C   0  0  0  0  0  0  0  0  0  0  0  0
   14.0601  -16.0571   22.4987 O   0  0  0  0  0  0  0  0  0  0  0  0
   12.5341  -16.3598   24.2783 C   0  0  0  0  0  0  0  0  0  0  0  0
   12.3379  -16.2377   25.7436 C   0  0  0  0  0  0  0  0  0  0  0  0
   11.0315  -16.6407   26.3240 C   0  0  2  0  0  0  0  0  0  0  0  0
    9.9881  -15.8666   25.5940 N   0  0  0  0  0  0  0  0  0  0  0  0
   10.8792  -16.3452   27.7359 C   0  0  0  0  0  0  0  0  0  0  0  0
   11.5876  -16.9312   28.5942 O   0  0  0  0  0  0  0  0  0  0  0  0
    9.9586  -15.4151   28.1980 O   0  0  0  0  0  0  0  0  0  0  0  0
  2  1  1  0
  3  2  1  0
  3  4  2  0
  5  3  1  0
  6  5  1  0
  6  7  1  1
  8  7  1  0
  8  9  2  0
 10  9  1  0
 11 10  2  0
 12 13  2  0
 12 11  1  0
 13  8  1  0
 14 22  1  0
 14  6  1  0
 15 14  2  0
 16 17  1  0
 17 19  1  0
 18 17  2  0
 20 19  1  0
 21 20  1  6
 21 22  1  0
 21 23  1  0
 23 25  1  0
 24 23  2  0
M  END
$$$$
