GFQ.pdb
     RDKit          3D

 25 25  0  0  1  0  0  0  0  0999 V2000
    7.3516  -18.6369   20.3684 N   0  0  0  0  0  0  0  0  0  0  0  0
    6.8367  -18.5861   21.7100 C   0  0  0  0  0  0  0  0  0  0  0  0
    7.2957  -17.3595   22.3979 C   0  0  0  0  0  0  0  0  0  0  0  0
    8.0619  -16.5564   21.8078 O   0  0  0  0  0  0  0  0  0  0  0  0
    6.9073  -17.0288   23.7274 N   0  0  0  0  0  0  0  0  0  0  0  0
    7.3530  -15.7980   24.3830 C   0  0  1  0  0  0  0  0  0  0  0  0
    6.3567  -15.3575   25.4394 C   0  0  0  0  0  0  0  0  0  0  0  0
    6.6520  -14.0630   26.0491 C   0  0  0  0  0  0  0  0  0  0  0  0
    6.7576  -12.9304   25.2512 C   0  0  0  0  0  0  0  0  0  0  0  0
    7.0390  -11.6899   25.7737 C   0  0  0  0  0  0  0  0  0  0  0  0
    7.2340  -11.4998   27.1348 C   0  0  0  0  0  0  0  0  0  0  0  0
    7.1294  -12.6276   27.9356 C   0  0  0  0  0  0  0  0  0  0  0  0
    6.8472  -13.8630   27.3983 C   0  0  0  0  0  0  0  0  0  0  0  0
    8.7105  -15.9884   24.9722 C   0  0  0  0  0  0  0  0  0  0  0  0
    9.2554  -15.0392   25.5945 O   0  0  0  0  0  0  0  0  0  0  0  0
   13.3671  -16.6447   22.2293 N   0  0  0  0  0  0  0  0  0  0  0  0
   13.8676  -16.2666   23.4995 C   0  0  0  0  0  0  0  0  0  0  0  0
   15.1337  -16.1789   23.6507 O   0  0  0  0  0  0  0  0  0  0  0  0
   12.9982  -15.9665   24.6416 C   0  0  0  0  0  0  0  0  0  0  0  0
   11.5438  -16.1823   24.4452 C   0  0  0  0  0  0  0  0  0  0  0  0
   10.8825  -17.2922   25.1780 C   0  0  2  0  0  0  0  0  0  0  0  0
    9.4281  -17.1963   24.8669 N   0  0  0  0  0  0  0  0  0  0  0  0
   11.0200  -17.2320   26.6206 C   0  0  0  0  0  0  0  0  0  0  0  0
   10.1844  -16.6033   27.3193 O   0  0  0  0  0  0  0  0  0  0  0  0
   12.0648  -17.8570   27.2871 O   0  0  0  0  0  0  0  0  0  0  0  0
  2  1  1  0
  3  2  1  0
  3  4  2  0
  5  3  1  0
  6  5  1  0
  6  7  1  1
  8  7  1  0
  8  9  2  0
 10  9  1  0
 11 10  2  0
 12 13  2  0
 12 11  1  0
 13  8  1  0
 14 22  1  0
 14  6  1  0
 15 14  2  0
 16 17  1  0
 17 19  1  0
 18 17  2  0
 20 19  1  0
 21 20  1  6
 21 22  1  0
 21 23  1  0
 23 25  1  0
 24 23  2  0
M  END
$$$$
