GFQ.pdb
     RDKit          3D

 25 25  0  0  1  0  0  0  0  0999 V2000
    6.7637  -18.9879   20.2217 N   0  0  0  0  0  0  0  0  0  0  0  0
    6.3657  -18.9878   21.6035 C   0  0  0  0  0  0  0  0  0  0  0  0
    7.0295  -17.8876   22.3366 C   0  0  0  0  0  0  0  0  0  0  0  0
    8.1916  -17.5301   22.0174 O   0  0  0  0  0  0  0  0  0  0  0  0
    6.4084  -17.1921   23.4128 N   0  0  0  0  0  0  0  0  0  0  0  0
    7.1167  -16.1741   24.1908 C   0  0  1  0  0  0  0  0  0  0  0  0
    6.1373  -15.2322   24.8662 C   0  0  0  0  0  0  0  0  0  0  0  0
    6.7567  -14.0890   25.5326 C   0  0  0  0  0  0  0  0  0  0  0  0
    7.2127  -13.0134   24.7805 C   0  0  0  0  0  0  0  0  0  0  0  0
    7.8076  -11.9159   25.3573 C   0  0  0  0  0  0  0  0  0  0  0  0
    7.9862  -11.8217   26.7306 C   0  0  0  0  0  0  0  0  0  0  0  0
    7.5324  -12.8930   27.4858 C   0  0  0  0  0  0  0  0  0  0  0  0
    6.9388  -13.9850   26.8944 C   0  0  0  0  0  0  0  0  0  0  0  0
    8.0160  -16.8202   25.1908 C   0  0  0  0  0  0  0  0  0  0  0  0
    7.5603  -17.7191   25.9454 O   0  0  0  0  0  0  0  0  0  0  0  0
   13.8714  -17.5804   23.4239 N   0  0  0  0  0  0  0  0  0  0  0  0
   13.3796  -16.3240   23.8558 C   0  0  0  0  0  0  0  0  0  0  0  0
   13.9822  -15.2685   23.4603 O   0  0  0  0  0  0  0  0  0  0  0  0
   12.2095  -16.1833   24.7283 C   0  0  0  0  0  0  0  0  0  0  0  0
   11.5440  -17.4381   25.1560 C   0  0  0  0  0  0  0  0  0  0  0  0
   10.3529  -17.3483   26.0389 C   0  0  2  0  0  0  0  0  0  0  0  0
    9.3729  -16.4710   25.3382 N   0  0  0  0  0  0  0  0  0  0  0  0
   10.6066  -16.7589   27.3397 C   0  0  0  0  0  0  0  0  0  0  0  0
   11.2762  -17.3785   28.2054 O   0  0  0  0  0  0  0  0  0  0  0  0
   10.1294  -15.5019   27.6839 O   0  0  0  0  0  0  0  0  0  0  0  0
  2  1  1  0
  3  2  1  0
  3  4  2  0
  5  3  1  0
  6  5  1  0
  6  7  1  1
  8  7  1  0
  8  9  2  0
 10  9  1  0
 11 10  2  0
 12 13  2  0
 12 11  1  0
 13  8  1  0
 14 22  1  0
 14  6  1  0
 15 14  2  0
 16 17  1  0
 17 19  1  0
 18 17  2  0
 20 19  1  0
 21 20  1  6
 21 22  1  0
 21 23  1  0
 23 25  1  0
 24 23  2  0
M  END
$$$$
