GFQ.pdb
     RDKit          3D

 25 25  0  0  1  0  0  0  0  0999 V2000
    9.3929  -16.6474   18.7298 N   0  0  0  0  0  0  0  0  0  0  0  0
    8.2914  -16.6167   19.6536 C   0  0  0  0  0  0  0  0  0  0  0  0
    8.6212  -15.7824   20.8298 C   0  0  0  0  0  0  0  0  0  0  0  0
    9.8214  -15.5317   21.1067 O   0  0  0  0  0  0  0  0  0  0  0  0
    7.6277  -15.2324   21.6890 N   0  0  0  0  0  0  0  0  0  0  0  0
    7.9700  -14.5834   22.9559 C   0  0  1  0  0  0  0  0  0  0  0  0
    6.7947  -13.7848   23.4884 C   0  0  0  0  0  0  0  0  0  0  0  0
    7.0320  -13.1447   24.7802 C   0  0  0  0  0  0  0  0  0  0  0  0
    6.5064  -13.7062   25.9374 C   0  0  0  0  0  0  0  0  0  0  0  0
    6.6955  -13.1414   27.1769 C   0  0  0  0  0  0  0  0  0  0  0  0
    7.4261  -11.9726   27.3411 C   0  0  0  0  0  0  0  0  0  0  0  0
    7.9529  -11.4084   26.1887 C   0  0  0  0  0  0  0  0  0  0  0  0
    7.7553  -11.9852   24.9547 C   0  0  0  0  0  0  0  0  0  0  0  0
    8.4236  -15.5984   23.9510 C   0  0  0  0  0  0  0  0  0  0  0  0
    7.8272  -16.7047   24.0246 O   0  0  0  0  0  0  0  0  0  0  0  0
   14.4127  -15.6689   23.7573 N   0  0  0  0  0  0  0  0  0  0  0  0
   14.2047  -16.6921   24.7147 C   0  0  0  0  0  0  0  0  0  0  0  0
   15.2181  -17.3548   25.1237 O   0  0  0  0  0  0  0  0  0  0  0  0
   12.8825  -17.0174   25.2590 C   0  0  0  0  0  0  0  0  0  0  0  0
   11.7481  -16.1820   24.7947 C   0  0  0  0  0  0  0  0  0  0  0  0
   10.3854  -16.4845   25.3022 C   0  0  2  0  0  0  0  0  0  0  0  0
    9.5036  -15.3801   24.8290 N   0  0  0  0  0  0  0  0  0  0  0  0
   10.2750  -16.5355   26.7476 C   0  0  0  0  0  0  0  0  0  0  0  0
    9.9228  -15.5199   27.4005 O   0  0  0  0  0  0  0  0  0  0  0  0
   10.5486  -17.6909   27.4663 O   0  0  0  0  0  0  0  0  0  0  0  0
  2  1  1  0
  3  2  1  0
  3  4  2  0
  5  3  1  0
  6  5  1  0
  6  7  1  1
  8  7  1  0
  8  9  2  0
 10  9  1  0
 11 10  2  0
 12 13  2  0
 12 11  1  0
 13  8  1  0
 14 22  1  0
 14  6  1  0
 15 14  2  0
 16 17  1  0
 17 19  1  0
 18 17  2  0
 20 19  1  0
 21 20  1  1
 21 22  1  0
 21 23  1  0
 23 25  1  0
 24 23  2  0
M  END
$$$$
