DKR.pdb
     RDKit          3D

 29 28  0  0  1  0  0  0  0  0999 V2000
   11.3109  -17.6150   16.2511 N   0  0  0  0  0  0  0  0  0  0  0  0
   12.3356  -17.1521   17.1818 C   0  0  1  0  0  0  0  0  0  0  0  0
   13.3218  -16.3353   16.3834 C   0  0  0  0  0  0  0  0  0  0  0  0
   14.2671  -17.2126   15.6888 C   0  0  0  0  0  0  0  0  0  0  0  0
   14.1323  -18.4742   15.6458 O   0  0  0  0  0  0  0  0  0  0  0  0
   11.7350  -16.2994   18.2333 C   0  0  0  0  0  0  0  0  0  0  0  0
   12.5223  -15.7556   19.0697 O   0  0  0  0  0  0  0  0  0  0  0  0
   15.3630  -16.6597   15.0446 O   0  0  0  0  0  0  0  0  0  0  0  0
   10.3419  -16.0918   18.3121 N   0  0  0  0  0  0  0  0  0  0  0  0
    9.7328  -15.2793   19.3875 C   0  0  1  0  0  0  0  0  0  0  0  0
    8.4994  -14.6290   18.8426 C   0  0  0  0  0  0  0  0  0  0  0  0
    8.4852  -14.2392   17.4243 C   0  0  0  0  0  0  0  0  0  0  0  0
    7.0545  -13.7177   17.1494 C   0  0  0  0  0  0  0  0  0  0  0  0
    7.0322  -13.3749   15.6746 C   0  0  0  0  0  0  0  0  0  0  0  0
    5.6909  -12.9372   15.3481 N   0  0  0  0  0  0  0  0  0  0  0  0
    9.5737  -16.1313   20.5499 C   0  0  0  0  0  0  0  0  0  0  0  0
    9.4059  -17.3670   20.4223 O   0  0  0  0  0  0  0  0  0  0  0  0
   17.4798  -17.5328   23.9415 N   0  0  0  0  0  0  0  0  0  0  0  0
   16.0689  -17.5947   24.1067 C   0  0  0  0  0  0  0  0  0  0  0  0
   15.5802  -18.1134   25.1914 N   0  0  0  0  0  0  0  0  0  0  0  0
   15.1611  -17.1168   23.1382 N   0  0  0  0  0  0  0  0  0  0  0  0
   14.3147  -15.9587   23.2933 C   0  0  0  0  0  0  0  0  0  0  0  0
   12.8924  -16.4215   23.5103 C   0  0  0  0  0  0  0  0  0  0  0  0
   11.9533  -15.8437   22.4810 C   0  0  0  0  0  0  0  0  0  0  0  0
   10.5332  -16.1409   22.8847 C   0  0  2  0  0  0  0  0  0  0  0  0
    9.6033  -15.6148   21.8702 N   0  0  0  0  0  0  0  0  0  0  0  0
   10.2477  -15.5721   24.2017 C   0  0  0  0  0  0  0  0  0  0  0  0
    9.2634  -14.6211   24.4109 O   0  0  0  0  0  0  0  0  0  0  0  0
   10.9255  -15.9644   25.1824 O   0  0  0  0  0  0  0  0  0  0  0  0
  2  1  1  6
  2  3  1  0
  3  4  1  0
  4  8  1  0
  4  5  2  0
  6  7  2  0
  6  2  1  0
  9  6  1  0
 10 16  1  0
 10  9  1  0
 10 11  1  6
 12 11  1  0
 12 13  1  0
 13 14  1  0
 14 15  1  0
 16 17  2  0
 18 19  1  0
 19 21  1  0
 20 19  2  0
 22 21  1  0
 23 24  1  0
 23 22  1  0
 25 24  1  6
 25 27  1  0
 26 25  1  0
 26 16  1  0
 27 29  2  0
 27 28  1  0
M  END
$$$$
