DKR.pdb
     RDKit          3D

 29 28  0  0  1  0  0  0  0  0999 V2000
   -3.9272  -23.6400   21.6511 N   0  0  0  0  0  0  0  0  0  0  0  0
   -2.5893  -23.8998   22.1737 C   0  0  1  0  0  0  0  0  0  0  0  0
   -1.6297  -23.0539   21.3732 C   0  0  0  0  0  0  0  0  0  0  0  0
   -1.5776  -23.5168   19.9844 C   0  0  0  0  0  0  0  0  0  0  0  0
   -0.8423  -22.9730   19.1040 O   0  0  0  0  0  0  0  0  0  0  0  0
   -2.5054  -23.5136   23.6011 C   0  0  0  0  0  0  0  0  0  0  0  0
   -1.4024  -23.7134   24.1999 O   0  0  0  0  0  0  0  0  0  0  0  0
   -2.3581  -24.5943   19.5954 O   0  0  0  0  0  0  0  0  0  0  0  0
   -3.6032  -22.9443   24.2798 N   0  0  0  0  0  0  0  0  0  0  0  0
   -3.5124  -22.5195   25.6937 C   0  0  1  0  0  0  0  0  0  0  0  0
   -4.4730  -21.3913   25.9071 C   0  0  0  0  0  0  0  0  0  0  0  0
   -4.6566  -20.8811   27.2745 C   0  0  0  0  0  0  0  0  0  0  0  0
   -5.6279  -21.8703   27.9618 C   0  0  0  0  0  0  0  0  0  0  0  0
   -5.9736  -21.2307   29.2902 C   0  0  0  0  0  0  0  0  0  0  0  0
   -6.9718  -22.0630   29.9291 N   0  0  0  0  0  0  0  0  0  0  0  0
   -3.6806  -23.6979   26.5216 C   0  0  0  0  0  0  0  0  0  0  0  0
   -4.6039  -24.5150   26.2958 O   0  0  0  0  0  0  0  0  0  0  0  0
    1.5961  -29.5278   31.0189 N   0  0  0  0  0  0  0  0  0  0  0  0
    0.2030  -29.7592   31.1848 C   0  0  0  0  0  0  0  0  0  0  0  0
   -0.1919  -30.8226   31.8154 N   0  0  0  0  0  0  0  0  0  0  0  0
   -0.7850  -28.8814   30.6908 N   0  0  0  0  0  0  0  0  0  0  0  0
   -0.5242  -27.6441   29.9961 C   0  0  0  0  0  0  0  0  0  0  0  0
   -1.8432  -27.0243   29.5953 C   0  0  0  0  0  0  0  0  0  0  0  0
   -1.6472  -25.7402   28.8284 C   0  0  0  0  0  0  0  0  0  0  0  0
   -2.9925  -25.1843   28.4424 C   0  0  2  0  0  0  0  0  0  0  0  0
   -2.8175  -23.9808   27.6106 N   0  0  0  0  0  0  0  0  0  0  0  0
   -3.7825  -24.8851   29.6365 C   0  0  0  0  0  0  0  0  0  0  0  0
   -4.8158  -25.6956   30.0750 O   0  0  0  0  0  0  0  0  0  0  0  0
   -3.5100  -23.8487   30.2898 O   0  0  0  0  0  0  0  0  0  0  0  0
  2  1  1  6
  2  3  1  0
  3  4  1  0
  4  8  1  0
  4  5  2  0
  6  7  2  0
  6  2  1  0
  9  6  1  0
 10 16  1  0
 10  9  1  0
 10 11  1  1
 12 11  1  0
 12 13  1  0
 13 14  1  0
 14 15  1  0
 16 17  2  0
 18 19  1  0
 19 21  1  0
 20 19  2  0
 22 21  1  0
 23 24  1  0
 23 22  1  0
 25 24  1  1
 25 27  1  0
 26 25  1  0
 26 16  1  0
 27 29  2  0
 27 28  1  0
M  END
$$$$
