DKR.pdb
     RDKit          3D

 29 28  0  0  1  0  0  0  0  0999 V2000
   11.1966  -18.7502   15.8432 N   0  0  0  0  0  0  0  0  0  0  0  0
   10.8949  -17.4483   16.4300 C   0  0  1  0  0  0  0  0  0  0  0  0
    9.6822  -16.9094   15.7114 C   0  0  0  0  0  0  0  0  0  0  0  0
   10.0143  -16.5862   14.3218 C   0  0  0  0  0  0  0  0  0  0  0  0
   10.8601  -17.2470   13.6439 O   0  0  0  0  0  0  0  0  0  0  0  0
   10.5850  -17.5877   17.8716 C   0  0  0  0  0  0  0  0  0  0  0  0
   10.3584  -16.5243   18.5295 O   0  0  0  0  0  0  0  0  0  0  0  0
    9.3880  -15.5156   13.7028 O   0  0  0  0  0  0  0  0  0  0  0  0
   10.5404  -18.8496   18.5006 N   0  0  0  0  0  0  0  0  0  0  0  0
   10.3278  -18.9890   19.9577 C   0  0  1  0  0  0  0  0  0  0  0  0
    9.8480  -20.3806   20.2306 C   0  0  0  0  0  0  0  0  0  0  0  0
    8.5192  -20.7699   19.7342 C   0  0  0  0  0  0  0  0  0  0  0  0
    8.3194  -22.2371   20.1838 C   0  0  0  0  0  0  0  0  0  0  0  0
    6.9245  -22.6075   19.7254 C   0  0  0  0  0  0  0  0  0  0  0  0
    6.6336  -23.9308   20.2371 N   0  0  0  0  0  0  0  0  0  0  0  0
   11.5431  -18.5648   20.6250 C   0  0  0  0  0  0  0  0  0  0  0  0
   12.6586  -18.6869   20.0664 O   0  0  0  0  0  0  0  0  0  0  0  0
   14.3999  -15.3110   17.4712 N   0  0  0  0  0  0  0  0  0  0  0  0
   15.0075  -14.2409   18.1836 C   0  0  0  0  0  0  0  0  0  0  0  0
   16.1791  -13.8200   17.8168 N   0  0  0  0  0  0  0  0  0  0  0  0
   14.3947  -13.6063   19.2847 N   0  0  0  0  0  0  0  0  0  0  0  0
   13.1405  -14.0012   19.8784 C   0  0  0  0  0  0  0  0  0  0  0  0
   13.3834  -15.1856   20.7854 C   0  0  0  0  0  0  0  0  0  0  0  0
   12.1040  -15.6816   21.4117 C   0  0  0  0  0  0  0  0  0  0  0  0
   12.4088  -16.8707   22.2842 C   0  0  2  0  0  0  0  0  0  0  0  0
   11.5281  -17.9956   21.9237 N   0  0  0  0  0  0  0  0  0  0  0  0
   12.2581  -16.5194   23.6960 C   0  0  0  0  0  0  0  0  0  0  0  0
   13.2989  -16.0192   24.4599 O   0  0  0  0  0  0  0  0  0  0  0  0
   11.1364  -16.6792   24.2358 O   0  0  0  0  0  0  0  0  0  0  0  0
  2  1  1  6
  2  3  1  0
  3  4  1  0
  4  8  1  0
  4  5  2  0
  6  7  2  0
  6  2  1  0
  9  6  1  0
 10 16  1  0
 10  9  1  0
 10 11  1  6
 12 11  1  0
 12 13  1  0
 13 14  1  0
 14 15  1  0
 16 17  2  0
 18 19  1  0
 19 21  1  0
 20 19  2  0
 22 21  1  0
 23 24  1  0
 23 22  1  0
 25 24  1  6
 25 27  1  0
 26 25  1  0
 26 16  1  0
 27 29  2  0
 27 28  1  0
M  END
$$$$
