DKR.pdb
     RDKit          3D

 29 28  0  0  1  0  0  0  0  0999 V2000
    9.9503  -17.9245   18.1634 N   0  0  0  0  0  0  0  0  0  0  0  0
   11.1782  -17.7343   18.9293 C   0  0  1  0  0  0  0  0  0  0  0  0
   12.1906  -17.1172   17.9959 C   0  0  0  0  0  0  0  0  0  0  0  0
   12.0506  -17.6763   16.6493 C   0  0  0  0  0  0  0  0  0  0  0  0
   11.1531  -18.5205   16.3436 O   0  0  0  0  0  0  0  0  0  0  0  0
   10.9428  -16.8171   20.0683 C   0  0  0  0  0  0  0  0  0  0  0  0
   11.9437  -16.5016   20.7851 O   0  0  0  0  0  0  0  0  0  0  0  0
   12.9271  -17.2786   15.6517 O   0  0  0  0  0  0  0  0  0  0  0  0
    9.6593  -16.3070   20.3552 N   0  0  0  0  0  0  0  0  0  0  0  0
    9.4133  -15.4148   21.5089 C   0  0  1  0  0  0  0  0  0  0  0  0
    8.1998  -14.5894   21.2132 C   0  0  0  0  0  0  0  0  0  0  0  0
    8.3322  -13.4676   20.2710 C   0  0  0  0  0  0  0  0  0  0  0  0
    7.5667  -13.8998   18.9976 C   0  0  0  0  0  0  0  0  0  0  0  0
    7.7989  -12.7874   17.9967 C   0  0  0  0  0  0  0  0  0  0  0  0
    7.0467  -13.1106   16.8021 N   0  0  0  0  0  0  0  0  0  0  0  0
    9.3810  -16.2351   22.7039 C   0  0  0  0  0  0  0  0  0  0  0  0
    8.5581  -17.1740   22.8163 O   0  0  0  0  0  0  0  0  0  0  0  0
   11.6780  -20.6839   20.9518 N   0  0  0  0  0  0  0  0  0  0  0  0
   12.6491  -19.6736   21.1925 C   0  0  0  0  0  0  0  0  0  0  0  0
   13.5726  -19.4584   20.3063 N   0  0  0  0  0  0  0  0  0  0  0  0
   12.6616  -18.8840   22.3617 N   0  0  0  0  0  0  0  0  0  0  0  0
   12.3684  -19.3633   23.6906 C   0  0  0  0  0  0  0  0  0  0  0  0
   11.0342  -18.8024   24.1264 C   0  0  0  0  0  0  0  0  0  0  0  0
   11.1907  -17.7700   25.2149 C   0  0  0  0  0  0  0  0  0  0  0  0
   10.1114  -16.7298   25.0691 C   0  0  2  0  0  0  0  0  0  0  0  0
   10.2696  -16.0198   23.7879 N   0  0  0  0  0  0  0  0  0  0  0  0
   10.1485  -15.7952   26.1937 C   0  0  0  0  0  0  0  0  0  0  0  0
   10.2951  -14.4283   26.0287 O   0  0  0  0  0  0  0  0  0  0  0  0
   10.0430  -16.2545   27.3569 O   0  0  0  0  0  0  0  0  0  0  0  0
  2  1  1  6
  2  3  1  0
  3  4  1  0
  4  8  1  0
  4  5  2  0
  6  7  2  0
  6  2  1  0
  9  6  1  0
 10 16  1  0
 10  9  1  0
 10 11  1  6
 12 11  1  0
 12 13  1  0
 13 14  1  0
 14 15  1  0
 16 17  2  0
 18 19  1  0
 19 21  1  0
 20 19  2  0
 22 21  1  0
 23 24  1  0
 23 22  1  0
 25 24  1  1
 25 27  1  0
 26 25  1  0
 26 16  1  0
 27 29  2  0
 27 28  1  0
M  END
$$$$
