DKR.pdb
     RDKit          3D

 29 28  0  0  1  0  0  0  0  0999 V2000
   12.2182  -19.2171   19.3053 N   0  0  0  0  0  0  0  0  0  0  0  0
   13.1345  -18.3773   20.0705 C   0  0  1  0  0  0  0  0  0  0  0  0
   14.1490  -17.8286   19.0973 C   0  0  0  0  0  0  0  0  0  0  0  0
   15.0794  -18.8812   18.6825 C   0  0  0  0  0  0  0  0  0  0  0  0
   14.6939  -19.9962   18.2139 O   0  0  0  0  0  0  0  0  0  0  0  0
   12.4050  -17.2523   20.6998 C   0  0  0  0  0  0  0  0  0  0  0  0
   13.0701  -16.4610   21.4392 O   0  0  0  0  0  0  0  0  0  0  0  0
   16.4444  -18.6690   18.7993 O   0  0  0  0  0  0  0  0  0  0  0  0
   11.0233  -17.0575   20.4925 N   0  0  0  0  0  0  0  0  0  0  0  0
   10.3010  -15.9053   21.0742 C   0  0  1  0  0  0  0  0  0  0  0  0
    9.3407  -15.3877   20.0490 C   0  0  0  0  0  0  0  0  0  0  0  0
    8.4096  -14.3190   20.4426 C   0  0  0  0  0  0  0  0  0  0  0  0
    7.6233  -13.9576   19.1598 C   0  0  0  0  0  0  0  0  0  0  0  0
    6.6577  -12.8687   19.5782 C   0  0  0  0  0  0  0  0  0  0  0  0
    5.9374  -12.4455   18.3953 N   0  0  0  0  0  0  0  0  0  0  0  0
    9.7479  -16.3262   22.3466 C   0  0  0  0  0  0  0  0  0  0  0  0
    9.2349  -17.4622   22.4797 O   0  0  0  0  0  0  0  0  0  0  0  0
   10.1423  -18.5661   29.0567 N   0  0  0  0  0  0  0  0  0  0  0  0
   11.0821  -17.6138   29.5382 C   0  0  0  0  0  0  0  0  0  0  0  0
   11.6573  -17.8149   30.6841 N   0  0  0  0  0  0  0  0  0  0  0  0
   11.4243  -16.4453   28.8255 N   0  0  0  0  0  0  0  0  0  0  0  0
   10.4885  -15.4452   28.3719 C   0  0  0  0  0  0  0  0  0  0  0  0
    9.6983  -16.0087   27.2132 C   0  0  0  0  0  0  0  0  0  0  0  0
   10.1777  -15.4623   25.8915 C   0  0  0  0  0  0  0  0  0  0  0  0
    9.2661  -15.9479   24.7955 C   0  0  2  0  0  0  0  0  0  0  0  0
    9.7635  -15.4850   23.4882 N   0  0  0  0  0  0  0  0  0  0  0  0
    7.8978  -15.4865   25.0284 C   0  0  0  0  0  0  0  0  0  0  0  0
    7.4122  -14.2927   24.5222 O   0  0  0  0  0  0  0  0  0  0  0  0
    7.1332  -16.2051   25.7169 O   0  0  0  0  0  0  0  0  0  0  0  0
  2  1  1  6
  2  3  1  0
  3  4  1  0
  4  8  1  0
  4  5  2  0
  6  7  2  0
  6  2  1  0
  9  6  1  0
 10 16  1  0
 10  9  1  0
 10 11  1  6
 12 11  1  0
 12 13  1  0
 13 14  1  0
 14 15  1  0
 16 17  2  0
 18 19  1  0
 19 21  1  0
 20 19  2  0
 22 21  1  0
 23 24  1  0
 23 22  1  0
 25 24  1  1
 25 27  1  0
 26 25  1  0
 26 16  1  0
 27 29  2  0
 27 28  1  0
M  END
$$$$
