DKR.pdb
     RDKit          3D

 29 28  0  0  1  0  0  0  0  0999 V2000
    4.6134  -17.8178   23.3987 N   0  0  0  0  0  0  0  0  0  0  0  0
    5.4210  -18.9771   23.0321 C   0  0  1  0  0  0  0  0  0  0  0  0
    4.6352  -19.7573   22.0068 C   0  0  0  0  0  0  0  0  0  0  0  0
    5.3457  -20.9866   21.6467 C   0  0  0  0  0  0  0  0  0  0  0  0
    6.2155  -21.5251   22.3983 O   0  0  0  0  0  0  0  0  0  0  0  0
    6.7069  -18.5467   22.4363 C   0  0  0  0  0  0  0  0  0  0  0  0
    7.5543  -19.4501   22.1520 O   0  0  0  0  0  0  0  0  0  0  0  0
    5.0698  -21.6034   20.4362 O   0  0  0  0  0  0  0  0  0  0  0  0
    6.9901  -17.1870   22.1894 N   0  0  0  0  0  0  0  0  0  0  0  0
    8.3091  -16.7422   21.6892 C   0  0  1  0  0  0  0  0  0  0  0  0
    8.0994  -16.0099   20.4004 C   0  0  0  0  0  0  0  0  0  0  0  0
    7.9605  -14.5461   20.4449 C   0  0  0  0  0  0  0  0  0  0  0  0
    7.7015  -14.1073   18.9838 C   0  0  0  0  0  0  0  0  0  0  0  0
    7.4992  -12.6079   19.0484 C   0  0  0  0  0  0  0  0  0  0  0  0
    7.1546  -12.1559   17.7163 N   0  0  0  0  0  0  0  0  0  0  0  0
    8.9687  -16.0215   22.7605 C   0  0  0  0  0  0  0  0  0  0  0  0
    8.3024  -15.4174   23.6337 O   0  0  0  0  0  0  0  0  0  0  0  0
    9.2002  -20.0675   29.2130 N   0  0  0  0  0  0  0  0  0  0  0  0
    8.6753  -19.2927   28.1426 C   0  0  0  0  0  0  0  0  0  0  0  0
    7.4499  -19.4866   27.7615 N   0  0  0  0  0  0  0  0  0  0  0  0
    9.4289  -18.3123   27.4632 N   0  0  0  0  0  0  0  0  0  0  0  0
   10.8295  -18.4214   27.1348 C   0  0  0  0  0  0  0  0  0  0  0  0
   11.2332  -17.2144   26.3194 C   0  0  0  0  0  0  0  0  0  0  0  0
   10.5702  -17.2081   24.9646 C   0  0  0  0  0  0  0  0  0  0  0  0
   11.0545  -16.0159   24.1823 C   0  0  2  0  0  0  0  0  0  0  0  0
   10.3814  -15.9688   22.8726 N   0  0  0  0  0  0  0  0  0  0  0  0
   12.5076  -16.0668   24.0226 C   0  0  0  0  0  0  0  0  0  0  0  0
   13.3858  -15.8301   25.0666 O   0  0  0  0  0  0  0  0  0  0  0  0
   12.9759  -16.3366   22.8900 O   0  0  0  0  0  0  0  0  0  0  0  0
  2  1  1  6
  2  3  1  0
  3  4  1  0
  4  8  1  0
  4  5  2  0
  6  7  2  0
  6  2  1  0
  9  6  1  0
 10 16  1  0
 10  9  1  0
 10 11  1  6
 12 11  1  0
 12 13  1  0
 13 14  1  0
 14 15  1  0
 16 17  2  0
 18 19  1  0
 19 21  1  0
 20 19  2  0
 22 21  1  0
 23 24  1  0
 23 22  1  0
 25 24  1  6
 25 27  1  0
 26 25  1  0
 26 16  1  0
 27 29  2  0
 27 28  1  0
M  END
$$$$
