DKR.pdb
     RDKit          3D

 29 28  0  0  1  0  0  0  0  0999 V2000
   12.3688  -15.8650   18.1470 N   0  0  0  0  0  0  0  0  0  0  0  0
   12.9344  -15.3592   19.3939 C   0  0  1  0  0  0  0  0  0  0  0  0
   13.8380  -14.2054   19.0339 C   0  0  0  0  0  0  0  0  0  0  0  0
   14.9479  -14.6682   18.1975 C   0  0  0  0  0  0  0  0  0  0  0  0
   15.5184  -15.7893   18.3681 O   0  0  0  0  0  0  0  0  0  0  0  0
   11.8609  -14.8754   20.2925 C   0  0  0  0  0  0  0  0  0  0  0  0
   12.2104  -14.3508   21.3960 O   0  0  0  0  0  0  0  0  0  0  0  0
   15.4096  -13.8605   17.1697 O   0  0  0  0  0  0  0  0  0  0  0  0
   10.4983  -14.9880   19.9455 N   0  0  0  0  0  0  0  0  0  0  0  0
    9.4274  -14.4145   20.7894 C   0  0  1  0  0  0  0  0  0  0  0  0
    8.2197  -14.1978   19.9317 C   0  0  0  0  0  0  0  0  0  0  0  0
    8.3119  -13.2272   18.8302 C   0  0  0  0  0  0  0  0  0  0  0  0
    7.5929  -13.8887   17.6303 C   0  0  0  0  0  0  0  0  0  0  0  0
    7.7785  -12.9268   16.4754 C   0  0  0  0  0  0  0  0  0  0  0  0
    7.1039  -13.4907   15.3246 N   0  0  0  0  0  0  0  0  0  0  0  0
    9.2710  -15.2711   21.9488 C   0  0  0  0  0  0  0  0  0  0  0  0
    9.1995  -16.5162   21.8225 O   0  0  0  0  0  0  0  0  0  0  0  0
   10.9723  -17.2676   31.2186 N   0  0  0  0  0  0  0  0  0  0  0  0
   10.5118  -16.1666   30.4457 C   0  0  0  0  0  0  0  0  0  0  0  0
   10.5774  -14.9704   30.9452 N   0  0  0  0  0  0  0  0  0  0  0  0
    9.9783  -16.3098   29.1475 N   0  0  0  0  0  0  0  0  0  0  0  0
   10.1741  -15.3798   28.0620 C   0  0  0  0  0  0  0  0  0  0  0  0
    9.5195  -15.9383   26.8193 C   0  0  0  0  0  0  0  0  0  0  0  0
    9.6430  -14.9935   25.6499 C   0  0  0  0  0  0  0  0  0  0  0  0
    9.0160  -15.6253   24.4351 C   0  0  2  0  0  0  0  0  0  0  0  0
    9.1959  -14.7484   23.2649 N   0  0  0  0  0  0  0  0  0  0  0  0
    7.5983  -15.8945   24.6746 C   0  0  0  0  0  0  0  0  0  0  0  0
    7.1546  -16.9824   25.4072 O   0  0  0  0  0  0  0  0  0  0  0  0
    6.7499  -15.1043   24.1942 O   0  0  0  0  0  0  0  0  0  0  0  0
  2  1  1  6
  2  3  1  0
  3  4  1  0
  4  8  1  0
  4  5  2  0
  6  7  2  0
  6  2  1  0
  9  6  1  0
 10 16  1  0
 10  9  1  0
 10 11  1  6
 12 11  1  0
 12 13  1  0
 13 14  1  0
 14 15  1  0
 16 17  2  0
 18 19  1  0
 19 21  1  0
 20 19  2  0
 22 21  1  0
 23 24  1  0
 23 22  1  0
 25 24  1  1
 25 27  1  0
 26 25  1  0
 26 16  1  0
 27 29  2  0
 27 28  1  0
M  END
$$$$
