DKR.pdb
     RDKit          3D

 29 28  0  0  1  0  0  0  0  0999 V2000
   12.3613  -19.6487   18.9492 N   0  0  0  0  0  0  0  0  0  0  0  0
   12.3507  -19.8768   20.3909 C   0  0  1  0  0  0  0  0  0  0  0  0
   13.7463  -20.2968   20.7825 C   0  0  0  0  0  0  0  0  0  0  0  0
   14.2359  -21.3432   19.8819 C   0  0  0  0  0  0  0  0  0  0  0  0
   13.6516  -21.6472   18.7967 O   0  0  0  0  0  0  0  0  0  0  0  0
   11.9963  -18.6320   21.1110 C   0  0  0  0  0  0  0  0  0  0  0  0
   12.7892  -18.2335   22.0208 O   0  0  0  0  0  0  0  0  0  0  0  0
   15.3860  -22.0432   20.2121 O   0  0  0  0  0  0  0  0  0  0  0  0
   10.8247  -17.9081   20.8058 N   0  0  0  0  0  0  0  0  0  0  0  0
   10.4870  -16.6428   21.4933 C   0  0  1  0  0  0  0  0  0  0  0  0
    9.5744  -15.8555   20.6052 C   0  0  0  0  0  0  0  0  0  0  0  0
    9.0434  -14.5789   21.1072 C   0  0  0  0  0  0  0  0  0  0  0  0
    8.1581  -14.0188   19.9683 C   0  0  0  0  0  0  0  0  0  0  0  0
    7.5659  -12.7379   20.5177 C   0  0  0  0  0  0  0  0  0  0  0  0
    6.6527  -12.2166   19.5218 N   0  0  0  0  0  0  0  0  0  0  0  0
    9.9981  -16.9751   22.8172 C   0  0  0  0  0  0  0  0  0  0  0  0
    9.0687  -17.8023   22.9697 O   0  0  0  0  0  0  0  0  0  0  0  0
   13.0138  -20.3907   30.0902 N   0  0  0  0  0  0  0  0  0  0  0  0
   11.8602  -19.6312   30.4280 C   0  0  0  0  0  0  0  0  0  0  0  0
   11.3788  -19.7112   31.6306 N   0  0  0  0  0  0  0  0  0  0  0  0
   11.2024  -18.7854   29.5101 N   0  0  0  0  0  0  0  0  0  0  0  0
   11.7836  -18.2651   28.2965 C   0  0  0  0  0  0  0  0  0  0  0  0
   10.7677  -17.3803   27.6112 C   0  0  0  0  0  0  0  0  0  0  0  0
   11.2540  -16.9116   26.2625 C   0  0  0  0  0  0  0  0  0  0  0  0
   10.0775  -16.7751   25.3323 C   0  0  2  0  0  0  0  0  0  0  0  0
   10.5432  -16.3904   23.9885 N   0  0  0  0  0  0  0  0  0  0  0  0
    9.1242  -15.7971   25.8560 C   0  0  0  0  0  0  0  0  0  0  0  0
    8.2101  -16.0990   26.8512 O   0  0  0  0  0  0  0  0  0  0  0  0
    9.1371  -14.6355   25.3812 O   0  0  0  0  0  0  0  0  0  0  0  0
  2  1  1  6
  2  3  1  0
  3  4  1  0
  4  8  1  0
  4  5  2  0
  6  7  2  0
  6  2  1  0
  9  6  1  0
 10 16  1  0
 10  9  1  0
 10 11  1  6
 12 11  1  0
 12 13  1  0
 13 14  1  0
 14 15  1  0
 16 17  2  0
 18 19  1  0
 19 21  1  0
 20 19  2  0
 22 21  1  0
 23 24  1  0
 23 22  1  0
 25 24  1  1
 25 27  1  0
 26 25  1  0
 26 16  1  0
 27 29  2  0
 27 28  1  0
M  END
$$$$
