DKR.pdb
     RDKit          3D

 29 28  0  0  1  0  0  0  0  0999 V2000
   14.5778  -22.9384   22.7852 N   0  0  0  0  0  0  0  0  0  0  0  0
   15.2337  -22.8734   24.0876 C   0  0  1  0  0  0  0  0  0  0  0  0
   16.1270  -21.6573   24.0727 C   0  0  0  0  0  0  0  0  0  0  0  0
   17.3418  -21.9258   23.2995 C   0  0  0  0  0  0  0  0  0  0  0  0
   17.6081  -23.0657   22.8084 O   0  0  0  0  0  0  0  0  0  0  0  0
   14.2305  -22.7280   25.1675 C   0  0  0  0  0  0  0  0  0  0  0  0
   14.1531  -21.6009   25.7496 O   0  0  0  0  0  0  0  0  0  0  0  0
   18.2525  -20.9031   23.0841 O   0  0  0  0  0  0  0  0  0  0  0  0
   13.3873  -23.7946   25.5433 N   0  0  0  0  0  0  0  0  0  0  0  0
   12.3000  -23.6202   26.5308 C   0  0  1  0  0  0  0  0  0  0  0  0
   11.1823  -24.5470   26.1662 C   0  0  0  0  0  0  0  0  0  0  0  0
   10.0165  -24.6190   27.0604 C   0  0  0  0  0  0  0  0  0  0  0  0
    9.0542  -25.6412   26.4096 C   0  0  0  0  0  0  0  0  0  0  0  0
    7.9494  -25.8498   27.4241 C   0  0  0  0  0  0  0  0  0  0  0  0
    7.0042  -26.7871   26.8539 N   0  0  0  0  0  0  0  0  0  0  0  0
   12.8758  -23.7655   27.8535 C   0  0  0  0  0  0  0  0  0  0  0  0
   13.6216  -24.7354   28.1263 O   0  0  0  0  0  0  0  0  0  0  0  0
   17.6019  -20.9164   32.4083 N   0  0  0  0  0  0  0  0  0  0  0  0
   17.2526  -21.7345   33.5175 C   0  0  0  0  0  0  0  0  0  0  0  0
   18.0251  -21.7518   34.5602 N   0  0  0  0  0  0  0  0  0  0  0  0
   16.0949  -22.5407   33.5421 N   0  0  0  0  0  0  0  0  0  0  0  0
   14.8206  -22.1816   32.9689 C   0  0  0  0  0  0  0  0  0  0  0  0
   14.9975  -21.9727   31.4825 C   0  0  0  0  0  0  0  0  0  0  0  0
   13.6796  -21.7239   30.7922 C   0  0  0  0  0  0  0  0  0  0  0  0
   13.1508  -23.0262   30.2514 C   0  0  2  0  0  0  0  0  0  0  0  0
   12.6289  -22.8275   28.8880 N   0  0  0  0  0  0  0  0  0  0  0  0
   12.1160  -23.5628   31.1351 C   0  0  0  0  0  0  0  0  0  0  0  0
   12.4078  -24.2622   32.2938 O   0  0  0  0  0  0  0  0  0  0  0  0
   10.9131  -23.3801   30.8276 O   0  0  0  0  0  0  0  0  0  0  0  0
  2  1  1  6
  2  3  1  0
  3  4  1  0
  4  8  1  0
  4  5  2  0
  6  7  2  0
  6  2  1  0
  9  6  1  0
 10 16  1  0
 10  9  1  0
 10 11  1  6
 12 11  1  0
 12 13  1  0
 13 14  1  0
 14 15  1  0
 16 17  2  0
 18 19  1  0
 19 21  1  0
 20 19  2  0
 22 21  1  0
 23 24  1  0
 23 22  1  0
 25 24  1  1
 25 27  1  0
 26 25  1  0
 26 16  1  0
 27 29  2  0
 27 28  1  0
M  END
$$$$
