WPD.pdb
     RDKit          3D

 30 32  0  0  1  0  0  0  0  0999 V2000
   25.5013  -20.9855  -17.1068 N   0  0  0  0  0  0  0  0  0  0  0  0
   26.1261  -20.1654  -16.1192 C   0  0  1  0  0  0  0  0  0  0  0  0
   25.6176  -18.7482  -16.0769 C   0  0  0  0  0  0  0  0  0  0  0  0
   25.6029  -18.1933  -17.4543 C   0  0  0  0  0  0  0  0  0  0  0  0
   24.4690  -17.9391  -18.2035 C   0  0  0  0  0  0  0  0  0  0  0  0
   24.8093  -17.4375  -19.3852 N   0  0  0  0  0  0  0  0  0  0  0  0
   26.1435  -17.3612  -19.4200 C   0  0  0  0  0  0  0  0  0  0  0  0
   27.0000  -16.9274  -20.3965 C   0  0  0  0  0  0  0  0  0  0  0  0
   28.3472  -16.9473  -20.2115 C   0  0  0  0  0  0  0  0  0  0  0  0
   28.8595  -17.4058  -19.0336 C   0  0  0  0  0  0  0  0  0  0  0  0
   28.0303  -17.8596  -18.0044 C   0  0  0  0  0  0  0  0  0  0  0  0
   26.6729  -17.8257  -18.2276 C   0  0  0  0  0  0  0  0  0  0  0  0
   26.1363  -20.7141  -14.7486 C   0  0  0  0  0  0  0  0  0  0  0  0
   25.1587  -21.5380  -14.5147 O   0  0  0  0  0  0  0  0  0  0  0  0
   27.0621  -20.4335  -13.7333 N   0  0  0  0  0  0  0  0  0  0  0  0
   28.1725  -19.5149  -13.8435 C   0  0  0  0  0  0  0  0  0  0  0  0
   29.2863  -20.3612  -13.2379 C   0  0  0  0  0  0  0  0  0  0  0  0
   28.6105  -21.3094  -12.3093 C   0  0  0  0  0  0  0  0  0  0  0  0
   27.1282  -20.9677  -12.4165 C   0  0  1  0  0  0  0  0  0  0  0  0
   26.7168  -20.0227  -11.3342 C   0  0  0  0  0  0  0  0  0  0  0  0
   27.0816  -18.8298  -11.4262 O   0  0  0  0  0  0  0  0  0  0  0  0
   25.9419  -20.4154  -10.2292 N   0  0  0  0  0  0  0  0  0  0  0  0
   24.5335  -20.4069  -10.0372 C   0  0  1  0  0  0  0  0  0  0  0  0
   23.7567  -20.8746  -11.2368 C   0  0  0  0  0  0  0  0  0  0  0  0
   22.3006  -20.8347  -10.9607 C   0  0  0  0  0  0  0  0  0  0  0  0
   21.8789  -19.8563  -10.2506 O   0  0  0  0  0  0  0  0  0  0  0  0
   24.0657  -21.0516   -8.7750 C   0  0  0  0  0  0  0  0  0  0  0  0
   24.9210  -21.8696   -8.0642 O   0  0  0  0  0  0  0  0  0  0  0  0
   21.3656  -21.7381  -11.3853 O   0  0  0  0  0  0  0  0  0  0  0  0
   22.9264  -20.8942   -8.3143 O   0  0  0  0  0  0  0  0  0  0  0  0
  2  1  1  6
  2  3  1  0
  3  4  1  0
  4  5  2  0
  4 12  1  0
  5  6  1  0
  6  7  1  0
  7  8  2  0
  8  9  1  0
 10  9  2  0
 11 10  1  0
 12 11  2  0
 12  7  1  0
 13  2  1  0
 14 13  2  0
 15 19  1  0
 15 13  1  0
 16 17  1  0
 16 15  1  0
 17 18  1  0
 18 19  1  0
 20 22  1  0
 19 20  1  1
 21 20  2  0
 23 22  1  0
 23 24  1  6
 24 25  1  0
 25 29  1  0
 26 25  2  0
 27 23  1  0
 28 27  1  0
 30 27  2  0
M  END
$$$$
