WPD.pdb
     RDKit          3D

 30 32  0  0  1  0  0  0  0  0999 V2000
   27.6566  -19.5133  -10.1072 N   0  0  0  0  0  0  0  0  0  0  0  0
   26.6830  -20.5556  -10.0411 C   0  0  1  0  0  0  0  0  0  0  0  0
   26.1352  -20.8066   -8.6607 C   0  0  0  0  0  0  0  0  0  0  0  0
   26.9110  -20.0112   -7.6752 C   0  0  0  0  0  0  0  0  0  0  0  0
   27.1349  -18.6486   -7.7440 C   0  0  0  0  0  0  0  0  0  0  0  0
   27.8565  -18.2544   -6.7011 N   0  0  0  0  0  0  0  0  0  0  0  0
   28.1075  -19.3349   -5.9550 C   0  0  0  0  0  0  0  0  0  0  0  0
   28.8080  -19.4861   -4.7880 C   0  0  0  0  0  0  0  0  0  0  0  0
   28.9418  -20.7049   -4.1995 C   0  0  0  0  0  0  0  0  0  0  0  0
   28.3692  -21.7994   -4.7776 C   0  0  0  0  0  0  0  0  0  0  0  0
   27.6437  -21.7008   -5.9679 C   0  0  0  0  0  0  0  0  0  0  0  0
   27.5303  -20.4522   -6.5350 C   0  0  0  0  0  0  0  0  0  0  0  0
   25.5590  -20.4389  -10.9910 C   0  0  0  0  0  0  0  0  0  0  0  0
   24.9272  -19.3062  -10.9073 O   0  0  0  0  0  0  0  0  0  0  0  0
   25.1386  -21.3979  -11.9240 N   0  0  0  0  0  0  0  0  0  0  0  0
   25.5331  -22.7883  -11.9308 C   0  0  0  0  0  0  0  0  0  0  0  0
   25.8685  -22.9682  -13.4069 C   0  0  0  0  0  0  0  0  0  0  0  0
   25.0488  -21.9574  -14.1311 C   0  0  0  0  0  0  0  0  0  0  0  0
   24.2691  -21.2345  -13.0380 C   0  0  1  0  0  0  0  0  0  0  0  0
   22.9096  -21.8310  -12.8661 C   0  0  0  0  0  0  0  0  0  0  0  0
   22.8147  -22.9018  -12.2266 O   0  0  0  0  0  0  0  0  0  0  0  0
   21.7442  -21.2421  -13.3864 N   0  0  0  0  0  0  0  0  0  0  0  0
   20.3797  -21.6180  -13.2545 C   0  0  1  0  0  0  0  0  0  0  0  0
   19.4225  -20.4617  -13.3431 C   0  0  0  0  0  0  0  0  0  0  0  0
   19.7312  -19.4509  -12.3034 C   0  0  0  0  0  0  0  0  0  0  0  0
   19.7647  -19.8662  -11.0928 O   0  0  0  0  0  0  0  0  0  0  0  0
   19.9575  -22.7673  -14.1080 C   0  0  0  0  0  0  0  0  0  0  0  0
   18.9240  -23.5848  -13.6963 O   0  0  0  0  0  0  0  0  0  0  0  0
   19.9802  -18.1217  -12.5078 O   0  0  0  0  0  0  0  0  0  0  0  0
   20.4922  -23.0402  -15.1918 O   0  0  0  0  0  0  0  0  0  0  0  0
  2  1  1  1
  2  3  1  0
  3  4  1  0
  4  5  2  0
  4 12  1  0
  5  6  1  0
  6  7  1  0
  7  8  2  0
  8  9  1  0
 10  9  2  0
 11 10  1  0
 12 11  2  0
 12  7  1  0
 13  2  1  0
 14 13  2  0
 15 19  1  0
 15 13  1  0
 16 17  1  0
 16 15  1  0
 17 18  1  0
 18 19  1  0
 20 22  1  0
 19 20  1  1
 21 20  2  0
 23 22  1  0
 23 24  1  6
 24 25  1  0
 25 29  1  0
 26 25  2  0
 27 23  1  0
 28 27  1  0
 30 27  2  0
M  END
$$$$
