WPD.pdb
     RDKit          3D

 30 32  0  0  1  0  0  0  0  0999 V2000
   21.5744  -18.3988  -19.9807 N   0  0  0  0  0  0  0  0  0  0  0  0
   21.5149  -17.9255  -18.6350 C   0  0  1  0  0  0  0  0  0  0  0  0
   20.6449  -16.7112  -18.4420 C   0  0  0  0  0  0  0  0  0  0  0  0
   19.6884  -16.6109  -19.5736 C   0  0  0  0  0  0  0  0  0  0  0  0
   19.9669  -16.0625  -20.8119 C   0  0  0  0  0  0  0  0  0  0  0  0
   18.8961  -16.1399  -21.5935 N   0  0  0  0  0  0  0  0  0  0  0  0
   17.9251  -16.7276  -20.8872 C   0  0  0  0  0  0  0  0  0  0  0  0
   16.6318  -17.0398  -21.2120 C   0  0  0  0  0  0  0  0  0  0  0  0
   15.8057  -17.6415  -20.3147 C   0  0  0  0  0  0  0  0  0  0  0  0
   16.2691  -17.9423  -19.0677 C   0  0  0  0  0  0  0  0  0  0  0  0
   17.5799  -17.6457  -18.6848 C   0  0  0  0  0  0  0  0  0  0  0  0
   18.3864  -17.0361  -19.6184 C   0  0  0  0  0  0  0  0  0  0  0  0
   21.1620  -18.9367  -17.6187 C   0  0  0  0  0  0  0  0  0  0  0  0
   20.5804  -19.9874  -18.1156 O   0  0  0  0  0  0  0  0  0  0  0  0
   21.3885  -18.8601  -16.2368 N   0  0  0  0  0  0  0  0  0  0  0  0
   21.9680  -17.7312  -15.5449 C   0  0  0  0  0  0  0  0  0  0  0  0
   22.9733  -18.4476  -14.6506 C   0  0  0  0  0  0  0  0  0  0  0  0
   22.4257  -19.8177  -14.4480 C   0  0  0  0  0  0  0  0  0  0  0  0
   21.1199  -19.8342  -15.2356 C   0  0  1  0  0  0  0  0  0  0  0  0
   19.9568  -19.5210  -14.3509 C   0  0  0  0  0  0  0  0  0  0  0  0
   19.7571  -18.3247  -14.0449 O   0  0  0  0  0  0  0  0  0  0  0  0
   19.0851  -20.5061  -13.8554 N   0  0  0  0  0  0  0  0  0  0  0  0
   17.6671  -20.5219  -13.7577 C   0  0  1  0  0  0  0  0  0  0  0  0
   17.0273  -19.1880  -14.0269 C   0  0  0  0  0  0  0  0  0  0  0  0
   15.5501  -19.3131  -14.0378 C   0  0  0  0  0  0  0  0  0  0  0  0
   14.9822  -19.4935  -12.9046 O   0  0  0  0  0  0  0  0  0  0  0  0
   16.9967  -21.6297  -14.5001 C   0  0  0  0  0  0  0  0  0  0  0  0
   17.7506  -22.5013  -15.2604 O   0  0  0  0  0  0  0  0  0  0  0  0
   14.7358  -19.2580  -15.1352 O   0  0  0  0  0  0  0  0  0  0  0  0
   15.7727  -21.8197  -14.4757 O   0  0  0  0  0  0  0  0  0  0  0  0
  2  1  1  6
  2  3  1  0
  3  4  1  0
  4  5  2  0
  4 12  1  0
  5  6  1  0
  6  7  1  0
  7  8  2  0
  8  9  1  0
 10  9  2  0
 11 10  1  0
 12 11  2  0
 12  7  1  0
 13  2  1  0
 14 13  2  0
 15 19  1  0
 15 13  1  0
 16 17  1  0
 16 15  1  0
 17 18  1  0
 18 19  1  0
 20 22  1  0
 19 20  1  1
 21 20  2  0
 23 22  1  0
 23 24  1  6
 24 25  1  0
 25 29  1  0
 26 25  2  0
 27 23  1  0
 28 27  1  0
 30 27  2  0
M  END
$$$$
