WPD.pdb
     RDKit          3D

 30 32  0  0  1  0  0  0  0  0999 V2000
   24.2783  -19.7553  -10.2802 N   0  0  0  0  0  0  0  0  0  0  0  0
   25.6301  -19.9368  -10.7023 C   0  0  1  0  0  0  0  0  0  0  0  0
   26.3712  -21.0196   -9.9628 C   0  0  0  0  0  0  0  0  0  0  0  0
   26.2640  -20.7746   -8.5019 C   0  0  0  0  0  0  0  0  0  0  0  0
   25.0891  -20.7779   -7.7732 C   0  0  0  0  0  0  0  0  0  0  0  0
   25.3483  -20.5338   -6.4938 N   0  0  0  0  0  0  0  0  0  0  0  0
   26.6699  -20.3706   -6.3758 C   0  0  0  0  0  0  0  0  0  0  0  0
   27.4541  -20.0947   -5.2876 C   0  0  0  0  0  0  0  0  0  0  0  0
   28.8025  -19.9625   -5.4063 C   0  0  0  0  0  0  0  0  0  0  0  0
   29.3892  -20.1071   -6.6290 C   0  0  0  0  0  0  0  0  0  0  0  0
   28.6356  -20.3891   -7.7716 C   0  0  0  0  0  0  0  0  0  0  0  0
   27.2745  -20.5150   -7.6134 C   0  0  0  0  0  0  0  0  0  0  0  0
   25.8246  -20.1255  -12.1536 C   0  0  0  0  0  0  0  0  0  0  0  0
   24.7109  -20.2420  -12.8134 O   0  0  0  0  0  0  0  0  0  0  0  0
   27.0455  -20.1877  -12.8410 N   0  0  0  0  0  0  0  0  0  0  0  0
   28.3325  -20.4521  -12.2390 C   0  0  0  0  0  0  0  0  0  0  0  0
   29.1701  -19.3631  -12.8994 C   0  0  0  0  0  0  0  0  0  0  0  0
   28.4973  -19.0691  -14.1951 C   0  0  0  0  0  0  0  0  0  0  0  0
   27.2951  -20.0068  -14.2297 C   0  0  1  0  0  0  0  0  0  0  0  0
   27.6148  -21.2599  -14.9787 C   0  0  0  0  0  0  0  0  0  0  0  0
   28.6871  -21.8461  -14.7122 O   0  0  0  0  0  0  0  0  0  0  0  0
   26.7665  -21.8029  -15.9592 N   0  0  0  0  0  0  0  0  0  0  0  0
   26.1480  -23.0800  -16.0429 C   0  0  1  0  0  0  0  0  0  0  0  0
   25.7333  -23.6397  -14.7102 C   0  0  0  0  0  0  0  0  0  0  0  0
   25.1507  -24.9931  -14.8738 C   0  0  0  0  0  0  0  0  0  0  0  0
   23.8730  -25.0731  -14.8528 O   0  0  0  0  0  0  0  0  0  0  0  0
   25.0643  -23.1896  -17.0633 C   0  0  0  0  0  0  0  0  0  0  0  0
   24.3921  -22.0562  -17.4751 O   0  0  0  0  0  0  0  0  0  0  0  0
   25.8403  -26.1623  -15.0415 O   0  0  0  0  0  0  0  0  0  0  0  0
   24.7214  -24.2639  -17.5764 O   0  0  0  0  0  0  0  0  0  0  0  0
  2  1  1  6
  2  3  1  0
  3  4  1  0
  4  5  2  0
  4 12  1  0
  5  6  1  0
  6  7  1  0
  7  8  2  0
  8  9  1  0
 10  9  2  0
 11 10  1  0
 12 11  2  0
 12  7  1  0
 13  2  1  0
 14 13  2  0
 15 19  1  0
 15 13  1  0
 16 17  1  0
 16 15  1  0
 17 18  1  0
 18 19  1  0
 20 22  1  0
 19 20  1  1
 21 20  2  0
 23 22  1  0
 23 24  1  1
 24 25  1  0
 25 29  1  0
 26 25  2  0
 27 23  1  0
 28 27  1  0
 30 27  2  0
M  END
$$$$
