WPD.pdb
     RDKit          3D

 30 32  0  0  1  0  0  0  0  0999 V2000
   28.9774  -20.2877  -11.9498 N   0  0  0  0  0  0  0  0  0  0  0  0
   27.8928  -21.0314  -12.5058 C   0  0  1  0  0  0  0  0  0  0  0  0
   27.2819  -22.0360  -11.5645 C   0  0  0  0  0  0  0  0  0  0  0  0
   26.8202  -21.3379  -10.3376 C   0  0  0  0  0  0  0  0  0  0  0  0
   25.5440  -20.8501  -10.1257 C   0  0  0  0  0  0  0  0  0  0  0  0
   25.4658  -20.2919   -8.9232 N   0  0  0  0  0  0  0  0  0  0  0  0
   26.6674  -20.4062   -8.3485 C   0  0  0  0  0  0  0  0  0  0  0  0
   27.1283  -19.9970   -7.1255 C   0  0  0  0  0  0  0  0  0  0  0  0
   28.4159  -20.2185   -6.7478 C   0  0  0  0  0  0  0  0  0  0  0  0
   29.2673  -20.8602   -7.5984 C   0  0  0  0  0  0  0  0  0  0  0  0
   28.8484  -21.2988   -8.8573 C   0  0  0  0  0  0  0  0  0  0  0  0
   27.5394  -21.0563   -9.2056 C   0  0  0  0  0  0  0  0  0  0  0  0
   26.8158  -20.2274  -13.1167 C   0  0  0  0  0  0  0  0  0  0  0  0
   26.6660  -19.0601  -12.5652 O   0  0  0  0  0  0  0  0  0  0  0  0
   25.9851  -20.5998  -14.1836 N   0  0  0  0  0  0  0  0  0  0  0  0
   25.7617  -21.9538  -14.6373 C   0  0  0  0  0  0  0  0  0  0  0  0
   25.9138  -21.7646  -16.1421 C   0  0  0  0  0  0  0  0  0  0  0  0
   25.5548  -20.3436  -16.4066 C   0  0  0  0  0  0  0  0  0  0  0  0
   25.2067  -19.7699  -15.0372 C   0  0  1  0  0  0  0  0  0  0  0  0
   23.7333  -19.8242  -14.7926 C   0  0  0  0  0  0  0  0  0  0  0  0
   23.0116  -18.9765  -15.3630 O   0  0  0  0  0  0  0  0  0  0  0  0
   23.1309  -20.7813  -13.9579 N   0  0  0  0  0  0  0  0  0  0  0  0
   21.7595  -21.0776  -13.7298 C   0  0  1  0  0  0  0  0  0  0  0  0
   20.8406  -19.9119  -13.9707 C   0  0  0  0  0  0  0  0  0  0  0  0
   19.8790  -19.7685  -12.8516 C   0  0  0  0  0  0  0  0  0  0  0  0
   19.9371  -20.6547  -11.9293 O   0  0  0  0  0  0  0  0  0  0  0  0
   21.2683  -22.3277  -14.3806 C   0  0  0  0  0  0  0  0  0  0  0  0
   21.2128  -22.4085  -15.7577 O   0  0  0  0  0  0  0  0  0  0  0  0
   18.9363  -18.7880  -12.7079 O   0  0  0  0  0  0  0  0  0  0  0  0
   20.8968  -23.3235  -13.7438 O   0  0  0  0  0  0  0  0  0  0  0  0
  2  1  1  1
  2  3  1  0
  3  4  1  0
  4  5  2  0
  4 12  1  0
  5  6  1  0
  6  7  1  0
  7  8  2  0
  8  9  1  0
 10  9  2  0
 11 10  1  0
 12 11  2  0
 12  7  1  0
 13  2  1  0
 14 13  2  0
 15 19  1  0
 15 13  1  0
 16 17  1  0
 16 15  1  0
 17 18  1  0
 18 19  1  0
 20 22  1  0
 19 20  1  1
 21 20  2  0
 23 22  1  0
 23 24  1  6
 24 25  1  0
 25 29  1  0
 26 25  2  0
 27 23  1  0
 28 27  1  0
 30 27  2  0
M  END
$$$$
