GEA.pdb
     RDKit          3D

 19 18  0  0  1  0  0  0  0  0999 V2000
    7.4878  -12.9900   18.4888 N   0  0  0  0  0  0  0  0  0  0  0  0
    8.4743  -13.0924   19.5470 C   0  0  0  0  0  0  0  0  0  0  0  0
    7.9190  -13.7992   20.7386 C   0  0  0  0  0  0  0  0  0  0  0  0
    6.6997  -13.9292   20.9040 O   0  0  0  0  0  0  0  0  0  0  0  0
    8.7996  -14.3327   21.7008 N   0  0  0  0  0  0  0  0  0  0  0  0
    8.3864  -14.9953   22.9067 C   0  0  1  0  0  0  0  0  0  0  0  0
    8.9665  -16.3964   22.8886 C   0  0  0  0  0  0  0  0  0  0  0  0
    8.5595  -17.1226   21.6169 C   0  0  0  0  0  0  0  0  0  0  0  0
    9.0905  -18.4888   21.5632 C   0  0  0  0  0  0  0  0  0  0  0  0
    8.3729  -19.4143   22.0218 O   0  0  0  0  0  0  0  0  0  0  0  0
    8.7139  -14.2599   24.1244 C   0  0  0  0  0  0  0  0  0  0  0  0
    9.9057  -13.9855   24.4138 O   0  0  0  0  0  0  0  0  0  0  0  0
   10.3416  -18.7273   21.0214 O   0  0  0  0  0  0  0  0  0  0  0  0
    6.6384  -12.4146   26.7119 C   0  0  0  0  0  0  0  0  0  0  0  0
    7.9125  -13.0793   26.2070 C   0  0  2  0  0  0  0  0  0  0  0  0
    7.6920  -13.8357   25.0133 N   0  0  0  0  0  0  0  0  0  0  0  0
    8.3506  -14.0042   27.3016 C   0  0  0  0  0  0  0  0  0  0  0  0
    8.8452  -13.5069   28.4766 O   0  0  0  0  0  0  0  0  0  0  0  0
    8.2533  -15.2447   27.1157 O   0  0  0  0  0  0  0  0  0  0  0  0
  1  2  1  0
  3  4  2  0
  3  2  1  0
  5  3  1  0
  6  5  1  0
  6 11  1  0
  6  7  1  1
  8  7  1  0
  9  8  1  0
 10  9  2  0
 11 12  2  0
 13  9  1  0
 15 14  1  1
 16 11  1  0
 16 15  1  0
 17 18  1  0
 17 15  1  0
 19 17  2  0
M  END
$$$$
