GEA.pdb
     RDKit          3D

 19 18  0  0  1  0  0  0  0  0999 V2000
   14.7717  -16.7291   15.8336 N   0  0  0  0  0  0  0  0  0  0  0  0
   15.2932  -17.1535   17.1187 C   0  0  0  0  0  0  0  0  0  0  0  0
   14.1902  -17.4693   18.0733 C   0  0  0  0  0  0  0  0  0  0  0  0
   13.0564  -16.9943   17.9323 O   0  0  0  0  0  0  0  0  0  0  0  0
   14.4405  -18.3280   19.1623 N   0  0  0  0  0  0  0  0  0  0  0  0
   13.4713  -18.6822   20.1618 C   0  0  1  0  0  0  0  0  0  0  0  0
   13.7180  -20.1255   20.5569 C   0  0  0  0  0  0  0  0  0  0  0  0
   12.6042  -20.6255   21.4621 C   0  0  0  0  0  0  0  0  0  0  0  0
   12.7851  -22.0309   21.8410 C   0  0  0  0  0  0  0  0  0  0  0  0
   12.6798  -22.3271   23.0588 O   0  0  0  0  0  0  0  0  0  0  0  0
   13.4469  -17.7756   21.3057 C   0  0  0  0  0  0  0  0  0  0  0  0
   14.5133  -17.3743   21.8360 O   0  0  0  0  0  0  0  0  0  0  0  0
   13.0616  -22.9814   20.8737 O   0  0  0  0  0  0  0  0  0  0  0  0
   10.6578  -15.9560   23.1582 C   0  0  0  0  0  0  0  0  0  0  0  0
   12.0929  -16.4227   22.9517 C   0  0  2  0  0  0  0  0  0  0  0  0
   12.2155  -17.3242   21.8482 N   0  0  0  0  0  0  0  0  0  0  0  0
   12.4751  -17.1349   24.2136 C   0  0  0  0  0  0  0  0  0  0  0  0
   12.8111  -16.4290   25.3367 O   0  0  0  0  0  0  0  0  0  0  0  0
   12.4798  -18.3930   24.2163 O   0  0  0  0  0  0  0  0  0  0  0  0
  1  2  1  0
  3  4  2  0
  3  2  1  0
  5  3  1  0
  6  5  1  0
  6 11  1  0
  6  7  1  1
  8  7  1  0
  9  8  1  0
 10  9  2  0
 11 12  2  0
 13  9  1  0
 15 14  1  1
 16 11  1  0
 16 15  1  0
 17 18  1  0
 17 15  1  0
 19 17  2  0
M  END
$$$$
