GEA.pdb
     RDKit          3D

 19 18  0  0  1  0  0  0  0  0999 V2000
    6.5616  -12.9281   19.0126 N   0  0  0  0  0  0  0  0  0  0  0  0
    7.9983  -13.1179   18.9547 C   0  0  0  0  0  0  0  0  0  0  0  0
    8.3983  -14.4172   19.5706 C   0  0  0  0  0  0  0  0  0  0  0  0
    7.5685  -15.1616   20.1075 O   0  0  0  0  0  0  0  0  0  0  0  0
    9.7513  -14.8103   19.5426 N   0  0  0  0  0  0  0  0  0  0  0  0
   10.2553  -16.0401   20.0880 C   0  0  1  0  0  0  0  0  0  0  0  0
   11.2035  -16.6449   19.0707 C   0  0  0  0  0  0  0  0  0  0  0  0
   11.6470  -18.0288   19.5160 C   0  0  0  0  0  0  0  0  0  0  0  0
   12.5114  -18.6804   18.5263 C   0  0  0  0  0  0  0  0  0  0  0  0
   11.9574  -19.2808   17.5700 O   0  0  0  0  0  0  0  0  0  0  0  0
   10.8567  -15.8951   21.4102 C   0  0  0  0  0  0  0  0  0  0  0  0
   11.8995  -15.2135   21.5755 O   0  0  0  0  0  0  0  0  0  0  0  0
   13.8878  -18.6232   18.6608 O   0  0  0  0  0  0  0  0  0  0  0  0
    9.7692  -16.8593   24.9196 C   0  0  0  0  0  0  0  0  0  0  0  0
   10.7946  -16.4383   23.8748 C   0  0  2  0  0  0  0  0  0  0  0  0
   10.2771  -16.5218   22.5441 N   0  0  0  0  0  0  0  0  0  0  0  0
   11.9389  -17.3952   24.0186 C   0  0  0  0  0  0  0  0  0  0  0  0
   12.7171  -17.3854   25.1442 O   0  0  0  0  0  0  0  0  0  0  0  0
   12.1666  -18.2052   23.0833 O   0  0  0  0  0  0  0  0  0  0  0  0
  1  2  1  0
  3  4  2  0
  3  2  1  0
  5  3  1  0
  6  5  1  0
  6 11  1  0
  6  7  1  6
  8  7  1  0
  9  8  1  0
 10  9  2  0
 11 12  2  0
 13  9  1  0
 15 14  1  1
 16 11  1  0
 16 15  1  0
 17 18  1  0
 17 15  1  0
 19 17  2  0
M  END
$$$$
