GEA.pdb
     RDKit          3D

 19 18  0  0  1  0  0  0  0  0999 V2000
    8.1011  -13.5299   16.8879 N   0  0  0  0  0  0  0  0  0  0  0  0
    9.3702  -13.1016   17.4443 C   0  0  0  0  0  0  0  0  0  0  0  0
   10.0204  -14.1996   18.2184 C   0  0  0  0  0  0  0  0  0  0  0  0
    9.3704  -15.1597   18.6504 O   0  0  0  0  0  0  0  0  0  0  0  0
   11.4067  -14.1464   18.4659 N   0  0  0  0  0  0  0  0  0  0  0  0
   12.1420  -15.1341   19.2061 C   0  0  1  0  0  0  0  0  0  0  0  0
   13.5677  -15.1355   18.6889 C   0  0  0  0  0  0  0  0  0  0  0  0
   13.6082  -15.6132   17.2466 C   0  0  0  0  0  0  0  0  0  0  0  0
   14.9656  -15.5891   16.6914 C   0  0  0  0  0  0  0  0  0  0  0  0
   15.1328  -15.0286   15.5780 O   0  0  0  0  0  0  0  0  0  0  0  0
   12.0623  -14.9648   20.6538 C   0  0  0  0  0  0  0  0  0  0  0  0
   12.5774  -13.9669   21.2179 O   0  0  0  0  0  0  0  0  0  0  0  0
   16.0115  -16.1701   17.3873 O   0  0  0  0  0  0  0  0  0  0  0  0
    9.8301  -16.0755   23.3401 C   0  0  0  0  0  0  0  0  0  0  0  0
   11.2639  -15.8405   22.8829 C   0  0  2  0  0  0  0  0  0  0  0  0
   11.3997  -15.9254   21.4617 N   0  0  0  0  0  0  0  0  0  0  0  0
   12.0776  -16.9253   23.5205 C   0  0  0  0  0  0  0  0  0  0  0  0
   12.2398  -16.9667   24.8787 O   0  0  0  0  0  0  0  0  0  0  0  0
   12.6066  -17.7943   22.7803 O   0  0  0  0  0  0  0  0  0  0  0  0
  1  2  1  0
  3  4  2  0
  3  2  1  0
  5  3  1  0
  6  5  1  0
  6 11  1  0
  6  7  1  6
  8  7  1  0
  9  8  1  0
 10  9  2  0
 11 12  2  0
 13  9  1  0
 15 14  1  6
 16 11  1  0
 16 15  1  0
 17 18  1  0
 17 15  1  0
 19 17  2  0
M  END
$$$$
