GEA.pdb
     RDKit          3D

 19 18  0  0  1  0  0  0  0  0999 V2000
    9.9816  -19.3305   18.0982 N   0  0  0  0  0  0  0  0  0  0  0  0
   11.0188  -18.5174   18.7037 C   0  0  0  0  0  0  0  0  0  0  0  0
   11.7604  -19.2779   19.7522 C   0  0  0  0  0  0  0  0  0  0  0  0
   11.2852  -20.2955   20.2714 O   0  0  0  0  0  0  0  0  0  0  0  0
   13.0317  -18.8308   20.1642 N   0  0  0  0  0  0  0  0  0  0  0  0
   13.8266  -19.4581   21.1833 C   0  0  1  0  0  0  0  0  0  0  0  0
   15.2704  -19.0491   20.9631 C   0  0  0  0  0  0  0  0  0  0  0  0
   16.1865  -19.8062   21.9106 C   0  0  0  0  0  0  0  0  0  0  0  0
   17.5942  -19.4311   21.7403 C   0  0  0  0  0  0  0  0  0  0  0  0
   18.0414  -18.4965   22.4533 O   0  0  0  0  0  0  0  0  0  0  0  0
   13.3607  -19.1916   22.5408 C   0  0  0  0  0  0  0  0  0  0  0  0
   13.3513  -18.0234   23.0040 O   0  0  0  0  0  0  0  0  0  0  0  0
   18.3845  -20.0974   20.8199 O   0  0  0  0  0  0  0  0  0  0  0  0
   11.2036  -21.0318   24.9545 C   0  0  0  0  0  0  0  0  0  0  0  0
   12.3572  -20.0752   24.6821 C   0  0  2  0  0  0  0  0  0  0  0  0
   12.9060  -20.2478   23.3727 N   0  0  0  0  0  0  0  0  0  0  0  0
   13.4058  -20.4010   25.7018 C   0  0  0  0  0  0  0  0  0  0  0  0
   13.1743  -20.1818   27.0326 O   0  0  0  0  0  0  0  0  0  0  0  0
   14.5005  -20.8792   25.3071 O   0  0  0  0  0  0  0  0  0  0  0  0
  1  2  1  0
  3  4  2  0
  3  2  1  0
  5  3  1  0
  6  5  1  0
  6 11  1  0
  6  7  1  1
  8  7  1  0
  9  8  1  0
 10  9  2  0
 11 12  2  0
 13  9  1  0
 15 14  1  1
 16 11  1  0
 16 15  1  0
 17 18  1  0
 17 15  1  0
 19 17  2  0
M  END
$$$$
