GEA.pdb
     RDKit          3D

 19 18  0  0  1  0  0  0  0  0999 V2000
   19.1921  -11.9112   30.4070 N   0  0  0  0  0  0  0  0  0  0  0  0
   19.9706  -12.1023   31.6158 C   0  0  0  0  0  0  0  0  0  0  0  0
   19.2627  -11.5513   32.8087 C   0  0  0  0  0  0  0  0  0  0  0  0
   18.1719  -10.9764   32.7056 O   0  0  0  0  0  0  0  0  0  0  0  0
   19.8458  -11.6863   34.0845 N   0  0  0  0  0  0  0  0  0  0  0  0
   19.2451  -11.2333   35.3084 C   0  0  1  0  0  0  0  0  0  0  0  0
   19.3008  -12.3764   36.3036 C   0  0  0  0  0  0  0  0  0  0  0  0
   18.1523  -13.3430   36.0659 C   0  0  0  0  0  0  0  0  0  0  0  0
   18.1025  -14.4055   37.0758 C   0  0  0  0  0  0  0  0  0  0  0  0
   17.4156  -14.1994   38.1091 O   0  0  0  0  0  0  0  0  0  0  0  0
   19.8254   -9.9985   35.8274 C   0  0  0  0  0  0  0  0  0  0  0  0
   21.0563   -9.7679   35.7222 O   0  0  0  0  0  0  0  0  0  0  0  0
   18.7961  -15.5866   36.8768 O   0  0  0  0  0  0  0  0  0  0  0  0
   18.3476   -6.7439   37.0698 C   0  0  0  0  0  0  0  0  0  0  0  0
   19.4760   -7.7585   36.9380 C   0  0  2  0  0  0  0  0  0  0  0  0
   19.0118   -9.0259   36.4649 N   0  0  0  0  0  0  0  0  0  0  0  0
   20.0381   -7.9240   38.3172 C   0  0  0  0  0  0  0  0  0  0  0  0
   20.6567   -6.8782   38.9467 O   0  0  0  0  0  0  0  0  0  0  0  0
   19.9283   -9.0433   38.8810 O   0  0  0  0  0  0  0  0  0  0  0  0
  1  2  1  0
  3  4  2  0
  3  2  1  0
  5  3  1  0
  6  5  1  0
  6 11  1  0
  6  7  1  1
  8  7  1  0
  9  8  1  0
 10  9  2  0
 11 12  2  0
 13  9  1  0
 15 14  1  1
 16 11  1  0
 16 15  1  0
 17 18  1  0
 17 15  1  0
 19 17  2  0
M  END
$$$$
