GEA.pdb
     RDKit          3D

 19 18  0  0  1  0  0  0  0  0999 V2000
    6.1561  -19.4794   24.2647 N   0  0  0  0  0  0  0  0  0  0  0  0
    5.7103  -18.1103   24.0901 C   0  0  0  0  0  0  0  0  0  0  0  0
    6.8394  -17.2198   23.6903 C   0  0  0  0  0  0  0  0  0  0  0  0
    8.0092  -17.6228   23.6803 O   0  0  0  0  0  0  0  0  0  0  0  0
    6.5725  -15.8880   23.3147 N   0  0  0  0  0  0  0  0  0  0  0  0
    7.5598  -14.9627   22.8321 C   0  0  1  0  0  0  0  0  0  0  0  0
    6.8521  -13.9391   21.9652 C   0  0  0  0  0  0  0  0  0  0  0  0
    7.8638  -13.1022   21.1996 C   0  0  0  0  0  0  0  0  0  0  0  0
    8.2150  -13.7001   19.9072 C   0  0  0  0  0  0  0  0  0  0  0  0
    8.8441  -14.7891   19.9175 O   0  0  0  0  0  0  0  0  0  0  0  0
    8.3635  -14.3552   23.8884 C   0  0  0  0  0  0  0  0  0  0  0  0
    9.4472  -13.7759   23.6248 O   0  0  0  0  0  0  0  0  0  0  0  0
    7.8556  -13.0690   18.7289 O   0  0  0  0  0  0  0  0  0  0  0  0
    7.6446  -12.9536   27.1977 C   0  0  0  0  0  0  0  0  0  0  0  0
    8.6057  -13.7540   26.3283 C   0  0  2  0  0  0  0  0  0  0  0  0
    7.9398  -14.4038   25.2421 N   0  0  0  0  0  0  0  0  0  0  0  0
    9.2033  -14.7908   27.2301 C   0  0  0  0  0  0  0  0  0  0  0  0
   10.0009  -14.4240   28.2798 O   0  0  0  0  0  0  0  0  0  0  0  0
    8.9554  -16.0027   27.0003 O   0  0  0  0  0  0  0  0  0  0  0  0
  1  2  1  0
  3  4  2  0
  3  2  1  0
  5  3  1  0
  6  5  1  0
  6 11  1  0
  6  7  1  1
  8  7  1  0
  9  8  1  0
 10  9  2  0
 11 12  2  0
 13  9  1  0
 15 14  1  1
 16 11  1  0
 16 15  1  0
 17 18  1  0
 17 15  1  0
 19 17  2  0
M  END
$$$$
