GEA.pdb
     RDKit          3D

 19 18  0  0  1  0  0  0  0  0999 V2000
   11.9080  -18.4272   21.1656 N   0  0  0  0  0  0  0  0  0  0  0  0
   12.5537  -18.5963   22.4533 C   0  0  0  0  0  0  0  0  0  0  0  0
   11.6306  -18.2455   23.5723 C   0  0  0  0  0  0  0  0  0  0  0  0
   10.5809  -17.6211   23.3739 O   0  0  0  0  0  0  0  0  0  0  0  0
   11.9573  -18.6319   24.8876 N   0  0  0  0  0  0  0  0  0  0  0  0
   11.1797  -18.3063   26.0508 C   0  0  1  0  0  0  0  0  0  0  0  0
   11.5284  -19.3056   27.1369 C   0  0  0  0  0  0  0  0  0  0  0  0
   10.3653  -19.4678   28.1018 C   0  0  0  0  0  0  0  0  0  0  0  0
   10.6621  -20.4239   29.1739 C   0  0  0  0  0  0  0  0  0  0  0  0
   11.7853  -20.9895   29.1595 O   0  0  0  0  0  0  0  0  0  0  0  0
   11.3230  -16.9203   26.4858 C   0  0  0  0  0  0  0  0  0  0  0  0
   12.4487  -16.3619   26.5068 O   0  0  0  0  0  0  0  0  0  0  0  0
    9.7222  -20.6790   30.1573 O   0  0  0  0  0  0  0  0  0  0  0  0
    8.9326  -14.0633   26.9110 C   0  0  0  0  0  0  0  0  0  0  0  0
   10.2236  -14.7874   27.2703 C   0  0  2  0  0  0  0  0  0  0  0  0
   10.1921  -16.1677   26.8967 N   0  0  0  0  0  0  0  0  0  0  0  0
   10.3478  -14.6837   28.7600 C   0  0  0  0  0  0  0  0  0  0  0  0
   10.6063  -13.4786   29.3546 O   0  0  0  0  0  0  0  0  0  0  0  0
   10.2092  -15.7271   29.4492 O   0  0  0  0  0  0  0  0  0  0  0  0
  1  2  1  0
  3  4  2  0
  3  2  1  0
  5  3  1  0
  6  5  1  0
  6 11  1  0
  6  7  1  1
  8  7  1  0
  9  8  1  0
 10  9  2  0
 11 12  2  0
 13  9  1  0
 15 14  1  1
 16 11  1  0
 16 15  1  0
 17 18  1  0
 17 15  1  0
 19 17  2  0
M  END
$$$$
