DES.pdb
     RDKit          3D

 24 23  0  0  1  0  0  0  0  0999 V2000
   11.5893  -16.3890   18.7741 N   0  0  0  0  0  0  0  0  0  0  0  0
   12.1231  -15.8294   20.0006 C   0  0  1  0  0  0  0  0  0  0  0  0
   12.4259  -14.3852   19.7772 C   0  0  0  0  0  0  0  0  0  0  0  0
   13.6401  -14.2460   18.9710 C   0  0  0  0  0  0  0  0  0  0  0  0
   13.6671  -13.4405   18.0089 O   0  0  0  0  0  0  0  0  0  0  0  0
   11.1394  -15.9446   21.1292 C   0  0  0  0  0  0  0  0  0  0  0  0
   10.2021  -15.1448   21.1051 O   0  0  0  0  0  0  0  0  0  0  0  0
   14.7775  -15.0130   19.2715 O   0  0  0  0  0  0  0  0  0  0  0  0
   11.2400  -16.8711   22.1481 N   0  0  0  0  0  0  0  0  0  0  0  0
   10.3183  -17.1335   23.1649 C   0  0  1  0  0  0  0  0  0  0  0  0
   10.1769  -18.5236   23.7060 C   0  0  0  0  0  0  0  0  0  0  0  0
    9.2469  -18.5538   24.8760 C   0  0  0  0  0  0  0  0  0  0  0  0
    9.2670  -19.8982   25.5596 C   0  0  0  0  0  0  0  0  0  0  0  0
    8.5132  -20.0567   26.5477 O   0  0  0  0  0  0  0  0  0  0  0  0
   10.3097  -16.0731   24.1684 C   0  0  0  0  0  0  0  0  0  0  0  0
   11.4057  -15.6952   24.6605 O   0  0  0  0  0  0  0  0  0  0  0  0
   10.0634  -20.9318   25.1479 O   0  0  0  0  0  0  0  0  0  0  0  0
    8.0970  -12.7381   26.9108 O   0  0  0  0  0  0  0  0  0  0  0  0
    7.9588  -13.5865   25.8044 C   0  0  0  0  0  0  0  0  0  0  0  0
    9.2239  -14.4092   25.7155 C   0  0  2  0  0  0  0  0  0  0  0  0
    9.1554  -15.3992   24.6653 N   0  0  0  0  0  0  0  0  0  0  0  0
    9.4225  -15.0533   27.0351 C   0  0  0  0  0  0  0  0  0  0  0  0
    9.2051  -16.2821   27.1349 O   0  0  0  0  0  0  0  0  0  0  0  0
    9.8372  -14.3420   28.1488 O   0  0  0  0  0  0  0  0  0  0  0  0
  2  1  1  6
  3  4  1  0
  3  2  1  0
  4  8  1  0
  5  4  2  0
  6  2  1  0
  6  7  2  0
  9 10  1  0
  9  6  1  0
 10 15  1  0
 10 11  1  1
 12 11  1  0
 12 13  1  0
 13 14  2  0
 15 16  2  0
 15 21  1  0
 17 13  1  0
 18 19  1  0
 20 19  1  1
 20 22  1  0
 21 20  1  0
 22 23  2  0
 22 24  1  0
M  END
$$$$
