DES.pdb
     RDKit          3D

 24 23  0  0  1  0  0  0  0  0999 V2000
    9.2066  -18.3217   20.2441 N   0  0  0  0  0  0  0  0  0  0  0  0
    9.8750  -17.3618   21.1011 C   0  0  1  0  0  0  0  0  0  0  0  0
   10.3136  -16.2014   20.2713 C   0  0  0  0  0  0  0  0  0  0  0  0
   11.4654  -16.5788   19.4499 C   0  0  0  0  0  0  0  0  0  0  0  0
   11.4069  -16.4769   18.2004 O   0  0  0  0  0  0  0  0  0  0  0  0
    8.9600  -16.8610   22.1812 C   0  0  0  0  0  0  0  0  0  0  0  0
    7.9438  -16.2809   21.7945 O   0  0  0  0  0  0  0  0  0  0  0  0
   12.6384  -17.0557   20.0575 O   0  0  0  0  0  0  0  0  0  0  0  0
    9.2025  -17.0183   23.5314 N   0  0  0  0  0  0  0  0  0  0  0  0
    8.3657  -16.6843   24.5993 C   0  0  1  0  0  0  0  0  0  0  0  0
    8.1879  -17.6417   25.7382 C   0  0  0  0  0  0  0  0  0  0  0  0
    7.4959  -18.8888   25.2900 C   0  0  0  0  0  0  0  0  0  0  0  0
    7.2964  -19.8488   26.4362 C   0  0  0  0  0  0  0  0  0  0  0  0
    7.4408  -21.0707   26.1998 O   0  0  0  0  0  0  0  0  0  0  0  0
    8.5186  -15.2842   24.9836 C   0  0  0  0  0  0  0  0  0  0  0  0
    9.6774  -14.7942   25.0405 O   0  0  0  0  0  0  0  0  0  0  0  0
    6.9695  -19.4420   27.7009 O   0  0  0  0  0  0  0  0  0  0  0  0
    5.4309  -12.9982   26.3691 O   0  0  0  0  0  0  0  0  0  0  0  0
    6.4403  -12.2097   25.8012 C   0  0  0  0  0  0  0  0  0  0  0  0
    7.7013  -13.0433   25.7906 C   0  0  2  0  0  0  0  0  0  0  0  0
    7.4614  -14.3851   25.3115 N   0  0  0  0  0  0  0  0  0  0  0  0
    8.2255  -13.0641   27.1764 C   0  0  0  0  0  0  0  0  0  0  0  0
    8.4838  -11.9716   27.7302 O   0  0  0  0  0  0  0  0  0  0  0  0
    8.4354  -14.2453   27.8685 O   0  0  0  0  0  0  0  0  0  0  0  0
  2  1  1  6
  3  4  1  0
  3  2  1  0
  4  8  1  0
  5  4  2  0
  6  2  1  0
  6  7  2  0
  9 10  1  0
  9  6  1  0
 10 15  1  0
 10 11  1  1
 12 11  1  0
 12 13  1  0
 13 14  2  0
 15 16  2  0
 15 21  1  0
 17 13  1  0
 18 19  1  0
 20 19  1  1
 20 22  1  0
 21 20  1  0
 22 23  2  0
 22 24  1  0
M  END
$$$$
