DES.pdb
     RDKit          3D

 24 23  0  0  1  0  0  0  0  0999 V2000
   10.7629  -19.4013   16.6975 N   0  0  0  0  0  0  0  0  0  0  0  0
   10.4681  -18.1351   17.3395 C   0  0  1  0  0  0  0  0  0  0  0  0
    8.9870  -17.9818   17.4409 C   0  0  0  0  0  0  0  0  0  0  0  0
    8.4044  -17.8428   16.1049 C   0  0  0  0  0  0  0  0  0  0  0  0
    8.8767  -18.4947   15.1421 O   0  0  0  0  0  0  0  0  0  0  0  0
   11.0529  -18.0718   18.7211 C   0  0  0  0  0  0  0  0  0  0  0  0
   10.2923  -18.3862   19.6384 O   0  0  0  0  0  0  0  0  0  0  0  0
    7.3159  -16.9800   15.8970 O   0  0  0  0  0  0  0  0  0  0  0  0
   12.3525  -17.6917   18.9915 N   0  0  0  0  0  0  0  0  0  0  0  0
   13.0198  -17.7253   20.2185 C   0  0  1  0  0  0  0  0  0  0  0  0
   14.5165  -17.6649   20.2580 C   0  0  0  0  0  0  0  0  0  0  0  0
   15.0246  -17.8127   21.6562 C   0  0  0  0  0  0  0  0  0  0  0  0
   16.5282  -17.7058   21.7088 C   0  0  0  0  0  0  0  0  0  0  0  0
   17.0248  -16.5579   21.7826 O   0  0  0  0  0  0  0  0  0  0  0  0
   12.3393  -16.9123   21.2222 C   0  0  0  0  0  0  0  0  0  0  0  0
   12.2591  -15.6684   21.0422 O   0  0  0  0  0  0  0  0  0  0  0  0
   17.3543  -18.7960   21.6795 O   0  0  0  0  0  0  0  0  0  0  0  0
    9.0212  -16.0652   24.4487 O   0  0  0  0  0  0  0  0  0  0  0  0
    9.6340  -17.0212   23.6279 C   0  0  0  0  0  0  0  0  0  0  0  0
   11.0338  -16.5279   23.3409 C   0  0  2  0  0  0  0  0  0  0  0  0
   11.7370  -17.3932   22.4220 N   0  0  0  0  0  0  0  0  0  0  0  0
   11.7453  -16.4468   24.6381 C   0  0  0  0  0  0  0  0  0  0  0  0
   12.6380  -17.2906   24.8797 O   0  0  0  0  0  0  0  0  0  0  0  0
   11.4538  -15.4746   25.5805 O   0  0  0  0  0  0  0  0  0  0  0  0
  2  1  1  1
  3  4  1  0
  3  2  1  0
  4  8  1  0
  5  4  2  0
  6  2  1  0
  6  7  2  0
  9 10  1  0
  9  6  1  0
 10 15  1  0
 10 11  1  6
 12 11  1  0
 12 13  1  0
 13 14  2  0
 15 16  2  0
 15 21  1  0
 17 13  1  0
 18 19  1  0
 20 19  1  1
 20 22  1  0
 21 20  1  0
 22 23  2  0
 22 24  1  0
M  END
$$$$
