DES.pdb
     RDKit          3D

 24 23  0  0  1  0  0  0  0  0999 V2000
   15.0991  -13.3785   16.7438 N   0  0  0  0  0  0  0  0  0  0  0  0
   15.2323  -14.4209   17.7429 C   0  0  1  0  0  0  0  0  0  0  0  0
   16.1979  -13.9654   18.7858 C   0  0  0  0  0  0  0  0  0  0  0  0
   17.5350  -13.8272   18.2056 C   0  0  0  0  0  0  0  0  0  0  0  0
   18.1421  -12.7312   18.2791 O   0  0  0  0  0  0  0  0  0  0  0  0
   13.9171  -14.7183   18.4034 C   0  0  0  0  0  0  0  0  0  0  0  0
   13.2362  -13.7363   18.7049 O   0  0  0  0  0  0  0  0  0  0  0  0
   18.1419  -14.9200   17.5654 O   0  0  0  0  0  0  0  0  0  0  0  0
   13.4613  -15.9932   18.6743 N   0  0  0  0  0  0  0  0  0  0  0  0
   12.2270  -16.3684   19.2109 C   0  0  1  0  0  0  0  0  0  0  0  0
   11.4416  -17.4762   18.5775 C   0  0  0  0  0  0  0  0  0  0  0  0
   10.1344  -17.6762   19.2748 C   0  0  0  0  0  0  0  0  0  0  0  0
    9.3411  -18.7940   18.6453 C   0  0  0  0  0  0  0  0  0  0  0  0
    8.1933  -18.5227   18.2228 O   0  0  0  0  0  0  0  0  0  0  0  0
   12.2593  -16.3865   20.6704 C   0  0  0  0  0  0  0  0  0  0  0  0
   13.2728  -16.8604   21.2486 O   0  0  0  0  0  0  0  0  0  0  0  0
    9.8200  -20.0696   18.5212 O   0  0  0  0  0  0  0  0  0  0  0  0
   10.2697  -15.6409   25.0379 O   0  0  0  0  0  0  0  0  0  0  0  0
   10.0744  -15.4921   23.6585 C   0  0  0  0  0  0  0  0  0  0  0  0
   11.3253  -15.9972   22.9763 C   0  0  2  0  0  0  0  0  0  0  0  0
   11.2324  -15.9090   21.5371 N   0  0  0  0  0  0  0  0  0  0  0  0
   11.5237  -17.4011   23.4068 C   0  0  0  0  0  0  0  0  0  0  0  0
   11.0369  -18.3133   22.7010 O   0  0  0  0  0  0  0  0  0  0  0  0
   12.2249  -17.7289   24.5554 O   0  0  0  0  0  0  0  0  0  0  0  0
  2  1  1  6
  3  4  1  0
  3  2  1  0
  4  8  1  0
  5  4  2  0
  6  2  1  0
  6  7  2  0
  9 10  1  0
  9  6  1  0
 10 15  1  0
 10 11  1  6
 12 11  1  0
 12 13  1  0
 13 14  2  0
 15 16  2  0
 15 21  1  0
 17 13  1  0
 18 19  1  0
 20 19  1  1
 20 22  1  0
 21 20  1  0
 22 23  2  0
 22 24  1  0
M  END
$$$$
