DES.pdb
     RDKit          3D

 24 23  0  0  1  0  0  0  0  0999 V2000
   12.4218  -19.5895   16.2740 N   0  0  0  0  0  0  0  0  0  0  0  0
   11.6021  -18.4397   16.6033 C   0  0  1  0  0  0  0  0  0  0  0  0
   10.4445  -18.3903   15.6626 C   0  0  0  0  0  0  0  0  0  0  0  0
   10.9041  -18.0304   14.3199 C   0  0  0  0  0  0  0  0  0  0  0  0
   12.1320  -17.9254   14.0828 O   0  0  0  0  0  0  0  0  0  0  0  0
   11.0765  -18.5252   18.0072 C   0  0  0  0  0  0  0  0  0  0  0  0
   10.2181  -17.6936   18.3082 O   0  0  0  0  0  0  0  0  0  0  0  0
    9.9728  -17.8017   13.2938 O   0  0  0  0  0  0  0  0  0  0  0  0
   11.4990  -19.4583   18.9331 N   0  0  0  0  0  0  0  0  0  0  0  0
   11.0600  -19.6223   20.2494 C   0  0  1  0  0  0  0  0  0  0  0  0
   11.3726  -20.8868   20.9901 C   0  0  0  0  0  0  0  0  0  0  0  0
   10.8389  -22.0808   20.2659 C   0  0  0  0  0  0  0  0  0  0  0  0
   11.2061  -23.3618   20.9726 C   0  0  0  0  0  0  0  0  0  0  0  0
   10.6338  -23.6079   22.0596 O   0  0  0  0  0  0  0  0  0  0  0  0
   11.2153  -18.3947   21.0241 C   0  0  0  0  0  0  0  0  0  0  0  0
   12.1864  -17.6348   20.7678 O   0  0  0  0  0  0  0  0  0  0  0  0
   12.1242  -24.2482   20.4795 O   0  0  0  0  0  0  0  0  0  0  0  0
    9.6456  -14.6861   23.5134 O   0  0  0  0  0  0  0  0  0  0  0  0
    9.3006  -15.9009   22.9064 C   0  0  0  0  0  0  0  0  0  0  0  0
   10.5708  -16.7112   22.7824 C   0  0  2  0  0  0  0  0  0  0  0  0
   10.3567  -17.9516   22.0729 N   0  0  0  0  0  0  0  0  0  0  0  0
   11.0637  -16.9679   24.1560 C   0  0  0  0  0  0  0  0  0  0  0  0
   11.4222  -15.9902   24.8507 O   0  0  0  0  0  0  0  0  0  0  0  0
   11.1381  -18.2449   24.6870 O   0  0  0  0  0  0  0  0  0  0  0  0
  2  1  1  6
  3  4  1  0
  3  2  1  0
  4  8  1  0
  5  4  2  0
  6  2  1  0
  6  7  2  0
  9 10  1  0
  9  6  1  0
 10 15  1  0
 10 11  1  1
 12 11  1  0
 12 13  1  0
 13 14  2  0
 15 16  2  0
 15 21  1  0
 17 13  1  0
 18 19  1  0
 20 19  1  1
 20 22  1  0
 21 20  1  0
 22 23  2  0
 22 24  1  0
M  END
$$$$
