DES.pdb
     RDKit          3D

 24 23  0  0  1  0  0  0  0  0999 V2000
   14.1552  -14.8473   16.8633 N   0  0  0  0  0  0  0  0  0  0  0  0
   14.8475  -15.2158   18.0829 C   0  0  1  0  0  0  0  0  0  0  0  0
   15.4896  -13.9970   18.6572 C   0  0  0  0  0  0  0  0  0  0  0  0
   16.7084  -13.6740   17.9131 C   0  0  0  0  0  0  0  0  0  0  0  0
   17.2728  -14.5539   17.2185 O   0  0  0  0  0  0  0  0  0  0  0  0
   13.9008  -15.7843   19.1002 C   0  0  0  0  0  0  0  0  0  0  0  0
   12.7746  -15.2842   19.1206 O   0  0  0  0  0  0  0  0  0  0  0  0
   17.2494  -12.3794   17.9743 O   0  0  0  0  0  0  0  0  0  0  0  0
   14.2287  -16.8010   19.9751 N   0  0  0  0  0  0  0  0  0  0  0  0
   13.3716  -17.5361   20.7981 C   0  0  1  0  0  0  0  0  0  0  0  0
   13.5606  -19.0154   20.9434 C   0  0  0  0  0  0  0  0  0  0  0  0
   12.4832  -19.6153   21.7886 C   0  0  0  0  0  0  0  0  0  0  0  0
   12.6499  -21.1092   21.9131 C   0  0  0  0  0  0  0  0  0  0  0  0
   11.7888  -21.7347   22.5740 O   0  0  0  0  0  0  0  0  0  0  0  0
   13.0752  -16.8236   22.0374 C   0  0  0  0  0  0  0  0  0  0  0  0
   14.0267  -16.3136   22.6859 O   0  0  0  0  0  0  0  0  0  0  0  0
   13.6876  -21.7935   21.3415 O   0  0  0  0  0  0  0  0  0  0  0  0
    9.2830  -16.3058   23.5179 O   0  0  0  0  0  0  0  0  0  0  0  0
   10.1804  -15.2979   23.8946 C   0  0  0  0  0  0  0  0  0  0  0  0
   11.5688  -15.8924   23.8274 C   0  0  2  0  0  0  0  0  0  0  0  0
   11.7818  -16.6384   22.6086 N   0  0  0  0  0  0  0  0  0  0  0  0
   11.7309  -16.7643   25.0145 C   0  0  0  0  0  0  0  0  0  0  0  0
   11.8412  -17.9982   24.8345 O   0  0  0  0  0  0  0  0  0  0  0  0
   11.7637  -16.2581   26.3033 O   0  0  0  0  0  0  0  0  0  0  0  0
  2  1  1  6
  3  4  1  0
  3  2  1  0
  4  8  1  0
  5  4  2  0
  6  2  1  0
  6  7  2  0
  9 10  1  0
  9  6  1  0
 10 15  1  0
 10 11  1  1
 12 11  1  0
 12 13  1  0
 13 14  2  0
 15 16  2  0
 15 21  1  0
 17 13  1  0
 18 19  1  0
 20 19  1  6
 20 22  1  0
 21 20  1  0
 22 23  2  0
 22 24  1  0
M  END
$$$$
