DES.pdb
     RDKit          3D

 24 23  0  0  1  0  0  0  0  0999 V2000
    8.2941  -18.7096   16.3992 N   0  0  0  0  0  0  0  0  0  0  0  0
    8.6728  -17.4136   16.9279 C   0  0  1  0  0  0  0  0  0  0  0  0
    7.8648  -16.3616   16.2439 C   0  0  0  0  0  0  0  0  0  0  0  0
    8.2737  -16.2467   14.8428 C   0  0  0  0  0  0  0  0  0  0  0  0
    9.2175  -16.9478   14.4037 O   0  0  0  0  0  0  0  0  0  0  0  0
    8.4189  -17.3290   18.4054 C   0  0  0  0  0  0  0  0  0  0  0  0
    7.2369  -17.2303   18.7399 O   0  0  0  0  0  0  0  0  0  0  0  0
    7.6114  -15.3521   13.9864 O   0  0  0  0  0  0  0  0  0  0  0  0
    9.4147  -17.3564   19.3616 N   0  0  0  0  0  0  0  0  0  0  0  0
    9.2777  -17.5414   20.7397 C   0  0  1  0  0  0  0  0  0  0  0  0
    9.9028  -18.7322   21.4004 C   0  0  0  0  0  0  0  0  0  0  0  0
   11.3428  -18.4801   21.7130 C   0  0  0  0  0  0  0  0  0  0  0  0
   12.0080  -19.7130   22.2719 C   0  0  0  0  0  0  0  0  0  0  0  0
   13.2182  -19.6267   22.5845 O   0  0  0  0  0  0  0  0  0  0  0  0
    9.4182  -16.2832   21.4669 C   0  0  0  0  0  0  0  0  0  0  0  0
   10.3796  -15.5218   21.1808 O   0  0  0  0  0  0  0  0  0  0  0  0
   11.3506  -20.9001   22.4469 O   0  0  0  0  0  0  0  0  0  0  0  0
    6.5489  -14.6402   23.8775 O   0  0  0  0  0  0  0  0  0  0  0  0
    7.5295  -13.7677   23.3872 C   0  0  0  0  0  0  0  0  0  0  0  0
    8.7944  -14.5764   23.2100 C   0  0  2  0  0  0  0  0  0  0  0  0
    8.5545  -15.8110   22.4987 N   0  0  0  0  0  0  0  0  0  0  0  0
    9.3375  -14.8441   24.5624 C   0  0  0  0  0  0  0  0  0  0  0  0
    9.6400  -13.8676   25.2849 O   0  0  0  0  0  0  0  0  0  0  0  0
    9.5178  -16.1300   25.0442 O   0  0  0  0  0  0  0  0  0  0  0  0
  2  1  1  6
  3  4  1  0
  3  2  1  0
  4  8  1  0
  5  4  2  0
  6  2  1  0
  6  7  2  0
  9 10  1  0
  9  6  1  0
 10 15  1  0
 10 11  1  1
 12 11  1  0
 12 13  1  0
 13 14  2  0
 15 16  2  0
 15 21  1  0
 17 13  1  0
 18 19  1  0
 20 19  1  1
 20 22  1  0
 21 20  1  0
 22 23  2  0
 22 24  1  0
M  END
$$$$
