DES.pdb
     RDKit          3D

 24 23  0  0  1  0  0  0  0  0999 V2000
    9.0641  -12.7094   18.9997 N   0  0  0  0  0  0  0  0  0  0  0  0
    7.7487  -13.1534   19.4181 C   0  0  1  0  0  0  0  0  0  0  0  0
    7.1901  -14.0550   18.3680 C   0  0  0  0  0  0  0  0  0  0  0  0
    8.2052  -15.0215   17.9448 C   0  0  0  0  0  0  0  0  0  0  0  0
    9.3329  -15.0307   18.4955 O   0  0  0  0  0  0  0  0  0  0  0  0
    7.8116  -13.9079   20.7147 C   0  0  0  0  0  0  0  0  0  0  0  0
    6.7576  -14.4319   21.0800 O   0  0  0  0  0  0  0  0  0  0  0  0
    7.9202  -15.9406   16.9218 O   0  0  0  0  0  0  0  0  0  0  0  0
    8.9543  -14.0319   21.4799 N   0  0  0  0  0  0  0  0  0  0  0  0
    9.1121  -14.7262   22.6821 C   0  0  1  0  0  0  0  0  0  0  0  0
   10.3450  -15.5449   22.9167 C   0  0  0  0  0  0  0  0  0  0  0  0
   10.4484  -16.6586   21.9248 C   0  0  0  0  0  0  0  0  0  0  0  0
   11.6597  -17.5181   22.1878 C   0  0  0  0  0  0  0  0  0  0  0  0
   11.5464  -18.4348   23.0343 O   0  0  0  0  0  0  0  0  0  0  0  0
    8.6685  -13.9312   23.8235 C   0  0  0  0  0  0  0  0  0  0  0  0
    8.9179  -12.6968   23.8361 O   0  0  0  0  0  0  0  0  0  0  0  0
   12.8553  -17.3370   21.5478 O   0  0  0  0  0  0  0  0  0  0  0  0
    5.6442  -13.7244   26.1099 O   0  0  0  0  0  0  0  0  0  0  0  0
    6.7372  -12.9263   26.4727 C   0  0  0  0  0  0  0  0  0  0  0  0
    7.9839  -13.7490   26.2399 C   0  0  2  0  0  0  0  0  0  0  0  0
    7.9606  -14.4203   24.9606 N   0  0  0  0  0  0  0  0  0  0  0  0
    8.0768  -14.7286   27.3477 C   0  0  0  0  0  0  0  0  0  0  0  0
    8.0634  -15.9481   27.0650 O   0  0  0  0  0  0  0  0  0  0  0  0
    8.1768  -14.3374   28.6726 O   0  0  0  0  0  0  0  0  0  0  0  0
  2  1  1  6
  3  4  1  0
  3  2  1  0
  4  8  1  0
  5  4  2  0
  6  2  1  0
  6  7  2  0
  9 10  1  0
  9  6  1  0
 10 15  1  0
 10 11  1  1
 12 11  1  0
 12 13  1  0
 13 14  2  0
 15 16  2  0
 15 21  1  0
 17 13  1  0
 18 19  1  0
 20 19  1  1
 20 22  1  0
 21 20  1  0
 22 23  2  0
 22 24  1  0
M  END
$$$$
