DES.pdb
     RDKit          3D

 24 23  0  0  1  0  0  0  0  0999 V2000
    9.7320  -14.1286   16.4873 N   0  0  0  0  0  0  0  0  0  0  0  0
    9.4270  -15.4822   16.9081 C   0  0  1  0  0  0  0  0  0  0  0  0
    9.7073  -16.4118   15.7745 C   0  0  0  0  0  0  0  0  0  0  0  0
    9.0664  -15.9211   14.5530 C   0  0  0  0  0  0  0  0  0  0  0  0
    7.8402  -15.6537   14.5502 O   0  0  0  0  0  0  0  0  0  0  0  0
   10.2655  -15.8927   18.0841 C   0  0  0  0  0  0  0  0  0  0  0  0
   10.0554  -17.0258   18.5209 O   0  0  0  0  0  0  0  0  0  0  0  0
    9.8214  -15.7482   13.3815 O   0  0  0  0  0  0  0  0  0  0  0  0
   11.2207  -15.0854   18.6692 N   0  0  0  0  0  0  0  0  0  0  0  0
   12.0809  -15.3987   19.7247 C   0  0  1  0  0  0  0  0  0  0  0  0
   13.4745  -14.8483   19.7425 C   0  0  0  0  0  0  0  0  0  0  0  0
   14.0007  -14.6703   18.3545 C   0  0  0  0  0  0  0  0  0  0  0  0
   15.4227  -14.1675   18.3661 C   0  0  0  0  0  0  0  0  0  0  0  0
   15.7502  -13.3782   19.2823 O   0  0  0  0  0  0  0  0  0  0  0  0
   11.3869  -15.3725   21.0088 C   0  0  0  0  0  0  0  0  0  0  0  0
   10.8357  -14.3022   21.3783 O   0  0  0  0  0  0  0  0  0  0  0  0
   16.3507  -14.5348   17.4303 O   0  0  0  0  0  0  0  0  0  0  0  0
    8.4280  -16.5756   22.3741 O   0  0  0  0  0  0  0  0  0  0  0  0
    9.3371  -17.1557   23.2687 C   0  0  0  0  0  0  0  0  0  0  0  0
   10.6089  -16.3414   23.1990 C   0  0  2  0  0  0  0  0  0  0  0  0
   11.2635  -16.4651   21.9169 N   0  0  0  0  0  0  0  0  0  0  0  0
   11.4931  -16.8139   24.2902 C   0  0  0  0  0  0  0  0  0  0  0  0
   12.5568  -17.3975   23.9821 O   0  0  0  0  0  0  0  0  0  0  0  0
   11.1792  -16.6299   25.6266 O   0  0  0  0  0  0  0  0  0  0  0  0
  2  1  1  6
  3  4  1  0
  3  2  1  0
  4  8  1  0
  5  4  2  0
  6  2  1  0
  6  7  2  0
  9 10  1  0
  9  6  1  0
 10 15  1  0
 10 11  1  1
 12 11  1  0
 12 13  1  0
 13 14  2  0
 15 16  2  0
 15 21  1  0
 17 13  1  0
 18 19  1  0
 20 19  1  6
 20 22  1  0
 21 20  1  0
 22 23  2  0
 22 24  1  0
M  END
$$$$
