DES.pdb
     RDKit          3D

 24 23  0  0  1  0  0  0  0  0999 V2000
   10.2363  -18.1822   20.3861 N   0  0  0  0  0  0  0  0  0  0  0  0
   11.2930  -17.8895   21.3349 C   0  0  1  0  0  0  0  0  0  0  0  0
   11.9685  -16.6232   20.9255 C   0  0  0  0  0  0  0  0  0  0  0  0
   12.8715  -16.8771   19.8014 C   0  0  0  0  0  0  0  0  0  0  0  0
   13.1028  -18.0547   19.4342 O   0  0  0  0  0  0  0  0  0  0  0  0
   10.7498  -17.7164   22.7241 C   0  0  0  0  0  0  0  0  0  0  0  0
    9.6015  -17.2749   22.7978 O   0  0  0  0  0  0  0  0  0  0  0  0
   13.4813  -15.8042   19.1309 O   0  0  0  0  0  0  0  0  0  0  0  0
   11.4559  -18.0193   23.8713 N   0  0  0  0  0  0  0  0  0  0  0  0
   10.9905  -18.0313   25.1887 C   0  0  1  0  0  0  0  0  0  0  0  0
   11.3980  -19.1355   26.1160 C   0  0  0  0  0  0  0  0  0  0  0  0
   10.3640  -20.2145   26.1555 C   0  0  0  0  0  0  0  0  0  0  0  0
   10.7385  -21.2991   27.1345 C   0  0  0  0  0  0  0  0  0  0  0  0
   11.0417  -20.9488   28.2985 O   0  0  0  0  0  0  0  0  0  0  0  0
   11.0009  -16.6938   25.7739 C   0  0  0  0  0  0  0  0  0  0  0  0
   11.9213  -15.8975   25.4503 O   0  0  0  0  0  0  0  0  0  0  0  0
   10.7588  -22.6266   26.8042 O   0  0  0  0  0  0  0  0  0  0  0  0
    9.0473  -12.7212   27.2424 O   0  0  0  0  0  0  0  0  0  0  0  0
    8.8528  -14.0397   26.8100 C   0  0  0  0  0  0  0  0  0  0  0  0
   10.0929  -14.8177   27.1870 C   0  0  2  0  0  0  0  0  0  0  0  0
   10.0490  -16.1781   26.7021 N   0  0  0  0  0  0  0  0  0  0  0  0
   10.1977  -14.7878   28.6647 C   0  0  0  0  0  0  0  0  0  0  0  0
   10.0050  -15.8518   29.2955 O   0  0  0  0  0  0  0  0  0  0  0  0
   10.4994  -13.6286   29.3601 O   0  0  0  0  0  0  0  0  0  0  0  0
  2  1  1  6
  3  4  1  0
  3  2  1  0
  4  8  1  0
  5  4  2  0
  6  2  1  0
  6  7  2  0
  9 10  1  0
  9  6  1  0
 10 15  1  0
 10 11  1  1
 12 11  1  0
 12 13  1  0
 13 14  2  0
 15 16  2  0
 15 21  1  0
 17 13  1  0
 18 19  1  0
 20 19  1  1
 20 22  1  0
 21 20  1  0
 22 23  2  0
 22 24  1  0
M  END
$$$$
