FQG.pdb
     RDKit          3D

 25 25  0  0  1  0  0  0  0  0999 V2000
   27.7893  -22.4006  -12.9141 N   0  0  0  0  0  0  0  0  0  0  0  0
   26.9563  -21.6504  -11.9922 C   0  0  1  0  0  0  0  0  0  0  0  0
   27.6268  -20.4221  -11.4862 C   0  0  0  0  0  0  0  0  0  0  0  0
   27.9371  -20.4325  -10.0425 C   0  0  0  0  0  0  0  0  0  0  0  0
   27.0002  -19.9216   -9.1475 C   0  0  0  0  0  0  0  0  0  0  0  0
   27.2530  -19.9265   -7.7904 C   0  0  0  0  0  0  0  0  0  0  0  0
   28.4246  -20.4309   -7.2931 C   0  0  0  0  0  0  0  0  0  0  0  0
   29.3588  -20.9369   -8.1444 C   0  0  0  0  0  0  0  0  0  0  0  0
   29.1012  -20.9303   -9.5052 C   0  0  0  0  0  0  0  0  0  0  0  0
   25.6831  -21.3302  -12.6546 C   0  0  0  0  0  0  0  0  0  0  0  0
   25.5980  -21.3704  -13.8921 O   0  0  0  0  0  0  0  0  0  0  0  0
   20.3281  -22.0643   -9.5138 N   0  0  0  0  0  0  0  0  0  0  0  0
   19.8680  -21.9157  -10.8439 C   0  0  0  0  0  0  0  0  0  0  0  0
   18.6625  -22.0391  -11.1221 O   0  0  0  0  0  0  0  0  0  0  0  0
   20.8226  -21.6052  -11.9547 C   0  0  0  0  0  0  0  0  0  0  0  0
   22.2079  -21.4839  -11.3803 C   0  0  0  0  0  0  0  0  0  0  0  0
   23.1817  -21.1347  -12.4247 C   0  0  2  0  0  0  0  0  0  0  0  0
   24.5434  -20.9750  -11.9175 N   0  0  0  0  0  0  0  0  0  0  0  0
   22.8137  -19.9136  -13.1805 C   0  0  0  0  0  0  0  0  0  0  0  0
   22.7234  -18.7721  -12.6716 O   0  0  0  0  0  0  0  0  0  0  0  0
   22.5282  -19.9709  -14.5937 N   0  0  0  0  0  0  0  0  0  0  0  0
   22.1728  -18.7582  -15.3262 C   0  0  0  0  0  0  0  0  0  0  0  0
   20.7641  -18.4058  -15.1563 C   0  0  0  0  0  0  0  0  0  0  0  0
   19.9511  -19.1578  -14.5790 O   0  0  0  0  0  0  0  0  0  0  0  0
   20.3216  -17.1952  -15.6546 O   0  0  0  0  0  0  0  0  0  0  0  0
  2  1  1  6
  2 10  1  0
  3  2  1  0
  4  3  1  0
  5  4  2  0
  6  5  1  0
  7  6  2  0
  7  8  1  0
  8  9  2  0
  9  4  1  0
 10 11  2  0
 13 15  1  0
 13 12  1  0
 14 13  2  0
 16 15  1  0
 17 16  1  1
 18 10  1  0
 18 17  1  0
 19 17  1  0
 19 21  1  0
 20 19  2  0
 22 23  1  0
 22 21  1  0
 23 25  1  0
 24 23  2  0
M  END
$$$$
