FQG.pdb
     RDKit          3D

 25 25  0  0  1  0  0  0  0  0999 V2000
   20.6803  -13.6068  -17.1970 N   0  0  0  0  0  0  0  0  0  0  0  0
   20.4151  -12.2368  -17.5964 C   0  0  1  0  0  0  0  0  0  0  0  0
   19.0261  -11.8077  -17.2791 C   0  0  0  0  0  0  0  0  0  0  0  0
   17.9708  -12.4974  -18.0481 C   0  0  0  0  0  0  0  0  0  0  0  0
   17.6564  -12.0373  -19.3246 C   0  0  0  0  0  0  0  0  0  0  0  0
   16.6833  -12.6658  -20.0755 C   0  0  0  0  0  0  0  0  0  0  0  0
   16.0066  -13.7510  -19.5868 C   0  0  0  0  0  0  0  0  0  0  0  0
   16.2929  -14.2227  -18.3421 C   0  0  0  0  0  0  0  0  0  0  0  0
   17.2699  -13.5894  -17.5921 C   0  0  0  0  0  0  0  0  0  0  0  0
   21.4055  -11.3558  -16.9599 C   0  0  0  0  0  0  0  0  0  0  0  0
   22.0519  -11.7532  -15.9778 O   0  0  0  0  0  0  0  0  0  0  0  0
   25.7912   -7.9565  -19.1927 N   0  0  0  0  0  0  0  0  0  0  0  0
   25.7998   -7.5238  -17.8453 C   0  0  0  0  0  0  0  0  0  0  0  0
   26.7269   -6.8228  -17.4035 O   0  0  0  0  0  0  0  0  0  0  0  0
   24.6900   -7.8991  -16.9129 C   0  0  0  0  0  0  0  0  0  0  0  0
   23.6679   -8.6967  -17.6762 C   0  0  0  0  0  0  0  0  0  0  0  0
   22.5734   -9.1294  -16.7953 C   0  0  2  0  0  0  0  0  0  0  0  0
   21.6454  -10.0585  -17.4375 N   0  0  0  0  0  0  0  0  0  0  0  0
   21.7959   -7.9993  -16.2331 C   0  0  0  0  0  0  0  0  0  0  0  0
   21.0955   -7.2178  -16.9180 O   0  0  0  0  0  0  0  0  0  0  0  0
   21.8009   -7.7243  -14.8166 N   0  0  0  0  0  0  0  0  0  0  0  0
   20.6910   -8.1624  -13.9742 C   0  0  0  0  0  0  0  0  0  0  0  0
   19.4256   -7.5438  -14.3660 C   0  0  0  0  0  0  0  0  0  0  0  0
   18.9901   -6.5079  -13.8212 O   0  0  0  0  0  0  0  0  0  0  0  0
   18.6885   -8.1314  -15.3767 O   0  0  0  0  0  0  0  0  0  0  0  0
  2  1  1  1
  2 10  1  0
  3  2  1  0
  4  3  1  0
  5  4  2  0
  6  5  1  0
  7  6  2  0
  7  8  1  0
  8  9  2  0
  9  4  1  0
 10 11  2  0
 13 15  1  0
 13 12  1  0
 14 13  2  0
 16 15  1  0
 17 16  1  6
 18 10  1  0
 18 17  1  0
 19 17  1  0
 19 21  1  0
 20 19  2  0
 22 23  1  0
 22 21  1  0
 23 25  1  0
 24 23  2  0
M  END
$$$$
