FQG.pdb
     RDKit          3D

 25 25  0  0  1  0  0  0  0  0999 V2000
   28.1936  -22.2830  -13.9543 N   0  0  0  0  0  0  0  0  0  0  0  0
   27.5276  -21.7028  -12.8027 C   0  0  1  0  0  0  0  0  0  0  0  0
   28.2934  -20.5740  -12.2081 C   0  0  0  0  0  0  0  0  0  0  0  0
   29.4825  -20.9714  -11.4279 C   0  0  0  0  0  0  0  0  0  0  0  0
   29.3198  -21.3565  -10.0993 C   0  0  0  0  0  0  0  0  0  0  0  0
   30.4084  -21.7451   -9.3446 C   0  0  0  0  0  0  0  0  0  0  0  0
   31.6682  -21.7615   -9.8802 C   0  0  0  0  0  0  0  0  0  0  0  0
   31.8573  -21.3903  -11.1763 C   0  0  0  0  0  0  0  0  0  0  0  0
   30.7626  -21.0013  -11.9302 C   0  0  0  0  0  0  0  0  0  0  0  0
   26.1751  -21.2820  -13.1977 C   0  0  0  0  0  0  0  0  0  0  0  0
   25.8148  -21.3763  -14.3815 O   0  0  0  0  0  0  0  0  0  0  0  0
   21.5789  -20.9430   -8.9280 N   0  0  0  0  0  0  0  0  0  0  0  0
   20.8739  -21.0928  -10.1459 C   0  0  0  0  0  0  0  0  0  0  0  0
   19.6450  -21.2820  -10.1555 O   0  0  0  0  0  0  0  0  0  0  0  0
   21.5902  -21.0272  -11.4590 C   0  0  0  0  0  0  0  0  0  0  0  0
   23.0588  -20.8307  -11.1978 C   0  0  0  0  0  0  0  0  0  0  0  0
   23.8168  -20.7943  -12.4569 C   0  0  2  0  0  0  0  0  0  0  0  0
   25.2652  -20.7689  -12.2609 N   0  0  0  0  0  0  0  0  0  0  0  0
   23.4392  -19.6591  -13.3323 C   0  0  0  0  0  0  0  0  0  0  0  0
   23.6933  -18.4590  -13.0765 O   0  0  0  0  0  0  0  0  0  0  0  0
   22.7331  -19.8778  -14.5716 N   0  0  0  0  0  0  0  0  0  0  0  0
   22.4290  -18.7568  -15.4572 C   0  0  0  0  0  0  0  0  0  0  0  0
   21.0828  -18.2310  -15.2368 C   0  0  0  0  0  0  0  0  0  0  0  0
   20.2993  -18.7271  -14.4003 O   0  0  0  0  0  0  0  0  0  0  0  0
   20.6673  -17.1454  -15.9843 O   0  0  0  0  0  0  0  0  0  0  0  0
  2  1  1  6
  2 10  1  0
  3  2  1  0
  4  3  1  0
  5  4  2  0
  6  5  1  0
  7  6  2  0
  7  8  1  0
  8  9  2  0
  9  4  1  0
 10 11  2  0
 13 15  1  0
 13 12  1  0
 14 13  2  0
 16 15  1  0
 17 16  1  1
 18 10  1  0
 18 17  1  0
 19 17  1  0
 19 21  1  0
 20 19  2  0
 22 23  1  0
 22 21  1  0
 23 25  1  0
 24 23  2  0
M  END
$$$$
