FQG.pdb
     RDKit          3D

 25 25  0  0  1  0  0  0  0  0999 V2000
   26.6850  -18.2017   -7.9018 N   0  0  0  0  0  0  0  0  0  0  0  0
   27.0378  -19.5247   -8.3831 C   0  0  1  0  0  0  0  0  0  0  0  0
   27.0220  -20.5486   -7.3034 C   0  0  0  0  0  0  0  0  0  0  0  0
   27.9597  -20.2948   -6.1914 C   0  0  0  0  0  0  0  0  0  0  0  0
   27.4476  -20.0553   -4.9184 C   0  0  0  0  0  0  0  0  0  0  0  0
   28.2962  -19.8259   -3.8540 C   0  0  0  0  0  0  0  0  0  0  0  0
   29.6549  -19.8281   -4.0221 C   0  0  0  0  0  0  0  0  0  0  0  0
   30.1838  -20.0594   -5.2551 C   0  0  0  0  0  0  0  0  0  0  0  0
   29.3290  -20.2893   -6.3203 C   0  0  0  0  0  0  0  0  0  0  0  0
   26.1286  -19.8898   -9.4797 C   0  0  0  0  0  0  0  0  0  0  0  0
   24.9899  -19.3995   -9.5333 O   0  0  0  0  0  0  0  0  0  0  0  0
   28.9346  -21.7366  -14.7242 N   0  0  0  0  0  0  0  0  0  0  0  0
   27.6830  -21.2832  -15.2048 C   0  0  0  0  0  0  0  0  0  0  0  0
   27.4473  -21.2273  -16.4243 O   0  0  0  0  0  0  0  0  0  0  0  0
   26.6062  -20.8578  -14.2555 C   0  0  0  0  0  0  0  0  0  0  0  0
   27.1180  -21.0049  -12.8484 C   0  0  0  0  0  0  0  0  0  0  0  0
   26.0688  -20.6825  -11.8705 C   0  0  2  0  0  0  0  0  0  0  0  0
   26.5166  -20.7904  -10.4832 N   0  0  0  0  0  0  0  0  0  0  0  0
   24.8451  -21.5026  -12.0364 C   0  0  0  0  0  0  0  0  0  0  0  0
   24.7878  -22.7339  -11.8112 O   0  0  0  0  0  0  0  0  0  0  0  0
   23.6071  -20.9103  -12.4822 N   0  0  0  0  0  0  0  0  0  0  0  0
   22.3967  -21.7206  -12.5914 C   0  0  0  0  0  0  0  0  0  0  0  0
   22.2472  -22.3096  -13.9211 C   0  0  0  0  0  0  0  0  0  0  0  0
   21.9758  -21.6249  -14.9297 O   0  0  0  0  0  0  0  0  0  0  0  0
   22.4132  -23.6744  -14.0612 O   0  0  0  0  0  0  0  0  0  0  0  0
  2  1  1  1
  2 10  1  0
  3  2  1  0
  4  3  1  0
  5  4  2  0
  6  5  1  0
  7  6  2  0
  7  8  1  0
  8  9  2  0
  9  4  1  0
 10 11  2  0
 13 15  1  0
 13 12  1  0
 14 13  2  0
 16 15  1  0
 17 16  1  6
 18 10  1  0
 18 17  1  0
 19 17  1  0
 19 21  1  0
 20 19  2  0
 22 23  1  0
 22 21  1  0
 23 25  1  0
 24 23  2  0
M  END
$$$$
