FQG.pdb
     RDKit          3D

 25 25  0  0  1  0  0  0  0  0999 V2000
   24.2501  -11.0238  -17.4523 N   0  0  0  0  0  0  0  0  0  0  0  0
   24.2539  -10.3314  -16.1767 C   0  0  1  0  0  0  0  0  0  0  0  0
   25.5711   -9.7126  -15.8663 C   0  0  0  0  0  0  0  0  0  0  0  0
   26.7271  -10.6258  -15.9682 C   0  0  0  0  0  0  0  0  0  0  0  0
   26.7554  -11.7694  -15.1737 C   0  0  0  0  0  0  0  0  0  0  0  0
   27.8152  -12.6506  -15.2522 C   0  0  0  0  0  0  0  0  0  0  0  0
   28.8592  -12.4235  -16.1083 C   0  0  0  0  0  0  0  0  0  0  0  0
   28.8584  -11.3138  -16.8970 C   0  0  0  0  0  0  0  0  0  0  0  0
   27.7932  -10.4324  -16.8153 C   0  0  0  0  0  0  0  0  0  0  0  0
   23.1787   -9.3283  -16.1769 C   0  0  0  0  0  0  0  0  0  0  0  0
   22.6599   -8.9723  -17.2466 O   0  0  0  0  0  0  0  0  0  0  0  0
   18.0303   -9.5175  -13.5246 N   0  0  0  0  0  0  0  0  0  0  0  0
   18.2956   -9.6329  -14.9099 C   0  0  0  0  0  0  0  0  0  0  0  0
   17.5049  -10.2233  -15.6665 O   0  0  0  0  0  0  0  0  0  0  0  0
   19.5384   -9.0460  -15.5036 C   0  0  0  0  0  0  0  0  0  0  0  0
   20.3568   -8.4327  -14.4001 C   0  0  0  0  0  0  0  0  0  0  0  0
   21.5855   -7.8253  -14.9316 C   0  0  2  0  0  0  0  0  0  0  0  0
   22.7143   -8.7526  -14.9847 N   0  0  0  0  0  0  0  0  0  0  0  0
   22.0053   -6.6131  -14.1887 C   0  0  0  0  0  0  0  0  0  0  0  0
   22.7148   -6.6316  -13.1560 O   0  0  0  0  0  0  0  0  0  0  0  0
   21.6076   -5.2970  -14.6266 N   0  0  0  0  0  0  0  0  0  0  0  0
   21.9243   -4.1218  -13.8191 C   0  0  0  0  0  0  0  0  0  0  0  0
   21.5702   -2.8762  -14.4978 C   0  0  0  0  0  0  0  0  0  0  0  0
   21.1413   -2.8516  -15.6705 O   0  0  0  0  0  0  0  0  0  0  0  0
   21.7175   -1.6856  -13.8119 O   0  0  0  0  0  0  0  0  0  0  0  0
  2  1  1  6
  2 10  1  0
  3  2  1  0
  4  3  1  0
  5  4  2  0
  6  5  1  0
  7  6  2  0
  7  8  1  0
  8  9  2  0
  9  4  1  0
 10 11  2  0
 13 15  1  0
 13 12  1  0
 14 13  2  0
 16 15  1  0
 17 16  1  1
 18 10  1  0
 18 17  1  0
 19 17  1  0
 19 21  1  0
 20 19  2  0
 22 23  1  0
 22 21  1  0
 23 25  1  0
 24 23  2  0
M  END
$$$$
