FQG.pdb
     RDKit          3D

 25 25  0  0  1  0  0  0  0  0999 V2000
   16.4207   -8.0089   -8.7251 N   0  0  0  0  0  0  0  0  0  0  0  0
   15.6103   -7.4762   -9.8050 C   0  0  1  0  0  0  0  0  0  0  0  0
   14.8182   -6.2862   -9.3918 C   0  0  0  0  0  0  0  0  0  0  0  0
   13.8070   -6.5439   -8.3470 C   0  0  0  0  0  0  0  0  0  0  0  0
   12.7755   -7.4411   -8.6133 C   0  0  0  0  0  0  0  0  0  0  0  0
   11.8200   -7.7140   -7.6550 C   0  0  0  0  0  0  0  0  0  0  0  0
   11.8623   -7.1129   -6.4257 C   0  0  0  0  0  0  0  0  0  0  0  0
   12.8592   -6.2316   -6.1373 C   0  0  0  0  0  0  0  0  0  0  0  0
   13.8159   -5.9607   -7.1014 C   0  0  0  0  0  0  0  0  0  0  0  0
   16.4836   -7.1671  -10.9470 C   0  0  0  0  0  0  0  0  0  0  0  0
   17.6843   -6.9139  -10.7616 O   0  0  0  0  0  0  0  0  0  0  0  0
   17.0961  -10.0410  -16.0731 N   0  0  0  0  0  0  0  0  0  0  0  0
   17.4958  -10.2707  -14.7351 C   0  0  0  0  0  0  0  0  0  0  0  0
   17.8709  -11.3962  -14.3629 O   0  0  0  0  0  0  0  0  0  0  0  0
   17.4778   -9.1620  -13.7289 C   0  0  0  0  0  0  0  0  0  0  0  0
   16.9335   -7.9231  -14.3863 C   0  0  0  0  0  0  0  0  0  0  0  0
   16.8202   -6.8212  -13.4198 C   0  0  2  0  0  0  0  0  0  0  0  0
   15.9919   -7.1496  -12.2609 N   0  0  0  0  0  0  0  0  0  0  0  0
   16.3111   -5.5663  -14.0231 C   0  0  0  0  0  0  0  0  0  0  0  0
   15.1220   -5.1794  -13.9430 O   0  0  0  0  0  0  0  0  0  0  0  0
   17.1852   -4.6882  -14.7627 N   0  0  0  0  0  0  0  0  0  0  0  0
   17.7062   -3.4714  -14.1450 C   0  0  0  0  0  0  0  0  0  0  0  0
   16.6645   -2.4647  -13.9484 C   0  0  0  0  0  0  0  0  0  0  0  0
   16.4708   -1.5349  -14.7593 O   0  0  0  0  0  0  0  0  0  0  0  0
   15.8680   -2.5501  -12.8223 O   0  0  0  0  0  0  0  0  0  0  0  0
  2  1  1  1
  2 10  1  0
  3  2  1  0
  4  3  1  0
  5  4  2  0
  6  5  1  0
  7  6  2  0
  7  8  1  0
  8  9  2  0
  9  4  1  0
 10 11  2  0
 13 15  1  0
 13 12  1  0
 14 13  2  0
 16 15  1  0
 17 16  1  6
 18 10  1  0
 18 17  1  0
 19 17  1  0
 19 21  1  0
 20 19  2  0
 22 23  1  0
 22 21  1  0
 23 25  1  0
 24 23  2  0
M  END
$$$$
