FQG.pdb
     RDKit          3D

 25 25  0  0  1  0  0  0  0  0999 V2000
   25.8279  -19.2225  -16.9705 N   0  0  0  0  0  0  0  0  0  0  0  0
   25.6103  -18.8192  -15.5933 C   0  0  1  0  0  0  0  0  0  0  0  0
   24.9669  -17.4818  -15.4844 C   0  0  0  0  0  0  0  0  0  0  0  0
   25.7836  -16.3561  -15.9804 C   0  0  0  0  0  0  0  0  0  0  0  0
   25.5078  -15.8254  -17.2383 C   0  0  0  0  0  0  0  0  0  0  0  0
   26.2442  -14.7653  -17.7279 C   0  0  0  0  0  0  0  0  0  0  0  0
   27.2584  -14.2122  -16.9933 C   0  0  0  0  0  0  0  0  0  0  0  0
   27.5504  -14.7103  -15.7603 C   0  0  0  0  0  0  0  0  0  0  0  0
   26.8092  -15.7738  -15.2727 C   0  0  0  0  0  0  0  0  0  0  0  0
   24.8137  -19.8527  -14.9154 C   0  0  0  0  0  0  0  0  0  0  0  0
   24.0276  -20.5590  -15.5660 O   0  0  0  0  0  0  0  0  0  0  0  0
   25.0830  -20.9902   -9.0496 N   0  0  0  0  0  0  0  0  0  0  0  0
   26.1758  -20.6931   -9.8984 C   0  0  0  0  0  0  0  0  0  0  0  0
   27.2351  -20.2304   -9.4404 O   0  0  0  0  0  0  0  0  0  0  0  0
   26.0859  -20.9286  -11.3742 C   0  0  0  0  0  0  0  0  0  0  0  0
   24.8012  -21.6538  -11.6694 C   0  0  0  0  0  0  0  0  0  0  0  0
   24.1049  -21.0463  -12.8128 C   0  0  2  0  0  0  0  0  0  0  0  0
   24.9176  -20.0675  -13.5328 N   0  0  0  0  0  0  0  0  0  0  0  0
   22.8188  -20.4096  -12.4411 C   0  0  0  0  0  0  0  0  0  0  0  0
   22.6195  -19.8048  -11.3619 O   0  0  0  0  0  0  0  0  0  0  0  0
   21.6834  -20.4510  -13.3307 N   0  0  0  0  0  0  0  0  0  0  0  0
   20.3537  -20.7716  -12.8183 C   0  0  0  0  0  0  0  0  0  0  0  0
   19.8789  -22.0697  -13.2945 C   0  0  0  0  0  0  0  0  0  0  0  0
   18.7682  -22.5374  -12.9668 O   0  0  0  0  0  0  0  0  0  0  0  0
   20.6931  -22.8018  -14.1377 O   0  0  0  0  0  0  0  0  0  0  0  0
  2  1  1  6
  2 10  1  0
  3  2  1  0
  4  3  1  0
  5  4  2  0
  6  5  1  0
  7  6  2  0
  7  8  1  0
  8  9  2  0
  9  4  1  0
 10 11  2  0
 13 15  1  0
 13 12  1  0
 14 13  2  0
 16 15  1  0
 17 16  1  1
 18 10  1  0
 18 17  1  0
 19 17  1  0
 19 21  1  0
 20 19  2  0
 22 23  1  0
 22 21  1  0
 23 25  1  0
 24 23  2  0
M  END
$$$$
