FAW.pdb
     RDKit          3D

 31 33  0  0  1  0  0  0  0  0999 V2000
   22.0031   -8.7826  -16.0622 N   0  0  0  0  0  0  0  0  0  0  0  0
   20.7110   -8.3806  -15.5258 C   0  0  1  0  0  0  0  0  0  0  0  0
   20.4867   -6.8905  -15.8676 C   0  0  0  0  0  0  0  0  0  0  0  0
   21.2844   -6.1354  -14.8647 C   0  0  0  0  0  0  0  0  0  0  0  0
   22.3959   -5.3956  -15.1407 C   0  0  0  0  0  0  0  0  0  0  0  0
   23.0971   -4.7211  -14.1517 C   0  0  0  0  0  0  0  0  0  0  0  0
   22.6532   -4.8000  -12.8297 C   0  0  0  0  0  0  0  0  0  0  0  0
   21.5362   -5.5441  -12.5568 C   0  0  0  0  0  0  0  0  0  0  0  0
   20.8388   -6.2162  -13.5487 C   0  0  0  0  0  0  0  0  0  0  0  0
   19.6554   -9.1219  -16.2363 C   0  0  0  0  0  0  0  0  0  0  0  0
   19.8641   -9.5009  -17.4096 O   0  0  0  0  0  0  0  0  0  0  0  0
   16.1734  -10.2704  -15.2607 C   0  0  0  0  0  0  0  0  0  0  0  0
   17.3314  -10.0257  -16.2203 C   0  0  2  0  0  0  0  0  0  0  0  0
   18.4340   -9.3826  -15.5618 N   0  0  0  0  0  0  0  0  0  0  0  0
   16.7810   -9.1673  -17.2979 C   0  0  0  0  0  0  0  0  0  0  0  0
   17.0708   -7.9424  -17.3259 O   0  0  0  0  0  0  0  0  0  0  0  0
   15.9338   -9.6526  -18.3154 N   0  0  0  0  0  0  0  0  0  0  0  0
   15.8004   -8.9150  -19.5776 C   0  0  1  0  0  0  0  0  0  0  0  0
   17.1598   -8.6339  -20.1112 C   0  0  0  0  0  0  0  0  0  0  0  0
   17.3526   -7.3163  -20.7418 C   0  0  0  0  0  0  0  0  0  0  0  0
   17.0965   -6.0622  -20.1893 C   0  0  0  0  0  0  0  0  0  0  0  0
   17.3692   -5.1123  -21.0939 N   0  0  0  0  0  0  0  0  0  0  0  0
   17.8031   -5.6753  -22.2442 C   0  0  0  0  0  0  0  0  0  0  0  0
   18.2219   -5.1410  -23.4611 C   0  0  0  0  0  0  0  0  0  0  0  0
   18.6431   -5.9525  -24.4924 C   0  0  0  0  0  0  0  0  0  0  0  0
   18.6448   -7.3178  -24.3018 C   0  0  0  0  0  0  0  0  0  0  0  0
   18.2268   -7.8256  -23.0932 C   0  0  0  0  0  0  0  0  0  0  0  0
   17.7955   -7.0351  -22.0335 C   0  0  0  0  0  0  0  0  0  0  0  0
   14.8620   -9.6221  -20.4333 C   0  0  0  0  0  0  0  0  0  0  0  0
   13.9606   -8.8792  -21.2256 O   0  0  0  0  0  0  0  0  0  0  0  0
   14.7646  -10.8754  -20.5463 O   0  0  0  0  0  0  0  0  0  0  0  0
  2  1  1  6
  2  3  1  0
  3  4  1  0
  4  5  2  0
  5  6  1  0
  7  6  2  0
  8  7  1  0
  9  4  1  0
  9  8  2  0
 10  2  1  0
 11 10  2  0
 13 12  1  1
 13 14  1  0
 14 10  1  0
 15 13  1  0
 15 17  1  0
 16 15  2  0
 18 17  1  0
 18 29  1  0
 19 20  1  0
 18 19  1  6
 20 21  2  0
 22 21  1  0
 23 22  1  0
 24 23  2  0
 25 24  1  0
 26 25  2  0
 26 27  1  0
 27 28  2  0
 28 23  1  0
 28 20  1  0
 29 30  1  0
 31 29  2  0
M  END
$$$$
