FAW.pdb
     RDKit          3D

 31 33  0  0  1  0  0  0  0  0999 V2000
   23.5443  -10.4344  -17.2613 N   0  0  0  0  0  0  0  0  0  0  0  0
   23.2265   -9.7604  -16.0108 C   0  0  1  0  0  0  0  0  0  0  0  0
   24.3161   -8.6982  -15.7423 C   0  0  0  0  0  0  0  0  0  0  0  0
   25.5932   -9.4574  -15.6738 C   0  0  0  0  0  0  0  0  0  0  0  0
   25.8524  -10.4828  -14.8133 C   0  0  0  0  0  0  0  0  0  0  0  0
   27.0723  -11.1434  -14.7996 C   0  0  0  0  0  0  0  0  0  0  0  0
   28.0694  -10.7484  -15.6945 C   0  0  0  0  0  0  0  0  0  0  0  0
   27.8047   -9.7181  -16.5573 C   0  0  0  0  0  0  0  0  0  0  0  0
   26.5840   -9.0612  -16.5672 C   0  0  0  0  0  0  0  0  0  0  0  0
   21.9687   -9.0146  -16.1848 C   0  0  0  0  0  0  0  0  0  0  0  0
   21.7477   -8.4424  -17.2746 O   0  0  0  0  0  0  0  0  0  0  0  0
   18.9437   -8.4556  -13.9667 C   0  0  0  0  0  0  0  0  0  0  0  0
   19.8236   -8.2242  -15.1889 C   0  0  2  0  0  0  0  0  0  0  0  0
   21.0470   -8.9722  -15.1062 N   0  0  0  0  0  0  0  0  0  0  0  0
   20.0923   -6.7654  -15.2156 C   0  0  0  0  0  0  0  0  0  0  0  0
   21.1719   -6.3236  -14.7417 O   0  0  0  0  0  0  0  0  0  0  0  0
   19.1906   -5.8234  -15.7522 N   0  0  0  0  0  0  0  0  0  0  0  0
   19.5928   -4.4193  -15.8999 C   0  0  1  0  0  0  0  0  0  0  0  0
   20.8139   -4.3599  -16.7468 C   0  0  0  0  0  0  0  0  0  0  0  0
   20.6020   -4.4438  -18.2024 C   0  0  0  0  0  0  0  0  0  0  0  0
   19.6164   -3.8096  -18.9575 C   0  0  0  0  0  0  0  0  0  0  0  0
   19.7390   -4.1685  -20.2424 N   0  0  0  0  0  0  0  0  0  0  0  0
   20.7748   -5.0251  -20.3899 C   0  0  0  0  0  0  0  0  0  0  0  0
   21.3216   -5.6680  -21.4988 C   0  0  0  0  0  0  0  0  0  0  0  0
   22.4164   -6.4966  -21.3783 C   0  0  0  0  0  0  0  0  0  0  0  0
   22.9709   -6.6834  -20.1301 C   0  0  0  0  0  0  0  0  0  0  0  0
   22.4156   -6.0402  -19.0478 C   0  0  0  0  0  0  0  0  0  0  0  0
   21.3118   -5.1990  -19.1350 C   0  0  0  0  0  0  0  0  0  0  0  0
   18.4347   -3.6442  -16.3135 C   0  0  0  0  0  0  0  0  0  0  0  0
   18.4972   -2.2351  -16.2619 O   0  0  0  0  0  0  0  0  0  0  0  0
   17.3398   -4.1154  -16.7286 O   0  0  0  0  0  0  0  0  0  0  0  0
  2  1  1  6
  2  3  1  0
  3  4  1  0
  4  5  2  0
  5  6  1  0
  7  6  2  0
  8  7  1  0
  9  4  1  0
  9  8  2  0
 10  2  1  0
 11 10  2  0
 13 12  1  1
 13 14  1  0
 14 10  1  0
 15 13  1  0
 15 17  1  0
 16 15  2  0
 18 17  1  0
 18 29  1  0
 19 20  1  0
 18 19  1  6
 20 21  2  0
 22 21  1  0
 23 22  1  0
 24 23  2  0
 25 24  1  0
 26 25  2  0
 26 27  1  0
 27 28  2  0
 28 23  1  0
 28 20  1  0
 29 30  1  0
 31 29  2  0
M  END
$$$$
