FAW.pdb
     RDKit          3D

 31 33  0  0  1  0  0  0  0  0999 V2000
   26.5388  -22.1485  -17.5187 N   0  0  0  0  0  0  0  0  0  0  0  0
   25.7662  -21.4247  -16.5197 C   0  0  1  0  0  0  0  0  0  0  0  0
   24.5615  -22.3014  -16.1100 C   0  0  0  0  0  0  0  0  0  0  0  0
   23.5796  -22.1583  -17.2180 C   0  0  0  0  0  0  0  0  0  0  0  0
   23.0075  -20.9857  -17.6141 C   0  0  0  0  0  0  0  0  0  0  0  0
   22.0910  -20.9268  -18.6539 C   0  0  0  0  0  0  0  0  0  0  0  0
   21.7405  -22.1041  -19.3188 C   0  0  0  0  0  0  0  0  0  0  0  0
   22.3177  -23.2797  -18.9177 C   0  0  0  0  0  0  0  0  0  0  0  0
   23.2332  -23.3334  -17.8782 C   0  0  0  0  0  0  0  0  0  0  0  0
   26.5882  -21.2748  -15.3071 C   0  0  0  0  0  0  0  0  0  0  0  0
   27.1578  -22.2812  -14.8312 O   0  0  0  0  0  0  0  0  0  0  0  0
   27.5190  -18.3173  -13.1263 C   0  0  0  0  0  0  0  0  0  0  0  0
   27.3450  -19.7967  -13.4468 C   0  0  2  0  0  0  0  0  0  0  0  0
   26.7070  -19.9882  -14.7193 N   0  0  0  0  0  0  0  0  0  0  0  0
   26.5155  -20.3475  -12.3471 C   0  0  0  0  0  0  0  0  0  0  0  0
   25.2753  -20.4864  -12.5138 O   0  0  0  0  0  0  0  0  0  0  0  0
   27.0453  -20.7335  -11.0986 N   0  0  0  0  0  0  0  0  0  0  0  0
   26.1456  -21.0720   -9.9891 C   0  0  1  0  0  0  0  0  0  0  0  0
   26.9590  -21.5901   -8.8570 C   0  0  0  0  0  0  0  0  0  0  0  0
   27.4678  -20.5855   -7.9070 C   0  0  0  0  0  0  0  0  0  0  0  0
   27.1197  -19.2380   -7.8247 C   0  0  0  0  0  0  0  0  0  0  0  0
   27.8285  -18.6530   -6.8499 N   0  0  0  0  0  0  0  0  0  0  0  0
   28.6475  -19.5553   -6.2638 C   0  0  0  0  0  0  0  0  0  0  0  0
   29.5596  -19.4649   -5.2141 C   0  0  0  0  0  0  0  0  0  0  0  0
   30.2721  -20.5650   -4.7879 C   0  0  0  0  0  0  0  0  0  0  0  0
   30.0678  -21.7720   -5.4219 C   0  0  0  0  0  0  0  0  0  0  0  0
   29.1635  -21.8401   -6.4567 C   0  0  0  0  0  0  0  0  0  0  0  0
   28.4297  -20.7498   -6.9111 C   0  0  0  0  0  0  0  0  0  0  0  0
   25.2677  -19.9407   -9.7396 C   0  0  0  0  0  0  0  0  0  0  0  0
   24.0073  -20.1669   -9.1461 O   0  0  0  0  0  0  0  0  0  0  0  0
   25.5228  -18.7339  -10.0076 O   0  0  0  0  0  0  0  0  0  0  0  0
  2  1  1  6
  2  3  1  0
  3  4  1  0
  4  5  2  0
  5  6  1  0
  7  6  2  0
  8  7  1  0
  9  4  1  0
  9  8  2  0
 10  2  1  0
 11 10  2  0
 13 12  1  1
 13 14  1  0
 14 10  1  0
 15 13  1  0
 15 17  1  0
 16 15  2  0
 18 17  1  0
 18 29  1  0
 19 20  1  0
 18 19  1  1
 20 21  2  0
 22 21  1  0
 23 22  1  0
 24 23  2  0
 25 24  1  0
 26 25  2  0
 26 27  1  0
 27 28  2  0
 28 23  1  0
 28 20  1  0
 29 30  1  0
 31 29  2  0
M  END
$$$$
