FAW.pdb
     RDKit          3D

 31 33  0  0  1  0  0  0  0  0999 V2000
   21.0288  -22.3936  -12.0767 N   0  0  0  0  0  0  0  0  0  0  0  0
   21.6570  -22.3593  -13.3894 C   0  0  1  0  0  0  0  0  0  0  0  0
   20.5576  -22.1116  -14.4466 C   0  0  0  0  0  0  0  0  0  0  0  0
   19.7081  -23.3322  -14.4199 C   0  0  0  0  0  0  0  0  0  0  0  0
   20.0853  -24.5619  -14.8722 C   0  0  0  0  0  0  0  0  0  0  0  0
   19.2363  -25.6580  -14.8230 C   0  0  0  0  0  0  0  0  0  0  0  0
   17.9533  -25.5009  -14.2938 C   0  0  0  0  0  0  0  0  0  0  0  0
   17.5785  -24.2640  -13.8404 C   0  0  0  0  0  0  0  0  0  0  0  0
   18.4306  -23.1717  -13.8917 C   0  0  0  0  0  0  0  0  0  0  0  0
   22.5501  -21.1901  -13.4531 C   0  0  0  0  0  0  0  0  0  0  0  0
   23.1898  -20.9711  -14.5051 O   0  0  0  0  0  0  0  0  0  0  0  0
   23.0949  -18.1981  -11.2332 C   0  0  0  0  0  0  0  0  0  0  0  0
   23.5150  -19.1997  -12.3019 C   0  0  2  0  0  0  0  0  0  0  0  0
   22.6531  -20.3486  -12.3147 N   0  0  0  0  0  0  0  0  0  0  0  0
   24.9076  -19.5827  -11.9633 C   0  0  0  0  0  0  0  0  0  0  0  0
   25.8476  -18.7779  -12.1958 O   0  0  0  0  0  0  0  0  0  0  0  0
   25.2488  -20.8220  -11.3834 N   0  0  0  0  0  0  0  0  0  0  0  0
   26.6587  -21.1832  -11.1925 C   0  0  1  0  0  0  0  0  0  0  0  0
   26.8412  -21.6719   -9.7998 C   0  0  0  0  0  0  0  0  0  0  0  0
   26.7927  -20.6503   -8.7393 C   0  0  0  0  0  0  0  0  0  0  0  0
   26.1881  -19.3951   -8.7928 C   0  0  0  0  0  0  0  0  0  0  0  0
   26.3949  -18.7508   -7.6366 N   0  0  0  0  0  0  0  0  0  0  0  0
   27.1191  -19.5236   -6.7958 C   0  0  0  0  0  0  0  0  0  0  0  0
   27.5813  -19.3325   -5.4952 C   0  0  0  0  0  0  0  0  0  0  0  0
   28.3000  -20.3092   -4.8399 C   0  0  0  0  0  0  0  0  0  0  0  0
   28.5588  -21.4933   -5.4968 C   0  0  0  0  0  0  0  0  0  0  0  0
   28.0943  -21.6619   -6.7810 C   0  0  0  0  0  0  0  0  0  0  0  0
   27.3677  -20.6971   -7.4700 C   0  0  0  0  0  0  0  0  0  0  0  0
   27.0682  -22.0536  -12.2823 C   0  0  0  0  0  0  0  0  0  0  0  0
   28.4220  -22.4404  -12.3811 O   0  0  0  0  0  0  0  0  0  0  0  0
   26.3136  -22.5164  -13.1821 O   0  0  0  0  0  0  0  0  0  0  0  0
  2  1  1  1
  2  3  1  0
  3  4  1  0
  4  5  2  0
  5  6  1  0
  7  6  2  0
  8  7  1  0
  9  4  1  0
  9  8  2  0
 10  2  1  0
 11 10  2  0
 13 12  1  1
 13 14  1  0
 14 10  1  0
 15 13  1  0
 15 17  1  0
 16 15  2  0
 18 17  1  0
 18 29  1  0
 19 20  1  0
 18 19  1  1
 20 21  2  0
 22 21  1  0
 23 22  1  0
 24 23  2  0
 25 24  1  0
 26 25  2  0
 26 27  1  0
 27 28  2  0
 28 23  1  0
 28 20  1  0
 29 30  1  0
 31 29  2  0
M  END
$$$$
