FAW.pdb
     RDKit          3D

 31 33  0  0  1  0  0  0  0  0999 V2000
   23.9906  -17.6997  -16.9502 N   0  0  0  0  0  0  0  0  0  0  0  0
   24.6369  -17.7013  -15.6459 C   0  0  1  0  0  0  0  0  0  0  0  0
   23.6104  -18.1849  -14.5970 C   0  0  0  0  0  0  0  0  0  0  0  0
   22.5397  -17.1526  -14.5938 C   0  0  0  0  0  0  0  0  0  0  0  0
   21.2100  -17.3994  -14.7671 C   0  0  0  0  0  0  0  0  0  0  0  0
   20.2645  -16.3842  -14.7599 C   0  0  0  0  0  0  0  0  0  0  0  0
   20.6842  -15.0657  -14.5691 C   0  0  0  0  0  0  0  0  0  0  0  0
   22.0207  -14.8222  -14.3952 C   0  0  0  0  0  0  0  0  0  0  0  0
   22.9617  -15.8402  -14.4031 C   0  0  0  0  0  0  0  0  0  0  0  0
   25.7113  -18.7084  -15.6545 C   0  0  0  0  0  0  0  0  0  0  0  0
   25.6089  -19.6993  -16.4105 O   0  0  0  0  0  0  0  0  0  0  0  0
   29.1778  -18.7745  -14.1596 C   0  0  0  0  0  0  0  0  0  0  0  0
   27.9655  -19.3973  -14.8408 C   0  0  2  0  0  0  0  0  0  0  0  0
   26.8304  -18.5180  -14.8024 N   0  0  0  0  0  0  0  0  0  0  0  0
   27.6922  -20.6520  -14.0978 C   0  0  0  0  0  0  0  0  0  0  0  0
   28.5417  -21.5812  -14.1134 O   0  0  0  0  0  0  0  0  0  0  0  0
   26.5114  -20.8706  -13.3586 N   0  0  0  0  0  0  0  0  0  0  0  0
   26.2894  -22.1573  -12.6878 C   0  0  1  0  0  0  0  0  0  0  0  0
   27.0718  -22.1768  -11.4232 C   0  0  0  0  0  0  0  0  0  0  0  0
   26.6299  -21.2470  -10.3693 C   0  0  0  0  0  0  0  0  0  0  0  0
   25.3970  -20.6050  -10.2621 C   0  0  0  0  0  0  0  0  0  0  0  0
   25.3984  -19.8144   -9.1805 N   0  0  0  0  0  0  0  0  0  0  0  0
   26.5896  -19.8956   -8.5457 C   0  0  0  0  0  0  0  0  0  0  0  0
   27.0896  -19.2985   -7.3902 C   0  0  0  0  0  0  0  0  0  0  0  0
   28.3624  -19.5708   -6.9368 C   0  0  0  0  0  0  0  0  0  0  0  0
   29.1445  -20.4534   -7.6507 C   0  0  0  0  0  0  0  0  0  0  0  0
   28.6325  -21.0317   -8.7894 C   0  0  0  0  0  0  0  0  0  0  0  0
   27.3540  -20.7781   -9.2739 C   0  0  0  0  0  0  0  0  0  0  0  0
   24.8586  -22.4017  -12.6111 C   0  0  0  0  0  0  0  0  0  0  0  0
   24.3995  -23.6633  -12.1754 O   0  0  0  0  0  0  0  0  0  0  0  0
   23.9508  -21.5751  -12.9038 O   0  0  0  0  0  0  0  0  0  0  0  0
  2  1  1  6
  2  3  1  0
  3  4  1  0
  4  5  2  0
  5  6  1  0
  7  6  2  0
  8  7  1  0
  9  4  1  0
  9  8  2  0
 10  2  1  0
 11 10  2  0
 13 12  1  1
 13 14  1  0
 14 10  1  0
 15 13  1  0
 15 17  1  0
 16 15  2  0
 18 17  1  0
 18 29  1  0
 19 20  1  0
 18 19  1  1
 20 21  2  0
 22 21  1  0
 23 22  1  0
 24 23  2  0
 25 24  1  0
 26 25  2  0
 26 27  1  0
 27 28  2  0
 28 23  1  0
 28 20  1  0
 29 30  1  0
 31 29  2  0
M  END
$$$$
