FAW.pdb
     RDKit          3D

 31 33  0  0  1  0  0  0  0  0999 V2000
   25.5159  -17.8675  -15.9237 N   0  0  0  0  0  0  0  0  0  0  0  0
   26.3747  -18.5079  -14.9382 C   0  0  1  0  0  0  0  0  0  0  0  0
   27.2880  -17.4276  -14.3163 C   0  0  0  0  0  0  0  0  0  0  0  0
   28.3225  -17.1496  -15.3482 C   0  0  0  0  0  0  0  0  0  0  0  0
   28.3425  -16.0593  -16.1667 C   0  0  0  0  0  0  0  0  0  0  0  0
   29.3371  -15.8670  -17.1146 C   0  0  0  0  0  0  0  0  0  0  0  0
   30.3522  -16.8186  -17.2375 C   0  0  0  0  0  0  0  0  0  0  0  0
   30.3283  -17.9122  -16.4132 C   0  0  0  0  0  0  0  0  0  0  0  0
   29.3323  -18.0998  -15.4674 C   0  0  0  0  0  0  0  0  0  0  0  0
   25.5349  -19.0100  -13.8377 C   0  0  0  0  0  0  0  0  0  0  0  0
   24.7971  -18.2092  -13.2227 O   0  0  0  0  0  0  0  0  0  0  0  0
   24.2054  -22.2849  -12.8200 C   0  0  0  0  0  0  0  0  0  0  0  0
   24.8186  -20.9440  -12.4360 C   0  0  2  0  0  0  0  0  0  0  0  0
   25.5913  -20.3906  -13.5129 N   0  0  0  0  0  0  0  0  0  0  0  0
   25.6730  -21.2204  -11.2551 C   0  0  0  0  0  0  0  0  0  0  0  0
   26.8770  -21.5487  -11.4222 O   0  0  0  0  0  0  0  0  0  0  0  0
   25.2065  -21.1352   -9.9270 N   0  0  0  0  0  0  0  0  0  0  0  0
   26.1086  -21.4351   -8.8084 C   0  0  1  0  0  0  0  0  0  0  0  0
   27.2935  -20.5410   -8.8988 C   0  0  0  0  0  0  0  0  0  0  0  0
   27.4912  -19.6059   -7.7776 C   0  0  0  0  0  0  0  0  0  0  0  0
   26.9898  -18.3112   -7.6498 C   0  0  0  0  0  0  0  0  0  0  0  0
   27.4228  -17.7767   -6.5002 N   0  0  0  0  0  0  0  0  0  0  0  0
   28.2017  -18.6625   -5.8389 C   0  0  0  0  0  0  0  0  0  0  0  0
   28.8714  -18.6081   -4.6181 C   0  0  0  0  0  0  0  0  0  0  0  0
   29.5997  -19.6815   -4.1525 C   0  0  0  0  0  0  0  0  0  0  0  0
   29.6577  -20.8250   -4.9204 C   0  0  0  0  0  0  0  0  0  0  0  0
   28.9901  -20.8583   -6.1231 C   0  0  0  0  0  0  0  0  0  0  0  0
   28.2477  -19.7933   -6.6215 C   0  0  0  0  0  0  0  0  0  0  0  0
   25.3391  -21.4290   -7.5752 C   0  0  0  0  0  0  0  0  0  0  0  0
   24.1023  -20.7498   -7.5404 O   0  0  0  0  0  0  0  0  0  0  0  0
   25.6726  -21.9868   -6.4932 O   0  0  0  0  0  0  0  0  0  0  0  0
  2  1  1  6
  2  3  1  0
  3  4  1  0
  4  5  2  0
  5  6  1  0
  7  6  2  0
  8  7  1  0
  9  4  1  0
  9  8  2  0
 10  2  1  0
 11 10  2  0
 13 12  1  6
 13 14  1  0
 14 10  1  0
 15 13  1  0
 15 17  1  0
 16 15  2  0
 18 17  1  0
 18 29  1  0
 19 20  1  0
 18 19  1  1
 20 21  2  0
 22 21  1  0
 23 22  1  0
 24 23  2  0
 25 24  1  0
 26 25  2  0
 26 27  1  0
 27 28  2  0
 28 23  1  0
 28 20  1  0
 29 30  1  0
 31 29  2  0
M  END
$$$$
