SFK.pdb
     RDKit          3D

 27 27  0  0  1  0  0  0  0  0999 V2000
   28.0806  -20.1053  -18.6445 O   0  0  0  0  0  0  0  0  0  0  0  0
   27.2014  -20.7821  -17.8035 C   0  0  0  0  0  0  0  0  0  0  0  0
   27.9859  -21.4702  -16.6861 C   0  0  2  0  0  0  0  0  0  0  0  0
   28.6281  -22.6485  -17.1707 N   0  0  0  0  0  0  0  0  0  0  0  0
   27.1096  -21.7288  -15.5131 C   0  0  0  0  0  0  0  0  0  0  0  0
   26.7801  -22.9074  -15.2133 O   0  0  0  0  0  0  0  0  0  0  0  0
   26.6096  -20.6853  -14.6882 N   0  0  0  0  0  0  0  0  0  0  0  0
   25.8426  -21.0001  -13.5247 C   0  0  1  0  0  0  0  0  0  0  0  0
   26.1853  -20.1156  -12.3417 C   0  0  0  0  0  0  0  0  0  0  0  0
   27.4250  -20.5338  -11.6625 C   0  0  0  0  0  0  0  0  0  0  0  0
   27.4347  -21.2156  -10.4613 C   0  0  0  0  0  0  0  0  0  0  0  0
   28.6268  -21.5931   -9.8511 C   0  0  0  0  0  0  0  0  0  0  0  0
   29.8468  -21.3009  -10.4226 C   0  0  0  0  0  0  0  0  0  0  0  0
   29.8414  -20.6204  -11.6217 C   0  0  0  0  0  0  0  0  0  0  0  0
   28.6556  -20.2495  -12.2204 C   0  0  0  0  0  0  0  0  0  0  0  0
   24.4004  -20.7848  -13.7981 C   0  0  0  0  0  0  0  0  0  0  0  0
   24.0665  -19.7752  -14.4572 O   0  0  0  0  0  0  0  0  0  0  0  0
   23.3881  -21.6713  -13.3458 N   0  0  0  0  0  0  0  0  0  0  0  0
   21.9573  -21.4432  -13.6007 C   0  0  1  0  0  0  0  0  0  0  0  0
   21.1759  -22.6849  -13.3660 C   0  0  0  0  0  0  0  0  0  0  0  0
   19.7101  -22.4412  -13.5019 C   0  0  0  0  0  0  0  0  0  0  0  0
   18.9091  -23.7221  -13.2600 C   0  0  0  0  0  0  0  0  0  0  0  0
   17.4289  -23.4879  -13.4388 C   0  0  0  0  0  0  0  0  0  0  0  0
   16.7005  -24.7251  -13.3138 N   0  0  0  0  0  0  0  0  0  0  0  0
   21.5405  -20.3610  -12.7138 C   0  0  0  0  0  0  0  0  0  0  0  0
   22.0929  -20.1523  -11.6220 O   0  0  0  0  0  0  0  0  0  0  0  0
   20.5009  -19.5248  -13.0730 O   0  0  0  0  0  0  0  0  0  0  0  0
  2  1  1  0
  3  2  1  0
  3  4  1  6
  5  3  1  0
  5  7  1  0
  6  5  2  0
  8  7  1  0
  8  9  1  1
 10  9  1  0
 10 15  2  0
 11 10  1  0
 12 11  2  0
 12 13  1  0
 13 14  2  0
 14 15  1  0
 16  8  1  0
 17 16  2  0
 18 16  1  0
 19 20  1  1
 19 18  1  0
 21 20  1  0
 22 21  1  0
 23 22  1  0
 24 23  1  0
 25 19  1  0
 26 25  2  0
 27 25  1  0
M  END
$$$$
