SFK.pdb
     RDKit          3D

 27 27  0  0  1  0  0  0  0  0999 V2000
   27.0625  -18.3704  -15.2480 O   0  0  0  0  0  0  0  0  0  0  0  0
   28.0199  -18.3357  -14.2378 C   0  0  0  0  0  0  0  0  0  0  0  0
   28.3683  -19.7617  -13.8106 C   0  0  2  0  0  0  0  0  0  0  0  0
   28.9511  -20.4857  -14.8931 N   0  0  0  0  0  0  0  0  0  0  0  0
   27.1785  -20.4412  -13.2331 C   0  0  0  0  0  0  0  0  0  0  0  0
   26.6995  -21.4655  -13.7888 O   0  0  0  0  0  0  0  0  0  0  0  0
   26.5347  -19.9821  -12.0525 N   0  0  0  0  0  0  0  0  0  0  0  0
   25.4679  -20.7405  -11.4799 C   0  0  1  0  0  0  0  0  0  0  0  0
   25.1972  -20.3698  -10.0347 C   0  0  0  0  0  0  0  0  0  0  0  0
   26.4202  -20.3692   -9.2117 C   0  0  0  0  0  0  0  0  0  0  0  0
   26.6154  -19.5074   -8.1500 C   0  0  0  0  0  0  0  0  0  0  0  0
   27.7849  -19.5377   -7.3967 C   0  0  0  0  0  0  0  0  0  0  0  0
   28.7960  -20.4306   -7.6812 C   0  0  0  0  0  0  0  0  0  0  0  0
   28.6050  -21.2925   -8.7402 C   0  0  0  0  0  0  0  0  0  0  0  0
   27.4430  -21.2564   -9.4822 C   0  0  0  0  0  0  0  0  0  0  0  0
   24.2083  -20.4756  -12.2178 C   0  0  0  0  0  0  0  0  0  0  0  0
   24.0733  -19.3665  -12.7805 O   0  0  0  0  0  0  0  0  0  0  0  0
   23.1550  -21.4226  -12.3119 N   0  0  0  0  0  0  0  0  0  0  0  0
   21.9523  -21.1978  -13.1288 C   0  0  1  0  0  0  0  0  0  0  0  0
   21.7333  -22.3292  -14.0665 C   0  0  0  0  0  0  0  0  0  0  0  0
   20.5540  -22.0871  -14.9479 C   0  0  0  0  0  0  0  0  0  0  0  0
   19.6308  -23.3065  -14.9882 C   0  0  0  0  0  0  0  0  0  0  0  0
   18.4516  -23.0745  -15.9012 C   0  0  0  0  0  0  0  0  0  0  0  0
   17.5337  -24.1835  -15.8367 N   0  0  0  0  0  0  0  0  0  0  0  0
   20.8380  -21.0366  -12.1993 C   0  0  0  0  0  0  0  0  0  0  0  0
   20.5646  -21.8915  -11.3419 O   0  0  0  0  0  0  0  0  0  0  0  0
   20.0436  -19.9073  -12.2504 O   0  0  0  0  0  0  0  0  0  0  0  0
  2  1  1  0
  3  2  1  0
  3  4  1  6
  5  3  1  0
  5  7  1  0
  6  5  2  0
  8  7  1  0
  8  9  1  1
 10  9  1  0
 10 15  2  0
 11 10  1  0
 12 11  2  0
 12 13  1  0
 13 14  2  0
 14 15  1  0
 16  8  1  0
 17 16  2  0
 18 16  1  0
 19 20  1  6
 19 18  1  0
 21 20  1  0
 22 21  1  0
 23 22  1  0
 24 23  1  0
 25 19  1  0
 26 25  2  0
 27 25  1  0
M  END
$$$$
