SFK.pdb
     RDKit          3D

 27 27  0  0  1  0  0  0  0  0999 V2000
   10.5690  -10.7769  -11.4699 O   0  0  0  0  0  0  0  0  0  0  0  0
   11.5122   -9.7542  -11.5237 C   0  0  0  0  0  0  0  0  0  0  0  0
   12.9190  -10.3525  -11.5376 C   0  0  2  0  0  0  0  0  0  0  0  0
   12.9528  -11.5818  -10.8141 N   0  0  0  0  0  0  0  0  0  0  0  0
   13.9141   -9.3633  -11.0456 C   0  0  0  0  0  0  0  0  0  0  0  0
   14.4411   -9.5029   -9.9097 O   0  0  0  0  0  0  0  0  0  0  0  0
   14.3135   -8.2355  -11.8124 N   0  0  0  0  0  0  0  0  0  0  0  0
   15.3362   -7.3658  -11.3237 C   0  0  1  0  0  0  0  0  0  0  0  0
   16.3167   -6.9518  -12.4037 C   0  0  0  0  0  0  0  0  0  0  0  0
   17.0439   -8.0984  -12.9779 C   0  0  0  0  0  0  0  0  0  0  0  0
   16.5639   -8.8429  -14.0376 C   0  0  0  0  0  0  0  0  0  0  0  0
   17.2806   -9.9190  -14.5517 C   0  0  0  0  0  0  0  0  0  0  0  0
   18.4998  -10.2847  -14.0224 C   0  0  0  0  0  0  0  0  0  0  0  0
   18.9824   -9.5440  -12.9644 C   0  0  0  0  0  0  0  0  0  0  0  0
   18.2662   -8.4786  -12.4604 C   0  0  0  0  0  0  0  0  0  0  0  0
   14.7298   -6.1118  -10.8128 C   0  0  0  0  0  0  0  0  0  0  0  0
   13.9001   -5.5173  -11.5360 O   0  0  0  0  0  0  0  0  0  0  0  0
   15.0497   -5.5606   -9.5443 N   0  0  0  0  0  0  0  0  0  0  0  0
   14.3934   -4.3572   -9.0102 C   0  0  1  0  0  0  0  0  0  0  0  0
   14.1681   -4.4853   -7.5472 C   0  0  0  0  0  0  0  0  0  0  0  0
   13.5173   -3.2654   -6.9863 C   0  0  0  0  0  0  0  0  0  0  0  0
   13.3326   -3.3806   -5.4719 C   0  0  0  0  0  0  0  0  0  0  0  0
   12.7413   -2.1191   -4.8917 C   0  0  0  0  0  0  0  0  0  0  0  0
   12.5283   -2.2637   -3.4739 N   0  0  0  0  0  0  0  0  0  0  0  0
   15.2617   -3.2283   -9.3312 C   0  0  0  0  0  0  0  0  0  0  0  0
   14.8128   -2.0930   -9.5556 O   0  0  0  0  0  0  0  0  0  0  0  0
   16.6316   -3.3968   -9.3948 O   0  0  0  0  0  0  0  0  0  0  0  0
  2  1  1  0
  3  2  1  0
  3  4  1  1
  5  3  1  0
  5  7  1  0
  6  5  2  0
  8  7  1  0
  8  9  1  6
 10  9  1  0
 10 15  2  0
 11 10  1  0
 12 11  2  0
 12 13  1  0
 13 14  2  0
 14 15  1  0
 16  8  1  0
 17 16  2  0
 18 16  1  0
 19 20  1  1
 19 18  1  0
 21 20  1  0
 22 21  1  0
 23 22  1  0
 24 23  1  0
 25 19  1  0
 26 25  2  0
 27 25  1  0
M  END
$$$$
