SFK.pdb
     RDKit          3D

 27 27  0  0  1  0  0  0  0  0999 V2000
   26.7781  -21.2254  -18.9148 O   0  0  0  0  0  0  0  0  0  0  0  0
   28.0020  -20.7121  -18.4940 C   0  0  0  0  0  0  0  0  0  0  0  0
   28.6658  -21.6931  -17.5273 C   0  0  2  0  0  0  0  0  0  0  0  0
   28.9614  -22.9260  -18.1818 N   0  0  0  0  0  0  0  0  0  0  0  0
   27.8347  -21.8698  -16.3071 C   0  0  0  0  0  0  0  0  0  0  0  0
   27.3373  -22.9948  -16.0341 O   0  0  0  0  0  0  0  0  0  0  0  0
   27.5641  -20.8046  -15.4063 N   0  0  0  0  0  0  0  0  0  0  0  0
   26.8249  -21.0522  -14.2091 C   0  0  1  0  0  0  0  0  0  0  0  0
   27.1166  -20.0368  -13.1214 C   0  0  0  0  0  0  0  0  0  0  0  0
   26.3981  -20.3280  -11.8676 C   0  0  0  0  0  0  0  0  0  0  0  0
   26.8795  -21.1939  -10.9051 C   0  0  0  0  0  0  0  0  0  0  0  0
   26.1711  -21.4429   -9.7338 C   0  0  0  0  0  0  0  0  0  0  0  0
   24.9589  -20.8341   -9.4878 C   0  0  0  0  0  0  0  0  0  0  0  0
   24.4750  -19.9690  -10.4461 C   0  0  0  0  0  0  0  0  0  0  0  0
   25.1831  -19.7273  -11.6047 C   0  0  0  0  0  0  0  0  0  0  0  0
   25.3704  -20.9559  -14.4856 C   0  0  0  0  0  0  0  0  0  0  0  0
   24.9745  -20.0676  -15.2725 O   0  0  0  0  0  0  0  0  0  0  0  0
   24.4137  -21.8246  -13.8982 N   0  0  0  0  0  0  0  0  0  0  0  0
   22.9773  -21.7536  -14.2076 C   0  0  1  0  0  0  0  0  0  0  0  0
   22.3821  -23.1139  -14.2616 C   0  0  0  0  0  0  0  0  0  0  0  0
   20.9099  -23.0565  -14.4973 C   0  0  0  0  0  0  0  0  0  0  0  0
   20.3115  -24.4594  -14.6187 C   0  0  0  0  0  0  0  0  0  0  0  0
   18.8136  -24.4057  -14.7957 C   0  0  0  0  0  0  0  0  0  0  0  0
   18.2696  -25.7340  -14.9235 N   0  0  0  0  0  0  0  0  0  0  0  0
   22.3644  -20.9314  -13.1684 C   0  0  0  0  0  0  0  0  0  0  0  0
   22.7049  -21.0108  -11.9774 O   0  0  0  0  0  0  0  0  0  0  0  0
   21.3710  -20.0263  -13.4891 O   0  0  0  0  0  0  0  0  0  0  0  0
  2  1  1  0
  3  2  1  0
  3  4  1  6
  5  3  1  0
  5  7  1  0
  6  5  2  0
  8  7  1  0
  8  9  1  1
 10  9  1  0
 10 15  2  0
 11 10  1  0
 12 11  2  0
 12 13  1  0
 13 14  2  0
 14 15  1  0
 16  8  1  0
 17 16  2  0
 18 16  1  0
 19 20  1  1
 19 18  1  0
 21 20  1  0
 22 21  1  0
 23 22  1  0
 24 23  1  0
 25 19  1  0
 26 25  2  0
 27 25  1  0
M  END
$$$$
