SFK.pdb
     RDKit          3D

 27 27  0  0  1  0  0  0  0  0999 V2000
   15.5710   -8.4661  -15.9400 O   0  0  0  0  0  0  0  0  0  0  0  0
   16.6733   -7.6215  -15.8393 C   0  0  0  0  0  0  0  0  0  0  0  0
   17.8628   -8.3945  -15.2695 C   0  0  2  0  0  0  0  0  0  0  0  0
   17.7343   -9.7900  -15.5376 N   0  0  0  0  0  0  0  0  0  0  0  0
   18.0374   -8.0963  -13.8233 C   0  0  0  0  0  0  0  0  0  0  0  0
   17.7544   -8.9655  -12.9563 O   0  0  0  0  0  0  0  0  0  0  0  0
   18.5211   -6.8451  -13.3544 N   0  0  0  0  0  0  0  0  0  0  0  0
   18.6785   -6.6204  -11.9523 C   0  0  1  0  0  0  0  0  0  0  0  0
   20.0627   -6.1164  -11.5929 C   0  0  0  0  0  0  0  0  0  0  0  0
   21.1016   -7.1494  -11.7567 C   0  0  0  0  0  0  0  0  0  0  0  0
   21.3983   -8.0829  -10.7829 C   0  0  0  0  0  0  0  0  0  0  0  0
   22.3870   -9.0427  -10.9754 C   0  0  0  0  0  0  0  0  0  0  0  0
   23.1103   -9.0995  -12.1477 C   0  0  0  0  0  0  0  0  0  0  0  0
   22.8171   -8.1693  -13.1222 C   0  0  0  0  0  0  0  0  0  0  0  0
   21.8356   -7.2210  -12.9239 C   0  0  0  0  0  0  0  0  0  0  0  0
   17.7273   -5.5759  -11.4992 C   0  0  0  0  0  0  0  0  0  0  0  0
   17.4800   -4.6240  -12.2724 O   0  0  0  0  0  0  0  0  0  0  0  0
   17.0891   -5.6104  -10.2317 N   0  0  0  0  0  0  0  0  0  0  0  0
   16.0144   -4.6790   -9.8553 C   0  0  1  0  0  0  0  0  0  0  0  0
   15.3295   -5.1369   -8.6189 C   0  0  0  0  0  0  0  0  0  0  0  0
   14.1971   -4.2354   -8.2564 C   0  0  0  0  0  0  0  0  0  0  0  0
   13.4441   -4.7546   -7.0299 C   0  0  0  0  0  0  0  0  0  0  0  0
   12.2896   -3.8518   -6.6696 C   0  0  0  0  0  0  0  0  0  0  0  0
   11.5703   -4.3755   -5.5361 N   0  0  0  0  0  0  0  0  0  0  0  0
   16.6360   -3.3695   -9.6810 C   0  0  0  0  0  0  0  0  0  0  0  0
   16.0213   -2.3130   -9.8966 O   0  0  0  0  0  0  0  0  0  0  0  0
   17.9493   -3.2698   -9.2635 O   0  0  0  0  0  0  0  0  0  0  0  0
  2  1  1  0
  3  2  1  0
  3  4  1  1
  5  3  1  0
  5  7  1  0
  6  5  2  0
  8  7  1  0
  8  9  1  6
 10  9  1  0
 10 15  2  0
 11 10  1  0
 12 11  2  0
 12 13  1  0
 13 14  2  0
 14 15  1  0
 16  8  1  0
 17 16  2  0
 18 16  1  0
 19 20  1  1
 19 18  1  0
 21 20  1  0
 22 21  1  0
 23 22  1  0
 24 23  1  0
 25 19  1  0
 26 25  2  0
 27 25  1  0
M  END
$$$$
