SFK.pdb
     RDKit          3D

 27 27  0  0  1  0  0  0  0  0999 V2000
   28.1108  -20.6883  -19.3335 O   0  0  0  0  0  0  0  0  0  0  0  0
   27.2753  -21.3473  -18.4358 C   0  0  0  0  0  0  0  0  0  0  0  0
   28.0840  -21.8045  -17.2216 C   0  0  2  0  0  0  0  0  0  0  0  0
   28.8460  -22.9704  -17.5315 N   0  0  0  0  0  0  0  0  0  0  0  0
   27.1988  -21.9879  -16.0411 C   0  0  0  0  0  0  0  0  0  0  0  0
   26.8050  -23.1394  -15.7146 O   0  0  0  0  0  0  0  0  0  0  0  0
   26.7609  -20.9002  -15.2384 N   0  0  0  0  0  0  0  0  0  0  0  0
   25.9376  -21.1419  -14.0960 C   0  0  1  0  0  0  0  0  0  0  0  0
   26.1062  -20.0866  -13.0203 C   0  0  0  0  0  0  0  0  0  0  0  0
   25.3501  -20.4018  -11.7946 C   0  0  0  0  0  0  0  0  0  0  0  0
   24.0467  -19.9952  -11.5861 C   0  0  0  0  0  0  0  0  0  0  0  0
   23.3664  -20.3128  -10.4146 C   0  0  0  0  0  0  0  0  0  0  0  0
   23.9679  -21.0469   -9.4147 C   0  0  0  0  0  0  0  0  0  0  0  0
   25.2690  -21.4546   -9.6191 C   0  0  0  0  0  0  0  0  0  0  0  0
   25.9367  -21.1359  -10.7830 C   0  0  0  0  0  0  0  0  0  0  0  0
   24.5074  -21.1072  -14.4890 C   0  0  0  0  0  0  0  0  0  0  0  0
   24.1251  -20.1943  -15.2542 O   0  0  0  0  0  0  0  0  0  0  0  0
   23.5589  -22.0612  -14.0358 N   0  0  0  0  0  0  0  0  0  0  0  0
   22.1510  -22.0493  -14.4620 C   0  0  1  0  0  0  0  0  0  0  0  0
   21.6725  -23.4285  -14.7383 C   0  0  0  0  0  0  0  0  0  0  0  0
   20.4750  -23.4228  -15.6283 C   0  0  0  0  0  0  0  0  0  0  0  0
   19.9539  -24.8412  -15.8678 C   0  0  0  0  0  0  0  0  0  0  0  0
   18.8793  -24.8614  -16.9274 C   0  0  0  0  0  0  0  0  0  0  0  0
   18.5260  -26.2168  -17.2663 N   0  0  0  0  0  0  0  0  0  0  0  0
   21.3928  -21.4142  -13.3881 C   0  0  0  0  0  0  0  0  0  0  0  0
   20.5612  -20.5191  -13.6070 O   0  0  0  0  0  0  0  0  0  0  0  0
   21.5844  -21.7999  -12.0752 O   0  0  0  0  0  0  0  0  0  0  0  0
  2  1  1  0
  3  2  1  0
  3  4  1  6
  5  3  1  0
  5  7  1  0
  6  5  2  0
  8  7  1  0
  8  9  1  1
 10  9  1  0
 10 15  2  0
 11 10  1  0
 12 11  2  0
 12 13  1  0
 13 14  2  0
 14 15  1  0
 16  8  1  0
 17 16  2  0
 18 16  1  0
 19 20  1  1
 19 18  1  0
 21 20  1  0
 22 21  1  0
 23 22  1  0
 24 23  1  0
 25 19  1  0
 26 25  2  0
 27 25  1  0
M  END
$$$$
