YVQ.pdb
     RDKit          3D

 29 29  0  0  1  0  0  0  0  0999 V2000
   12.9675  -15.1679  -17.7877 O   0  0  0  0  0  0  0  0  0  0  0  0
   13.7073  -14.1293  -17.2241 C   0  0  0  0  0  0  0  0  0  0  0  0
   14.6105  -13.4163  -17.9823 C   0  0  0  0  0  0  0  0  0  0  0  0
   15.3426  -12.3809  -17.4046 C   0  0  0  0  0  0  0  0  0  0  0  0
   15.1778  -12.0538  -16.0725 C   0  0  0  0  0  0  0  0  0  0  0  0
   15.9744  -10.9455  -15.4894 C   0  0  0  0  0  0  0  0  0  0  0  0
   17.4239  -11.3662  -15.4651 C   0  0  2  0  0  0  0  0  0  0  0  0
   17.5606  -12.4630  -14.5393 N   0  0  0  0  0  0  0  0  0  0  0  0
   18.2086  -10.1768  -14.9819 C   0  0  0  0  0  0  0  0  0  0  0  0
   18.0950   -9.8068  -13.7921 O   0  0  0  0  0  0  0  0  0  0  0  0
   14.2675  -12.7894  -15.3527 C   0  0  0  0  0  0  0  0  0  0  0  0
   13.5313  -13.8155  -15.8954 C   0  0  0  0  0  0  0  0  0  0  0  0
   22.2691   -7.6187  -15.9125 C   0  0  0  0  0  0  0  0  0  0  0  0
   21.3408   -8.7975  -15.9117 C   0  0  1  0  0  0  0  0  0  0  0  0
   21.9083  -10.0122  -15.2793 C   0  0  0  0  0  0  0  0  0  0  0  0
   19.9632   -8.3973  -15.4237 C   0  0  2  0  0  0  0  0  0  0  0  0
   19.0724   -9.4782  -15.8654 N   0  0  0  0  0  0  0  0  0  0  0  0
   19.5082   -7.1231  -16.0793 C   0  0  0  0  0  0  0  0  0  0  0  0
   19.3177   -7.0795  -17.3373 O   0  0  0  0  0  0  0  0  0  0  0  0
   15.2720   -3.2271  -14.6017 N   0  0  0  0  0  0  0  0  0  0  0  0
   15.9832   -2.4146  -15.5217 C   0  0  0  0  0  0  0  0  0  0  0  0
   15.4027   -1.4390  -16.0302 O   0  0  0  0  0  0  0  0  0  0  0  0
   17.3872   -2.6871  -15.8959 C   0  0  0  0  0  0  0  0  0  0  0  0
   17.9174   -3.8808  -15.1662 C   0  0  0  0  0  0  0  0  0  0  0  0
   18.7277   -4.7717  -16.0600 C   0  0  2  0  0  0  0  0  0  0  0  0
   19.2682   -5.9260  -15.3655 N   0  0  0  0  0  0  0  0  0  0  0  0
   19.8866   -3.9645  -16.5577 C   0  0  0  0  0  0  0  0  0  0  0  0
   19.7062   -3.0161  -17.5525 O   0  0  0  0  0  0  0  0  0  0  0  0
   21.0433   -4.1148  -16.0992 O   0  0  0  0  0  0  0  0  0  0  0  0
  2  1  1  0
  3  2  2  0
  4  3  1  0
  5  4  2  0
  5 11  1  0
  6  5  1  0
  7  9  1  0
  7  6  1  0
  7  8  1  1
  9 17  1  0
 10  9  2  0
 11 12  2  0
 12  2  1  0
 14 13  1  1
 14 15  1  0
 16 14  1  0
 16 18  1  0
 16 17  1  6
 18 26  1  0
 18 19  2  0
 20 21  1  0
 21 23  1  0
 22 21  2  0
 23 24  1  0
 25 24  1  1
 25 27  1  0
 26 25  1  0
 27 29  2  0
 27 28  1  0
M  END
$$$$
