YVQ.pdb
     RDKit          3D

 29 29  0  0  1  0  0  0  0  0999 V2000
   25.1582  -25.2025  -13.3345 O   0  0  0  0  0  0  0  0  0  0  0  0
   24.5350  -23.9615  -13.4582 C   0  0  0  0  0  0  0  0  0  0  0  0
   23.4945  -23.7815  -14.3436 C   0  0  0  0  0  0  0  0  0  0  0  0
   22.8817  -22.5351  -14.4559 C   0  0  0  0  0  0  0  0  0  0  0  0
   23.3031  -21.4664  -13.6884 C   0  0  0  0  0  0  0  0  0  0  0  0
   22.6282  -20.1525  -13.8339 C   0  0  0  0  0  0  0  0  0  0  0  0
   23.0266  -19.5604  -15.1640 C   0  0  2  0  0  0  0  0  0  0  0  0
   24.4297  -19.2330  -15.1108 N   0  0  0  0  0  0  0  0  0  0  0  0
   22.2072  -18.3110  -15.3410 C   0  0  0  0  0  0  0  0  0  0  0  0
   22.4889  -17.2907  -14.6738 O   0  0  0  0  0  0  0  0  0  0  0  0
   24.3431  -21.6889  -12.8185 C   0  0  0  0  0  0  0  0  0  0  0  0
   24.9664  -22.9067  -12.6860 C   0  0  0  0  0  0  0  0  0  0  0  0
   19.9761  -15.5890  -18.5450 C   0  0  0  0  0  0  0  0  0  0  0  0
   20.8043  -16.7164  -18.0026 C   0  0  1  0  0  0  0  0  0  0  0  0
   22.2628  -16.5465  -18.2069 C   0  0  0  0  0  0  0  0  0  0  0  0
   20.3847  -17.0601  -16.5878 C   0  0  2  0  0  0  0  0  0  0  0  0
   21.1233  -18.2857  -16.2571 N   0  0  0  0  0  0  0  0  0  0  0  0
   18.9152  -17.3711  -16.5218 C   0  0  0  0  0  0  0  0  0  0  0  0
   18.4079  -18.2467  -17.2943 O   0  0  0  0  0  0  0  0  0  0  0  0
   16.9871  -20.9527  -14.8723 N   0  0  0  0  0  0  0  0  0  0  0  0
   16.2780  -19.9578  -14.1514 C   0  0  0  0  0  0  0  0  0  0  0  0
   15.1132  -20.1994  -13.7878 O   0  0  0  0  0  0  0  0  0  0  0  0
   16.8746  -18.6469  -13.8183 C   0  0  0  0  0  0  0  0  0  0  0  0
   16.0594  -17.5253  -14.3806 C   0  0  0  0  0  0  0  0  0  0  0  0
   16.6075  -17.0320  -15.6865 C   0  0  2  0  0  0  0  0  0  0  0  0
   18.0266  -16.7330  -15.6255 N   0  0  0  0  0  0  0  0  0  0  0  0
   15.8940  -15.7566  -16.0132 C   0  0  0  0  0  0  0  0  0  0  0  0
   16.6043  -14.5785  -16.1845 O   0  0  0  0  0  0  0  0  0  0  0  0
   14.6483  -15.7095  -16.1419 O   0  0  0  0  0  0  0  0  0  0  0  0
  2  1  1  0
  3  2  2  0
  4  3  1  0
  5  4  2  0
  5 11  1  0
  6  5  1  0
  7  9  1  0
  7  6  1  0
  7  8  1  1
  9 17  1  0
 10  9  2  0
 11 12  2  0
 12  2  1  0
 14 13  1  1
 14 15  1  0
 16 14  1  0
 16 18  1  0
 16 17  1  6
 18 26  1  0
 18 19  2  0
 20 21  1  0
 21 23  1  0
 22 21  2  0
 23 24  1  0
 25 24  1  1
 25 27  1  0
 26 25  1  0
 27 29  2  0
 27 28  1  0
M  END
$$$$
