YVQ.pdb
     RDKit          3D

 29 29  0  0  1  0  0  0  0  0999 V2000
   27.2942  -31.9102  -20.6011 O   0  0  0  0  0  0  0  0  0  0  0  0
   27.3896  -30.7956  -19.7692 C   0  0  0  0  0  0  0  0  0  0  0  0
   27.4672  -30.9427  -18.4012 C   0  0  0  0  0  0  0  0  0  0  0  0
   27.5621  -29.8189  -17.5828 C   0  0  0  0  0  0  0  0  0  0  0  0
   27.5795  -28.5477  -18.1236 C   0  0  0  0  0  0  0  0  0  0  0  0
   27.6810  -27.3727  -17.2226 C   0  0  0  0  0  0  0  0  0  0  0  0
   28.9974  -26.6839  -17.4894 C   0  0  2  0  0  0  0  0  0  0  0  0
   30.0449  -27.4544  -16.8667 N   0  0  0  0  0  0  0  0  0  0  0  0
   28.9062  -25.3223  -16.8556 C   0  0  0  0  0  0  0  0  0  0  0  0
   29.2842  -25.1675  -15.6730 O   0  0  0  0  0  0  0  0  0  0  0  0
   27.5001  -28.4457  -19.4916 C   0  0  0  0  0  0  0  0  0  0  0  0
   27.4060  -29.5357  -20.3236 C   0  0  0  0  0  0  0  0  0  0  0  0
   30.6821  -22.4554  -17.9452 C   0  0  0  0  0  0  0  0  0  0  0  0
   29.2400  -22.0531  -18.0439 C   0  0  1  0  0  0  0  0  0  0  0  0
   28.7231  -21.9954  -19.4321 C   0  0  0  0  0  0  0  0  0  0  0  0
   28.3922  -22.8463  -17.0701 C   0  0  2  0  0  0  0  0  0  0  0  0
   28.3968  -24.2198  -17.5902 N   0  0  0  0  0  0  0  0  0  0  0  0
   26.9713  -22.3550  -17.0682 C   0  0  0  0  0  0  0  0  0  0  0  0
   26.2054  -22.5982  -18.0556 O   0  0  0  0  0  0  0  0  0  0  0  0
   23.6079  -24.1050  -14.3143 N   0  0  0  0  0  0  0  0  0  0  0  0
   23.3847  -22.7489  -13.9628 C   0  0  0  0  0  0  0  0  0  0  0  0
   22.2135  -22.3489  -13.8380 O   0  0  0  0  0  0  0  0  0  0  0  0
   24.4938  -21.7972  -13.7402 C   0  0  0  0  0  0  0  0  0  0  0  0
   24.4844  -20.7091  -14.7671 C   0  0  0  0  0  0  0  0  0  0  0  0
   25.0267  -21.1756  -16.0852 C   0  0  2  0  0  0  0  0  0  0  0  0
   26.4080  -21.6141  -16.0033 N   0  0  0  0  0  0  0  0  0  0  0  0
   24.9816  -20.0078  -17.0214 C   0  0  0  0  0  0  0  0  0  0  0  0
   23.7754  -19.5821  -17.5558 O   0  0  0  0  0  0  0  0  0  0  0  0
   26.0171  -19.3826  -17.3499 O   0  0  0  0  0  0  0  0  0  0  0  0
  2  1  1  0
  3  2  2  0
  4  3  1  0
  5  4  2  0
  5 11  1  0
  6  5  1  0
  7  9  1  0
  7  6  1  0
  7  8  1  1
  9 17  1  0
 10  9  2  0
 11 12  2  0
 12  2  1  0
 14 13  1  6
 14 15  1  0
 16 14  1  0
 16 18  1  0
 16 17  1  6
 18 26  1  0
 18 19  2  0
 20 21  1  0
 21 23  1  0
 22 21  2  0
 23 24  1  0
 25 24  1  1
 25 27  1  0
 26 25  1  0
 27 29  2  0
 27 28  1  0
M  END
$$$$
