YVQ.pdb
     RDKit          3D

 29 29  0  0  1  0  0  0  0  0999 V2000
   26.5505  -14.3870  -23.6106 O   0  0  0  0  0  0  0  0  0  0  0  0
   26.5587  -15.4581  -22.7184 C   0  0  0  0  0  0  0  0  0  0  0  0
   26.0464  -15.3190  -21.4467 C   0  0  0  0  0  0  0  0  0  0  0  0
   26.0618  -16.3989  -20.5662 C   0  0  0  0  0  0  0  0  0  0  0  0
   26.5869  -17.6181  -20.9491 C   0  0  0  0  0  0  0  0  0  0  0  0
   26.5878  -18.7471  -19.9857 C   0  0  0  0  0  0  0  0  0  0  0  0
   27.6097  -18.4541  -18.9140 C   0  0  2  0  0  0  0  0  0  0  0  0
   28.9215  -18.6902  -19.4638 N   0  0  0  0  0  0  0  0  0  0  0  0
   27.3377  -19.4133  -17.7871 C   0  0  0  0  0  0  0  0  0  0  0  0
   27.7309  -20.5975  -17.8786 O   0  0  0  0  0  0  0  0  0  0  0  0
   27.0871  -17.7139  -22.2252 C   0  0  0  0  0  0  0  0  0  0  0  0
   27.0852  -16.6666  -23.1153 C   0  0  0  0  0  0  0  0  0  0  0  0
   28.1510  -18.6856  -14.1894 C   0  0  0  0  0  0  0  0  0  0  0  0
   26.6881  -19.0112  -14.2595 C   0  0  1  0  0  0  0  0  0  0  0  0
   25.7992  -17.8410  -14.0634 C   0  0  0  0  0  0  0  0  0  0  0  0
   26.3831  -19.8584  -15.4781 C   0  0  2  0  0  0  0  0  0  0  0  0
   26.6419  -18.9817  -16.6276 N   0  0  0  0  0  0  0  0  0  0  0  0
   24.9326  -20.2523  -15.5115 C   0  0  0  0  0  0  0  0  0  0  0  0
   24.0446  -19.4079  -15.8568 O   0  0  0  0  0  0  0  0  0  0  0  0
   21.9786  -25.8650  -14.2774 N   0  0  0  0  0  0  0  0  0  0  0  0
   20.9579  -24.9179  -14.5482 C   0  0  0  0  0  0  0  0  0  0  0  0
   19.7735  -25.2981  -14.5440 O   0  0  0  0  0  0  0  0  0  0  0  0
   21.2529  -23.4979  -14.8345 C   0  0  0  0  0  0  0  0  0  0  0  0
   22.7249  -23.2338  -14.7900 C   0  0  0  0  0  0  0  0  0  0  0  0
   23.0461  -21.7942  -15.0617 C   0  0  2  0  0  0  0  0  0  0  0  0
   24.4719  -21.5460  -15.1733 N   0  0  0  0  0  0  0  0  0  0  0  0
   22.5424  -21.0001  -13.8963 C   0  0  0  0  0  0  0  0  0  0  0  0
   21.2298  -20.5554  -13.8643 O   0  0  0  0  0  0  0  0  0  0  0  0
   23.2782  -20.7140  -12.9229 O   0  0  0  0  0  0  0  0  0  0  0  0
  2  1  1  0
  3  2  2  0
  4  3  1  0
  5  4  2  0
  5 11  1  0
  6  5  1  0
  7  9  1  0
  7  6  1  0
  7  8  1  6
  9 17  1  0
 10  9  2  0
 11 12  2  0
 12  2  1  0
 14 13  1  6
 14 15  1  0
 16 14  1  0
 16 18  1  0
 16 17  1  6
 18 26  1  0
 18 19  2  0
 20 21  1  0
 21 23  1  0
 22 21  2  0
 23 24  1  0
 25 24  1  1
 25 27  1  0
 26 25  1  0
 27 29  2  0
 27 28  1  0
M  END
$$$$
