YVQ.pdb
     RDKit          3D

 29 29  0  0  1  0  0  0  0  0999 V2000
   28.7315  -12.9393  -26.0684 O   0  0  0  0  0  0  0  0  0  0  0  0
   28.1029  -12.9465  -24.8241 C   0  0  0  0  0  0  0  0  0  0  0  0
   27.5774  -11.7880  -24.2941 C   0  0  0  0  0  0  0  0  0  0  0  0
   26.9522  -11.8112  -23.0490 C   0  0  0  0  0  0  0  0  0  0  0  0
   26.8490  -12.9862  -22.3295 C   0  0  0  0  0  0  0  0  0  0  0  0
   26.1770  -12.9748  -21.0063 C   0  0  0  0  0  0  0  0  0  0  0  0
   27.2334  -12.8128  -19.9402 C   0  0  2  0  0  0  0  0  0  0  0  0
   27.9586  -14.0541  -19.8303 N   0  0  0  0  0  0  0  0  0  0  0  0
   26.5066  -12.5196  -18.6559 C   0  0  0  0  0  0  0  0  0  0  0  0
   26.0636  -13.4671  -17.9693 O   0  0  0  0  0  0  0  0  0  0  0  0
   27.3860  -14.1179  -22.8941 C   0  0  0  0  0  0  0  0  0  0  0  0
   28.0080  -14.1254  -24.1198 C   0  0  0  0  0  0  0  0  0  0  0  0
   26.2149   -9.4013  -14.9704 C   0  0  0  0  0  0  0  0  0  0  0  0
   26.7907  -10.0965  -16.1689 C   0  0  1  0  0  0  0  0  0  0  0  0
   28.0123  -10.8852  -15.8802 C   0  0  0  0  0  0  0  0  0  0  0  0
   25.7104  -10.8336  -16.9341 C   0  0  2  0  0  0  0  0  0  0  0  0
   26.3236  -11.1803  -18.2228 N   0  0  0  0  0  0  0  0  0  0  0  0
   24.5345   -9.9369  -17.2053 C   0  0  0  0  0  0  0  0  0  0  0  0
   24.6479   -8.9514  -18.0032 O   0  0  0  0  0  0  0  0  0  0  0  0
   18.2602  -10.8985  -16.3939 N   0  0  0  0  0  0  0  0  0  0  0  0
   18.3966   -9.6377  -17.0296 C   0  0  0  0  0  0  0  0  0  0  0  0
   17.3745   -9.0669  -17.4502 O   0  0  0  0  0  0  0  0  0  0  0  0
   19.7086   -8.9806  -17.2088 C   0  0  0  0  0  0  0  0  0  0  0  0
   20.8221   -9.8642  -16.7421 C   0  0  0  0  0  0  0  0  0  0  0  0
   22.1674   -9.2431  -16.9737 C   0  0  2  0  0  0  0  0  0  0  0  0
   23.2642  -10.1223  -16.6120 N   0  0  0  0  0  0  0  0  0  0  0  0
   22.2541   -8.0332  -16.0956 C   0  0  0  0  0  0  0  0  0  0  0  0
   21.7507   -6.8154  -16.5260 O   0  0  0  0  0  0  0  0  0  0  0  0
   22.7764   -8.0779  -14.9572 O   0  0  0  0  0  0  0  0  0  0  0  0
  2  1  1  0
  3  2  2  0
  4  3  1  0
  5  4  2  0
  5 11  1  0
  6  5  1  0
  7  9  1  0
  7  6  1  0
  7  8  1  1
  9 17  1  0
 10  9  2  0
 11 12  2  0
 12  2  1  0
 14 13  1  1
 14 15  1  0
 16 14  1  0
 16 18  1  0
 16 17  1  6
 18 26  1  0
 18 19  2  0
 20 21  1  0
 21 23  1  0
 22 21  2  0
 23 24  1  0
 25 24  1  1
 25 27  1  0
 26 25  1  0
 27 29  2  0
 27 28  1  0
M  END
$$$$
