YVQ.pdb
     RDKit          3D

 29 29  0  0  1  0  0  0  0  0999 V2000
   28.6859  -18.1827   -3.5019 O   0  0  0  0  0  0  0  0  0  0  0  0
   28.3100  -18.7220   -4.7313 C   0  0  0  0  0  0  0  0  0  0  0  0
   28.5929  -20.0349   -5.0402 C   0  0  0  0  0  0  0  0  0  0  0  0
   28.2107  -20.5595   -6.2732 C   0  0  0  0  0  0  0  0  0  0  0  0
   27.5474  -19.7793   -7.2006 C   0  0  0  0  0  0  0  0  0  0  0  0
   27.1555  -20.3701   -8.5044 C   0  0  0  0  0  0  0  0  0  0  0  0
   25.6480  -20.4007   -8.5764 C   0  0  2  0  0  0  0  0  0  0  0  0
   25.1554  -21.1212   -7.4288 N   0  0  0  0  0  0  0  0  0  0  0  0
   25.2928  -21.1327   -9.8420 C   0  0  0  0  0  0  0  0  0  0  0  0
   25.3098  -22.3837   -9.8547 O   0  0  0  0  0  0  0  0  0  0  0  0
   27.2850  -18.4762   -6.8527 C   0  0  0  0  0  0  0  0  0  0  0  0
   27.6493  -17.9316   -5.6445 C   0  0  0  0  0  0  0  0  0  0  0  0
   22.1724  -21.2065  -11.2881 C   0  0  0  0  0  0  0  0  0  0  0  0
   23.0186  -20.6263  -12.3828 C   0  0  1  0  0  0  0  0  0  0  0  0
   22.8187  -19.1726  -12.5941 C   0  0  0  0  0  0  0  0  0  0  0  0
   24.4612  -21.0669  -12.2389 C   0  0  2  0  0  0  0  0  0  0  0  0
   24.9399  -20.4135  -11.0137 N   0  0  0  0  0  0  0  0  0  0  0  0
   25.2942  -20.5688  -13.3870 C   0  0  0  0  0  0  0  0  0  0  0  0
   25.4138  -19.3195  -13.6003 O   0  0  0  0  0  0  0  0  0  0  0  0
   28.6693  -25.3530  -16.5645 N   0  0  0  0  0  0  0  0  0  0  0  0
   28.7865  -23.9709  -16.2672 C   0  0  0  0  0  0  0  0  0  0  0  0
   29.9212  -23.4630  -16.2241 O   0  0  0  0  0  0  0  0  0  0  0  0
   27.6090  -23.1156  -16.0075 C   0  0  0  0  0  0  0  0  0  0  0  0
   28.0236  -21.7340  -15.6102 C   0  0  0  0  0  0  0  0  0  0  0  0
   26.8446  -20.8615  -15.2973 C   0  0  2  0  0  0  0  0  0  0  0  0
   25.9794  -21.4270  -14.2782 N   0  0  0  0  0  0  0  0  0  0  0  0
   26.0381  -20.7390  -16.5530 C   0  0  0  0  0  0  0  0  0  0  0  0
   26.4999  -19.9736  -17.6125 O   0  0  0  0  0  0  0  0  0  0  0  0
   24.9338  -21.3159  -16.6891 O   0  0  0  0  0  0  0  0  0  0  0  0
  2  1  1  0
  3  2  2  0
  4  3  1  0
  5  4  2  0
  5 11  1  0
  6  5  1  0
  7  9  1  0
  7  6  1  0
  7  8  1  1
  9 17  1  0
 10  9  2  0
 11 12  2  0
 12  2  1  0
 14 13  1  1
 14 15  1  0
 16 14  1  0
 16 18  1  0
 16 17  1  1
 18 26  1  0
 18 19  2  0
 20 21  1  0
 21 23  1  0
 22 21  2  0
 23 24  1  0
 25 24  1  6
 25 27  1  0
 26 25  1  0
 27 29  2  0
 27 28  1  0
M  END
$$$$
