YVQ.pdb
     RDKit          3D

 29 29  0  0  1  0  0  0  0  0999 V2000
   30.6992   -3.7991  -21.3375 O   0  0  0  0  0  0  0  0  0  0  0  0
   29.8214   -4.8181  -20.9705 C   0  0  0  0  0  0  0  0  0  0  0  0
   29.3917   -5.7444  -21.8958 C   0  0  0  0  0  0  0  0  0  0  0  0
   28.5141   -6.7571  -21.5136 C   0  0  0  0  0  0  0  0  0  0  0  0
   28.0626   -6.8495  -20.2112 C   0  0  0  0  0  0  0  0  0  0  0  0
   27.1279   -7.9405  -19.8387 C   0  0  0  0  0  0  0  0  0  0  0  0
   27.7549   -8.7407  -18.7228 C   0  0  2  0  0  0  0  0  0  0  0  0
   28.8950   -9.4438  -19.2563 N   0  0  0  0  0  0  0  0  0  0  0  0
   26.7115   -9.7195  -18.2569 C   0  0  0  0  0  0  0  0  0  0  0  0
   26.6370  -10.8443  -18.7997 O   0  0  0  0  0  0  0  0  0  0  0  0
   28.5154   -5.9062  -19.3207 C   0  0  0  0  0  0  0  0  0  0  0  0
   29.3809   -4.8967  -19.6686 C   0  0  0  0  0  0  0  0  0  0  0  0
   26.7171  -11.6923  -15.7348 C   0  0  0  0  0  0  0  0  0  0  0  0
   25.5224  -10.8547  -15.3849 C   0  0  1  0  0  0  0  0  0  0  0  0
   25.7795   -9.8487  -14.3268 C   0  0  0  0  0  0  0  0  0  0  0  0
   24.8540  -10.3216  -16.6359 C   0  0  2  0  0  0  0  0  0  0  0  0
   25.8177   -9.3736  -17.2098 N   0  0  0  0  0  0  0  0  0  0  0  0
   23.6016   -9.5624  -16.2961 C   0  0  0  0  0  0  0  0  0  0  0  0
   23.6508   -8.5557  -15.5184 O   0  0  0  0  0  0  0  0  0  0  0  0
   17.8227  -10.6268  -17.1518 N   0  0  0  0  0  0  0  0  0  0  0  0
   17.7570   -9.7628  -16.0286 C   0  0  0  0  0  0  0  0  0  0  0  0
   16.6692   -9.2282  -15.7488 O   0  0  0  0  0  0  0  0  0  0  0  0
   18.9342   -9.4768  -15.1815 C   0  0  0  0  0  0  0  0  0  0  0  0
   20.1497  -10.1849  -15.6912 C   0  0  0  0  0  0  0  0  0  0  0  0
   21.1458   -9.2345  -16.2860 C   0  0  2  0  0  0  0  0  0  0  0  0
   22.3257   -9.9042  -16.8018 N   0  0  0  0  0  0  0  0  0  0  0  0
   21.5934   -8.3179  -15.1897 C   0  0  0  0  0  0  0  0  0  0  0  0
   22.1896   -8.8283  -14.0471 O   0  0  0  0  0  0  0  0  0  0  0  0
   21.4476   -7.0754  -15.2652 O   0  0  0  0  0  0  0  0  0  0  0  0
  2  1  1  0
  3  2  2  0
  4  3  1  0
  5  4  2  0
  5 11  1  0
  6  5  1  0
  7  9  1  0
  7  6  1  0
  7  8  1  6
  9 17  1  0
 10  9  2  0
 11 12  2  0
 12  2  1  0
 14 13  1  6
 14 15  1  0
 16 14  1  0
 16 18  1  0
 16 17  1  1
 18 26  1  0
 18 19  2  0
 20 21  1  0
 21 23  1  0
 22 21  2  0
 23 24  1  0
 25 24  1  1
 25 27  1  0
 26 25  1  0
 27 29  2  0
 27 28  1  0
M  END
$$$$
