YVQ.pdb
     RDKit          3D

 29 29  0  0  1  0  0  0  0  0999 V2000
   27.8352  -19.8944   -5.0531 O   0  0  0  0  0  0  0  0  0  0  0  0
   27.2429  -19.9181   -6.3149 C   0  0  0  0  0  0  0  0  0  0  0  0
   26.4252  -20.9622   -6.6893 C   0  0  0  0  0  0  0  0  0  0  0  0
   25.8405  -20.9715   -7.9541 C   0  0  0  0  0  0  0  0  0  0  0  0
   26.0684  -19.9431   -8.8480 C   0  0  0  0  0  0  0  0  0  0  0  0
   25.4299  -19.9853  -10.1871 C   0  0  0  0  0  0  0  0  0  0  0  0
   25.9212  -21.2177  -10.9072 C   0  0  2  0  0  0  0  0  0  0  0  0
   27.3481  -21.1024  -11.0782 N   0  0  0  0  0  0  0  0  0  0  0  0
   25.2364  -21.2344  -12.2468 C   0  0  0  0  0  0  0  0  0  0  0  0
   25.5331  -20.3692  -13.1004 O   0  0  0  0  0  0  0  0  0  0  0  0
   26.8896  -18.9218   -8.4348 C   0  0  0  0  0  0  0  0  0  0  0  0
   27.4797  -18.8855   -7.1940 C   0  0  0  0  0  0  0  0  0  0  0  0
   23.0607  -24.0666  -15.5302 C   0  0  0  0  0  0  0  0  0  0  0  0
   23.9255  -23.7088  -14.3575 C   0  0  1  0  0  0  0  0  0  0  0  0
   25.3680  -23.9793  -14.5665 C   0  0  0  0  0  0  0  0  0  0  0  0
   23.5946  -22.3205  -13.8486 C   0  0  2  0  0  0  0  0  0  0  0  0
   24.2617  -22.2227  -12.5438 N   0  0  0  0  0  0  0  0  0  0  0  0
   22.1156  -22.1659  -13.6269 C   0  0  0  0  0  0  0  0  0  0  0  0
   21.5709  -22.6314  -12.5746 O   0  0  0  0  0  0  0  0  0  0  0  0
   18.2353  -17.6568  -15.8400 N   0  0  0  0  0  0  0  0  0  0  0  0
   17.3745  -18.5905  -15.2079 C   0  0  0  0  0  0  0  0  0  0  0  0
   16.1535  -18.3546  -15.1813 O   0  0  0  0  0  0  0  0  0  0  0  0
   17.8778  -19.8313  -14.5813 C   0  0  0  0  0  0  0  0  0  0  0  0
   19.3533  -19.9763  -14.7823 C   0  0  0  0  0  0  0  0  0  0  0  0
   19.8831  -21.2374  -14.1674 C   0  0  2  0  0  0  0  0  0  0  0  0
   21.2578  -21.5134  -14.5426 N   0  0  0  0  0  0  0  0  0  0  0  0
   19.0431  -22.3667  -14.6788 C   0  0  0  0  0  0  0  0  0  0  0  0
   19.5299  -23.2153  -15.6609 O   0  0  0  0  0  0  0  0  0  0  0  0
   17.8878  -22.5820  -14.2434 O   0  0  0  0  0  0  0  0  0  0  0  0
  2  1  1  0
  3  2  2  0
  4  3  1  0
  5  4  2  0
  5 11  1  0
  6  5  1  0
  7  9  1  0
  7  6  1  0
  7  8  1  6
  9 17  1  0
 10  9  2  0
 11 12  2  0
 12  2  1  0
 14 13  1  6
 14 15  1  0
 16 14  1  0
 16 18  1  0
 16 17  1  1
 18 26  1  0
 18 19  2  0
 20 21  1  0
 21 23  1  0
 22 21  2  0
 23 24  1  0
 25 24  1  6
 25 27  1  0
 26 25  1  0
 27 29  2  0
 27 28  1  0
M  END
$$$$
