YVQ.pdb
     RDKit          3D

 29 29  0  0  1  0  0  0  0  0999 V2000
   28.4314  -20.6072   -4.4388 O   0  0  0  0  0  0  0  0  0  0  0  0
   28.0948  -20.4398   -5.7813 C   0  0  0  0  0  0  0  0  0  0  0  0
   29.0708  -20.4121   -6.7537 C   0  0  0  0  0  0  0  0  0  0  0  0
   28.7186  -20.2439   -8.0913 C   0  0  0  0  0  0  0  0  0  0  0  0
   27.3956  -20.1027   -8.4635 C   0  0  0  0  0  0  0  0  0  0  0  0
   27.0559  -19.9249   -9.8972 C   0  0  0  0  0  0  0  0  0  0  0  0
   26.9595  -21.2902  -10.5338 C   0  0  2  0  0  0  0  0  0  0  0  0
   28.2957  -21.7534  -10.8143 N   0  0  0  0  0  0  0  0  0  0  0  0
   26.1904  -21.1138  -11.8149 C   0  0  0  0  0  0  0  0  0  0  0  0
   26.7464  -20.5736  -12.7970 O   0  0  0  0  0  0  0  0  0  0  0  0
   26.4544  -20.1361   -7.4629 C   0  0  0  0  0  0  0  0  0  0  0  0
   26.7719  -20.3008   -6.1358 C   0  0  0  0  0  0  0  0  0  0  0  0
   25.5084  -23.0321  -14.3341 C   0  0  0  0  0  0  0  0  0  0  0  0
   24.1255  -22.7766  -13.8111 C   0  0  1  0  0  0  0  0  0  0  0  0
   23.5562  -23.9035  -13.0341 C   0  0  0  0  0  0  0  0  0  0  0  0
   24.0467  -21.4213  -13.1380 C   0  0  2  0  0  0  0  0  0  0  0  0
   24.8452  -21.5561  -11.9128 N   0  0  0  0  0  0  0  0  0  0  0  0
   22.6335  -21.0993  -12.7385 C   0  0  0  0  0  0  0  0  0  0  0  0
   22.1597  -21.5373  -11.6411 O   0  0  0  0  0  0  0  0  0  0  0  0
   20.3245  -18.2588  -17.4145 N   0  0  0  0  0  0  0  0  0  0  0  0
   19.5928  -18.2366  -16.1994 C   0  0  0  0  0  0  0  0  0  0  0  0
   18.9954  -17.1931  -15.8806 O   0  0  0  0  0  0  0  0  0  0  0  0
   19.5161  -19.4083  -15.3014 C   0  0  0  0  0  0  0  0  0  0  0  0
   19.7091  -19.0062  -13.8732 C   0  0  0  0  0  0  0  0  0  0  0  0
   20.4053  -20.0707  -13.0787 C   0  0  2  0  0  0  0  0  0  0  0  0
   21.7638  -20.3127  -13.5292 N   0  0  0  0  0  0  0  0  0  0  0  0
   19.6362  -21.3412  -13.2703 C   0  0  0  0  0  0  0  0  0  0  0  0
   20.1199  -22.3359  -14.1060 O   0  0  0  0  0  0  0  0  0  0  0  0
   18.5445  -21.5477  -12.6902 O   0  0  0  0  0  0  0  0  0  0  0  0
  2  1  1  0
  3  2  2  0
  4  3  1  0
  5  4  2  0
  5 11  1  0
  6  5  1  0
  7  9  1  0
  7  6  1  0
  7  8  1  6
  9 17  1  0
 10  9  2  0
 11 12  2  0
 12  2  1  0
 14 13  1  1
 14 15  1  0
 16 14  1  0
 16 18  1  0
 16 17  1  1
 18 26  1  0
 18 19  2  0
 20 21  1  0
 21 23  1  0
 22 21  2  0
 23 24  1  0
 25 24  1  6
 25 27  1  0
 26 25  1  0
 27 29  2  0
 27 28  1  0
M  END
$$$$
