YVQ.pdb
     RDKit          3D

 29 29  0  0  1  0  0  0  0  0999 V2000
   22.0831  -18.3279  -19.2139 O   0  0  0  0  0  0  0  0  0  0  0  0
   21.2672  -17.2050  -19.3445 C   0  0  0  0  0  0  0  0  0  0  0  0
   20.2572  -17.1737  -20.2814 C   0  0  0  0  0  0  0  0  0  0  0  0
   19.4501  -16.0440  -20.3999 C   0  0  0  0  0  0  0  0  0  0  0  0
   19.6466  -14.9441  -19.5871 C   0  0  0  0  0  0  0  0  0  0  0  0
   18.7688  -13.7573  -19.7406 C   0  0  0  0  0  0  0  0  0  0  0  0
   17.8505  -13.6899  -18.5444 C   0  0  2  0  0  0  0  0  0  0  0  0
   16.9478  -14.8125  -18.6039 N   0  0  0  0  0  0  0  0  0  0  0  0
   17.0849  -12.4000  -18.6625 C   0  0  0  0  0  0  0  0  0  0  0  0
   16.1034  -12.3355  -19.4357 O   0  0  0  0  0  0  0  0  0  0  0  0
   20.6641  -15.0168  -18.6666 C   0  0  0  0  0  0  0  0  0  0  0  0
   21.4757  -16.1173  -18.5268 C   0  0  0  0  0  0  0  0  0  0  0  0
   15.3726   -8.6440  -16.3541 C   0  0  0  0  0  0  0  0  0  0  0  0
   15.8478  -10.0240  -16.7017 C   0  0  1  0  0  0  0  0  0  0  0  0
   14.7744  -11.0464  -16.7155 C   0  0  0  0  0  0  0  0  0  0  0  0
   16.7297   -9.9951  -17.9336 C   0  0  2  0  0  0  0  0  0  0  0  0
   17.4694  -11.2636  -17.9039 N   0  0  0  0  0  0  0  0  0  0  0  0
   17.7277   -8.8734  -17.8558 C   0  0  0  0  0  0  0  0  0  0  0  0
   18.5669   -8.8243  -16.8998 O   0  0  0  0  0  0  0  0  0  0  0  0
   22.4280   -5.2971  -19.8241 N   0  0  0  0  0  0  0  0  0  0  0  0
   21.1763   -5.1185  -20.4674 C   0  0  0  0  0  0  0  0  0  0  0  0
   21.1254   -5.1965  -21.7078 O   0  0  0  0  0  0  0  0  0  0  0  0
   19.9334   -4.8434  -19.7157 C   0  0  0  0  0  0  0  0  0  0  0  0
   18.9369   -5.9439  -19.9009 C   0  0  0  0  0  0  0  0  0  0  0  0
   18.8246   -6.8114  -18.6827 C   0  0  2  0  0  0  0  0  0  0  0  0
   17.7995   -7.8312  -18.8092 N   0  0  0  0  0  0  0  0  0  0  0  0
   18.4358   -5.9239  -17.5409 C   0  0  0  0  0  0  0  0  0  0  0  0
   19.3854   -5.5057  -16.6215 O   0  0  0  0  0  0  0  0  0  0  0  0
   17.2562   -5.5330  -17.3785 O   0  0  0  0  0  0  0  0  0  0  0  0
  2  1  1  0
  3  2  2  0
  4  3  1  0
  5  4  2  0
  5 11  1  0
  6  5  1  0
  7  9  1  0
  7  6  1  0
  7  8  1  6
  9 17  1  0
 10  9  2  0
 11 12  2  0
 12  2  1  0
 14 13  1  6
 14 15  1  0
 16 14  1  0
 16 18  1  0
 16 17  1  1
 18 26  1  0
 18 19  2  0
 20 21  1  0
 21 23  1  0
 22 21  2  0
 23 24  1  0
 25 24  1  6
 25 27  1  0
 26 25  1  0
 27 29  2  0
 27 28  1  0
M  END
$$$$
