CNN.pdb
     RDKit          3D

 23 22  0  0  1  0  0  0  0  0999 V2000
   15.3903  -14.0055  -13.2100 N   0  0  0  0  0  0  0  0  0  0  0  0
   14.7976  -12.8355  -12.5990 C   0  0  1  0  0  0  0  0  0  0  0  0
   13.9886  -13.2878  -11.4249 C   0  0  0  0  0  0  0  0  0  0  0  0
   12.5770  -14.2754  -12.0047 S   0  0  0  0  0  0  0  0  0  0  0  0
   15.8720  -11.8942  -12.2617 C   0  0  0  0  0  0  0  0  0  0  0  0
   17.0607  -12.2125  -12.5025 O   0  0  0  0  0  0  0  0  0  0  0  0
   18.7621   -7.8953  -11.0369 N   0  0  0  0  0  0  0  0  0  0  0  0
   18.7283   -8.5435  -12.2919 C   0  0  0  0  0  0  0  0  0  0  0  0
   19.6015   -8.2880  -13.1350 O   0  0  0  0  0  0  0  0  0  0  0  0
   17.6610   -9.5086  -12.5776 C   0  0  0  0  0  0  0  0  0  0  0  0
   16.6578   -9.6635  -11.4504 C   0  0  2  0  0  0  0  0  0  0  0  0
   15.6371  -10.6256  -11.6698 N   0  0  0  0  0  0  0  0  0  0  0  0
   16.1237   -8.3425  -11.0158 C   0  0  0  0  0  0  0  0  0  0  0  0
   15.4946   -7.5930  -11.8412 O   0  0  0  0  0  0  0  0  0  0  0  0
   13.7988   -4.7565   -8.2282 N   0  0  0  0  0  0  0  0  0  0  0  0
   14.3174   -5.7405   -7.3095 C   0  0  0  0  0  0  0  0  0  0  0  0
   13.9852   -5.5254   -6.1082 O   0  0  0  0  0  0  0  0  0  0  0  0
   15.1458   -6.8624   -7.7826 C   0  0  0  0  0  0  0  0  0  0  0  0
   15.3913   -6.7700   -9.2474 C   0  0  2  0  0  0  0  0  0  0  0  0
   16.2747   -7.8497   -9.7013 N   0  0  0  0  0  0  0  0  0  0  0  0
   16.1517   -5.5194   -9.5405 C   0  0  0  0  0  0  0  0  0  0  0  0
   15.5010   -4.3214   -9.6411 O   0  0  0  0  0  0  0  0  0  0  0  0
   17.3866   -5.5839   -9.6927 O   0  0  0  0  0  0  0  0  0  0  0  0
  2  1  1  1
  2  3  1  0
  4  3  1  0
  5 12  1  0
  5  2  1  0
  6  5  2  0
  8  7  1  0
  8 10  1  0
  9  8  2  0
 11 13  1  0
 11 10  1  6
 11 12  1  0
 13 20  1  0
 14 13  2  0
 16 17  2  0
 16 15  1  0
 18 16  1  0
 19 18  1  1
 20 19  1  0
 21 22  1  0
 21 19  1  0
 23 21  2  0
M  END
$$$$
