CNN.pdb
     RDKit          3D

 23 22  0  0  1  0  0  0  0  0999 V2000
   15.2902   -7.8988   -8.4415 N   0  0  0  0  0  0  0  0  0  0  0  0
   15.6351   -7.0215   -9.5393 C   0  0  1  0  0  0  0  0  0  0  0  0
   16.0953   -5.7201   -8.9630 C   0  0  0  0  0  0  0  0  0  0  0  0
   14.6530   -4.7387   -8.4524 S   0  0  0  0  0  0  0  0  0  0  0  0
   16.6357   -7.6961  -10.3748 C   0  0  0  0  0  0  0  0  0  0  0  0
   17.6350   -8.2201   -9.8279 O   0  0  0  0  0  0  0  0  0  0  0  0
   15.0163  -10.9231  -13.4041 N   0  0  0  0  0  0  0  0  0  0  0  0
   16.3376  -10.5847  -13.0354 C   0  0  0  0  0  0  0  0  0  0  0  0
   16.9441  -11.2930  -12.2174 O   0  0  0  0  0  0  0  0  0  0  0  0
   16.9714   -9.4008  -13.6263 C   0  0  0  0  0  0  0  0  0  0  0  0
   17.5106   -8.4199  -12.6024 C   0  0  2  0  0  0  0  0  0  0  0  0
   16.5338   -7.7897  -11.7875 N   0  0  0  0  0  0  0  0  0  0  0  0
   18.4558   -7.4517  -13.2258 C   0  0  0  0  0  0  0  0  0  0  0  0
   18.0355   -6.3254  -13.6655 O   0  0  0  0  0  0  0  0  0  0  0  0
   21.6344   -5.8898  -10.7145 N   0  0  0  0  0  0  0  0  0  0  0  0
   21.5330   -5.4726  -12.0918 C   0  0  0  0  0  0  0  0  0  0  0  0
   21.1332   -4.2799  -12.2236 O   0  0  0  0  0  0  0  0  0  0  0  0
   21.8749   -6.3893  -13.1925 C   0  0  0  0  0  0  0  0  0  0  0  0
   20.6798   -6.7049  -14.0210 C   0  0  2  0  0  0  0  0  0  0  0  0
   19.8367   -7.7108  -13.3657 N   0  0  0  0  0  0  0  0  0  0  0  0
   21.1194   -7.3575  -15.2896 C   0  0  0  0  0  0  0  0  0  0  0  0
   21.8859   -6.6725  -16.1905 O   0  0  0  0  0  0  0  0  0  0  0  0
   20.7769   -8.5340  -15.5148 O   0  0  0  0  0  0  0  0  0  0  0  0
  2  1  1  1
  2  3  1  0
  4  3  1  0
  5 12  1  0
  5  2  1  0
  6  5  2  0
  8  7  1  0
  8 10  1  0
  9  8  2  0
 11 13  1  0
 11 10  1  6
 11 12  1  0
 13 20  1  0
 14 13  2  0
 16 17  2  0
 16 15  1  0
 18 16  1  0
 19 18  1  1
 20 19  1  0
 21 22  1  0
 21 19  1  0
 23 21  2  0
M  END
$$$$
