CNN.pdb
     RDKit          3D

 23 22  0  0  1  0  0  0  0  0999 V2000
   27.4281  -11.5230  -18.6787 N   0  0  0  0  0  0  0  0  0  0  0  0
   27.2106  -11.3441  -17.2594 C   0  0  1  0  0  0  0  0  0  0  0  0
   27.7211  -12.5622  -16.5572 C   0  0  0  0  0  0  0  0  0  0  0  0
   26.8117  -14.0244  -17.1395 S   0  0  0  0  0  0  0  0  0  0  0  0
   27.8603  -10.0950  -16.8449 C   0  0  0  0  0  0  0  0  0  0  0  0
   28.1395   -9.9243  -15.6344 O   0  0  0  0  0  0  0  0  0  0  0  0
   33.0465   -8.6177  -17.9438 N   0  0  0  0  0  0  0  0  0  0  0  0
   31.8628   -8.3285  -17.2286 C   0  0  0  0  0  0  0  0  0  0  0  0
   31.8558   -7.3961  -16.4105 O   0  0  0  0  0  0  0  0  0  0  0  0
   30.6607   -9.1356  -17.4651 C   0  0  0  0  0  0  0  0  0  0  0  0
   29.4039   -8.3137  -17.6792 C   0  0  2  0  0  0  0  0  0  0  0  0
   28.1950   -9.0546  -17.7507 N   0  0  0  0  0  0  0  0  0  0  0  0
   29.5665   -7.3613  -18.8131 C   0  0  0  0  0  0  0  0  0  0  0  0
   30.3665   -6.3667  -18.7161 O   0  0  0  0  0  0  0  0  0  0  0  0
   28.8543   -7.7589  -24.1834 N   0  0  0  0  0  0  0  0  0  0  0  0
   29.0702   -6.9537  -23.0060 C   0  0  0  0  0  0  0  0  0  0  0  0
   30.2768   -6.6062  -22.8537 O   0  0  0  0  0  0  0  0  0  0  0  0
   27.9569   -6.6034  -22.1079 C   0  0  0  0  0  0  0  0  0  0  0  0
   28.4490   -6.2800  -20.7414 C   0  0  2  0  0  0  0  0  0  0  0  0
   28.8664   -7.4944  -20.0320 N   0  0  0  0  0  0  0  0  0  0  0  0
   27.3195   -5.7430  -19.9264 C   0  0  0  0  0  0  0  0  0  0  0  0
   26.9435   -4.4339  -20.0428 O   0  0  0  0  0  0  0  0  0  0  0  0
   26.7261   -6.5046  -19.1391 O   0  0  0  0  0  0  0  0  0  0  0  0
  2  1  1  6
  2  3  1  0
  4  3  1  0
  5 12  1  0
  5  2  1  0
  6  5  2  0
  8  7  1  0
  8 10  1  0
  9  8  2  0
 11 13  1  0
 11 10  1  6
 11 12  1  0
 13 20  1  0
 14 13  2  0
 16 17  2  0
 16 15  1  0
 18 16  1  0
 19 18  1  6
 20 19  1  0
 21 22  1  0
 21 19  1  0
 23 21  2  0
M  END
$$$$
