CNN.pdb
     RDKit          3D

 23 22  0  0  1  0  0  0  0  0999 V2000
   25.2861  -11.1601  -17.3153 N   0  0  0  0  0  0  0  0  0  0  0  0
   24.8201  -10.4523  -16.1425 C   0  0  1  0  0  0  0  0  0  0  0  0
   25.8770   -9.4711  -15.7454 C   0  0  0  0  0  0  0  0  0  0  0  0
   27.2304  -10.3445  -14.9031 S   0  0  0  0  0  0  0  0  0  0  0  0
   23.5215   -9.8435  -16.4542 C   0  0  0  0  0  0  0  0  0  0  0  0
   23.3386   -9.3422  -17.5889 O   0  0  0  0  0  0  0  0  0  0  0  0
   17.5740   -9.6738  -15.2431 N   0  0  0  0  0  0  0  0  0  0  0  0
   18.7153   -9.5286  -16.0633 C   0  0  0  0  0  0  0  0  0  0  0  0
   18.6262   -8.8981  -17.1278 O   0  0  0  0  0  0  0  0  0  0  0  0
   19.9876  -10.1257  -15.6426 C   0  0  0  0  0  0  0  0  0  0  0  0
   21.1841   -9.2122  -15.8299 C   0  0  2  0  0  0  0  0  0  0  0  0
   22.4457   -9.7899  -15.5297 N   0  0  0  0  0  0  0  0  0  0  0  0
   20.9739   -7.9000  -15.1567 C   0  0  0  0  0  0  0  0  0  0  0  0
   20.8693   -7.8331  -13.8827 O   0  0  0  0  0  0  0  0  0  0  0  0
   24.1027   -4.5703  -15.7720 N   0  0  0  0  0  0  0  0  0  0  0  0
   22.9224   -4.6276  -14.9444 C   0  0  0  0  0  0  0  0  0  0  0  0
   23.1734   -4.9050  -13.7361 O   0  0  0  0  0  0  0  0  0  0  0  0
   21.5845   -4.3785  -15.5072 C   0  0  0  0  0  0  0  0  0  0  0  0
   20.6273   -5.4476  -15.1132 C   0  0  2  0  0  0  0  0  0  0  0  0
   20.8797   -6.6820  -15.8647 N   0  0  0  0  0  0  0  0  0  0  0  0
   19.2472   -5.0439  -15.5139 C   0  0  0  0  0  0  0  0  0  0  0  0
   18.5655   -5.7561  -16.4608 O   0  0  0  0  0  0  0  0  0  0  0  0
   18.7271   -4.0491  -14.9736 O   0  0  0  0  0  0  0  0  0  0  0  0
  2  1  1  6
  2  3  1  0
  4  3  1  0
  5 12  1  0
  5  2  1  0
  6  5  2  0
  8  7  1  0
  8 10  1  0
  9  8  2  0
 11 13  1  0
 11 10  1  1
 11 12  1  0
 13 20  1  0
 14 13  2  0
 16 17  2  0
 16 15  1  0
 18 16  1  0
 19 18  1  6
 20 19  1  0
 21 22  1  0
 21 19  1  0
 23 21  2  0
M  END
$$$$
