CNN.pdb
     RDKit          3D

 23 22  0  0  1  0  0  0  0  0999 V2000
   17.9943  -13.3575  -15.8756 N   0  0  0  0  0  0  0  0  0  0  0  0
   17.4646  -12.0173  -15.7460 C   0  0  1  0  0  0  0  0  0  0  0  0
   16.1131  -12.1146  -15.1123 C   0  0  0  0  0  0  0  0  0  0  0  0
   14.9415  -12.8505  -16.2913 S   0  0  0  0  0  0  0  0  0  0  0  0
   18.4273  -11.2098  -14.9874 C   0  0  0  0  0  0  0  0  0  0  0  0
   19.1643  -11.7718  -14.1429 O   0  0  0  0  0  0  0  0  0  0  0  0
   21.4770   -7.6432  -13.0403 N   0  0  0  0  0  0  0  0  0  0  0  0
   21.7519   -7.9156  -14.3992 C   0  0  0  0  0  0  0  0  0  0  0  0
   22.8319   -7.5516  -14.8889 O   0  0  0  0  0  0  0  0  0  0  0  0
   20.7555   -8.6249  -15.2094 C   0  0  0  0  0  0  0  0  0  0  0  0
   19.5119   -9.0249  -14.4383 C   0  0  2  0  0  0  0  0  0  0  0  0
   18.5726   -9.8083  -15.1591 N   0  0  0  0  0  0  0  0  0  0  0  0
   18.8904   -7.8497  -13.7662 C   0  0  0  0  0  0  0  0  0  0  0  0
   18.0366   -7.1241  -14.3852 O   0  0  0  0  0  0  0  0  0  0  0  0
   17.0635   -4.4366  -10.4233 N   0  0  0  0  0  0  0  0  0  0  0  0
   17.5029   -5.5949   -9.6841 C   0  0  0  0  0  0  0  0  0  0  0  0
   17.1936   -5.5513   -8.4584 O   0  0  0  0  0  0  0  0  0  0  0  0
   18.2350   -6.6882  -10.3456 C   0  0  0  0  0  0  0  0  0  0  0  0
   18.3960   -6.4246  -11.8013 C   0  0  2  0  0  0  0  0  0  0  0  0
   19.1971   -7.4746  -12.4399 N   0  0  0  0  0  0  0  0  0  0  0  0
   19.1971   -5.1792  -11.9897 C   0  0  0  0  0  0  0  0  0  0  0  0
   18.7010   -3.9701  -11.5893 O   0  0  0  0  0  0  0  0  0  0  0  0
   20.3229   -5.2583  -12.5174 O   0  0  0  0  0  0  0  0  0  0  0  0
  2  1  1  1
  2  3  1  0
  4  3  1  0
  5 12  1  0
  5  2  1  0
  6  5  2  0
  8  7  1  0
  8 10  1  0
  9  8  2  0
 11 13  1  0
 11 10  1  6
 11 12  1  0
 13 20  1  0
 14 13  2  0
 16 17  2  0
 16 15  1  0
 18 16  1  0
 19 18  1  1
 20 19  1  0
 21 22  1  0
 21 19  1  0
 23 21  2  0
M  END
$$$$
