WSA.pdb
     RDKit          3D

 26 27  0  0  1  0  0  0  0  0999 V2000
    7.0537  -17.7253   24.0080 N   0  0  0  0  0  0  0  0  0  0  0  0
    7.9682  -16.6473   23.6230 C   0  0  1  0  0  0  0  0  0  0  0  0
    8.3502  -15.9427   24.8972 C   0  0  0  0  0  0  0  0  0  0  0  0
    7.2996  -15.0624   25.4269 C   0  0  0  0  0  0  0  0  0  0  0  0
    6.0846  -15.4797   25.9133 C   0  0  0  0  0  0  0  0  0  0  0  0
    5.3610  -14.3959   26.3245 N   0  0  0  0  0  0  0  0  0  0  0  0
    6.0933  -13.2786   26.1102 C   0  0  0  0  0  0  0  0  0  0  0  0
    5.8144  -11.9488   26.3514 C   0  0  0  0  0  0  0  0  0  0  0  0
    6.7449  -10.9822   26.0373 C   0  0  0  0  0  0  0  0  0  0  0  0
    7.9403  -11.3772   25.4852 C   0  0  0  0  0  0  0  0  0  0  0  0
    8.2238  -12.7108   25.2418 C   0  0  0  0  0  0  0  0  0  0  0  0
    7.2924  -13.6895   25.5553 C   0  0  0  0  0  0  0  0  0  0  0  0
    9.1158  -17.3008   22.9640 C   0  0  0  0  0  0  0  0  0  0  0  0
    9.4652  -18.4293   23.3896 O   0  0  0  0  0  0  0  0  0  0  0  0
   11.4854  -15.2726   20.1668 O   0  0  0  0  0  0  0  0  0  0  0  0
   11.3254  -16.6412   19.9947 C   0  0  0  0  0  0  0  0  0  0  0  0
   11.0638  -17.3073   21.3495 C   0  0  2  0  0  0  0  0  0  0  0  0
    9.8405  -16.7397   21.8925 N   0  0  0  0  0  0  0  0  0  0  0  0
   12.1891  -17.1891   22.2766 C   0  0  0  0  0  0  0  0  0  0  0  0
   12.3492  -16.1209   22.9505 O   0  0  0  0  0  0  0  0  0  0  0  0
   15.0877  -19.2915   23.5487 C   0  0  0  0  0  0  0  0  0  0  0  0
   14.2589  -18.0336   23.4340 C   0  0  2  0  0  0  0  0  0  0  0  0
   13.1578  -18.1981   22.5034 N   0  0  0  0  0  0  0  0  0  0  0  0
   15.1434  -16.9676   22.9271 C   0  0  0  0  0  0  0  0  0  0  0  0
   15.1415  -16.6159   21.5933 O   0  0  0  0  0  0  0  0  0  0  0  0
   15.9062  -16.3751   23.7210 O   0  0  0  0  0  0  0  0  0  0  0  0
  2  1  1  1
  2 13  1  0
  3  2  1  0
  3  4  1  0
  4 12  1  0
  5  4  2  0
  5  6  1  0
  6  7  1  0
  7  8  2  0
  8  9  1  0
 10  9  2  0
 11 10  1  0
 12 11  2  0
 12  7  1  0
 13 14  2  0
 16 15  1  0
 17 16  1  6
 17 19  1  0
 18 17  1  0
 18 13  1  0
 19 20  2  0
 19 23  1  0
 22 21  1  6
 23 22  1  0
 24 25  1  0
 24 22  1  0
 26 24  2  0
M  END
$$$$
