WSA.pdb
     RDKit          3D

 26 27  0  0  1  0  0  0  0  0999 V2000
    6.9503  -17.8598   24.1118 N   0  0  0  0  0  0  0  0  0  0  0  0
    7.7048  -16.6970   23.6372 C   0  0  1  0  0  0  0  0  0  0  0  0
    8.2056  -15.9882   24.8671 C   0  0  0  0  0  0  0  0  0  0  0  0
    7.2012  -15.1273   25.5067 C   0  0  0  0  0  0  0  0  0  0  0  0
    6.0563  -15.5673   26.1251 C   0  0  0  0  0  0  0  0  0  0  0  0
    5.3593  -14.4967   26.6104 N   0  0  0  0  0  0  0  0  0  0  0  0
    6.0397  -13.3656   26.3136 C   0  0  0  0  0  0  0  0  0  0  0  0
    5.7608  -12.0406   26.5802 C   0  0  0  0  0  0  0  0  0  0  0  0
    6.6303  -11.0564   26.1629 C   0  0  0  0  0  0  0  0  0  0  0  0
    7.7658  -11.4293   25.4837 C   0  0  0  0  0  0  0  0  0  0  0  0
    8.0491  -12.7579   25.2144 C   0  0  0  0  0  0  0  0  0  0  0  0
    7.1789  -13.7542   25.6312 C   0  0  0  0  0  0  0  0  0  0  0  0
    8.7965  -17.2321   22.8004 C   0  0  0  0  0  0  0  0  0  0  0  0
    9.2526  -18.3644   23.0942 O   0  0  0  0  0  0  0  0  0  0  0  0
    9.9948  -16.2346   18.8620 O   0  0  0  0  0  0  0  0  0  0  0  0
   10.8578  -15.9466   19.9112 C   0  0  0  0  0  0  0  0  0  0  0  0
   10.6132  -16.9225   21.0668 C   0  0  2  0  0  0  0  0  0  0  0  0
    9.3562  -16.5544   21.6978 N   0  0  0  0  0  0  0  0  0  0  0  0
   11.7194  -16.9728   22.0225 C   0  0  0  0  0  0  0  0  0  0  0  0
   11.9250  -15.9942   22.8106 O   0  0  0  0  0  0  0  0  0  0  0  0
   14.1017  -19.5168   23.4581 C   0  0  0  0  0  0  0  0  0  0  0  0
   13.6461  -18.1027   23.1836 C   0  0  2  0  0  0  0  0  0  0  0  0
   12.6210  -18.0577   22.1576 N   0  0  0  0  0  0  0  0  0  0  0  0
   14.8189  -17.3469   22.7052 C   0  0  0  0  0  0  0  0  0  0  0  0
   14.9039  -16.9186   21.3967 O   0  0  0  0  0  0  0  0  0  0  0  0
   15.7494  -17.0917   23.5003 O   0  0  0  0  0  0  0  0  0  0  0  0
  2  1  1  1
  2 13  1  0
  3  2  1  0
  3  4  1  0
  4 12  1  0
  5  4  2  0
  5  6  1  0
  6  7  1  0
  7  8  2  0
  8  9  1  0
 10  9  2  0
 11 10  1  0
 12 11  2  0
 12  7  1  0
 13 14  2  0
 16 15  1  0
 17 16  1  6
 17 19  1  0
 18 17  1  0
 18 13  1  0
 19 20  2  0
 19 23  1  0
 22 21  1  6
 23 22  1  0
 24 25  1  0
 24 22  1  0
 26 24  2  0
M  END
$$$$
