WSA.pdb
     RDKit          3D

 26 27  0  0  1  0  0  0  0  0999 V2000
    6.2519  -18.5583   23.9865 N   0  0  0  0  0  0  0  0  0  0  0  0
    7.0301  -17.3194   23.9077 C   0  0  1  0  0  0  0  0  0  0  0  0
    6.1696  -16.2415   24.5108 C   0  0  0  0  0  0  0  0  0  0  0  0
    6.6804  -14.8814   24.2906 C   0  0  0  0  0  0  0  0  0  0  0  0
    7.4677  -14.4901   23.2351 C   0  0  0  0  0  0  0  0  0  0  0  0
    7.7517  -13.1581   23.3467 N   0  0  0  0  0  0  0  0  0  0  0  0
    7.1571  -12.6799   24.4639 C   0  0  0  0  0  0  0  0  0  0  0  0
    7.1403  -11.4145   25.0141 C   0  0  0  0  0  0  0  0  0  0  0  0
    6.4479  -11.1807   26.1824 C   0  0  0  0  0  0  0  0  0  0  0  0
    5.7852  -12.2301   26.7733 C   0  0  0  0  0  0  0  0  0  0  0  0
    5.7997  -13.5015   26.2240 C   0  0  0  0  0  0  0  0  0  0  0  0
    6.4943  -13.7446   25.0484 C   0  0  0  0  0  0  0  0  0  0  0  0
    8.2656  -17.5633   24.6774 C   0  0  0  0  0  0  0  0  0  0  0  0
    8.1433  -17.9463   25.8669 O   0  0  0  0  0  0  0  0  0  0  0  0
   12.1138  -16.5092   23.2753 O   0  0  0  0  0  0  0  0  0  0  0  0
   11.9479  -17.7140   23.9458 C   0  0  0  0  0  0  0  0  0  0  0  0
   10.7824  -17.6014   24.9340 C   0  0  2  0  0  0  0  0  0  0  0  0
    9.5674  -17.3936   24.1630 N   0  0  0  0  0  0  0  0  0  0  0  0
   10.9821  -16.5629   25.9446 C   0  0  0  0  0  0  0  0  0  0  0  0
   11.5225  -15.4562   25.6221 O   0  0  0  0  0  0  0  0  0  0  0  0
   10.2650  -14.7627   28.7949 C   0  0  0  0  0  0  0  0  0  0  0  0
   11.1999  -15.8642   28.3533 C   0  0  2  0  0  0  0  0  0  0  0  0
   10.6126  -16.6810   27.3076 N   0  0  0  0  0  0  0  0  0  0  0  0
   11.4568  -16.7209   29.5261 C   0  0  0  0  0  0  0  0  0  0  0  0
   11.0963  -18.0524   29.5271 O   0  0  0  0  0  0  0  0  0  0  0  0
   12.0101  -16.2301   30.5340 O   0  0  0  0  0  0  0  0  0  0  0  0
  2  1  1  1
  2 13  1  0
  3  2  1  0
  3  4  1  0
  4 12  1  0
  5  4  2  0
  5  6  1  0
  6  7  1  0
  7  8  2  0
  8  9  1  0
 10  9  2  0
 11 10  1  0
 12 11  2  0
 12  7  1  0
 13 14  2  0
 16 15  1  0
 17 16  1  6
 17 19  1  0
 18 17  1  0
 18 13  1  0
 19 20  2  0
 19 23  1  0
 22 21  1  1
 23 22  1  0
 24 25  1  0
 24 22  1  0
 26 24  2  0
M  END
$$$$
