WSA.pdb
     RDKit          3D

 26 27  0  0  1  0  0  0  0  0999 V2000
    6.7129  -17.7980   24.3271 N   0  0  0  0  0  0  0  0  0  0  0  0
    7.5492  -16.7394   23.7557 C   0  0  1  0  0  0  0  0  0  0  0  0
    8.1380  -15.9911   24.9216 C   0  0  0  0  0  0  0  0  0  0  0  0
    7.1814  -15.1104   25.6060 C   0  0  0  0  0  0  0  0  0  0  0  0
    6.0812  -15.5302   26.3132 C   0  0  0  0  0  0  0  0  0  0  0  0
    5.4210  -14.4450   26.8171 N   0  0  0  0  0  0  0  0  0  0  0  0
    6.0810  -13.3243   26.4444 C   0  0  0  0  0  0  0  0  0  0  0  0
    5.8232  -11.9919   26.6946 C   0  0  0  0  0  0  0  0  0  0  0  0
    6.6633  -11.0218   26.1925 C   0  0  0  0  0  0  0  0  0  0  0  0
    7.7487  -11.4162   25.4467 C   0  0  0  0  0  0  0  0  0  0  0  0
    8.0107  -12.7523   25.1936 C   0  0  0  0  0  0  0  0  0  0  0  0
    7.1698  -13.7345   25.6955 C   0  0  0  0  0  0  0  0  0  0  0  0
    8.5713  -17.4223   22.9387 C   0  0  0  0  0  0  0  0  0  0  0  0
    9.0909  -18.4640   23.4093 O   0  0  0  0  0  0  0  0  0  0  0  0
   10.1201  -15.4024   19.7517 O   0  0  0  0  0  0  0  0  0  0  0  0
   10.2719  -16.7776   19.6318 C   0  0  0  0  0  0  0  0  0  0  0  0
   10.2182  -17.4282   21.0179 C   0  0  2  0  0  0  0  0  0  0  0  0
    8.9984  -16.9799   21.6698 N   0  0  0  0  0  0  0  0  0  0  0  0
   11.4083  -17.1625   21.8257 C   0  0  0  0  0  0  0  0  0  0  0  0
   11.6193  -15.9933   22.2833 O   0  0  0  0  0  0  0  0  0  0  0  0
   13.8155  -18.9291   23.9874 C   0  0  0  0  0  0  0  0  0  0  0  0
   13.5373  -17.8252   22.9942 C   0  0  2  0  0  0  0  0  0  0  0  0
   12.3893  -18.1288   22.1603 N   0  0  0  0  0  0  0  0  0  0  0  0
   14.7245  -17.7024   22.1276 C   0  0  0  0  0  0  0  0  0  0  0  0
   15.9313  -17.2642   22.6321 O   0  0  0  0  0  0  0  0  0  0  0  0
   14.6329  -18.0008   20.9170 O   0  0  0  0  0  0  0  0  0  0  0  0
  2  1  1  1
  2 13  1  0
  3  2  1  0
  3  4  1  0
  4 12  1  0
  5  4  2  0
  5  6  1  0
  6  7  1  0
  7  8  2  0
  8  9  1  0
 10  9  2  0
 11 10  1  0
 12 11  2  0
 12  7  1  0
 13 14  2  0
 16 15  1  0
 17 16  1  6
 17 19  1  0
 18 17  1  0
 18 13  1  0
 19 20  2  0
 19 23  1  0
 22 21  1  1
 23 22  1  0
 24 25  1  0
 24 22  1  0
 26 24  2  0
M  END
$$$$
