WSA.pdb
     RDKit          3D

 26 27  0  0  1  0  0  0  0  0999 V2000
    6.4919  -17.6974   23.8713 N   0  0  0  0  0  0  0  0  0  0  0  0
    7.0925  -16.5144   23.2497 C   0  0  1  0  0  0  0  0  0  0  0  0
    7.9347  -15.8608   24.3124 C   0  0  0  0  0  0  0  0  0  0  0  0
    7.1710  -15.0096   25.2352 C   0  0  0  0  0  0  0  0  0  0  0  0
    6.1447  -15.4353   26.0429 C   0  0  0  0  0  0  0  0  0  0  0  0
    5.6677  -14.3806   26.7690 N   0  0  0  0  0  0  0  0  0  0  0  0
    6.3735  -13.2738   26.4413 C   0  0  0  0  0  0  0  0  0  0  0  0
    6.2813  -11.9715   26.8883 C   0  0  0  0  0  0  0  0  0  0  0  0
    7.1322  -11.0099   26.3882 C   0  0  0  0  0  0  0  0  0  0  0  0
    8.0608  -11.3822   25.4453 C   0  0  0  0  0  0  0  0  0  0  0  0
    8.1563  -12.6881   24.9943 C   0  0  0  0  0  0  0  0  0  0  0  0
    7.3034  -13.6616   25.4930 C   0  0  0  0  0  0  0  0  0  0  0  0
    7.8907  -17.0114   22.1120 C   0  0  0  0  0  0  0  0  0  0  0  0
    8.3719  -18.1677   22.2006 O   0  0  0  0  0  0  0  0  0  0  0  0
    7.9366  -15.9034   17.9967 O   0  0  0  0  0  0  0  0  0  0  0  0
    9.0408  -15.6299   18.7932 C   0  0  0  0  0  0  0  0  0  0  0  0
    9.1242  -16.6511   19.9324 C   0  0  2  0  0  0  0  0  0  0  0  0
    8.1452  -16.2724   20.9384 N   0  0  0  0  0  0  0  0  0  0  0  0
   10.4698  -16.7833   20.4904 C   0  0  0  0  0  0  0  0  0  0  0  0
   10.9053  -15.9162   21.3147 O   0  0  0  0  0  0  0  0  0  0  0  0
   12.8670  -19.3460   21.4043 C   0  0  0  0  0  0  0  0  0  0  0  0
   12.6671  -17.9656   20.8238 C   0  0  2  0  0  0  0  0  0  0  0  0
   11.3710  -17.8334   20.1850 N   0  0  0  0  0  0  0  0  0  0  0  0
   13.7132  -17.7605   19.8044 C   0  0  0  0  0  0  0  0  0  0  0  0
   15.0104  -17.4618   20.1663 O   0  0  0  0  0  0  0  0  0  0  0  0
   13.4168  -17.8593   18.5938 O   0  0  0  0  0  0  0  0  0  0  0  0
  2  1  1  1
  2 13  1  0
  3  2  1  0
  3  4  1  0
  4 12  1  0
  5  4  2  0
  5  6  1  0
  6  7  1  0
  7  8  2  0
  8  9  1  0
 10  9  2  0
 11 10  1  0
 12 11  2  0
 12  7  1  0
 13 14  2  0
 16 15  1  0
 17 16  1  6
 17 19  1  0
 18 17  1  0
 18 13  1  0
 19 20  2  0
 19 23  1  0
 22 21  1  6
 23 22  1  0
 24 25  1  0
 24 22  1  0
 26 24  2  0
M  END
$$$$
