WSA.pdb
     RDKit          3D

 26 27  0  0  1  0  0  0  0  0999 V2000
    6.7753  -17.8267   23.7982 N   0  0  0  0  0  0  0  0  0  0  0  0
    7.6903  -16.7570   23.3920 C   0  0  1  0  0  0  0  0  0  0  0  0
    8.2362  -16.1632   24.6630 C   0  0  0  0  0  0  0  0  0  0  0  0
    7.2898  -15.2822   25.3612 C   0  0  0  0  0  0  0  0  0  0  0  0
    6.2165  -15.7028   26.1081 C   0  0  0  0  0  0  0  0  0  0  0  0
    5.5585  -14.6170   26.6135 N   0  0  0  0  0  0  0  0  0  0  0  0
    6.1933  -13.4951   26.2025 C   0  0  0  0  0  0  0  0  0  0  0  0
    5.9268  -12.1618   26.4381 C   0  0  0  0  0  0  0  0  0  0  0  0
    6.7396  -11.1907   25.8949 C   0  0  0  0  0  0  0  0  0  0  0  0
    7.8070  -11.5849   25.1234 C   0  0  0  0  0  0  0  0  0  0  0  0
    8.0776  -12.9220   24.8848 C   0  0  0  0  0  0  0  0  0  0  0  0
    7.2641  -13.9053   25.4281 C   0  0  0  0  0  0  0  0  0  0  0  0
    8.7315  -17.4010   22.5677 C   0  0  0  0  0  0  0  0  0  0  0  0
    9.1122  -18.5491   22.9046 O   0  0  0  0  0  0  0  0  0  0  0  0
    9.7235  -15.8576   19.1624 O   0  0  0  0  0  0  0  0  0  0  0  0
   10.9323  -16.2394   19.7293 C   0  0  0  0  0  0  0  0  0  0  0  0
   10.6742  -17.0910   20.9766 C   0  0  2  0  0  0  0  0  0  0  0  0
    9.3223  -16.8103   21.4318 N   0  0  0  0  0  0  0  0  0  0  0  0
   11.6678  -16.8858   22.0302 C   0  0  0  0  0  0  0  0  0  0  0  0
   11.5757  -15.8797   22.8050 O   0  0  0  0  0  0  0  0  0  0  0  0
   13.6046  -18.6241   24.4084 C   0  0  0  0  0  0  0  0  0  0  0  0
   13.6979  -17.5275   23.3734 C   0  0  2  0  0  0  0  0  0  0  0  0
   12.7699  -17.7412   22.2785 N   0  0  0  0  0  0  0  0  0  0  0  0
   15.0702  -17.5471   22.8330 C   0  0  0  0  0  0  0  0  0  0  0  0
   15.3089  -17.8498   21.5086 O   0  0  0  0  0  0  0  0  0  0  0  0
   16.0304  -17.2848   23.5894 O   0  0  0  0  0  0  0  0  0  0  0  0
  2  1  1  1
  2 13  1  0
  3  2  1  0
  3  4  1  0
  4 12  1  0
  5  4  2  0
  5  6  1  0
  6  7  1  0
  7  8  2  0
  8  9  1  0
 10  9  2  0
 11 10  1  0
 12 11  2  0
 12  7  1  0
 13 14  2  0
 16 15  1  0
 17 16  1  6
 17 19  1  0
 18 17  1  0
 18 13  1  0
 19 20  2  0
 19 23  1  0
 22 21  1  1
 23 22  1  0
 24 25  1  0
 24 22  1  0
 26 24  2  0
M  END
$$$$
