WSA.pdb
     RDKit          3D

 26 27  0  0  1  0  0  0  0  0999 V2000
    6.7410  -17.5582   23.9343 N   0  0  0  0  0  0  0  0  0  0  0  0
    7.8995  -16.6738   23.7851 C   0  0  1  0  0  0  0  0  0  0  0  0
    8.2084  -16.1470   25.1610 C   0  0  0  0  0  0  0  0  0  0  0  0
    7.2183  -15.1852   25.6647 C   0  0  0  0  0  0  0  0  0  0  0  0
    6.0028  -15.5116   26.2151 C   0  0  0  0  0  0  0  0  0  0  0  0
    5.3443  -14.3703   26.5772 N   0  0  0  0  0  0  0  0  0  0  0  0
    6.1196  -13.3055   26.2676 C   0  0  0  0  0  0  0  0  0  0  0  0
    5.9107  -11.9511   26.4300 C   0  0  0  0  0  0  0  0  0  0  0  0
    6.8733  -11.0524   26.0245 C   0  0  0  0  0  0  0  0  0  0  0  0
    8.0296  -11.5389   25.4623 C   0  0  0  0  0  0  0  0  0  0  0  0
    8.2428  -12.8974   25.2977 C   0  0  0  0  0  0  0  0  0  0  0  0
    7.2787  -13.8082   25.7034 C   0  0  0  0  0  0  0  0  0  0  0  0
    8.9841  -17.5104   23.2356 C   0  0  0  0  0  0  0  0  0  0  0  0
    9.0333  -18.7112   23.5994 O   0  0  0  0  0  0  0  0  0  0  0  0
   12.0669  -15.6039   21.2732 O   0  0  0  0  0  0  0  0  0  0  0  0
   11.9614  -16.9582   20.9849 C   0  0  0  0  0  0  0  0  0  0  0  0
   11.2576  -17.6807   22.1383 C   0  0  2  0  0  0  0  0  0  0  0  0
    9.9633  -17.0477   22.3326 N   0  0  0  0  0  0  0  0  0  0  0  0
   12.0497  -17.7119   23.3676 C   0  0  0  0  0  0  0  0  0  0  0  0
   12.4273  -16.6234   23.9095 O   0  0  0  0  0  0  0  0  0  0  0  0
   12.4909  -19.5247   26.4085 C   0  0  0  0  0  0  0  0  0  0  0  0
   13.2305  -18.8730   25.2636 C   0  0  2  0  0  0  0  0  0  0  0  0
   12.4516  -18.8930   24.0395 N   0  0  0  0  0  0  0  0  0  0  0  0
   14.4680  -19.6443   25.0423 C   0  0  0  0  0  0  0  0  0  0  0  0
   15.4490  -19.7084   26.0100 O   0  0  0  0  0  0  0  0  0  0  0  0
   14.6281  -20.2486   23.9596 O   0  0  0  0  0  0  0  0  0  0  0  0
  2  1  1  1
  2 13  1  0
  3  2  1  0
  3  4  1  0
  4 12  1  0
  5  4  2  0
  5  6  1  0
  6  7  1  0
  7  8  2  0
  8  9  1  0
 10  9  2  0
 11 10  1  0
 12 11  2  0
 12  7  1  0
 13 14  2  0
 16 15  1  0
 17 16  1  6
 17 19  1  0
 18 17  1  0
 18 13  1  0
 19 20  2  0
 19 23  1  0
 22 21  1  1
 23 22  1  0
 24 25  1  0
 24 22  1  0
 26 24  2  0
M  END
$$$$
