WSA.pdb
     RDKit          3D

 26 27  0  0  1  0  0  0  0  0999 V2000
   10.0889  -16.2356   22.7116 N   0  0  0  0  0  0  0  0  0  0  0  0
    9.7610  -15.5395   23.9584 C   0  0  1  0  0  0  0  0  0  0  0  0
    8.3032  -15.8076   24.2207 C   0  0  0  0  0  0  0  0  0  0  0  0
    7.4467  -14.6219   24.0801 C   0  0  0  0  0  0  0  0  0  0  0  0
    6.7721  -14.2605   22.9394 C   0  0  0  0  0  0  0  0  0  0  0  0
    6.0727  -13.1090   23.1681 N   0  0  0  0  0  0  0  0  0  0  0  0
    6.2861  -12.7184   24.4458 C   0  0  0  0  0  0  0  0  0  0  0  0
    5.8135  -11.6335   25.1556 C   0  0  0  0  0  0  0  0  0  0  0  0
    6.1862  -11.4554   26.4702 C   0  0  0  0  0  0  0  0  0  0  0  0
    7.0298  -12.3771   27.0434 C   0  0  0  0  0  0  0  0  0  0  0  0
    7.5062  -13.4671   26.3342 C   0  0  0  0  0  0  0  0  0  0  0  0
    7.1355  -13.6532   25.0107 C   0  0  0  0  0  0  0  0  0  0  0  0
   10.6439  -16.1147   24.9919 C   0  0  0  0  0  0  0  0  0  0  0  0
   11.2924  -17.1476   24.6932 O   0  0  0  0  0  0  0  0  0  0  0  0
   10.4001  -15.1800   29.0896 O   0  0  0  0  0  0  0  0  0  0  0  0
   11.6615  -15.2073   28.5096 C   0  0  0  0  0  0  0  0  0  0  0  0
   11.6598  -16.1589   27.3087 C   0  0  2  0  0  0  0  0  0  0  0  0
   10.8033  -15.5796   26.2867 N   0  0  0  0  0  0  0  0  0  0  0  0
   11.2640  -17.5237   27.6555 C   0  0  0  0  0  0  0  0  0  0  0  0
   10.0304  -17.8329   27.7162 O   0  0  0  0  0  0  0  0  0  0  0  0
   12.8577  -20.9047   28.2910 C   0  0  0  0  0  0  0  0  0  0  0  0
   11.7251  -19.9055   28.3274 C   0  0  2  0  0  0  0  0  0  0  0  0
   12.1664  -18.5782   27.9415 N   0  0  0  0  0  0  0  0  0  0  0  0
   11.2324  -19.8483   29.7165 C   0  0  0  0  0  0  0  0  0  0  0  0
   10.6614  -20.9522   30.3149 O   0  0  0  0  0  0  0  0  0  0  0  0
   11.3350  -18.7810   30.3595 O   0  0  0  0  0  0  0  0  0  0  0  0
  2  1  1  6
  2 13  1  0
  3  2  1  0
  3  4  1  0
  4 12  1  0
  5  4  2  0
  5  6  1  0
  6  7  1  0
  7  8  2  0
  8  9  1  0
 10  9  2  0
 11 10  1  0
 12 11  2  0
 12  7  1  0
 13 14  2  0
 16 15  1  0
 17 16  1  1
 17 19  1  0
 18 17  1  0
 18 13  1  0
 19 20  2  0
 19 23  1  0
 22 21  1  1
 23 22  1  0
 24 25  1  0
 24 22  1  0
 26 24  2  0
M  END
$$$$
