IKR.pdb
     RDKit          3D

 29 28  0  0  1  0  0  0  0  0999 V2000
    7.2244  -11.5428   19.6260 C   0  0  0  0  0  0  0  0  0  0  0  0
    6.9861  -12.9704   19.2064 C   0  0  0  0  0  0  0  0  0  0  0  0
    7.8399  -13.9438   19.9528 C   0  0  2  0  0  0  0  0  0  0  0  0
    9.2966  -13.5843   19.6903 C   0  0  0  0  0  0  0  0  0  0  0  0
    7.6549  -15.3710   19.5866 C   0  0  2  0  0  0  0  0  0  0  0  0
    6.2836  -15.7895   19.7578 N   0  0  0  0  0  0  0  0  0  0  0  0
    8.5276  -16.3064   20.3394 C   0  0  0  0  0  0  0  0  0  0  0  0
    8.3442  -16.5942   21.5515 O   0  0  0  0  0  0  0  0  0  0  0  0
    9.6261  -16.9205   19.6943 N   0  0  0  0  0  0  0  0  0  0  0  0
   10.5965  -17.7726   20.3792 C   0  0  1  0  0  0  0  0  0  0  0  0
   11.4947  -18.4530   19.4177 C   0  0  0  0  0  0  0  0  0  0  0  0
   12.5555  -19.3240   19.9591 C   0  0  0  0  0  0  0  0  0  0  0  0
   12.2388  -20.7520   20.1953 C   0  0  0  0  0  0  0  0  0  0  0  0
   13.4896  -21.4511   20.6898 C   0  0  0  0  0  0  0  0  0  0  0  0
   13.1345  -22.8577   20.9211 N   0  0  0  0  0  0  0  0  0  0  0  0
   11.1989  -17.1264   21.5355 C   0  0  0  0  0  0  0  0  0  0  0  0
   11.8329  -16.0519   21.3570 O   0  0  0  0  0  0  0  0  0  0  0  0
   10.5961  -16.1823   30.3508 N   0  0  0  0  0  0  0  0  0  0  0  0
   10.7945  -15.1007   29.4743 C   0  0  0  0  0  0  0  0  0  0  0  0
   10.3176  -13.9251   29.7528 N   0  0  0  0  0  0  0  0  0  0  0  0
   11.5205  -15.2536   28.2587 N   0  0  0  0  0  0  0  0  0  0  0  0
   10.9010  -15.7870   27.0579 C   0  0  0  0  0  0  0  0  0  0  0  0
   11.7519  -16.9496   26.5078 C   0  0  0  0  0  0  0  0  0  0  0  0
   11.1452  -17.4611   25.2544 C   0  0  0  0  0  0  0  0  0  0  0  0
   11.7193  -16.8261   23.9753 C   0  0  2  0  0  0  0  0  0  0  0  0
   11.1250  -17.6048   22.8636 N   0  0  0  0  0  0  0  0  0  0  0  0
   13.1818  -16.9838   24.0439 C   0  0  0  0  0  0  0  0  0  0  0  0
   13.9857  -15.9113   24.4016 O   0  0  0  0  0  0  0  0  0  0  0  0
   13.7839  -18.0533   23.7930 O   0  0  0  0  0  0  0  0  0  0  0  0
  2  1  1  0
  3  5  1  0
  3  2  1  0
  3  4  1  6
  5  7  1  0
  5  6  1  1
  7  8  2  0
  9 10  1  0
  9  7  1  0
 11 12  1  0
 10 11  1  6
 12 13  1  0
 13 14  1  0
 14 15  1  0
 16 10  1  0
 16 17  2  0
 18 19  1  0
 19 21  1  0
 20 19  2  0
 21 22  1  0
 22 23  1  0
 23 24  1  0
 25 24  1  1
 25 26  1  0
 25 27  1  0
 26 16  1  0
 27 29  2  0
 27 28  1  0
M  END
$$$$
