IKR.pdb
     RDKit          3D

 29 28  0  0  1  0  0  0  0  0999 V2000
    9.8697  -16.7635   13.9074 C   0  0  0  0  0  0  0  0  0  0  0  0
    8.7840  -17.4726   14.6749 C   0  0  0  0  0  0  0  0  0  0  0  0
    8.9017  -17.2840   16.1529 C   0  0  2  0  0  0  0  0  0  0  0  0
   10.3257  -17.6427   16.5574 C   0  0  0  0  0  0  0  0  0  0  0  0
    7.9786  -18.1030   16.9790 C   0  0  2  0  0  0  0  0  0  0  0  0
    6.5980  -17.7624   16.7283 N   0  0  0  0  0  0  0  0  0  0  0  0
    8.2272  -18.0065   18.4392 C   0  0  0  0  0  0  0  0  0  0  0  0
    8.1823  -16.9204   19.0747 O   0  0  0  0  0  0  0  0  0  0  0  0
    8.5319  -19.1710   19.1816 N   0  0  0  0  0  0  0  0  0  0  0  0
    8.7748  -19.1739   20.6231 C   0  0  1  0  0  0  0  0  0  0  0  0
    8.5515  -20.5162   21.2081 C   0  0  0  0  0  0  0  0  0  0  0  0
    9.0109  -20.7539   22.5900 C   0  0  0  0  0  0  0  0  0  0  0  0
    8.9232  -22.1301   23.1319 C   0  0  0  0  0  0  0  0  0  0  0  0
    9.1842  -22.0814   24.6243 C   0  0  0  0  0  0  0  0  0  0  0  0
   10.6390  -22.1646   24.8106 N   0  0  0  0  0  0  0  0  0  0  0  0
    9.9888  -18.4620   20.9929 C   0  0  0  0  0  0  0  0  0  0  0  0
   11.0927  -18.9080   20.5796 O   0  0  0  0  0  0  0  0  0  0  0  0
    8.1763  -12.6339   18.0810 N   0  0  0  0  0  0  0  0  0  0  0  0
    8.1146  -13.3026   19.3165 C   0  0  0  0  0  0  0  0  0  0  0  0
    7.0041  -13.8374   19.7265 N   0  0  0  0  0  0  0  0  0  0  0  0
    9.2587  -13.4175   20.1566 N   0  0  0  0  0  0  0  0  0  0  0  0
   10.1422  -14.5689   20.0950 C   0  0  0  0  0  0  0  0  0  0  0  0
   11.3048  -14.3845   21.0913 C   0  0  0  0  0  0  0  0  0  0  0  0
   11.0448  -15.1841   22.3135 C   0  0  0  0  0  0  0  0  0  0  0  0
   11.3363  -16.6868   22.1534 C   0  0  2  0  0  0  0  0  0  0  0  0
   10.0349  -17.2898   21.7816 N   0  0  0  0  0  0  0  0  0  0  0  0
   11.8173  -17.1663   23.4600 C   0  0  0  0  0  0  0  0  0  0  0  0
   13.1489  -17.0098   23.8164 O   0  0  0  0  0  0  0  0  0  0  0  0
   11.0905  -17.7296   24.3108 O   0  0  0  0  0  0  0  0  0  0  0  0
  2  1  1  0
  3  5  1  0
  3  2  1  0
  3  4  1  1
  5  7  1  0
  5  6  1  1
  7  8  2  0
  9 10  1  0
  9  7  1  0
 11 12  1  0
 10 11  1  6
 12 13  1  0
 13 14  1  0
 14 15  1  0
 16 10  1  0
 16 17  2  0
 18 19  1  0
 19 21  1  0
 20 19  2  0
 21 22  1  0
 22 23  1  0
 23 24  1  0
 25 24  1  1
 25 26  1  0
 25 27  1  0
 26 16  1  0
 27 29  2  0
 27 28  1  0
M  END
$$$$
