IKR.pdb
     RDKit          3D

 29 28  0  0  1  0  0  0  0  0999 V2000
    6.5268  -11.5886   27.9504 C   0  0  0  0  0  0  0  0  0  0  0  0
    5.8674  -12.7079   27.1867 C   0  0  0  0  0  0  0  0  0  0  0  0
    6.7927  -13.3731   26.2198 C   0  0  2  0  0  0  0  0  0  0  0  0
    7.2872  -12.3144   25.2428 C   0  0  0  0  0  0  0  0  0  0  0  0
    6.2017  -14.4793   25.4246 C   0  0  2  0  0  0  0  0  0  0  0  0
    5.8066  -15.5850   26.2649 N   0  0  0  0  0  0  0  0  0  0  0  0
    7.0914  -14.9978   24.3556 C   0  0  0  0  0  0  0  0  0  0  0  0
    7.7110  -16.0903   24.4455 O   0  0  0  0  0  0  0  0  0  0  0  0
    7.2741  -14.2538   23.1668 N   0  0  0  0  0  0  0  0  0  0  0  0
    8.0446  -14.7323   22.0204 C   0  0  1  0  0  0  0  0  0  0  0  0
    7.9080  -13.8244   20.8581 C   0  0  0  0  0  0  0  0  0  0  0  0
    8.6263  -14.1753   19.6178 C   0  0  0  0  0  0  0  0  0  0  0  0
    8.2518  -13.4742   18.3675 C   0  0  0  0  0  0  0  0  0  0  0  0
    9.0913  -14.0252   17.2320 C   0  0  0  0  0  0  0  0  0  0  0  0
    8.7069  -13.2939   16.0173 N   0  0  0  0  0  0  0  0  0  0  0  0
    9.3810  -15.1782   22.3844 C   0  0  0  0  0  0  0  0  0  0  0  0
   10.0632  -14.4533   23.1572 O   0  0  0  0  0  0  0  0  0  0  0  0
   12.9432  -20.3699   26.2209 N   0  0  0  0  0  0  0  0  0  0  0  0
   13.6832  -21.0794   25.2583 C   0  0  0  0  0  0  0  0  0  0  0  0
   14.8006  -21.6601   25.5764 N   0  0  0  0  0  0  0  0  0  0  0  0
   13.2375  -21.1867   23.9101 N   0  0  0  0  0  0  0  0  0  0  0  0
   12.0358  -20.5165   23.4444 C   0  0  0  0  0  0  0  0  0  0  0  0
   12.3123  -19.0078   23.2844 C   0  0  0  0  0  0  0  0  0  0  0  0
   11.0892  -18.3267   22.7934 C   0  0  0  0  0  0  0  0  0  0  0  0
   11.2753  -16.8234   22.5206 C   0  0  2  0  0  0  0  0  0  0  0  0
    9.9849  -16.3782   21.9444 N   0  0  0  0  0  0  0  0  0  0  0  0
   12.3841  -16.7017   21.5593 C   0  0  0  0  0  0  0  0  0  0  0  0
   13.6679  -16.4197   22.0031 O   0  0  0  0  0  0  0  0  0  0  0  0
   12.2555  -16.8362   20.3204 O   0  0  0  0  0  0  0  0  0  0  0  0
  2  1  1  0
  3  5  1  0
  3  2  1  0
  3  4  1  6
  5  7  1  0
  5  6  1  1
  7  8  2  0
  9 10  1  0
  9  7  1  0
 11 12  1  0
 10 11  1  6
 12 13  1  0
 13 14  1  0
 14 15  1  0
 16 10  1  0
 16 17  2  0
 18 19  1  0
 19 21  1  0
 20 19  2  0
 21 22  1  0
 22 23  1  0
 23 24  1  0
 25 24  1  6
 25 26  1  0
 25 27  1  0
 26 16  1  0
 27 29  2  0
 27 28  1  0
M  END
$$$$
