IKR.pdb
     RDKit          3D

 29 28  0  0  1  0  0  0  0  0999 V2000
    6.2022  -11.4692   28.0237 C   0  0  0  0  0  0  0  0  0  0  0  0
    5.6874  -12.6326   27.2161 C   0  0  0  0  0  0  0  0  0  0  0  0
    6.7025  -13.1672   26.2583 C   0  0  2  0  0  0  0  0  0  0  0  0
    7.0946  -12.0376   25.3147 C   0  0  0  0  0  0  0  0  0  0  0  0
    6.2577  -14.3147   25.4273 C   0  0  2  0  0  0  0  0  0  0  0  0
    5.9513  -15.4699   26.2376 N   0  0  0  0  0  0  0  0  0  0  0  0
    7.2329  -14.7197   24.3841 C   0  0  0  0  0  0  0  0  0  0  0  0
    8.0881  -15.6276   24.5567 O   0  0  0  0  0  0  0  0  0  0  0  0
    7.2282  -14.0749   23.1254 N   0  0  0  0  0  0  0  0  0  0  0  0
    8.0417  -14.5061   21.9899 C   0  0  1  0  0  0  0  0  0  0  0  0
    7.9395  -13.5563   20.8578 C   0  0  0  0  0  0  0  0  0  0  0  0
    8.7295  -13.8390   19.6440 C   0  0  0  0  0  0  0  0  0  0  0  0
    8.0231  -13.8886   18.3426 C   0  0  0  0  0  0  0  0  0  0  0  0
    9.0346  -14.1818   17.2524 C   0  0  0  0  0  0  0  0  0  0  0  0
    8.3390  -14.0317   15.9672 N   0  0  0  0  0  0  0  0  0  0  0  0
    9.3677  -14.9576   22.3840 C   0  0  0  0  0  0  0  0  0  0  0  0
   10.1364  -14.1337   22.9485 O   0  0  0  0  0  0  0  0  0  0  0  0
   12.9630  -19.9499   28.2551 N   0  0  0  0  0  0  0  0  0  0  0  0
   12.2367  -20.4585   27.1636 C   0  0  0  0  0  0  0  0  0  0  0  0
   12.3497  -21.7044   26.8144 N   0  0  0  0  0  0  0  0  0  0  0  0
   11.3570  -19.6324   26.4075 N   0  0  0  0  0  0  0  0  0  0  0  0
   11.8054  -18.3933   25.7960 C   0  0  0  0  0  0  0  0  0  0  0  0
   11.9631  -18.5929   24.2750 C   0  0  0  0  0  0  0  0  0  0  0  0
   10.8081  -17.9844   23.5704 C   0  0  0  0  0  0  0  0  0  0  0  0
   11.1437  -16.6787   22.8278 C   0  0  2  0  0  0  0  0  0  0  0  0
    9.8713  -16.2644   22.1918 N   0  0  0  0  0  0  0  0  0  0  0  0
   12.1787  -17.0107   21.8344 C   0  0  0  0  0  0  0  0  0  0  0  0
   11.8536  -17.1043   20.4889 O   0  0  0  0  0  0  0  0  0  0  0  0
   13.3795  -17.2264   22.1187 O   0  0  0  0  0  0  0  0  0  0  0  0
  2  1  1  0
  3  5  1  0
  3  2  1  0
  3  4  1  6
  5  7  1  0
  5  6  1  1
  7  8  2  0
  9 10  1  0
  9  7  1  0
 11 12  1  0
 10 11  1  6
 12 13  1  0
 13 14  1  0
 14 15  1  0
 16 10  1  0
 16 17  2  0
 18 19  1  0
 19 21  1  0
 20 19  2  0
 21 22  1  0
 22 23  1  0
 23 24  1  0
 25 24  1  6
 25 26  1  0
 25 27  1  0
 26 16  1  0
 27 29  2  0
 27 28  1  0
M  END
$$$$
