IKR.pdb
     RDKit          3D

 29 28  0  0  1  0  0  0  0  0999 V2000
    7.0431  -12.3600   28.0076 C   0  0  0  0  0  0  0  0  0  0  0  0
    6.4163  -13.3954   27.1099 C   0  0  0  0  0  0  0  0  0  0  0  0
    7.2396  -13.6851   25.8966 C   0  0  2  0  0  0  0  0  0  0  0  0
    7.3433  -12.4003   25.0851 C   0  0  0  0  0  0  0  0  0  0  0  0
    6.7092  -14.7431   24.9998 C   0  0  2  0  0  0  0  0  0  0  0  0
    6.5633  -16.0019   25.6919 N   0  0  0  0  0  0  0  0  0  0  0  0
    7.5277  -14.9701   23.7824 C   0  0  0  0  0  0  0  0  0  0  0  0
    8.4129  -15.8622   23.7047 O   0  0  0  0  0  0  0  0  0  0  0  0
    7.3292  -14.1632   22.6380 N   0  0  0  0  0  0  0  0  0  0  0  0
    8.0529  -14.3457   21.3811 C   0  0  1  0  0  0  0  0  0  0  0  0
    7.8766  -13.1834   20.4800 C   0  0  0  0  0  0  0  0  0  0  0  0
    8.3529  -13.3077   19.0890 C   0  0  0  0  0  0  0  0  0  0  0  0
    8.1543  -14.5999   18.3919 C   0  0  0  0  0  0  0  0  0  0  0  0
    8.7415  -14.4947   16.9984 C   0  0  0  0  0  0  0  0  0  0  0  0
    8.5274  -15.7912   16.3414 N   0  0  0  0  0  0  0  0  0  0  0  0
    9.4000  -14.8608   21.5745 C   0  0  0  0  0  0  0  0  0  0  0  0
   10.3682  -14.1797   21.1419 O   0  0  0  0  0  0  0  0  0  0  0  0
   16.0689  -15.0306   20.4137 N   0  0  0  0  0  0  0  0  0  0  0  0
   15.2897  -14.6156   19.3191 C   0  0  0  0  0  0  0  0  0  0  0  0
   15.8347  -14.0047   18.3106 N   0  0  0  0  0  0  0  0  0  0  0  0
   13.8856  -14.8488   19.2763 N   0  0  0  0  0  0  0  0  0  0  0  0
   13.2291  -15.7474   20.2100 C   0  0  0  0  0  0  0  0  0  0  0  0
   12.6273  -14.9358   21.3751 C   0  0  0  0  0  0  0  0  0  0  0  0
   12.0987  -15.8619   22.4064 C   0  0  0  0  0  0  0  0  0  0  0  0
   10.9781  -16.7885   21.9019 C   0  0  2  0  0  0  0  0  0  0  0  0
    9.7200  -16.0750   22.2237 N   0  0  0  0  0  0  0  0  0  0  0  0
   11.1059  -18.0521   22.6471 C   0  0  0  0  0  0  0  0  0  0  0  0
   12.1489  -18.9247   22.3723 O   0  0  0  0  0  0  0  0  0  0  0  0
   10.3141  -18.4189   23.5459 O   0  0  0  0  0  0  0  0  0  0  0  0
  2  1  1  0
  3  5  1  0
  3  2  1  0
  3  4  1  6
  5  7  1  0
  5  6  1  1
  7  8  2  0
  9 10  1  0
  9  7  1  0
 11 12  1  0
 10 11  1  1
 12 13  1  0
 13 14  1  0
 14 15  1  0
 16 10  1  0
 16 17  2  0
 18 19  1  0
 19 21  1  0
 20 19  2  0
 21 22  1  0
 22 23  1  0
 23 24  1  0
 25 24  1  1
 25 26  1  0
 25 27  1  0
 26 16  1  0
 27 29  2  0
 27 28  1  0
M  END
$$$$
