PEG.pdb
     RDKit          3D

 21 21  0  0  1  0  0  0  0  0999 V2000
   17.4238  -11.6563  -14.7125 N   0  0  0  0  0  0  0  0  0  0  0  0
   16.5406  -12.7803  -15.0283 C   0  0  0  0  0  0  0  0  0  0  0  0
   16.6268  -12.7656  -16.5589 C   0  0  0  0  0  0  0  0  0  0  0  0
   18.1497  -12.6876  -16.7268 C   0  0  0  0  0  0  0  0  0  0  0  0
   18.5919  -11.9151  -15.5214 C   0  0  1  0  0  0  0  0  0  0  0  0
   19.1984  -10.5994  -15.8921 C   0  0  0  0  0  0  0  0  0  0  0  0
   20.2401  -10.5328  -16.6104 O   0  0  0  0  0  0  0  0  0  0  0  0
   18.6494   -9.3587  -15.4660 N   0  0  0  0  0  0  0  0  0  0  0  0
   19.1913   -8.0816  -15.8128 C   0  0  1  0  0  0  0  0  0  0  0  0
   18.1085   -7.1606  -16.2937 C   0  0  0  0  0  0  0  0  0  0  0  0
   18.7538   -5.9517  -16.9112 C   0  0  0  0  0  0  0  0  0  0  0  0
   17.7303   -4.9667  -17.3359 C   0  0  0  0  0  0  0  0  0  0  0  0
   17.5586   -3.8795  -16.7554 O   0  0  0  0  0  0  0  0  0  0  0  0
   20.0122   -7.4917  -14.7247 C   0  0  0  0  0  0  0  0  0  0  0  0
   19.5612   -7.4420  -13.5520 O   0  0  0  0  0  0  0  0  0  0  0  0
   16.9311   -5.2780  -18.4311 O   0  0  0  0  0  0  0  0  0  0  0  0
   21.3146   -6.9667  -14.9447 N   0  0  0  0  0  0  0  0  0  0  0  0
   22.0988   -6.4698  -13.8565 C   0  0  0  0  0  0  0  0  0  0  0  0
   21.7282   -5.0710  -13.4863 C   0  0  0  0  0  0  0  0  0  0  0  0
   20.8004   -4.5324  -14.1332 O   0  0  0  0  0  0  0  0  0  0  0  0
   22.3541   -4.3750  -12.4873 O   0  0  0  0  0  0  0  0  0  0  0  0
  1  5  1  0
  1  2  1  0
  2  3  1  0
  4  3  1  0
  5  4  1  0
  6  8  1  0
  5  6  1  6
  7  6  2  0
  9  8  1  0
  9 14  1  0
  9 10  1  1
 11 10  1  0
 12 11  1  0
 13 12  2  0
 14 17  1  0
 15 14  2  0
 16 12  1  0
 17 18  1  0
 18 19  1  0
 19 20  2  0
 19 21  1  0
M  END
$$$$
