PEG.pdb
     RDKit          3D

 21 21  0  0  1  0  0  0  0  0999 V2000
   22.9227   -9.9613  -14.4021 N   0  0  0  0  0  0  0  0  0  0  0  0
   23.4054  -11.3274  -14.1915 C   0  0  0  0  0  0  0  0  0  0  0  0
   22.8189  -12.0118  -15.4317 C   0  0  0  0  0  0  0  0  0  0  0  0
   23.2615  -11.0113  -16.5071 C   0  0  0  0  0  0  0  0  0  0  0  0
   23.2594   -9.6999  -15.7820 C   0  0  1  0  0  0  0  0  0  0  0  0
   22.2399   -8.7565  -16.3359 C   0  0  0  0  0  0  0  0  0  0  0  0
   22.3364   -8.2989  -17.5136 O   0  0  0  0  0  0  0  0  0  0  0  0
   21.1143   -8.3212  -15.5837 N   0  0  0  0  0  0  0  0  0  0  0  0
   20.1285   -7.4080  -16.0726 C   0  0  1  0  0  0  0  0  0  0  0  0
   18.7554   -8.0031  -15.9624 C   0  0  0  0  0  0  0  0  0  0  0  0
   18.7059   -9.2422  -16.8119 C   0  0  0  0  0  0  0  0  0  0  0  0
   17.3578   -9.8577  -16.7685 C   0  0  0  0  0  0  0  0  0  0  0  0
   16.7645  -10.2548  -17.7877 O   0  0  0  0  0  0  0  0  0  0  0  0
   20.2293   -6.0650  -15.4464 C   0  0  0  0  0  0  0  0  0  0  0  0
   19.4550   -5.1424  -15.8072 O   0  0  0  0  0  0  0  0  0  0  0  0
   16.7354   -9.9939  -15.5320 O   0  0  0  0  0  0  0  0  0  0  0  0
   21.1797   -5.7596  -14.4345 N   0  0  0  0  0  0  0  0  0  0  0  0
   21.2094   -4.4674  -13.8219 C   0  0  0  0  0  0  0  0  0  0  0  0
   21.9517   -3.4683  -14.6477 C   0  0  0  0  0  0  0  0  0  0  0  0
   22.5410   -3.8916  -15.6690 O   0  0  0  0  0  0  0  0  0  0  0  0
   22.0077   -2.1371  -14.3329 O   0  0  0  0  0  0  0  0  0  0  0  0
  1  5  1  0
  1  2  1  0
  2  3  1  0
  4  3  1  0
  5  4  1  0
  6  8  1  0
  5  6  1  6
  7  6  2  0
  9  8  1  0
  9 14  1  0
  9 10  1  1
 11 10  1  0
 12 11  1  0
 13 12  2  0
 14 17  1  0
 15 14  2  0
 16 12  1  0
 17 18  1  0
 18 19  1  0
 19 20  2  0
 19 21  1  0
M  END
$$$$
