PEG.pdb
     RDKit          3D

 21 21  0  0  1  0  0  0  0  0999 V2000
   24.3196  -11.8169  -15.5096 N   0  0  0  0  0  0  0  0  0  0  0  0
   24.7483  -13.1470  -15.9457 C   0  0  0  0  0  0  0  0  0  0  0  0
   23.8756  -13.3122  -17.1954 C   0  0  0  0  0  0  0  0  0  0  0  0
   24.1481  -11.9644  -17.8754 C   0  0  0  0  0  0  0  0  0  0  0  0
   24.3789  -11.0352  -16.7226 C   0  0  1  0  0  0  0  0  0  0  0  0
   23.3284   -9.9742  -16.6407 C   0  0  0  0  0  0  0  0  0  0  0  0
   23.1618   -9.1378  -17.5778 O   0  0  0  0  0  0  0  0  0  0  0  0
   22.4634   -9.8413  -15.5198 N   0  0  0  0  0  0  0  0  0  0  0  0
   21.4640   -8.8263  -15.3950 C   0  0  1  0  0  0  0  0  0  0  0  0
   20.1186   -9.4379  -15.1344 C   0  0  0  0  0  0  0  0  0  0  0  0
   19.6153  -10.0405  -16.4160 C   0  0  0  0  0  0  0  0  0  0  0  0
   18.9299  -11.3298  -16.1589 C   0  0  0  0  0  0  0  0  0  0  0  0
   18.6364  -12.1303  -17.0653 O   0  0  0  0  0  0  0  0  0  0  0  0
   21.8270   -7.7820  -14.4033 C   0  0  0  0  0  0  0  0  0  0  0  0
   22.3206   -8.1110  -13.2946 O   0  0  0  0  0  0  0  0  0  0  0  0
   18.6039  -11.6520  -14.8455 O   0  0  0  0  0  0  0  0  0  0  0  0
   21.6412   -6.3941  -14.6475 N   0  0  0  0  0  0  0  0  0  0  0  0
   21.9737   -5.4229  -13.6515 C   0  0  0  0  0  0  0  0  0  0  0  0
   21.8186   -4.0245  -14.1531 C   0  0  0  0  0  0  0  0  0  0  0  0
   21.4929   -3.8777  -15.3538 O   0  0  0  0  0  0  0  0  0  0  0  0
   22.0161   -2.9243  -13.3626 O   0  0  0  0  0  0  0  0  0  0  0  0
  1  5  1  0
  1  2  1  0
  2  3  1  0
  4  3  1  0
  5  4  1  0
  6  8  1  0
  5  6  1  1
  7  6  2  0
  9  8  1  0
  9 14  1  0
  9 10  1  1
 11 10  1  0
 12 11  1  0
 13 12  2  0
 14 17  1  0
 15 14  2  0
 16 12  1  0
 17 18  1  0
 18 19  1  0
 19 20  2  0
 19 21  1  0
M  END
$$$$
