PEG.pdb
     RDKit          3D

 21 21  0  0  1  0  0  0  0  0999 V2000
   26.0767  -11.3303  -15.8629 N   0  0  0  0  0  0  0  0  0  0  0  0
   27.0469  -12.3613  -16.2358 C   0  0  0  0  0  0  0  0  0  0  0  0
   27.3627  -11.9240  -17.6708 C   0  0  0  0  0  0  0  0  0  0  0  0
   27.6198  -10.4309  -17.4305 C   0  0  0  0  0  0  0  0  0  0  0  0
   26.7186  -10.1052  -16.2784 C   0  0  1  0  0  0  0  0  0  0  0  0
   25.6511   -9.1308  -16.6618 C   0  0  0  0  0  0  0  0  0  0  0  0
   25.9381   -7.9742  -17.0925 O   0  0  0  0  0  0  0  0  0  0  0  0
   24.2662   -9.4395  -16.5673 N   0  0  0  0  0  0  0  0  0  0  0  0
   23.2189   -8.5593  -16.9835 C   0  0  1  0  0  0  0  0  0  0  0  0
   22.2946   -9.2525  -17.9412 C   0  0  0  0  0  0  0  0  0  0  0  0
   22.9655   -9.3178  -19.2846 C   0  0  0  0  0  0  0  0  0  0  0  0
   22.0653   -9.9242  -20.2945 C   0  0  0  0  0  0  0  0  0  0  0  0
   21.8187   -9.3853  -21.3887 O   0  0  0  0  0  0  0  0  0  0  0  0
   22.5058   -7.9346  -15.8403 C   0  0  0  0  0  0  0  0  0  0  0  0
   22.3116   -8.5904  -14.7851 O   0  0  0  0  0  0  0  0  0  0  0  0
   21.4743  -11.1485  -19.9995 O   0  0  0  0  0  0  0  0  0  0  0  0
   22.0186   -6.5999  -15.8767 N   0  0  0  0  0  0  0  0  0  0  0  0
   21.3411   -6.0350  -14.7507 C   0  0  0  0  0  0  0  0  0  0  0  0
   22.1116   -4.9148  -14.1322 C   0  0  0  0  0  0  0  0  0  0  0  0
   23.2536   -4.6810  -14.5913 O   0  0  0  0  0  0  0  0  0  0  0  0
   21.6226   -4.1534  -13.1049 O   0  0  0  0  0  0  0  0  0  0  0  0
  1  5  1  0
  1  2  1  0
  2  3  1  0
  4  3  1  0
  5  4  1  0
  6  8  1  0
  5  6  1  6
  7  6  2  0
  9  8  1  0
  9 14  1  0
  9 10  1  1
 11 10  1  0
 12 11  1  0
 13 12  2  0
 14 17  1  0
 15 14  2  0
 16 12  1  0
 17 18  1  0
 18 19  1  0
 19 20  2  0
 19 21  1  0
M  END
$$$$
