PEG.pdb
     RDKit          3D

 21 21  0  0  1  0  0  0  0  0999 V2000
   23.6987  -11.2913  -15.7311 N   0  0  0  0  0  0  0  0  0  0  0  0
   24.3657  -12.5541  -16.0531 C   0  0  0  0  0  0  0  0  0  0  0  0
   23.3981  -13.1061  -17.1064 C   0  0  0  0  0  0  0  0  0  0  0  0
   23.2537  -11.8635  -17.9944 C   0  0  0  0  0  0  0  0  0  0  0  0
   23.4111  -10.7279  -17.0295 C   0  0  1  0  0  0  0  0  0  0  0  0
   22.1614   -9.9149  -16.9142 C   0  0  0  0  0  0  0  0  0  0  0  0
   21.7045   -9.2649  -17.9013 O   0  0  0  0  0  0  0  0  0  0  0  0
   21.4192   -9.8232  -15.7047 N   0  0  0  0  0  0  0  0  0  0  0  0
   20.2099   -9.0737  -15.5616 C   0  0  1  0  0  0  0  0  0  0  0  0
   19.1074   -9.9442  -15.0337 C   0  0  0  0  0  0  0  0  0  0  0  0
   18.6947  -10.8978  -16.1199 C   0  0  0  0  0  0  0  0  0  0  0  0
   17.5796  -11.7631  -15.6661 C   0  0  0  0  0  0  0  0  0  0  0  0
   16.4581  -11.7564  -16.2052 O   0  0  0  0  0  0  0  0  0  0  0  0
   20.3952   -7.8306  -14.7703 C   0  0  0  0  0  0  0  0  0  0  0  0
   19.4254   -7.0520  -14.5846 O   0  0  0  0  0  0  0  0  0  0  0  0
   17.8039  -12.6168  -14.5909 O   0  0  0  0  0  0  0  0  0  0  0  0
   21.6432   -7.4650  -14.1968 N   0  0  0  0  0  0  0  0  0  0  0  0
   21.7504   -6.3268  -13.3372 C   0  0  0  0  0  0  0  0  0  0  0  0
   21.9709   -5.0619  -14.1004 C   0  0  0  0  0  0  0  0  0  0  0  0
   21.9400   -5.1328  -15.3508 O   0  0  0  0  0  0  0  0  0  0  0  0
   22.2002   -3.8566  -13.4930 O   0  0  0  0  0  0  0  0  0  0  0  0
  1  5  1  0
  1  2  1  0
  2  3  1  0
  4  3  1  0
  5  4  1  0
  6  8  1  0
  5  6  1  1
  7  6  2  0
  9  8  1  0
  9 14  1  0
  9 10  1  1
 11 10  1  0
 12 11  1  0
 13 12  2  0
 14 17  1  0
 15 14  2  0
 16 12  1  0
 17 18  1  0
 18 19  1  0
 19 20  2  0
 19 21  1  0
M  END
$$$$
