PEG.pdb
     RDKit          3D

 21 21  0  0  1  0  0  0  0  0999 V2000
   17.2712  -10.0317  -15.3747 N   0  0  0  0  0  0  0  0  0  0  0  0
   17.4295  -10.9967  -16.4641 C   0  0  0  0  0  0  0  0  0  0  0  0
   18.7575  -11.6448  -16.0558 C   0  0  0  0  0  0  0  0  0  0  0  0
   18.4566  -11.9318  -14.5792 C   0  0  0  0  0  0  0  0  0  0  0  0
   17.5278  -10.8211  -14.1928 C   0  0  1  0  0  0  0  0  0  0  0  0
   18.1291   -9.9236  -13.1589 C   0  0  0  0  0  0  0  0  0  0  0  0
   18.4836  -10.3676  -12.0263 O   0  0  0  0  0  0  0  0  0  0  0  0
   18.3369   -8.5346  -13.3815 N   0  0  0  0  0  0  0  0  0  0  0  0
   18.9573   -7.6561  -12.4390 C   0  0  1  0  0  0  0  0  0  0  0  0
   20.0092   -6.8205  -13.1078 C   0  0  0  0  0  0  0  0  0  0  0  0
   20.7964   -6.1082  -12.0438 C   0  0  0  0  0  0  0  0  0  0  0  0
   21.8649   -5.2757  -12.6468 C   0  0  0  0  0  0  0  0  0  0  0  0
   22.8556   -5.7623  -13.2214 O   0  0  0  0  0  0  0  0  0  0  0  0
   17.9740   -6.8466  -11.6753 C   0  0  0  0  0  0  0  0  0  0  0  0
   17.1842   -6.0786  -12.2817 O   0  0  0  0  0  0  0  0  0  0  0  0
   21.7482   -3.8921  -12.5629 O   0  0  0  0  0  0  0  0  0  0  0  0
   17.8757   -6.8952  -10.2581 N   0  0  0  0  0  0  0  0  0  0  0  0
   16.9294   -6.0810   -9.5598 C   0  0  0  0  0  0  0  0  0  0  0  0
   15.6503   -6.8047   -9.2935 C   0  0  0  0  0  0  0  0  0  0  0  0
   15.5558   -7.9795   -9.7182 O   0  0  0  0  0  0  0  0  0  0  0  0
   14.6027   -6.2400   -8.6167 O   0  0  0  0  0  0  0  0  0  0  0  0
  1  5  1  0
  1  2  1  0
  2  3  1  0
  4  3  1  0
  5  4  1  0
  6  8  1  0
  5  6  1  1
  7  6  2  0
  9  8  1  0
  9 14  1  0
  9 10  1  6
 11 10  1  0
 12 11  1  0
 13 12  2  0
 14 17  1  0
 15 14  2  0
 16 12  1  0
 17 18  1  0
 18 19  1  0
 19 20  2  0
 19 21  1  0
M  END
$$$$
