PEG.pdb
     RDKit          3D

 21 21  0  0  1  0  0  0  0  0999 V2000
   23.5391  -11.0976  -15.4396 N   0  0  0  0  0  0  0  0  0  0  0  0
   23.7161  -12.4115  -14.8186 C   0  0  0  0  0  0  0  0  0  0  0  0
   22.5274  -13.1595  -15.4332 C   0  0  0  0  0  0  0  0  0  0  0  0
   22.7227  -12.7797  -16.9066 C   0  0  0  0  0  0  0  0  0  0  0  0
   23.3366  -11.4146  -16.8340 C   0  0  1  0  0  0  0  0  0  0  0  0
   22.4441  -10.3683  -17.4212 C   0  0  0  0  0  0  0  0  0  0  0  0
   22.1647  -10.3582  -18.6571 O   0  0  0  0  0  0  0  0  0  0  0  0
   21.8621   -9.3341  -16.6377 N   0  0  0  0  0  0  0  0  0  0  0  0
   20.9912   -8.3272  -17.1596 C   0  0  1  0  0  0  0  0  0  0  0  0
   19.8168   -8.9518  -17.8542 C   0  0  0  0  0  0  0  0  0  0  0  0
   18.8434   -9.4223  -16.8100 C   0  0  0  0  0  0  0  0  0  0  0  0
   18.4491  -10.8307  -17.0533 C   0  0  0  0  0  0  0  0  0  0  0  0
   18.1902  -11.6273  -16.1330 O   0  0  0  0  0  0  0  0  0  0  0  0
   20.5936   -7.3259  -16.1372 C   0  0  0  0  0  0  0  0  0  0  0  0
   19.8071   -6.3933  -16.4418 O   0  0  0  0  0  0  0  0  0  0  0  0
   18.3671  -11.2739  -18.3693 O   0  0  0  0  0  0  0  0  0  0  0  0
   21.0676   -7.3672  -14.7978 N   0  0  0  0  0  0  0  0  0  0  0  0
   20.7677   -6.3114  -13.8805 C   0  0  0  0  0  0  0  0  0  0  0  0
   21.8291   -5.2607  -13.8631 C   0  0  0  0  0  0  0  0  0  0  0  0
   21.9600   -4.5593  -14.8928 O   0  0  0  0  0  0  0  0  0  0  0  0
   22.6442   -5.0441  -12.7846 O   0  0  0  0  0  0  0  0  0  0  0  0
  1  5  1  0
  1  2  1  0
  2  3  1  0
  4  3  1  0
  5  4  1  0
  6  8  1  0
  5  6  1  1
  7  6  2  0
  9  8  1  0
  9 14  1  0
  9 10  1  1
 11 10  1  0
 12 11  1  0
 13 12  2  0
 14 17  1  0
 15 14  2  0
 16 12  1  0
 17 18  1  0
 18 19  1  0
 19 20  2  0
 19 21  1  0
M  END
$$$$
