PEG.pdb
     RDKit          3D

 21 21  0  0  1  0  0  0  0  0999 V2000
   24.5528  -12.5834  -15.1618 N   0  0  0  0  0  0  0  0  0  0  0  0
   24.9554  -13.9764  -15.3643 C   0  0  0  0  0  0  0  0  0  0  0  0
   24.3365  -14.2352  -16.7429 C   0  0  0  0  0  0  0  0  0  0  0  0
   24.8409  -12.9911  -17.4853 C   0  0  0  0  0  0  0  0  0  0  0  0
   24.9104  -11.9502  -16.4095 C   0  0  1  0  0  0  0  0  0  0  0  0
   23.9493  -10.8306  -16.6520 C   0  0  0  0  0  0  0  0  0  0  0  0
   23.9842  -10.1518  -17.7214 O   0  0  0  0  0  0  0  0  0  0  0  0
   22.9502  -10.4644  -15.7086 N   0  0  0  0  0  0  0  0  0  0  0  0
   22.0508   -9.3660  -15.8797 C   0  0  1  0  0  0  0  0  0  0  0  0
   20.6298   -9.8126  -15.6976 C   0  0  0  0  0  0  0  0  0  0  0  0
   20.2241  -10.6084  -16.9064 C   0  0  0  0  0  0  0  0  0  0  0  0
   18.8149  -11.0552  -16.7949 C   0  0  0  0  0  0  0  0  0  0  0  0
   18.4912  -12.1479  -16.2951 O   0  0  0  0  0  0  0  0  0  0  0  0
   22.4035   -8.1979  -15.0330 C   0  0  0  0  0  0  0  0  0  0  0  0
   22.6057   -8.3511  -13.8014 O   0  0  0  0  0  0  0  0  0  0  0  0
   17.8167  -10.2117  -17.2715 O   0  0  0  0  0  0  0  0  0  0  0  0
   22.5279   -6.8816  -15.5548 N   0  0  0  0  0  0  0  0  0  0  0  0
   22.9309   -5.7950  -14.7164 C   0  0  0  0  0  0  0  0  0  0  0  0
   21.7638   -5.0892  -14.1075 C   0  0  0  0  0  0  0  0  0  0  0  0
   20.6216   -5.5216  -14.3865 O   0  0  0  0  0  0  0  0  0  0  0  0
   21.8980   -4.0112  -13.2744 O   0  0  0  0  0  0  0  0  0  0  0  0
  1  5  1  0
  1  2  1  0
  2  3  1  0
  4  3  1  0
  5  4  1  0
  6  8  1  0
  5  6  1  6
  7  6  2  0
  9  8  1  0
  9 14  1  0
  9 10  1  1
 11 10  1  0
 12 11  1  0
 13 12  2  0
 14 17  1  0
 15 14  2  0
 16 12  1  0
 17 18  1  0
 18 19  1  0
 19 20  2  0
 19 21  1  0
M  END
$$$$
