PEG.pdb
     RDKit          3D

 21 21  0  0  1  0  0  0  0  0999 V2000
   24.2983  -11.9062  -15.3533 N   0  0  0  0  0  0  0  0  0  0  0  0
   24.6322  -13.2904  -15.6933 C   0  0  0  0  0  0  0  0  0  0  0  0
   23.5977  -13.5519  -16.7940 C   0  0  0  0  0  0  0  0  0  0  0  0
   23.8107  -12.2945  -17.6467 C   0  0  0  0  0  0  0  0  0  0  0  0
   24.2154  -11.2592  -16.6418 C   0  0  1  0  0  0  0  0  0  0  0  0
   23.2116  -10.1553  -16.5412 C   0  0  0  0  0  0  0  0  0  0  0  0
   23.0104   -9.3576  -17.5049 O   0  0  0  0  0  0  0  0  0  0  0  0
   22.4318   -9.9369  -15.3723 N   0  0  0  0  0  0  0  0  0  0  0  0
   21.4426   -8.9117  -15.2492 C   0  0  1  0  0  0  0  0  0  0  0  0
   20.1169   -9.4994  -14.8632 C   0  0  0  0  0  0  0  0  0  0  0  0
   19.3468   -9.7982  -16.1189 C   0  0  0  0  0  0  0  0  0  0  0  0
   18.2166  -10.7159  -15.8386 C   0  0  0  0  0  0  0  0  0  0  0  0
   17.7845  -10.9227  -14.6901 O   0  0  0  0  0  0  0  0  0  0  0  0
   21.8692   -7.8071  -14.3527 C   0  0  0  0  0  0  0  0  0  0  0  0
   22.5468   -8.0574  -13.3235 O   0  0  0  0  0  0  0  0  0  0  0  0
   17.6184  -11.3706  -16.9103 O   0  0  0  0  0  0  0  0  0  0  0  0
   21.5435   -6.4464  -14.6032 N   0  0  0  0  0  0  0  0  0  0  0  0
   22.0045   -5.4093  -13.7326 C   0  0  0  0  0  0  0  0  0  0  0  0
   21.5284   -4.0599  -14.1608 C   0  0  0  0  0  0  0  0  0  0  0  0
   20.8704   -3.9939  -15.2248 O   0  0  0  0  0  0  0  0  0  0  0  0
   21.7814   -2.9200  -13.4459 O   0  0  0  0  0  0  0  0  0  0  0  0
  1  5  1  0
  1  2  1  0
  2  3  1  0
  4  3  1  0
  5  4  1  0
  6  8  1  0
  5  6  1  1
  7  6  2  0
  9  8  1  0
  9 14  1  0
  9 10  1  1
 11 10  1  0
 12 11  1  0
 13 12  2  0
 14 17  1  0
 15 14  2  0
 16 12  1  0
 17 18  1  0
 18 19  1  0
 19 20  2  0
 19 21  1  0
M  END
$$$$
