WDL.pdb
     RDKit          3D

 31 32  0  0  1  0  0  0  0  0999 V2000
   27.3772  -20.0543  -12.7092 N   0  0  0  0  0  0  0  0  0  0  0  0
   26.5053  -21.1740  -12.2851 C   0  0  1  0  0  0  0  0  0  0  0  0
   25.9881  -20.8348  -10.9168 C   0  0  0  0  0  0  0  0  0  0  0  0
   26.9890  -20.6710   -9.8685 C   0  0  0  0  0  0  0  0  0  0  0  0
   26.7171  -19.9537   -8.6883 C   0  0  0  0  0  0  0  0  0  0  0  0
   27.7977  -20.0172   -7.9089 N   0  0  0  0  0  0  0  0  0  0  0  0
   28.7425  -20.7305   -8.5206 C   0  0  0  0  0  0  0  0  0  0  0  0
   30.0052  -21.0503   -8.1255 C   0  0  0  0  0  0  0  0  0  0  0  0
   30.8174  -21.8011   -8.9592 C   0  0  0  0  0  0  0  0  0  0  0  0
   30.3473  -22.2192  -10.1789 C   0  0  0  0  0  0  0  0  0  0  0  0
   29.0519  -21.8923  -10.5850 C   0  0  0  0  0  0  0  0  0  0  0  0
   28.2680  -21.1517   -9.7458 C   0  0  0  0  0  0  0  0  0  0  0  0
   25.4187  -21.2841  -13.2604 C   0  0  0  0  0  0  0  0  0  0  0  0
   24.9569  -20.1959  -13.7251 O   0  0  0  0  0  0  0  0  0  0  0  0
   24.8609  -22.5258  -13.7052 N   0  0  0  0  0  0  0  0  0  0  0  0
   23.7572  -22.4846  -14.6044 C   0  0  1  0  0  0  0  0  0  0  0  0
   23.8829  -23.5697  -15.6288 C   0  0  0  0  0  0  0  0  0  0  0  0
   24.5240  -24.7960  -15.1155 C   0  0  0  0  0  0  0  0  0  0  0  0
   23.8368  -25.7882  -14.7165 O   0  0  0  0  0  0  0  0  0  0  0  0
   22.4412  -22.5796  -13.9034 C   0  0  0  0  0  0  0  0  0  0  0  0
   22.1375  -23.5146  -13.1273 O   0  0  0  0  0  0  0  0  0  0  0  0
   25.8968  -24.9554  -15.0308 O   0  0  0  0  0  0  0  0  0  0  0  0
   21.1477  -20.2094  -10.8047 C   0  0  0  0  0  0  0  0  0  0  0  0
   20.7985  -19.6853  -12.1410 C   0  0  2  0  0  0  0  0  0  0  0  0
   20.3067  -18.2232  -11.9711 C   0  0  0  0  0  0  0  0  0  0  0  0
   19.7531  -20.3600  -12.9399 C   0  0  0  0  0  0  0  0  0  0  0  0
   20.0988  -21.6362  -13.5572 C   0  0  2  0  0  0  0  0  0  0  0  0
   21.4765  -21.5731  -14.1134 N   0  0  0  0  0  0  0  0  0  0  0  0
   19.2743  -22.2584  -14.5676 C   0  0  0  0  0  0  0  0  0  0  0  0
   19.5496  -22.4758  -15.9038 O   0  0  0  0  0  0  0  0  0  0  0  0
   18.1024  -22.6808  -14.2221 O   0  0  0  0  0  0  0  0  0  0  0  0
  2  1  1  6
  2  3  1  0
  2 13  1  0
  3  4  1  0
  4  5  2  0
  5  6  1  0
  7  6  1  0
  8  7  2  0
  9  8  1  0
 10 11  1  0
 10  9  2  0
 11 12  2  0
 12  4  1  0
 12  7  1  0
 13 15  1  0
 13 14  2  0
 15 16  1  0
 16 17  1  6
 18 22  1  0
 18 17  1  0
 19 18  2  0
 20 16  1  0
 20 21  2  0
 24 23  1  1
 24 26  1  0
 25 24  1  0
 27 26  1  6
 27 28  1  0
 28 20  1  0
 29 27  1  0
 30 29  1  0
 31 29  2  0
M  END
$$$$
