WDL.pdb
     RDKit          3D

 31 32  0  0  1  0  0  0  0  0999 V2000
   27.3733  -20.8213   -9.8929 N   0  0  0  0  0  0  0  0  0  0  0  0
   26.2887  -20.7865   -8.8846 C   0  0  1  0  0  0  0  0  0  0  0  0
   26.3430  -19.4379   -8.2265 C   0  0  0  0  0  0  0  0  0  0  0  0
   27.4411  -19.2172   -7.2921 C   0  0  0  0  0  0  0  0  0  0  0  0
   28.4472  -18.2647   -7.5409 C   0  0  0  0  0  0  0  0  0  0  0  0
   29.2768  -18.2587   -6.4965 N   0  0  0  0  0  0  0  0  0  0  0  0
   28.8616  -19.1501   -5.5972 C   0  0  0  0  0  0  0  0  0  0  0  0
   29.3885  -19.5039   -4.3930 C   0  0  0  0  0  0  0  0  0  0  0  0
   28.7740  -20.4873   -3.6355 C   0  0  0  0  0  0  0  0  0  0  0  0
   27.6380  -21.1008   -4.1009 C   0  0  0  0  0  0  0  0  0  0  0  0
   27.0962  -20.7383   -5.3357 C   0  0  0  0  0  0  0  0  0  0  0  0
   27.7185  -19.7648   -6.0653 C   0  0  0  0  0  0  0  0  0  0  0  0
   25.0216  -20.9924   -9.5889 C   0  0  0  0  0  0  0  0  0  0  0  0
   25.0869  -21.1425  -10.8485 O   0  0  0  0  0  0  0  0  0  0  0  0
   23.7421  -21.0297   -8.9468 N   0  0  0  0  0  0  0  0  0  0  0  0
   22.6282  -21.5108   -9.6924 C   0  0  1  0  0  0  0  0  0  0  0  0
   21.5620  -22.0100   -8.7667 C   0  0  0  0  0  0  0  0  0  0  0  0
   20.4557  -22.7011   -9.4571 C   0  0  0  0  0  0  0  0  0  0  0  0
   20.4587  -22.8663  -10.7176 O   0  0  0  0  0  0  0  0  0  0  0  0
   22.0714  -20.4820  -10.6218 C   0  0  0  0  0  0  0  0  0  0  0  0
   21.7826  -19.3155  -10.2685 O   0  0  0  0  0  0  0  0  0  0  0  0
   19.3512  -23.2119   -8.7966 O   0  0  0  0  0  0  0  0  0  0  0  0
   22.9048  -17.5483  -14.5498 C   0  0  0  0  0  0  0  0  0  0  0  0
   23.2476  -18.9791  -14.4168 C   0  0  2  0  0  0  0  0  0  0  0  0
   23.9693  -19.4239  -15.7167 C   0  0  0  0  0  0  0  0  0  0  0  0
   22.1719  -19.9715  -14.2067 C   0  0  0  0  0  0  0  0  0  0  0  0
   21.3744  -19.8500  -12.9907 C   0  0  2  0  0  0  0  0  0  0  0  0
   21.8524  -20.8225  -11.9722 N   0  0  0  0  0  0  0  0  0  0  0  0
   19.9320  -19.9345  -12.9965 C   0  0  0  0  0  0  0  0  0  0  0  0
   19.0013  -18.9275  -13.1648 O   0  0  0  0  0  0  0  0  0  0  0  0
   19.3891  -21.0936  -12.8154 O   0  0  0  0  0  0  0  0  0  0  0  0
  2  1  1  6
  2  3  1  0
  2 13  1  0
  3  4  1  0
  4  5  2  0
  5  6  1  0
  7  6  1  0
  8  7  2  0
  9  8  1  0
 10 11  1  0
 10  9  2  0
 11 12  2  0
 12  4  1  0
 12  7  1  0
 13 15  1  0
 13 14  2  0
 15 16  1  0
 16 17  1  1
 18 22  1  0
 18 17  1  0
 19 18  2  0
 20 16  1  0
 20 21  2  0
 24 23  1  6
 24 26  1  0
 25 24  1  0
 27 26  1  6
 27 28  1  0
 28 20  1  0
 29 27  1  0
 30 29  1  0
 31 29  2  0
M  END
$$$$
