WDL.pdb
     RDKit          3D

 31 32  0  0  1  0  0  0  0  0999 V2000
   28.4875  -21.4096  -11.7864 N   0  0  0  0  0  0  0  0  0  0  0  0
   27.2546  -21.5590  -10.9790 C   0  0  1  0  0  0  0  0  0  0  0  0
   27.2450  -20.4386   -9.9793 C   0  0  0  0  0  0  0  0  0  0  0  0
   28.1781  -20.5575   -8.8645 C   0  0  0  0  0  0  0  0  0  0  0  0
   29.5252  -20.9166   -9.0593 C   0  0  0  0  0  0  0  0  0  0  0  0
   30.1331  -20.8965   -7.8723 N   0  0  0  0  0  0  0  0  0  0  0  0
   29.2556  -20.5474   -6.9322 C   0  0  0  0  0  0  0  0  0  0  0  0
   29.4083  -20.4075   -5.5868 C   0  0  0  0  0  0  0  0  0  0  0  0
   28.3234  -20.0466   -4.8052 C   0  0  0  0  0  0  0  0  0  0  0  0
   27.0999  -19.8317   -5.3886 C   0  0  0  0  0  0  0  0  0  0  0  0
   26.9421  -19.9743   -6.7687 C   0  0  0  0  0  0  0  0  0  0  0  0
   28.0266  -20.3299   -7.5202 C   0  0  0  0  0  0  0  0  0  0  0  0
   26.1133  -21.4764  -11.8927 C   0  0  0  0  0  0  0  0  0  0  0  0
   26.1287  -20.5307  -12.7405 O   0  0  0  0  0  0  0  0  0  0  0  0
   25.0054  -22.3836  -11.8786 N   0  0  0  0  0  0  0  0  0  0  0  0
   24.0205  -22.2597  -12.8999 C   0  0  1  0  0  0  0  0  0  0  0  0
   23.7124  -23.6020  -13.4880 C   0  0  0  0  0  0  0  0  0  0  0  0
   22.7866  -23.5462  -14.6360 C   0  0  0  0  0  0  0  0  0  0  0  0
   21.8054  -24.3480  -14.7382 O   0  0  0  0  0  0  0  0  0  0  0  0
   22.7689  -21.6038  -12.4145 C   0  0  0  0  0  0  0  0  0  0  0  0
   22.3538  -21.6938  -11.2362 O   0  0  0  0  0  0  0  0  0  0  0  0
   22.9145  -22.6338  -15.6696 O   0  0  0  0  0  0  0  0  0  0  0  0
   20.4915  -17.3233  -11.5746 C   0  0  0  0  0  0  0  0  0  0  0  0
   21.1120  -17.6519  -12.8744 C   0  0  2  0  0  0  0  0  0  0  0  0
   20.8697  -16.4601  -13.8384 C   0  0  0  0  0  0  0  0  0  0  0  0
   20.6655  -18.8515  -13.6144 C   0  0  0  0  0  0  0  0  0  0  0  0
   20.7493  -20.1352  -12.9256 C   0  0  2  0  0  0  0  0  0  0  0  0
   22.0004  -20.8384  -13.3152 N   0  0  0  0  0  0  0  0  0  0  0  0
   19.6903  -21.1166  -12.9811 C   0  0  0  0  0  0  0  0  0  0  0  0
   18.5613  -21.2251  -12.1924 O   0  0  0  0  0  0  0  0  0  0  0  0
   19.7699  -22.0488  -13.8733 O   0  0  0  0  0  0  0  0  0  0  0  0
  2  1  1  6
  2  3  1  0
  2 13  1  0
  3  4  1  0
  4  5  2  0
  5  6  1  0
  7  6  1  0
  8  7  2  0
  9  8  1  0
 10 11  1  0
 10  9  2  0
 11 12  2  0
 12  4  1  0
 12  7  1  0
 13 15  1  0
 13 14  2  0
 15 16  1  0
 16 17  1  1
 18 22  1  0
 18 17  1  0
 19 18  2  0
 20 16  1  0
 20 21  2  0
 24 23  1  1
 24 26  1  0
 25 24  1  0
 27 26  1  6
 27 28  1  0
 28 20  1  0
 29 27  1  0
 30 29  1  0
 31 29  2  0
M  END
$$$$
