WDL.pdb
     RDKit          3D

 31 32  0  0  1  0  0  0  0  0999 V2000
   20.8223  -10.8044  -19.3978 N   0  0  0  0  0  0  0  0  0  0  0  0
   21.3606   -9.5232  -19.9105 C   0  0  1  0  0  0  0  0  0  0  0  0
   20.3692   -8.9975  -20.9084 C   0  0  0  0  0  0  0  0  0  0  0  0
   20.3313   -9.6727  -22.2008 C   0  0  0  0  0  0  0  0  0  0  0  0
   21.1748  -10.7605  -22.4947 C   0  0  0  0  0  0  0  0  0  0  0  0
   20.8786  -11.1922  -23.7215 N   0  0  0  0  0  0  0  0  0  0  0  0
   19.8983  -10.4453  -24.2282 C   0  0  0  0  0  0  0  0  0  0  0  0
   19.2805  -10.4989  -25.4399 C   0  0  0  0  0  0  0  0  0  0  0  0
   18.2843   -9.5863  -25.7452 C   0  0  0  0  0  0  0  0  0  0  0  0
   17.9241   -8.6325  -24.8265 C   0  0  0  0  0  0  0  0  0  0  0  0
   18.5566   -8.5769  -23.5828 C   0  0  0  0  0  0  0  0  0  0  0  0
   19.5358   -9.4880  -23.3030 C   0  0  0  0  0  0  0  0  0  0  0  0
   21.5104   -8.6169  -18.7702 C   0  0  0  0  0  0  0  0  0  0  0  0
   20.6989   -8.7746  -17.8058 O   0  0  0  0  0  0  0  0  0  0  0  0
   22.4993   -7.5844  -18.6888 N   0  0  0  0  0  0  0  0  0  0  0  0
   22.5146   -6.7563  -17.5302 C   0  0  1  0  0  0  0  0  0  0  0  0
   23.8949   -6.7000  -16.9520 C   0  0  0  0  0  0  0  0  0  0  0  0
   23.9670   -5.9861  -15.6623 C   0  0  0  0  0  0  0  0  0  0  0  0
   23.0762   -6.1373  -14.7681 O   0  0  0  0  0  0  0  0  0  0  0  0
   22.0071   -5.3777  -17.8025 C   0  0  0  0  0  0  0  0  0  0  0  0
   22.3317   -4.7083  -18.8101 O   0  0  0  0  0  0  0  0  0  0  0  0
   24.9910   -5.1135  -15.3349 O   0  0  0  0  0  0  0  0  0  0  0  0
   18.4239   -2.9392  -19.4795 C   0  0  0  0  0  0  0  0  0  0  0  0
   18.3225   -3.9011  -18.3628 C   0  0  2  0  0  0  0  0  0  0  0  0
   16.8228   -4.0542  -17.9942 C   0  0  0  0  0  0  0  0  0  0  0  0
   19.0123   -3.6142  -17.0868 C   0  0  0  0  0  0  0  0  0  0  0  0
   20.4634   -3.4654  -17.1266 C   0  0  2  0  0  0  0  0  0  0  0  0
   21.1142   -4.7812  -16.8889 N   0  0  0  0  0  0  0  0  0  0  0  0
   21.1678   -2.5035  -16.3105 C   0  0  0  0  0  0  0  0  0  0  0  0
   21.3090   -1.1417  -16.4954 O   0  0  0  0  0  0  0  0  0  0  0  0
   21.7732   -2.9307  -15.2512 O   0  0  0  0  0  0  0  0  0  0  0  0
  2  1  1  1
  2  3  1  0
  2 13  1  0
  3  4  1  0
  4  5  2  0
  5  6  1  0
  7  6  1  0
  8  7  2  0
  9  8  1  0
 10 11  1  0
 10  9  2  0
 11 12  2  0
 12  4  1  0
 12  7  1  0
 13 15  1  0
 13 14  2  0
 15 16  1  0
 16 17  1  6
 18 22  1  0
 18 17  1  0
 19 18  2  0
 20 16  1  0
 20 21  2  0
 24 23  1  6
 24 26  1  0
 25 24  1  0
 27 26  1  1
 27 28  1  0
 28 20  1  0
 29 27  1  0
 30 29  1  0
 31 29  2  0
M  END
$$$$
