WDL.pdb
     RDKit          3D

 31 32  0  0  1  0  0  0  0  0999 V2000
   26.2157  -22.9950  -12.4076 N   0  0  0  0  0  0  0  0  0  0  0  0
   25.5742  -21.8465  -11.7266 C   0  0  1  0  0  0  0  0  0  0  0  0
   26.5522  -20.7078  -11.7691 C   0  0  0  0  0  0  0  0  0  0  0  0
   27.6084  -20.7236  -10.7633 C   0  0  0  0  0  0  0  0  0  0  0  0
   28.9264  -21.1055  -11.0771 C   0  0  0  0  0  0  0  0  0  0  0  0
   29.6670  -20.9746   -9.9756 N   0  0  0  0  0  0  0  0  0  0  0  0
   28.9015  -20.5333   -8.9782 C   0  0  0  0  0  0  0  0  0  0  0  0
   29.2074  -20.2660   -7.6790 C   0  0  0  0  0  0  0  0  0  0  0  0
   28.2174  -19.8272   -6.8154 C   0  0  0  0  0  0  0  0  0  0  0  0
   26.9334  -19.6638   -7.2716 C   0  0  0  0  0  0  0  0  0  0  0  0
   26.6185  -19.9371   -8.6042 C   0  0  0  0  0  0  0  0  0  0  0  0
   27.6114  -20.3677   -9.4385 C   0  0  0  0  0  0  0  0  0  0  0  0
   24.3446  -21.5290  -12.4556 C   0  0  0  0  0  0  0  0  0  0  0  0
   24.2913  -21.8947  -13.6708 O   0  0  0  0  0  0  0  0  0  0  0  0
   23.2263  -20.8412  -11.8837 N   0  0  0  0  0  0  0  0  0  0  0  0
   21.9719  -20.9222  -12.5532 C   0  0  1  0  0  0  0  0  0  0  0  0
   20.8762  -21.1941  -11.5691 C   0  0  0  0  0  0  0  0  0  0  0  0
   19.5771  -21.4984  -12.1998 C   0  0  0  0  0  0  0  0  0  0  0  0
   19.4347  -21.4960  -13.4630 O   0  0  0  0  0  0  0  0  0  0  0  0
   21.6650  -19.6953  -13.3487 C   0  0  0  0  0  0  0  0  0  0  0  0
   21.6974  -18.5371  -12.8730 O   0  0  0  0  0  0  0  0  0  0  0  0
   18.4362  -21.8032  -11.4769 O   0  0  0  0  0  0  0  0  0  0  0  0
   23.7067  -18.0335  -17.0007 C   0  0  0  0  0  0  0  0  0  0  0  0
   22.7539  -19.1394  -17.2278 C   0  0  2  0  0  0  0  0  0  0  0  0
   22.8298  -19.5402  -18.7252 C   0  0  0  0  0  0  0  0  0  0  0  0
   21.3163  -18.9337  -16.9497 C   0  0  0  0  0  0  0  0  0  0  0  0
   20.9302  -18.6759  -15.5663 C   0  0  2  0  0  0  0  0  0  0  0  0
   21.3187  -19.8272  -14.7090 N   0  0  0  0  0  0  0  0  0  0  0  0
   19.5817  -18.3184  -15.1904 C   0  0  0  0  0  0  0  0  0  0  0  0
   18.5888  -19.1123  -14.6497 O   0  0  0  0  0  0  0  0  0  0  0  0
   19.2020  -17.0963  -15.3738 O   0  0  0  0  0  0  0  0  0  0  0  0
  2  1  1  6
  2  3  1  0
  2 13  1  0
  3  4  1  0
  4  5  2  0
  5  6  1  0
  7  6  1  0
  8  7  2  0
  9  8  1  0
 10 11  1  0
 10  9  2  0
 11 12  2  0
 12  4  1  0
 12  7  1  0
 13 15  1  0
 13 14  2  0
 15 16  1  0
 16 17  1  1
 18 22  1  0
 18 17  1  0
 19 18  2  0
 20 16  1  0
 20 21  2  0
 24 23  1  6
 24 26  1  0
 25 24  1  0
 27 26  1  6
 27 28  1  0
 28 20  1  0
 29 27  1  0
 30 29  1  0
 31 29  2  0
M  END
$$$$
