MHN.pdb
     RDKit          3D

 27 27  0  0  1  0  0  0  0  0999 V2000
    8.1529  -11.7376   26.9800 C   0  0  0  0  0  0  0  0  0  0  0  0
    6.6184  -12.4251   27.6937 S   0  0  0  0  0  0  0  0  0  0  0  0
    5.8705  -13.5424   26.4419 C   0  0  0  0  0  0  0  0  0  0  0  0
    6.9563  -14.2841   25.7435 C   0  0  0  0  0  0  0  0  0  0  0  0
    6.5044  -15.1929   24.6287 C   0  0  2  0  0  0  0  0  0  0  0  0
    5.6743  -16.2114   25.2638 N   0  0  0  0  0  0  0  0  0  0  0  0
    7.6998  -15.7991   24.0011 C   0  0  0  0  0  0  0  0  0  0  0  0
    7.9644  -16.9932   24.1998 O   0  0  0  0  0  0  0  0  0  0  0  0
    8.5914  -15.0787   23.1597 N   0  0  0  0  0  0  0  0  0  0  0  0
    9.7187  -15.6737   22.4729 C   0  0  1  0  0  0  0  0  0  0  0  0
   10.2280  -14.7946   21.3675 C   0  0  0  0  0  0  0  0  0  0  0  0
    9.2224  -14.3815   20.4010 C   0  0  0  0  0  0  0  0  0  0  0  0
    7.8832  -14.7285   20.2962 C   0  0  0  0  0  0  0  0  0  0  0  0
    7.3466  -14.0900   19.2295 N   0  0  0  0  0  0  0  0  0  0  0  0
    8.3211  -13.3563   18.6715 C   0  0  0  0  0  0  0  0  0  0  0  0
    9.4419  -13.5354   19.3780 N   0  0  0  0  0  0  0  0  0  0  0  0
   10.7728  -16.1223   23.4038 C   0  0  0  0  0  0  0  0  0  0  0  0
   11.8899  -16.4624   22.9309 O   0  0  0  0  0  0  0  0  0  0  0  0
   11.6145  -14.1293   26.6777 N   0  0  0  0  0  0  0  0  0  0  0  0
   11.3242  -15.2121   27.5734 C   0  0  0  0  0  0  0  0  0  0  0  0
   11.0432  -14.9692   28.7637 O   0  0  0  0  0  0  0  0  0  0  0  0
   11.3549  -16.6097   27.1005 C   0  0  0  0  0  0  0  0  0  0  0  0
   11.6480  -16.7562   25.6283 C   0  0  2  0  0  0  0  0  0  0  0  0
   10.6012  -16.1936   24.8108 N   0  0  0  0  0  0  0  0  0  0  0  0
   11.7928  -18.1965   25.2923 C   0  0  0  0  0  0  0  0  0  0  0  0
   12.9454  -18.8987   25.7028 O   0  0  0  0  0  0  0  0  0  0  0  0
   10.9325  -18.8586   24.6458 O   0  0  0  0  0  0  0  0  0  0  0  0
  2  1  1  0
  3  2  1  0
  4  5  1  0
  4  3  1  0
  5  6  1  1
  7  8  2  0
  7  5  1  0
  9  7  1  0
 10  9  1  0
 11 12  1  0
 10 11  1  6
 12 13  2  0
 12 16  1  0
 13 14  1  0
 14 15  1  0
 16 15  2  0
 17 18  2  0
 17 10  1  0
 20 21  2  0
 20 19  1  0
 22 20  1  0
 23 24  1  0
 23 22  1  1
 24 17  1  0
 25 23  1  0
 26 25  1  0
 27 25  2  0
M  END
$$$$
