MHN.pdb
     RDKit          3D

 27 27  0  0  1  0  0  0  0  0999 V2000
    6.0843  -11.6526   18.0755 C   0  0  0  0  0  0  0  0  0  0  0  0
    6.9320  -12.8086   19.2078 S   0  0  0  0  0  0  0  0  0  0  0  0
    8.6577  -13.0116   18.6117 C   0  0  0  0  0  0  0  0  0  0  0  0
    9.3783  -13.9447   19.5211 C   0  0  0  0  0  0  0  0  0  0  0  0
   10.7841  -14.2958   19.1047 C   0  0  2  0  0  0  0  0  0  0  0  0
   10.6919  -14.6901   17.7027 N   0  0  0  0  0  0  0  0  0  0  0  0
   11.2562  -15.4212   19.9418 C   0  0  0  0  0  0  0  0  0  0  0  0
   11.3269  -15.2900   21.1720 O   0  0  0  0  0  0  0  0  0  0  0  0
   11.6457  -16.6813   19.4104 N   0  0  0  0  0  0  0  0  0  0  0  0
   12.2003  -17.7597   20.2017 C   0  0  1  0  0  0  0  0  0  0  0  0
   12.0461  -19.0893   19.5216 C   0  0  0  0  0  0  0  0  0  0  0  0
   10.6953  -19.3973   19.0782 C   0  0  0  0  0  0  0  0  0  0  0  0
    9.4709  -19.0989   19.6584 C   0  0  0  0  0  0  0  0  0  0  0  0
    8.4825  -19.5935   18.8762 N   0  0  0  0  0  0  0  0  0  0  0  0
    9.0652  -20.1907   17.8260 C   0  0  0  0  0  0  0  0  0  0  0  0
   10.3906  -20.0696   17.9531 N   0  0  0  0  0  0  0  0  0  0  0  0
   13.5797  -17.4805   20.6465 C   0  0  0  0  0  0  0  0  0  0  0  0
   14.5255  -18.1229   20.1172 O   0  0  0  0  0  0  0  0  0  0  0  0
   16.1386  -15.3722   19.3180 N   0  0  0  0  0  0  0  0  0  0  0  0
   15.6685  -14.5307   20.3809 C   0  0  0  0  0  0  0  0  0  0  0  0
   15.1586  -13.4250   20.1124 O   0  0  0  0  0  0  0  0  0  0  0  0
   15.7822  -14.9604   21.7882 C   0  0  0  0  0  0  0  0  0  0  0  0
   15.2808  -16.3589   22.0482 C   0  0  2  0  0  0  0  0  0  0  0  0
   13.9065  -16.5239   21.6427 N   0  0  0  0  0  0  0  0  0  0  0  0
   15.3893  -16.6630   23.4988 C   0  0  0  0  0  0  0  0  0  0  0  0
   14.2246  -16.9394   24.2451 O   0  0  0  0  0  0  0  0  0  0  0  0
   16.4822  -16.6929   24.1320 O   0  0  0  0  0  0  0  0  0  0  0  0
  2  1  1  0
  3  2  1  0
  4  5  1  0
  4  3  1  0
  5  6  1  6
  7  8  2  0
  7  5  1  0
  9  7  1  0
 10  9  1  0
 11 12  1  0
 10 11  1  6
 12 13  2  0
 12 16  1  0
 13 14  1  0
 14 15  1  0
 16 15  2  0
 17 18  2  0
 17 10  1  0
 20 21  2  0
 20 19  1  0
 22 20  1  0
 23 24  1  0
 23 22  1  1
 24 17  1  0
 25 23  1  0
 26 25  1  0
 27 25  2  0
M  END
$$$$
