MHN.pdb
     RDKit          3D

 27 27  0  0  1  0  0  0  0  0999 V2000
    8.3749  -11.8581   20.1503 C   0  0  0  0  0  0  0  0  0  0  0  0
    7.1819  -13.0690   20.8191 S   0  0  0  0  0  0  0  0  0  0  0  0
    7.1677  -14.5210   19.6939 C   0  0  0  0  0  0  0  0  0  0  0  0
    8.2465  -15.4621   20.1030 C   0  0  0  0  0  0  0  0  0  0  0  0
    8.4834  -16.6197   19.1667 C   0  0  2  0  0  0  0  0  0  0  0  0
    7.2413  -17.3858   19.1667 N   0  0  0  0  0  0  0  0  0  0  0  0
    9.6052  -17.4290   19.6926 C   0  0  0  0  0  0  0  0  0  0  0  0
    9.3769  -18.3935   20.4363 O   0  0  0  0  0  0  0  0  0  0  0  0
   10.9693  -17.1639   19.3911 N   0  0  0  0  0  0  0  0  0  0  0  0
   12.0769  -17.9652   19.8686 C   0  0  1  0  0  0  0  0  0  0  0  0
   13.0609  -18.2674   18.7757 C   0  0  0  0  0  0  0  0  0  0  0  0
   12.5117  -18.9924   17.6404 C   0  0  0  0  0  0  0  0  0  0  0  0
   12.5792  -18.7166   16.2824 C   0  0  0  0  0  0  0  0  0  0  0  0
   11.9138  -19.6819   15.6050 N   0  0  0  0  0  0  0  0  0  0  0  0
   11.4360  -20.5484   16.5106 C   0  0  0  0  0  0  0  0  0  0  0  0
   11.7977  -20.1296   17.7276 N   0  0  0  0  0  0  0  0  0  0  0  0
   12.6980  -17.4010   21.0829 C   0  0  0  0  0  0  0  0  0  0  0  0
   13.0342  -16.1869   21.0797 O   0  0  0  0  0  0  0  0  0  0  0  0
   10.5876  -19.0462   24.9213 N   0  0  0  0  0  0  0  0  0  0  0  0
   11.4773  -17.9205   24.9185 C   0  0  0  0  0  0  0  0  0  0  0  0
   11.0209  -16.7736   25.0951 O   0  0  0  0  0  0  0  0  0  0  0  0
   12.9263  -18.1060   24.7089 C   0  0  0  0  0  0  0  0  0  0  0  0
   13.4496  -17.4859   23.4375 C   0  0  2  0  0  0  0  0  0  0  0  0
   12.9409  -18.1510   22.2631 N   0  0  0  0  0  0  0  0  0  0  0  0
   14.9337  -17.5621   23.4229 C   0  0  0  0  0  0  0  0  0  0  0  0
   15.6887  -16.6608   24.2023 O   0  0  0  0  0  0  0  0  0  0  0  0
   15.5889  -18.4012   22.7424 O   0  0  0  0  0  0  0  0  0  0  0  0
  2  1  1  0
  3  2  1  0
  4  5  1  0
  4  3  1  0
  5  6  1  1
  7  8  2  0
  7  5  1  0
  9  7  1  0
 10  9  1  0
 11 12  1  0
 10 11  1  6
 12 13  2  0
 12 16  1  0
 13 14  1  0
 14 15  1  0
 16 15  2  0
 17 18  2  0
 17 10  1  0
 20 21  2  0
 20 19  1  0
 22 20  1  0
 23 24  1  0
 23 22  1  1
 24 17  1  0
 25 23  1  0
 26 25  1  0
 27 25  2  0
M  END
$$$$
