MHN.pdb
     RDKit          3D

 27 27  0  0  1  0  0  0  0  0999 V2000
    7.4215  -11.5685   19.7955 C   0  0  0  0  0  0  0  0  0  0  0  0
    7.1853  -12.7365   18.4110 S   0  0  0  0  0  0  0  0  0  0  0  0
    8.8034  -13.5374   18.0721 C   0  0  0  0  0  0  0  0  0  0  0  0
    9.5735  -13.6318   19.3429 C   0  0  0  0  0  0  0  0  0  0  0  0
   10.9914  -14.1249   19.2041 C   0  0  2  0  0  0  0  0  0  0  0  0
   10.9835  -15.0263   18.0564 N   0  0  0  0  0  0  0  0  0  0  0  0
   11.3627  -14.8461   20.4419 C   0  0  0  0  0  0  0  0  0  0  0  0
   11.3810  -14.2458   21.5258 O   0  0  0  0  0  0  0  0  0  0  0  0
   11.7104  -16.2246   20.4692 N   0  0  0  0  0  0  0  0  0  0  0  0
   12.0723  -16.9469   21.6709 C   0  0  1  0  0  0  0  0  0  0  0  0
   11.2686  -18.2049   21.8309 C   0  0  0  0  0  0  0  0  0  0  0  0
    9.8365  -18.0462   21.6315 C   0  0  0  0  0  0  0  0  0  0  0  0
    9.0339  -18.4128   20.5608 C   0  0  0  0  0  0  0  0  0  0  0  0
    7.7549  -18.0588   20.8296 N   0  0  0  0  0  0  0  0  0  0  0  0
    7.7463  -17.4819   22.0405 C   0  0  0  0  0  0  0  0  0  0  0  0
    8.9961  -17.4776   22.5153 N   0  0  0  0  0  0  0  0  0  0  0  0
   13.5287  -17.1582   21.7842 C   0  0  0  0  0  0  0  0  0  0  0  0
   13.9971  -18.2929   21.5007 O   0  0  0  0  0  0  0  0  0  0  0  0
   18.6580  -16.7791   22.0788 N   0  0  0  0  0  0  0  0  0  0  0  0
   18.1438  -15.4400   22.1118 C   0  0  0  0  0  0  0  0  0  0  0  0
   18.9346  -14.4760   22.1230 O   0  0  0  0  0  0  0  0  0  0  0  0
   16.6891  -15.1919   22.1325 C   0  0  0  0  0  0  0  0  0  0  0  0
   15.8520  -16.4421   22.2379 C   0  0  2  0  0  0  0  0  0  0  0  0
   14.4398  -16.1513   22.1968 N   0  0  0  0  0  0  0  0  0  0  0  0
   16.1582  -17.1378   23.5149 C   0  0  0  0  0  0  0  0  0  0  0  0
   15.2589  -17.0417   24.5975 O   0  0  0  0  0  0  0  0  0  0  0  0
   17.1972  -17.8303   23.7078 O   0  0  0  0  0  0  0  0  0  0  0  0
  2  1  1  0
  3  2  1  0
  4  5  1  0
  4  3  1  0
  5  6  1  6
  7  8  2  0
  7  5  1  0
  9  7  1  0
 10  9  1  0
 11 12  1  0
 10 11  1  6
 12 13  2  0
 12 16  1  0
 13 14  1  0
 14 15  1  0
 16 15  2  0
 17 18  2  0
 17 10  1  0
 20 21  2  0
 20 19  1  0
 22 20  1  0
 23 24  1  0
 23 22  1  1
 24 17  1  0
 25 23  1  0
 26 25  1  0
 27 25  2  0
M  END
$$$$
