MHN.pdb
     RDKit          3D

 27 27  0  0  1  0  0  0  0  0999 V2000
    5.7225  -12.0755   27.0423 C   0  0  0  0  0  0  0  0  0  0  0  0
    7.4886  -11.7338   26.7246 S   0  0  0  0  0  0  0  0  0  0  0  0
    8.0691  -12.9246   25.4520 C   0  0  0  0  0  0  0  0  0  0  0  0
    6.9604  -13.8629   25.1242 C   0  0  0  0  0  0  0  0  0  0  0  0
    7.3731  -15.2937   24.8890 C   0  0  2  0  0  0  0  0  0  0  0  0
    8.5207  -15.5203   25.7617 N   0  0  0  0  0  0  0  0  0  0  0  0
    7.7506  -15.4474   23.4663 C   0  0  0  0  0  0  0  0  0  0  0  0
    6.8707  -15.5721   22.6028 O   0  0  0  0  0  0  0  0  0  0  0  0
    9.0980  -15.4618   23.0121 N   0  0  0  0  0  0  0  0  0  0  0  0
    9.5090  -15.9291   21.7047 C   0  0  1  0  0  0  0  0  0  0  0  0
    9.7611  -14.7917   20.7577 C   0  0  0  0  0  0  0  0  0  0  0  0
    8.5817  -14.0179   20.4023 C   0  0  0  0  0  0  0  0  0  0  0  0
    8.4035  -12.6449   20.3119 C   0  0  0  0  0  0  0  0  0  0  0  0
    7.1253  -12.3916   19.9439 N   0  0  0  0  0  0  0  0  0  0  0  0
    6.5080  -13.5742   19.8045 C   0  0  0  0  0  0  0  0  0  0  0  0
    7.3858  -14.5440   20.0805 N   0  0  0  0  0  0  0  0  0  0  0  0
   10.6222  -16.8957   21.7761 C   0  0  0  0  0  0  0  0  0  0  0  0
   11.5939  -16.7556   20.9865 O   0  0  0  0  0  0  0  0  0  0  0  0
   14.4057  -19.0097   24.4761 N   0  0  0  0  0  0  0  0  0  0  0  0
   14.0783  -17.6305   24.2539 C   0  0  0  0  0  0  0  0  0  0  0  0
   14.9162  -16.7469   24.5221 O   0  0  0  0  0  0  0  0  0  0  0  0
   12.7604  -17.2471   23.7114 C   0  0  0  0  0  0  0  0  0  0  0  0
   11.9300  -18.4103   23.2294 C   0  0  2  0  0  0  0  0  0  0  0  0
   10.6633  -17.9820   22.6886 N   0  0  0  0  0  0  0  0  0  0  0  0
   11.6752  -19.3400   24.3603 C   0  0  0  0  0  0  0  0  0  0  0  0
   10.8163  -20.4442   24.1789 O   0  0  0  0  0  0  0  0  0  0  0  0
   12.1875  -19.2098   25.5080 O   0  0  0  0  0  0  0  0  0  0  0  0
  2  1  1  0
  3  2  1  0
  4  5  1  0
  4  3  1  0
  5  6  1  1
  7  8  2  0
  7  5  1  0
  9  7  1  0
 10  9  1  0
 11 12  1  0
 10 11  1  6
 12 13  2  0
 12 16  1  0
 13 14  1  0
 14 15  1  0
 16 15  2  0
 17 18  2  0
 17 10  1  0
 20 21  2  0
 20 19  1  0
 22 20  1  0
 23 24  1  0
 23 22  1  1
 24 17  1  0
 25 23  1  0
 26 25  1  0
 27 25  2  0
M  END
$$$$
