MHN.pdb
     RDKit          3D

 27 27  0  0  1  0  0  0  0  0999 V2000
    8.4089  -12.6992   28.5962 C   0  0  0  0  0  0  0  0  0  0  0  0
    7.3364  -11.7805   27.4375 S   0  0  0  0  0  0  0  0  0  0  0  0
    6.1897  -12.9867   26.6599 C   0  0  0  0  0  0  0  0  0  0  0  0
    6.9645  -13.8763   25.7515 C   0  0  0  0  0  0  0  0  0  0  0  0
    6.1677  -14.9654   25.0794 C   0  0  2  0  0  0  0  0  0  0  0  0
    5.6818  -15.8198   26.1581 N   0  0  0  0  0  0  0  0  0  0  0  0
    7.0657  -15.7151   24.1729 C   0  0  0  0  0  0  0  0  0  0  0  0
    7.5349  -16.8052   24.5294 O   0  0  0  0  0  0  0  0  0  0  0  0
    7.4364  -15.2521   22.8806 N   0  0  0  0  0  0  0  0  0  0  0  0
    8.3669  -15.9378   22.0085 C   0  0  1  0  0  0  0  0  0  0  0  0
    8.3760  -15.3502   20.6270 C   0  0  0  0  0  0  0  0  0  0  0  0
    9.1801  -16.0776   19.6573 C   0  0  0  0  0  0  0  0  0  0  0  0
   10.0093  -17.1773   19.8245 C   0  0  0  0  0  0  0  0  0  0  0  0
   10.5511  -17.5044   18.6274 N   0  0  0  0  0  0  0  0  0  0  0  0
   10.0774  -16.6339   17.7234 C   0  0  0  0  0  0  0  0  0  0  0  0
    9.2569  -15.7821   18.3468 N   0  0  0  0  0  0  0  0  0  0  0  0
    9.7109  -16.0631   22.6057 C   0  0  0  0  0  0  0  0  0  0  0  0
   10.1831  -15.0816   23.2390 O   0  0  0  0  0  0  0  0  0  0  0  0
   12.2228  -19.8358   26.1151 N   0  0  0  0  0  0  0  0  0  0  0  0
   12.0101  -18.4670   25.7407 C   0  0  0  0  0  0  0  0  0  0  0  0
   12.6993  -17.5701   26.2654 O   0  0  0  0  0  0  0  0  0  0  0  0
   10.9845  -18.1100   24.7414 C   0  0  0  0  0  0  0  0  0  0  0  0
   11.5377  -17.4768   23.4893 C   0  0  2  0  0  0  0  0  0  0  0  0
   10.5092  -17.2325   22.5080 N   0  0  0  0  0  0  0  0  0  0  0  0
   12.5629  -18.3717   22.8922 C   0  0  0  0  0  0  0  0  0  0  0  0
   13.9054  -18.2784   23.3151 O   0  0  0  0  0  0  0  0  0  0  0  0
   12.3122  -19.2368   22.0061 O   0  0  0  0  0  0  0  0  0  0  0  0
  2  1  1  0
  3  2  1  0
  4  5  1  0
  4  3  1  0
  5  6  1  1
  7  8  2  0
  7  5  1  0
  9  7  1  0
 10  9  1  0
 11 12  1  0
 10 11  1  6
 12 13  2  0
 12 16  1  0
 13 14  1  0
 14 15  1  0
 16 15  2  0
 17 18  2  0
 17 10  1  0
 20 21  2  0
 20 19  1  0
 22 20  1  0
 23 24  1  0
 23 22  1  1
 24 17  1  0
 25 23  1  0
 26 25  1  0
 27 25  2  0
M  END
$$$$
