MHN.pdb
     RDKit          3D

 27 27  0  0  1  0  0  0  0  0999 V2000
    7.5345  -11.5068   20.3080 C   0  0  0  0  0  0  0  0  0  0  0  0
    7.4634  -12.6317   18.8705 S   0  0  0  0  0  0  0  0  0  0  0  0
    7.4289  -14.3539   19.5085 C   0  0  0  0  0  0  0  0  0  0  0  0
    8.5733  -14.5488   20.4409 C   0  0  0  0  0  0  0  0  0  0  0  0
    9.7215  -15.3584   19.8942 C   0  0  2  0  0  0  0  0  0  0  0  0
    9.1392  -16.6253   19.4634 N   0  0  0  0  0  0  0  0  0  0  0  0
   10.7072  -15.5694   20.9776 C   0  0  0  0  0  0  0  0  0  0  0  0
   11.3020  -14.6003   21.4702 O   0  0  0  0  0  0  0  0  0  0  0  0
   11.0260  -16.8504   21.5062 N   0  0  0  0  0  0  0  0  0  0  0  0
   12.0578  -17.0872   22.4940 C   0  0  1  0  0  0  0  0  0  0  0  0
   11.9141  -18.4342   23.1413 C   0  0  0  0  0  0  0  0  0  0  0  0
   12.9382  -18.7539   24.1238 C   0  0  0  0  0  0  0  0  0  0  0  0
   13.2875  -18.1046   25.2990 C   0  0  0  0  0  0  0  0  0  0  0  0
   14.3067  -18.7761   25.8852 N   0  0  0  0  0  0  0  0  0  0  0  0
   14.5967  -19.8253   25.1014 C   0  0  0  0  0  0  0  0  0  0  0  0
   13.7735  -19.8061   24.0482 N   0  0  0  0  0  0  0  0  0  0  0  0
   13.4120  -16.8264   21.9679 C   0  0  0  0  0  0  0  0  0  0  0  0
   13.6933  -17.2215   20.8051 O   0  0  0  0  0  0  0  0  0  0  0  0
   17.8652  -13.1883   21.2970 N   0  0  0  0  0  0  0  0  0  0  0  0
   17.0725  -14.2687   20.7840 C   0  0  0  0  0  0  0  0  0  0  0  0
   17.4985  -14.9460   19.8277 O   0  0  0  0  0  0  0  0  0  0  0  0
   15.7587  -14.5864   21.3763 C   0  0  0  0  0  0  0  0  0  0  0  0
   15.7082  -15.9156   22.0874 C   0  0  2  0  0  0  0  0  0  0  0  0
   14.4238  -16.1519   22.6997 N   0  0  0  0  0  0  0  0  0  0  0  0
   16.7534  -15.9534   23.1431 C   0  0  0  0  0  0  0  0  0  0  0  0
   16.3811  -16.1442   24.4902 O   0  0  0  0  0  0  0  0  0  0  0  0
   17.9893  -15.8230   22.9151 O   0  0  0  0  0  0  0  0  0  0  0  0
  2  1  1  0
  3  2  1  0
  4  5  1  0
  4  3  1  0
  5  6  1  1
  7  8  2  0
  7  5  1  0
  9  7  1  0
 10  9  1  0
 11 12  1  0
 10 11  1  6
 12 13  2  0
 12 16  1  0
 13 14  1  0
 14 15  1  0
 16 15  2  0
 17 18  2  0
 17 10  1  0
 20 21  2  0
 20 19  1  0
 22 20  1  0
 23 24  1  0
 23 22  1  1
 24 17  1  0
 25 23  1  0
 26 25  1  0
 27 25  2  0
M  END
$$$$
