MHN.pdb
     RDKit          3D

 27 27  0  0  1  0  0  0  0  0999 V2000
    2.4454  -18.4658   21.0175 C   0  0  0  0  0  0  0  0  0  0  0  0
    3.3566  -19.2708   22.3807 S   0  0  0  0  0  0  0  0  0  0  0  0
    4.8719  -20.0284   21.6706 C   0  0  0  0  0  0  0  0  0  0  0  0
    6.0190  -19.1011   21.8744 C   0  0  0  0  0  0  0  0  0  0  0  0
    6.6721  -18.5945   20.6136 C   0  0  2  0  0  0  0  0  0  0  0  0
    7.2896  -19.7626   19.9940 N   0  0  0  0  0  0  0  0  0  0  0  0
    7.6929  -17.5888   20.9832 C   0  0  0  0  0  0  0  0  0  0  0  0
    8.8923  -17.8999   20.9944 O   0  0  0  0  0  0  0  0  0  0  0  0
    7.3775  -16.2481   21.3371 N   0  0  0  0  0  0  0  0  0  0  0  0
    8.3665  -15.2281   21.6165 C   0  0  1  0  0  0  0  0  0  0  0  0
    7.8532  -13.8515   21.3077 C   0  0  0  0  0  0  0  0  0  0  0  0
    7.7045  -13.5569   19.8910 C   0  0  0  0  0  0  0  0  0  0  0  0
    8.3806  -12.6501   19.0877 C   0  0  0  0  0  0  0  0  0  0  0  0
    7.8939  -12.7326   17.8269 N   0  0  0  0  0  0  0  0  0  0  0  0
    6.9329  -13.6684   17.8302 C   0  0  0  0  0  0  0  0  0  0  0  0
    6.8245  -14.1581   19.0695 N   0  0  0  0  0  0  0  0  0  0  0  0
    8.9392  -15.3547   22.9710 C   0  0  0  0  0  0  0  0  0  0  0  0
    8.4656  -14.6410   23.8949 O   0  0  0  0  0  0  0  0  0  0  0  0
   10.5218  -18.9075   23.6941 N   0  0  0  0  0  0  0  0  0  0  0  0
    9.9057  -18.6399   24.9621 C   0  0  0  0  0  0  0  0  0  0  0  0
    9.3891  -19.5744   25.6060 O   0  0  0  0  0  0  0  0  0  0  0  0
    9.8773  -17.2706   25.5118 C   0  0  0  0  0  0  0  0  0  0  0  0
   10.5417  -16.2399   24.6338 C   0  0  2  0  0  0  0  0  0  0  0  0
   10.0000  -16.2394   23.2970 N   0  0  0  0  0  0  0  0  0  0  0  0
   11.9993  -16.5191   24.5570 C   0  0  0  0  0  0  0  0  0  0  0  0
   12.7956  -16.4070   25.7160 O   0  0  0  0  0  0  0  0  0  0  0  0
   12.5959  -16.8602   23.4967 O   0  0  0  0  0  0  0  0  0  0  0  0
  2  1  1  0
  3  2  1  0
  4  5  1  0
  4  3  1  0
  5  6  1  1
  7  8  2  0
  7  5  1  0
  9  7  1  0
 10  9  1  0
 11 12  1  0
 10 11  1  1
 12 13  2  0
 12 16  1  0
 13 14  1  0
 14 15  1  0
 16 15  2  0
 17 18  2  0
 17 10  1  0
 20 21  2  0
 20 19  1  0
 22 20  1  0
 23 24  1  0
 23 22  1  1
 24 17  1  0
 25 23  1  0
 26 25  1  0
 27 25  2  0
M  END
$$$$
