MHN.pdb
     RDKit          3D

 27 27  0  0  1  0  0  0  0  0999 V2000
    5.9618  -11.6556   28.0573 C   0  0  0  0  0  0  0  0  0  0  0  0
    7.0901  -12.6958   27.0664 S   0  0  0  0  0  0  0  0  0  0  0  0
    6.1417  -13.3402   25.6311 C   0  0  0  0  0  0  0  0  0  0  0  0
    5.8647  -14.7877   25.8433 C   0  0  0  0  0  0  0  0  0  0  0  0
    7.0099  -15.7172   25.5315 C   0  0  2  0  0  0  0  0  0  0  0  0
    8.1825  -15.1226   26.1651 N   0  0  0  0  0  0  0  0  0  0  0  0
    7.1772  -15.7825   24.0625 C   0  0  0  0  0  0  0  0  0  0  0  0
    6.5697  -16.6418   23.4083 O   0  0  0  0  0  0  0  0  0  0  0  0
    8.0150  -14.8966   23.3308 N   0  0  0  0  0  0  0  0  0  0  0  0
    8.3126  -15.0394   21.9210 C   0  0  1  0  0  0  0  0  0  0  0  0
    7.9858  -13.7927   21.1510 C   0  0  0  0  0  0  0  0  0  0  0  0
    8.1143  -13.9133   19.7071 C   0  0  0  0  0  0  0  0  0  0  0  0
    8.6900  -13.0535   18.7829 C   0  0  0  0  0  0  0  0  0  0  0  0
    8.5700  -13.5933   17.5470 N   0  0  0  0  0  0  0  0  0  0  0  0
    7.9340  -14.7664   17.6836 C   0  0  0  0  0  0  0  0  0  0  0  0
    7.6639  -14.9519   18.9798 N   0  0  0  0  0  0  0  0  0  0  0  0
    9.6806  -15.5396   21.6817 C   0  0  0  0  0  0  0  0  0  0  0  0
   10.6364  -15.0003   22.3005 O   0  0  0  0  0  0  0  0  0  0  0  0
   11.1580  -19.0768   23.6215 N   0  0  0  0  0  0  0  0  0  0  0  0
   11.8746  -18.2201   22.7207 C   0  0  0  0  0  0  0  0  0  0  0  0
   12.6837  -17.3869   23.1746 O   0  0  0  0  0  0  0  0  0  0  0  0
   11.6642  -18.3151   21.2631 C   0  0  0  0  0  0  0  0  0  0  0  0
   11.3589  -16.9967   20.5971 C   0  0  2  0  0  0  0  0  0  0  0  0
    9.9855  -16.6000   20.7892 N   0  0  0  0  0  0  0  0  0  0  0  0
   11.6242  -17.1045   19.1389 C   0  0  0  0  0  0  0  0  0  0  0  0
   10.5484  -17.0680   18.2271 O   0  0  0  0  0  0  0  0  0  0  0  0
   12.7784  -17.2302   18.6407 O   0  0  0  0  0  0  0  0  0  0  0  0
  2  1  1  0
  3  2  1  0
  4  5  1  0
  4  3  1  0
  5  6  1  1
  7  8  2  0
  7  5  1  0
  9  7  1  0
 10  9  1  0
 11 12  1  0
 10 11  1  6
 12 13  2  0
 12 16  1  0
 13 14  1  0
 14 15  1  0
 16 15  2  0
 17 18  2  0
 17 10  1  0
 20 21  2  0
 20 19  1  0
 22 20  1  0
 23 24  1  0
 23 22  1  1
 24 17  1  0
 25 23  1  0
 26 25  1  0
 27 25  2  0
M  END
$$$$
