MHN.pdb
     RDKit          3D

 27 27  0  0  1  0  0  0  0  0999 V2000
    6.5331  -11.1928   27.8125 C   0  0  0  0  0  0  0  0  0  0  0  0
    7.2396  -12.1014   26.3940 S   0  0  0  0  0  0  0  0  0  0  0  0
    5.9258  -13.1929   25.7179 C   0  0  0  0  0  0  0  0  0  0  0  0
    6.4954  -14.0086   24.6101 C   0  0  0  0  0  0  0  0  0  0  0  0
    7.6623  -14.8854   24.9873 C   0  0  2  0  0  0  0  0  0  0  0  0
    8.6667  -13.9849   25.5443 N   0  0  0  0  0  0  0  0  0  0  0  0
    8.1664  -15.5504   23.7650 C   0  0  0  0  0  0  0  0  0  0  0  0
    7.4785  -16.4137   23.2020 O   0  0  0  0  0  0  0  0  0  0  0  0
    9.4267  -15.2543   23.1770 N   0  0  0  0  0  0  0  0  0  0  0  0
   10.0146  -16.0123   22.0923 C   0  0  1  0  0  0  0  0  0  0  0  0
   10.0405  -15.2288   20.8119 C   0  0  0  0  0  0  0  0  0  0  0  0
    8.7502  -14.7096   20.3855 C   0  0  0  0  0  0  0  0  0  0  0  0
    8.3036  -13.4012   20.2703 C   0  0  0  0  0  0  0  0  0  0  0  0
    7.0225  -13.4117   19.8319 N   0  0  0  0  0  0  0  0  0  0  0  0
    6.6654  -14.6949   19.6728 C   0  0  0  0  0  0  0  0  0  0  0  0
    7.7047  -15.4670   20.0061 N   0  0  0  0  0  0  0  0  0  0  0  0
   11.3218  -16.5939   22.4551 C   0  0  0  0  0  0  0  0  0  0  0  0
   12.0552  -15.9690   23.2669 O   0  0  0  0  0  0  0  0  0  0  0  0
   12.0775  -21.2746   25.2516 N   0  0  0  0  0  0  0  0  0  0  0  0
   12.6719  -20.0231   24.8784 C   0  0  0  0  0  0  0  0  0  0  0  0
   13.8290  -19.7530   25.2565 O   0  0  0  0  0  0  0  0  0  0  0  0
   11.9281  -19.0526   24.0520 C   0  0  0  0  0  0  0  0  0  0  0  0
   12.6261  -18.6713   22.7706 C   0  0  2  0  0  0  0  0  0  0  0  0
   11.8054  -17.8247   21.9399 N   0  0  0  0  0  0  0  0  0  0  0  0
   12.9683  -19.8998   22.0077 C   0  0  0  0  0  0  0  0  0  0  0  0
   14.3115  -20.3234   21.9288 O   0  0  0  0  0  0  0  0  0  0  0  0
   12.1179  -20.6146   21.4059 O   0  0  0  0  0  0  0  0  0  0  0  0
  2  1  1  0
  3  2  1  0
  4  5  1  0
  4  3  1  0
  5  6  1  6
  7  8  2  0
  7  5  1  0
  9  7  1  0
 10  9  1  0
 11 12  1  0
 10 11  1  6
 12 13  2  0
 12 16  1  0
 13 14  1  0
 14 15  1  0
 16 15  2  0
 17 18  2  0
 17 10  1  0
 20 21  2  0
 20 19  1  0
 22 20  1  0
 23 24  1  0
 23 22  1  1
 24 17  1  0
 25 23  1  0
 26 25  1  0
 27 25  2  0
M  END
$$$$
