MHN.pdb
     RDKit          3D

 27 27  0  0  1  0  0  0  0  0999 V2000
    7.5172  -11.5373   27.7435 C   0  0  0  0  0  0  0  0  0  0  0  0
    6.6479  -10.9660   26.2419 S   0  0  0  0  0  0  0  0  0  0  0  0
    5.8597  -12.4297   25.4603 C   0  0  0  0  0  0  0  0  0  0  0  0
    6.8778  -13.5057   25.3088 C   0  0  0  0  0  0  0  0  0  0  0  0
    6.4186  -14.7283   24.5557 C   0  0  2  0  0  0  0  0  0  0  0  0
    5.3923  -15.3425   25.3918 N   0  0  0  0  0  0  0  0  0  0  0  0
    7.5742  -15.6363   24.3820 C   0  0  0  0  0  0  0  0  0  0  0  0
    7.7945  -16.5240   25.2180 O   0  0  0  0  0  0  0  0  0  0  0  0
    8.4755  -15.5538   23.2853 N   0  0  0  0  0  0  0  0  0  0  0  0
    9.5522  -16.4922   23.0470 C   0  0  1  0  0  0  0  0  0  0  0  0
   10.3798  -16.1036   21.8561 C   0  0  0  0  0  0  0  0  0  0  0  0
   11.3760  -17.0852   21.4561 C   0  0  0  0  0  0  0  0  0  0  0  0
   11.3085  -18.4706   21.4259 C   0  0  0  0  0  0  0  0  0  0  0  0
   12.4899  -18.9579   20.9783 N   0  0  0  0  0  0  0  0  0  0  0  0
   13.2870  -17.9078   20.7307 C   0  0  0  0  0  0  0  0  0  0  0  0
   12.6138  -16.7893   21.0190 N   0  0  0  0  0  0  0  0  0  0  0  0
   10.3504  -16.7539   24.2607 C   0  0  0  0  0  0  0  0  0  0  0  0
   10.6939  -15.7771   24.9785 O   0  0  0  0  0  0  0  0  0  0  0  0
   11.6093  -18.7858   29.1233 N   0  0  0  0  0  0  0  0  0  0  0  0
   11.4611  -19.6616   27.9964 C   0  0  0  0  0  0  0  0  0  0  0  0
   11.9848  -20.7929   28.0217 O   0  0  0  0  0  0  0  0  0  0  0  0
   10.6955  -19.2373   26.8082 C   0  0  0  0  0  0  0  0  0  0  0  0
   11.4058  -18.2234   25.9468 C   0  0  2  0  0  0  0  0  0  0  0  0
   10.7572  -18.0504   24.6701 N   0  0  0  0  0  0  0  0  0  0  0  0
   12.8058  -18.6642   25.7140 C   0  0  0  0  0  0  0  0  0  0  0  0
   13.1504  -19.2866   24.4959 O   0  0  0  0  0  0  0  0  0  0  0  0
   13.7388  -18.5177   26.5533 O   0  0  0  0  0  0  0  0  0  0  0  0
  2  1  1  0
  3  2  1  0
  4  5  1  0
  4  3  1  0
  5  6  1  1
  7  8  2  0
  7  5  1  0
  9  7  1  0
 10  9  1  0
 11 12  1  0
 10 11  1  6
 12 13  2  0
 12 16  1  0
 13 14  1  0
 14 15  1  0
 16 15  2  0
 17 18  2  0
 17 10  1  0
 20 21  2  0
 20 19  1  0
 22 20  1  0
 23 24  1  0
 23 22  1  1
 24 17  1  0
 25 23  1  0
 26 25  1  0
 27 25  2  0
M  END
$$$$
