MRH.pdb
     RDKit          3D

 30 30  0  0  1  0  0  0  0  0999 V2000
   44.5638   -3.1992    1.5044 C   0  0  0  0  0  0  0  0  0  0  0  0
   44.0884   -3.1932   -0.2301 S   0  0  0  0  0  0  0  0  0  0  0  0
   43.5333   -4.8434   -0.7457 C   0  0  0  0  0  0  0  0  0  0  0  0
   43.1680   -4.7427   -2.2308 C   0  0  0  0  0  0  0  0  0  0  0  0
   42.5450   -6.0487   -2.5943 C   0  0  2  0  0  0  0  0  0  0  0  0
   42.8648   -7.0303   -1.5799 N   0  0  0  0  0  0  0  0  0  0  0  0
   42.9187   -6.5377   -3.9551 C   0  0  0  0  0  0  0  0  0  0  0  0
   42.8143   -5.8086   -4.9740 O   0  0  0  0  0  0  0  0  0  0  0  0
   46.3717  -14.6059   -6.7378 N   0  0  0  0  0  0  0  0  0  0  0  0
   46.2520  -13.6420   -7.7807 C   0  0  0  0  0  0  0  0  0  0  0  0
   46.7808  -13.8852   -8.9298 N   0  0  0  0  0  0  0  0  0  0  0  0
   45.5727  -12.4188   -7.6138 N   0  0  0  0  0  0  0  0  0  0  0  0
   45.2522  -11.8418   -6.3263 C   0  0  0  0  0  0  0  0  0  0  0  0
   44.6172  -10.4900   -6.5725 C   0  0  0  0  0  0  0  0  0  0  0  0
   44.2009   -9.7988   -5.3253 C   0  0  0  0  0  0  0  0  0  0  0  0
   43.7251   -8.3819   -5.4861 C   0  0  2  0  0  0  0  0  0  0  0  0
   43.4101   -7.8525   -4.1722 N   0  0  0  0  0  0  0  0  0  0  0  0
   42.5058   -8.4487   -6.3398 C   0  0  0  0  0  0  0  0  0  0  0  0
   41.5378   -9.1229   -5.9313 O   0  0  0  0  0  0  0  0  0  0  0  0
   46.6929  -13.2533   -9.7430 N   0  0  0  0  0  0  0  0  0  0  0  0
   42.4479   -7.7688   -7.5756 C   0  0  2  0  0  0  0  0  0  0  0  0
   41.2847   -7.9458   -8.4170 C   0  0  0  0  0  0  0  0  0  0  0  0
   40.2236   -6.9824   -7.9302 C   0  0  0  0  0  0  0  0  0  0  0  0
   39.1608   -6.7781   -8.9152 C   0  0  0  0  0  0  0  0  0  0  0  0
   38.2319   -7.7072   -9.2955 N   0  0  0  0  0  0  0  0  0  0  0  0
   37.4282   -7.1209  -10.2277 C   0  0  0  0  0  0  0  0  0  0  0  0
   37.8429   -5.8608  -10.4249 N   0  0  0  0  0  0  0  0  0  0  0  0
   38.9143   -5.6730   -9.6028 C   0  0  0  0  0  0  0  0  0  0  0  0
   41.5838   -7.7710   -9.8471 O   0  0  0  0  0  0  0  0  0  0  0  0
   42.6140   -7.2823  -10.3288 O   0  0  0  0  0  0  0  0  0  0  0  0
  1  2  1  0
  2  3  1  0
  4  3  1  0
  5  4  1  0
  5  6  1  1
  7  8  2  0
  7  5  1  0
  9 10  1  0
 10 11  2  0
 12 13  1  0
 12 10  1  0
 13 14  1  0
 14 15  1  0
 16 15  1  1
 16 17  1  0
 17  7  1  0
 18 16  1  0
 19 18  2  0
 20 18  1  0
 21 28  1  0
 21 20  1  0
 21 22  1  6
 22 23  1  0
 23 27  1  0
 24 23  2  0
 24 25  1  0
 25 26  1  0
 27 26  2  0
 28 30  1  0
 29 28  2  0
M  END
$$$$
