MRH.pdb
     RDKit          3D

 30 30  0  0  1  0  0  0  0  0999 V2000
   25.4769  -24.2457  -25.4476 C   0  0  0  0  0  0  0  0  0  0  0  0
   24.8172  -25.7230  -24.6620 S   0  0  0  0  0  0  0  0  0  0  0  0
   26.0915  -27.0121  -24.5546 C   0  0  0  0  0  0  0  0  0  0  0  0
   25.4158  -28.2529  -23.9604 C   0  0  0  0  0  0  0  0  0  0  0  0
   26.4930  -29.2713  -23.7917 C   0  0  2  0  0  0  0  0  0  0  0  0
   26.6592  -30.0016  -25.0303 N   0  0  0  0  0  0  0  0  0  0  0  0
   26.2711  -30.2001  -22.6434 C   0  0  0  0  0  0  0  0  0  0  0  0
   25.7830  -31.3477  -22.8031 O   0  0  0  0  0  0  0  0  0  0  0  0
   27.1867  -31.0575  -14.8703 N   0  0  0  0  0  0  0  0  0  0  0  0
   27.9405  -32.2463  -15.0930 C   0  0  0  0  0  0  0  0  0  0  0  0
   27.8730  -33.2070  -14.2375 N   0  0  0  0  0  0  0  0  0  0  0  0
   28.7669  -32.4249  -16.2202 N   0  0  0  0  0  0  0  0  0  0  0  0
   28.8812  -31.4666  -17.2982 C   0  0  0  0  0  0  0  0  0  0  0  0
   27.5771  -31.4800  -18.0666 C   0  0  0  0  0  0  0  0  0  0  0  0
   27.5989  -30.6215  -19.2787 C   0  0  0  0  0  0  0  0  0  0  0  0
   26.3913  -30.7109  -20.1696 C   0  0  2  0  0  0  0  0  0  0  0  0
   26.5974  -29.8370  -21.3096 N   0  0  0  0  0  0  0  0  0  0  0  0
   25.2359  -30.2520  -19.3485 C   0  0  0  0  0  0  0  0  0  0  0  0
   25.2367  -29.0728  -18.9388 O   0  0  0  0  0  0  0  0  0  0  0  0
   28.4389  -34.0695  -14.3031 N   0  0  0  0  0  0  0  0  0  0  0  0
   24.1708  -31.1266  -19.0429 C   0  0  2  0  0  0  0  0  0  0  0  0
   23.0842  -30.6439  -18.2191 C   0  0  0  0  0  0  0  0  0  0  0  0
   21.8007  -31.2127  -18.7847 C   0  0  0  0  0  0  0  0  0  0  0  0
   21.4151  -30.5755  -20.0443 C   0  0  0  0  0  0  0  0  0  0  0  0
   21.7523  -31.0088  -21.2971 N   0  0  0  0  0  0  0  0  0  0  0  0
   21.1979  -30.1410  -22.1905 C   0  0  0  0  0  0  0  0  0  0  0  0
   20.5328  -29.1918  -21.5156 N   0  0  0  0  0  0  0  0  0  0  0  0
   20.6818  -29.4821  -20.1917 C   0  0  0  0  0  0  0  0  0  0  0  0
   23.2599  -30.9704  -16.7951 O   0  0  0  0  0  0  0  0  0  0  0  0
   24.0891  -31.7556  -16.3173 O   0  0  0  0  0  0  0  0  0  0  0  0
  1  2  1  0
  2  3  1  0
  4  3  1  0
  5  4  1  0
  5  6  1  6
  7  8  2  0
  7  5  1  0
  9 10  1  0
 10 11  2  0
 12 13  1  0
 12 10  1  0
 13 14  1  0
 14 15  1  0
 16 15  1  1
 16 17  1  0
 17  7  1  0
 18 16  1  0
 19 18  2  0
 20 18  1  0
 21 28  1  0
 21 20  1  0
 21 22  1  6
 22 23  1  0
 23 27  1  0
 24 23  2  0
 24 25  1  0
 25 26  1  0
 27 26  2  0
 28 30  1  0
 29 28  2  0
M  END
$$$$
