MRH.pdb
     RDKit          3D

 30 30  0  0  1  0  0  0  0  0999 V2000
   22.5667  -18.9482  -22.3595 C   0  0  0  0  0  0  0  0  0  0  0  0
   22.4964  -17.1551  -22.2388 S   0  0  0  0  0  0  0  0  0  0  0  0
   23.1063  -16.5997  -20.6212 C   0  0  0  0  0  0  0  0  0  0  0  0
   23.5831  -17.8509  -19.8754 C   0  0  0  0  0  0  0  0  0  0  0  0
   23.5126  -17.5199  -18.4223 C   0  0  2  0  0  0  0  0  0  0  0  0
   24.8441  -17.5633  -17.8565 N   0  0  0  0  0  0  0  0  0  0  0  0
   22.5702  -18.3847  -17.6513 C   0  0  0  0  0  0  0  0  0  0  0  0
   21.3345  -18.3905  -17.8829 O   0  0  0  0  0  0  0  0  0  0  0  0
   23.6925  -24.4397  -13.9932 N   0  0  0  0  0  0  0  0  0  0  0  0
   24.8778  -23.8526  -14.5238 C   0  0  0  0  0  0  0  0  0  0  0  0
   25.6208  -24.5392  -15.3212 N   0  0  0  0  0  0  0  0  0  0  0  0
   25.2817  -22.5385  -14.2149 N   0  0  0  0  0  0  0  0  0  0  0  0
   24.5833  -21.6757  -13.2867 C   0  0  0  0  0  0  0  0  0  0  0  0
   23.9125  -20.5822  -14.0899 C   0  0  0  0  0  0  0  0  0  0  0  0
   22.9468  -21.0971  -15.0944 C   0  0  0  0  0  0  0  0  0  0  0  0
   22.1265  -20.0603  -15.8098 C   0  0  2  0  0  0  0  0  0  0  0  0
   23.0182  -19.2457  -16.6142 N   0  0  0  0  0  0  0  0  0  0  0  0
   21.4722  -19.2449  -14.7483 C   0  0  0  0  0  0  0  0  0  0  0  0
   22.1485  -18.3589  -14.1861 O   0  0  0  0  0  0  0  0  0  0  0  0
   26.5712  -24.2494  -15.6059 N   0  0  0  0  0  0  0  0  0  0  0  0
   20.1255  -19.4685  -14.3890 C   0  0  1  0  0  0  0  0  0  0  0  0
   19.3426  -18.3607  -13.8867 C   0  0  0  0  0  0  0  0  0  0  0  0
   19.4222  -17.2494  -14.9112 C   0  0  0  0  0  0  0  0  0  0  0  0
   18.5758  -16.1076  -14.5631 C   0  0  0  0  0  0  0  0  0  0  0  0
   18.4628  -15.5432  -13.3224 N   0  0  0  0  0  0  0  0  0  0  0  0
   17.5784  -14.5107  -13.4242 C   0  0  0  0  0  0  0  0  0  0  0  0
   17.1503  -14.4316  -14.6927 N   0  0  0  0  0  0  0  0  0  0  0  0
   17.7807  -15.4286  -15.3766 C   0  0  0  0  0  0  0  0  0  0  0  0
   17.9541  -18.7375  -13.5782 O   0  0  0  0  0  0  0  0  0  0  0  0
   17.2114  -19.4424  -14.2737 O   0  0  0  0  0  0  0  0  0  0  0  0
  1  2  1  0
  2  3  1  0
  4  3  1  0
  5  4  1  0
  5  6  1  1
  7  8  2  0
  7  5  1  0
  9 10  1  0
 10 11  2  0
 12 13  1  0
 12 10  1  0
 13 14  1  0
 14 15  1  0
 16 15  1  1
 16 17  1  0
 17  7  1  0
 18 16  1  0
 19 18  2  0
 20 18  1  0
 21 28  1  0
 21 20  1  0
 21 22  1  1
 22 23  1  0
 23 27  1  0
 24 23  2  0
 24 25  1  0
 25 26  1  0
 27 26  2  0
 28 30  1  0
 29 28  2  0
M  END
$$$$
