MRH.pdb
     RDKit          3D

 30 30  0  0  1  0  0  0  0  0999 V2000
   28.6982  -12.9378  -15.6814 C   0  0  0  0  0  0  0  0  0  0  0  0
   27.0747  -12.6580  -14.9600 S   0  0  0  0  0  0  0  0  0  0  0  0
   25.8727  -12.2123  -16.2460 C   0  0  0  0  0  0  0  0  0  0  0  0
   24.9532  -13.4246  -16.4304 C   0  0  0  0  0  0  0  0  0  0  0  0
   25.7755  -14.4701  -17.1063 C   0  0  2  0  0  0  0  0  0  0  0  0
   26.0894  -14.0367  -18.4512 N   0  0  0  0  0  0  0  0  0  0  0  0
   25.1463  -15.8245  -17.1090 C   0  0  0  0  0  0  0  0  0  0  0  0
   24.2170  -16.1228  -17.9015 O   0  0  0  0  0  0  0  0  0  0  0  0
   27.0015  -20.9483  -12.2231 N   0  0  0  0  0  0  0  0  0  0  0  0
   26.1907  -22.0000  -12.7405 C   0  0  0  0  0  0  0  0  0  0  0  0
   25.4566  -22.6867  -11.9350 N   0  0  0  0  0  0  0  0  0  0  0  0
   26.1517  -22.3290  -14.1100 N   0  0  0  0  0  0  0  0  0  0  0  0
   26.6902  -21.4896  -15.1583 C   0  0  0  0  0  0  0  0  0  0  0  0
   25.5854  -20.5637  -15.6201 C   0  0  0  0  0  0  0  0  0  0  0  0
   25.9792  -19.1314  -15.6206 C   0  0  0  0  0  0  0  0  0  0  0  0
   24.9688  -18.1718  -16.1847 C   0  0  2  0  0  0  0  0  0  0  0  0
   25.5620  -16.8478  -16.2160 N   0  0  0  0  0  0  0  0  0  0  0  0
   23.8003  -18.2103  -15.2611 C   0  0  0  0  0  0  0  0  0  0  0  0
   23.9644  -17.8164  -14.0879 O   0  0  0  0  0  0  0  0  0  0  0  0
   24.8324  -23.4505  -12.2435 N   0  0  0  0  0  0  0  0  0  0  0  0
   22.5436  -18.6792  -15.7011 C   0  0  1  0  0  0  0  0  0  0  0  0
   21.4716  -18.8135  -14.7392 C   0  0  0  0  0  0  0  0  0  0  0  0
   20.2073  -18.3040  -15.3970 C   0  0  0  0  0  0  0  0  0  0  0  0
   20.2107  -16.8500  -15.5618 C   0  0  0  0  0  0  0  0  0  0  0  0
   21.1480  -16.1234  -16.2433 N   0  0  0  0  0  0  0  0  0  0  0  0
   20.7863  -14.8117  -16.1585 C   0  0  0  0  0  0  0  0  0  0  0  0
   19.6549  -14.7204  -15.4441 N   0  0  0  0  0  0  0  0  0  0  0  0
   19.3193  -15.9928  -15.0868 C   0  0  0  0  0  0  0  0  0  0  0  0
   21.3249  -20.1890  -14.2376 O   0  0  0  0  0  0  0  0  0  0  0  0
   21.8572  -21.2036  -14.7062 O   0  0  0  0  0  0  0  0  0  0  0  0
  1  2  1  0
  2  3  1  0
  4  3  1  0
  5  4  1  0
  5  6  1  6
  7  8  2  0
  7  5  1  0
  9 10  1  0
 10 11  2  0
 12 13  1  0
 12 10  1  0
 13 14  1  0
 14 15  1  0
 16 15  1  1
 16 17  1  0
 17  7  1  0
 18 16  1  0
 19 18  2  0
 20 18  1  0
 21 28  1  0
 21 20  1  0
 21 22  1  6
 22 23  1  0
 23 27  1  0
 24 23  2  0
 24 25  1  0
 25 26  1  0
 27 26  2  0
 28 30  1  0
 29 28  2  0
M  END
$$$$
