MRH.pdb
     RDKit          3D

 30 30  0  0  1  0  0  0  0  0999 V2000
   22.0678  -12.5015  -14.9407 C   0  0  0  0  0  0  0  0  0  0  0  0
   23.4331  -11.4636  -15.4824 S   0  0  0  0  0  0  0  0  0  0  0  0
   24.8844  -12.4773  -15.8865 C   0  0  0  0  0  0  0  0  0  0  0  0
   24.3569  -13.8429  -16.3402 C   0  0  0  0  0  0  0  0  0  0  0  0
   25.5595  -14.6717  -16.6453 C   0  0  2  0  0  0  0  0  0  0  0  0
   26.2458  -14.1153  -17.7918 N   0  0  0  0  0  0  0  0  0  0  0  0
   25.2586  -16.1205  -16.8474 C   0  0  0  0  0  0  0  0  0  0  0  0
   24.8046  -16.5584  -17.9350 O   0  0  0  0  0  0  0  0  0  0  0  0
   25.2111  -23.7651  -14.2164 N   0  0  0  0  0  0  0  0  0  0  0  0
   26.1134  -23.8643  -15.3152 C   0  0  0  0  0  0  0  0  0  0  0  0
   26.0691  -24.9016  -16.0775 N   0  0  0  0  0  0  0  0  0  0  0  0
   27.0643  -22.8681  -15.6129 N   0  0  0  0  0  0  0  0  0  0  0  0
   27.1432  -21.5960  -14.9281 C   0  0  0  0  0  0  0  0  0  0  0  0
   25.9290  -20.7836  -15.3241 C   0  0  0  0  0  0  0  0  0  0  0  0
   26.1878  -19.3215  -15.3696 C   0  0  0  0  0  0  0  0  0  0  0  0
   25.0853  -18.4761  -15.9436 C   0  0  2  0  0  0  0  0  0  0  0  0
   25.4671  -17.0813  -15.8223 N   0  0  0  0  0  0  0  0  0  0  0  0
   23.8722  -18.7690  -15.1297 C   0  0  0  0  0  0  0  0  0  0  0  0
   23.9149  -18.5344  -13.9044 O   0  0  0  0  0  0  0  0  0  0  0  0
   26.7211  -25.0594  -16.8639 N   0  0  0  0  0  0  0  0  0  0  0  0
   22.7078  -19.2970  -15.7282 C   0  0  2  0  0  0  0  0  0  0  0  0
   21.5793  -19.6307  -14.8871 C   0  0  0  0  0  0  0  0  0  0  0  0
   20.3248  -19.2323  -15.6345 C   0  0  0  0  0  0  0  0  0  0  0  0
   20.1340  -17.7819  -15.6716 C   0  0  0  0  0  0  0  0  0  0  0  0
   20.9488  -16.8518  -15.0870 N   0  0  0  0  0  0  0  0  0  0  0  0
   20.4219  -15.6234  -15.3555 C   0  0  0  0  0  0  0  0  0  0  0  0
   19.3091  -15.7808  -16.0873 N   0  0  0  0  0  0  0  0  0  0  0  0
   19.1524  -17.1230  -16.2693 C   0  0  0  0  0  0  0  0  0  0  0  0
   21.5652  -21.0468  -14.4875 O   0  0  0  0  0  0  0  0  0  0  0  0
   22.2976  -21.9426  -14.9273 O   0  0  0  0  0  0  0  0  0  0  0  0
  1  2  1  0
  2  3  1  0
  4  3  1  0
  5  4  1  0
  5  6  1  6
  7  8  2  0
  7  5  1  0
  9 10  1  0
 10 11  2  0
 12 13  1  0
 12 10  1  0
 13 14  1  0
 14 15  1  0
 16 15  1  1
 16 17  1  0
 17  7  1  0
 18 16  1  0
 19 18  2  0
 20 18  1  0
 21 28  1  0
 21 20  1  0
 21 22  1  6
 22 23  1  0
 23 27  1  0
 24 23  2  0
 24 25  1  0
 25 26  1  0
 27 26  2  0
 28 30  1  0
 29 28  2  0
M  END
$$$$
