MRH.pdb
     RDKit          3D

 30 30  0  0  1  0  0  0  0  0999 V2000
   22.1812  -32.9407  -10.6558 C   0  0  0  0  0  0  0  0  0  0  0  0
   22.0710  -33.3558   -8.9094 S   0  0  0  0  0  0  0  0  0  0  0  0
   23.5712  -32.8295   -8.0321 C   0  0  0  0  0  0  0  0  0  0  0  0
   24.7618  -33.2566   -8.8976 C   0  0  0  0  0  0  0  0  0  0  0  0
   25.9854  -32.8142   -8.1673 C   0  0  2  0  0  0  0  0  0  0  0  0
   26.9130  -32.2181   -9.1050 N   0  0  0  0  0  0  0  0  0  0  0  0
   26.6405  -33.8977   -7.3753 C   0  0  0  0  0  0  0  0  0  0  0  0
   26.5010  -35.1119   -7.6700 O   0  0  0  0  0  0  0  0  0  0  0  0
   33.8261  -35.1062   -7.9276 N   0  0  0  0  0  0  0  0  0  0  0  0
   33.6500  -36.2007   -7.0319 C   0  0  0  0  0  0  0  0  0  0  0  0
   34.3020  -37.2932   -7.2332 N   0  0  0  0  0  0  0  0  0  0  0  0
   32.7858  -36.1446   -5.9204 N   0  0  0  0  0  0  0  0  0  0  0  0
   31.9857  -34.9890   -5.5765 C   0  0  0  0  0  0  0  0  0  0  0  0
   30.5350  -35.4206   -5.5634 C   0  0  0  0  0  0  0  0  0  0  0  0
   29.5862  -34.2917   -5.3849 C   0  0  0  0  0  0  0  0  0  0  0  0
   28.1263  -34.6401   -5.4683 C   0  0  2  0  0  0  0  0  0  0  0  0
   27.4544  -33.6156   -6.2460 N   0  0  0  0  0  0  0  0  0  0  0  0
   27.6242  -34.6593   -4.0657 C   0  0  0  0  0  0  0  0  0  0  0  0
   27.3429  -33.5690   -3.5265 O   0  0  0  0  0  0  0  0  0  0  0  0
   34.2628  -38.1061   -6.5960 N   0  0  0  0  0  0  0  0  0  0  0  0
   27.4713  -35.8762   -3.3669 C   0  0  1  0  0  0  0  0  0  0  0  0
   27.0061  -35.8425   -1.9976 C   0  0  0  0  0  0  0  0  0  0  0  0
   27.9442  -34.9418   -1.2233 C   0  0  0  0  0  0  0  0  0  0  0  0
   29.1939  -35.6134   -0.8649 C   0  0  0  0  0  0  0  0  0  0  0  0
   29.5919  -36.8485   -1.2973 N   0  0  0  0  0  0  0  0  0  0  0  0
   30.8076  -37.1038   -0.7357 C   0  0  0  0  0  0  0  0  0  0  0  0
   31.1600  -36.0580    0.0264 N   0  0  0  0  0  0  0  0  0  0  0  0
   30.1469  -35.1505   -0.0697 C   0  0  0  0  0  0  0  0  0  0  0  0
   25.6020  -35.4172   -1.8829 O   0  0  0  0  0  0  0  0  0  0  0  0
   25.1530  -34.5642   -1.1065 O   0  0  0  0  0  0  0  0  0  0  0  0
  1  2  1  0
  2  3  1  0
  4  3  1  0
  5  4  1  0
  5  6  1  6
  7  8  2  0
  7  5  1  0
  9 10  1  0
 10 11  2  0
 12 13  1  0
 12 10  1  0
 13 14  1  0
 14 15  1  0
 16 15  1  1
 16 17  1  0
 17  7  1  0
 18 16  1  0
 19 18  2  0
 20 18  1  0
 21 28  1  0
 21 20  1  0
 21 22  1  1
 22 23  1  0
 23 27  1  0
 24 23  2  0
 24 25  1  0
 25 26  1  0
 27 26  2  0
 28 30  1  0
 29 28  2  0
M  END
$$$$
