WFH.pdb
     RDKit          3D

 36 39  0  0  1  0  0  0  0  0999 V2000
   27.3557   -9.0954  -20.0106 N   0  0  0  0  0  0  0  0  0  0  0  0
   25.9854   -9.1656  -19.6420 C   0  0  1  0  0  0  0  0  0  0  0  0
   25.5132  -10.4592  -19.0752 C   0  0  0  0  0  0  0  0  0  0  0  0
   25.5686  -11.5038  -20.1217 C   0  0  0  0  0  0  0  0  0  0  0  0
   26.4792  -12.5455  -20.1985 C   0  0  0  0  0  0  0  0  0  0  0  0
   26.2155  -13.3139  -21.2628 N   0  0  0  0  0  0  0  0  0  0  0  0
   25.1405  -12.7795  -21.8793 C   0  0  0  0  0  0  0  0  0  0  0  0
   24.4728  -13.1698  -23.0050 C   0  0  0  0  0  0  0  0  0  0  0  0
   23.3849  -12.4686  -23.4778 C   0  0  0  0  0  0  0  0  0  0  0  0
   22.9740  -11.3581  -22.7957 C   0  0  0  0  0  0  0  0  0  0  0  0
   23.6434  -10.9472  -21.6467 C   0  0  0  0  0  0  0  0  0  0  0  0
   24.7220  -11.6534  -21.1877 C   0  0  0  0  0  0  0  0  0  0  0  0
   25.6532   -8.0051  -18.7450 C   0  0  0  0  0  0  0  0  0  0  0  0
   26.4210   -7.7282  -17.7736 O   0  0  0  0  0  0  0  0  0  0  0  0
   24.5230   -7.1936  -18.9208 N   0  0  0  0  0  0  0  0  0  0  0  0
   24.2233   -6.0842  -17.9717 C   0  0  1  0  0  0  0  0  0  0  0  0
   24.0517   -4.8897  -18.8370 C   0  0  0  0  0  0  0  0  0  0  0  0
   25.2475   -4.2060  -19.3060 C   0  0  0  0  0  0  0  0  0  0  0  0
   25.8607   -3.2174  -18.5772 C   0  0  0  0  0  0  0  0  0  0  0  0
   27.0045   -2.5659  -19.0322 C   0  0  0  0  0  0  0  0  0  0  0  0
   27.5496   -2.9145  -20.2515 C   0  0  0  0  0  0  0  0  0  0  0  0
   26.9316   -3.9076  -20.9808 C   0  0  0  0  0  0  0  0  0  0  0  0
   25.7966   -4.5574  -20.5345 C   0  0  0  0  0  0  0  0  0  0  0  0
   22.9902   -6.4617  -17.2687 C   0  0  0  0  0  0  0  0  0  0  0  0
   21.9457   -6.7878  -17.9347 O   0  0  0  0  0  0  0  0  0  0  0  0
   22.8271   -6.5121  -15.8426 N   0  0  0  0  0  0  0  0  0  0  0  0
   21.5505   -6.8022  -15.2538 C   0  0  1  0  0  0  0  0  0  0  0  0
   21.4831   -8.2071  -14.7542 C   0  0  0  0  0  0  0  0  0  0  0  0
   20.2229   -8.6291  -14.1420 C   0  0  0  0  0  0  0  0  0  0  0  0
   19.0155   -7.9943  -14.0436 C   0  0  0  0  0  0  0  0  0  0  0  0
   18.1169   -8.8111  -13.4097 N   0  0  0  0  0  0  0  0  0  0  0  0
   18.7818   -9.9225  -13.1337 C   0  0  0  0  0  0  0  0  0  0  0  0
   20.0412   -9.8495  -13.5562 N   0  0  0  0  0  0  0  0  0  0  0  0
   21.1138   -5.8593  -14.2085 C   0  0  0  0  0  0  0  0  0  0  0  0
   19.8431   -5.4542  -13.9313 O   0  0  0  0  0  0  0  0  0  0  0  0
   22.0397   -5.3648  -13.4775 O   0  0  0  0  0  0  0  0  0  0  0  0
  2  1  1  1
  3  2  1  0
  4  3  1  0
  4  5  2  0
  6  5  1  0
  7 12  2  0
  7  6  1  0
  8  7  1  0
  9  8  2  0
 10  9  1  0
 10 11  2  0
 11 12  1  0
 12  4  1  0
 13  2  1  0
 14 13  2  0
 15 13  1  0
 16 24  1  0
 16 15  1  0
 16 17  1  6
 18 17  1  0
 19 18  2  0
 20 19  1  0
 21 22  1  0
 21 20  2  0
 22 23  2  0
 23 18  1  0
 24 25  2  0
 26 27  1  0
 26 24  1  0
 27 28  1  1
 28 29  1  0
 29 30  2  0
 30 31  1  0
 32 31  1  0
 33 29  1  0
 33 32  2  0
 34 35  1  0
 34 27  1  0
 36 34  2  0
M  END
$$$$
