WFH.pdb
     RDKit          3D

 36 39  0  0  1  0  0  0  0  0999 V2000
   14.3286  -15.7908    5.4155 N   0  0  0  0  0  0  0  0  0  0  0  0
   15.7460  -15.7492    5.5035 C   0  0  1  0  0  0  0  0  0  0  0  0
   16.3282  -14.7047    6.3911 C   0  0  0  0  0  0  0  0  0  0  0  0
   17.2187  -13.8274    5.5994 C   0  0  0  0  0  0  0  0  0  0  0  0
   16.8577  -13.0616    4.5024 C   0  0  0  0  0  0  0  0  0  0  0  0
   17.9130  -12.3721    4.0513 N   0  0  0  0  0  0  0  0  0  0  0  0
   18.9579  -12.6840    4.8463 C   0  0  0  0  0  0  0  0  0  0  0  0
   20.2572  -12.2637    4.8171 C   0  0  0  0  0  0  0  0  0  0  0  0
   21.1826  -12.7173    5.7317 C   0  0  0  0  0  0  0  0  0  0  0  0
   20.7790  -13.6086    6.6856 C   0  0  0  0  0  0  0  0  0  0  0  0
   19.4586  -14.0466    6.7292 C   0  0  0  0  0  0  0  0  0  0  0  0
   18.5495  -13.5874    5.8151 C   0  0  0  0  0  0  0  0  0  0  0  0
   16.2625  -17.1215    5.8376 C   0  0  0  0  0  0  0  0  0  0  0  0
   15.9294  -17.6627    6.9358 O   0  0  0  0  0  0  0  0  0  0  0  0
   17.1075  -17.8543    4.9916 N   0  0  0  0  0  0  0  0  0  0  0  0
   17.6202  -19.1938    5.3968 C   0  0  1  0  0  0  0  0  0  0  0  0
   17.9677  -19.8626    4.1173 C   0  0  0  0  0  0  0  0  0  0  0  0
   18.5384  -21.1997    4.1762 C   0  0  0  0  0  0  0  0  0  0  0  0
   17.7748  -22.3129    4.4259 C   0  0  0  0  0  0  0  0  0  0  0  0
   18.3273  -23.5901    4.4821 C   0  0  0  0  0  0  0  0  0  0  0  0
   19.6829  -23.7572    4.2826 C   0  0  0  0  0  0  0  0  0  0  0  0
   20.4470  -22.6376    4.0321 C   0  0  0  0  0  0  0  0  0  0  0  0
   19.9043  -21.3679    3.9751 C   0  0  0  0  0  0  0  0  0  0  0  0
   18.7909  -18.9491    6.2493 C   0  0  0  0  0  0  0  0  0  0  0  0
   19.7000  -18.1295    5.8717 O   0  0  0  0  0  0  0  0  0  0  0  0
   19.0316  -19.5579    7.5278 N   0  0  0  0  0  0  0  0  0  0  0  0
   20.3011  -19.4232    8.1841 C   0  0  1  0  0  0  0  0  0  0  0  0
   20.2880  -18.3137    9.1824 C   0  0  0  0  0  0  0  0  0  0  0  0
   21.4766  -18.1698   10.0234 C   0  0  0  0  0  0  0  0  0  0  0  0
   22.7998  -18.3852    9.7525 C   0  0  0  0  0  0  0  0  0  0  0  0
   23.5512  -18.0754   10.8551 N   0  0  0  0  0  0  0  0  0  0  0  0
   22.6846  -17.6783   11.7742 C   0  0  0  0  0  0  0  0  0  0  0  0
   21.4375  -17.7216   11.3130 N   0  0  0  0  0  0  0  0  0  0  0  0
   20.8273  -20.6593    8.7905 C   0  0  0  0  0  0  0  0  0  0  0  0
   22.1304  -21.0372    8.9126 O   0  0  0  0  0  0  0  0  0  0  0  0
   19.9547  -21.4708    9.2556 O   0  0  0  0  0  0  0  0  0  0  0  0
  2  1  1  1
  3  2  1  0
  4  3  1  0
  4  5  2  0
  6  5  1  0
  7 12  2  0
  7  6  1  0
  8  7  1  0
  9  8  2  0
 10  9  1  0
 10 11  2  0
 11 12  1  0
 12  4  1  0
 13  2  1  0
 14 13  2  0
 15 13  1  0
 16 24  1  0
 16 15  1  0
 16 17  1  6
 18 17  1  0
 19 18  2  0
 20 19  1  0
 21 22  1  0
 21 20  2  0
 22 23  2  0
 23 18  1  0
 24 25  2  0
 26 27  1  0
 26 24  1  0
 27 28  1  1
 28 29  1  0
 29 30  2  0
 30 31  1  0
 32 31  1  0
 33 29  1  0
 33 32  2  0
 34 35  1  0
 34 27  1  0
 36 34  2  0
M  END
$$$$
