WFH.pdb
     RDKit          3D

 36 39  0  0  1  0  0  0  0  0999 V2000
   27.9349  -20.4278   -9.4871 N   0  0  0  0  0  0  0  0  0  0  0  0
   26.5398  -20.6194   -9.2989 C   0  0  1  0  0  0  0  0  0  0  0  0
   25.9224  -19.9232   -8.1362 C   0  0  0  0  0  0  0  0  0  0  0  0
   26.9888  -19.3952   -7.2567 C   0  0  0  0  0  0  0  0  0  0  0  0
   27.6256  -18.1705   -7.3783 C   0  0  0  0  0  0  0  0  0  0  0  0
   28.5188  -18.0130   -6.3933 N   0  0  0  0  0  0  0  0  0  0  0  0
   28.4680  -19.1263   -5.6322 C   0  0  0  0  0  0  0  0  0  0  0  0
   29.1720  -19.4754   -4.5151 C   0  0  0  0  0  0  0  0  0  0  0  0
   28.9694  -20.6830   -3.8830 C   0  0  0  0  0  0  0  0  0  0  0  0
   28.0395  -21.5431   -4.3956 C   0  0  0  0  0  0  0  0  0  0  0  0
   27.3136  -21.2023   -5.5331 C   0  0  0  0  0  0  0  0  0  0  0  0
   27.5243  -19.9993   -6.1505 C   0  0  0  0  0  0  0  0  0  0  0  0
   25.8196  -20.3137  -10.5833 C   0  0  0  0  0  0  0  0  0  0  0  0
   25.8388  -19.1310  -11.0426 O   0  0  0  0  0  0  0  0  0  0  0  0
   25.1136  -21.2763  -11.3193 N   0  0  0  0  0  0  0  0  0  0  0  0
   24.7357  -21.0271  -12.7393 C   0  0  1  0  0  0  0  0  0  0  0  0
   25.6343  -21.9107  -13.5247 C   0  0  0  0  0  0  0  0  0  0  0  0
   26.9332  -21.3884  -13.9213 C   0  0  0  0  0  0  0  0  0  0  0  0
   28.1010  -21.7974  -13.3267 C   0  0  0  0  0  0  0  0  0  0  0  0
   29.3412  -21.2928  -13.7101 C   0  0  0  0  0  0  0  0  0  0  0  0
   29.4139  -20.3520  -14.7175 C   0  0  0  0  0  0  0  0  0  0  0  0
   28.2396  -19.9434  -15.3127 C   0  0  0  0  0  0  0  0  0  0  0  0
   27.0062  -20.4406  -14.9364 C   0  0  0  0  0  0  0  0  0  0  0  0
   23.3199  -21.3980  -12.8628 C   0  0  0  0  0  0  0  0  0  0  0  0
   22.8786  -22.4496  -12.2795 O   0  0  0  0  0  0  0  0  0  0  0  0
   22.3287  -20.6652  -13.6000 N   0  0  0  0  0  0  0  0  0  0  0  0
   20.9937  -21.1713  -13.7493 C   0  0  1  0  0  0  0  0  0  0  0  0
   20.0303  -20.0849  -14.0946 C   0  0  0  0  0  0  0  0  0  0  0  0
   19.9593  -18.9498  -13.1741 C   0  0  0  0  0  0  0  0  0  0  0  0
   20.9290  -18.0969  -12.7237 C   0  0  0  0  0  0  0  0  0  0  0  0
   20.3689  -17.1598  -11.8963 N   0  0  0  0  0  0  0  0  0  0  0  0
   19.0777  -17.4507  -11.8543 C   0  0  0  0  0  0  0  0  0  0  0  0
   18.7972  -18.5127  -12.6050 N   0  0  0  0  0  0  0  0  0  0  0  0
   20.8535  -22.3037  -14.6823 C   0  0  0  0  0  0  0  0  0  0  0  0
   19.8660  -23.2416  -14.7105 O   0  0  0  0  0  0  0  0  0  0  0  0
   21.7690  -22.4161  -15.5686 O   0  0  0  0  0  0  0  0  0  0  0  0
  2  1  1  6
  3  2  1  0
  4  3  1  0
  4  5  2  0
  6  5  1  0
  7 12  2  0
  7  6  1  0
  8  7  1  0
  9  8  2  0
 10  9  1  0
 10 11  2  0
 11 12  1  0
 12  4  1  0
 13  2  1  0
 14 13  2  0
 15 13  1  0
 16 24  1  0
 16 15  1  0
 16 17  1  6
 18 17  1  0
 19 18  2  0
 20 19  1  0
 21 22  1  0
 21 20  2  0
 22 23  2  0
 23 18  1  0
 24 25  2  0
 26 27  1  0
 26 24  1  0
 27 28  1  6
 28 29  1  0
 29 30  2  0
 30 31  1  0
 32 31  1  0
 33 29  1  0
 33 32  2  0
 34 35  1  0
 34 27  1  0
 36 34  2  0
M  END
$$$$
