WFH.pdb
     RDKit          3D

 36 39  0  0  1  0  0  0  0  0999 V2000
   27.5153  -22.3091  -15.5665 N   0  0  0  0  0  0  0  0  0  0  0  0
   26.1605  -22.0052  -15.8681 C   0  0  1  0  0  0  0  0  0  0  0  0
   25.5178  -22.8174  -16.9381 C   0  0  0  0  0  0  0  0  0  0  0  0
   26.1520  -22.5074  -18.2385 C   0  0  0  0  0  0  0  0  0  0  0  0
   27.0157  -23.3251  -18.9495 C   0  0  0  0  0  0  0  0  0  0  0  0
   27.3742  -22.7343  -20.0963 N   0  0  0  0  0  0  0  0  0  0  0  0
   26.7506  -21.5382  -20.1363 C   0  0  0  0  0  0  0  0  0  0  0  0
   26.7788  -20.5490  -21.0777 C   0  0  0  0  0  0  0  0  0  0  0  0
   26.0626  -19.3825  -20.9199 C   0  0  0  0  0  0  0  0  0  0  0  0
   25.3100  -19.2232  -19.7905 C   0  0  0  0  0  0  0  0  0  0  0  0
   25.2702  -20.2217  -18.8218 C   0  0  0  0  0  0  0  0  0  0  0  0
   25.9859  -21.3758  -18.9916 C   0  0  0  0  0  0  0  0  0  0  0  0
   25.3560  -22.0129  -14.5975 C   0  0  0  0  0  0  0  0  0  0  0  0
   25.0746  -23.1197  -14.0445 O   0  0  0  0  0  0  0  0  0  0  0  0
   24.8883  -20.8470  -13.9741 N   0  0  0  0  0  0  0  0  0  0  0  0
   24.1155  -20.9179  -12.7017 C   0  0  1  0  0  0  0  0  0  0  0  0
   24.7650  -19.9194  -11.8150 C   0  0  0  0  0  0  0  0  0  0  0  0
   25.8359  -20.3735  -10.9408 C   0  0  0  0  0  0  0  0  0  0  0  0
   27.0573  -20.7728  -11.4236 C   0  0  0  0  0  0  0  0  0  0  0  0
   28.0781  -21.2076  -10.5817 C   0  0  0  0  0  0  0  0  0  0  0  0
   27.8695  -21.2435   -9.2177 C   0  0  0  0  0  0  0  0  0  0  0  0
   26.6420  -20.8419   -8.7360 C   0  0  0  0  0  0  0  0  0  0  0  0
   25.6256  -20.4096   -9.5665 C   0  0  0  0  0  0  0  0  0  0  0  0
   22.7296  -20.5666  -13.0381 C   0  0  0  0  0  0  0  0  0  0  0  0
   22.4877  -19.5604  -13.7931 O   0  0  0  0  0  0  0  0  0  0  0  0
   21.5604  -21.2717  -12.5925 N   0  0  0  0  0  0  0  0  0  0  0  0
   20.2446  -20.8223  -12.9493 C   0  0  1  0  0  0  0  0  0  0  0  0
   19.4030  -21.9421  -13.4645 C   0  0  0  0  0  0  0  0  0  0  0  0
   19.8600  -22.6010  -14.6884 C   0  0  0  0  0  0  0  0  0  0  0  0
   20.4133  -22.0904  -15.8302 C   0  0  0  0  0  0  0  0  0  0  0  0
   20.7148  -23.1119  -16.6916 N   0  0  0  0  0  0  0  0  0  0  0  0
   20.3458  -24.2208  -16.0691 C   0  0  0  0  0  0  0  0  0  0  0  0
   19.8316  -23.9542  -14.8714 N   0  0  0  0  0  0  0  0  0  0  0  0
   19.5294  -20.0789  -11.8965 C   0  0  0  0  0  0  0  0  0  0  0  0
   18.3039  -19.4900  -11.9797 O   0  0  0  0  0  0  0  0  0  0  0  0
   20.1338  -19.9763  -10.7739 O   0  0  0  0  0  0  0  0  0  0  0  0
  2  1  1  1
  3  2  1  0
  4  3  1  0
  4  5  2  0
  6  5  1  0
  7 12  2  0
  7  6  1  0
  8  7  1  0
  9  8  2  0
 10  9  1  0
 10 11  2  0
 11 12  1  0
 12  4  1  0
 13  2  1  0
 14 13  2  0
 15 13  1  0
 16 24  1  0
 16 15  1  0
 16 17  1  1
 18 17  1  0
 19 18  2  0
 20 19  1  0
 21 22  1  0
 21 20  2  0
 22 23  2  0
 23 18  1  0
 24 25  2  0
 26 27  1  0
 26 24  1  0
 27 28  1  1
 28 29  1  0
 29 30  2  0
 30 31  1  0
 32 31  1  0
 33 29  1  0
 33 32  2  0
 34 35  1  0
 34 27  1  0
 36 34  2  0
M  END
$$$$
