WFH.pdb
     RDKit          3D

 36 39  0  0  1  0  0  0  0  0999 V2000
   23.5064  -16.0958  -17.6825 N   0  0  0  0  0  0  0  0  0  0  0  0
   23.9803  -16.6174  -16.4488 C   0  0  1  0  0  0  0  0  0  0  0  0
   23.5982  -15.8701  -15.2186 C   0  0  0  0  0  0  0  0  0  0  0  0
   24.2173  -14.5265  -15.2476 C   0  0  0  0  0  0  0  0  0  0  0  0
   23.5598  -13.3136  -15.1186 C   0  0  0  0  0  0  0  0  0  0  0  0
   24.4374  -12.3035  -15.1657 N   0  0  0  0  0  0  0  0  0  0  0  0
   25.6609  -12.8503  -15.3249 C   0  0  0  0  0  0  0  0  0  0  0  0
   26.8907  -12.2666  -15.4362 C   0  0  0  0  0  0  0  0  0  0  0  0
   28.0334  -13.0184  -15.6030 C   0  0  0  0  0  0  0  0  0  0  0  0
   27.9206  -14.3792  -15.6570 C   0  0  0  0  0  0  0  0  0  0  0  0
   26.6748  -14.9895  -15.5450 C   0  0  0  0  0  0  0  0  0  0  0  0
   25.5480  -14.2308  -15.3788 C   0  0  0  0  0  0  0  0  0  0  0  0
   23.6197  -18.0744  -16.3553 C   0  0  0  0  0  0  0  0  0  0  0  0
   22.6619  -18.5258  -17.0544 O   0  0  0  0  0  0  0  0  0  0  0  0
   24.2918  -18.9832  -15.5251 N   0  0  0  0  0  0  0  0  0  0  0  0
   23.9279  -20.4285  -15.5214 C   0  0  1  0  0  0  0  0  0  0  0  0
   25.1571  -21.1211  -15.0584 C   0  0  0  0  0  0  0  0  0  0  0  0
   25.1078  -22.5657  -14.8913 C   0  0  0  0  0  0  0  0  0  0  0  0
   25.4168  -23.4329  -15.9097 C   0  0  0  0  0  0  0  0  0  0  0  0
   25.3665  -24.8148  -15.7438 C   0  0  0  0  0  0  0  0  0  0  0  0
   24.9963  -25.3431  -14.5235 C   0  0  0  0  0  0  0  0  0  0  0  0
   24.6867  -24.4698  -13.5029 C   0  0  0  0  0  0  0  0  0  0  0  0
   24.7348  -23.0978  -13.6617 C   0  0  0  0  0  0  0  0  0  0  0  0
   22.8054  -20.5710  -14.5850 C   0  0  0  0  0  0  0  0  0  0  0  0
   22.6469  -19.7221  -13.6388 O   0  0  0  0  0  0  0  0  0  0  0  0
   21.8145  -21.6101  -14.6252 N   0  0  0  0  0  0  0  0  0  0  0  0
   20.7142  -21.6191  -13.7033 C   0  0  1  0  0  0  0  0  0  0  0  0
   19.7255  -20.5463  -14.0183 C   0  0  0  0  0  0  0  0  0  0  0  0
   19.8354  -19.3036  -13.2536 C   0  0  0  0  0  0  0  0  0  0  0  0
   20.7599  -18.8948  -12.3324 C   0  0  0  0  0  0  0  0  0  0  0  0
   20.4617  -17.6251  -11.9140 N   0  0  0  0  0  0  0  0  0  0  0  0
   19.3704  -17.2797  -12.5798 C   0  0  0  0  0  0  0  0  0  0  0  0
   18.9686  -18.2568  -13.3884 N   0  0  0  0  0  0  0  0  0  0  0  0
   20.0365  -22.9189  -13.5492 C   0  0  0  0  0  0  0  0  0  0  0  0
   19.5396  -23.4680  -12.4058 O   0  0  0  0  0  0  0  0  0  0  0  0
   19.9009  -23.6102  -14.6168 O   0  0  0  0  0  0  0  0  0  0  0  0
  2  1  1  6
  3  2  1  0
  4  3  1  0
  4  5  2  0
  6  5  1  0
  7 12  2  0
  7  6  1  0
  8  7  1  0
  9  8  2  0
 10  9  1  0
 10 11  2  0
 11 12  1  0
 12  4  1  0
 13  2  1  0
 14 13  2  0
 15 13  1  0
 16 24  1  0
 16 15  1  0
 16 17  1  1
 18 17  1  0
 19 18  2  0
 20 19  1  0
 21 22  1  0
 21 20  2  0
 22 23  2  0
 23 18  1  0
 24 25  2  0
 26 27  1  0
 26 24  1  0
 27 28  1  6
 28 29  1  0
 29 30  2  0
 30 31  1  0
 32 31  1  0
 33 29  1  0
 33 32  2  0
 34 35  1  0
 34 27  1  0
 36 34  2  0
M  END
$$$$
