WFH.pdb
     RDKit          3D

 36 39  0  0  1  0  0  0  0  0999 V2000
   28.1677  -20.8508  -18.2866 N   0  0  0  0  0  0  0  0  0  0  0  0
   27.3890  -19.8230  -17.6901 C   0  0  1  0  0  0  0  0  0  0  0  0
   26.3581  -19.1822  -18.5529 C   0  0  0  0  0  0  0  0  0  0  0  0
   26.8340  -17.8474  -18.9786 C   0  0  0  0  0  0  0  0  0  0  0  0
   27.8708  -17.5849  -19.8597 C   0  0  0  0  0  0  0  0  0  0  0  0
   28.0077  -16.2645  -20.0338 N   0  0  0  0  0  0  0  0  0  0  0  0
   27.0681  -15.6660  -19.2721 C   0  0  0  0  0  0  0  0  0  0  0  0
   26.7819  -14.3438  -19.0843 C   0  0  0  0  0  0  0  0  0  0  0  0
   25.7686  -13.9375  -18.2435 C   0  0  0  0  0  0  0  0  0  0  0  0
   25.0398  -14.8894  -17.5877 C   0  0  0  0  0  0  0  0  0  0  0  0
   25.3185  -16.2410  -17.7684 C   0  0  0  0  0  0  0  0  0  0  0  0
   26.3273  -16.6306  -18.6071 C   0  0  0  0  0  0  0  0  0  0  0  0
   26.8055  -20.3287  -16.3995 C   0  0  0  0  0  0  0  0  0  0  0  0
   26.4173  -21.5341  -16.3209 O   0  0  0  0  0  0  0  0  0  0  0  0
   26.6615  -19.5323  -15.2542 N   0  0  0  0  0  0  0  0  0  0  0  0
   25.9777  -20.0579  -14.0387 C   0  0  1  0  0  0  0  0  0  0  0  0
   26.8905  -19.7133  -12.9193 C   0  0  0  0  0  0  0  0  0  0  0  0
   26.4740  -20.0518  -11.5668 C   0  0  0  0  0  0  0  0  0  0  0  0
   26.6854  -21.2946  -11.0235 C   0  0  0  0  0  0  0  0  0  0  0  0
   26.2833  -21.6127   -9.7286 C   0  0  0  0  0  0  0  0  0  0  0  0
   25.6516  -20.6592   -8.9560 C   0  0  0  0  0  0  0  0  0  0  0  0
   25.4407  -19.4122   -9.5043 C   0  0  0  0  0  0  0  0  0  0  0  0
   25.8375  -19.0909  -10.7885 C   0  0  0  0  0  0  0  0  0  0  0  0
   24.6862  -19.3634  -13.9565 C   0  0  0  0  0  0  0  0  0  0  0  0
   24.5643  -18.3190  -13.2249 O   0  0  0  0  0  0  0  0  0  0  0  0
   23.4885  -19.7481  -14.6498 N   0  0  0  0  0  0  0  0  0  0  0  0
   22.4707  -20.5205  -13.9955 C   0  0  1  0  0  0  0  0  0  0  0  0
   22.6550  -21.9828  -14.2311 C   0  0  0  0  0  0  0  0  0  0  0  0
   22.8636  -22.4061  -15.6161 C   0  0  0  0  0  0  0  0  0  0  0  0
   22.9139  -21.6855  -16.7774 C   0  0  0  0  0  0  0  0  0  0  0  0
   23.1718  -22.5251  -17.8286 N   0  0  0  0  0  0  0  0  0  0  0  0
   23.2751  -23.7344  -17.2992 C   0  0  0  0  0  0  0  0  0  0  0  0
   23.0970  -23.7014  -15.9811 N   0  0  0  0  0  0  0  0  0  0  0  0
   22.3021  -20.2448  -12.5575 C   0  0  0  0  0  0  0  0  0  0  0  0
   21.9155  -19.0763  -11.9738 O   0  0  0  0  0  0  0  0  0  0  0  0
   22.5490  -21.2199  -11.7673 O   0  0  0  0  0  0  0  0  0  0  0  0
  2  1  1  6
  3  2  1  0
  4  3  1  0
  4  5  2  0
  6  5  1  0
  7 12  2  0
  7  6  1  0
  8  7  1  0
  9  8  2  0
 10  9  1  0
 10 11  2  0
 11 12  1  0
 12  4  1  0
 13  2  1  0
 14 13  2  0
 15 13  1  0
 16 24  1  0
 16 15  1  0
 16 17  1  1
 18 17  1  0
 19 18  2  0
 20 19  1  0
 21 22  1  0
 21 20  2  0
 22 23  2  0
 23 18  1  0
 24 25  2  0
 26 27  1  0
 26 24  1  0
 27 28  1  1
 28 29  1  0
 29 30  2  0
 30 31  1  0
 32 31  1  0
 33 29  1  0
 33 32  2  0
 34 35  1  0
 34 27  1  0
 36 34  2  0
M  END
$$$$
