NHI.pdb
     RDKit          3D

 27 27  0  0  1  0  0  0  0  0999 V2000
   20.5697  -19.3672  -18.3565 N   0  0  0  0  0  0  0  0  0  0  0  0
   20.9235  -20.6834  -17.9721 C   0  0  0  0  0  0  0  0  0  0  0  0
   20.1665  -21.6199  -18.3673 O   0  0  0  0  0  0  0  0  0  0  0  0
   22.0838  -21.0585  -17.1604 C   0  0  0  0  0  0  0  0  0  0  0  0
   22.8739  -19.8834  -16.6690 C   0  0  2  0  0  0  0  0  0  0  0  0
   23.5290  -19.1380  -17.6864 N   0  0  0  0  0  0  0  0  0  0  0  0
   23.9095  -20.4117  -15.7067 C   0  0  0  0  0  0  0  0  0  0  0  0
   23.5267  -21.2727  -14.8488 O   0  0  0  0  0  0  0  0  0  0  0  0
   25.2177  -19.9225  -15.8197 N   0  0  0  0  0  0  0  0  0  0  0  0
   26.3289  -20.2377  -14.9823 C   0  0  1  0  0  0  0  0  0  0  0  0
   27.6888  -19.8316  -15.5157 C   0  0  0  0  0  0  0  0  0  0  0  0
   28.1173  -20.6650  -16.6631 C   0  0  0  0  0  0  0  0  0  0  0  0
   27.5064  -21.7673  -17.1750 C   0  0  0  0  0  0  0  0  0  0  0  0
   28.2135  -22.2376  -18.2223 N   0  0  0  0  0  0  0  0  0  0  0  0
   29.2670  -21.4210  -18.3579 C   0  0  0  0  0  0  0  0  0  0  0  0
   29.2180  -20.4551  -17.4091 N   0  0  0  0  0  0  0  0  0  0  0  0
   26.0744  -19.8944  -13.5930 C   0  0  0  0  0  0  0  0  0  0  0  0
   26.0171  -18.6793  -13.2025 O   0  0  0  0  0  0  0  0  0  0  0  0
   21.9520  -20.5546  -10.8476 C   0  0  0  0  0  0  0  0  0  0  0  0
   23.3218  -20.1515  -11.3128 C   0  0  0  0  0  0  0  0  0  0  0  0
   24.4436  -20.8365  -10.5649 C   0  0  2  0  0  0  0  0  0  0  0  0
   24.3051  -20.4698   -9.1213 C   0  0  0  0  0  0  0  0  0  0  0  0
   25.7936  -20.5007  -11.1485 C   0  0  2  0  0  0  0  0  0  0  0  0
   25.8686  -20.8600  -12.5544 N   0  0  0  0  0  0  0  0  0  0  0  0
   26.9095  -21.0636  -10.3690 C   0  0  0  0  0  0  0  0  0  0  0  0
   27.6269  -22.0153  -10.7468 O   0  0  0  0  0  0  0  0  0  0  0  0
   27.2335  -20.5305   -9.1056 O   0  0  0  0  0  0  0  0  0  0  0  0
  1  2  1  0
  2  3  2  0
  4  2  1  0
  5  4  1  0
  5  6  1  6
  7  5  1  0
  7  8  2  0
  9  7  1  0
 10 11  1  6
 10  9  1  0
 12 13  2  0
 12 11  1  0
 14 13  1  0
 15 16  2  0
 15 14  1  0
 16 12  1  0
 17 10  1  0
 18 17  2  0
 20 19  1  0
 21 23  1  0
 21 20  1  0
 21 22  1  1
 23 24  1  6
 24 17  1  0
 25 27  1  0
 25 23  1  0
 26 25  2  0
M  END
$$$$
