NHI.pdb
     RDKit          3D

 27 27  0  0  1  0  0  0  0  0999 V2000
   26.0022  -19.4493  -18.7243 N   0  0  0  0  0  0  0  0  0  0  0  0
   25.0394  -18.5289  -18.2435 C   0  0  0  0  0  0  0  0  0  0  0  0
   24.1627  -18.1318  -19.0682 O   0  0  0  0  0  0  0  0  0  0  0  0
   24.9660  -17.9959  -16.8809 C   0  0  0  0  0  0  0  0  0  0  0  0
   25.5922  -18.8913  -15.8549 C   0  0  2  0  0  0  0  0  0  0  0  0
   25.7475  -20.2448  -16.2598 N   0  0  0  0  0  0  0  0  0  0  0  0
   24.7158  -18.8461  -14.6271 C   0  0  0  0  0  0  0  0  0  0  0  0
   24.2977  -17.7036  -14.2476 O   0  0  0  0  0  0  0  0  0  0  0  0
   24.4211  -20.0579  -13.9885 N   0  0  0  0  0  0  0  0  0  0  0  0
   23.5866  -20.2476  -12.8470 C   0  0  1  0  0  0  0  0  0  0  0  0
   22.2703  -20.9539  -13.1062 C   0  0  0  0  0  0  0  0  0  0  0  0
   21.2916  -20.0867  -13.8027 C   0  0  0  0  0  0  0  0  0  0  0  0
   21.4003  -18.7623  -14.0928 C   0  0  0  0  0  0  0  0  0  0  0  0
   20.2928  -18.3425  -14.7374 N   0  0  0  0  0  0  0  0  0  0  0  0
   19.4958  -19.4140  -14.8458 C   0  0  0  0  0  0  0  0  0  0  0  0
   20.0971  -20.4867  -14.2773 N   0  0  0  0  0  0  0  0  0  0  0  0
   24.3390  -20.7289  -11.7003 C   0  0  0  0  0  0  0  0  0  0  0  0
   25.1484  -21.7128  -11.7947 O   0  0  0  0  0  0  0  0  0  0  0  0
   27.3545  -18.3332   -8.0869 C   0  0  0  0  0  0  0  0  0  0  0  0
   26.6761  -19.3939   -8.9053 C   0  0  0  0  0  0  0  0  0  0  0  0
   25.4334  -19.9606   -8.2559 C   0  0  2  0  0  0  0  0  0  0  0  0
   25.8593  -20.6272   -6.9863 C   0  0  0  0  0  0  0  0  0  0  0  0
   24.6757  -20.8686   -9.1924 C   0  0  2  0  0  0  0  0  0  0  0  0
   24.2482  -20.1614  -10.3876 N   0  0  0  0  0  0  0  0  0  0  0  0
   23.5620  -21.5705   -8.5317 C   0  0  0  0  0  0  0  0  0  0  0  0
   22.3635  -21.2219   -8.6046 O   0  0  0  0  0  0  0  0  0  0  0  0
   23.8082  -22.7187   -7.7529 O   0  0  0  0  0  0  0  0  0  0  0  0
  1  2  1  0
  2  3  2  0
  4  2  1  0
  5  4  1  0
  5  6  1  6
  7  5  1  0
  7  8  2  0
  9  7  1  0
 10 11  1  6
 10  9  1  0
 12 13  2  0
 12 11  1  0
 14 13  1  0
 15 16  2  0
 15 14  1  0
 16 12  1  0
 17 10  1  0
 18 17  2  0
 20 19  1  0
 21 23  1  0
 21 20  1  0
 21 22  1  1
 23 24  1  6
 24 17  1  0
 25 27  1  0
 25 23  1  0
 26 25  2  0
M  END
$$$$
