NHI.pdb
     RDKit          3D

 27 27  0  0  1  0  0  0  0  0999 V2000
   29.4751  -18.5461  -17.3691 N   0  0  0  0  0  0  0  0  0  0  0  0
   28.1017  -18.6929  -17.0569 C   0  0  0  0  0  0  0  0  0  0  0  0
   27.3189  -18.9540  -18.0189 O   0  0  0  0  0  0  0  0  0  0  0  0
   27.5059  -18.5704  -15.7242 C   0  0  0  0  0  0  0  0  0  0  0  0
   27.6776  -19.7959  -14.8784 C   0  0  2  0  0  0  0  0  0  0  0  0
   27.1946  -20.9973  -15.4643 N   0  0  0  0  0  0  0  0  0  0  0  0
   26.9406  -19.5528  -13.5841 C   0  0  0  0  0  0  0  0  0  0  0  0
   26.9696  -18.3718  -13.1063 O   0  0  0  0  0  0  0  0  0  0  0  0
   26.2761  -20.6372  -12.9959 N   0  0  0  0  0  0  0  0  0  0  0  0
   25.5146  -20.6272  -11.7894 C   0  0  1  0  0  0  0  0  0  0  0  0
   24.1484  -21.2795  -11.8702 C   0  0  0  0  0  0  0  0  0  0  0  0
   23.2825  -20.6519  -12.8954 C   0  0  0  0  0  0  0  0  0  0  0  0
   23.5298  -19.5379  -13.6358 C   0  0  0  0  0  0  0  0  0  0  0  0
   22.4903  -19.2961  -14.4600 N   0  0  0  0  0  0  0  0  0  0  0  0
   21.5962  -20.2665  -14.2272 C   0  0  0  0  0  0  0  0  0  0  0  0
   22.0708  -21.1015  -13.2717 N   0  0  0  0  0  0  0  0  0  0  0  0
   26.3191  -21.0018  -10.6383 C   0  0  0  0  0  0  0  0  0  0  0  0
   26.9327  -22.1212  -10.5850 O   0  0  0  0  0  0  0  0  0  0  0  0
   29.2682  -18.6003   -6.6145 C   0  0  0  0  0  0  0  0  0  0  0  0
   28.5552  -19.5772   -7.5046 C   0  0  0  0  0  0  0  0  0  0  0  0
   27.1003  -19.7782   -7.1438 C   0  0  2  0  0  0  0  0  0  0  0  0
   27.0560  -20.2725   -5.7325 C   0  0  0  0  0  0  0  0  0  0  0  0
   26.3992  -20.6841   -8.1253 C   0  0  2  0  0  0  0  0  0  0  0  0
   26.4973  -20.1739   -9.4823 N   0  0  0  0  0  0  0  0  0  0  0  0
   25.0084  -20.9779   -7.7394 C   0  0  0  0  0  0  0  0  0  0  0  0
   24.0071  -20.3857   -8.1976 O   0  0  0  0  0  0  0  0  0  0  0  0
   24.7312  -21.9853   -6.7941 O   0  0  0  0  0  0  0  0  0  0  0  0
  1  2  1  0
  2  3  2  0
  4  2  1  0
  5  4  1  0
  5  6  1  6
  7  5  1  0
  7  8  2  0
  9  7  1  0
 10 11  1  6
 10  9  1  0
 12 13  2  0
 12 11  1  0
 14 13  1  0
 15 16  2  0
 15 14  1  0
 16 12  1  0
 17 10  1  0
 18 17  2  0
 20 19  1  0
 21 23  1  0
 21 20  1  0
 21 22  1  1
 23 24  1  6
 24 17  1  0
 25 27  1  0
 25 23  1  0
 26 25  2  0
M  END
$$$$
