NHI.pdb
     RDKit          3D

 27 27  0  0  1  0  0  0  0  0999 V2000
   11.4895  -15.2289    5.2154 N   0  0  0  0  0  0  0  0  0  0  0  0
   12.4834  -15.7624    4.3592 C   0  0  0  0  0  0  0  0  0  0  0  0
   12.5816  -15.2497    3.2043 O   0  0  0  0  0  0  0  0  0  0  0  0
   13.4062  -16.8514    4.6883 C   0  0  0  0  0  0  0  0  0  0  0  0
   13.7761  -17.6980    3.5080 C   0  0  2  0  0  0  0  0  0  0  0  0
   12.6986  -18.4275    2.9363 N   0  0  0  0  0  0  0  0  0  0  0  0
   14.8343  -18.6703    3.9689 C   0  0  0  0  0  0  0  0  0  0  0  0
   14.5565  -19.4067    4.9712 O   0  0  0  0  0  0  0  0  0  0  0  0
   16.0469  -18.6989    3.2674 N   0  0  0  0  0  0  0  0  0  0  0  0
   17.1828  -19.5155    3.5469 C   0  0  1  0  0  0  0  0  0  0  0  0
   17.8733  -20.1154    2.3377 C   0  0  0  0  0  0  0  0  0  0  0  0
   16.9989  -21.0529    1.5953 C   0  0  0  0  0  0  0  0  0  0  0  0
   15.8851  -21.6941    2.0410 C   0  0  0  0  0  0  0  0  0  0  0  0
   15.3729  -22.4598    1.0562 N   0  0  0  0  0  0  0  0  0  0  0  0
   16.1750  -22.2902   -0.0035 C   0  0  0  0  0  0  0  0  0  0  0  0
   17.1731  -21.4313    0.3153 N   0  0  0  0  0  0  0  0  0  0  0  0
   18.0621  -18.9025    4.5286 C   0  0  0  0  0  0  0  0  0  0  0  0
   18.6032  -17.7632    4.3250 O   0  0  0  0  0  0  0  0  0  0  0  0
   16.9436  -17.1228    9.0908 C   0  0  0  0  0  0  0  0  0  0  0  0
   17.6540  -17.4920    7.8203 C   0  0  0  0  0  0  0  0  0  0  0  0
   18.7352  -18.5325    8.0088 C   0  0  2  0  0  0  0  0  0  0  0  0
   19.7057  -17.9895    9.0095 C   0  0  0  0  0  0  0  0  0  0  0  0
   19.3715  -18.9237    6.6982 C   0  0  2  0  0  0  0  0  0  0  0  0
   18.3981  -19.5007    5.7867 N   0  0  0  0  0  0  0  0  0  0  0  0
   20.5528  -19.7863    6.8712 C   0  0  0  0  0  0  0  0  0  0  0  0
   21.7136  -19.3651    7.0668 O   0  0  0  0  0  0  0  0  0  0  0  0
   20.4219  -21.1884    6.8222 O   0  0  0  0  0  0  0  0  0  0  0  0
  1  2  1  0
  2  3  2  0
  4  2  1  0
  5  4  1  0
  5  6  1  1
  7  5  1  0
  7  8  2  0
  9  7  1  0
 10 11  1  6
 10  9  1  0
 12 13  2  0
 12 11  1  0
 14 13  1  0
 15 16  2  0
 15 14  1  0
 16 12  1  0
 17 10  1  0
 18 17  2  0
 20 19  1  0
 21 23  1  0
 21 20  1  0
 21 22  1  1
 23 24  1  6
 24 17  1  0
 25 27  1  0
 25 23  1  0
 26 25  2  0
M  END
$$$$
