NHI.pdb
     RDKit          3D

 27 27  0  0  1  0  0  0  0  0999 V2000
   20.7825  -22.0774  -11.4813 N   0  0  0  0  0  0  0  0  0  0  0  0
   21.0112  -20.6799  -11.4793 C   0  0  0  0  0  0  0  0  0  0  0  0
   19.9964  -19.9319  -11.6094 O   0  0  0  0  0  0  0  0  0  0  0  0
   22.3131  -20.0227  -11.3405 C   0  0  0  0  0  0  0  0  0  0  0  0
   23.4473  -20.9814  -11.1378 C   0  0  2  0  0  0  0  0  0  0  0  0
   23.6578  -21.3796   -9.7898 N   0  0  0  0  0  0  0  0  0  0  0  0
   24.6979  -20.3094  -11.6496 C   0  0  0  0  0  0  0  0  0  0  0  0
   25.1409  -19.3144  -10.9879 O   0  0  0  0  0  0  0  0  0  0  0  0
   25.2866  -20.8216  -12.8134 N   0  0  0  0  0  0  0  0  0  0  0  0
   26.4910  -20.3767  -13.4352 C   0  0  1  0  0  0  0  0  0  0  0  0
   27.6302  -21.3771  -13.4504 C   0  0  0  0  0  0  0  0  0  0  0  0
   28.6224  -21.1195  -12.3807 C   0  0  0  0  0  0  0  0  0  0  0  0
   28.6509  -20.0902  -11.4919 C   0  0  0  0  0  0  0  0  0  0  0  0
   29.7186  -20.2176  -10.6782 N   0  0  0  0  0  0  0  0  0  0  0  0
   30.3528  -21.3320  -11.0669 C   0  0  0  0  0  0  0  0  0  0  0  0
   29.6905  -21.8918  -12.1078 N   0  0  0  0  0  0  0  0  0  0  0  0
   26.2323  -19.7049  -14.6979 C   0  0  0  0  0  0  0  0  0  0  0  0
   25.4197  -20.1855  -15.5587 O   0  0  0  0  0  0  0  0  0  0  0  0
   26.8250  -14.2610  -14.9400 C   0  0  0  0  0  0  0  0  0  0  0  0
   26.2011  -15.5823  -15.2865 C   0  0  0  0  0  0  0  0  0  0  0  0
   26.9713  -16.3638  -16.3273 C   0  0  2  0  0  0  0  0  0  0  0  0
   26.7873  -15.6632  -17.6361 C   0  0  0  0  0  0  0  0  0  0  0  0
   26.5626  -17.8156  -16.3543 C   0  0  2  0  0  0  0  0  0  0  0  0
   26.8472  -18.4711  -15.0892 N   0  0  0  0  0  0  0  0  0  0  0  0
   27.1278  -18.5474  -17.5009 C   0  0  0  0  0  0  0  0  0  0  0  0
   26.5381  -18.7208  -18.5896 O   0  0  0  0  0  0  0  0  0  0  0  0
   28.4170  -19.1101  -17.4187 O   0  0  0  0  0  0  0  0  0  0  0  0
  1  2  1  0
  2  3  2  0
  4  2  1  0
  5  4  1  0
  5  6  1  1
  7  5  1  0
  7  8  2  0
  9  7  1  0
 10 11  1  6
 10  9  1  0
 12 13  2  0
 12 11  1  0
 14 13  1  0
 15 16  2  0
 15 14  1  0
 16 12  1  0
 17 10  1  0
 18 17  2  0
 20 19  1  0
 21 23  1  0
 21 20  1  0
 21 22  1  6
 23 24  1  1
 24 17  1  0
 25 27  1  0
 25 23  1  0
 26 25  2  0
M  END
$$$$
