NHI.pdb
     RDKit          3D

 27 27  0  0  1  0  0  0  0  0999 V2000
   26.3460  -22.2612  -10.7178 N   0  0  0  0  0  0  0  0  0  0  0  0
   26.6175  -21.0299  -11.3625 C   0  0  0  0  0  0  0  0  0  0  0  0
   27.5678  -20.3341  -10.8946 O   0  0  0  0  0  0  0  0  0  0  0  0
   25.8997  -20.4897  -12.5197 C   0  0  0  0  0  0  0  0  0  0  0  0
   24.8194  -21.3956  -13.0285 C   0  0  2  0  0  0  0  0  0  0  0  0
   25.2759  -22.6440  -13.5316 N   0  0  0  0  0  0  0  0  0  0  0  0
   24.0999  -20.6582  -14.1313 C   0  0  0  0  0  0  0  0  0  0  0  0
   24.6294  -20.6760  -15.2903 O   0  0  0  0  0  0  0  0  0  0  0  0
   22.9026  -20.0055  -13.8091 N   0  0  0  0  0  0  0  0  0  0  0  0
   22.1070  -19.1936  -14.6712 C   0  0  1  0  0  0  0  0  0  0  0  0
   20.6066  -19.3533  -14.5232 C   0  0  0  0  0  0  0  0  0  0  0  0
   20.1372  -20.6943  -14.9430 C   0  0  0  0  0  0  0  0  0  0  0  0
   20.8601  -21.6980  -15.5088 C   0  0  0  0  0  0  0  0  0  0  0  0
   20.0637  -22.7612  -15.7405 N   0  0  0  0  0  0  0  0  0  0  0  0
   18.8422  -22.4119  -15.3152 C   0  0  0  0  0  0  0  0  0  0  0  0
   18.8758  -21.1492  -14.8252 N   0  0  0  0  0  0  0  0  0  0  0  0
   22.5879  -17.8228  -14.7200 C   0  0  0  0  0  0  0  0  0  0  0  0
   22.4054  -17.0135  -13.7484 O   0  0  0  0  0  0  0  0  0  0  0  0
   27.4831  -16.7102  -16.1717 C   0  0  0  0  0  0  0  0  0  0  0  0
   26.0904  -16.6756  -15.6109 C   0  0  0  0  0  0  0  0  0  0  0  0
   25.1530  -15.7616  -16.3680 C   0  0  2  0  0  0  0  0  0  0  0  0
   25.7114  -14.3768  -16.2766 C   0  0  0  0  0  0  0  0  0  0  0  0
   23.7338  -15.8767  -15.8696 C   0  0  2  0  0  0  0  0  0  0  0  0
   23.2945  -17.2612  -15.8329 N   0  0  0  0  0  0  0  0  0  0  0  0
   22.7965  -15.0139  -16.6090 C   0  0  0  0  0  0  0  0  0  0  0  0
   22.4655  -13.8617  -16.2540 O   0  0  0  0  0  0  0  0  0  0  0  0
   22.2043  -15.4687  -17.8040 O   0  0  0  0  0  0  0  0  0  0  0  0
  1  2  1  0
  2  3  2  0
  4  2  1  0
  5  4  1  0
  5  6  1  6
  7  5  1  0
  7  8  2  0
  9  7  1  0
 10 11  1  1
 10  9  1  0
 12 13  2  0
 12 11  1  0
 14 13  1  0
 15 16  2  0
 15 14  1  0
 16 12  1  0
 17 10  1  0
 18 17  2  0
 20 19  1  0
 21 23  1  0
 21 20  1  0
 21 22  1  1
 23 24  1  6
 24 17  1  0
 25 27  1  0
 25 23  1  0
 26 25  2  0
M  END
$$$$
