LMA.pdb
     RDKit          3D

 22 21  0  0  1  0  0  0  0  0999 V2000
   24.0504  -35.1535  -15.2498 C   0  0  0  0  0  0  0  0  0  0  0  0
   24.9207  -34.0396  -15.7837 C   0  0  2  0  0  0  0  0  0  0  0  0
   26.3603  -34.4621  -15.9650 C   0  0  0  0  0  0  0  0  0  0  0  0
   24.7707  -32.7659  -14.9999 C   0  0  0  0  0  0  0  0  0  0  0  0
   23.3260  -32.3893  -14.7709 C   0  0  2  0  0  0  0  0  0  0  0  0
   22.9387  -31.2418  -15.5592 N   0  0  0  0  0  0  0  0  0  0  0  0
   23.1762  -32.0679  -13.3333 C   0  0  0  0  0  0  0  0  0  0  0  0
   23.7461  -31.0471  -12.8807 O   0  0  0  0  0  0  0  0  0  0  0  0
   18.0629  -33.1036  -10.0196 C   0  0  0  0  0  0  0  0  0  0  0  0
   19.0112  -32.6647   -8.5361 S   0  0  0  0  0  0  0  0  0  0  0  0
   20.7318  -32.3440   -9.0939 C   0  0  0  0  0  0  0  0  0  0  0  0
   20.9090  -32.7863  -10.5164 C   0  0  0  0  0  0  0  0  0  0  0  0
   22.2830  -32.4768  -11.0035 C   0  0  2  0  0  0  0  0  0  0  0  0
   22.4255  -32.8429  -12.4257 N   0  0  0  0  0  0  0  0  0  0  0  0
   23.4008  -32.9939  -10.2161 C   0  0  0  0  0  0  0  0  0  0  0  0
   23.8594  -34.1535  -10.3149 O   0  0  0  0  0  0  0  0  0  0  0  0
   25.8698  -31.4917   -7.8103 C   0  0  0  0  0  0  0  0  0  0  0  0
   25.1565  -32.6820   -8.4475 C   0  0  2  0  0  0  0  0  0  0  0  0
   24.0723  -32.1645   -9.2353 N   0  0  0  0  0  0  0  0  0  0  0  0
   24.7438  -33.6610   -7.4463 C   0  0  0  0  0  0  0  0  0  0  0  0
   23.5353  -33.7800   -7.1562 O   0  0  0  0  0  0  0  0  0  0  0  0
   25.6605  -34.4669   -6.8050 O   0  0  0  0  0  0  0  0  0  0  0  0
  2  1  1  1
  2  4  1  0
  2  3  1  0
  4  5  1  0
  5  7  1  0
  5  6  1  6
  7  8  2  0
  9 10  1  0
 10 11  1  0
 11 12  1  0
 13 12  1  1
 13 15  1  0
 14 13  1  0
 14  7  1  0
 15 19  1  0
 15 16  2  0
 18 17  1  1
 18 20  1  0
 19 18  1  0
 20 21  2  0
 20 22  1  0
M  END
$$$$
