LMA.pdb
     RDKit          3D

 22 21  0  0  1  0  0  0  0  0999 V2000
   28.4102  -17.3637  -15.3365 C   0  0  0  0  0  0  0  0  0  0  0  0
   27.8024  -18.2322  -16.4133 C   0  0  2  0  0  0  0  0  0  0  0  0
   27.2051  -17.4256  -17.5431 C   0  0  0  0  0  0  0  0  0  0  0  0
   26.8601  -19.2629  -15.8576 C   0  0  0  0  0  0  0  0  0  0  0  0
   27.4066  -19.9499  -14.6286 C   0  0  2  0  0  0  0  0  0  0  0  0
   28.4060  -20.9380  -14.9654 N   0  0  0  0  0  0  0  0  0  0  0  0
   26.2697  -20.6153  -13.9525 C   0  0  0  0  0  0  0  0  0  0  0  0
   25.8786  -21.7261  -14.3821 O   0  0  0  0  0  0  0  0  0  0  0  0
   27.6042  -20.6093   -7.6866 C   0  0  0  0  0  0  0  0  0  0  0  0
   25.9004  -20.3757   -8.2654 S   0  0  0  0  0  0  0  0  0  0  0  0
   25.8866  -20.8368  -10.0434 C   0  0  0  0  0  0  0  0  0  0  0  0
   24.5680  -20.4799  -10.6637 C   0  0  0  0  0  0  0  0  0  0  0  0
   24.5488  -20.8289  -12.1124 C   0  0  2  0  0  0  0  0  0  0  0  0
   25.5873  -20.0768  -12.8424 N   0  0  0  0  0  0  0  0  0  0  0  0
   23.2618  -20.7450  -12.8005 C   0  0  0  0  0  0  0  0  0  0  0  0
   22.7922  -19.6977  -13.2981 O   0  0  0  0  0  0  0  0  0  0  0  0
   20.7858  -23.2083  -14.1265 C   0  0  0  0  0  0  0  0  0  0  0  0
   21.1359  -21.8199  -13.5960 C   0  0  2  0  0  0  0  0  0  0  0  0
   22.4181  -21.9134  -12.9548 N   0  0  0  0  0  0  0  0  0  0  0  0
   20.0824  -21.2914  -12.7348 C   0  0  0  0  0  0  0  0  0  0  0  0
   20.2749  -21.1987  -11.5046 O   0  0  0  0  0  0  0  0  0  0  0  0
   18.8676  -20.8872  -13.2465 O   0  0  0  0  0  0  0  0  0  0  0  0
  2  1  1  1
  2  4  1  0
  2  3  1  0
  4  5  1  0
  5  7  1  0
  5  6  1  6
  7  8  2  0
  9 10  1  0
 10 11  1  0
 11 12  1  0
 13 12  1  1
 13 15  1  0
 14 13  1  0
 14  7  1  0
 15 19  1  0
 15 16  2  0
 18 17  1  1
 18 20  1  0
 19 18  1  0
 20 21  2  0
 20 22  1  0
M  END
$$$$
