LMA.pdb
     RDKit          3D

 22 21  0  0  1  0  0  0  0  0999 V2000
   27.6382  -16.6819  -17.9397 C   0  0  0  0  0  0  0  0  0  0  0  0
   28.5782  -17.4375  -17.0292 C   0  0  2  0  0  0  0  0  0  0  0  0
   29.8343  -17.8908  -17.7367 C   0  0  0  0  0  0  0  0  0  0  0  0
   27.8885  -18.5422  -16.2790 C   0  0  0  0  0  0  0  0  0  0  0  0
   26.5865  -18.0987  -15.6551 C   0  0  2  0  0  0  0  0  0  0  0  0
   26.7656  -16.9478  -14.7994 N   0  0  0  0  0  0  0  0  0  0  0  0
   26.0743  -19.2311  -14.8504 C   0  0  0  0  0  0  0  0  0  0  0  0
   25.8268  -20.3169  -15.4258 O   0  0  0  0  0  0  0  0  0  0  0  0
   25.9576  -19.7203   -8.3754 C   0  0  0  0  0  0  0  0  0  0  0  0
   25.5483  -21.4338   -8.8101 S   0  0  0  0  0  0  0  0  0  0  0  0
   24.9647  -21.4041  -10.5516 C   0  0  0  0  0  0  0  0  0  0  0  0
   25.6511  -20.3083  -11.3122 C   0  0  0  0  0  0  0  0  0  0  0  0
   25.1735  -20.2589  -12.7231 C   0  0  2  0  0  0  0  0  0  0  0  0
   25.8426  -19.1703  -13.4608 N   0  0  0  0  0  0  0  0  0  0  0  0
   23.7277  -20.2229  -12.9357 C   0  0  0  0  0  0  0  0  0  0  0  0
   23.0237  -19.1933  -12.8395 O   0  0  0  0  0  0  0  0  0  0  0  0
   21.2134  -22.4665  -14.4921 C   0  0  0  0  0  0  0  0  0  0  0  0
   21.5683  -21.3885  -13.4705 C   0  0  2  0  0  0  0  0  0  0  0  0
   22.9924  -21.4223  -13.2841 N   0  0  0  0  0  0  0  0  0  0  0  0
   20.8074  -21.5466  -12.2348 C   0  0  0  0  0  0  0  0  0  0  0  0
   21.3789  -21.9539  -11.2020 O   0  0  0  0  0  0  0  0  0  0  0  0
   19.4610  -21.2559  -12.1747 O   0  0  0  0  0  0  0  0  0  0  0  0
  2  1  1  6
  2  4  1  0
  2  3  1  0
  4  5  1  0
  5  7  1  0
  5  6  1  1
  7  8  2  0
  9 10  1  0
 10 11  1  0
 11 12  1  0
 13 12  1  1
 13 15  1  0
 14 13  1  0
 14  7  1  0
 15 19  1  0
 15 16  2  0
 18 17  1  6
 18 20  1  0
 19 18  1  0
 20 21  2  0
 20 22  1  0
M  END
$$$$
