LMA.pdb
     RDKit          3D

 22 21  0  0  1  0  0  0  0  0999 V2000
   19.3978  -35.0693   -8.7391 C   0  0  0  0  0  0  0  0  0  0  0  0
   20.5240  -34.0749   -8.9007 C   0  0  2  0  0  0  0  0  0  0  0  0
   21.6962  -34.6430   -9.6671 C   0  0  0  0  0  0  0  0  0  0  0  0
   20.9199  -33.4372   -7.5985 C   0  0  0  0  0  0  0  0  0  0  0  0
   19.7416  -32.8608   -6.8498 C   0  0  2  0  0  0  0  0  0  0  0  0
   19.1351  -31.7623   -7.5668 N   0  0  0  0  0  0  0  0  0  0  0  0
   20.2430  -32.3749   -5.5442 C   0  0  0  0  0  0  0  0  0  0  0  0
   21.2868  -32.8834   -5.0715 O   0  0  0  0  0  0  0  0  0  0  0  0
   20.8903  -26.4388   -1.8643 C   0  0  0  0  0  0  0  0  0  0  0  0
   19.5543  -27.5317   -1.3047 S   0  0  0  0  0  0  0  0  0  0  0  0
   20.0831  -29.2456   -1.7010 C   0  0  0  0  0  0  0  0  0  0  0  0
   19.5707  -29.6494   -3.0520 C   0  0  0  0  0  0  0  0  0  0  0  0
   20.0667  -31.0038   -3.4271 C   0  0  2  0  0  0  0  0  0  0  0  0
   19.6174  -31.3645   -4.7854 N   0  0  0  0  0  0  0  0  0  0  0  0
   19.8092  -32.0916   -2.4852 C   0  0  0  0  0  0  0  0  0  0  0  0
   18.6788  -32.5753   -2.2546 O   0  0  0  0  0  0  0  0  0  0  0  0
   21.9633  -34.4505   -0.5099 C   0  0  0  0  0  0  0  0  0  0  0  0
   20.6305  -33.7649   -0.8021 C   0  0  2  0  0  0  0  0  0  0  0  0
   20.8874  -32.7001   -1.7316 N   0  0  0  0  0  0  0  0  0  0  0  0
   19.9683  -33.3310    0.4243 C   0  0  0  0  0  0  0  0  0  0  0  0
   19.2386  -34.1274    1.0506 O   0  0  0  0  0  0  0  0  0  0  0  0
   20.1274  -32.0528    0.9164 O   0  0  0  0  0  0  0  0  0  0  0  0
  2  1  1  1
  2  4  1  0
  2  3  1  0
  4  5  1  0
  5  7  1  0
  5  6  1  6
  7  8  2  0
  9 10  1  0
 10 11  1  0
 11 12  1  0
 13 12  1  1
 13 15  1  0
 14 13  1  0
 14  7  1  0
 15 19  1  0
 15 16  2  0
 18 17  1  1
 18 20  1  0
 19 18  1  0
 20 21  2  0
 20 22  1  0
M  END
$$$$
