LMA.pdb
     RDKit          3D

 22 21  0  0  1  0  0  0  0  0999 V2000
   27.0700  -21.2544  -15.2416 C   0  0  0  0  0  0  0  0  0  0  0  0
   25.7508  -20.6351  -14.8424 C   0  0  2  0  0  0  0  0  0  0  0  0
   25.1866  -19.7281  -15.9115 C   0  0  0  0  0  0  0  0  0  0  0  0
   25.8049  -19.9904  -13.4857 C   0  0  0  0  0  0  0  0  0  0  0  0
   26.5663  -20.8178  -12.4772 C   0  0  2  0  0  0  0  0  0  0  0  0
   26.1273  -22.1946  -12.4710 N   0  0  0  0  0  0  0  0  0  0  0  0
   26.3239  -20.2214  -11.1438 C   0  0  0  0  0  0  0  0  0  0  0  0
   26.3929  -18.9760  -11.0183 O   0  0  0  0  0  0  0  0  0  0  0  0
   22.4058  -21.8294   -6.3944 C   0  0  0  0  0  0  0  0  0  0  0  0
   21.8599  -21.0581   -7.9435 S   0  0  0  0  0  0  0  0  0  0  0  0
   23.3767  -20.4628   -8.7916 C   0  0  0  0  0  0  0  0  0  0  0  0
   24.5968  -20.8502   -8.0094 C   0  0  0  0  0  0  0  0  0  0  0  0
   25.8343  -20.3421   -8.6661 C   0  0  2  0  0  0  0  0  0  0  0  0
   26.0163  -20.9697   -9.9890 N   0  0  0  0  0  0  0  0  0  0  0  0
   27.0708  -20.3948   -7.8881 C   0  0  0  0  0  0  0  0  0  0  0  0
   27.8328  -21.3855   -7.8367 O   0  0  0  0  0  0  0  0  0  0  0  0
   29.0825  -17.9962   -5.8203 C   0  0  0  0  0  0  0  0  0  0  0  0
   28.5553  -19.3964   -6.1255 C   0  0  2  0  0  0  0  0  0  0  0  0
   27.5069  -19.2605   -7.0982 N   0  0  0  0  0  0  0  0  0  0  0  0
   28.1461  -20.0941   -4.9102 C   0  0  0  0  0  0  0  0  0  0  0  0
   26.9462  -20.3961   -4.7423 O   0  0  0  0  0  0  0  0  0  0  0  0
   29.0565  -20.4328   -3.9318 O   0  0  0  0  0  0  0  0  0  0  0  0
  2  1  1  6
  2  4  1  0
  2  3  1  0
  4  5  1  0
  5  7  1  0
  5  6  1  1
  7  8  2  0
  9 10  1  0
 10 11  1  0
 11 12  1  0
 13 12  1  1
 13 15  1  0
 14 13  1  0
 14  7  1  0
 15 19  1  0
 15 16  2  0
 18 17  1  1
 18 20  1  0
 19 18  1  0
 20 21  2  0
 20 22  1  0
M  END
$$$$
