LMA.pdb
     RDKit          3D

 22 21  0  0  1  0  0  0  0  0999 V2000
   17.0775  -10.1542  -20.6630 C   0  0  0  0  0  0  0  0  0  0  0  0
   16.3157  -10.0438  -19.3627 C   0  0  2  0  0  0  0  0  0  0  0  0
   15.2151   -9.0097  -19.4192 C   0  0  0  0  0  0  0  0  0  0  0  0
   17.2234   -9.8797  -18.1761 C   0  0  0  0  0  0  0  0  0  0  0  0
   18.3433  -10.8929  -18.1543 C   0  0  2  0  0  0  0  0  0  0  0  0
   17.8706  -12.2080  -17.7862 N   0  0  0  0  0  0  0  0  0  0  0  0
   19.3354  -10.4329  -17.1561 C   0  0  0  0  0  0  0  0  0  0  0  0
   19.0551  -10.5293  -15.9381 O   0  0  0  0  0  0  0  0  0  0  0  0
   26.4585  -10.2409  -14.3508 C   0  0  0  0  0  0  0  0  0  0  0  0
   25.4031  -10.7109  -15.7499 S   0  0  0  0  0  0  0  0  0  0  0  0
   23.7932   -9.8637  -15.4956 C   0  0  0  0  0  0  0  0  0  0  0  0
   22.8398  -10.2150  -16.5994 C   0  0  0  0  0  0  0  0  0  0  0  0
   21.5629   -9.4590  -16.4613 C   0  0  2  0  0  0  0  0  0  0  0  0
   20.5922   -9.8860  -17.4871 N   0  0  0  0  0  0  0  0  0  0  0  0
   21.6551   -8.0012  -16.4035 C   0  0  0  0  0  0  0  0  0  0  0  0
   22.1383   -7.2862  -17.3091 O   0  0  0  0  0  0  0  0  0  0  0  0
   19.8480   -5.3594  -14.6862 C   0  0  0  0  0  0  0  0  0  0  0  0
   21.1959   -5.8299  -15.2280 C   0  0  2  0  0  0  0  0  0  0  0  0
   21.1746   -7.2661  -15.2504 N   0  0  0  0  0  0  0  0  0  0  0  0
   22.3076   -5.2678  -14.4671 C   0  0  0  0  0  0  0  0  0  0  0  0
   22.8901   -5.9665  -13.6118 O   0  0  0  0  0  0  0  0  0  0  0  0
   22.7376   -3.9733  -14.6680 O   0  0  0  0  0  0  0  0  0  0  0  0
  2  1  1  6
  2  4  1  0
  2  3  1  0
  4  5  1  0
  5  7  1  0
  5  6  1  1
  7  8  2  0
  9 10  1  0
 10 11  1  0
 11 12  1  0
 13 12  1  6
 13 15  1  0
 14 13  1  0
 14  7  1  0
 15 19  1  0
 15 16  2  0
 18 17  1  1
 18 20  1  0
 19 18  1  0
 20 21  2  0
 20 22  1  0
M  END
$$$$
