LMA.pdb
     RDKit          3D

 22 21  0  0  1  0  0  0  0  0999 V2000
   19.1165  -12.7730  -17.3874 C   0  0  0  0  0  0  0  0  0  0  0  0
   20.5209  -13.3306  -17.3844 C   0  0  2  0  0  0  0  0  0  0  0  0
   20.5769  -14.7639  -16.9088 C   0  0  0  0  0  0  0  0  0  0  0  0
   21.4952  -12.4320  -16.6756 C   0  0  0  0  0  0  0  0  0  0  0  0
   21.4172  -10.9996  -17.1482 C   0  0  2  0  0  0  0  0  0  0  0  0
   21.6327  -10.8917  -18.5731 N   0  0  0  0  0  0  0  0  0  0  0  0
   22.4709  -10.2417  -16.4357 C   0  0  0  0  0  0  0  0  0  0  0  0
   22.4581  -10.2234  -15.1823 O   0  0  0  0  0  0  0  0  0  0  0  0
   27.0902  -12.9524  -14.9906 C   0  0  0  0  0  0  0  0  0  0  0  0
   26.9494  -11.1437  -15.0256 S   0  0  0  0  0  0  0  0  0  0  0  0
   26.0072  -10.7240  -16.5456 C   0  0  0  0  0  0  0  0  0  0  0  0
   25.8924   -9.2354  -16.6927 C   0  0  0  0  0  0  0  0  0  0  0  0
   24.5233   -8.7685  -16.3341 C   0  0  2  0  0  0  0  0  0  0  0  0
   23.5025   -9.5288  -17.0804 N   0  0  0  0  0  0  0  0  0  0  0  0
   24.2674   -7.3315  -16.4147 C   0  0  0  0  0  0  0  0  0  0  0  0
   24.9564   -6.4569  -15.8444 O   0  0  0  0  0  0  0  0  0  0  0  0
   22.0466   -5.1401  -18.4875 C   0  0  0  0  0  0  0  0  0  0  0  0
   22.8912   -5.4006  -17.2422 C   0  0  2  0  0  0  0  0  0  0  0  0
   23.1582   -6.8112  -17.1890 N   0  0  0  0  0  0  0  0  0  0  0  0
   22.2527   -4.8749  -16.0393 C   0  0  0  0  0  0  0  0  0  0  0  0
   21.7573   -5.6613  -15.2056 O   0  0  0  0  0  0  0  0  0  0  0  0
   22.1804   -3.5199  -15.7947 O   0  0  0  0  0  0  0  0  0  0  0  0
  2  1  1  1
  2  4  1  0
  2  3  1  0
  4  5  1  0
  5  7  1  0
  5  6  1  6
  7  8  2  0
  9 10  1  0
 10 11  1  0
 11 12  1  0
 13 12  1  6
 13 15  1  0
 14 13  1  0
 14  7  1  0
 15 19  1  0
 15 16  2  0
 18 17  1  6
 18 20  1  0
 19 18  1  0
 20 21  2  0
 20 22  1  0
M  END
$$$$
