LMA.pdb
     RDKit          3D

 22 21  0  0  1  0  0  0  0  0999 V2000
   26.0904  -36.5037  -11.6222 C   0  0  0  0  0  0  0  0  0  0  0  0
   25.1306  -35.4175  -11.1954 C   0  0  2  0  0  0  0  0  0  0  0  0
   23.6849  -35.8460  -11.2963 C   0  0  0  0  0  0  0  0  0  0  0  0
   25.4088  -34.1050  -11.8728 C   0  0  0  0  0  0  0  0  0  0  0  0
   26.8606  -33.6983  -11.7816 C   0  0  2  0  0  0  0  0  0  0  0  0
   27.1419  -32.9823  -10.5582 N   0  0  0  0  0  0  0  0  0  0  0  0
   27.1464  -32.8199  -12.9388 C   0  0  0  0  0  0  0  0  0  0  0  0
   26.8941  -31.5956  -12.8438 O   0  0  0  0  0  0  0  0  0  0  0  0
   32.5825  -32.3469  -15.9514 C   0  0  0  0  0  0  0  0  0  0  0  0
   31.5490  -32.1664  -17.4319 S   0  0  0  0  0  0  0  0  0  0  0  0
   29.8603  -31.7504  -16.8406 C   0  0  0  0  0  0  0  0  0  0  0  0
   29.4336  -32.7083  -15.7678 C   0  0  0  0  0  0  0  0  0  0  0  0
   28.0876  -32.3497  -15.2380 C   0  0  2  0  0  0  0  0  0  0  0  0
   27.6909  -33.2733  -14.1578 N   0  0  0  0  0  0  0  0  0  0  0  0
   27.0092  -32.1908  -16.2121 C   0  0  0  0  0  0  0  0  0  0  0  0
   26.3700  -33.1380  -16.7210 O   0  0  0  0  0  0  0  0  0  0  0  0
   24.7303  -29.4592  -17.1290 C   0  0  0  0  0  0  0  0  0  0  0  0
   25.4818  -30.7181  -17.5558 C   0  0  2  0  0  0  0  0  0  0  0  0
   26.5983  -30.8770  -16.6659 N   0  0  0  0  0  0  0  0  0  0  0  0
   25.8535  -30.6707  -18.9667 C   0  0  0  0  0  0  0  0  0  0  0  0
   25.1075  -31.1902  -19.8226 O   0  0  0  0  0  0  0  0  0  0  0  0
   27.0174  -30.0619  -19.3857 O   0  0  0  0  0  0  0  0  0  0  0  0
  2  1  1  6
  2  4  1  0
  2  3  1  0
  4  5  1  0
  5  7  1  0
  5  6  1  1
  7  8  2  0
  9 10  1  0
 10 11  1  0
 11 12  1  0
 13 12  1  6
 13 15  1  0
 14 13  1  0
 14  7  1  0
 15 19  1  0
 15 16  2  0
 18 17  1  1
 18 20  1  0
 19 18  1  0
 20 21  2  0
 20 22  1  0
M  END
$$$$
