LMA.pdb
     RDKit          3D

 22 21  0  0  1  0  0  0  0  0999 V2000
   22.7826  -37.4265  -13.5354 C   0  0  0  0  0  0  0  0  0  0  0  0
   24.2431  -37.4222  -13.9230 C   0  0  2  0  0  0  0  0  0  0  0  0
   24.9314  -38.7311  -13.6117 C   0  0  0  0  0  0  0  0  0  0  0  0
   24.9769  -36.2244  -13.3883 C   0  0  0  0  0  0  0  0  0  0  0  0
   24.2215  -34.9343  -13.6034 C   0  0  2  0  0  0  0  0  0  0  0  0
   24.4289  -34.4056  -14.9323 N   0  0  0  0  0  0  0  0  0  0  0  0
   24.7196  -33.9597  -12.6063 C   0  0  0  0  0  0  0  0  0  0  0  0
   25.8332  -33.4167  -12.7973 O   0  0  0  0  0  0  0  0  0  0  0  0
   22.2695  -29.0355   -9.1305 C   0  0  0  0  0  0  0  0  0  0  0  0
   21.8318  -29.6161  -10.7929 S   0  0  0  0  0  0  0  0  0  0  0  0
   23.1120  -30.8441  -11.2696 C   0  0  0  0  0  0  0  0  0  0  0  0
   23.5500  -31.6319  -10.0703 C   0  0  0  0  0  0  0  0  0  0  0  0
   24.5676  -32.6536  -10.4466 C   0  0  2  0  0  0  0  0  0  0  0  0
   24.0164  -33.5954  -11.4397 N   0  0  0  0  0  0  0  0  0  0  0  0
   25.2265  -33.3703   -9.3560 C   0  0  0  0  0  0  0  0  0  0  0  0
   24.8238  -34.4527   -8.8754 O   0  0  0  0  0  0  0  0  0  0  0  0
   28.4746  -32.9236   -7.5009 C   0  0  0  0  0  0  0  0  0  0  0  0
   27.1225  -33.5970   -7.7248 C   0  0  2  0  0  0  0  0  0  0  0  0
   26.4321  -32.8520   -8.7407 N   0  0  0  0  0  0  0  0  0  0  0  0
   26.3742  -33.7291   -6.4783 C   0  0  0  0  0  0  0  0  0  0  0  0
   25.3107  -33.0936   -6.3228 O   0  0  0  0  0  0  0  0  0  0  0  0
   26.8128  -34.5446   -5.4568 O   0  0  0  0  0  0  0  0  0  0  0  0
  2  1  1  1
  2  4  1  0
  2  3  1  0
  4  5  1  0
  5  7  1  0
  5  6  1  6
  7  8  2  0
  9 10  1  0
 10 11  1  0
 11 12  1  0
 13 12  1  1
 13 15  1  0
 14 13  1  0
 14  7  1  0
 15 19  1  0
 15 16  2  0
 18 17  1  1
 18 20  1  0
 19 18  1  0
 20 21  2  0
 20 22  1  0
M  END
$$$$
