LMA.pdb
     RDKit          3D

 22 21  0  0  1  0  0  0  0  0999 V2000
   20.2578  -13.4193  -20.7428 C   0  0  0  0  0  0  0  0  0  0  0  0
   19.2751  -13.5538  -19.6029 C   0  0  2  0  0  0  0  0  0  0  0  0
   17.8466  -13.3156  -20.0350 C   0  0  0  0  0  0  0  0  0  0  0  0
   19.6738  -12.7445  -18.4008 C   0  0  0  0  0  0  0  0  0  0  0  0
   21.1379  -12.8905  -18.0594 C   0  0  2  0  0  0  0  0  0  0  0  0
   21.4372  -14.2005  -17.5275 N   0  0  0  0  0  0  0  0  0  0  0  0
   21.4580  -11.8645  -17.0409 C   0  0  0  0  0  0  0  0  0  0  0  0
   21.0192  -12.0130  -15.8761 O   0  0  0  0  0  0  0  0  0  0  0  0
   26.9789  -12.2791  -14.5580 C   0  0  0  0  0  0  0  0  0  0  0  0
   26.3996  -10.6954  -15.2278 S   0  0  0  0  0  0  0  0  0  0  0  0
   24.5826  -10.8552  -15.4452 C   0  0  0  0  0  0  0  0  0  0  0  0
   24.0197   -9.6070  -16.0583 C   0  0  0  0  0  0  0  0  0  0  0  0
   22.5462   -9.7243  -16.2482 C   0  0  2  0  0  0  0  0  0  0  0  0
   22.2342  -10.7153  -17.2958 N   0  0  0  0  0  0  0  0  0  0  0  0
   21.8017   -8.4847  -16.4628 C   0  0  0  0  0  0  0  0  0  0  0  0
   21.8168   -7.8252  -17.5257 O   0  0  0  0  0  0  0  0  0  0  0  0
   19.1917   -6.5468  -14.6030 C   0  0  0  0  0  0  0  0  0  0  0  0
   20.3720   -6.6235  -15.5689 C   0  0  2  0  0  0  0  0  0  0  0  0
   20.9689   -7.9216  -15.4188 N   0  0  0  0  0  0  0  0  0  0  0  0
   21.3043   -5.5183  -15.3683 C   0  0  0  0  0  0  0  0  0  0  0  0
   22.3439   -5.6970  -14.7001 O   0  0  0  0  0  0  0  0  0  0  0  0
   21.0673   -4.2690  -15.9014 O   0  0  0  0  0  0  0  0  0  0  0  0
  2  1  1  6
  2  4  1  0
  2  3  1  0
  4  5  1  0
  5  7  1  0
  5  6  1  1
  7  8  2  0
  9 10  1  0
 10 11  1  0
 11 12  1  0
 13 12  1  6
 13 15  1  0
 14 13  1  0
 14  7  1  0
 15 19  1  0
 15 16  2  0
 18 17  1  1
 18 20  1  0
 19 18  1  0
 20 21  2  0
 20 22  1  0
M  END
$$$$
