LMA.pdb
     RDKit          3D

 22 21  0  0  1  0  0  0  0  0999 V2000
   17.9596  -13.8374  -17.7679 C   0  0  0  0  0  0  0  0  0  0  0  0
   18.9423  -14.2822  -16.7098 C   0  0  2  0  0  0  0  0  0  0  0  0
   18.4112  -15.4150  -15.8620 C   0  0  0  0  0  0  0  0  0  0  0  0
   19.4741  -13.1338  -15.8991 C   0  0  0  0  0  0  0  0  0  0  0  0
   19.9569  -11.9887  -16.7576 C   0  0  2  0  0  0  0  0  0  0  0  0
   21.0404  -12.3884  -17.6264 N   0  0  0  0  0  0  0  0  0  0  0  0
   20.4296  -10.9221  -15.8458 C   0  0  0  0  0  0  0  0  0  0  0  0
   19.7039  -10.5890  -14.8794 O   0  0  0  0  0  0  0  0  0  0  0  0
   26.0191  -11.7417  -14.4961 C   0  0  0  0  0  0  0  0  0  0  0  0
   26.1035   -9.9773  -14.9114 S   0  0  0  0  0  0  0  0  0  0  0  0
   24.4639   -9.5268  -15.6062 C   0  0  0  0  0  0  0  0  0  0  0  0
   23.4353   -9.4653  -14.5158 C   0  0  0  0  0  0  0  0  0  0  0  0
   22.0844   -9.1734  -15.0734 C   0  0  2  0  0  0  0  0  0  0  0  0
   21.6582  -10.2460  -15.9925 N   0  0  0  0  0  0  0  0  0  0  0  0
   21.8834   -7.8573  -15.6770 C   0  0  0  0  0  0  0  0  0  0  0  0
   22.2435   -7.5470  -16.8342 O   0  0  0  0  0  0  0  0  0  0  0  0
   19.8374   -4.8477  -14.9183 C   0  0  0  0  0  0  0  0  0  0  0  0
   21.0928   -5.4789  -15.5160 C   0  0  2  0  0  0  0  0  0  0  0  0
   21.2304   -6.7901  -14.9452 N   0  0  0  0  0  0  0  0  0  0  0  0
   22.2642   -4.6280  -15.3292 C   0  0  0  0  0  0  0  0  0  0  0  0
   22.9454   -4.7299  -14.2877 O   0  0  0  0  0  0  0  0  0  0  0  0
   22.6441   -3.7050  -16.2804 O   0  0  0  0  0  0  0  0  0  0  0  0
  2  1  1  6
  2  4  1  0
  2  3  1  0
  4  5  1  0
  5  7  1  0
  5  6  1  6
  7  8  2  0
  9 10  1  0
 10 11  1  0
 11 12  1  0
 13 12  1  6
 13 15  1  0
 14 13  1  0
 14  7  1  0
 15 19  1  0
 15 16  2  0
 18 17  1  1
 18 20  1  0
 19 18  1  0
 20 21  2  0
 20 22  1  0
M  END
$$$$
