FMK.pdb
     RDKit          3D

 29 29  0  0  1  0  0  0  0  0999 V2000
   10.8042  -17.0929   20.6865 N   0  0  0  0  0  0  0  0  0  0  0  0
    9.9208  -16.0680   21.1400 C   0  0  1  0  0  0  0  0  0  0  0  0
    8.4903  -16.2818   20.7080 C   0  0  0  0  0  0  0  0  0  0  0  0
    7.9329  -15.0012   20.2677 C   0  0  0  0  0  0  0  0  0  0  0  0
    8.7922  -13.9592   19.9886 C   0  0  0  0  0  0  0  0  0  0  0  0
    8.2884  -12.7372   19.5713 C   0  0  0  0  0  0  0  0  0  0  0  0
    6.9316  -12.5306   19.4252 C   0  0  0  0  0  0  0  0  0  0  0  0
    6.0675  -13.5745   19.7047 C   0  0  0  0  0  0  0  0  0  0  0  0
    6.5942  -14.7773   20.1169 C   0  0  0  0  0  0  0  0  0  0  0  0
    9.8853  -16.0239   22.6491 C   0  0  0  0  0  0  0  0  0  0  0  0
   10.6463  -16.7666   23.3289 O   0  0  0  0  0  0  0  0  0  0  0  0
    7.2263  -10.8367   26.3392 C   0  0  0  0  0  0  0  0  0  0  0  0
    6.5591  -12.4222   26.9313 S   0  0  0  0  0  0  0  0  0  0  0  0
    7.7532  -13.7199   26.6129 C   0  0  0  0  0  0  0  0  0  0  0  0
    8.0253  -14.0143   25.2043 C   0  0  0  0  0  0  0  0  0  0  0  0
    9.0664  -15.0086   24.8264 C   0  0  2  0  0  0  0  0  0  0  0  0
    9.0033  -15.1535   23.3332 N   0  0  0  0  0  0  0  0  0  0  0  0
    9.0316  -16.3273   25.4215 C   0  0  0  0  0  0  0  0  0  0  0  0
    8.1313  -17.1298   25.0183 O   0  0  0  0  0  0  0  0  0  0  0  0
    9.9054  -16.8545   26.4155 N   0  0  0  0  0  0  0  0  0  0  0  0
    9.7911  -18.2587   26.8370 C   0  0  1  0  0  0  0  0  0  0  0  0
   10.8509  -19.0626   26.0775 C   0  0  0  0  0  0  0  0  0  0  0  0
   10.2064  -19.7770   24.9276 C   0  0  0  0  0  0  0  0  0  0  0  0
   11.2574  -20.4797   24.0632 C   0  0  0  0  0  0  0  0  0  0  0  0
   10.6530  -21.1863   22.8889 C   0  0  0  0  0  0  0  0  0  0  0  0
   11.6160  -21.8777   22.0674 N   0  0  0  0  0  0  0  0  0  0  0  0
    9.9325  -18.4458   28.2731 C   0  0  0  0  0  0  0  0  0  0  0  0
    9.5376  -19.4581   28.8948 O   0  0  0  0  0  0  0  0  0  0  0  0
   10.5408  -17.4677   29.0469 O   0  0  0  0  0  0  0  0  0  0  0  0
  2  1  1  1
  3  2  1  0
  3  4  1  0
  4  9  2  0
  4  5  1  0
  5  6  2  0
  6  7  1  0
  8  7  2  0
  9  8  1  0
 10  2  1  0
 11 10  2  0
 12 13  1  0
 13 14  1  0
 15 14  1  0
 16 15  1  1
 16 17  1  0
 17 10  1  0
 18 16  1  0
 18 20  1  0
 19 18  2  0
 21 20  1  0
 21 27  1  0
 21 22  1  6
 23 22  1  0
 24 23  1  0
 25 24  1  0
 26 25  1  0
 27 29  1  0
 28 27  2  0
M  END
$$$$
