FMK.pdb
     RDKit          3D

 29 29  0  0  1  0  0  0  0  0999 V2000
    9.8624  -17.6597   21.0658 N   0  0  0  0  0  0  0  0  0  0  0  0
    9.2762  -16.3840   21.3213 C   0  0  1  0  0  0  0  0  0  0  0  0
    7.8978  -16.2326   20.7247 C   0  0  0  0  0  0  0  0  0  0  0  0
    7.7072  -14.8374   20.3229 C   0  0  0  0  0  0  0  0  0  0  0  0
    7.9043  -14.4894   19.0030 C   0  0  0  0  0  0  0  0  0  0  0  0
    7.7310  -13.1750   18.5986 C   0  0  0  0  0  0  0  0  0  0  0  0
    7.3616  -12.1903   19.4924 C   0  0  0  0  0  0  0  0  0  0  0  0
    7.1633  -12.5369   20.8171 C   0  0  0  0  0  0  0  0  0  0  0  0
    7.3418  -13.8492   21.1918 C   0  0  0  0  0  0  0  0  0  0  0  0
    9.1009  -16.1652   22.8053 C   0  0  0  0  0  0  0  0  0  0  0  0
    9.9892  -16.5452   23.6173 O   0  0  0  0  0  0  0  0  0  0  0  0
    6.6850  -11.4652   28.2116 C   0  0  0  0  0  0  0  0  0  0  0  0
    7.3882  -12.1456   26.6779 S   0  0  0  0  0  0  0  0  0  0  0  0
    6.3781  -13.5185   26.1246 C   0  0  0  0  0  0  0  0  0  0  0  0
    6.7472  -14.1133   24.8382 C   0  0  0  0  0  0  0  0  0  0  0  0
    7.8863  -15.0667   24.7443 C   0  0  2  0  0  0  0  0  0  0  0  0
    7.9433  -15.5322   23.3180 N   0  0  0  0  0  0  0  0  0  0  0  0
    7.9097  -16.2255   25.6110 C   0  0  0  0  0  0  0  0  0  0  0  0
    8.2024  -16.0380   26.8342 O   0  0  0  0  0  0  0  0  0  0  0  0
    7.6285  -17.5775   25.2606 N   0  0  0  0  0  0  0  0  0  0  0  0
    7.6485  -18.6310   26.2863 C   0  0  1  0  0  0  0  0  0  0  0  0
    7.1323  -19.9210   25.6417 C   0  0  0  0  0  0  0  0  0  0  0  0
    7.0048  -20.9862   26.6892 C   0  0  0  0  0  0  0  0  0  0  0  0
    6.5552  -22.3119   26.0679 C   0  0  0  0  0  0  0  0  0  0  0  0
    6.3001  -23.3691   27.0979 C   0  0  0  0  0  0  0  0  0  0  0  0
    5.9784  -24.6595   26.5395 N   0  0  0  0  0  0  0  0  0  0  0  0
    8.9617  -18.8392   26.8774 C   0  0  0  0  0  0  0  0  0  0  0  0
   10.0432  -18.6814   26.2670 O   0  0  0  0  0  0  0  0  0  0  0  0
    9.0747  -19.2358   28.2024 O   0  0  0  0  0  0  0  0  0  0  0  0
  2  1  1  1
  3  2  1  0
  3  4  1  0
  4  9  2  0
  4  5  1  0
  5  6  2  0
  6  7  1  0
  8  7  2  0
  9  8  1  0
 10  2  1  0
 11 10  2  0
 12 13  1  0
 13 14  1  0
 15 14  1  0
 16 15  1  6
 16 17  1  0
 17 10  1  0
 18 16  1  0
 18 20  1  0
 19 18  2  0
 21 20  1  0
 21 27  1  0
 21 22  1  6
 23 22  1  0
 24 23  1  0
 25 24  1  0
 26 25  1  0
 27 29  1  0
 28 27  2  0
M  END
$$$$
