FMK.pdb
     RDKit          3D

 29 29  0  0  1  0  0  0  0  0999 V2000
    5.6580  -18.1563   25.3175 N   0  0  0  0  0  0  0  0  0  0  0  0
    6.1844  -16.8300   25.3348 C   0  0  1  0  0  0  0  0  0  0  0  0
    6.8943  -16.4886   26.6225 C   0  0  0  0  0  0  0  0  0  0  0  0
    7.0067  -15.0324   26.7287 C   0  0  0  0  0  0  0  0  0  0  0  0
    5.8677  -14.2640   26.6094 C   0  0  0  0  0  0  0  0  0  0  0  0
    5.9488  -12.8835   26.7053 C   0  0  0  0  0  0  0  0  0  0  0  0
    7.1546  -12.2471   26.9197 C   0  0  0  0  0  0  0  0  0  0  0  0
    8.2987  -13.0159   27.0397 C   0  0  0  0  0  0  0  0  0  0  0  0
    8.1899  -14.3843   26.9408 C   0  0  0  0  0  0  0  0  0  0  0  0
    7.2146  -16.6510   24.2452 C   0  0  0  0  0  0  0  0  0  0  0  0
    8.0506  -17.5638   23.9989 O   0  0  0  0  0  0  0  0  0  0  0  0
    6.4722  -12.3710   18.7145 C   0  0  0  0  0  0  0  0  0  0  0  0
    8.0036  -12.1169   19.6631 S   0  0  0  0  0  0  0  0  0  0  0  0
    8.5183  -13.6763   20.3803 C   0  0  0  0  0  0  0  0  0  0  0  0
    7.9029  -14.0314   21.6609 C   0  0  0  0  0  0  0  0  0  0  0  0
    8.1912  -15.3438   22.3011 C   0  0  2  0  0  0  0  0  0  0  0  0
    7.2668  -15.4624   23.4783 N   0  0  0  0  0  0  0  0  0  0  0  0
    9.5395  -15.6336   22.7399 C   0  0  0  0  0  0  0  0  0  0  0  0
    9.8120  -15.4397   23.9668 O   0  0  0  0  0  0  0  0  0  0  0  0
   10.6199  -16.1305   21.9554 N   0  0  0  0  0  0  0  0  0  0  0  0
   11.7296  -16.8553   22.5923 C   0  0  1  0  0  0  0  0  0  0  0  0
   11.9001  -18.1885   21.8576 C   0  0  0  0  0  0  0  0  0  0  0  0
   13.0670  -18.9314   22.4359 C   0  0  0  0  0  0  0  0  0  0  0  0
   13.2568  -20.2802   21.7356 C   0  0  0  0  0  0  0  0  0  0  0  0
   14.4497  -21.0277   22.2473 C   0  0  0  0  0  0  0  0  0  0  0  0
   14.7215  -22.2497   21.5309 N   0  0  0  0  0  0  0  0  0  0  0  0
   12.9785  -16.1088   22.6034 C   0  0  0  0  0  0  0  0  0  0  0  0
   13.9009  -16.2892   23.4303 O   0  0  0  0  0  0  0  0  0  0  0  0
   13.2105  -15.1241   21.6535 O   0  0  0  0  0  0  0  0  0  0  0  0
  2  1  1  1
  3  2  1  0
  3  4  1  0
  4  9  2  0
  4  5  1  0
  5  6  2  0
  6  7  1  0
  8  7  2  0
  9  8  1  0
 10  2  1  0
 11 10  2  0
 12 13  1  0
 13 14  1  0
 15 14  1  0
 16 15  1  1
 16 17  1  0
 17 10  1  0
 18 16  1  0
 18 20  1  0
 19 18  2  0
 21 20  1  0
 21 27  1  0
 21 22  1  6
 23 22  1  0
 24 23  1  0
 25 24  1  0
 26 25  1  0
 27 29  1  0
 28 27  2  0
M  END
$$$$
