FMK.pdb
     RDKit          3D

 29 29  0  0  1  0  0  0  0  0999 V2000
   10.5319  -17.5398   20.0268 N   0  0  0  0  0  0  0  0  0  0  0  0
    9.8109  -16.3732   20.4215 C   0  0  1  0  0  0  0  0  0  0  0  0
    8.4276  -16.2977   19.8220 C   0  0  0  0  0  0  0  0  0  0  0  0
    7.8581  -14.9801   20.1114 C   0  0  0  0  0  0  0  0  0  0  0  0
    8.4731  -13.8586   19.5958 C   0  0  0  0  0  0  0  0  0  0  0  0
    7.9534  -12.6003   19.8568 C   0  0  0  0  0  0  0  0  0  0  0  0
    6.8216  -12.4357   20.6293 C   0  0  0  0  0  0  0  0  0  0  0  0
    6.2028  -13.5594   21.1478 C   0  0  0  0  0  0  0  0  0  0  0  0
    6.7394  -14.7966   20.8730 C   0  0  0  0  0  0  0  0  0  0  0  0
    9.6050  -16.3543   21.9175 C   0  0  0  0  0  0  0  0  0  0  0  0
    9.9208  -17.3545   22.6194 O   0  0  0  0  0  0  0  0  0  0  0  0
    6.9053  -12.0079   28.0179 C   0  0  0  0  0  0  0  0  0  0  0  0
    7.0492  -12.2141   26.2161 S   0  0  0  0  0  0  0  0  0  0  0  0
    8.0306  -13.6721   25.8662 C   0  0  0  0  0  0  0  0  0  0  0  0
    8.2397  -13.9841   24.4507 C   0  0  0  0  0  0  0  0  0  0  0  0
    9.2308  -15.0164   24.0416 C   0  0  2  0  0  0  0  0  0  0  0  0
    9.0565  -15.2211   22.5644 N   0  0  0  0  0  0  0  0  0  0  0  0
    9.2136  -16.3085   24.6934 C   0  0  0  0  0  0  0  0  0  0  0  0
    8.1156  -16.9501   24.6960 O   0  0  0  0  0  0  0  0  0  0  0  0
   10.2986  -16.9711   25.3362 N   0  0  0  0  0  0  0  0  0  0  0  0
   10.0645  -18.1939   26.1188 C   0  0  1  0  0  0  0  0  0  0  0  0
   10.7599  -19.3517   25.3963 C   0  0  0  0  0  0  0  0  0  0  0  0
   12.2451  -19.1539   25.4504 C   0  0  0  0  0  0  0  0  0  0  0  0
   12.8599  -19.2495   24.0510 C   0  0  0  0  0  0  0  0  0  0  0  0
   14.3535  -19.1381   24.0733 C   0  0  0  0  0  0  0  0  0  0  0  0
   15.0244  -20.1582   23.3054 N   0  0  0  0  0  0  0  0  0  0  0  0
   10.5220  -18.0963   27.4967 C   0  0  0  0  0  0  0  0  0  0  0  0
   10.4298  -19.0191   28.3376 O   0  0  0  0  0  0  0  0  0  0  0  0
   11.1085  -16.9252   27.9552 O   0  0  0  0  0  0  0  0  0  0  0  0
  2  1  1  1
  3  2  1  0
  3  4  1  0
  4  9  2  0
  4  5  1  0
  5  6  2  0
  6  7  1  0
  8  7  2  0
  9  8  1  0
 10  2  1  0
 11 10  2  0
 12 13  1  0
 13 14  1  0
 15 14  1  0
 16 15  1  1
 16 17  1  0
 17 10  1  0
 18 16  1  0
 18 20  1  0
 19 18  2  0
 21 20  1  0
 21 27  1  0
 21 22  1  6
 23 22  1  0
 24 23  1  0
 25 24  1  0
 26 25  1  0
 27 29  1  0
 28 27  2  0
M  END
$$$$
