FMK.pdb
     RDKit          3D

 29 29  0  0  1  0  0  0  0  0999 V2000
    6.3476  -17.6171   25.9152 N   0  0  0  0  0  0  0  0  0  0  0  0
    6.7893  -16.3607   25.4024 C   0  0  1  0  0  0  0  0  0  0  0  0
    7.5243  -15.5268   26.4237 C   0  0  0  0  0  0  0  0  0  0  0  0
    6.9900  -14.1637   26.3941 C   0  0  0  0  0  0  0  0  0  0  0  0
    6.2418  -13.7629   25.3071 C   0  0  0  0  0  0  0  0  0  0  0  0
    5.7262  -12.4772   25.2557 C   0  0  0  0  0  0  0  0  0  0  0  0
    5.9438  -11.5737   26.2761 C   0  0  0  0  0  0  0  0  0  0  0  0
    6.6942  -11.9735   27.3676 C   0  0  0  0  0  0  0  0  0  0  0  0
    7.1939  -13.2556   27.3935 C   0  0  0  0  0  0  0  0  0  0  0  0
    7.7642  -16.5613   24.2667 C   0  0  0  0  0  0  0  0  0  0  0  0
    8.4249  -17.6325   24.1724 O   0  0  0  0  0  0  0  0  0  0  0  0
    8.2332  -11.9005   19.6421 C   0  0  0  0  0  0  0  0  0  0  0  0
    7.1484  -13.3151   19.2789 S   0  0  0  0  0  0  0  0  0  0  0  0
    7.3064  -14.5301   20.5867 C   0  0  0  0  0  0  0  0  0  0  0  0
    8.6454  -14.6930   21.1570 C   0  0  0  0  0  0  0  0  0  0  0  0
    8.9192  -15.7666   22.1509 C   0  0  2  0  0  0  0  0  0  0  0  0
    7.9590  -15.5590   23.2864 N   0  0  0  0  0  0  0  0  0  0  0  0
   10.2543  -15.9029   22.6924 C   0  0  0  0  0  0  0  0  0  0  0  0
   10.8218  -14.8511   23.1270 O   0  0  0  0  0  0  0  0  0  0  0  0
   11.0247  -17.0951   22.8130 N   0  0  0  0  0  0  0  0  0  0  0  0
   12.4021  -17.0418   23.3253 C   0  0  1  0  0  0  0  0  0  0  0  0
   12.7277  -18.4090   23.9343 C   0  0  0  0  0  0  0  0  0  0  0  0
   11.8689  -18.6346   25.1425 C   0  0  0  0  0  0  0  0  0  0  0  0
   12.0287  -20.0647   25.6667 C   0  0  0  0  0  0  0  0  0  0  0  0
   11.0550  -20.3861   26.7586 C   0  0  0  0  0  0  0  0  0  0  0  0
   11.0285  -21.7816   27.1220 N   0  0  0  0  0  0  0  0  0  0  0  0
   13.3831  -16.6810   22.3130 C   0  0  0  0  0  0  0  0  0  0  0  0
   13.2733  -16.9522   21.0958 O   0  0  0  0  0  0  0  0  0  0  0  0
   14.5308  -15.9876   22.6704 O   0  0  0  0  0  0  0  0  0  0  0  0
  2  1  1  1
  3  2  1  0
  3  4  1  0
  4  9  2  0
  4  5  1  0
  5  6  2  0
  6  7  1  0
  8  7  2  0
  9  8  1  0
 10  2  1  0
 11 10  2  0
 12 13  1  0
 13 14  1  0
 15 14  1  0
 16 15  1  6
 16 17  1  0
 17 10  1  0
 18 16  1  0
 18 20  1  0
 19 18  2  0
 21 20  1  0
 21 27  1  0
 21 22  1  6
 23 22  1  0
 24 23  1  0
 25 24  1  0
 26 25  1  0
 27 29  1  0
 28 27  2  0
M  END
$$$$
