FMK.pdb
     RDKit          3D

 29 29  0  0  1  0  0  0  0  0999 V2000
    5.6543  -18.1188   25.8402 N   0  0  0  0  0  0  0  0  0  0  0  0
    6.2485  -16.8416   25.6114 C   0  0  1  0  0  0  0  0  0  0  0  0
    7.0037  -16.3142   26.8072 C   0  0  0  0  0  0  0  0  0  0  0  0
    7.1500  -14.8634   26.6718 C   0  0  0  0  0  0  0  0  0  0  0  0
    8.4164  -14.3258   26.5758 C   0  0  0  0  0  0  0  0  0  0  0  0
    8.5806  -12.9554   26.4479 C   0  0  0  0  0  0  0  0  0  0  0  0
    7.4969  -12.1013   26.4138 C   0  0  0  0  0  0  0  0  0  0  0  0
    6.2254  -12.6383   26.5101 C   0  0  0  0  0  0  0  0  0  0  0  0
    6.0907  -14.0022   26.6359 C   0  0  0  0  0  0  0  0  0  0  0  0
    7.2618  -16.9173   24.4942 C   0  0  0  0  0  0  0  0  0  0  0  0
    8.0795  -17.8769   24.4361 O   0  0  0  0  0  0  0  0  0  0  0  0
    7.0709  -12.5378   18.9838 C   0  0  0  0  0  0  0  0  0  0  0  0
    8.3448  -12.5392   20.2826 S   0  0  0  0  0  0  0  0  0  0  0  0
    7.8290  -13.6232   21.6130 C   0  0  0  0  0  0  0  0  0  0  0  0
    7.8182  -15.0560   21.3098 C   0  0  0  0  0  0  0  0  0  0  0  0
    8.2587  -16.0484   22.3279 C   0  0  2  0  0  0  0  0  0  0  0  0
    7.3182  -15.9201   23.4913 N   0  0  0  0  0  0  0  0  0  0  0  0
    9.6176  -15.9954   22.8229 C   0  0  0  0  0  0  0  0  0  0  0  0
    9.9091  -15.0652   23.6396 O   0  0  0  0  0  0  0  0  0  0  0  0
   10.6898  -16.8805   22.5123 N   0  0  0  0  0  0  0  0  0  0  0  0
   12.0390  -16.6284   23.0402 C   0  0  1  0  0  0  0  0  0  0  0  0
   12.4423  -17.8376   23.8895 C   0  0  0  0  0  0  0  0  0  0  0  0
   11.6687  -17.8258   25.1738 C   0  0  0  0  0  0  0  0  0  0  0  0
   11.9245  -19.1045   25.9770 C   0  0  0  0  0  0  0  0  0  0  0  0
   11.1602  -19.1339   27.2649 C   0  0  0  0  0  0  0  0  0  0  0  0
   11.1997  -20.4101   27.9357 N   0  0  0  0  0  0  0  0  0  0  0  0
   13.0281  -16.3725   22.0041 C   0  0  0  0  0  0  0  0  0  0  0  0
   13.2715  -15.2420   21.5249 O   0  0  0  0  0  0  0  0  0  0  0  0
   13.7782  -17.4174   21.4833 O   0  0  0  0  0  0  0  0  0  0  0  0
  2  1  1  1
  3  2  1  0
  3  4  1  0
  4  9  2  0
  4  5  1  0
  5  6  2  0
  6  7  1  0
  8  7  2  0
  9  8  1  0
 10  2  1  0
 11 10  2  0
 12 13  1  0
 13 14  1  0
 15 14  1  0
 16 15  1  6
 16 17  1  0
 17 10  1  0
 18 16  1  0
 18 20  1  0
 19 18  2  0
 21 20  1  0
 21 27  1  0
 21 22  1  6
 23 22  1  0
 24 23  1  0
 25 24  1  0
 26 25  1  0
 27 29  1  0
 28 27  2  0
M  END
$$$$
