FMK.pdb
     RDKit          3D

 29 29  0  0  1  0  0  0  0  0999 V2000
    5.6211  -17.9883   25.1789 N   0  0  0  0  0  0  0  0  0  0  0  0
    6.1402  -16.6590   25.1713 C   0  0  1  0  0  0  0  0  0  0  0  0
    6.6609  -16.2162   26.5171 C   0  0  0  0  0  0  0  0  0  0  0  0
    6.7911  -14.7576   26.5172 C   0  0  0  0  0  0  0  0  0  0  0  0
    5.6498  -13.9850   26.4673 C   0  0  0  0  0  0  0  0  0  0  0  0
    5.7474  -12.6023   26.4652 C   0  0  0  0  0  0  0  0  0  0  0  0
    6.9722  -11.9677   26.5120 C   0  0  0  0  0  0  0  0  0  0  0  0
    8.1186  -12.7407   26.5621 C   0  0  0  0  0  0  0  0  0  0  0  0
    7.9933  -14.1113   26.5633 C   0  0  0  0  0  0  0  0  0  0  0  0
    7.3142  -16.5504   24.2276 C   0  0  0  0  0  0  0  0  0  0  0  0
    8.1967  -17.4521   24.1979 O   0  0  0  0  0  0  0  0  0  0  0  0
    8.7292  -11.9148   19.4834 C   0  0  0  0  0  0  0  0  0  0  0  0
    7.1345  -12.7893   19.4420 S   0  0  0  0  0  0  0  0  0  0  0  0
    7.1673  -14.1315   20.6290 C   0  0  0  0  0  0  0  0  0  0  0  0
    8.3299  -14.1774   21.5185 C   0  0  0  0  0  0  0  0  0  0  0  0
    8.5823  -15.3695   22.3731 C   0  0  2  0  0  0  0  0  0  0  0  0
    7.4519  -15.4415   23.3586 N   0  0  0  0  0  0  0  0  0  0  0  0
    9.8330  -15.4681   23.0947 C   0  0  0  0  0  0  0  0  0  0  0  0
   10.2394  -14.4316   23.7092 O   0  0  0  0  0  0  0  0  0  0  0  0
   10.6781  -16.6086   23.2153 N   0  0  0  0  0  0  0  0  0  0  0  0
   12.0313  -16.4755   23.7754 C   0  0  1  0  0  0  0  0  0  0  0  0
   12.3848  -17.7977   24.4631 C   0  0  0  0  0  0  0  0  0  0  0  0
   11.4852  -18.0017   25.6451 C   0  0  0  0  0  0  0  0  0  0  0  0
   11.7546  -19.3552   26.3091 C   0  0  0  0  0  0  0  0  0  0  0  0
   10.9803  -19.5339   27.5788 C   0  0  0  0  0  0  0  0  0  0  0  0
   11.2542  -20.7771   28.2570 N   0  0  0  0  0  0  0  0  0  0  0  0
   13.0368  -16.1245   22.7838 C   0  0  0  0  0  0  0  0  0  0  0  0
   14.1919  -15.7289   23.0600 O   0  0  0  0  0  0  0  0  0  0  0  0
   12.7449  -16.2213   21.4307 O   0  0  0  0  0  0  0  0  0  0  0  0
  2  1  1  1
  3  2  1  0
  3  4  1  0
  4  9  2  0
  4  5  1  0
  5  6  2  0
  6  7  1  0
  8  7  2  0
  9  8  1  0
 10  2  1  0
 11 10  2  0
 12 13  1  0
 13 14  1  0
 15 14  1  0
 16 15  1  1
 16 17  1  0
 17 10  1  0
 18 16  1  0
 18 20  1  0
 19 18  2  0
 21 20  1  0
 21 27  1  0
 21 22  1  6
 23 22  1  0
 24 23  1  0
 25 24  1  0
 26 25  1  0
 27 29  1  0
 28 27  2  0
M  END
$$$$
