FMK.pdb
     RDKit          3D

 29 29  0  0  1  0  0  0  0  0999 V2000
    8.6556  -16.6070   26.1317 N   0  0  0  0  0  0  0  0  0  0  0  0
    7.3729  -16.9397   25.6021 C   0  0  1  0  0  0  0  0  0  0  0  0
    6.2601  -16.0839   26.1570 C   0  0  0  0  0  0  0  0  0  0  0  0
    6.7647  -14.7239   26.3576 C   0  0  0  0  0  0  0  0  0  0  0  0
    5.9194  -13.6578   26.1321 C   0  0  0  0  0  0  0  0  0  0  0  0
    6.3743  -12.3611   26.3141 C   0  0  0  0  0  0  0  0  0  0  0  0
    7.6679  -12.1031   26.7203 C   0  0  0  0  0  0  0  0  0  0  0  0
    8.5177  -13.1710   26.9471 C   0  0  0  0  0  0  0  0  0  0  0  0
    8.0405  -14.4482   26.7592 C   0  0  0  0  0  0  0  0  0  0  0  0
    7.3411  -16.7255   24.1076 C   0  0  0  0  0  0  0  0  0  0  0  0
    6.3414  -17.0917   23.4299 O   0  0  0  0  0  0  0  0  0  0  0  0
    7.6787  -11.8813   20.2213 C   0  0  0  0  0  0  0  0  0  0  0  0
    7.4902  -12.1652   22.0083 S   0  0  0  0  0  0  0  0  0  0  0  0
    7.3037  -13.9218   22.3096 C   0  0  0  0  0  0  0  0  0  0  0  0
    8.0871  -14.8104   21.4485 C   0  0  0  0  0  0  0  0  0  0  0  0
    8.5228  -16.1471   21.9371 C   0  0  2  0  0  0  0  0  0  0  0  0
    8.4252  -16.1123   23.4350 N   0  0  0  0  0  0  0  0  0  0  0  0
    9.8331  -16.6398   21.5697 C   0  0  0  0  0  0  0  0  0  0  0  0
   10.1627  -16.5733   20.3433 O   0  0  0  0  0  0  0  0  0  0  0  0
   10.8259  -17.1911   22.4299 N   0  0  0  0  0  0  0  0  0  0  0  0
   11.7473  -18.2250   21.9354 C   0  0  1  0  0  0  0  0  0  0  0  0
   10.9069  -19.3278   21.2845 C   0  0  0  0  0  0  0  0  0  0  0  0
   11.8145  -20.3340   20.6428 C   0  0  0  0  0  0  0  0  0  0  0  0
   11.9075  -21.6052   21.4918 C   0  0  0  0  0  0  0  0  0  0  0  0
   12.7281  -22.6728   20.8357 C   0  0  0  0  0  0  0  0  0  0  0  0
   12.7927  -23.9016   21.5882 N   0  0  0  0  0  0  0  0  0  0  0  0
   12.7423  -17.7163   21.0034 C   0  0  0  0  0  0  0  0  0  0  0  0
   12.4854  -17.3198   19.8441 O   0  0  0  0  0  0  0  0  0  0  0  0
   14.0762  -17.6435   21.3789 O   0  0  0  0  0  0  0  0  0  0  0  0
  2  1  1  1
  3  2  1  0
  3  4  1  0
  4  9  2  0
  4  5  1  0
  5  6  2  0
  6  7  1  0
  8  7  2  0
  9  8  1  0
 10  2  1  0
 11 10  2  0
 12 13  1  0
 13 14  1  0
 15 14  1  0
 16 15  1  1
 16 17  1  0
 17 10  1  0
 18 16  1  0
 18 20  1  0
 19 18  2  0
 21 20  1  0
 21 27  1  0
 21 22  1  6
 23 22  1  0
 24 23  1  0
 25 24  1  0
 26 25  1  0
 27 29  1  0
 28 27  2  0
M  END
$$$$
