FMK.pdb
     RDKit          3D

 29 29  0  0  1  0  0  0  0  0999 V2000
    5.2750  -15.7783   21.6725 N   0  0  0  0  0  0  0  0  0  0  0  0
    6.5682  -16.3314   21.9135 C   0  0  1  0  0  0  0  0  0  0  0  0
    7.4101  -16.4413   20.6654 C   0  0  0  0  0  0  0  0  0  0  0  0
    7.5480  -15.1108   20.0694 C   0  0  0  0  0  0  0  0  0  0  0  0
    7.9953  -14.0697   20.8555 C   0  0  0  0  0  0  0  0  0  0  0  0
    8.1329  -12.8010   20.3143 C   0  0  0  0  0  0  0  0  0  0  0  0
    7.8304  -12.5465   18.9919 C   0  0  0  0  0  0  0  0  0  0  0  0
    7.3814  -13.5894   18.2013 C   0  0  0  0  0  0  0  0  0  0  0  0
    7.2541  -14.8390   18.7637 C   0  0  0  0  0  0  0  0  0  0  0  0
    7.3561  -15.4539   22.8569 C   0  0  0  0  0  0  0  0  0  0  0  0
    7.4548  -14.2137   22.6450 O   0  0  0  0  0  0  0  0  0  0  0  0
    7.2607  -11.5586   27.1766 C   0  0  0  0  0  0  0  0  0  0  0  0
    6.5186  -13.1875   27.5014 S   0  0  0  0  0  0  0  0  0  0  0  0
    6.8095  -14.2588   26.0945 C   0  0  0  0  0  0  0  0  0  0  0  0
    8.0398  -14.0118   25.3395 C   0  0  0  0  0  0  0  0  0  0  0  0
    8.8775  -15.1470   24.8652 C   0  0  2  0  0  0  0  0  0  0  0  0
    7.9985  -15.9981   23.9948 N   0  0  0  0  0  0  0  0  0  0  0  0
    9.5290  -15.9977   25.8380 C   0  0  0  0  0  0  0  0  0  0  0  0
    8.7929  -16.5762   26.6985 O   0  0  0  0  0  0  0  0  0  0  0  0
   10.9203  -16.2836   25.9476 N   0  0  0  0  0  0  0  0  0  0  0  0
   11.5097  -17.4063   25.2028 C   0  0  1  0  0  0  0  0  0  0  0  0
   11.2166  -17.1860   23.7156 C   0  0  0  0  0  0  0  0  0  0  0  0
   11.7152  -18.3611   22.9292 C   0  0  0  0  0  0  0  0  0  0  0  0
   11.5051  -18.1423   21.4280 C   0  0  0  0  0  0  0  0  0  0  0  0
   11.8484  -19.3555   20.6193 C   0  0  0  0  0  0  0  0  0  0  0  0
   11.7896  -19.1403   19.1943 N   0  0  0  0  0  0  0  0  0  0  0  0
   12.9383  -17.5653   25.4292 C   0  0  0  0  0  0  0  0  0  0  0  0
   13.7579  -16.6194   25.4561 O   0  0  0  0  0  0  0  0  0  0  0  0
   13.4748  -18.8281   25.6371 O   0  0  0  0  0  0  0  0  0  0  0  0
  2  1  1  6
  3  2  1  0
  3  4  1  0
  4  9  2  0
  4  5  1  0
  5  6  2  0
  6  7  1  0
  8  7  2  0
  9  8  1  0
 10  2  1  0
 11 10  2  0
 12 13  1  0
 13 14  1  0
 15 14  1  0
 16 15  1  1
 16 17  1  0
 17 10  1  0
 18 16  1  0
 18 20  1  0
 19 18  2  0
 21 20  1  0
 21 27  1  0
 21 22  1  6
 23 22  1  0
 24 23  1  0
 25 24  1  0
 26 25  1  0
 27 29  1  0
 28 27  2  0
M  END
$$$$
