FMK.pdb
     RDKit          3D

 29 29  0  0  1  0  0  0  0  0999 V2000
    7.5768  -16.2926   19.8548 N   0  0  0  0  0  0  0  0  0  0  0  0
    7.1818  -16.9453   21.0608 C   0  0  1  0  0  0  0  0  0  0  0  0
    7.3535  -18.4442   21.0095 C   0  0  0  0  0  0  0  0  0  0  0  0
    6.8772  -19.0180   22.2697 C   0  0  0  0  0  0  0  0  0  0  0  0
    5.5210  -19.1827   22.4585 C   0  0  0  0  0  0  0  0  0  0  0  0
    5.0458  -19.7227   23.6434 C   0  0  0  0  0  0  0  0  0  0  0  0
    5.9040  -20.1057   24.6543 C   0  0  0  0  0  0  0  0  0  0  0  0
    7.2650  -19.9415   24.4673 C   0  0  0  0  0  0  0  0  0  0  0  0
    7.7099  -19.4032   23.2814 C   0  0  0  0  0  0  0  0  0  0  0  0
    8.0294  -16.4805   22.2210 C   0  0  0  0  0  0  0  0  0  0  0  0
    9.2844  -16.6098   22.1887 O   0  0  0  0  0  0  0  0  0  0  0  0
    5.4462  -12.2099   26.4574 C   0  0  0  0  0  0  0  0  0  0  0  0
    7.2375  -11.9932   26.6896 S   0  0  0  0  0  0  0  0  0  0  0  0
    8.0770  -13.5146   26.2518 C   0  0  0  0  0  0  0  0  0  0  0  0
    7.5198  -14.2552   25.1178 C   0  0  0  0  0  0  0  0  0  0  0  0
    8.2898  -15.3597   24.4833 C   0  0  2  0  0  0  0  0  0  0  0  0
    7.4402  -15.8919   23.3655 N   0  0  0  0  0  0  0  0  0  0  0  0
    8.7315  -16.4708   25.2987 C   0  0  0  0  0  0  0  0  0  0  0  0
    8.2665  -17.6220   25.0238 O   0  0  0  0  0  0  0  0  0  0  0  0
    9.6507  -16.4378   26.3866 N   0  0  0  0  0  0  0  0  0  0  0  0
   10.4564  -17.6232   26.7156 C   0  0  1  0  0  0  0  0  0  0  0  0
   11.3413  -17.9377   25.5055 C   0  0  0  0  0  0  0  0  0  0  0  0
   12.2246  -19.1067   25.8234 C   0  0  0  0  0  0  0  0  0  0  0  0
   13.1484  -19.4293   24.6453 C   0  0  0  0  0  0  0  0  0  0  0  0
   14.1118  -20.5326   24.9589 C   0  0  0  0  0  0  0  0  0  0  0  0
   15.1268  -20.7222   23.9519 N   0  0  0  0  0  0  0  0  0  0  0  0
   11.2625  -17.4608   27.9161 C   0  0  0  0  0  0  0  0  0  0  0  0
   11.7254  -16.3673   28.3123 O   0  0  0  0  0  0  0  0  0  0  0  0
   11.5620  -18.5599   28.7085 O   0  0  0  0  0  0  0  0  0  0  0  0
  2  1  1  6
  3  2  1  0
  3  4  1  0
  4  9  2  0
  4  5  1  0
  5  6  2  0
  6  7  1  0
  8  7  2  0
  9  8  1  0
 10  2  1  0
 11 10  2  0
 12 13  1  0
 13 14  1  0
 15 14  1  0
 16 15  1  1
 16 17  1  0
 17 10  1  0
 18 16  1  0
 18 20  1  0
 19 18  2  0
 21 20  1  0
 21 27  1  0
 21 22  1  6
 23 22  1  0
 24 23  1  0
 25 24  1  0
 26 25  1  0
 27 29  1  0
 28 27  2  0
M  END
$$$$
