SGV.pdb
     RDKit          3D

 18 17  0  0  1  0  0  0  0  0999 V2000
   24.1558  -19.6146  -16.1695 O   0  0  0  0  0  0  0  0  0  0  0  0
   23.2053  -20.4300  -15.5692 C   0  0  0  0  0  0  0  0  0  0  0  0
   23.8906  -21.5462  -14.8072 C   0  0  2  0  0  0  0  0  0  0  0  0
   22.8919  -22.4191  -14.2538 N   0  0  0  0  0  0  0  0  0  0  0  0
   24.6823  -20.8805  -13.7128 C   0  0  0  0  0  0  0  0  0  0  0  0
   24.0978  -20.0591  -12.9623 O   0  0  0  0  0  0  0  0  0  0  0  0
   26.0508  -21.1628  -13.5222 N   0  0  0  0  0  0  0  0  0  0  0  0
   26.8930  -20.4995  -12.5605 C   0  0  0  0  0  0  0  0  0  0  0  0
   26.5773  -20.9448  -11.1923 C   0  0  0  0  0  0  0  0  0  0  0  0
   26.4517  -22.2071  -11.0467 O   0  0  0  0  0  0  0  0  0  0  0  0
   26.4428  -20.1746   -6.2988 C   0  0  0  0  0  0  0  0  0  0  0  0
   26.7799  -19.6822   -7.7046 C   0  0  1  0  0  0  0  0  0  0  0  0
   28.2501  -19.5080   -7.8982 C   0  0  0  0  0  0  0  0  0  0  0  0
   26.1722  -20.6241   -8.7534 C   0  0  2  0  0  0  0  0  0  0  0  0
   26.4203  -20.0789  -10.0960 N   0  0  0  0  0  0  0  0  0  0  0  0
   24.7099  -20.6009   -8.5299 C   0  0  0  0  0  0  0  0  0  0  0  0
   24.0179  -19.8051   -9.2021 O   0  0  0  0  0  0  0  0  0  0  0  0
   24.0721  -21.4146   -7.6156 O   0  0  0  0  0  0  0  0  0  0  0  0
  1  2  1  0
  3  2  1  0
  3  5  1  0
  3  4  1  1
  5  7  1  0
  6  5  2  0
  7  8  1  0
  9 10  2  0
  9  8  1  0
 12 11  1  1
 13 12  1  0
 14 12  1  0
 14 16  1  0
 14 15  1  6
 15  9  1  0
 16 18  1  0
 17 16  2  0
M  END
$$$$
