SGV.pdb
     RDKit          3D

 18 17  0  0  1  0  0  0  0  0999 V2000
   17.0231  -15.5713  -20.0755 O   0  0  0  0  0  0  0  0  0  0  0  0
   17.7400  -14.3818  -20.0717 C   0  0  0  0  0  0  0  0  0  0  0  0
   17.2270  -13.4740  -18.9722 C   0  0  2  0  0  0  0  0  0  0  0  0
   15.8617  -13.1227  -19.2520 N   0  0  0  0  0  0  0  0  0  0  0  0
   18.1071  -12.2523  -18.9944 C   0  0  0  0  0  0  0  0  0  0  0  0
   17.8603  -11.3486  -19.8322 O   0  0  0  0  0  0  0  0  0  0  0  0
   19.1885  -12.1113  -18.1003 N   0  0  0  0  0  0  0  0  0  0  0  0
   20.0882  -10.9869  -18.0811 C   0  0  0  0  0  0  0  0  0  0  0  0
   20.1912  -10.4212  -16.7249 C   0  0  0  0  0  0  0  0  0  0  0  0
   19.2160  -10.6936  -15.9468 O   0  0  0  0  0  0  0  0  0  0  0  0
   22.4456  -11.4255  -14.1469 C   0  0  0  0  0  0  0  0  0  0  0  0
   22.6319   -9.9138  -14.2590 C   0  0  1  0  0  0  0  0  0  0  0  0
   23.8589   -9.5576  -15.0316 C   0  0  0  0  0  0  0  0  0  0  0  0
   21.3727   -9.2699  -14.8559 C   0  0  2  0  0  0  0  0  0  0  0  0
   21.2675   -9.6364  -16.2757 N   0  0  0  0  0  0  0  0  0  0  0  0
   21.5877   -7.8075  -14.7913 C   0  0  0  0  0  0  0  0  0  0  0  0
   22.0139   -7.2233  -15.8117 O   0  0  0  0  0  0  0  0  0  0  0  0
   21.3409   -7.0565  -13.6600 O   0  0  0  0  0  0  0  0  0  0  0  0
  1  2  1  0
  3  2  1  0
  3  5  1  0
  3  4  1  6
  5  7  1  0
  6  5  2  0
  7  8  1  0
  9 10  2  0
  9  8  1  0
 12 11  1  6
 13 12  1  0
 14 12  1  0
 14 16  1  0
 14 15  1  6
 15  9  1  0
 16 18  1  0
 17 16  2  0
M  END
$$$$
