SGV.pdb
     RDKit          3D

 18 17  0  0  1  0  0  0  0  0999 V2000
   17.5846  -12.9304  -17.9048 O   0  0  0  0  0  0  0  0  0  0  0  0
   16.3589  -12.8851  -17.2535 C   0  0  0  0  0  0  0  0  0  0  0  0
   16.5222  -12.2416  -15.8913 C   0  0  2  0  0  0  0  0  0  0  0  0
   15.2676  -12.2969  -15.1924 N   0  0  0  0  0  0  0  0  0  0  0  0
   16.9263  -10.8140  -16.1492 C   0  0  0  0  0  0  0  0  0  0  0  0
   16.1559  -10.0831  -16.8213 O   0  0  0  0  0  0  0  0  0  0  0  0
   18.1401  -10.2946  -15.6535 N   0  0  0  0  0  0  0  0  0  0  0  0
   18.6654   -8.9951  -15.9843 C   0  0  0  0  0  0  0  0  0  0  0  0
   19.6052   -8.5308  -14.9494 C   0  0  0  0  0  0  0  0  0  0  0  0
   19.3837   -8.9777  -13.7739 O   0  0  0  0  0  0  0  0  0  0  0  0
   22.9723   -9.5170  -14.3905 C   0  0  0  0  0  0  0  0  0  0  0  0
   23.0188   -7.9970  -14.5310 C   0  0  1  0  0  0  0  0  0  0  0  0
   23.4393   -7.5748  -15.9000 C   0  0  0  0  0  0  0  0  0  0  0  0
   21.6661   -7.3889  -14.1348 C   0  0  2  0  0  0  0  0  0  0  0  0
   20.6833   -7.6622  -15.1934 N   0  0  0  0  0  0  0  0  0  0  0  0
   21.8705   -5.9244  -14.0884 C   0  0  0  0  0  0  0  0  0  0  0  0
   21.5238   -5.2437  -15.0786 O   0  0  0  0  0  0  0  0  0  0  0  0
   22.4252   -5.2726  -13.0057 O   0  0  0  0  0  0  0  0  0  0  0  0
  1  2  1  0
  3  2  1  0
  3  5  1  0
  3  4  1  6
  5  7  1  0
  6  5  2  0
  7  8  1  0
  9 10  2  0
  9  8  1  0
 12 11  1  6
 13 12  1  0
 14 12  1  0
 14 16  1  0
 14 15  1  6
 15  9  1  0
 16 18  1  0
 17 16  2  0
M  END
$$$$
