SGV.pdb
     RDKit          3D

 18 17  0  0  1  0  0  0  0  0999 V2000
   16.2928  -16.1532  -14.8896 O   0  0  0  0  0  0  0  0  0  0  0  0
   17.2896  -15.4845  -15.5881 C   0  0  0  0  0  0  0  0  0  0  0  0
   16.6742  -14.4160  -16.4689 C   0  0  2  0  0  0  0  0  0  0  0  0
   16.0075  -15.0461  -17.5753 N   0  0  0  0  0  0  0  0  0  0  0  0
   17.8173  -13.5626  -16.9513 C   0  0  0  0  0  0  0  0  0  0  0  0
   18.3065  -13.7977  -18.0849 O   0  0  0  0  0  0  0  0  0  0  0  0
   18.3380  -12.5186  -16.1592 N   0  0  0  0  0  0  0  0  0  0  0  0
   19.3840  -11.6218  -16.5787 C   0  0  0  0  0  0  0  0  0  0  0  0
   19.6817  -10.6351  -15.5262 C   0  0  0  0  0  0  0  0  0  0  0  0
   18.9146  -10.6799  -14.5063 O   0  0  0  0  0  0  0  0  0  0  0  0
   22.7035  -10.5435  -13.4702 C   0  0  0  0  0  0  0  0  0  0  0  0
   22.5401   -9.1383  -14.0457 C   0  0  1  0  0  0  0  0  0  0  0  0
   23.4558   -8.8971  -15.2001 C   0  0  0  0  0  0  0  0  0  0  0  0
   21.0720   -8.8878  -14.4176 C   0  0  2  0  0  0  0  0  0  0  0  0
   20.7258   -9.6964  -15.5956 N   0  0  0  0  0  0  0  0  0  0  0  0
   20.9848   -7.4657  -14.8161 C   0  0  0  0  0  0  0  0  0  0  0  0
   21.0549   -7.1834  -16.0324 O   0  0  0  0  0  0  0  0  0  0  0  0
   20.8300   -6.4353  -13.9110 O   0  0  0  0  0  0  0  0  0  0  0  0
  1  2  1  0
  3  2  1  0
  3  5  1  0
  3  4  1  6
  5  7  1  0
  6  5  2  0
  7  8  1  0
  9 10  2  0
  9  8  1  0
 12 11  1  6
 13 12  1  0
 14 12  1  0
 14 16  1  0
 14 15  1  6
 15  9  1  0
 16 18  1  0
 17 16  2  0
M  END
$$$$
