SGV.pdb
     RDKit          3D

 18 17  0  0  1  0  0  0  0  0999 V2000
   16.1477  -14.5851  -18.9545 O   0  0  0  0  0  0  0  0  0  0  0  0
   16.3347  -13.2111  -19.0313 C   0  0  0  0  0  0  0  0  0  0  0  0
   17.7786  -12.9055  -19.3748 C   0  0  2  0  0  0  0  0  0  0  0  0
   18.6382  -13.6800  -18.5222 N   0  0  0  0  0  0  0  0  0  0  0  0
   17.9652  -11.4325  -19.1234 C   0  0  0  0  0  0  0  0  0  0  0  0
   17.2875  -10.6168  -19.7980 O   0  0  0  0  0  0  0  0  0  0  0  0
   18.8771  -10.9637  -18.1553 N   0  0  0  0  0  0  0  0  0  0  0  0
   19.0854   -9.5744  -17.8379 C   0  0  0  0  0  0  0  0  0  0  0  0
   19.4581   -9.4105  -16.4222 C   0  0  0  0  0  0  0  0  0  0  0  0
   18.6046   -9.8513  -15.5808 O   0  0  0  0  0  0  0  0  0  0  0  0
   21.9136  -11.1675  -14.5627 C   0  0  0  0  0  0  0  0  0  0  0  0
   22.2530   -9.6949  -14.3426 C   0  0  1  0  0  0  0  0  0  0  0  0
   23.3920   -9.2497  -15.1993 C   0  0  0  0  0  0  0  0  0  0  0  0
   21.0041   -8.8280  -14.5553 C   0  0  2  0  0  0  0  0  0  0  0  0
   20.6566   -8.8210  -15.9837 N   0  0  0  0  0  0  0  0  0  0  0  0
   21.3925   -7.4486  -14.1878 C   0  0  0  0  0  0  0  0  0  0  0  0
   21.7081   -6.6558  -15.1021 O   0  0  0  0  0  0  0  0  0  0  0  0
   21.4237   -6.9939  -12.8851 O   0  0  0  0  0  0  0  0  0  0  0  0
  1  2  1  0
  3  2  1  0
  3  5  1  0
  3  4  1  1
  5  7  1  0
  6  5  2  0
  7  8  1  0
  9 10  2  0
  9  8  1  0
 12 11  1  6
 13 12  1  0
 14 12  1  0
 14 16  1  0
 14 15  1  6
 15  9  1  0
 16 18  1  0
 17 16  2  0
M  END
$$$$
