LQK.pdb
     RDKit          3D

 27 26  0  0  1  0  0  0  0  0999 V2000
   29.1494  -20.7280  -12.7069 C   0  0  0  0  0  0  0  0  0  0  0  0
   27.9220  -21.2391  -11.9867 C   0  0  1  0  0  0  0  0  0  0  0  0
   28.1727  -21.4458  -10.5138 C   0  0  0  0  0  0  0  0  0  0  0  0
   26.8083  -20.2205  -12.1131 C   0  0  0  0  0  0  0  0  0  0  0  0
   25.5531  -20.8304  -11.5669 C   0  0  2  0  0  0  0  0  0  0  0  0
   25.6361  -22.2396  -11.3322 N   0  0  0  0  0  0  0  0  0  0  0  0
   24.3869  -20.5153  -12.4309 C   0  0  0  0  0  0  0  0  0  0  0  0
   24.1657  -19.3455  -12.8181 O   0  0  0  0  0  0  0  0  0  0  0  0
   25.2302  -24.0425  -15.8253 N   0  0  0  0  0  0  0  0  0  0  0  0
   24.2435  -23.1461  -16.3037 C   0  0  0  0  0  0  0  0  0  0  0  0
   24.3809  -22.5812  -17.3981 O   0  0  0  0  0  0  0  0  0  0  0  0
   23.0503  -22.8999  -15.4698 C   0  0  0  0  0  0  0  0  0  0  0  0
   22.8353  -21.4781  -15.0988 C   0  0  0  0  0  0  0  0  0  0  0  0
   22.3566  -21.2773  -13.6796 C   0  0  2  0  0  0  0  0  0  0  0  0
   23.5246  -21.5760  -12.8097 N   0  0  0  0  0  0  0  0  0  0  0  0
   21.3608  -22.3080  -13.3413 C   0  0  0  0  0  0  0  0  0  0  0  0
   21.6961  -23.5400  -13.3522 O   0  0  0  0  0  0  0  0  0  0  0  0
   20.0455  -21.9872  -12.9981 N   0  0  0  0  0  0  0  0  0  0  0  0
   19.1097  -22.9999  -12.4688 C   0  0  1  0  0  0  0  0  0  0  0  0
   19.3653  -23.0164  -10.9822 C   0  0  0  0  0  0  0  0  0  0  0  0
   18.4726  -23.9222  -10.2088 C   0  0  0  0  0  0  0  0  0  0  0  0
   18.8282  -23.9054   -8.7516 C   0  0  0  0  0  0  0  0  0  0  0  0
   17.9129  -24.8189   -7.9826 C   0  0  0  0  0  0  0  0  0  0  0  0
   18.2597  -24.8232   -6.5774 N   0  0  0  0  0  0  0  0  0  0  0  0
   17.7246  -22.6878  -12.8154 C   0  0  0  0  0  0  0  0  0  0  0  0
   17.3967  -21.5294  -13.4887 O   0  0  0  0  0  0  0  0  0  0  0  0
   16.8005  -23.4707  -12.5061 O   0  0  0  0  0  0  0  0  0  0  0  0
  2  4  1  0
  2  1  1  6
  3  2  1  0
  4  5  1  0
  5  6  1  6
  7  5  1  0
  8  7  2  0
 10  9  1  0
 10 12  1  0
 11 10  2  0
 13 12  1  0
 14 13  1  6
 14 15  1  0
 15  7  1  0
 16 18  1  0
 16 14  1  0
 17 16  2  0
 19 25  1  0
 19 18  1  0
 19 20  1  1
 20 21  1  0
 22 21  1  0
 23 22  1  0
 24 23  1  0
 25 26  1  0
 27 25  2  0
M  END
$$$$
