LQK.pdb
     RDKit          3D

 27 26  0  0  1  0  0  0  0  0999 V2000
   10.5341  -13.9697   -9.9346 C   0  0  0  0  0  0  0  0  0  0  0  0
   11.8086  -13.6660  -10.6897 C   0  0  1  0  0  0  0  0  0  0  0  0
   11.7454  -14.1342  -12.1220 C   0  0  0  0  0  0  0  0  0  0  0  0
   12.0280  -12.1677  -10.7172 C   0  0  0  0  0  0  0  0  0  0  0  0
   13.3292  -11.8986  -11.4101 C   0  0  2  0  0  0  0  0  0  0  0  0
   14.4716  -12.4634  -10.7593 N   0  0  0  0  0  0  0  0  0  0  0  0
   13.5244  -10.4433  -11.6325 C   0  0  0  0  0  0  0  0  0  0  0  0
   12.7067   -9.7761  -12.3059 O   0  0  0  0  0  0  0  0  0  0  0  0
   15.3478   -6.6363   -7.3424 N   0  0  0  0  0  0  0  0  0  0  0  0
   15.4629   -5.7701   -8.4571 C   0  0  0  0  0  0  0  0  0  0  0  0
   15.7158   -4.5673   -8.2987 O   0  0  0  0  0  0  0  0  0  0  0  0
   15.2740   -6.3318   -9.8094 C   0  0  0  0  0  0  0  0  0  0  0  0
   15.0072   -7.7923   -9.8429 C   0  0  0  0  0  0  0  0  0  0  0  0
   14.8495   -8.3579  -11.2353 C   0  0  2  0  0  0  0  0  0  0  0  0
   14.6650   -9.8228  -11.0613 N   0  0  0  0  0  0  0  0  0  0  0  0
   16.1169   -8.2221  -11.9725 C   0  0  0  0  0  0  0  0  0  0  0  0
   17.1671   -8.8047  -11.5388 O   0  0  0  0  0  0  0  0  0  0  0  0
   16.2170   -7.4751  -13.1483 N   0  0  0  0  0  0  0  0  0  0  0  0
   17.4841   -7.3724  -13.9002 C   0  0  1  0  0  0  0  0  0  0  0  0
   17.0624   -7.1966  -15.3378 C   0  0  0  0  0  0  0  0  0  0  0  0
   18.1726   -6.8748  -16.2756 C   0  0  0  0  0  0  0  0  0  0  0  0
   18.1335   -7.7723  -17.4768 C   0  0  0  0  0  0  0  0  0  0  0  0
   19.2320   -7.4042  -18.4367 C   0  0  0  0  0  0  0  0  0  0  0  0
   19.1151   -8.1660  -19.6618 N   0  0  0  0  0  0  0  0  0  0  0  0
   18.3192   -6.2806  -13.4034 C   0  0  0  0  0  0  0  0  0  0  0  0
   17.7735   -5.2122  -12.7226 O   0  0  0  0  0  0  0  0  0  0  0  0
   19.5556   -6.2925  -13.5868 O   0  0  0  0  0  0  0  0  0  0  0  0
  2  4  1  0
  2  1  1  6
  3  2  1  0
  4  5  1  0
  5  6  1  1
  7  5  1  0
  8  7  2  0
 10  9  1  0
 10 12  1  0
 11 10  2  0
 13 12  1  0
 14 13  1  1
 14 15  1  0
 15  7  1  0
 16 18  1  0
 16 14  1  0
 17 16  2  0
 19 25  1  0
 19 18  1  0
 19 20  1  6
 20 21  1  0
 22 21  1  0
 23 22  1  0
 24 23  1  0
 25 26  1  0
 27 25  2  0
M  END
$$$$
