LQK.pdb
     RDKit          3D

 27 26  0  0  1  0  0  0  0  0999 V2000
   27.3432  -19.3115  -17.0278 C   0  0  0  0  0  0  0  0  0  0  0  0
   26.7656  -20.4165  -16.1723 C   0  0  1  0  0  0  0  0  0  0  0  0
   27.7974  -21.4573  -15.8160 C   0  0  0  0  0  0  0  0  0  0  0  0
   26.2557  -19.8279  -14.8733 C   0  0  0  0  0  0  0  0  0  0  0  0
   25.5499  -20.9106  -14.1149 C   0  0  2  0  0  0  0  0  0  0  0  0
   25.2577  -22.0782  -14.8888 N   0  0  0  0  0  0  0  0  0  0  0  0
   24.3167  -20.3931  -13.4692 C   0  0  0  0  0  0  0  0  0  0  0  0
   24.3167  -19.3020  -12.8553 O   0  0  0  0  0  0  0  0  0  0  0  0
   20.1286  -18.4559  -16.4111 N   0  0  0  0  0  0  0  0  0  0  0  0
   19.4032  -18.4675  -15.1947 C   0  0  0  0  0  0  0  0  0  0  0  0
   18.3359  -17.8465  -15.0900 O   0  0  0  0  0  0  0  0  0  0  0  0
   19.9473  -19.2340  -14.0562 C   0  0  0  0  0  0  0  0  0  0  0  0
   21.2868  -19.8298  -14.2929 C   0  0  0  0  0  0  0  0  0  0  0  0
   21.8477  -20.5763  -13.1047 C   0  0  2  0  0  0  0  0  0  0  0  0
   23.1321  -21.1675  -13.5644 N   0  0  0  0  0  0  0  0  0  0  0  0
   20.9898  -21.7323  -12.7948 C   0  0  0  0  0  0  0  0  0  0  0  0
   21.0798  -22.7941  -13.4983 O   0  0  0  0  0  0  0  0  0  0  0  0
   20.0715  -21.7161  -11.7426 N   0  0  0  0  0  0  0  0  0  0  0  0
   19.2536  -22.8985  -11.4046 C   0  0  1  0  0  0  0  0  0  0  0  0
   19.2253  -22.9252   -9.8966 C   0  0  0  0  0  0  0  0  0  0  0  0
   18.5019  -24.0861   -9.3097 C   0  0  0  0  0  0  0  0  0  0  0  0
   18.5315  -24.0311   -7.8110 C   0  0  0  0  0  0  0  0  0  0  0  0
   17.8100  -25.2180   -7.2328 C   0  0  0  0  0  0  0  0  0  0  0  0
   17.8497  -25.1840   -5.7864 N   0  0  0  0  0  0  0  0  0  0  0  0
   17.9244  -22.8255  -12.0080 C   0  0  0  0  0  0  0  0  0  0  0  0
   17.2229  -23.9661  -12.3391 O   0  0  0  0  0  0  0  0  0  0  0  0
   17.3914  -21.7186  -12.2387 O   0  0  0  0  0  0  0  0  0  0  0  0
  2  4  1  0
  2  1  1  6
  3  2  1  0
  4  5  1  0
  5  6  1  6
  7  5  1  0
  8  7  2  0
 10  9  1  0
 10 12  1  0
 11 10  2  0
 13 12  1  0
 14 13  1  6
 14 15  1  0
 15  7  1  0
 16 18  1  0
 16 14  1  0
 17 16  2  0
 19 25  1  0
 19 18  1  0
 19 20  1  1
 20 21  1  0
 22 21  1  0
 23 22  1  0
 24 23  1  0
 25 26  1  0
 27 25  2  0
M  END
$$$$
