LQK.pdb
     RDKit          3D

 27 26  0  0  1  0  0  0  0  0999 V2000
   23.0652  -10.0330  -16.2174 C   0  0  0  0  0  0  0  0  0  0  0  0
   22.2774   -9.9775  -14.9279 C   0  0  1  0  0  0  0  0  0  0  0  0
   23.1734   -9.9757  -13.7146 C   0  0  0  0  0  0  0  0  0  0  0  0
   21.4700   -8.6966  -14.8906 C   0  0  0  0  0  0  0  0  0  0  0  0
   20.6256   -8.7125  -13.6527 C   0  0  2  0  0  0  0  0  0  0  0  0
   19.9180   -9.9374  -13.4373 N   0  0  0  0  0  0  0  0  0  0  0  0
   19.6887   -7.5604  -13.6310 C   0  0  0  0  0  0  0  0  0  0  0  0
   20.0873   -6.3975  -13.8677 O   0  0  0  0  0  0  0  0  0  0  0  0
   13.6901   -8.4203  -14.9480 N   0  0  0  0  0  0  0  0  0  0  0  0
   13.7190   -7.0175  -14.7549 C   0  0  0  0  0  0  0  0  0  0  0  0
   12.7255   -6.3237  -15.0147 O   0  0  0  0  0  0  0  0  0  0  0  0
   14.9577   -6.4018  -14.2390 C   0  0  0  0  0  0  0  0  0  0  0  0
   16.0686   -7.3560  -13.9922 C   0  0  0  0  0  0  0  0  0  0  0  0
   17.3403   -6.7064  -13.4976 C   0  0  2  0  0  0  0  0  0  0  0  0
   18.3240   -7.8090  -13.3344 N   0  0  0  0  0  0  0  0  0  0  0  0
   17.1329   -6.1813  -12.1376 C   0  0  0  0  0  0  0  0  0  0  0  0
   17.1951   -6.9724  -11.1373 O   0  0  0  0  0  0  0  0  0  0  0  0
   16.8726   -4.8310  -11.8934 N   0  0  0  0  0  0  0  0  0  0  0  0
   16.4928   -4.3413  -10.5528 C   0  0  1  0  0  0  0  0  0  0  0  0
   17.4245   -3.1843  -10.2903 C   0  0  0  0  0  0  0  0  0  0  0  0
   17.1329   -2.4224   -9.0454 C   0  0  0  0  0  0  0  0  0  0  0  0
   18.0018   -1.2034   -8.9499 C   0  0  0  0  0  0  0  0  0  0  0  0
   17.7042   -0.4510   -7.6815 C   0  0  0  0  0  0  0  0  0  0  0  0
   18.5667    0.7050   -7.5601 N   0  0  0  0  0  0  0  0  0  0  0  0
   15.0797   -3.9725  -10.4935 C   0  0  0  0  0  0  0  0  0  0  0  0
   14.4045   -3.9084   -9.2923 O   0  0  0  0  0  0  0  0  0  0  0  0
   14.4485   -3.7055  -11.5389 O   0  0  0  0  0  0  0  0  0  0  0  0
  2  4  1  0
  2  1  1  6
  3  2  1  0
  4  5  1  0
  5  6  1  6
  7  5  1  0
  8  7  2  0
 10  9  1  0
 10 12  1  0
 11 10  2  0
 13 12  1  0
 14 13  1  1
 14 15  1  0
 15  7  1  0
 16 18  1  0
 16 14  1  0
 17 16  2  0
 19 25  1  0
 19 18  1  0
 19 20  1  6
 20 21  1  0
 22 21  1  0
 23 22  1  0
 24 23  1  0
 25 26  1  0
 27 25  2  0
M  END
$$$$
