LQK.pdb
     RDKit          3D

 27 26  0  0  1  0  0  0  0  0999 V2000
   26.9732  -16.9171  -18.0041 C   0  0  0  0  0  0  0  0  0  0  0  0
   25.7213  -17.7652  -18.0171 C   0  0  1  0  0  0  0  0  0  0  0  0
   25.8133  -18.8983  -19.0083 C   0  0  0  0  0  0  0  0  0  0  0  0
   25.5217  -18.3823  -16.6484 C   0  0  0  0  0  0  0  0  0  0  0  0
   24.3504  -19.3140  -16.7223 C   0  0  2  0  0  0  0  0  0  0  0  0
   23.1554  -18.7192  -17.2379 N   0  0  0  0  0  0  0  0  0  0  0  0
   24.0887  -19.9478  -15.4049 C   0  0  0  0  0  0  0  0  0  0  0  0
   25.0105  -20.4873  -14.7518 O   0  0  0  0  0  0  0  0  0  0  0  0
   20.2417  -17.6359  -11.3186 N   0  0  0  0  0  0  0  0  0  0  0  0
   20.5916  -18.8424  -10.6645 C   0  0  0  0  0  0  0  0  0  0  0  0
   20.2754  -19.0341   -9.4816 O   0  0  0  0  0  0  0  0  0  0  0  0
   21.3409  -19.8641  -11.4224 C   0  0  0  0  0  0  0  0  0  0  0  0
   21.7703  -19.4393  -12.7790 C   0  0  0  0  0  0  0  0  0  0  0  0
   22.4950  -20.5112  -13.5596 C   0  0  2  0  0  0  0  0  0  0  0  0
   22.7630  -19.9277  -14.9005 N   0  0  0  0  0  0  0  0  0  0  0  0
   21.5849  -21.6404  -13.8146 C   0  0  0  0  0  0  0  0  0  0  0  0
   20.5971  -21.4903  -14.6097 O   0  0  0  0  0  0  0  0  0  0  0  0
   21.7646  -22.8900  -13.2171 N   0  0  0  0  0  0  0  0  0  0  0  0
   20.8054  -23.9948  -13.4190 C   0  0  1  0  0  0  0  0  0  0  0  0
   21.3954  -25.1568  -12.6594 C   0  0  0  0  0  0  0  0  0  0  0  0
   20.5809  -26.4020  -12.6985 C   0  0  0  0  0  0  0  0  0  0  0  0
   21.2567  -27.5059  -11.9404 C   0  0  0  0  0  0  0  0  0  0  0  0
   20.3790  -28.7274  -11.9080 C   0  0  0  0  0  0  0  0  0  0  0  0
   21.0253  -29.8006  -11.1830 N   0  0  0  0  0  0  0  0  0  0  0  0
   19.4623  -23.6317  -12.9715 C   0  0  0  0  0  0  0  0  0  0  0  0
   18.3388  -24.0869  -13.6299 O   0  0  0  0  0  0  0  0  0  0  0  0
   19.3024  -22.8949  -11.9745 O   0  0  0  0  0  0  0  0  0  0  0  0
  2  4  1  0
  2  1  1  1
  3  2  1  0
  4  5  1  0
  5  6  1  1
  7  5  1  0
  8  7  2  0
 10  9  1  0
 10 12  1  0
 11 10  2  0
 13 12  1  0
 14 13  1  1
 14 15  1  0
 15  7  1  0
 16 18  1  0
 16 14  1  0
 17 16  2  0
 19 25  1  0
 19 18  1  0
 19 20  1  1
 20 21  1  0
 22 21  1  0
 23 22  1  0
 24 23  1  0
 25 26  1  0
 27 25  2  0
M  END
$$$$
