LQK.pdb
     RDKit          3D

 27 26  0  0  1  0  0  0  0  0999 V2000
   18.7108  -16.1037  -16.2971 C   0  0  0  0  0  0  0  0  0  0  0  0
   18.4227  -14.7793  -16.9675 C   0  0  1  0  0  0  0  0  0  0  0  0
   16.9961  -14.6844  -17.4480 C   0  0  0  0  0  0  0  0  0  0  0  0
   18.6356  -13.6584  -15.9715 C   0  0  0  0  0  0  0  0  0  0  0  0
   18.2902  -12.3643  -16.6436 C   0  0  2  0  0  0  0  0  0  0  0  0
   19.2255  -11.9519  -17.6449 N   0  0  0  0  0  0  0  0  0  0  0  0
   18.0860  -11.2828  -15.6463 C   0  0  0  0  0  0  0  0  0  0  0  0
   17.3026  -11.4319  -14.6813 O   0  0  0  0  0  0  0  0  0  0  0  0
   22.7124   -7.5238  -14.3774 N   0  0  0  0  0  0  0  0  0  0  0  0
   22.0852   -7.4014  -15.6414 C   0  0  0  0  0  0  0  0  0  0  0  0
   22.6892   -6.8996  -16.6001 O   0  0  0  0  0  0  0  0  0  0  0  0
   20.6976   -7.8834  -15.7901 C   0  0  0  0  0  0  0  0  0  0  0  0
   20.1243   -8.5090  -14.5714 C   0  0  0  0  0  0  0  0  0  0  0  0
   18.7183   -9.0331  -14.7512 C   0  0  2  0  0  0  0  0  0  0  0  0
   18.8030  -10.0703  -15.8130 N   0  0  0  0  0  0  0  0  0  0  0  0
   17.8645   -7.9778  -15.3218 C   0  0  0  0  0  0  0  0  0  0  0  0
   17.7185   -7.8972  -16.5878 O   0  0  0  0  0  0  0  0  0  0  0  0
   17.1929   -7.0507  -14.5217 N   0  0  0  0  0  0  0  0  0  0  0  0
   16.3903   -5.9563  -15.1042 C   0  0  1  0  0  0  0  0  0  0  0  0
   15.0384   -6.0822  -14.4470 C   0  0  0  0  0  0  0  0  0  0  0  0
   14.0521   -5.0435  -14.8518 C   0  0  0  0  0  0  0  0  0  0  0  0
   12.7821   -5.1781  -14.0650 C   0  0  0  0  0  0  0  0  0  0  0  0
   11.7775   -4.1548  -14.5205 C   0  0  0  0  0  0  0  0  0  0  0  0
   10.5490   -4.2748  -13.7646 N   0  0  0  0  0  0  0  0  0  0  0  0
   17.0190   -4.6541  -14.8918 C   0  0  0  0  0  0  0  0  0  0  0  0
   16.7074   -3.5689  -15.6842 O   0  0  0  0  0  0  0  0  0  0  0  0
   17.8593   -4.4956  -13.9800 O   0  0  0  0  0  0  0  0  0  0  0  0
  2  4  1  0
  2  1  1  1
  3  2  1  0
  4  5  1  0
  5  6  1  6
  7  5  1  0
  8  7  2  0
 10  9  1  0
 10 12  1  0
 11 10  2  0
 13 12  1  0
 14 13  1  6
 14 15  1  0
 15  7  1  0
 16 18  1  0
 16 14  1  0
 17 16  2  0
 19 25  1  0
 19 18  1  0
 19 20  1  1
 20 21  1  0
 22 21  1  0
 23 22  1  0
 24 23  1  0
 25 26  1  0
 27 25  2  0
M  END
$$$$
