FKY.pdb
     RDKit          3D

 33 34  0  0  1  0  0  0  0  0999 V2000
   20.0706  -19.5065   28.3835 N   0  0  0  0  0  0  0  0  0  0  0  0
   19.4236  -20.7494   28.6826 C   0  0  1  0  0  0  0  0  0  0  0  0
   19.9684  -21.4066   29.9223 C   0  0  0  0  0  0  0  0  0  0  0  0
   21.3032  -21.9686   29.5951 C   0  0  0  0  0  0  0  0  0  0  0  0
   22.4161  -21.3561   30.0840 C   0  0  0  0  0  0  0  0  0  0  0  0
   23.6585  -21.8585   29.7939 C   0  0  0  0  0  0  0  0  0  0  0  0
   23.7843  -22.9701   29.0171 C   0  0  0  0  0  0  0  0  0  0  0  0
   22.6662  -23.5906   28.5222 C   0  0  0  0  0  0  0  0  0  0  0  0
   21.4284  -23.0822   28.8168 C   0  0  0  0  0  0  0  0  0  0  0  0
   17.9454  -20.6266   28.7749 C   0  0  0  0  0  0  0  0  0  0  0  0
   17.4529  -19.6552   29.3654 O   0  0  0  0  0  0  0  0  0  0  0  0
   17.0855  -21.6197   28.1881 N   0  0  0  0  0  0  0  0  0  0  0  0
   15.6450  -21.4733   28.1986 C   0  0  1  0  0  0  0  0  0  0  0  0
   15.1177  -21.5359   26.7614 C   0  0  0  0  0  0  0  0  0  0  0  0
   15.4449  -20.2980   26.0008 C   0  0  0  0  0  0  0  0  0  0  0  0
   14.9957  -20.4325   24.5728 C   0  0  0  0  0  0  0  0  0  0  0  0
   15.2879  -19.2177   23.7605 C   0  0  0  0  0  0  0  0  0  0  0  0
   14.8682  -19.4502   22.3860 N   0  0  0  0  0  0  0  0  0  0  0  0
   15.0656  -22.6296   28.9044 C   0  0  0  0  0  0  0  0  0  0  0  0
   15.5465  -23.7657   28.7193 O   0  0  0  0  0  0  0  0  0  0  0  0
   10.4392  -27.2015   34.9890 O   0  0  0  0  0  0  0  0  0  0  0  0
   10.9753  -26.1965   34.1664 C   0  0  0  0  0  0  0  0  0  0  0  0
   12.2621  -25.7397   34.3219 C   0  0  0  0  0  0  0  0  0  0  0  0
   12.8270  -24.7582   33.5397 C   0  0  0  0  0  0  0  0  0  0  0  0
   12.0731  -24.1881   32.5365 C   0  0  0  0  0  0  0  0  0  0  0  0
   12.6539  -23.1313   31.6894 C   0  0  0  0  0  0  0  0  0  0  0  0
   13.4547  -23.6578   30.5195 C   0  0  2  0  0  0  0  0  0  0  0  0
   13.9716  -22.4879   29.7925 N   0  0  0  0  0  0  0  0  0  0  0  0
   12.5888  -24.4135   29.5953 C   0  0  0  0  0  0  0  0  0  0  0  0
   12.3997  -25.7872   29.6797 O   0  0  0  0  0  0  0  0  0  0  0  0
   10.7680  -24.6386   32.3648 C   0  0  0  0  0  0  0  0  0  0  0  0
   10.2216  -25.6263   33.1630 C   0  0  0  0  0  0  0  0  0  0  0  0
   11.9805  -23.8171   28.6776 O   0  0  0  0  0  0  0  0  0  0  0  0
  2  1  1  1
  3  2  1  0
  3  4  1  0
  4  9  2  0
  5  6  2  0
  5  4  1  0
  6  7  1  0
  7  8  2  0
  9  8  1  0
 10 12  1  0
 10  2  1  0
 11 10  2  0
 13 12  1  0
 13 19  1  0
 13 14  1  6
 15 14  1  0
 16 15  1  0
 17 16  1  0
 18 17  1  0
 19 28  1  0
 20 19  2  0
 22 23  2  0
 22 21  1  0
 24 23  1  0
 25 24  2  0
 26 25  1  0
 27 26  1  1
 27 29  1  0
 28 27  1  0
 29 30  1  0
 31 25  1  0
 31 32  2  0
 32 22  1  0
 33 29  2  0
M  END
$$$$
