FKY.pdb
     RDKit          3D

 33 34  0  0  1  0  0  0  0  0999 V2000
    5.7232  -17.1989   25.2358 N   0  0  0  0  0  0  0  0  0  0  0  0
    6.6277  -16.1094   25.0171 C   0  0  1  0  0  0  0  0  0  0  0  0
    7.3285  -15.6720   26.2754 C   0  0  0  0  0  0  0  0  0  0  0  0
    7.2228  -14.1940   26.3696 C   0  0  0  0  0  0  0  0  0  0  0  0
    6.1228  -13.6461   26.9551 C   0  0  0  0  0  0  0  0  0  0  0  0
    6.0050  -12.2835   27.0524 C   0  0  0  0  0  0  0  0  0  0  0  0
    6.9858  -11.4739   26.5649 C   0  0  0  0  0  0  0  0  0  0  0  0
    8.0957  -12.0211   25.9743 C   0  0  0  0  0  0  0  0  0  0  0  0
    8.2057  -13.3836   25.8810 C   0  0  0  0  0  0  0  0  0  0  0  0
    7.6209  -16.3857   23.9467 C   0  0  0  0  0  0  0  0  0  0  0  0
    8.1282  -17.5130   23.8660 O   0  0  0  0  0  0  0  0  0  0  0  0
    7.9967  -15.3620   23.0083 N   0  0  0  0  0  0  0  0  0  0  0  0
    8.9817  -15.6080   21.9758 C   0  0  1  0  0  0  0  0  0  0  0  0
    8.8922  -14.5059   20.9154 C   0  0  0  0  0  0  0  0  0  0  0  0
    7.5631  -14.4952   20.2436 C   0  0  0  0  0  0  0  0  0  0  0  0
    7.5047  -13.3902   19.2264 C   0  0  0  0  0  0  0  0  0  0  0  0
    8.4751  -13.5818   18.1117 C   0  0  0  0  0  0  0  0  0  0  0  0
    7.9931  -14.6400   17.2358 N   0  0  0  0  0  0  0  0  0  0  0  0
   10.3224  -15.4981   22.5771 C   0  0  0  0  0  0  0  0  0  0  0  0
   10.9989  -14.4679   22.3845 O   0  0  0  0  0  0  0  0  0  0  0  0
    9.0011  -14.4207   29.2224 O   0  0  0  0  0  0  0  0  0  0  0  0
    9.7788  -15.0914   28.2634 C   0  0  0  0  0  0  0  0  0  0  0  0
   10.5029  -14.4137   27.3120 C   0  0  0  0  0  0  0  0  0  0  0  0
   11.2770  -15.0296   26.3551 C   0  0  0  0  0  0  0  0  0  0  0  0
   11.3420  -16.4063   26.3339 C   0  0  0  0  0  0  0  0  0  0  0  0
   12.1595  -17.0889   25.3155 C   0  0  0  0  0  0  0  0  0  0  0  0
   12.1975  -16.3741   23.9833 C   0  0  2  0  0  0  0  0  0  0  0  0
   10.8688  -16.5347   23.3724 N   0  0  0  0  0  0  0  0  0  0  0  0
   13.1833  -17.0028   23.0843 C   0  0  0  0  0  0  0  0  0  0  0  0
   12.8287  -17.7877   21.9942 O   0  0  0  0  0  0  0  0  0  0  0  0
   10.6152  -17.1085   27.2901 C   0  0  0  0  0  0  0  0  0  0  0  0
    9.8441  -16.4681   28.2422 C   0  0  0  0  0  0  0  0  0  0  0  0
   14.4083  -16.8413   23.2867 O   0  0  0  0  0  0  0  0  0  0  0  0
  2  1  1  1
  3  2  1  0
  3  4  1  0
  4  9  2  0
  5  6  2  0
  5  4  1  0
  6  7  1  0
  7  8  2  0
  9  8  1  0
 10 12  1  0
 10  2  1  0
 11 10  2  0
 13 12  1  0
 13 19  1  0
 13 14  1  6
 15 14  1  0
 16 15  1  0
 17 16  1  0
 18 17  1  0
 19 28  1  0
 20 19  2  0
 22 23  2  0
 22 21  1  0
 24 23  1  0
 25 24  2  0
 26 25  1  0
 27 26  1  1
 27 29  1  0
 28 27  1  0
 29 30  1  0
 31 25  1  0
 31 32  2  0
 32 22  1  0
 33 29  2  0
M  END
$$$$
