FKY.pdb
     RDKit          3D

 33 34  0  0  1  0  0  0  0  0999 V2000
    7.0388  -14.1067   18.9416 N   0  0  0  0  0  0  0  0  0  0  0  0
    7.4073  -13.8398   20.3003 C   0  0  1  0  0  0  0  0  0  0  0  0
    6.4629  -12.8879   20.9841 C   0  0  0  0  0  0  0  0  0  0  0  0
    6.9122  -12.7264   22.3901 C   0  0  0  0  0  0  0  0  0  0  0  0
    6.2319  -13.3681   23.3791 C   0  0  0  0  0  0  0  0  0  0  0  0
    6.6299  -13.2326   24.6842 C   0  0  0  0  0  0  0  0  0  0  0  0
    7.7052  -12.4571   24.9961 C   0  0  0  0  0  0  0  0  0  0  0  0
    8.3937  -11.8087   24.0033 C   0  0  0  0  0  0  0  0  0  0  0  0
    7.9895  -11.9494   22.7017 C   0  0  0  0  0  0  0  0  0  0  0  0
    7.5670  -15.0747   21.1115 C   0  0  0  0  0  0  0  0  0  0  0  0
    6.6388  -15.4437   21.8442 O   0  0  0  0  0  0  0  0  0  0  0  0
    8.7829  -15.8417   21.0542 N   0  0  0  0  0  0  0  0  0  0  0  0
    8.9999  -16.9800   21.9224 C   0  0  1  0  0  0  0  0  0  0  0  0
    9.9125  -17.9892   21.2182 C   0  0  0  0  0  0  0  0  0  0  0  0
   10.1219  -19.2111   22.0437 C   0  0  0  0  0  0  0  0  0  0  0  0
   11.0116  -20.1812   21.3181 C   0  0  0  0  0  0  0  0  0  0  0  0
   11.2567  -21.4293   22.0947 C   0  0  0  0  0  0  0  0  0  0  0  0
   12.1157  -22.3129   21.3196 N   0  0  0  0  0  0  0  0  0  0  0  0
    9.7314  -16.5210   23.1163 C   0  0  0  0  0  0  0  0  0  0  0  0
   10.6952  -15.7402   22.9831 O   0  0  0  0  0  0  0  0  0  0  0  0
   11.3688  -15.1916   31.7767 O   0  0  0  0  0  0  0  0  0  0  0  0
   10.8241  -15.3654   30.4932 C   0  0  0  0  0  0  0  0  0  0  0  0
   10.3125  -16.5715   30.0782 C   0  0  0  0  0  0  0  0  0  0  0  0
    9.7701  -16.7860   28.8315 C   0  0  0  0  0  0  0  0  0  0  0  0
    9.7292  -15.7416   27.9329 C   0  0  0  0  0  0  0  0  0  0  0  0
    9.1586  -15.9481   26.5900 C   0  0  0  0  0  0  0  0  0  0  0  0
   10.1475  -16.4920   25.5834 C   0  0  2  0  0  0  0  0  0  0  0  0
    9.3698  -16.9430   24.4188 N   0  0  0  0  0  0  0  0  0  0  0  0
   10.8550  -17.6643   26.1314 C   0  0  0  0  0  0  0  0  0  0  0  0
   12.1127  -17.5902   26.7168 O   0  0  0  0  0  0  0  0  0  0  0  0
   10.2428  -14.5132   28.3365 C   0  0  0  0  0  0  0  0  0  0  0  0
   10.7829  -14.3211   29.5946 C   0  0  0  0  0  0  0  0  0  0  0  0
   10.3234  -18.7968   26.0814 O   0  0  0  0  0  0  0  0  0  0  0  0
  2  1  1  6
  3  2  1  0
  3  4  1  0
  4  9  2  0
  5  6  2  0
  5  4  1  0
  6  7  1  0
  7  8  2  0
  9  8  1  0
 10 12  1  0
 10  2  1  0
 11 10  2  0
 13 12  1  0
 13 19  1  0
 13 14  1  6
 15 14  1  0
 16 15  1  0
 17 16  1  0
 18 17  1  0
 19 28  1  0
 20 19  2  0
 22 23  2  0
 22 21  1  0
 24 23  1  0
 25 24  2  0
 26 25  1  0
 27 26  1  1
 27 29  1  0
 28 27  1  0
 29 30  1  0
 31 25  1  0
 31 32  2  0
 32 22  1  0
 33 29  2  0
M  END
$$$$
