LLF.pdb
     RDKit          3D

 28 28  0  0  1  0  0  0  0  0999 V2000
    7.3706  -21.6382   22.0260 C   0  0  0  0  0  0  0  0  0  0  0  0
    8.8404  -21.6926   22.4191 C   0  0  2  0  0  0  0  0  0  0  0  0
    8.9726  -22.4387   23.7319 C   0  0  0  0  0  0  0  0  0  0  0  0
    9.4239  -20.2990   22.5203 C   0  0  0  0  0  0  0  0  0  0  0  0
    9.1384  -19.5453   21.2383 C   0  0  2  0  0  0  0  0  0  0  0  0
    9.9072  -20.0901   20.1710 N   0  0  0  0  0  0  0  0  0  0  0  0
    9.3510  -18.1114   21.3571 C   0  0  0  0  0  0  0  0  0  0  0  0
   10.5309  -17.6058   21.1097 O   0  0  0  0  0  0  0  0  0  0  0  0
    8.5260  -12.9973   20.3052 C   0  0  0  0  0  0  0  0  0  0  0  0
    7.5955  -13.5081   21.3658 C   0  0  1  0  0  0  0  0  0  0  0  0
    6.2165  -12.8906   21.0646 C   0  0  0  0  0  0  0  0  0  0  0  0
    7.4369  -14.9609   21.4472 C   0  0  0  0  0  0  0  0  0  0  0  0
    8.6663  -15.7644   21.8077 C   0  0  2  0  0  0  0  0  0  0  0  0
    8.3691  -17.1925   21.7248 N   0  0  0  0  0  0  0  0  0  0  0  0
    9.2176  -15.5088   23.1263 C   0  0  0  0  0  0  0  0  0  0  0  0
   10.1415  -14.6598   23.2530 O   0  0  0  0  0  0  0  0  0  0  0  0
    8.8017  -16.1353   24.3410 N   0  0  0  0  0  0  0  0  0  0  0  0
    9.5337  -15.8535   25.5732 C   0  0  1  0  0  0  0  0  0  0  0  0
    8.4885  -15.5589   26.6772 C   0  0  0  0  0  0  0  0  0  0  0  0
    7.7506  -14.3293   26.3976 C   0  0  0  0  0  0  0  0  0  0  0  0
    8.4003  -13.1141   26.6159 C   0  0  0  0  0  0  0  0  0  0  0  0
    7.7190  -11.9483   26.3135 C   0  0  0  0  0  0  0  0  0  0  0  0
    6.4465  -11.9561   25.8142 C   0  0  0  0  0  0  0  0  0  0  0  0
    5.7988  -13.1681   25.5970 C   0  0  0  0  0  0  0  0  0  0  0  0
    6.4706  -14.3295   25.8954 C   0  0  0  0  0  0  0  0  0  0  0  0
   10.3479  -16.9938   25.9873 C   0  0  0  0  0  0  0  0  0  0  0  0
   10.4808  -18.1813   25.2333 O   0  0  0  0  0  0  0  0  0  0  0  0
   11.0209  -17.0335   27.0710 O   0  0  0  0  0  0  0  0  0  0  0  0
  2  1  1  1
  3  2  1  0
  4  2  1  0
  5  4  1  0
  5  6  1  6
  7  8  2  0
  7  5  1  0
 10  9  1  6
 10 12  1  0
 11 10  1  0
 13 12  1  1
 13 14  1  0
 14  7  1  0
 15 13  1  0
 15 17  1  0
 16 15  2  0
 18 17  1  0
 18 26  1  0
 18 19  1  1
 20 19  1  0
 20 21  2  0
 22 21  1  0
 23 22  2  0
 24 25  2  0
 24 23  1  0
 25 20  1  0
 26 28  2  0
 26 27  1  0
M  END
$$$$
