LLF.pdb
     RDKit          3D

 28 28  0  0  1  0  0  0  0  0999 V2000
    9.6869  -12.7744   19.0364 C   0  0  0  0  0  0  0  0  0  0  0  0
    8.2542  -13.1869   18.7283 C   0  0  2  0  0  0  0  0  0  0  0  0
    7.4572  -11.9549   18.3481 C   0  0  0  0  0  0  0  0  0  0  0  0
    7.6313  -13.8985   19.9108 C   0  0  0  0  0  0  0  0  0  0  0  0
    8.4989  -15.0786   20.2953 C   0  0  2  0  0  0  0  0  0  0  0  0
    8.6929  -15.9283   19.1694 N   0  0  0  0  0  0  0  0  0  0  0  0
    7.9804  -15.8252   21.4306 C   0  0  0  0  0  0  0  0  0  0  0  0
    7.4266  -15.1893   22.4296 O   0  0  0  0  0  0  0  0  0  0  0  0
    5.5707  -20.7383   20.8269 C   0  0  0  0  0  0  0  0  0  0  0  0
    5.9406  -19.3587   21.2869 C   0  0  1  0  0  0  0  0  0  0  0  0
    4.6503  -18.7293   21.8461 C   0  0  0  0  0  0  0  0  0  0  0  0
    6.9747  -19.2726   22.3191 C   0  0  0  0  0  0  0  0  0  0  0  0
    7.4384  -17.8871   22.7095 C   0  0  2  0  0  0  0  0  0  0  0  0
    8.0225  -17.2136   21.5520 N   0  0  0  0  0  0  0  0  0  0  0  0
    8.4126  -17.8320   23.7846 C   0  0  0  0  0  0  0  0  0  0  0  0
    9.5982  -17.4904   23.5237 O   0  0  0  0  0  0  0  0  0  0  0  0
    8.1571  -18.1270   25.1588 N   0  0  0  0  0  0  0  0  0  0  0  0
    8.4885  -17.1300   26.1736 C   0  0  1  0  0  0  0  0  0  0  0  0
    7.8142  -15.8001   25.7557 C   0  0  0  0  0  0  0  0  0  0  0  0
    7.9572  -14.7814   26.7932 C   0  0  0  0  0  0  0  0  0  0  0  0
    9.2157  -14.6096   27.3703 C   0  0  0  0  0  0  0  0  0  0  0  0
    9.3644  -13.6181   28.3240 C   0  0  0  0  0  0  0  0  0  0  0  0
    8.3272  -12.8153   28.7091 C   0  0  0  0  0  0  0  0  0  0  0  0
    7.0722  -12.9872   28.1336 C   0  0  0  0  0  0  0  0  0  0  0  0
    6.9184  -13.9704   27.1855 C   0  0  0  0  0  0  0  0  0  0  0  0
    7.9895  -17.5179   27.4909 C   0  0  0  0  0  0  0  0  0  0  0  0
    6.6641  -17.9404   27.7376 O   0  0  0  0  0  0  0  0  0  0  0  0
    8.6992  -17.5142   28.5518 O   0  0  0  0  0  0  0  0  0  0  0  0
  2  1  1  1
  3  2  1  0
  4  2  1  0
  5  4  1  0
  5  6  1  6
  7  8  2  0
  7  5  1  0
 10  9  1  1
 10 12  1  0
 11 10  1  0
 13 12  1  6
 13 14  1  0
 14  7  1  0
 15 13  1  0
 15 17  1  0
 16 15  2  0
 18 17  1  0
 18 26  1  0
 18 19  1  6
 20 19  1  0
 20 21  2  0
 22 21  1  0
 23 22  2  0
 24 25  2  0
 24 23  1  0
 25 20  1  0
 26 28  2  0
 26 27  1  0
M  END
$$$$
