LLF.pdb
     RDKit          3D

 28 28  0  0  1  0  0  0  0  0999 V2000
    9.5898  -22.4121   21.1367 C   0  0  0  0  0  0  0  0  0  0  0  0
    9.5959  -21.6993   19.7914 C   0  0  2  0  0  0  0  0  0  0  0  0
   10.4755  -22.4712   18.8282 C   0  0  0  0  0  0  0  0  0  0  0  0
   10.0708  -20.2693   19.9406 C   0  0  0  0  0  0  0  0  0  0  0  0
    9.2075  -19.5620   20.9641 C   0  0  2  0  0  0  0  0  0  0  0  0
    7.8306  -19.7560   20.6579 N   0  0  0  0  0  0  0  0  0  0  0  0
    9.5192  -18.1477   21.0975 C   0  0  0  0  0  0  0  0  0  0  0  0
   10.7653  -17.7606   21.1764 O   0  0  0  0  0  0  0  0  0  0  0  0
    8.9872  -12.9363   19.7833 C   0  0  0  0  0  0  0  0  0  0  0  0
    8.0732  -13.3901   20.8834 C   0  0  1  0  0  0  0  0  0  0  0  0
    6.7353  -12.6586   20.6627 C   0  0  0  0  0  0  0  0  0  0  0  0
    7.8017  -14.8267   20.9524 C   0  0  0  0  0  0  0  0  0  0  0  0
    8.9711  -15.7294   21.2760 C   0  0  2  0  0  0  0  0  0  0  0  0
    8.5693  -17.1284   21.1499 N   0  0  0  0  0  0  0  0  0  0  0  0
    9.5482  -15.5580   22.5972 C   0  0  0  0  0  0  0  0  0  0  0  0
   10.6351  -14.9297   22.7171 O   0  0  0  0  0  0  0  0  0  0  0  0
    8.9886  -16.0369   23.8213 N   0  0  0  0  0  0  0  0  0  0  0  0
    9.7154  -15.8175   25.0692 C   0  0  1  0  0  0  0  0  0  0  0  0
    9.6159  -14.3093   25.4055 C   0  0  0  0  0  0  0  0  0  0  0  0
    8.2622  -13.9431   25.8153 C   0  0  0  0  0  0  0  0  0  0  0  0
    8.0321  -12.6227   26.2027 C   0  0  0  0  0  0  0  0  0  0  0  0
    6.7427  -12.2623   26.5523 C   0  0  0  0  0  0  0  0  0  0  0  0
    5.7051  -13.1520   26.5282 C   0  0  0  0  0  0  0  0  0  0  0  0
    5.9350  -14.4687   26.1422 C   0  0  0  0  0  0  0  0  0  0  0  0
    7.2139  -14.8325   25.7937 C   0  0  0  0  0  0  0  0  0  0  0  0
    9.1370  -16.5850   26.1698 C   0  0  0  0  0  0  0  0  0  0  0  0
    8.0441  -17.4684   26.0244 O   0  0  0  0  0  0  0  0  0  0  0  0
    9.5595  -16.5353   27.3732 O   0  0  0  0  0  0  0  0  0  0  0  0
  2  1  1  1
  3  2  1  0
  4  2  1  0
  5  4  1  0
  5  6  1  6
  7  8  2  0
  7  5  1  0
 10  9  1  6
 10 12  1  0
 11 10  1  0
 13 12  1  1
 13 14  1  0
 14  7  1  0
 15 13  1  0
 15 17  1  0
 16 15  2  0
 18 17  1  0
 18 26  1  0
 18 19  1  1
 20 19  1  0
 20 21  2  0
 22 21  1  0
 23 22  2  0
 24 25  2  0
 24 23  1  0
 25 20  1  0
 26 28  2  0
 26 27  1  0
M  END
$$$$
