LLF.pdb
     RDKit          3D

 28 28  0  0  1  0  0  0  0  0999 V2000
    8.2779  -20.6506   18.3759 C   0  0  0  0  0  0  0  0  0  0  0  0
    9.7245  -20.9527   18.7417 C   0  0  2  0  0  0  0  0  0  0  0  0
    9.7925  -22.3166   19.3995 C   0  0  0  0  0  0  0  0  0  0  0  0
   10.2873  -19.8788   19.6488 C   0  0  0  0  0  0  0  0  0  0  0  0
   10.0887  -18.5249   19.0004 C   0  0  2  0  0  0  0  0  0  0  0  0
   10.9784  -18.3767   17.8987 N   0  0  0  0  0  0  0  0  0  0  0  0
   10.2230  -17.4174   19.9336 C   0  0  0  0  0  0  0  0  0  0  0  0
   11.4114  -16.9788   20.2563 O   0  0  0  0  0  0  0  0  0  0  0  0
    6.5482  -13.3238   20.4978 C   0  0  0  0  0  0  0  0  0  0  0  0
    7.8661  -14.0413   20.4870 C   0  0  1  0  0  0  0  0  0  0  0  0
    8.9478  -12.9553   20.3306 C   0  0  0  0  0  0  0  0  0  0  0  0
    8.1846  -14.8346   21.6751 C   0  0  0  0  0  0  0  0  0  0  0  0
    9.3781  -15.7585   21.5813 C   0  0  2  0  0  0  0  0  0  0  0  0
    9.1544  -16.7557   20.5371 N   0  0  0  0  0  0  0  0  0  0  0  0
    9.7166  -16.4708   22.8003 C   0  0  0  0  0  0  0  0  0  0  0  0
    8.8792  -17.2722   23.2974 O   0  0  0  0  0  0  0  0  0  0  0  0
   10.9474  -16.3611   23.5171 N   0  0  0  0  0  0  0  0  0  0  0  0
   10.9133  -16.0714   24.9484 C   0  0  1  0  0  0  0  0  0  0  0  0
   10.3302  -14.6472   25.1201 C   0  0  0  0  0  0  0  0  0  0  0  0
   10.2860  -14.2558   26.5270 C   0  0  0  0  0  0  0  0  0  0  0  0
    9.0799  -13.7688   27.0316 C   0  0  0  0  0  0  0  0  0  0  0  0
    9.0231  -13.4356   28.3735 C   0  0  0  0  0  0  0  0  0  0  0  0
   10.1004  -13.5692   29.2042 C   0  0  0  0  0  0  0  0  0  0  0  0
   11.3030  -14.0546   28.7006 C   0  0  0  0  0  0  0  0  0  0  0  0
   11.3655  -14.3874   27.3684 C   0  0  0  0  0  0  0  0  0  0  0  0
   10.0647  -17.0182   25.6681 C   0  0  0  0  0  0  0  0  0  0  0  0
    8.7373  -17.3267   25.2951 O   0  0  0  0  0  0  0  0  0  0  0  0
   10.4353  -17.6620   26.7060 O   0  0  0  0  0  0  0  0  0  0  0  0
  2  1  1  1
  3  2  1  0
  4  2  1  0
  5  4  1  0
  5  6  1  6
  7  8  2  0
  7  5  1  0
 10  9  1  1
 10 12  1  0
 11 10  1  0
 13 12  1  1
 13 14  1  0
 14  7  1  0
 15 13  1  0
 15 17  1  0
 16 15  2  0
 18 17  1  0
 18 26  1  0
 18 19  1  6
 20 19  1  0
 20 21  2  0
 22 21  1  0
 23 22  2  0
 24 25  2  0
 24 23  1  0
 25 20  1  0
 26 28  2  0
 26 27  1  0
M  END
$$$$
