LLF.pdb
     RDKit          3D

 28 28  0  0  1  0  0  0  0  0999 V2000
    7.7718  -19.5473   16.7265 C   0  0  0  0  0  0  0  0  0  0  0  0
    7.5946  -18.9848   18.1301 C   0  0  2  0  0  0  0  0  0  0  0  0
    6.7307  -17.7415   18.0578 C   0  0  0  0  0  0  0  0  0  0  0  0
    8.9363  -18.6832   18.7640 C   0  0  0  0  0  0  0  0  0  0  0  0
    8.7284  -18.3127   20.2174 C   0  0  2  0  0  0  0  0  0  0  0  0
    7.3486  -18.4135   20.5536 N   0  0  0  0  0  0  0  0  0  0  0  0
    9.2541  -16.9992   20.5547 C   0  0  0  0  0  0  0  0  0  0  0  0
    9.5318  -16.1456   19.6043 O   0  0  0  0  0  0  0  0  0  0  0  0
    6.8227  -12.8416   20.5694 C   0  0  0  0  0  0  0  0  0  0  0  0
    7.6878  -14.0677   20.5589 C   0  0  1  0  0  0  0  0  0  0  0  0
    9.0807  -13.6096   20.0859 C   0  0  0  0  0  0  0  0  0  0  0  0
    7.8459  -14.7631   21.8371 C   0  0  0  0  0  0  0  0  0  0  0  0
    9.2507  -15.1622   22.2298 C   0  0  2  0  0  0  0  0  0  0  0  0
    9.4966  -16.5522   21.8529 N   0  0  0  0  0  0  0  0  0  0  0  0
    9.5689  -15.0291   23.6401 C   0  0  0  0  0  0  0  0  0  0  0  0
    9.5500  -13.8848   24.1699 O   0  0  0  0  0  0  0  0  0  0  0  0
    9.9053  -16.0993   24.5247 N   0  0  0  0  0  0  0  0  0  0  0  0
    9.5312  -16.0017   25.9334 C   0  0  1  0  0  0  0  0  0  0  0  0
    7.9915  -15.8489   25.9954 C   0  0  0  0  0  0  0  0  0  0  0  0
    7.6034  -14.4624   26.2438 C   0  0  0  0  0  0  0  0  0  0  0  0
    6.4283  -13.9975   25.6528 C   0  0  0  0  0  0  0  0  0  0  0  0
    6.0361  -12.6975   25.9188 C   0  0  0  0  0  0  0  0  0  0  0  0
    6.7584  -11.8701   26.7327 C   0  0  0  0  0  0  0  0  0  0  0  0
    7.9304  -12.3340   27.3216 C   0  0  0  0  0  0  0  0  0  0  0  0
    8.3249  -13.6246   27.0612 C   0  0  0  0  0  0  0  0  0  0  0  0
    9.9162  -17.1998   26.6757 C   0  0  0  0  0  0  0  0  0  0  0  0
   10.5461  -18.3204   26.0897 O   0  0  0  0  0  0  0  0  0  0  0  0
    9.7227  -17.3560   27.9276 O   0  0  0  0  0  0  0  0  0  0  0  0
  2  1  1  6
  3  2  1  0
  4  2  1  0
  5  4  1  0
  5  6  1  6
  7  8  2  0
  7  5  1  0
 10  9  1  1
 10 12  1  0
 11 10  1  0
 13 12  1  1
 13 14  1  0
 14  7  1  0
 15 13  1  0
 15 17  1  0
 16 15  2  0
 18 17  1  0
 18 26  1  0
 18 19  1  6
 20 19  1  0
 20 21  2  0
 22 21  1  0
 23 22  2  0
 24 25  2  0
 24 23  1  0
 25 20  1  0
 26 28  2  0
 26 27  1  0
M  END
$$$$
