LLF.pdb
     RDKit          3D

 28 28  0  0  1  0  0  0  0  0999 V2000
   10.4444  -21.6576   19.9116 C   0  0  0  0  0  0  0  0  0  0  0  0
   10.4574  -20.4166   19.0298 C   0  0  2  0  0  0  0  0  0  0  0  0
   10.7801  -20.8262   17.6066 C   0  0  0  0  0  0  0  0  0  0  0  0
   11.4525  -19.3985   19.5455 C   0  0  0  0  0  0  0  0  0  0  0  0
   10.9784  -18.0082   19.1778 C   0  0  2  0  0  0  0  0  0  0  0  0
   11.9143  -17.3899   18.3009 N   0  0  0  0  0  0  0  0  0  0  0  0
   10.7129  -17.1685   20.3354 C   0  0  0  0  0  0  0  0  0  0  0  0
   11.7085  -16.6469   21.0030 O   0  0  0  0  0  0  0  0  0  0  0  0
    6.1434  -14.0029   20.5656 C   0  0  0  0  0  0  0  0  0  0  0  0
    7.5714  -14.4392   20.7145 C   0  0  1  0  0  0  0  0  0  0  0  0
    8.4026  -13.1512   20.8695 C   0  0  0  0  0  0  0  0  0  0  0  0
    7.8693  -15.3138   21.8496 C   0  0  0  0  0  0  0  0  0  0  0  0
    9.2586  -15.9083   21.9093 C   0  0  2  0  0  0  0  0  0  0  0  0
    9.4408  -16.8578   20.8139 N   0  0  0  0  0  0  0  0  0  0  0  0
    9.5935  -16.5957   23.1435 C   0  0  0  0  0  0  0  0  0  0  0  0
    9.4619  -17.8484   23.2054 O   0  0  0  0  0  0  0  0  0  0  0  0
   10.0827  -15.9797   24.3360 N   0  0  0  0  0  0  0  0  0  0  0  0
   10.6289  -16.8206   25.3982 C   0  0  1  0  0  0  0  0  0  0  0  0
   11.5313  -15.9247   26.2820 C   0  0  0  0  0  0  0  0  0  0  0  0
   10.7382  -14.9930   27.0805 C   0  0  0  0  0  0  0  0  0  0  0  0
   10.8432  -15.0705   28.4696 C   0  0  0  0  0  0  0  0  0  0  0  0
   10.1251  -14.1630   29.2281 C   0  0  0  0  0  0  0  0  0  0  0  0
    9.3284  -13.2078   28.6611 C   0  0  0  0  0  0  0  0  0  0  0  0
    9.2237  -13.1310   27.2759 C   0  0  0  0  0  0  0  0  0  0  0  0
    9.9349  -14.0298   26.5172 C   0  0  0  0  0  0  0  0  0  0  0  0
    9.5713  -17.3904   26.2297 C   0  0  0  0  0  0  0  0  0  0  0  0
    8.1932  -17.1668   26.0133 O   0  0  0  0  0  0  0  0  0  0  0  0
    9.7844  -18.1469   27.2354 O   0  0  0  0  0  0  0  0  0  0  0  0
  2  1  1  1
  3  2  1  0
  4  2  1  0
  5  4  1  0
  5  6  1  6
  7  8  2  0
  7  5  1  0
 10  9  1  1
 10 12  1  0
 11 10  1  0
 13 12  1  1
 13 14  1  0
 14  7  1  0
 15 13  1  0
 15 17  1  0
 16 15  2  0
 18 17  1  0
 18 26  1  0
 18 19  1  1
 20 19  1  0
 20 21  2  0
 22 21  1  0
 23 22  2  0
 24 25  2  0
 24 23  1  0
 25 20  1  0
 26 28  2  0
 26 27  1  0
M  END
$$$$
