LLF.pdb
     RDKit          3D

 28 28  0  0  1  0  0  0  0  0999 V2000
    8.9473  -13.1826   19.5043 C   0  0  0  0  0  0  0  0  0  0  0  0
    7.6200  -13.3836   20.2224 C   0  0  2  0  0  0  0  0  0  0  0  0
    6.9965  -12.0291   20.4947 C   0  0  0  0  0  0  0  0  0  0  0  0
    7.8133  -14.1651   21.5049 C   0  0  0  0  0  0  0  0  0  0  0  0
    8.3670  -15.5352   21.1745 C   0  0  2  0  0  0  0  0  0  0  0  0
    7.4074  -16.2835   20.4352 N   0  0  0  0  0  0  0  0  0  0  0  0
    8.8131  -16.2710   22.3471 C   0  0  0  0  0  0  0  0  0  0  0  0
    7.9364  -16.8536   23.1223 O   0  0  0  0  0  0  0  0  0  0  0  0
   12.9871  -19.7495   22.3893 C   0  0  0  0  0  0  0  0  0  0  0  0
   11.6975  -19.0544   22.7141 C   0  0  1  0  0  0  0  0  0  0  0  0
   10.7585  -20.1325   23.2883 C   0  0  0  0  0  0  0  0  0  0  0  0
   11.7754  -17.9565   23.6789 C   0  0  0  0  0  0  0  0  0  0  0  0
   10.5060  -17.1733   23.9283 C   0  0  2  0  0  0  0  0  0  0  0  0
   10.1453  -16.4164   22.7319 N   0  0  0  0  0  0  0  0  0  0  0  0
   10.5541  -16.2389   25.0385 C   0  0  0  0  0  0  0  0  0  0  0  0
   11.3077  -15.2306   24.9618 O   0  0  0  0  0  0  0  0  0  0  0  0
    9.8032  -16.3416   26.2494 N   0  0  0  0  0  0  0  0  0  0  0  0
   10.2366  -15.5848   27.4212 C   0  0  1  0  0  0  0  0  0  0  0  0
    8.9975  -14.8417   27.9784 C   0  0  0  0  0  0  0  0  0  0  0  0
    8.4649  -13.8905   27.0058 C   0  0  0  0  0  0  0  0  0  0  0  0
    7.3898  -14.2979   26.2154 C   0  0  0  0  0  0  0  0  0  0  0  0
    6.8565  -13.3858   25.3219 C   0  0  0  0  0  0  0  0  0  0  0  0
    7.3475  -12.1164   25.1955 C   0  0  0  0  0  0  0  0  0  0  0  0
    8.4198  -11.7106   25.9836 C   0  0  0  0  0  0  0  0  0  0  0  0
    8.9537  -12.6122   26.8731 C   0  0  0  0  0  0  0  0  0  0  0  0
   10.7670  -16.4627   28.4617 C   0  0  0  0  0  0  0  0  0  0  0  0
   10.8110  -17.8709   28.3565 O   0  0  0  0  0  0  0  0  0  0  0  0
   11.2438  -16.0474   29.5704 O   0  0  0  0  0  0  0  0  0  0  0  0
  2  1  1  1
  3  2  1  0
  4  2  1  0
  5  4  1  0
  5  6  1  1
  7  8  2  0
  7  5  1  0
 10  9  1  1
 10 12  1  0
 11 10  1  0
 13 12  1  6
 13 14  1  0
 14  7  1  0
 15 13  1  0
 15 17  1  0
 16 15  2  0
 18 17  1  0
 18 26  1  0
 18 19  1  1
 20 19  1  0
 20 21  2  0
 22 21  1  0
 23 22  2  0
 24 25  2  0
 24 23  1  0
 25 20  1  0
 26 28  2  0
 26 27  1  0
M  END
$$$$
