MCT.pdb
     RDKit          3D

 22 21  0  0  1  0  0  0  0  0999 V2000
   14.5552  -13.5129  -16.7649 C   0  0  0  0  0  0  0  0  0  0  0  0
   14.4750  -11.7377  -16.9872 S   0  0  0  0  0  0  0  0  0  0  0  0
   16.0594  -10.9712  -17.2542 C   0  0  0  0  0  0  0  0  0  0  0  0
   16.9457  -10.9233  -16.0547 C   0  0  0  0  0  0  0  0  0  0  0  0
   18.3824  -11.2543  -16.2880 C   0  0  2  0  0  0  0  0  0  0  0  0
   18.6849  -12.6587  -16.0533 N   0  0  0  0  0  0  0  0  0  0  0  0
   19.1568  -10.4563  -15.2668 C   0  0  0  0  0  0  0  0  0  0  0  0
   19.2809  -10.9319  -14.1162 O   0  0  0  0  0  0  0  0  0  0  0  0
   19.7348   -9.2188  -15.5562 N   0  0  0  0  0  0  0  0  0  0  0  0
   20.5464   -8.5628  -14.5362 C   0  0  1  0  0  0  0  0  0  0  0  0
   21.7059   -9.5129  -14.3078 C   0  0  0  0  0  0  0  0  0  0  0  0
   22.6329   -9.8790  -15.8053 S   0  0  0  0  0  0  0  0  0  0  0  0
   20.9407   -7.2173  -14.9448 C   0  0  0  0  0  0  0  0  0  0  0  0
   21.3238   -7.0410  -16.1418 O   0  0  0  0  0  0  0  0  0  0  0  0
   18.9329   -4.1422  -15.2267 C   0  0  0  0  0  0  0  0  0  0  0  0
   20.0569   -3.8227  -14.2647 C   0  0  1  0  0  0  0  0  0  0  0  0
   19.5883   -4.0542  -12.9539 O   0  0  0  0  0  0  0  0  0  0  0  0
   21.2257   -4.7637  -14.4483 C   0  0  2  0  0  0  0  0  0  0  0  0
   20.9089   -6.1290  -14.0735 N   0  0  0  0  0  0  0  0  0  0  0  0
   22.3175   -4.2839  -13.5730 C   0  0  0  0  0  0  0  0  0  0  0  0
   22.9538   -3.0881  -13.8504 O   0  0  0  0  0  0  0  0  0  0  0  0
   22.7040   -4.9345  -12.5576 O   0  0  0  0  0  0  0  0  0  0  0  0
  2  1  1  0
  3  2  1  0
  3  4  1  0
  4  5  1  0
  5  7  1  0
  5  6  1  1
  7  9  1  0
  7  8  2  0
  9 10  1  0
 10 13  1  0
 10 11  1  6
 11 12  1  0
 13 14  2  0
 16 15  1  6
 16 18  1  0
 16 17  1  0
 18 20  1  0
 19 13  1  0
 18 19  1  1
 20 21  1  0
 22 20  2  0
M  END
$$$$
