MCT.pdb
     RDKit          3D

 22 21  0  0  1  0  0  0  0  0999 V2000
   23.4534  -14.7230  -22.3267 C   0  0  0  0  0  0  0  0  0  0  0  0
   22.9798  -14.5070  -20.6132 S   0  0  0  0  0  0  0  0  0  0  0  0
   21.7561  -13.2398  -20.3565 C   0  0  0  0  0  0  0  0  0  0  0  0
   21.3160  -13.0671  -18.9412 C   0  0  0  0  0  0  0  0  0  0  0  0
   22.3765  -12.6686  -17.9693 C   0  0  2  0  0  0  0  0  0  0  0  0
   22.9458  -13.8028  -17.2563 N   0  0  0  0  0  0  0  0  0  0  0  0
   21.6867  -11.8005  -16.9446 C   0  0  0  0  0  0  0  0  0  0  0  0
   20.9348  -12.3540  -16.1118 O   0  0  0  0  0  0  0  0  0  0  0  0
   21.8555  -10.4155  -16.8921 N   0  0  0  0  0  0  0  0  0  0  0  0
   21.1201   -9.6522  -15.8892 C   0  0  1  0  0  0  0  0  0  0  0  0
   21.8140   -9.9804  -14.5814 C   0  0  0  0  0  0  0  0  0  0  0  0
   23.6062   -9.8589  -14.6757 S   0  0  0  0  0  0  0  0  0  0  0  0
   21.0867   -8.2287  -16.2136 C   0  0  0  0  0  0  0  0  0  0  0  0
   22.1352   -7.6966  -16.6913 O   0  0  0  0  0  0  0  0  0  0  0  0
   18.6823   -6.3514  -18.5691 C   0  0  0  0  0  0  0  0  0  0  0  0
   18.6093   -5.7348  -17.1888 C   0  0  1  0  0  0  0  0  0  0  0  0
   17.5456   -6.3476  -16.4929 O   0  0  0  0  0  0  0  0  0  0  0  0
   19.8501   -6.0399  -16.3809 C   0  0  2  0  0  0  0  0  0  0  0  0
   19.9520   -7.4414  -16.0202 N   0  0  0  0  0  0  0  0  0  0  0  0
   19.7699   -5.2451  -15.1358 C   0  0  0  0  0  0  0  0  0  0  0  0
   19.8678   -3.8668  -15.1856 O   0  0  0  0  0  0  0  0  0  0  0  0
   19.6118   -5.7833  -14.0005 O   0  0  0  0  0  0  0  0  0  0  0  0
  2  1  1  0
  3  2  1  0
  3  4  1  0
  4  5  1  0
  5  7  1  0
  5  6  1  1
  7  9  1  0
  7  8  2  0
  9 10  1  0
 10 13  1  0
 10 11  1  1
 11 12  1  0
 13 14  2  0
 16 15  1  6
 16 18  1  0
 16 17  1  0
 18 20  1  0
 19 13  1  0
 18 19  1  1
 20 21  1  0
 22 20  2  0
M  END
$$$$
