MCT.pdb
     RDKit          3D

 22 21  0  0  1  0  0  0  0  0999 V2000
   26.3552  -15.7110  -14.6835 C   0  0  0  0  0  0  0  0  0  0  0  0
   27.8047  -16.7121  -15.0061 S   0  0  0  0  0  0  0  0  0  0  0  0
   27.4990  -18.1015  -16.0762 C   0  0  0  0  0  0  0  0  0  0  0  0
   26.8103  -19.2557  -15.4281 C   0  0  0  0  0  0  0  0  0  0  0  0
   27.5816  -19.9666  -14.3662 C   0  0  2  0  0  0  0  0  0  0  0  0
   28.5535  -20.9065  -14.9057 N   0  0  0  0  0  0  0  0  0  0  0  0
   26.5657  -20.7728  -13.5933 C   0  0  0  0  0  0  0  0  0  0  0  0
   26.1810  -21.8598  -14.0792 O   0  0  0  0  0  0  0  0  0  0  0  0
   26.0445  -20.3546  -12.3675 N   0  0  0  0  0  0  0  0  0  0  0  0
   24.9394  -21.1030  -11.7778 C   0  0  1  0  0  0  0  0  0  0  0  0
   25.0964  -20.8938  -10.2841 C   0  0  0  0  0  0  0  0  0  0  0  0
   26.8094  -20.9273   -9.7361 S   0  0  0  0  0  0  0  0  0  0  0  0
   23.6509  -20.6738  -12.3147 C   0  0  0  0  0  0  0  0  0  0  0  0
   23.2861  -19.4748  -12.1146 O   0  0  0  0  0  0  0  0  0  0  0  0
   22.5567  -20.5644  -15.9126 C   0  0  0  0  0  0  0  0  0  0  0  0
   21.5685  -21.4290  -15.1599 C   0  0  1  0  0  0  0  0  0  0  0  0
   21.9899  -22.7711  -15.2709 O   0  0  0  0  0  0  0  0  0  0  0  0
   21.5812  -21.1223  -13.6796 C   0  0  2  0  0  0  0  0  0  0  0  0
   22.8162  -21.5275  -13.0351 N   0  0  0  0  0  0  0  0  0  0  0  0
   20.4677  -21.8779  -13.0650 C   0  0  0  0  0  0  0  0  0  0  0  0
   19.1590  -21.5017  -13.3049 O   0  0  0  0  0  0  0  0  0  0  0  0
   20.6644  -22.8768  -12.3119 O   0  0  0  0  0  0  0  0  0  0  0  0
  2  1  1  0
  3  2  1  0
  3  4  1  0
  4  5  1  0
  5  7  1  0
  5  6  1  6
  7  9  1  0
  7  8  2  0
  9 10  1  0
 10 13  1  0
 10 11  1  1
 11 12  1  0
 13 14  2  0
 16 15  1  6
 16 18  1  0
 16 17  1  0
 18 20  1  0
 19 13  1  0
 18 19  1  1
 20 21  1  0
 22 20  2  0
M  END
$$$$
