MCT.pdb
     RDKit          3D

 22 21  0  0  1  0  0  0  0  0999 V2000
   27.9065  -12.3259  -15.8693 C   0  0  0  0  0  0  0  0  0  0  0  0
   27.3784  -13.8814  -15.1563 S   0  0  0  0  0  0  0  0  0  0  0  0
   25.6189  -14.0046  -14.9149 C   0  0  0  0  0  0  0  0  0  0  0  0
   24.8205  -12.9042  -15.5298 C   0  0  0  0  0  0  0  0  0  0  0  0
   23.3384  -13.0133  -15.3906 C   0  0  2  0  0  0  0  0  0  0  0  0
   22.7810  -14.1335  -16.1346 N   0  0  0  0  0  0  0  0  0  0  0  0
   22.7765  -11.7515  -16.0003 C   0  0  0  0  0  0  0  0  0  0  0  0
   22.5448  -11.7422  -17.2299 O   0  0  0  0  0  0  0  0  0  0  0  0
   22.5080  -10.6053  -15.2499 N   0  0  0  0  0  0  0  0  0  0  0  0
   21.8344   -9.4820  -15.8932 C   0  0  1  0  0  0  0  0  0  0  0  0
   20.3812   -9.9081  -15.9717 C   0  0  0  0  0  0  0  0  0  0  0  0
   19.2740   -8.5777  -16.4618 S   0  0  0  0  0  0  0  0  0  0  0  0
   22.0585   -8.2335  -15.1695 C   0  0  0  0  0  0  0  0  0  0  0  0
   22.0315   -8.2613  -13.9009 O   0  0  0  0  0  0  0  0  0  0  0  0
   22.3706   -4.2854  -17.1282 C   0  0  0  0  0  0  0  0  0  0  0  0
   23.3275   -4.7954  -16.0722 C   0  0  1  0  0  0  0  0  0  0  0  0
   23.6952   -3.7061  -15.2540 O   0  0  0  0  0  0  0  0  0  0  0  0
   22.6550   -5.7857  -15.1489 C   0  0  2  0  0  0  0  0  0  0  0  0
   22.3011   -7.0232  -15.8183 N   0  0  0  0  0  0  0  0  0  0  0  0
   21.4119   -5.1528  -14.6564 C   0  0  0  0  0  0  0  0  0  0  0  0
   21.4751   -4.1329  -13.7250 O   0  0  0  0  0  0  0  0  0  0  0  0
   20.2663   -5.5117  -15.0594 O   0  0  0  0  0  0  0  0  0  0  0  0
  2  1  1  0
  3  2  1  0
  3  4  1  0
  4  5  1  0
  5  7  1  0
  5  6  1  6
  7  9  1  0
  7  8  2  0
  9 10  1  0
 10 13  1  0
 10 11  1  1
 11 12  1  0
 13 14  2  0
 16 15  1  6
 16 18  1  0
 16 17  1  0
 18 20  1  0
 19 13  1  0
 18 19  1  6
 20 21  1  0
 22 20  2  0
M  END
$$$$
