MCT.pdb
     RDKit          3D

 22 21  0  0  1  0  0  0  0  0999 V2000
   29.1904  -13.6719  -15.2227 C   0  0  0  0  0  0  0  0  0  0  0  0
   27.6067  -12.9555  -15.6539 S   0  0  0  0  0  0  0  0  0  0  0  0
   27.7171  -11.3101  -16.3245 C   0  0  0  0  0  0  0  0  0  0  0  0
   26.4060  -10.6564  -16.6076 C   0  0  0  0  0  0  0  0  0  0  0  0
   25.1912  -11.4156  -16.1881 C   0  0  2  0  0  0  0  0  0  0  0  0
   24.9386  -12.5835  -17.0195 N   0  0  0  0  0  0  0  0  0  0  0  0
   24.0303  -10.4706  -16.3849 C   0  0  0  0  0  0  0  0  0  0  0  0
   23.2434  -10.6911  -17.3323 O   0  0  0  0  0  0  0  0  0  0  0  0
   23.8040   -9.3700  -15.5562 N   0  0  0  0  0  0  0  0  0  0  0  0
   22.6303   -8.5364  -15.7943 C   0  0  1  0  0  0  0  0  0  0  0  0
   21.4556   -9.4312  -15.4497 C   0  0  0  0  0  0  0  0  0  0  0  0
   21.9356  -10.9400  -14.5960 S   0  0  0  0  0  0  0  0  0  0  0  0
   22.6875   -7.2943  -15.0284 C   0  0  0  0  0  0  0  0  0  0  0  0
   23.1607   -7.3356  -13.8515 O   0  0  0  0  0  0  0  0  0  0  0  0
   24.0777   -3.9117  -16.5632 C   0  0  0  0  0  0  0  0  0  0  0  0
   22.7484   -3.6841  -15.8762 C   0  0  1  0  0  0  0  0  0  0  0  0
   21.7342   -3.7516  -16.8550 O   0  0  0  0  0  0  0  0  0  0  0  0
   22.4371   -4.7909  -14.8945 C   0  0  2  0  0  0  0  0  0  0  0  0
   22.2460   -6.0752  -15.5416 N   0  0  0  0  0  0  0  0  0  0  0  0
   21.1793   -4.4265  -14.2063 C   0  0  0  0  0  0  0  0  0  0  0  0
   21.1589   -3.3732  -13.3109 O   0  0  0  0  0  0  0  0  0  0  0  0
   20.0956   -5.0507  -14.4056 O   0  0  0  0  0  0  0  0  0  0  0  0
  2  1  1  0
  3  2  1  0
  3  4  1  0
  4  5  1  0
  5  7  1  0
  5  6  1  6
  7  9  1  0
  7  8  2  0
  9 10  1  0
 10 13  1  0
 10 11  1  1
 11 12  1  0
 13 14  2  0
 16 15  1  6
 16 18  1  0
 16 17  1  0
 18 20  1  0
 19 13  1  0
 18 19  1  6
 20 21  1  0
 22 20  2  0
M  END
$$$$
