MCT.pdb
     RDKit          3D

 22 21  0  0  1  0  0  0  0  0999 V2000
   25.7542  -16.0244  -16.0884 C   0  0  0  0  0  0  0  0  0  0  0  0
   27.5228  -16.0817  -15.8128 S   0  0  0  0  0  0  0  0  0  0  0  0
   28.1788  -17.7308  -15.6735 C   0  0  0  0  0  0  0  0  0  0  0  0
   27.2676  -18.7180  -15.0242 C   0  0  0  0  0  0  0  0  0  0  0  0
   27.8608  -20.0523  -14.7148 C   0  0  2  0  0  0  0  0  0  0  0  0
   28.0735  -20.8663  -15.9027 N   0  0  0  0  0  0  0  0  0  0  0  0
   26.8386  -20.7668  -13.8638 C   0  0  0  0  0  0  0  0  0  0  0  0
   26.1407  -21.6558  -14.4007 O   0  0  0  0  0  0  0  0  0  0  0  0
   26.6451  -20.4753  -12.5122 N   0  0  0  0  0  0  0  0  0  0  0  0
   25.5023  -21.0620  -11.8200 C   0  0  1  0  0  0  0  0  0  0  0  0
   25.8199  -20.8826  -10.3481 C   0  0  0  0  0  0  0  0  0  0  0  0
   24.3982  -21.1381   -9.2761 S   0  0  0  0  0  0  0  0  0  0  0  0
   24.2448  -20.4528  -12.2443 C   0  0  0  0  0  0  0  0  0  0  0  0
   24.1276  -19.1923  -12.1547 O   0  0  0  0  0  0  0  0  0  0  0  0
   22.7432  -19.8628  -15.3849 C   0  0  0  0  0  0  0  0  0  0  0  0
   21.7127  -20.7024  -14.6611 C   0  0  1  0  0  0  0  0  0  0  0  0
   21.9211  -22.0518  -15.0173 O   0  0  0  0  0  0  0  0  0  0  0  0
   21.9066  -20.6451  -13.1630 C   0  0  2  0  0  0  0  0  0  0  0  0
   23.1786  -21.2014  -12.7420 N   0  0  0  0  0  0  0  0  0  0  0  0
   20.8244  -21.4455  -12.5491 C   0  0  0  0  0  0  0  0  0  0  0  0
   21.1184  -22.6394  -11.9168 O   0  0  0  0  0  0  0  0  0  0  0  0
   19.6131  -21.0772  -12.5777 O   0  0  0  0  0  0  0  0  0  0  0  0
  2  1  1  0
  3  2  1  0
  3  4  1  0
  4  5  1  0
  5  7  1  0
  5  6  1  6
  7  9  1  0
  7  8  2  0
  9 10  1  0
 10 13  1  0
 10 11  1  1
 11 12  1  0
 13 14  2  0
 16 15  1  6
 16 18  1  0
 16 17  1  0
 18 20  1  0
 19 13  1  0
 18 19  1  6
 20 21  1  0
 22 20  2  0
M  END
$$$$
