MCT.pdb
     RDKit          3D

 22 21  0  0  1  0  0  0  0  0999 V2000
   17.9672  -13.1014  -20.6407 C   0  0  0  0  0  0  0  0  0  0  0  0
   18.3853  -11.9608  -19.3249 S   0  0  0  0  0  0  0  0  0  0  0  0
   17.3206  -12.0774  -17.9029 C   0  0  0  0  0  0  0  0  0  0  0  0
   17.6027  -11.0877  -16.8224 C   0  0  0  0  0  0  0  0  0  0  0  0
   18.9780  -11.1240  -16.2434 C   0  0  2  0  0  0  0  0  0  0  0  0
   19.1367  -12.1529  -15.2260 N   0  0  0  0  0  0  0  0  0  0  0  0
   19.1695   -9.7910  -15.5607 C   0  0  0  0  0  0  0  0  0  0  0  0
   18.5219   -9.5650  -14.5143 O   0  0  0  0  0  0  0  0  0  0  0  0
   20.0348   -8.8102  -16.0491 N   0  0  0  0  0  0  0  0  0  0  0  0
   20.1943   -7.5707  -15.2958 C   0  0  1  0  0  0  0  0  0  0  0  0
   21.6292   -7.6082  -14.8068 C   0  0  0  0  0  0  0  0  0  0  0  0
   22.1524   -6.0801  -14.0151 S   0  0  0  0  0  0  0  0  0  0  0  0
   19.8636   -6.4016  -16.1061 C   0  0  0  0  0  0  0  0  0  0  0  0
   20.3622   -6.3169  -17.2701 O   0  0  0  0  0  0  0  0  0  0  0  0
   16.2940   -4.8418  -16.8801 C   0  0  0  0  0  0  0  0  0  0  0  0
   17.2146   -3.8208  -16.2470 C   0  0  1  0  0  0  0  0  0  0  0  0
   16.9816   -3.8270  -14.8553 O   0  0  0  0  0  0  0  0  0  0  0  0
   18.6666   -4.2063  -16.4156 C   0  0  2  0  0  0  0  0  0  0  0  0
   19.0249   -5.3852  -15.6498 N   0  0  0  0  0  0  0  0  0  0  0  0
   19.4816   -3.0717  -15.9289 C   0  0  0  0  0  0  0  0  0  0  0  0
   19.4287   -1.8516  -16.5773 O   0  0  0  0  0  0  0  0  0  0  0  0
   20.2427   -3.1704  -14.9216 O   0  0  0  0  0  0  0  0  0  0  0  0
  2  1  1  0
  3  2  1  0
  3  4  1  0
  4  5  1  0
  5  7  1  0
  5  6  1  1
  7  9  1  0
  7  8  2  0
  9 10  1  0
 10 13  1  0
 10 11  1  6
 11 12  1  0
 13 14  2  0
 16 15  1  6
 16 18  1  0
 16 17  1  0
 18 20  1  0
 19 13  1  0
 18 19  1  1
 20 21  1  0
 22 20  2  0
M  END
$$$$
