MCT.pdb
     RDKit          3D

 22 21  0  0  1  0  0  0  0  0999 V2000
   27.0635  -19.2688   -6.7998 C   0  0  0  0  0  0  0  0  0  0  0  0
   26.1275  -20.7886   -6.9447 S   0  0  0  0  0  0  0  0  0  0  0  0
   24.8446  -20.7318   -8.1776 C   0  0  0  0  0  0  0  0  0  0  0  0
   25.2762  -20.2227   -9.5122 C   0  0  0  0  0  0  0  0  0  0  0  0
   26.3301  -21.0188  -10.2076 C   0  0  2  0  0  0  0  0  0  0  0  0
   27.5798  -21.0757   -9.4634 N   0  0  0  0  0  0  0  0  0  0  0  0
   26.6134  -20.2847  -11.4962 C   0  0  0  0  0  0  0  0  0  0  0  0
   26.7441  -19.0412  -11.4509 O   0  0  0  0  0  0  0  0  0  0  0  0
   26.7343  -20.9360  -12.7251 N   0  0  0  0  0  0  0  0  0  0  0  0
   27.1349  -20.1642  -13.8969 C   0  0  1  0  0  0  0  0  0  0  0  0
   28.6377  -20.3508  -13.9762 C   0  0  0  0  0  0  0  0  0  0  0  0
   29.4429  -20.3401  -12.3677 S   0  0  0  0  0  0  0  0  0  0  0  0
   26.4108  -20.5859  -15.0929 C   0  0  0  0  0  0  0  0  0  0  0  0
   26.3852  -21.8231  -15.3747 O   0  0  0  0  0  0  0  0  0  0  0  0
   22.6874  -20.1114  -16.0371 C   0  0  0  0  0  0  0  0  0  0  0  0
   23.5762  -19.4458  -17.0656 C   0  0  1  0  0  0  0  0  0  0  0  0
   23.7650  -18.1029  -16.6755 O   0  0  0  0  0  0  0  0  0  0  0  0
   24.9574  -20.0599  -17.0827 C   0  0  2  0  0  0  0  0  0  0  0  0
   25.7508  -19.6845  -15.9275 N   0  0  0  0  0  0  0  0  0  0  0  0
   25.6430  -19.5653  -18.2967 C   0  0  0  0  0  0  0  0  0  0  0  0
   25.1971  -19.9467  -19.5487 O   0  0  0  0  0  0  0  0  0  0  0  0
   26.6428  -18.7904  -18.2389 O   0  0  0  0  0  0  0  0  0  0  0  0
  2  1  1  0
  3  2  1  0
  3  4  1  0
  4  5  1  0
  5  7  1  0
  5  6  1  1
  7  9  1  0
  7  8  2  0
  9 10  1  0
 10 13  1  0
 10 11  1  6
 11 12  1  0
 13 14  2  0
 16 15  1  1
 16 18  1  0
 16 17  1  0
 18 20  1  0
 19 13  1  0
 18 19  1  1
 20 21  1  0
 22 20  2  0
M  END
$$$$
