MCT.pdb
     RDKit          3D

 22 21  0  0  1  0  0  0  0  0999 V2000
   17.9787  -16.3526  -17.2140 C   0  0  0  0  0  0  0  0  0  0  0  0
   19.2379  -17.6088  -17.4224 S   0  0  0  0  0  0  0  0  0  0  0  0
   20.2235  -17.8917  -15.9672 C   0  0  0  0  0  0  0  0  0  0  0  0
   20.7585  -16.6583  -15.3198 C   0  0  0  0  0  0  0  0  0  0  0  0
   21.8351  -15.9415  -16.0649 C   0  0  2  0  0  0  0  0  0  0  0  0
   23.0811  -16.6921  -16.1205 N   0  0  0  0  0  0  0  0  0  0  0  0
   22.1094  -14.6831  -15.2771 C   0  0  0  0  0  0  0  0  0  0  0  0
   22.5401  -14.8002  -14.1082 O   0  0  0  0  0  0  0  0  0  0  0  0
   21.9024  -13.4051  -15.7998 N   0  0  0  0  0  0  0  0  0  0  0  0
   22.1948  -12.2448  -14.9646 C   0  0  1  0  0  0  0  0  0  0  0  0
   23.7061  -12.2407  -14.8402 C   0  0  0  0  0  0  0  0  0  0  0  0
   24.5512  -12.4630  -16.4125 S   0  0  0  0  0  0  0  0  0  0  0  0
   21.6327  -11.0203  -15.5279 C   0  0  0  0  0  0  0  0  0  0  0  0
   21.7932  -10.8005  -16.7675 O   0  0  0  0  0  0  0  0  0  0  0  0
   17.9772   -9.8049  -15.4357 C   0  0  0  0  0  0  0  0  0  0  0  0
   18.8675   -8.7439  -14.8254 C   0  0  1  0  0  0  0  0  0  0  0  0
   18.8923   -8.9457  -13.4290 O   0  0  0  0  0  0  0  0  0  0  0  0
   20.3008   -8.8959  -15.2814 C   0  0  2  0  0  0  0  0  0  0  0  0
   20.9302  -10.0937  -14.7582 N   0  0  0  0  0  0  0  0  0  0  0  0
   21.0482   -7.7221  -14.7794 C   0  0  0  0  0  0  0  0  0  0  0  0
   20.7342   -6.4543  -15.2332 O   0  0  0  0  0  0  0  0  0  0  0  0
   21.9841   -7.8293  -13.9330 O   0  0  0  0  0  0  0  0  0  0  0  0
  2  1  1  0
  3  2  1  0
  3  4  1  0
  4  5  1  0
  5  7  1  0
  5  6  1  1
  7  9  1  0
  7  8  2  0
  9 10  1  0
 10 13  1  0
 10 11  1  6
 11 12  1  0
 13 14  2  0
 16 15  1  6
 16 18  1  0
 16 17  1  0
 18 20  1  0
 19 13  1  0
 18 19  1  1
 20 21  1  0
 22 20  2  0
M  END
$$$$
