YHD.pdb
     RDKit          3D

 31 32  0  0  1  0  0  0  0  0999 V2000
    6.1591  -11.0723   28.2439 O   0  0  0  0  0  0  0  0  0  0  0  0
    6.4059  -11.8359   27.1090 C   0  0  0  0  0  0  0  0  0  0  0  0
    7.1618  -11.3084   26.0817 C   0  0  0  0  0  0  0  0  0  0  0  0
    7.4240  -12.0364   24.9470 C   0  0  0  0  0  0  0  0  0  0  0  0
    6.9357  -13.3328   24.7939 C   0  0  0  0  0  0  0  0  0  0  0  0
    7.1820  -14.1570   23.6082 C   0  0  0  0  0  0  0  0  0  0  0  0
    8.1997  -15.2414   23.8749 C   0  0  2  0  0  0  0  0  0  0  0  0
    9.3090  -14.6896   24.5874 N   0  0  0  0  0  0  0  0  0  0  0  0
    8.6278  -15.7885   22.5324 C   0  0  0  0  0  0  0  0  0  0  0  0
    7.7989  -16.3919   21.8076 O   0  0  0  0  0  0  0  0  0  0  0  0
    6.1878  -13.8376   25.8252 C   0  0  0  0  0  0  0  0  0  0  0  0
    5.9184  -13.1185   26.9662 C   0  0  0  0  0  0  0  0  0  0  0  0
    9.9561  -15.6319   22.0744 N   0  0  0  0  0  0  0  0  0  0  0  0
   10.4213  -16.2431   20.7962 C   0  0  1  0  0  0  0  0  0  0  0  0
   10.5304  -15.1602   19.7676 C   0  0  0  0  0  0  0  0  0  0  0  0
    9.2995  -14.4317   19.5405 C   0  0  0  0  0  0  0  0  0  0  0  0
    9.0755  -13.0868   19.6991 C   0  0  0  0  0  0  0  0  0  0  0  0
    7.8036  -12.8240   19.4431 N   0  0  0  0  0  0  0  0  0  0  0  0
    7.2132  -13.9857   19.1233 C   0  0  0  0  0  0  0  0  0  0  0  0
    8.1173  -14.9663   19.1808 N   0  0  0  0  0  0  0  0  0  0  0  0
   11.6073  -17.0605   21.0440 C   0  0  0  0  0  0  0  0  0  0  0  0
   12.1058  -17.7164   20.0712 O   0  0  0  0  0  0  0  0  0  0  0  0
   12.2727  -17.1848   22.2910 N   0  0  0  0  0  0  0  0  0  0  0  0
   13.0882  -18.3403   22.6227 C   0  0  1  0  0  0  0  0  0  0  0  0
   14.4676  -17.9482   23.0710 C   0  0  0  0  0  0  0  0  0  0  0  0
   14.9941  -16.7522   22.3881 C   0  0  0  0  0  0  0  0  0  0  0  0
   16.1322  -16.3076   22.6583 O   0  0  0  0  0  0  0  0  0  0  0  0
   12.4526  -19.2925   23.5469 C   0  0  0  0  0  0  0  0  0  0  0  0
   11.3456  -19.1699   24.1105 O   0  0  0  0  0  0  0  0  0  0  0  0
   14.2709  -16.0634   21.4239 O   0  0  0  0  0  0  0  0  0  0  0  0
   13.1317  -20.4902   23.8607 O   0  0  0  0  0  0  0  0  0  0  0  0
  2 12  2  0
  2  1  1  0
  3  2  1  0
  4  5  1  0
  4  3  2  0
  5 11  2  0
  6  5  1  0
  6  7  1  0
  7  9  1  0
  7  8  1  6
  9 13  1  0
 10  9  2  0
 11 12  1  0
 13 14  1  0
 14 15  1  6
 15 16  1  0
 16 17  2  0
 18 17  1  0
 19 18  1  0
 20 19  2  0
 20 16  1  0
 21 22  2  0
 21 14  1  0
 23 21  1  0
 24 23  1  0
 24 28  1  0
 24 25  1  1
 26 25  1  0
 26 27  2  0
 28 31  1  0
 29 28  2  0
 30 26  1  0
M  END
$$$$
