YHD.pdb
     RDKit          3D

 31 32  0  0  1  0  0  0  0  0999 V2000
   10.5755  -15.4960   31.2076 O   0  0  0  0  0  0  0  0  0  0  0  0
   10.1269  -15.2628   29.9128 C   0  0  0  0  0  0  0  0  0  0  0  0
   10.4717  -14.0905   29.2710 C   0  0  0  0  0  0  0  0  0  0  0  0
   10.0449  -13.8295   27.9920 C   0  0  0  0  0  0  0  0  0  0  0  0
    9.2490  -14.7392   27.2982 C   0  0  0  0  0  0  0  0  0  0  0  0
    8.7639  -14.5164   25.9341 C   0  0  0  0  0  0  0  0  0  0  0  0
    7.8089  -15.5995   25.4897 C   0  0  2  0  0  0  0  0  0  0  0  0
    8.1099  -16.8139   26.1806 N   0  0  0  0  0  0  0  0  0  0  0  0
    7.9834  -15.7604   23.9968 C   0  0  0  0  0  0  0  0  0  0  0  0
    8.4052  -16.8460   23.5279 O   0  0  0  0  0  0  0  0  0  0  0  0
    8.9181  -15.8964   27.9533 C   0  0  0  0  0  0  0  0  0  0  0  0
    9.3392  -16.1692   29.2339 C   0  0  0  0  0  0  0  0  0  0  0  0
    7.6775  -14.7014   23.1116 N   0  0  0  0  0  0  0  0  0  0  0  0
    8.0052  -14.7753   21.6587 C   0  0  1  0  0  0  0  0  0  0  0  0
    7.3666  -13.6084   20.9710 C   0  0  0  0  0  0  0  0  0  0  0  0
    7.5832  -13.5722   19.5395 C   0  0  0  0  0  0  0  0  0  0  0  0
    8.2597  -12.6236   18.8139 C   0  0  0  0  0  0  0  0  0  0  0  0
    8.1846  -12.9243   17.5269 N   0  0  0  0  0  0  0  0  0  0  0  0
    7.4678  -14.0537   17.4229 C   0  0  0  0  0  0  0  0  0  0  0  0
    7.0995  -14.4521   18.6427 N   0  0  0  0  0  0  0  0  0  0  0  0
    9.4456  -14.9543   21.4870 C   0  0  0  0  0  0  0  0  0  0  0  0
   10.2232  -14.5272   22.4023 O   0  0  0  0  0  0  0  0  0  0  0  0
   10.0682  -15.5814   20.3770 N   0  0  0  0  0  0  0  0  0  0  0  0
   11.5116  -15.6998   20.2626 C   0  0  1  0  0  0  0  0  0  0  0  0
   12.0092  -17.0321   20.7473 C   0  0  0  0  0  0  0  0  0  0  0  0
   13.4636  -17.2144   20.5873 C   0  0  0  0  0  0  0  0  0  0  0  0
   14.1705  -16.3177   20.0755 O   0  0  0  0  0  0  0  0  0  0  0  0
   12.0507  -15.3530   18.9383 C   0  0  0  0  0  0  0  0  0  0  0  0
   12.0253  -16.0563   17.9073 O   0  0  0  0  0  0  0  0  0  0  0  0
   14.1201  -18.3702   20.9878 O   0  0  0  0  0  0  0  0  0  0  0  0
   12.6740  -14.0975   18.7667 O   0  0  0  0  0  0  0  0  0  0  0  0
  2 12  2  0
  2  1  1  0
  3  2  1  0
  4  5  1  0
  4  3  2  0
  5 11  2  0
  6  5  1  0
  6  7  1  0
  7  9  1  0
  7  8  1  1
  9 13  1  0
 10  9  2  0
 11 12  1  0
 13 14  1  0
 14 15  1  6
 15 16  1  0
 16 17  2  0
 18 17  1  0
 19 18  1  0
 20 19  2  0
 20 16  1  0
 21 22  2  0
 21 14  1  0
 23 21  1  0
 24 23  1  0
 24 28  1  0
 24 25  1  6
 26 25  1  0
 26 27  2  0
 28 31  1  0
 29 28  2  0
 30 26  1  0
M  END
$$$$
