YHD.pdb
     RDKit          3D

 31 32  0  0  1  0  0  0  0  0999 V2000
   17.9592  -16.3238    5.2664 O   0  0  0  0  0  0  0  0  0  0  0  0
   17.4643  -16.5307    6.5487 C   0  0  0  0  0  0  0  0  0  0  0  0
   17.0603  -15.4511    7.3076 C   0  0  0  0  0  0  0  0  0  0  0  0
   16.5668  -15.6212    8.5780 C   0  0  0  0  0  0  0  0  0  0  0  0
   16.4572  -16.8900    9.1444 C   0  0  0  0  0  0  0  0  0  0  0  0
   15.9392  -17.1337   10.4928 C   0  0  0  0  0  0  0  0  0  0  0  0
   14.4669  -17.4723   10.4802 C   0  0  2  0  0  0  0  0  0  0  0  0
   13.7128  -16.3089   10.1327 N   0  0  0  0  0  0  0  0  0  0  0  0
   14.1119  -17.9621   11.8655 C   0  0  0  0  0  0  0  0  0  0  0  0
   13.6277  -17.1664   12.7074 O   0  0  0  0  0  0  0  0  0  0  0  0
   16.8636  -17.9480    8.3744 C   0  0  0  0  0  0  0  0  0  0  0  0
   17.3594  -17.7904    7.1012 C   0  0  0  0  0  0  0  0  0  0  0  0
   14.3171  -19.3117   12.2333 N   0  0  0  0  0  0  0  0  0  0  0  0
   13.9812  -19.8117   13.5974 C   0  0  1  0  0  0  0  0  0  0  0  0
   13.1876  -21.0736   13.4552 C   0  0  0  0  0  0  0  0  0  0  0  0
   11.7895  -20.8630   13.1415 C   0  0  0  0  0  0  0  0  0  0  0  0
   10.9257  -19.9602   13.7097 C   0  0  0  0  0  0  0  0  0  0  0  0
    9.7211  -20.1203   13.1849 N   0  0  0  0  0  0  0  0  0  0  0  0
    9.8060  -21.1150   12.2885 C   0  0  0  0  0  0  0  0  0  0  0  0
   11.0606  -21.5703   12.2578 N   0  0  0  0  0  0  0  0  0  0  0  0
   15.1917  -19.8642   14.4148 C   0  0  0  0  0  0  0  0  0  0  0  0
   16.1266  -20.6565   14.0639 O   0  0  0  0  0  0  0  0  0  0  0  0
   15.4291  -19.0910   15.5806 N   0  0  0  0  0  0  0  0  0  0  0  0
   16.6355  -19.2385   16.3763 C   0  0  1  0  0  0  0  0  0  0  0  0
   17.3956  -17.9479   16.4942 C   0  0  0  0  0  0  0  0  0  0  0  0
   17.8688  -17.4195   15.2016 C   0  0  0  0  0  0  0  0  0  0  0  0
   17.3668  -16.3846   14.7086 O   0  0  0  0  0  0  0  0  0  0  0  0
   16.4317  -19.8854   17.6819 C   0  0  0  0  0  0  0  0  0  0  0  0
   17.3102  -20.2045   18.5093 O   0  0  0  0  0  0  0  0  0  0  0  0
   18.8797  -18.0284   14.4706 O   0  0  0  0  0  0  0  0  0  0  0  0
   15.1154  -20.1986   18.0863 O   0  0  0  0  0  0  0  0  0  0  0  0
  2 12  2  0
  2  1  1  0
  3  2  1  0
  4  5  1  0
  4  3  2  0
  5 11  2  0
  6  5  1  0
  6  7  1  0
  7  9  1  0
  7  8  1  1
  9 13  1  0
 10  9  2  0
 11 12  1  0
 13 14  1  0
 14 15  1  6
 15 16  1  0
 16 17  2  0
 18 17  1  0
 19 18  1  0
 20 19  2  0
 20 16  1  0
 21 22  2  0
 21 14  1  0
 23 21  1  0
 24 23  1  0
 24 28  1  0
 24 25  1  1
 26 25  1  0
 26 27  2  0
 28 31  1  0
 29 28  2  0
 30 26  1  0
M  END
$$$$
