YHD.pdb
     RDKit          3D

 31 32  0  0  1  0  0  0  0  0999 V2000
    6.3426  -10.6837   27.8467 O   0  0  0  0  0  0  0  0  0  0  0  0
    6.7837  -11.8555   27.2431 C   0  0  0  0  0  0  0  0  0  0  0  0
    5.9517  -12.9559   27.1979 C   0  0  0  0  0  0  0  0  0  0  0  0
    6.3570  -14.1285   26.6089 C   0  0  0  0  0  0  0  0  0  0  0  0
    7.6222  -14.2477   26.0367 C   0  0  0  0  0  0  0  0  0  0  0  0
    8.1098  -15.4710   25.3952 C   0  0  0  0  0  0  0  0  0  0  0  0
    7.3489  -15.7871   24.1288 C   0  0  2  0  0  0  0  0  0  0  0  0
    6.3627  -16.7851   24.4014 N   0  0  0  0  0  0  0  0  0  0  0  0
    8.3577  -16.2758   23.1147 C   0  0  0  0  0  0  0  0  0  0  0  0
    8.4977  -17.5070   22.9121 O   0  0  0  0  0  0  0  0  0  0  0  0
    8.4324  -13.1439   26.0922 C   0  0  0  0  0  0  0  0  0  0  0  0
    8.0380  -11.9642   26.6792 C   0  0  0  0  0  0  0  0  0  0  0  0
    9.1532  -15.3637   22.3840 N   0  0  0  0  0  0  0  0  0  0  0  0
   10.0320  -15.8117   21.2657 C   0  0  1  0  0  0  0  0  0  0  0  0
   10.0421  -14.7434   20.2164 C   0  0  0  0  0  0  0  0  0  0  0  0
    8.7285  -14.3822   19.7249 C   0  0  0  0  0  0  0  0  0  0  0  0
    8.1380  -14.7595   18.5447 C   0  0  0  0  0  0  0  0  0  0  0  0
    6.9558  -14.1728   18.4422 N   0  0  0  0  0  0  0  0  0  0  0  0
    6.7852  -13.4252   19.5432 C   0  0  0  0  0  0  0  0  0  0  0  0
    7.8592  -13.5485   20.3265 N   0  0  0  0  0  0  0  0  0  0  0  0
   11.3218  -16.2480   21.7970 C   0  0  0  0  0  0  0  0  0  0  0  0
   12.1875  -16.7108   20.9838 O   0  0  0  0  0  0  0  0  0  0  0  0
   11.7087  -16.1929   23.1610 N   0  0  0  0  0  0  0  0  0  0  0  0
   12.9768  -16.7248   23.6292 C   0  0  1  0  0  0  0  0  0  0  0  0
   13.9693  -15.6374   23.9291 C   0  0  0  0  0  0  0  0  0  0  0  0
   15.3092  -16.1404   24.2834 C   0  0  0  0  0  0  0  0  0  0  0  0
   15.8505  -17.0500   23.6159 O   0  0  0  0  0  0  0  0  0  0  0  0
   12.8642  -17.6943   24.7302 C   0  0  0  0  0  0  0  0  0  0  0  0
   13.7889  -18.3483   25.2549 O   0  0  0  0  0  0  0  0  0  0  0  0
   16.0340  -15.6430   25.3578 O   0  0  0  0  0  0  0  0  0  0  0  0
   11.5906  -17.9451   25.2863 O   0  0  0  0  0  0  0  0  0  0  0  0
  2 12  2  0
  2  1  1  0
  3  2  1  0
  4  5  1  0
  4  3  2  0
  5 11  2  0
  6  5  1  0
  6  7  1  0
  7  9  1  0
  7  8  1  1
  9 13  1  0
 10  9  2  0
 11 12  1  0
 13 14  1  0
 14 15  1  6
 15 16  1  0
 16 17  2  0
 18 17  1  0
 19 18  1  0
 20 19  2  0
 20 16  1  0
 21 22  2  0
 21 14  1  0
 23 21  1  0
 24 23  1  0
 24 28  1  0
 24 25  1  1
 26 25  1  0
 26 27  2  0
 28 31  1  0
 29 28  2  0
 30 26  1  0
M  END
$$$$
