YHD.pdb
     RDKit          3D

 31 32  0  0  1  0  0  0  0  0999 V2000
    6.6639  -12.5693   15.0448 O   0  0  0  0  0  0  0  0  0  0  0  0
    7.1156  -13.0963   16.2491 C   0  0  0  0  0  0  0  0  0  0  0  0
    6.3902  -12.8820   17.4035 C   0  0  0  0  0  0  0  0  0  0  0  0
    6.8089  -13.3888   18.6094 C   0  0  0  0  0  0  0  0  0  0  0  0
    7.9807  -14.1368   18.7088 C   0  0  0  0  0  0  0  0  0  0  0  0
    8.4772  -14.7023   19.9655 C   0  0  0  0  0  0  0  0  0  0  0  0
    8.7031  -16.1928   19.8646 C   0  0  2  0  0  0  0  0  0  0  0  0
    7.4713  -16.8409   19.5397 N   0  0  0  0  0  0  0  0  0  0  0  0
    9.2286  -16.6541   21.2047 C   0  0  0  0  0  0  0  0  0  0  0  0
    8.5391  -16.4863   22.2406 O   0  0  0  0  0  0  0  0  0  0  0  0
    8.6859  -14.3378   17.5512 C   0  0  0  0  0  0  0  0  0  0  0  0
    8.2770  -13.8356   16.3379 C   0  0  0  0  0  0  0  0  0  0  0  0
   10.4933  -17.2765   21.3137 N   0  0  0  0  0  0  0  0  0  0  0  0
   10.7006  -18.4868   22.1599 C   0  0  1  0  0  0  0  0  0  0  0  0
    9.6402  -19.4878   21.8193 C   0  0  0  0  0  0  0  0  0  0  0  0
    9.7584  -20.7429   22.5323 C   0  0  0  0  0  0  0  0  0  0  0  0
   10.2976  -20.9572   23.7761 C   0  0  0  0  0  0  0  0  0  0  0  0
   10.2674  -22.2527   24.0466 N   0  0  0  0  0  0  0  0  0  0  0  0
    9.7153  -22.8676   22.9895 C   0  0  0  0  0  0  0  0  0  0  0  0
    9.4040  -21.9552   22.0660 N   0  0  0  0  0  0  0  0  0  0  0  0
   12.0932  -18.9205   22.0666 C   0  0  0  0  0  0  0  0  0  0  0  0
   12.5662  -19.1977   20.9158 O   0  0  0  0  0  0  0  0  0  0  0  0
   12.9863  -19.0542   23.1609 N   0  0  0  0  0  0  0  0  0  0  0  0
   14.4278  -18.9746   22.9992 C   0  0  1  0  0  0  0  0  0  0  0  0
   14.8935  -17.5645   22.7707 C   0  0  0  0  0  0  0  0  0  0  0  0
   16.3368  -17.4563   22.4891 C   0  0  0  0  0  0  0  0  0  0  0  0
   17.1533  -18.2502   23.0078 O   0  0  0  0  0  0  0  0  0  0  0  0
   15.1997  -19.6514   24.0532 C   0  0  0  0  0  0  0  0  0  0  0  0
   15.1208  -19.4610   25.2843 O   0  0  0  0  0  0  0  0  0  0  0  0
   16.8631  -16.4855   21.6478 O   0  0  0  0  0  0  0  0  0  0  0  0
   16.1454  -20.6312   23.6790 O   0  0  0  0  0  0  0  0  0  0  0  0
  2 12  2  0
  2  1  1  0
  3  2  1  0
  4  5  1  0
  4  3  2  0
  5 11  2  0
  6  5  1  0
  6  7  1  0
  7  9  1  0
  7  8  1  1
  9 13  1  0
 10  9  2  0
 11 12  1  0
 13 14  1  0
 14 15  1  6
 15 16  1  0
 16 17  2  0
 18 17  1  0
 19 18  1  0
 20 19  2  0
 20 16  1  0
 21 22  2  0
 21 14  1  0
 23 21  1  0
 24 23  1  0
 24 28  1  0
 24 25  1  1
 26 25  1  0
 26 27  2  0
 28 31  1  0
 29 28  2  0
 30 26  1  0
M  END
$$$$
