YHD.pdb
     RDKit          3D

 31 32  0  0  1  0  0  0  0  0999 V2000
    7.1736  -11.6523   28.2118 O   0  0  0  0  0  0  0  0  0  0  0  0
    6.9295  -12.4133   27.0745 C   0  0  0  0  0  0  0  0  0  0  0  0
    6.2031  -13.5823   27.1776 C   0  0  0  0  0  0  0  0  0  0  0  0
    5.9444  -14.3571   26.0734 C   0  0  0  0  0  0  0  0  0  0  0  0
    6.4065  -13.9893   24.8110 C   0  0  0  0  0  0  0  0  0  0  0  0
    6.1624  -14.7739   23.5983 C   0  0  0  0  0  0  0  0  0  0  0  0
    6.8557  -16.1155   23.6439 C   0  0  2  0  0  0  0  0  0  0  0  0
    7.5444  -16.2545   24.8885 N   0  0  0  0  0  0  0  0  0  0  0  0
    7.8167  -16.1586   22.4778 C   0  0  0  0  0  0  0  0  0  0  0  0
    7.4087  -16.5015   21.3409 O   0  0  0  0  0  0  0  0  0  0  0  0
    7.1253  -12.8255   24.7305 C   0  0  0  0  0  0  0  0  0  0  0  0
    7.3909  -12.0413   25.8288 C   0  0  0  0  0  0  0  0  0  0  0  0
    9.1783  -15.8169   22.6458 N   0  0  0  0  0  0  0  0  0  0  0  0
   10.1379  -15.8384   21.5046 C   0  0  1  0  0  0  0  0  0  0  0  0
   10.1552  -14.4788   20.8771 C   0  0  0  0  0  0  0  0  0  0  0  0
    9.0208  -14.2071   20.0187 C   0  0  0  0  0  0  0  0  0  0  0  0
    8.7257  -14.7799   18.8068 C   0  0  0  0  0  0  0  0  0  0  0  0
    7.6317  -14.2197   18.3153 N   0  0  0  0  0  0  0  0  0  0  0  0
    7.2254  -13.2959   19.1994 C   0  0  0  0  0  0  0  0  0  0  0  0
    8.0658  -13.2836   20.2367 N   0  0  0  0  0  0  0  0  0  0  0  0
   11.4156  -16.3944   21.9456 C   0  0  0  0  0  0  0  0  0  0  0  0
   11.6913  -16.3680   23.1899 O   0  0  0  0  0  0  0  0  0  0  0  0
   12.3914  -16.9812   21.0991 N   0  0  0  0  0  0  0  0  0  0  0  0
   13.3841  -17.9191   21.5943 C   0  0  1  0  0  0  0  0  0  0  0  0
   12.7660  -19.0141   22.4168 C   0  0  0  0  0  0  0  0  0  0  0  0
   13.7496  -19.9531   22.9867 C   0  0  0  0  0  0  0  0  0  0  0  0
   14.9776  -19.7684   22.8326 O   0  0  0  0  0  0  0  0  0  0  0  0
   14.2967  -18.4433   20.5661 C   0  0  0  0  0  0  0  0  0  0  0  0
   13.9988  -18.8071   19.4098 O   0  0  0  0  0  0  0  0  0  0  0  0
   13.3767  -21.0755   23.7135 O   0  0  0  0  0  0  0  0  0  0  0  0
   15.6691  -18.5663   20.8755 O   0  0  0  0  0  0  0  0  0  0  0  0
  2 12  2  0
  2  1  1  0
  3  2  1  0
  4  5  1  0
  4  3  2  0
  5 11  2  0
  6  5  1  0
  6  7  1  0
  7  9  1  0
  7  8  1  1
  9 13  1  0
 10  9  2  0
 11 12  1  0
 13 14  1  0
 14 15  1  1
 15 16  1  0
 16 17  2  0
 18 17  1  0
 19 18  1  0
 20 19  2  0
 20 16  1  0
 21 22  2  0
 21 14  1  0
 23 21  1  0
 24 23  1  0
 24 28  1  0
 24 25  1  6
 26 25  1  0
 26 27  2  0
 28 31  1  0
 29 28  2  0
 30 26  1  0
M  END
$$$$
