YHD.pdb
     RDKit          3D

 31 32  0  0  1  0  0  0  0  0999 V2000
    5.7465  -12.9679   19.9073 O   0  0  0  0  0  0  0  0  0  0  0  0
    7.1014  -13.2762   19.8705 C   0  0  0  0  0  0  0  0  0  0  0  0
    7.5882  -14.3096   20.6452 C   0  0  0  0  0  0  0  0  0  0  0  0
    8.9213  -14.6397   20.6318 C   0  0  0  0  0  0  0  0  0  0  0  0
    9.8282  -13.9426   19.8356 C   0  0  0  0  0  0  0  0  0  0  0  0
   11.2597  -14.2484   19.7796 C   0  0  0  0  0  0  0  0  0  0  0  0
   11.6849  -14.7148   18.4069 C   0  0  2  0  0  0  0  0  0  0  0  0
   10.8124  -15.7575   17.9659 N   0  0  0  0  0  0  0  0  0  0  0  0
   13.1096  -15.2060   18.5262 C   0  0  0  0  0  0  0  0  0  0  0  0
   13.3372  -16.4056   18.8187 O   0  0  0  0  0  0  0  0  0  0  0  0
    9.3245  -12.9206   19.0743 C   0  0  0  0  0  0  0  0  0  0  0  0
    7.9918  -12.5806   19.0791 C   0  0  0  0  0  0  0  0  0  0  0  0
   14.1996  -14.3313   18.3126 N   0  0  0  0  0  0  0  0  0  0  0  0
   15.6116  -14.7952   18.4336 C   0  0  1  0  0  0  0  0  0  0  0  0
   16.3781  -14.2867   17.2519 C   0  0  0  0  0  0  0  0  0  0  0  0
   16.0428  -14.9379   16.0025 C   0  0  0  0  0  0  0  0  0  0  0  0
   15.2225  -14.4739   15.0047 C   0  0  0  0  0  0  0  0  0  0  0  0
   15.1316  -15.3906   14.0540 N   0  0  0  0  0  0  0  0  0  0  0  0
   15.8843  -16.4344   14.4338 C   0  0  0  0  0  0  0  0  0  0  0  0
   16.4405  -16.1651   15.6172 N   0  0  0  0  0  0  0  0  0  0  0  0
   16.1253  -14.4688   19.7624 C   0  0  0  0  0  0  0  0  0  0  0  0
   16.8586  -13.4342   19.8919 O   0  0  0  0  0  0  0  0  0  0  0  0
   15.8688  -15.2081   20.9459 N   0  0  0  0  0  0  0  0  0  0  0  0
   16.8821  -16.0345   21.5788 C   0  0  1  0  0  0  0  0  0  0  0  0
   16.9125  -17.4252   21.0108 C   0  0  0  0  0  0  0  0  0  0  0  0
   17.8585  -18.3241   21.6972 C   0  0  0  0  0  0  0  0  0  0  0  0
   18.5636  -17.9114   22.6450 O   0  0  0  0  0  0  0  0  0  0  0  0
   18.2208  -15.4264   21.6330 C   0  0  0  0  0  0  0  0  0  0  0  0
   19.0705  -15.3938   20.7192 O   0  0  0  0  0  0  0  0  0  0  0  0
   18.0184  -19.6555   21.3379 O   0  0  0  0  0  0  0  0  0  0  0  0
   18.6337  -14.7995   22.8292 O   0  0  0  0  0  0  0  0  0  0  0  0
  2 12  2  0
  2  1  1  0
  3  2  1  0
  4  5  1  0
  4  3  2  0
  5 11  2  0
  6  5  1  0
  6  7  1  0
  7  9  1  0
  7  8  1  1
  9 13  1  0
 10  9  2  0
 11 12  1  0
 13 14  1  0
 14 15  1  6
 15 16  1  0
 16 17  2  0
 18 17  1  0
 19 18  1  0
 20 19  2  0
 20 16  1  0
 21 22  2  0
 21 14  1  0
 23 21  1  0
 24 23  1  0
 24 28  1  0
 24 25  1  6
 26 25  1  0
 26 27  2  0
 28 31  1  0
 29 28  2  0
 30 26  1  0
M  END
$$$$
