YHD.pdb
     RDKit          3D

 31 32  0  0  1  0  0  0  0  0999 V2000
    7.1625  -13.3647   17.0744 O   0  0  0  0  0  0  0  0  0  0  0  0
    8.4256  -13.4650   17.6460 C   0  0  0  0  0  0  0  0  0  0  0  0
    8.7292  -12.7198   18.7674 C   0  0  0  0  0  0  0  0  0  0  0  0
    9.9675  -12.7959   19.3564 C   0  0  0  0  0  0  0  0  0  0  0  0
   10.9601  -13.6282   18.8420 C   0  0  0  0  0  0  0  0  0  0  0  0
   12.2978  -13.7512   19.4261 C   0  0  0  0  0  0  0  0  0  0  0  0
   12.6053  -15.1711   19.8407 C   0  0  2  0  0  0  0  0  0  0  0  0
   12.1589  -16.0720   18.8248 N   0  0  0  0  0  0  0  0  0  0  0  0
   11.8860  -15.4180   21.1471 C   0  0  0  0  0  0  0  0  0  0  0  0
   12.0894  -14.6612   22.1281 O   0  0  0  0  0  0  0  0  0  0  0  0
   10.6383  -14.3592   17.7286 C   0  0  0  0  0  0  0  0  0  0  0  0
    9.4019  -14.2916   17.1298 C   0  0  0  0  0  0  0  0  0  0  0  0
   10.9806  -16.4950   21.2854 N   0  0  0  0  0  0  0  0  0  0  0  0
   10.2862  -16.7740   22.5752 C   0  0  1  0  0  0  0  0  0  0  0  0
    8.8452  -17.0581   22.2833 C   0  0  0  0  0  0  0  0  0  0  0  0
    8.0958  -15.9085   21.8202 C   0  0  0  0  0  0  0  0  0  0  0  0
    7.8498  -14.7373   22.4922 C   0  0  0  0  0  0  0  0  0  0  0  0
    7.0801  -13.9606   21.7461 N   0  0  0  0  0  0  0  0  0  0  0  0
    6.8318  -14.6228   20.6059 C   0  0  0  0  0  0  0  0  0  0  0  0
    7.4465  -15.8073   20.6451 N   0  0  0  0  0  0  0  0  0  0  0  0
   11.0329  -17.7789   23.3294 C   0  0  0  0  0  0  0  0  0  0  0  0
   10.8549  -19.0082   23.0430 O   0  0  0  0  0  0  0  0  0  0  0  0
   11.9632  -17.5043   24.3649 N   0  0  0  0  0  0  0  0  0  0  0  0
   12.6044  -18.5590   25.1307 C   0  0  1  0  0  0  0  0  0  0  0  0
   14.0480  -18.2535   25.4141 C   0  0  0  0  0  0  0  0  0  0  0  0
   14.8647  -18.0756   24.1995 C   0  0  0  0  0  0  0  0  0  0  0  0
   14.5720  -18.6677   23.1367 O   0  0  0  0  0  0  0  0  0  0  0  0
   11.8741  -18.9665   26.3412 C   0  0  0  0  0  0  0  0  0  0  0  0
   10.8644  -18.4201   26.8311 O   0  0  0  0  0  0  0  0  0  0  0  0
   15.9848  -17.2561   24.1658 O   0  0  0  0  0  0  0  0  0  0  0  0
   12.3281  -20.0936   27.0608 O   0  0  0  0  0  0  0  0  0  0  0  0
  2 12  2  0
  2  1  1  0
  3  2  1  0
  4  5  1  0
  4  3  2  0
  5 11  2  0
  6  5  1  0
  6  7  1  0
  7  9  1  0
  7  8  1  6
  9 13  1  0
 10  9  2  0
 11 12  1  0
 13 14  1  0
 14 15  1  6
 15 16  1  0
 16 17  2  0
 18 17  1  0
 19 18  1  0
 20 19  2  0
 20 16  1  0
 21 22  2  0
 21 14  1  0
 23 21  1  0
 24 23  1  0
 24 28  1  0
 24 25  1  1
 26 25  1  0
 26 27  2  0
 28 31  1  0
 29 28  2  0
 30 26  1  0
M  END
$$$$
