YHD.pdb
     RDKit          3D

 31 32  0  0  1  0  0  0  0  0999 V2000
    5.5053  -10.6627   27.8926 O   0  0  0  0  0  0  0  0  0  0  0  0
    6.0979  -11.7569   27.2734 C   0  0  0  0  0  0  0  0  0  0  0  0
    6.8668  -11.5686   26.1428 C   0  0  0  0  0  0  0  0  0  0  0  0
    7.4661  -12.6284   25.5071 C   0  0  0  0  0  0  0  0  0  0  0  0
    7.3183  -13.9304   25.9820 C   0  0  0  0  0  0  0  0  0  0  0  0
    7.9324  -15.0992   25.3475 C   0  0  0  0  0  0  0  0  0  0  0  0
    7.2391  -15.4718   24.0578 C   0  0  2  0  0  0  0  0  0  0  0  0
    6.1614  -16.3679   24.3372 N   0  0  0  0  0  0  0  0  0  0  0  0
    8.2749  -16.1205   23.1681 C   0  0  0  0  0  0  0  0  0  0  0  0
    8.4215  -17.3674   23.1821 O   0  0  0  0  0  0  0  0  0  0  0  0
    6.5512  -14.0955   27.1054 C   0  0  0  0  0  0  0  0  0  0  0  0
    5.9462  -13.0423   27.7507 C   0  0  0  0  0  0  0  0  0  0  0  0
    9.0883  -15.3418   22.3134 N   0  0  0  0  0  0  0  0  0  0  0  0
   10.1386  -15.9599   21.4539 C   0  0  1  0  0  0  0  0  0  0  0  0
   10.4338  -15.0239   20.3230 C   0  0  0  0  0  0  0  0  0  0  0  0
    9.2738  -14.6599   19.5359 C   0  0  0  0  0  0  0  0  0  0  0  0
    8.0572  -15.2934   19.4866 C   0  0  0  0  0  0  0  0  0  0  0  0
    7.2831  -14.6818   18.6039 N   0  0  0  0  0  0  0  0  0  0  0  0
    7.9919  -13.6655   18.0892 C   0  0  0  0  0  0  0  0  0  0  0  0
    9.2025  -13.6472   18.6517 N   0  0  0  0  0  0  0  0  0  0  0  0
   11.2619  -16.3924   22.2829 C   0  0  0  0  0  0  0  0  0  0  0  0
   11.6501  -15.6270   23.2255 O   0  0  0  0  0  0  0  0  0  0  0  0
   11.9670  -17.6149   22.1368 N   0  0  0  0  0  0  0  0  0  0  0  0
   12.6879  -18.2304   23.2376 C   0  0  1  0  0  0  0  0  0  0  0  0
   11.8575  -18.3000   24.4879 C   0  0  0  0  0  0  0  0  0  0  0  0
   12.5326  -18.9784   25.6096 C   0  0  0  0  0  0  0  0  0  0  0  0
   13.6472  -19.5249   25.4520 O   0  0  0  0  0  0  0  0  0  0  0  0
   13.3137  -19.5218   22.9129 C   0  0  0  0  0  0  0  0  0  0  0  0
   14.5149  -19.8321   23.0506 O   0  0  0  0  0  0  0  0  0  0  0  0
   11.9806  -19.0485   26.8814 O   0  0  0  0  0  0  0  0  0  0  0  0
   12.5067  -20.5536   22.3853 O   0  0  0  0  0  0  0  0  0  0  0  0
  2 12  2  0
  2  1  1  0
  3  2  1  0
  4  5  1  0
  4  3  2  0
  5 11  2  0
  6  5  1  0
  6  7  1  0
  7  9  1  0
  7  8  1  1
  9 13  1  0
 10  9  2  0
 11 12  1  0
 13 14  1  0
 14 15  1  6
 15 16  1  0
 16 17  2  0
 18 17  1  0
 19 18  1  0
 20 19  2  0
 20 16  1  0
 21 22  2  0
 21 14  1  0
 23 21  1  0
 24 23  1  0
 24 28  1  0
 24 25  1  1
 26 25  1  0
 26 27  2  0
 28 31  1  0
 29 28  2  0
 30 26  1  0
M  END
$$$$
