YHD.pdb
     RDKit          3D

 31 32  0  0  1  0  0  0  0  0999 V2000
    6.5758  -10.6033   27.1026 O   0  0  0  0  0  0  0  0  0  0  0  0
    6.6649  -11.9468   26.7575 C   0  0  0  0  0  0  0  0  0  0  0  0
    7.9049  -12.5237   26.5715 C   0  0  0  0  0  0  0  0  0  0  0  0
    8.0276  -13.8483   26.2302 C   0  0  0  0  0  0  0  0  0  0  0  0
    6.9043  -14.6555   26.0600 C   0  0  0  0  0  0  0  0  0  0  0  0
    6.9722  -16.0730   25.6968 C   0  0  0  0  0  0  0  0  0  0  0  0
    6.5694  -16.3083   24.2598 C   0  0  2  0  0  0  0  0  0  0  0  0
    5.7666  -17.4878   24.1764 N   0  0  0  0  0  0  0  0  0  0  0  0
    7.8435  -16.4546   23.4596 C   0  0  0  0  0  0  0  0  0  0  0  0
    8.3512  -17.5905   23.2905 O   0  0  0  0  0  0  0  0  0  0  0  0
    5.6831  -14.0635   26.2493 C   0  0  0  0  0  0  0  0  0  0  0  0
    5.5473  -12.7382   26.5912 C   0  0  0  0  0  0  0  0  0  0  0  0
    8.4792  -15.3259   22.8935 N   0  0  0  0  0  0  0  0  0  0  0  0
    9.6605  -15.4613   21.9935 C   0  0  1  0  0  0  0  0  0  0  0  0
    9.7478  -14.2330   21.1415 C   0  0  0  0  0  0  0  0  0  0  0  0
    8.7350  -14.1538   20.1093 C   0  0  0  0  0  0  0  0  0  0  0  0
    7.8319  -13.1434   19.8915 C   0  0  0  0  0  0  0  0  0  0  0  0
    7.0408  -13.4762   18.8836 N   0  0  0  0  0  0  0  0  0  0  0  0
    7.4284  -14.6874   18.4560 C   0  0  0  0  0  0  0  0  0  0  0  0
    8.4576  -15.1044   19.1971 N   0  0  0  0  0  0  0  0  0  0  0  0
   10.8390  -15.8233   22.7785 C   0  0  0  0  0  0  0  0  0  0  0  0
   11.0248  -15.2412   23.8973 O   0  0  0  0  0  0  0  0  0  0  0  0
   11.8087  -16.7897   22.4055 N   0  0  0  0  0  0  0  0  0  0  0  0
   12.9738  -17.0750   23.2248 C   0  0  1  0  0  0  0  0  0  0  0  0
   13.2127  -18.5510   23.3727 C   0  0  0  0  0  0  0  0  0  0  0  0
   14.4118  -18.8799   24.1653 C   0  0  0  0  0  0  0  0  0  0  0  0
   15.4777  -19.2208   23.6053 O   0  0  0  0  0  0  0  0  0  0  0  0
   14.1921  -16.3514   22.8286 C   0  0  0  0  0  0  0  0  0  0  0  0
   14.4110  -15.7867   21.7371 O   0  0  0  0  0  0  0  0  0  0  0  0
   14.4268  -18.8311   25.5525 O   0  0  0  0  0  0  0  0  0  0  0  0
   15.2573  -16.2593   23.7511 O   0  0  0  0  0  0  0  0  0  0  0  0
  2 12  2  0
  2  1  1  0
  3  2  1  0
  4  5  1  0
  4  3  2  0
  5 11  2  0
  6  5  1  0
  6  7  1  0
  7  9  1  0
  7  8  1  1
  9 13  1  0
 10  9  2  0
 11 12  1  0
 13 14  1  0
 14 15  1  1
 15 16  1  0
 16 17  2  0
 18 17  1  0
 19 18  1  0
 20 19  2  0
 20 16  1  0
 21 22  2  0
 21 14  1  0
 23 21  1  0
 24 23  1  0
 24 28  1  0
 24 25  1  6
 26 25  1  0
 26 27  2  0
 28 31  1  0
 29 28  2  0
 30 26  1  0
M  END
$$$$
