YHD.pdb
     RDKit          3D

 31 32  0  0  1  0  0  0  0  0999 V2000
    6.0119  -10.9570   29.0425 O   0  0  0  0  0  0  0  0  0  0  0  0
    6.5030  -11.8574   28.1042 C   0  0  0  0  0  0  0  0  0  0  0  0
    6.1166  -11.7469   26.7838 C   0  0  0  0  0  0  0  0  0  0  0  0
    6.5834  -12.6201   25.8321 C   0  0  0  0  0  0  0  0  0  0  0  0
    7.4633  -13.6478   26.1670 C   0  0  0  0  0  0  0  0  0  0  0  0
    7.9943  -14.6085   25.1969 C   0  0  0  0  0  0  0  0  0  0  0  0
    6.9072  -15.4774   24.6086 C   0  0  2  0  0  0  0  0  0  0  0  0
    6.7564  -16.6560   25.4029 N   0  0  0  0  0  0  0  0  0  0  0  0
    7.3261  -15.8177   23.1966 C   0  0  0  0  0  0  0  0  0  0  0  0
    7.8947  -16.9113   22.9573 O   0  0  0  0  0  0  0  0  0  0  0  0
    7.8342  -13.7400   27.4828 C   0  0  0  0  0  0  0  0  0  0  0  0
    7.3737  -12.8717   28.4449 C   0  0  0  0  0  0  0  0  0  0  0  0
    7.0870  -14.9192   22.1317 N   0  0  0  0  0  0  0  0  0  0  0  0
    7.6596  -15.1442   20.7733 C   0  0  1  0  0  0  0  0  0  0  0  0
    7.1535  -14.0677   19.8637 C   0  0  0  0  0  0  0  0  0  0  0  0
    7.6245  -14.1747   18.4983 C   0  0  0  0  0  0  0  0  0  0  0  0
    8.2883  -13.2271   17.7598 C   0  0  0  0  0  0  0  0  0  0  0  0
    8.4944  -13.6929   16.5380 N   0  0  0  0  0  0  0  0  0  0  0  0
    7.9697  -14.9267   16.4882 C   0  0  0  0  0  0  0  0  0  0  0  0
    7.4395  -15.2250   17.6766 N   0  0  0  0  0  0  0  0  0  0  0  0
    9.1073  -15.3193   20.8716 C   0  0  0  0  0  0  0  0  0  0  0  0
    9.6740  -15.0702   21.9859 O   0  0  0  0  0  0  0  0  0  0  0  0
    9.9541  -15.7594   19.8217 N   0  0  0  0  0  0  0  0  0  0  0  0
   11.1856  -16.4879   20.0726 C   0  0  1  0  0  0  0  0  0  0  0  0
   10.9678  -17.6734   20.9696 C   0  0  0  0  0  0  0  0  0  0  0  0
   11.7315  -17.6106   22.2293 C   0  0  0  0  0  0  0  0  0  0  0  0
   12.4665  -16.6309   22.4862 O   0  0  0  0  0  0  0  0  0  0  0  0
   11.9464  -16.8381   18.8629 C   0  0  0  0  0  0  0  0  0  0  0  0
   11.5894  -17.6042   17.9444 O   0  0  0  0  0  0  0  0  0  0  0  0
   11.6800  -18.6160   23.1851 O   0  0  0  0  0  0  0  0  0  0  0  0
   13.2258  -16.2696   18.6774 O   0  0  0  0  0  0  0  0  0  0  0  0
  2 12  2  0
  2  1  1  0
  3  2  1  0
  4  5  1  0
  4  3  2  0
  5 11  2  0
  6  5  1  0
  6  7  1  0
  7  9  1  0
  7  8  1  1
  9 13  1  0
 10  9  2  0
 11 12  1  0
 13 14  1  0
 14 15  1  6
 15 16  1  0
 16 17  2  0
 18 17  1  0
 19 18  1  0
 20 19  2  0
 20 16  1  0
 21 22  2  0
 21 14  1  0
 23 21  1  0
 24 23  1  0
 24 28  1  0
 24 25  1  6
 26 25  1  0
 26 27  2  0
 28 31  1  0
 29 28  2  0
 30 26  1  0
M  END
$$$$
