DSR.pdb
     RDKit          3D

 26 25  0  0  1  0  0  0  0  0999 V2000
    6.9417  -15.9001   15.9883 N   0  0  0  0  0  0  0  0  0  0  0  0
    8.0871  -15.0292   16.0876 C   0  0  1  0  0  0  0  0  0  0  0  0
    7.7678  -13.8343   15.1793 C   0  0  0  0  0  0  0  0  0  0  0  0
    7.6929  -14.2979   13.7898 C   0  0  0  0  0  0  0  0  0  0  0  0
    7.4995  -15.5079   13.5460 O   0  0  0  0  0  0  0  0  0  0  0  0
    8.2898  -14.4908   17.4438 C   0  0  0  0  0  0  0  0  0  0  0  0
    9.2761  -13.7517   17.6803 O   0  0  0  0  0  0  0  0  0  0  0  0
    7.8348  -13.4064   12.7575 O   0  0  0  0  0  0  0  0  0  0  0  0
    6.2985  -16.2728   20.7289 O   0  0  0  0  0  0  0  0  0  0  0  0
    6.7731  -14.9758   20.8655 C   0  0  0  0  0  0  0  0  0  0  0  0
    7.9025  -14.6563   19.8931 C   0  0  2  0  0  0  0  0  0  0  0  0
    7.4073  -14.7718   18.5168 N   0  0  0  0  0  0  0  0  0  0  0  0
    9.0014  -15.6171   20.0771 C   0  0  0  0  0  0  0  0  0  0  0  0
    9.3043  -16.4062   19.1623 O   0  0  0  0  0  0  0  0  0  0  0  0
   16.8672  -14.7282   20.0184 N   0  0  0  0  0  0  0  0  0  0  0  0
   16.2584  -14.2409   18.8372 C   0  0  0  0  0  0  0  0  0  0  0  0
   17.0109  -13.7474   17.9007 N   0  0  0  0  0  0  0  0  0  0  0  0
   14.8474  -14.2872   18.6711 N   0  0  0  0  0  0  0  0  0  0  0  0
   13.9565  -13.8534   19.7324 C   0  0  0  0  0  0  0  0  0  0  0  0
   13.2873  -15.0329   20.4054 C   0  0  0  0  0  0  0  0  0  0  0  0
   11.7991  -14.8333   20.4991 C   0  0  0  0  0  0  0  0  0  0  0  0
   11.1435  -15.9259   21.2775 C   0  0  2  0  0  0  0  0  0  0  0  0
    9.7102  -15.6421   21.2896 N   0  0  0  0  0  0  0  0  0  0  0  0
   11.6035  -16.0323   22.6706 C   0  0  0  0  0  0  0  0  0  0  0  0
   12.7902  -16.6356   23.0468 O   0  0  0  0  0  0  0  0  0  0  0  0
   10.9095  -15.5599   23.6289 O   0  0  0  0  0  0  0  0  0  0  0  0
  2  1  1  1
  2  3  1  0
  3  4  1  0
  4  8  1  0
  4  5  2  0
  6  2  1  0
  7  6  2  0
  9 10  1  0
 11 10  1  1
 11 12  1  0
 12  6  1  0
 13 11  1  0
 13 23  1  0
 14 13  2  0
 16 15  1  0
 17 16  2  0
 18 16  1  0
 19 18  1  0
 20 19  1  0
 21 20  1  0
 22 21  1  1
 22 23  1  0
 24 22  1  0
 25 24  1  0
 26 24  2  0
M  END
$$$$
