DSR.pdb
     RDKit          3D

 26 25  0  0  1  0  0  0  0  0999 V2000
   13.3770  -18.9969   16.5855 N   0  0  0  0  0  0  0  0  0  0  0  0
   14.1712  -19.0868   17.7861 C   0  0  1  0  0  0  0  0  0  0  0  0
   14.8471  -17.7166   17.9286 C   0  0  0  0  0  0  0  0  0  0  0  0
   15.7108  -17.4875   16.7655 C   0  0  0  0  0  0  0  0  0  0  0  0
   16.2872  -18.4511   16.2177 O   0  0  0  0  0  0  0  0  0  0  0  0
   13.3635  -19.2914   19.0011 C   0  0  0  0  0  0  0  0  0  0  0  0
   12.1454  -18.9897   18.9982 O   0  0  0  0  0  0  0  0  0  0  0  0
   15.8874  -16.2179   16.2779 O   0  0  0  0  0  0  0  0  0  0  0  0
   14.9239  -20.0632   22.9099 O   0  0  0  0  0  0  0  0  0  0  0  0
   13.7768  -20.7084   22.4695 C   0  0  0  0  0  0  0  0  0  0  0  0
   13.0451  -19.9316   21.3813 C   0  0  2  0  0  0  0  0  0  0  0  0
   13.9056  -19.8235   20.1978 N   0  0  0  0  0  0  0  0  0  0  0  0
   12.7380  -18.5754   21.8619 C   0  0  0  0  0  0  0  0  0  0  0  0
   13.2864  -17.5861   21.3406 O   0  0  0  0  0  0  0  0  0  0  0  0
    7.0066  -13.7443   19.0957 N   0  0  0  0  0  0  0  0  0  0  0  0
    7.9081  -12.9698   19.8645 C   0  0  0  0  0  0  0  0  0  0  0  0
    8.0525  -11.7104   19.5821 N   0  0  0  0  0  0  0  0  0  0  0  0
    8.6470  -13.5534   20.9294 N   0  0  0  0  0  0  0  0  0  0  0  0
    9.1621  -14.9071   20.8262 C   0  0  0  0  0  0  0  0  0  0  0  0
    9.8366  -15.3385   22.1111 C   0  0  0  0  0  0  0  0  0  0  0  0
   10.4357  -16.7119   21.9763 C   0  0  0  0  0  0  0  0  0  0  0  0
   11.2664  -17.0707   23.1641 C   0  0  2  0  0  0  0  0  0  0  0  0
   11.8222  -18.3984   22.9122 N   0  0  0  0  0  0  0  0  0  0  0  0
   10.5188  -17.1171   24.4299 C   0  0  0  0  0  0  0  0  0  0  0  0
   10.5683  -16.1238   25.3914 O   0  0  0  0  0  0  0  0  0  0  0  0
    9.7663  -18.1057   24.7119 O   0  0  0  0  0  0  0  0  0  0  0  0
  2  1  1  6
  2  3  1  0
  3  4  1  0
  4  8  1  0
  4  5  2  0
  6  2  1  0
  7  6  2  0
  9 10  1  0
 11 10  1  1
 11 12  1  0
 12  6  1  0
 13 11  1  0
 13 23  1  0
 14 13  2  0
 16 15  1  0
 17 16  2  0
 18 16  1  0
 19 18  1  0
 20 19  1  0
 21 20  1  0
 22 21  1  6
 22 23  1  0
 24 22  1  0
 25 24  1  0
 26 24  2  0
M  END
$$$$
