DSR.pdb
     RDKit          3D

 26 25  0  0  1  0  0  0  0  0999 V2000
    6.7599  -21.4375   21.7193 N   0  0  0  0  0  0  0  0  0  0  0  0
    7.7841  -22.0582   22.5231 C   0  0  1  0  0  0  0  0  0  0  0  0
    9.1055  -21.4464   22.0390 C   0  0  0  0  0  0  0  0  0  0  0  0
    9.4665  -22.0485   20.7511 C   0  0  0  0  0  0  0  0  0  0  0  0
    9.2290  -21.4361   19.6884 O   0  0  0  0  0  0  0  0  0  0  0  0
    7.6678  -21.7400   23.9568 C   0  0  0  0  0  0  0  0  0  0  0  0
    7.7388  -20.5466   24.3384 O   0  0  0  0  0  0  0  0  0  0  0  0
   10.0638  -23.2823   20.7107 O   0  0  0  0  0  0  0  0  0  0  0  0
    5.4636  -23.9505   26.5335 O   0  0  0  0  0  0  0  0  0  0  0  0
    5.8078  -22.6200   26.7262 C   0  0  0  0  0  0  0  0  0  0  0  0
    7.2510  -22.3224   26.3366 C   0  0  2  0  0  0  0  0  0  0  0  0
    7.4753  -22.7359   24.9469 N   0  0  0  0  0  0  0  0  0  0  0  0
    8.1650  -23.0819   27.2041 C   0  0  0  0  0  0  0  0  0  0  0  0
    8.6313  -24.1718   26.8223 O   0  0  0  0  0  0  0  0  0  0  0  0
   14.9109  -20.6775   32.0423 N   0  0  0  0  0  0  0  0  0  0  0  0
   14.6887  -22.0244   32.4165 C   0  0  0  0  0  0  0  0  0  0  0  0
   15.5819  -22.6308   33.1386 N   0  0  0  0  0  0  0  0  0  0  0  0
   13.5102  -22.7090   32.0127 N   0  0  0  0  0  0  0  0  0  0  0  0
   12.5147  -22.0549   31.1824 C   0  0  0  0  0  0  0  0  0  0  0  0
   11.4652  -23.0362   30.7056 C   0  0  0  0  0  0  0  0  0  0  0  0
   10.4559  -22.3635   29.8156 C   0  0  0  0  0  0  0  0  0  0  0  0
    9.4303  -23.3274   29.3169 C   0  0  2  0  0  0  0  0  0  0  0  0
    8.5120  -22.5732   28.4666 N   0  0  0  0  0  0  0  0  0  0  0  0
    8.6466  -23.9759   30.3792 C   0  0  0  0  0  0  0  0  0  0  0  0
    9.0504  -25.1180   31.0474 O   0  0  0  0  0  0  0  0  0  0  0  0
    7.5222  -23.5033   30.7471 O   0  0  0  0  0  0  0  0  0  0  0  0
  2  1  1  6
  2  3  1  0
  3  4  1  0
  4  8  1  0
  4  5  2  0
  6  2  1  0
  7  6  2  0
  9 10  1  0
 11 10  1  1
 11 12  1  0
 12  6  1  0
 13 11  1  0
 13 23  1  0
 14 13  2  0
 16 15  1  0
 17 16  2  0
 18 16  1  0
 19 18  1  0
 20 19  1  0
 21 20  1  0
 22 21  1  1
 22 23  1  0
 24 22  1  0
 25 24  1  0
 26 24  2  0
M  END
$$$$
