DSR.pdb
     RDKit          3D

 26 25  0  0  1  0  0  0  0  0999 V2000
    7.8047  -16.3226   16.4479 N   0  0  0  0  0  0  0  0  0  0  0  0
    8.6274  -15.1516   16.6269 C   0  0  1  0  0  0  0  0  0  0  0  0
    7.9233  -14.0374   15.8410 C   0  0  0  0  0  0  0  0  0  0  0  0
    7.9573  -14.3668   14.4122 C   0  0  0  0  0  0  0  0  0  0  0  0
    8.3833  -15.4805   14.0392 O   0  0  0  0  0  0  0  0  0  0  0  0
    8.7002  -14.7032   18.0283 C   0  0  0  0  0  0  0  0  0  0  0  0
    9.6275  -13.9396   18.3914 O   0  0  0  0  0  0  0  0  0  0  0  0
    7.5229  -13.4551   13.4844 O   0  0  0  0  0  0  0  0  0  0  0  0
    6.4357  -16.5013   21.1506 O   0  0  0  0  0  0  0  0  0  0  0  0
    6.8142  -15.1705   21.2589 C   0  0  0  0  0  0  0  0  0  0  0  0
    8.0434  -14.8376   20.4215 C   0  0  2  0  0  0  0  0  0  0  0  0
    7.7546  -15.0997   19.0071 N   0  0  0  0  0  0  0  0  0  0  0  0
    9.1698  -15.6891   20.8347 C   0  0  0  0  0  0  0  0  0  0  0  0
    9.6814  -16.4877   20.0274 O   0  0  0  0  0  0  0  0  0  0  0  0
   13.6601  -14.3353   19.3335 N   0  0  0  0  0  0  0  0  0  0  0  0
   14.9283  -14.8647   19.6724 C   0  0  0  0  0  0  0  0  0  0  0  0
   15.7437  -15.2001   18.7188 N   0  0  0  0  0  0  0  0  0  0  0  0
   15.3106  -15.0296   21.0315 N   0  0  0  0  0  0  0  0  0  0  0  0
   14.4319  -14.6128   22.1097 C   0  0  0  0  0  0  0  0  0  0  0  0
   13.3929  -15.6712   22.4131 C   0  0  0  0  0  0  0  0  0  0  0  0
   12.0049  -15.1711   22.1186 C   0  0  0  0  0  0  0  0  0  0  0  0
   10.9673  -16.1888   22.4609 C   0  0  2  0  0  0  0  0  0  0  0  0
    9.6685  -15.5987   22.1448 N   0  0  0  0  0  0  0  0  0  0  0  0
   10.9593  -16.5880   23.8765 C   0  0  0  0  0  0  0  0  0  0  0  0
   11.8975  -17.4305   24.4454 O   0  0  0  0  0  0  0  0  0  0  0  0
   10.0594  -16.1647   24.6728 O   0  0  0  0  0  0  0  0  0  0  0  0
  2  1  1  1
  2  3  1  0
  3  4  1  0
  4  8  1  0
  4  5  2  0
  6  2  1  0
  7  6  2  0
  9 10  1  0
 11 10  1  1
 11 12  1  0
 12  6  1  0
 13 11  1  0
 13 23  1  0
 14 13  2  0
 16 15  1  0
 17 16  2  0
 18 16  1  0
 19 18  1  0
 20 19  1  0
 21 20  1  0
 22 21  1  1
 22 23  1  0
 24 22  1  0
 25 24  1  0
 26 24  2  0
M  END
$$$$
