DSR.pdb
     RDKit          3D

 26 25  0  0  1  0  0  0  0  0999 V2000
   11.1387  -18.9534   14.9891 N   0  0  0  0  0  0  0  0  0  0  0  0
   12.3556  -18.5451   15.6470 C   0  0  1  0  0  0  0  0  0  0  0  0
   12.4793  -17.0404   15.3729 C   0  0  0  0  0  0  0  0  0  0  0  0
   12.6707  -16.8318   13.9337 C   0  0  0  0  0  0  0  0  0  0  0  0
   13.1813  -17.7334   13.2357 O   0  0  0  0  0  0  0  0  0  0  0  0
   12.3061  -18.7086   17.1102 C   0  0  0  0  0  0  0  0  0  0  0  0
   11.1973  -18.7389   17.6972 O   0  0  0  0  0  0  0  0  0  0  0  0
   12.2907  -15.6493   13.3524 O   0  0  0  0  0  0  0  0  0  0  0  0
   15.7055  -18.8069   19.7807 O   0  0  0  0  0  0  0  0  0  0  0  0
   14.6136  -19.6549   19.9018 C   0  0  0  0  0  0  0  0  0  0  0  0
   13.3304  -19.0454   19.3494 C   0  0  2  0  0  0  0  0  0  0  0  0
   13.4734  -18.8364   17.9042 N   0  0  0  0  0  0  0  0  0  0  0  0
   13.0853  -17.7431   19.9885 C   0  0  0  0  0  0  0  0  0  0  0  0
   13.2083  -16.6904   19.3343 O   0  0  0  0  0  0  0  0  0  0  0  0
    6.2448  -12.9889   19.4772 N   0  0  0  0  0  0  0  0  0  0  0  0
    7.6214  -12.8322   19.7668 C   0  0  0  0  0  0  0  0  0  0  0  0
    8.2935  -11.9126   19.1426 N   0  0  0  0  0  0  0  0  0  0  0  0
    8.2650  -13.6635   20.7235 N   0  0  0  0  0  0  0  0  0  0  0  0
    9.1444  -14.7404   20.3048 C   0  0  0  0  0  0  0  0  0  0  0  0
    9.6886  -15.5008   21.4954 C   0  0  0  0  0  0  0  0  0  0  0  0
   10.6187  -16.6001   21.0599 C   0  0  0  0  0  0  0  0  0  0  0  0
   11.9041  -16.5688   21.8191 C   0  0  2  0  0  0  0  0  0  0  0  0
   12.7107  -17.6896   21.3413 N   0  0  0  0  0  0  0  0  0  0  0  0
   11.7467  -16.7027   23.2753 C   0  0  0  0  0  0  0  0  0  0  0  0
   12.0112  -15.6867   24.1761 O   0  0  0  0  0  0  0  0  0  0  0  0
   11.3473  -17.7953   23.7947 O   0  0  0  0  0  0  0  0  0  0  0  0
  2  1  1  6
  2  3  1  0
  3  4  1  0
  4  8  1  0
  4  5  2  0
  6  2  1  0
  7  6  2  0
  9 10  1  0
 11 10  1  1
 11 12  1  0
 12  6  1  0
 13 11  1  0
 13 23  1  0
 14 13  2  0
 16 15  1  0
 17 16  2  0
 18 16  1  0
 19 18  1  0
 20 19  1  0
 21 20  1  0
 22 21  1  6
 22 23  1  0
 24 22  1  0
 25 24  1  0
 26 24  2  0
M  END
$$$$
