DSR.pdb
     RDKit          3D

 26 25  0  0  1  0  0  0  0  0999 V2000
   12.5185  -16.9013   20.1729 N   0  0  0  0  0  0  0  0  0  0  0  0
   12.5369  -17.9840   21.1257 C   0  0  1  0  0  0  0  0  0  0  0  0
   13.9547  -18.5661   21.0506 C   0  0  0  0  0  0  0  0  0  0  0  0
   14.1876  -19.0819   19.6975 C   0  0  0  0  0  0  0  0  0  0  0  0
   13.5272  -20.0568   19.2798 O   0  0  0  0  0  0  0  0  0  0  0  0
   12.3332  -17.5372   22.5146 C   0  0  0  0  0  0  0  0  0  0  0  0
   13.3036  -17.0946   23.1759 O   0  0  0  0  0  0  0  0  0  0  0  0
   15.1287  -18.4969   18.8896 O   0  0  0  0  0  0  0  0  0  0  0  0
    8.5929  -17.6594   24.4933 O   0  0  0  0  0  0  0  0  0  0  0  0
    9.5137  -16.6666   24.7976 C   0  0  0  0  0  0  0  0  0  0  0  0
   10.9520  -17.0961   24.5331 C   0  0  2  0  0  0  0  0  0  0  0  0
   11.0690  -17.5830   23.1540 N   0  0  0  0  0  0  0  0  0  0  0  0
   11.3190  -18.1885   25.4476 C   0  0  0  0  0  0  0  0  0  0  0  0
   11.2237  -19.3742   25.0785 O   0  0  0  0  0  0  0  0  0  0  0  0
   17.9647  -19.1229   27.8357 N   0  0  0  0  0  0  0  0  0  0  0  0
   17.7578  -19.8714   29.0192 C   0  0  0  0  0  0  0  0  0  0  0  0
   18.7248  -19.9624   29.8815 N   0  0  0  0  0  0  0  0  0  0  0  0
   16.5153  -20.5158   29.2671 N   0  0  0  0  0  0  0  0  0  0  0  0
   15.4486  -20.4839   28.2823 C   0  0  0  0  0  0  0  0  0  0  0  0
   14.2147  -19.7988   28.8299 C   0  0  0  0  0  0  0  0  0  0  0  0
   13.6754  -18.7885   27.8544 C   0  0  0  0  0  0  0  0  0  0  0  0
   12.2133  -18.9765   27.6166 C   0  0  2  0  0  0  0  0  0  0  0  0
   11.7790  -17.8904   26.7410 N   0  0  0  0  0  0  0  0  0  0  0  0
   11.3948  -18.9382   28.8382 C   0  0  0  0  0  0  0  0  0  0  0  0
   11.4134  -19.9227   29.8099 O   0  0  0  0  0  0  0  0  0  0  0  0
   10.6036  -17.9665   29.0680 O   0  0  0  0  0  0  0  0  0  0  0  0
  2  1  1  6
  2  3  1  0
  3  4  1  0
  4  8  1  0
  4  5  2  0
  6  2  1  0
  7  6  2  0
  9 10  1  0
 11 10  1  1
 11 12  1  0
 12  6  1  0
 13 11  1  0
 13 23  1  0
 14 13  2  0
 16 15  1  0
 17 16  2  0
 18 16  1  0
 19 18  1  0
 20 19  1  0
 21 20  1  0
 22 21  1  1
 22 23  1  0
 24 22  1  0
 25 24  1  0
 26 24  2  0
M  END
$$$$
