DSR.pdb
     RDKit          3D

 26 25  0  0  1  0  0  0  0  0999 V2000
   11.1562  -18.8149   18.1755 N   0  0  0  0  0  0  0  0  0  0  0  0
   10.1438  -17.8318   18.4737 C   0  0  1  0  0  0  0  0  0  0  0  0
    9.0334  -18.0675   17.4412 C   0  0  0  0  0  0  0  0  0  0  0  0
    9.5113  -17.6430   16.1212 C   0  0  0  0  0  0  0  0  0  0  0  0
   10.6160  -18.0459   15.6990 O   0  0  0  0  0  0  0  0  0  0  0  0
    9.5346  -18.0122   19.8028 C   0  0  0  0  0  0  0  0  0  0  0  0
    8.5429  -17.3180   20.1336 O   0  0  0  0  0  0  0  0  0  0  0  0
    8.7487  -16.8044   15.3493 O   0  0  0  0  0  0  0  0  0  0  0  0
   11.0699  -20.6517   22.7015 O   0  0  0  0  0  0  0  0  0  0  0  0
    9.7052  -20.4001   22.6846 C   0  0  0  0  0  0  0  0  0  0  0  0
    9.3616  -19.0571   22.0511 C   0  0  2  0  0  0  0  0  0  0  0  0
   10.0231  -18.9510   20.7458 N   0  0  0  0  0  0  0  0  0  0  0  0
    9.8452  -17.9655   22.9108 C   0  0  0  0  0  0  0  0  0  0  0  0
   11.0131  -17.5481   22.7972 O   0  0  0  0  0  0  0  0  0  0  0  0
    6.8136  -12.5477   20.4913 N   0  0  0  0  0  0  0  0  0  0  0  0
    7.8845  -13.4613   20.3430 C   0  0  0  0  0  0  0  0  0  0  0  0
    8.1641  -13.9137   19.1581 N   0  0  0  0  0  0  0  0  0  0  0  0
    8.6461  -13.8815   21.4672 N   0  0  0  0  0  0  0  0  0  0  0  0
    8.2968  -13.4496   22.8088 C   0  0  0  0  0  0  0  0  0  0  0  0
    9.2327  -14.0444   23.8394 C   0  0  0  0  0  0  0  0  0  0  0  0
    8.5724  -15.1696   24.5885 C   0  0  0  0  0  0  0  0  0  0  0  0
    9.4856  -16.3409   24.7429 C   0  0  2  0  0  0  0  0  0  0  0  0
    8.9843  -17.3933   23.8620 N   0  0  0  0  0  0  0  0  0  0  0  0
    9.5506  -16.8776   26.1108 C   0  0  0  0  0  0  0  0  0  0  0  0
    8.9942  -18.0853   26.4924 O   0  0  0  0  0  0  0  0  0  0  0  0
   10.1401  -16.2361   27.0403 O   0  0  0  0  0  0  0  0  0  0  0  0
  2  1  1  6
  2  3  1  0
  3  4  1  0
  4  8  1  0
  4  5  2  0
  6  2  1  0
  7  6  2  0
  9 10  1  0
 11 10  1  1
 11 12  1  0
 12  6  1  0
 13 11  1  0
 13 23  1  0
 14 13  2  0
 16 15  1  0
 17 16  2  0
 18 16  1  0
 19 18  1  0
 20 19  1  0
 21 20  1  0
 22 21  1  1
 22 23  1  0
 24 22  1  0
 25 24  1  0
 26 24  2  0
M  END
$$$$
