QLA.pdb
     RDKit          3D

 23 22  0  0  1  0  0  0  0  0999 V2000
   11.5805  -16.5762   19.3003 N   0  0  0  0  0  0  0  0  0  0  0  0
   10.2197  -16.5630   18.9120 C   0  0  0  0  0  0  0  0  0  0  0  0
    9.8838  -17.0004   17.7977 O   0  0  0  0  0  0  0  0  0  0  0  0
    9.1543  -16.0280   19.8198 C   0  0  0  0  0  0  0  0  0  0  0  0
    9.7363  -15.6199   21.1432 C   0  0  0  0  0  0  0  0  0  0  0  0
    9.2667  -16.4205   22.3062 C   0  0  2  0  0  0  0  0  0  0  0  0
    7.8308  -16.7678   22.1095 N   0  0  0  0  0  0  0  0  0  0  0  0
    9.3872  -15.8196   23.6252 C   0  0  0  0  0  0  0  0  0  0  0  0
   10.5695  -15.6495   24.0958 O   0  0  0  0  0  0  0  0  0  0  0  0
    8.0697  -11.9207   25.7621 C   0  0  0  0  0  0  0  0  0  0  0  0
    6.9787  -12.9822   25.5257 C   0  0  2  0  0  0  0  0  0  0  0  0
    5.6877  -12.3332   25.9678 C   0  0  0  0  0  0  0  0  0  0  0  0
    7.3617  -14.1598   26.3430 C   0  0  0  0  0  0  0  0  0  0  0  0
    8.5831  -14.9156   25.8328 C   0  0  2  0  0  0  0  0  0  0  0  0
    8.3488  -15.3812   24.4798 N   0  0  0  0  0  0  0  0  0  0  0  0
    8.9607  -16.0143   26.7310 C   0  0  0  0  0  0  0  0  0  0  0  0
    9.1427  -15.7558   27.9527 O   0  0  0  0  0  0  0  0  0  0  0  0
    9.1066  -19.7688   26.9269 C   0  0  0  0  0  0  0  0  0  0  0  0
    9.5033  -18.3831   27.3615 C   0  0  2  0  0  0  0  0  0  0  0  0
    9.1465  -17.3718   26.3659 N   0  0  0  0  0  0  0  0  0  0  0  0
   10.9305  -18.3075   27.7230 C   0  0  0  0  0  0  0  0  0  0  0  0
   11.4963  -19.0149   28.7686 O   0  0  0  0  0  0  0  0  0  0  0  0
   11.6688  -17.5627   27.0453 O   0  0  0  0  0  0  0  0  0  0  0  0
  1  2  1  0
  2  4  1  0
  3  2  2  0
  4  5  1  0
  6  8  1  0
  6  5  1  0
  6  7  1  6
  8 15  1  0
  9  8  2  0
 11 10  1  1
 11 13  1  0
 12 11  1  0
 14 13  1  1
 14 16  1  0
 15 14  1  0
 16 17  2  0
 16 20  1  0
 19 18  1  6
 19 21  1  0
 20 19  1  0
 21 22  1  0
 23 21  2  0
M  END
$$$$
