QLA.pdb
     RDKit          3D

 23 22  0  0  1  0  0  0  0  0999 V2000
    5.1992  -20.2833   23.8774 N   0  0  0  0  0  0  0  0  0  0  0  0
    5.4848  -20.1199   22.5010 C   0  0  0  0  0  0  0  0  0  0  0  0
    4.9791  -20.8864   21.6629 O   0  0  0  0  0  0  0  0  0  0  0  0
    6.3943  -19.0321   22.0164 C   0  0  0  0  0  0  0  0  0  0  0  0
    6.9227  -18.2256   23.1684 C   0  0  0  0  0  0  0  0  0  0  0  0
    7.2666  -16.8160   22.8389 C   0  0  2  0  0  0  0  0  0  0  0  0
    8.1608  -16.7995   21.6467 N   0  0  0  0  0  0  0  0  0  0  0  0
    7.9148  -16.0254   23.8735 C   0  0  0  0  0  0  0  0  0  0  0  0
    9.1970  -16.0564   23.9304 O   0  0  0  0  0  0  0  0  0  0  0  0
    7.5760  -11.7268   25.3803 C   0  0  0  0  0  0  0  0  0  0  0  0
    6.4690  -12.6732   25.8821 C   0  0  2  0  0  0  0  0  0  0  0  0
    5.4968  -11.7900   26.6290 C   0  0  0  0  0  0  0  0  0  0  0  0
    7.1408  -13.6776   26.7431 C   0  0  0  0  0  0  0  0  0  0  0  0
    8.0215  -14.6693   25.9917 C   0  0  2  0  0  0  0  0  0  0  0  0
    7.3058  -15.2010   24.8484 N   0  0  0  0  0  0  0  0  0  0  0  0
    8.5164  -15.7363   26.8710 C   0  0  0  0  0  0  0  0  0  0  0  0
    9.1337  -15.4103   27.9223 O   0  0  0  0  0  0  0  0  0  0  0  0
    8.2475  -19.4397   27.5105 C   0  0  0  0  0  0  0  0  0  0  0  0
    8.9299  -18.1012   27.6055 C   0  0  2  0  0  0  0  0  0  0  0  0
    8.3709  -17.1314   26.6630 N   0  0  0  0  0  0  0  0  0  0  0  0
   10.3921  -18.2177   27.4596 C   0  0  0  0  0  0  0  0  0  0  0  0
   11.1291  -17.5127   26.5248 O   0  0  0  0  0  0  0  0  0  0  0  0
   10.9980  -18.9969   28.2243 O   0  0  0  0  0  0  0  0  0  0  0  0
  1  2  1  0
  2  4  1  0
  3  2  2  0
  4  5  1  0
  6  8  1  0
  6  5  1  0
  6  7  1  6
  8 15  1  0
  9  8  2  0
 11 10  1  1
 11 13  1  0
 12 11  1  0
 14 13  1  1
 14 16  1  0
 15 14  1  0
 16 17  2  0
 16 20  1  0
 19 18  1  6
 19 21  1  0
 20 19  1  0
 21 22  1  0
 23 21  2  0
M  END
$$$$
