QLA.pdb
     RDKit          3D

 23 22  0  0  1  0  0  0  0  0999 V2000
    8.8272  -12.0408   18.3113 N   0  0  0  0  0  0  0  0  0  0  0  0
    8.1429  -13.2503   18.0437 C   0  0  0  0  0  0  0  0  0  0  0  0
    8.2321  -13.7840   16.9243 O   0  0  0  0  0  0  0  0  0  0  0  0
    7.2999  -13.9175   19.0875 C   0  0  0  0  0  0  0  0  0  0  0  0
    7.9019  -13.7412   20.4525 C   0  0  0  0  0  0  0  0  0  0  0  0
    8.0719  -14.9995   21.2281 C   0  0  2  0  0  0  0  0  0  0  0  0
    6.7785  -15.7398   21.2434 N   0  0  0  0  0  0  0  0  0  0  0  0
    8.5159  -14.8809   22.6081 C   0  0  0  0  0  0  0  0  0  0  0  0
    9.7177  -14.4789   22.8139 O   0  0  0  0  0  0  0  0  0  0  0  0
    8.1125  -12.1013   25.9363 C   0  0  0  0  0  0  0  0  0  0  0  0
    6.8918  -13.0037   25.6744 C   0  0  2  0  0  0  0  0  0  0  0  0
    5.7894  -12.4468   26.5449 C   0  0  0  0  0  0  0  0  0  0  0  0
    7.3052  -14.3791   26.0471 C   0  0  0  0  0  0  0  0  0  0  0  0
    8.3369  -15.0053   25.1159 C   0  0  2  0  0  0  0  0  0  0  0  0
    7.7799  -15.1515   23.7853 N   0  0  0  0  0  0  0  0  0  0  0  0
    8.8431  -16.2805   25.6396 C   0  0  0  0  0  0  0  0  0  0  0  0
    8.0087  -17.1666   25.9730 O   0  0  0  0  0  0  0  0  0  0  0  0
   11.8991  -18.4216   25.7896 C   0  0  0  0  0  0  0  0  0  0  0  0
   10.5850  -17.9441   26.3478 C   0  0  2  0  0  0  0  0  0  0  0  0
   10.2047  -16.6354   25.8147 N   0  0  0  0  0  0  0  0  0  0  0  0
   10.5783  -17.9513   27.8219 C   0  0  0  0  0  0  0  0  0  0  0  0
   10.3012  -16.8374   28.5941 O   0  0  0  0  0  0  0  0  0  0  0  0
   10.8371  -19.0250   28.4046 O   0  0  0  0  0  0  0  0  0  0  0  0
  1  2  1  0
  2  4  1  0
  3  2  2  0
  4  5  1  0
  6  8  1  0
  6  5  1  0
  6  7  1  1
  8 15  1  0
  9  8  2  0
 11 10  1  1
 11 13  1  0
 12 11  1  0
 14 13  1  1
 14 16  1  0
 15 14  1  0
 16 17  2  0
 16 20  1  0
 19 18  1  1
 19 21  1  0
 20 19  1  0
 21 22  1  0
 23 21  2  0
M  END
$$$$
