QLA.pdb
     RDKit          3D

 23 22  0  0  1  0  0  0  0  0999 V2000
   10.2405  -20.6721   24.0240 N   0  0  0  0  0  0  0  0  0  0  0  0
    9.6232  -20.7695   22.7542 C   0  0  0  0  0  0  0  0  0  0  0  0
    9.3807  -21.8850   22.2616 O   0  0  0  0  0  0  0  0  0  0  0  0
    9.2472  -19.5472   21.9734 C   0  0  0  0  0  0  0  0  0  0  0  0
    9.6170  -18.2996   22.7242 C   0  0  0  0  0  0  0  0  0  0  0  0
    8.7829  -17.1090   22.4074 C   0  0  2  0  0  0  0  0  0  0  0  0
    9.0604  -16.6792   21.0076 N   0  0  0  0  0  0  0  0  0  0  0  0
    8.9380  -15.9377   23.2556 C   0  0  0  0  0  0  0  0  0  0  0  0
   10.0860  -15.3632   23.2724 O   0  0  0  0  0  0  0  0  0  0  0  0
    5.9382  -12.1972   27.1807 C   0  0  0  0  0  0  0  0  0  0  0  0
    7.3170  -12.7521   26.7756 C   0  0  2  0  0  0  0  0  0  0  0  0
    8.1255  -11.5462   26.3570 C   0  0  0  0  0  0  0  0  0  0  0  0
    7.0696  -13.7132   25.6727 C   0  0  0  0  0  0  0  0  0  0  0  0
    8.3072  -14.4658   25.1979 C   0  0  2  0  0  0  0  0  0  0  0  0
    7.9663  -15.3274   24.0828 N   0  0  0  0  0  0  0  0  0  0  0  0
    8.9456  -15.2119   26.2897 C   0  0  0  0  0  0  0  0  0  0  0  0
    9.3776  -14.5678   27.2853 O   0  0  0  0  0  0  0  0  0  0  0  0
    9.6787  -18.7576   27.4359 C   0  0  0  0  0  0  0  0  0  0  0  0
    9.6944  -17.2558   27.5407 C   0  0  2  0  0  0  0  0  0  0  0  0
    9.1334  -16.6161   26.3502 N   0  0  0  0  0  0  0  0  0  0  0  0
   11.0404  -16.7401   27.8495 C   0  0  0  0  0  0  0  0  0  0  0  0
   11.6457  -16.8660   29.0871 O   0  0  0  0  0  0  0  0  0  0  0  0
   11.6682  -16.1573   26.9410 O   0  0  0  0  0  0  0  0  0  0  0  0
  1  2  1  0
  2  4  1  0
  3  2  2  0
  4  5  1  0
  6  8  1  0
  6  5  1  0
  6  7  1  6
  8 15  1  0
  9  8  2  0
 11 10  1  6
 11 13  1  0
 12 11  1  0
 14 13  1  1
 14 16  1  0
 15 14  1  0
 16 17  2  0
 16 20  1  0
 19 18  1  6
 19 21  1  0
 20 19  1  0
 21 22  1  0
 23 21  2  0
M  END
$$$$
