QLA.pdb
     RDKit          3D

 23 22  0  0  1  0  0  0  0  0999 V2000
    7.8152  -12.4052   18.7908 N   0  0  0  0  0  0  0  0  0  0  0  0
    8.0611  -13.7838   18.5861 C   0  0  0  0  0  0  0  0  0  0  0  0
    7.4554  -14.4004   17.6925 O   0  0  0  0  0  0  0  0  0  0  0  0
    9.0466  -14.5343   19.4292 C   0  0  0  0  0  0  0  0  0  0  0  0
    8.9425  -14.1189   20.8692 C   0  0  0  0  0  0  0  0  0  0  0  0
    8.7719  -15.2401   21.8324 C   0  0  2  0  0  0  0  0  0  0  0  0
    7.4385  -15.8694   21.6151 N   0  0  0  0  0  0  0  0  0  0  0  0
    8.8742  -14.9272   23.2491 C   0  0  0  0  0  0  0  0  0  0  0  0
   10.0253  -14.5820   23.7006 O   0  0  0  0  0  0  0  0  0  0  0  0
    7.9549  -11.7998   26.0697 C   0  0  0  0  0  0  0  0  0  0  0  0
    6.7541  -12.6834   25.6822 C   0  0  2  0  0  0  0  0  0  0  0  0
    5.5403  -11.9712   26.2325 C   0  0  0  0  0  0  0  0  0  0  0  0
    6.9969  -14.0090   26.3029 C   0  0  0  0  0  0  0  0  0  0  0  0
    8.1024  -14.8251   25.6431 C   0  0  2  0  0  0  0  0  0  0  0  0
    7.8468  -14.9480   24.2212 N   0  0  0  0  0  0  0  0  0  0  0  0
    8.2706  -16.1359   26.2834 C   0  0  0  0  0  0  0  0  0  0  0  0
    8.4566  -16.1756   27.5309 O   0  0  0  0  0  0  0  0  0  0  0  0
    7.7150  -19.8010   25.6802 C   0  0  0  0  0  0  0  0  0  0  0  0
    8.3580  -18.6426   26.3949 C   0  0  2  0  0  0  0  0  0  0  0  0
    8.2443  -17.3969   25.6354 N   0  0  0  0  0  0  0  0  0  0  0  0
    9.7574  -18.9292   26.7591 C   0  0  0  0  0  0  0  0  0  0  0  0
   10.1249  -19.7868   27.7806 O   0  0  0  0  0  0  0  0  0  0  0  0
   10.6608  -18.3654   26.1070 O   0  0  0  0  0  0  0  0  0  0  0  0
  1  2  1  0
  2  4  1  0
  3  2  2  0
  4  5  1  0
  6  8  1  0
  6  5  1  0
  6  7  1  1
  8 15  1  0
  9  8  2  0
 11 10  1  1
 11 13  1  0
 12 11  1  0
 14 13  1  1
 14 16  1  0
 15 14  1  0
 16 17  2  0
 16 20  1  0
 19 18  1  6
 19 21  1  0
 20 19  1  0
 21 22  1  0
 23 21  2  0
M  END
$$$$
