ALI.pdb
     RDKit          3D

 22 21  0  0  1  0  0  0  0  0999 V2000
   20.9685  -14.3432  -19.6116 C   0  0  0  0  0  0  0  0  0  0  0  0
   21.5166  -12.9993  -19.9772 C   0  0  2  0  0  0  0  0  0  0  0  0
   22.6611  -13.0923  -20.8272 N   0  0  0  0  0  0  0  0  0  0  0  0
   21.8160  -12.1705  -18.7482 C   0  0  0  0  0  0  0  0  0  0  0  0
   20.8763  -11.8695  -17.9790 O   0  0  0  0  0  0  0  0  0  0  0  0
   27.0512  -10.3223  -15.8267 C   0  0  0  0  0  0  0  0  0  0  0  0
   25.5172  -10.3122  -15.9487 C   0  0  2  0  0  0  0  0  0  0  0  0
   24.9221  -10.8434  -14.6804 C   0  0  0  0  0  0  0  0  0  0  0  0
   25.0917  -11.0893  -17.1667 C   0  0  0  0  0  0  0  0  0  0  0  0
   23.6042  -10.9839  -17.3491 C   0  0  2  0  0  0  0  0  0  0  0  0
   23.1286  -11.7402  -18.4664 N   0  0  0  0  0  0  0  0  0  0  0  0
   23.0243   -9.6593  -17.1931 C   0  0  0  0  0  0  0  0  0  0  0  0
   23.3536   -8.7870  -18.0734 O   0  0  0  0  0  0  0  0  0  0  0  0
   18.2754   -6.4555  -17.4165 C   0  0  0  0  0  0  0  0  0  0  0  0
   19.6258   -6.5739  -16.7483 C   0  0  0  0  0  0  0  0  0  0  0  0
   20.1403   -7.9972  -16.7714 C   0  0  2  0  0  0  0  0  0  0  0  0
   19.3300   -8.9163  -15.9165 C   0  0  0  0  0  0  0  0  0  0  0  0
   21.5512   -7.9482  -16.1737 C   0  0  2  0  0  0  0  0  0  0  0  0
   22.1486   -9.2587  -16.1777 N   0  0  0  0  0  0  0  0  0  0  0  0
   21.4984   -7.3682  -14.8025 C   0  0  0  0  0  0  0  0  0  0  0  0
   21.4480   -8.0878  -13.7688 O   0  0  0  0  0  0  0  0  0  0  0  0
   21.5029   -5.9941  -14.6129 O   0  0  0  0  0  0  0  0  0  0  0  0
  2  1  1  1
  3  2  1  0
  4  2  1  0
  4 11  1  0
  5  4  2  0
  7  6  1  1
  7  9  1  0
  8  7  1  0
 10  9  1  6
 10 11  1  0
 10 12  1  0
 12 19  1  0
 13 12  2  0
 14 15  1  0
 16 17  1  1
 16 15  1  0
 16 18  1  0
 18 20  1  0
 18 19  1  1
 20 21  2  0
 20 22  1  0
M  END
$$$$
