ALI.pdb
     RDKit          3D

 22 21  0  0  1  0  0  0  0  0999 V2000
   19.5409  -13.9073  -19.6574 C   0  0  0  0  0  0  0  0  0  0  0  0
   20.7404  -14.3606  -18.8854 C   0  0  2  0  0  0  0  0  0  0  0  0
   20.6145  -15.7081  -18.4277 N   0  0  0  0  0  0  0  0  0  0  0  0
   21.0490  -13.4222  -17.7404 C   0  0  0  0  0  0  0  0  0  0  0  0
   20.1209  -13.0761  -16.9762 O   0  0  0  0  0  0  0  0  0  0  0  0
   23.9872  -14.1096  -14.6915 C   0  0  0  0  0  0  0  0  0  0  0  0
   24.6610  -13.6449  -15.9948 C   0  0  2  0  0  0  0  0  0  0  0  0
   26.1371  -13.8814  -15.8935 C   0  0  0  0  0  0  0  0  0  0  0  0
   24.3152  -12.2049  -16.2690 C   0  0  0  0  0  0  0  0  0  0  0  0
   22.8379  -12.0675  -16.5043 C   0  0  2  0  0  0  0  0  0  0  0  0
   22.3573  -12.9407  -17.5305 N   0  0  0  0  0  0  0  0  0  0  0  0
   22.3091  -10.7130  -16.5319 C   0  0  0  0  0  0  0  0  0  0  0  0
   22.5613  -10.0254  -17.5845 O   0  0  0  0  0  0  0  0  0  0  0  0
   17.4578   -9.5290  -16.5513 C   0  0  0  0  0  0  0  0  0  0  0  0
   18.9646   -9.4513  -16.6393 C   0  0  0  0  0  0  0  0  0  0  0  0
   19.5569   -8.6983  -15.4675 C   0  0  2  0  0  0  0  0  0  0  0  0
   19.1632   -7.2571  -15.4509 C   0  0  0  0  0  0  0  0  0  0  0  0
   21.0776   -8.7506  -15.6544 C   0  0  2  0  0  0  0  0  0  0  0  0
   21.5578  -10.1019  -15.5217 N   0  0  0  0  0  0  0  0  0  0  0  0
   21.7371   -7.8312  -14.6854 C   0  0  0  0  0  0  0  0  0  0  0  0
   21.7965   -6.5861  -14.8724 O   0  0  0  0  0  0  0  0  0  0  0  0
   22.3179   -8.3215  -13.5250 O   0  0  0  0  0  0  0  0  0  0  0  0
  2  1  1  1
  3  2  1  0
  4  2  1  0
  4 11  1  0
  5  4  2  0
  7  6  1  1
  7  9  1  0
  8  7  1  0
 10  9  1  6
 10 11  1  0
 10 12  1  0
 12 19  1  0
 13 12  2  0
 14 15  1  0
 16 17  1  6
 16 15  1  0
 16 18  1  0
 18 20  1  0
 18 19  1  1
 20 21  2  0
 20 22  1  0
M  END
$$$$
