ALI.pdb
     RDKit          3D

 22 21  0  0  1  0  0  0  0  0999 V2000
   26.5324  -15.5689  -14.7077 C   0  0  0  0  0  0  0  0  0  0  0  0
   26.5984  -16.8506  -15.4779 C   0  0  2  0  0  0  0  0  0  0  0  0
   25.9149  -16.7679  -16.7298 N   0  0  0  0  0  0  0  0  0  0  0  0
   26.0941  -18.0163  -14.6571 C   0  0  0  0  0  0  0  0  0  0  0  0
   24.9499  -17.9516  -14.1552 O   0  0  0  0  0  0  0  0  0  0  0  0
   25.0123  -21.9078  -15.4138 C   0  0  0  0  0  0  0  0  0  0  0  0
   26.5424  -21.8096  -15.5449 C   0  0  2  0  0  0  0  0  0  0  0  0
   27.0565  -23.0478  -16.2141 C   0  0  0  0  0  0  0  0  0  0  0  0
   27.1618  -21.5738  -14.1924 C   0  0  0  0  0  0  0  0  0  0  0  0
   26.6484  -20.2877  -13.6099 C   0  0  2  0  0  0  0  0  0  0  0  0
   26.8930  -19.1603  -14.4559 N   0  0  0  0  0  0  0  0  0  0  0  0
   26.8926  -20.0753  -12.1920 C   0  0  0  0  0  0  0  0  0  0  0  0
   28.1105  -19.8657  -11.8498 O   0  0  0  0  0  0  0  0  0  0  0  0
   26.9763  -17.6771   -7.8771 C   0  0  0  0  0  0  0  0  0  0  0  0
   27.0757  -18.7633   -8.9233 C   0  0  0  0  0  0  0  0  0  0  0  0
   25.9939  -19.8080   -8.7519 C   0  0  2  0  0  0  0  0  0  0  0  0
   26.1628  -20.6125   -7.5043 C   0  0  0  0  0  0  0  0  0  0  0  0
   26.1424  -20.7707   -9.9357 C   0  0  2  0  0  0  0  0  0  0  0  0
   25.9255  -20.0798  -11.1806 N   0  0  0  0  0  0  0  0  0  0  0  0
   25.2096  -21.9206   -9.7710 C   0  0  0  0  0  0  0  0  0  0  0  0
   24.0750  -21.9507  -10.3192 O   0  0  0  0  0  0  0  0  0  0  0  0
   25.5633  -23.0155   -8.9963 O   0  0  0  0  0  0  0  0  0  0  0  0
  2  1  1  1
  3  2  1  0
  4  2  1  0
  4 11  1  0
  5  4  2  0
  7  6  1  1
  7  9  1  0
  8  7  1  0
 10  9  1  6
 10 11  1  0
 10 12  1  0
 12 19  1  0
 13 12  2  0
 14 15  1  0
 16 17  1  1
 16 15  1  0
 16 18  1  0
 18 20  1  0
 18 19  1  6
 20 21  2  0
 20 22  1  0
M  END
$$$$
