ALI.pdb
     RDKit          3D

 22 21  0  0  1  0  0  0  0  0999 V2000
   27.0716  -19.5755  -16.4137 C   0  0  0  0  0  0  0  0  0  0  0  0
   27.3885  -20.6178  -15.3873 C   0  0  2  0  0  0  0  0  0  0  0  0
   28.0081  -21.7716  -15.9582 N   0  0  0  0  0  0  0  0  0  0  0  0
   26.1630  -20.9968  -14.5865 C   0  0  0  0  0  0  0  0  0  0  0  0
   25.4547  -21.9498  -14.9806 O   0  0  0  0  0  0  0  0  0  0  0  0
   25.5405  -20.5091   -8.8365 C   0  0  0  0  0  0  0  0  0  0  0  0
   25.3645  -21.0432  -10.2690 C   0  0  2  0  0  0  0  0  0  0  0  0
   26.6496  -21.6684  -10.7193 C   0  0  0  0  0  0  0  0  0  0  0  0
   24.9007  -19.9360  -11.1788 C   0  0  0  0  0  0  0  0  0  0  0  0
   24.6794  -20.4697  -12.5655 C   0  0  2  0  0  0  0  0  0  0  0  0
   25.8172  -20.2936  -13.4146 N   0  0  0  0  0  0  0  0  0  0  0  0
   23.3900  -20.1810  -13.1730 C   0  0  0  0  0  0  0  0  0  0  0  0
   23.2242  -18.9891  -13.6160 O   0  0  0  0  0  0  0  0  0  0  0  0
   20.1977  -23.8544  -15.7685 C   0  0  0  0  0  0  0  0  0  0  0  0
   20.5674  -22.9241  -14.6362 C   0  0  0  0  0  0  0  0  0  0  0  0
   20.7226  -21.4955  -15.1119 C   0  0  2  0  0  0  0  0  0  0  0  0
   21.8528  -21.3288  -16.0747 C   0  0  0  0  0  0  0  0  0  0  0  0
   21.0621  -20.6682  -13.8666 C   0  0  2  0  0  0  0  0  0  0  0  0
   22.3270  -21.0801  -13.3146 N   0  0  0  0  0  0  0  0  0  0  0  0
   19.9604  -20.7807  -12.8702 C   0  0  0  0  0  0  0  0  0  0  0  0
   20.1132  -21.3576  -11.7600 O   0  0  0  0  0  0  0  0  0  0  0  0
   18.7081  -20.2457  -13.1342 O   0  0  0  0  0  0  0  0  0  0  0  0
  2  1  1  6
  3  2  1  0
  4  2  1  0
  4 11  1  0
  5  4  2  0
  7  6  1  1
  7  9  1  0
  8  7  1  0
 10  9  1  1
 10 11  1  0
 10 12  1  0
 12 19  1  0
 13 12  2  0
 14 15  1  0
 16 17  1  6
 16 15  1  0
 16 18  1  0
 18 20  1  0
 18 19  1  1
 20 21  2  0
 20 22  1  0
M  END
$$$$
