ALI.pdb
     RDKit          3D

 22 21  0  0  1  0  0  0  0  0999 V2000
   12.4845  -16.2197    3.3076 C   0  0  0  0  0  0  0  0  0  0  0  0
   12.2772  -17.6831    3.0713 C   0  0  2  0  0  0  0  0  0  0  0  0
   11.0356  -18.1487    3.6031 N   0  0  0  0  0  0  0  0  0  0  0  0
   13.4365  -18.4986    3.5984 C   0  0  0  0  0  0  0  0  0  0  0  0
   13.3316  -19.0430    4.7199 O   0  0  0  0  0  0  0  0  0  0  0  0
   14.9884  -22.1116    2.6555 C   0  0  0  0  0  0  0  0  0  0  0  0
   15.3552  -21.0881    1.5664 C   0  0  2  0  0  0  0  0  0  0  0  0
   15.7924  -21.8202    0.3343 C   0  0  0  0  0  0  0  0  0  0  0  0
   16.4007  -20.1358    2.0848 C   0  0  0  0  0  0  0  0  0  0  0  0
   15.8340  -19.3118    3.2057 C   0  0  2  0  0  0  0  0  0  0  0  0
   14.6189  -18.6482    2.8455 N   0  0  0  0  0  0  0  0  0  0  0  0
   16.7825  -18.5170    3.9697 C   0  0  0  0  0  0  0  0  0  0  0  0
   17.7908  -19.1446    4.4532 O   0  0  0  0  0  0  0  0  0  0  0  0
   17.3567  -12.9348    3.4616 C   0  0  0  0  0  0  0  0  0  0  0  0
   17.0361  -14.2197    4.1899 C   0  0  0  0  0  0  0  0  0  0  0  0
   18.1809  -15.2071    4.1161 C   0  0  2  0  0  0  0  0  0  0  0  0
   18.4564  -15.6661    2.7213 C   0  0  0  0  0  0  0  0  0  0  0  0
   17.7342  -16.4354    4.9176 C   0  0  2  0  0  0  0  0  0  0  0  0
   16.6917  -17.1432    4.2202 N   0  0  0  0  0  0  0  0  0  0  0  0
   17.3035  -16.0186    6.2815 C   0  0  0  0  0  0  0  0  0  0  0  0
   16.1173  -16.1574    6.6845 O   0  0  0  0  0  0  0  0  0  0  0  0
   18.2077  -15.4544    7.1693 O   0  0  0  0  0  0  0  0  0  0  0  0
  2  1  1  1
  3  2  1  0
  4  2  1  0
  4 11  1  0
  5  4  2  0
  7  6  1  1
  7  9  1  0
  8  7  1  0
 10  9  1  6
 10 11  1  0
 10 12  1  0
 12 19  1  0
 13 12  2  0
 14 15  1  0
 16 17  1  6
 16 15  1  0
 16 18  1  0
 18 20  1  0
 18 19  1  6
 20 21  2  0
 20 22  1  0
M  END
$$$$
