ALI.pdb
     RDKit          3D

 22 21  0  0  1  0  0  0  0  0999 V2000
   20.6041  -15.2947  -19.5615 C   0  0  0  0  0  0  0  0  0  0  0  0
   20.0067  -14.5535  -18.4065 C   0  0  2  0  0  0  0  0  0  0  0  0
   18.5909  -14.7263  -18.3238 N   0  0  0  0  0  0  0  0  0  0  0  0
   20.3762  -13.0874  -18.4390 C   0  0  0  0  0  0  0  0  0  0  0  0
   21.5856  -12.7685  -18.4122 O   0  0  0  0  0  0  0  0  0  0  0  0
   18.2677  -10.9175  -21.6209 C   0  0  0  0  0  0  0  0  0  0  0  0
   17.7664  -10.9600  -20.1665 C   0  0  2  0  0  0  0  0  0  0  0  0
   16.2858  -10.7306  -20.1525 C   0  0  0  0  0  0  0  0  0  0  0  0
   18.5227   -9.9607  -19.3311 C   0  0  0  0  0  0  0  0  0  0  0  0
   19.5337  -10.6682  -18.4744 C   0  0  2  0  0  0  0  0  0  0  0  0
   19.3812  -12.0905  -18.4984 N   0  0  0  0  0  0  0  0  0  0  0  0
   19.7979  -10.0855  -17.1683 C   0  0  0  0  0  0  0  0  0  0  0  0
   18.9288  -10.3193  -16.2550 O   0  0  0  0  0  0  0  0  0  0  0  0
   23.7768  -11.2684  -14.3970 C   0  0  0  0  0  0  0  0  0  0  0  0
   22.5141  -10.7188  -15.0196 C   0  0  0  0  0  0  0  0  0  0  0  0
   22.4628   -9.2079  -14.9437 C   0  0  2  0  0  0  0  0  0  0  0  0
   22.5516   -8.6985  -13.5420 C   0  0  0  0  0  0  0  0  0  0  0  0
   21.0879   -8.8022  -15.4872 C   0  0  2  0  0  0  0  0  0  0  0  0
   20.9051   -9.3013  -16.8257 N   0  0  0  0  0  0  0  0  0  0  0  0
   20.9368   -7.3215  -15.4231 C   0  0  0  0  0  0  0  0  0  0  0  0
   21.3453   -6.5628  -16.3431 O   0  0  0  0  0  0  0  0  0  0  0  0
   20.3317   -6.7169  -14.3311 O   0  0  0  0  0  0  0  0  0  0  0  0
  2  1  1  6
  3  2  1  0
  4  2  1  0
  4 11  1  0
  5  4  2  0
  7  6  1  6
  7  9  1  0
  8  7  1  0
 10  9  1  1
 10 11  1  0
 10 12  1  0
 12 19  1  0
 13 12  2  0
 14 15  1  0
 16 17  1  1
 16 15  1  0
 16 18  1  0
 18 20  1  0
 18 19  1  6
 20 21  2  0
 20 22  1  0
M  END
$$$$
