ALI.pdb
     RDKit          3D

 22 21  0  0  1  0  0  0  0  0999 V2000
   26.2745  -18.4175  -18.1909 C   0  0  0  0  0  0  0  0  0  0  0  0
   25.4980  -17.7437  -17.1030 C   0  0  2  0  0  0  0  0  0  0  0  0
   26.3222  -16.9174  -16.2790 N   0  0  0  0  0  0  0  0  0  0  0  0
   24.7258  -18.7444  -16.2728 C   0  0  0  0  0  0  0  0  0  0  0  0
   23.7859  -19.3747  -16.8064 O   0  0  0  0  0  0  0  0  0  0  0  0
   25.4992  -21.4267  -10.6913 C   0  0  0  0  0  0  0  0  0  0  0  0
   24.9097  -21.3408  -12.1103 C   0  0  2  0  0  0  0  0  0  0  0  0
   25.4623  -22.4608  -12.9382 C   0  0  0  0  0  0  0  0  0  0  0  0
   25.1850  -19.9832  -12.7016 C   0  0  0  0  0  0  0  0  0  0  0  0
   24.3906  -19.8024  -13.9638 C   0  0  2  0  0  0  0  0  0  0  0  0
   25.0527  -18.9695  -14.9201 N   0  0  0  0  0  0  0  0  0  0  0  0
   22.9645  -19.5661  -13.8039 C   0  0  0  0  0  0  0  0  0  0  0  0
   22.6317  -18.5901  -13.0417 O   0  0  0  0  0  0  0  0  0  0  0  0
   20.1229  -18.0508  -17.4318 C   0  0  0  0  0  0  0  0  0  0  0  0
   20.4951  -18.3513  -15.9982 C   0  0  0  0  0  0  0  0  0  0  0  0
   19.8616  -19.6370  -15.5118 C   0  0  2  0  0  0  0  0  0  0  0  0
   18.4026  -19.4880  -15.2266 C   0  0  0  0  0  0  0  0  0  0  0  0
   20.5508  -19.9741  -14.1845 C   0  0  2  0  0  0  0  0  0  0  0  0
   21.9360  -20.3026  -14.4023 N   0  0  0  0  0  0  0  0  0  0  0  0
   19.8203  -21.0793  -13.5031 C   0  0  0  0  0  0  0  0  0  0  0  0
   20.0449  -22.2929  -13.7592 O   0  0  0  0  0  0  0  0  0  0  0  0
   18.8522  -20.8065  -12.5478 O   0  0  0  0  0  0  0  0  0  0  0  0
  2  1  1  6
  3  2  1  0
  4  2  1  0
  4 11  1  0
  5  4  2  0
  7  6  1  1
  7  9  1  0
  8  7  1  0
 10  9  1  1
 10 11  1  0
 10 12  1  0
 12 19  1  0
 13 12  2  0
 14 15  1  0
 16 17  1  1
 16 15  1  0
 16 18  1  0
 18 20  1  0
 18 19  1  6
 20 21  2  0
 20 22  1  0
M  END
$$$$
