ALI.pdb
     RDKit          3D

 22 21  0  0  1  0  0  0  0  0999 V2000
   23.3829  -19.2909  -19.0231 C   0  0  0  0  0  0  0  0  0  0  0  0
   23.1851  -19.2641  -17.5397 C   0  0  2  0  0  0  0  0  0  0  0  0
   22.7287  -17.9924  -17.0754 N   0  0  0  0  0  0  0  0  0  0  0  0
   24.4353  -19.6958  -16.8066 C   0  0  0  0  0  0  0  0  0  0  0  0
   24.8991  -20.8373  -17.0236 O   0  0  0  0  0  0  0  0  0  0  0  0
   27.9328  -17.3656  -16.9935 C   0  0  0  0  0  0  0  0  0  0  0  0
   26.9616  -16.8678  -15.9085 C   0  0  2  0  0  0  0  0  0  0  0  0
   27.3294  -15.4658  -15.5287 C   0  0  0  0  0  0  0  0  0  0  0  0
   26.9689  -17.8139  -14.7366 C   0  0  0  0  0  0  0  0  0  0  0  0
   26.2333  -19.0751  -15.0904 C   0  0  2  0  0  0  0  0  0  0  0  0
   25.0737  -18.8330  -15.8925 N   0  0  0  0  0  0  0  0  0  0  0  0
   26.0686  -20.0503  -14.0241 C   0  0  0  0  0  0  0  0  0  0  0  0
   27.0297  -20.8836  -13.8621 O   0  0  0  0  0  0  0  0  0  0  0  0
   25.8676  -21.4316   -8.4852 C   0  0  0  0  0  0  0  0  0  0  0  0
   25.2980  -21.7947   -9.8372 C   0  0  0  0  0  0  0  0  0  0  0  0
   25.3690  -20.6338  -10.8059 C   0  0  2  0  0  0  0  0  0  0  0  0
   24.4500  -19.5161  -10.4336 C   0  0  0  0  0  0  0  0  0  0  0  0
   24.8945  -21.1795  -12.1577 C   0  0  2  0  0  0  0  0  0  0  0  0
   24.9656  -20.1572  -13.1696 N   0  0  0  0  0  0  0  0  0  0  0  0
   23.5170  -21.7310  -12.0239 C   0  0  0  0  0  0  0  0  0  0  0  0
   23.2381  -22.6561  -11.2144 O   0  0  0  0  0  0  0  0  0  0  0  0
   22.4772  -21.2374  -12.7979 O   0  0  0  0  0  0  0  0  0  0  0  0
  2  1  1  6
  3  2  1  0
  4  2  1  0
  4 11  1  0
  5  4  2  0
  7  6  1  6
  7  9  1  0
  8  7  1  0
 10  9  1  1
 10 11  1  0
 10 12  1  0
 12 19  1  0
 13 12  2  0
 14 15  1  0
 16 17  1  1
 16 15  1  0
 16 18  1  0
 18 20  1  0
 18 19  1  6
 20 21  2  0
 20 22  1  0
M  END
$$$$
