ALI.pdb
     RDKit          3D

 22 21  0  0  1  0  0  0  0  0999 V2000
   14.9454  -20.5237    0.3693 C   0  0  0  0  0  0  0  0  0  0  0  0
   16.3940  -20.2839    0.0791 C   0  0  2  0  0  0  0  0  0  0  0  0
   17.0201  -21.4140   -0.5309 N   0  0  0  0  0  0  0  0  0  0  0  0
   17.1424  -19.8490    1.3191 C   0  0  0  0  0  0  0  0  0  0  0  0
   17.4780  -20.7152    2.1571 O   0  0  0  0  0  0  0  0  0  0  0  0
   21.0066  -17.7512    2.1769 C   0  0  0  0  0  0  0  0  0  0  0  0
   19.9870  -16.8731    1.4302 C   0  0  2  0  0  0  0  0  0  0  0  0
   20.6669  -15.6212    0.9659 C   0  0  0  0  0  0  0  0  0  0  0  0
   18.7967  -16.6014    2.3124 C   0  0  0  0  0  0  0  0  0  0  0  0
   18.1097  -17.8916    2.6593 C   0  0  2  0  0  0  0  0  0  0  0  0
   17.4605  -18.4927    1.5351 N   0  0  0  0  0  0  0  0  0  0  0  0
   17.3588  -17.9116    3.9046 C   0  0  0  0  0  0  0  0  0  0  0  0
   16.1524  -17.4808    3.8482 O   0  0  0  0  0  0  0  0  0  0  0  0
   17.5525  -21.8101    7.6572 C   0  0  0  0  0  0  0  0  0  0  0  0
   17.1410  -20.6730    6.7507 C   0  0  0  0  0  0  0  0  0  0  0  0
   17.4662  -19.3254    7.3582 C   0  0  2  0  0  0  0  0  0  0  0  0
   16.7049  -19.0621    8.6165 C   0  0  0  0  0  0  0  0  0  0  0  0
   17.0203  -18.2782    6.3312 C   0  0  2  0  0  0  0  0  0  0  0  0
   17.8327  -18.3550    5.1444 N   0  0  0  0  0  0  0  0  0  0  0  0
   17.0622  -16.9208    6.9438 C   0  0  0  0  0  0  0  0  0  0  0  0
   18.0880  -16.1902    6.8915 O   0  0  0  0  0  0  0  0  0  0  0  0
   15.9559  -16.4059    7.6034 O   0  0  0  0  0  0  0  0  0  0  0  0
  2  1  1  1
  3  2  1  0
  4  2  1  0
  4 11  1  0
  5  4  2  0
  7  6  1  1
  7  9  1  0
  8  7  1  0
 10  9  1  6
 10 11  1  0
 10 12  1  0
 12 19  1  0
 13 12  2  0
 14 15  1  0
 16 17  1  1
 16 15  1  0
 16 18  1  0
 18 20  1  0
 18 19  1  6
 20 21  2  0
 20 22  1  0
M  END
$$$$
