KKN.pdb
     RDKit          3D

 27 26  0  0  1  0  0  0  0  0999 V2000
   28.9050  -28.0340  -15.9367 N   0  0  0  0  0  0  0  0  0  0  0  0
   28.1497  -28.1308  -17.1587 C   0  0  1  0  0  0  0  0  0  0  0  0
   27.7427  -29.5611  -17.4616 C   0  0  0  0  0  0  0  0  0  0  0  0
   28.9758  -30.3492  -17.7387 C   0  0  0  0  0  0  0  0  0  0  0  0
   29.3621  -31.3447  -16.7038 C   0  0  0  0  0  0  0  0  0  0  0  0
   30.5404  -32.1991  -17.0184 C   0  0  0  0  0  0  0  0  0  0  0  0
   30.9060  -33.1547  -16.0259 N   0  0  0  0  0  0  0  0  0  0  0  0
   26.9615  -27.2260  -17.0449 C   0  0  0  0  0  0  0  0  0  0  0  0
   26.4450  -27.0771  -15.9320 O   0  0  0  0  0  0  0  0  0  0  0  0
   26.4320  -26.5526  -18.1684 N   0  0  0  0  0  0  0  0  0  0  0  0
   25.3645  -25.6287  -18.1960 C   0  0  1  0  0  0  0  0  0  0  0  0
   25.3824  -24.5849  -19.2801 C   0  0  0  0  0  0  0  0  0  0  0  0
   24.3008  -23.5720  -19.2485 C   0  0  0  0  0  0  0  0  0  0  0  0
   24.5878  -22.4409  -18.2488 C   0  0  0  0  0  0  0  0  0  0  0  0
   24.7332  -21.1137  -18.9111 C   0  0  0  0  0  0  0  0  0  0  0  0
   24.9382  -20.0717  -17.9151 N   0  0  0  0  0  0  0  0  0  0  0  0
   24.0109  -26.1944  -18.0397 C   0  0  0  0  0  0  0  0  0  0  0  0
   23.8621  -27.4329  -18.0985 O   0  0  0  0  0  0  0  0  0  0  0  0
   19.8889  -28.6435  -16.3040 N   0  0  0  0  0  0  0  0  0  0  0  0
   20.2894  -27.3401  -15.8832 C   0  0  0  0  0  0  0  0  0  0  0  0
   19.4298  -26.6812  -15.2188 O   0  0  0  0  0  0  0  0  0  0  0  0
   21.6370  -26.8361  -16.2277 C   0  0  0  0  0  0  0  0  0  0  0  0
   21.5618  -25.9750  -17.4323 C   0  0  2  0  0  0  0  0  0  0  0  0
   22.8426  -25.4169  -17.8230 N   0  0  0  0  0  0  0  0  0  0  0  0
   20.5253  -24.9148  -17.3365 C   0  0  0  0  0  0  0  0  0  0  0  0
   20.7638  -23.6970  -17.1819 O   0  0  0  0  0  0  0  0  0  0  0  0
   19.1820  -25.2771  -17.4228 O   0  0  0  0  0  0  0  0  0  0  0  0
  2  1  1  1
  3  2  1  0
  4  3  1  0
  5  4  1  0
  5  6  1  0
  7  6  1  0
  8  2  1  0
  8  9  2  0
 10 11  1  0
 10  8  1  0
 11 12  1  6
 13 12  1  0
 14 13  1  0
 15 14  1  0
 16 15  1  0
 17 18  2  0
 17 11  1  0
 19 20  1  0
 20 21  2  0
 20 22  1  0
 23 22  1  1
 23 24  1  0
 23 25  1  0
 24 17  1  0
 25 27  1  0
 26 25  2  0
M  END
$$$$
