KKN.pdb
     RDKit          3D

 27 26  0  0  1  0  0  0  0  0999 V2000
   28.1619   -9.5035  -18.5294 N   0  0  0  0  0  0  0  0  0  0  0  0
   29.5140   -9.9878  -18.6323 C   0  0  1  0  0  0  0  0  0  0  0  0
   29.6305  -11.1387  -19.6146 C   0  0  0  0  0  0  0  0  0  0  0  0
   28.4932  -12.0711  -19.3792 C   0  0  0  0  0  0  0  0  0  0  0  0
   27.6986  -12.4494  -20.5778 C   0  0  0  0  0  0  0  0  0  0  0  0
   26.5612  -13.3824  -20.3471 C   0  0  0  0  0  0  0  0  0  0  0  0
   25.7729  -13.7060  -21.4897 N   0  0  0  0  0  0  0  0  0  0  0  0
   30.3930   -8.8372  -19.0158 C   0  0  0  0  0  0  0  0  0  0  0  0
   31.6112   -9.0322  -19.0906 O   0  0  0  0  0  0  0  0  0  0  0  0
   29.8616   -7.5569  -19.2885 N   0  0  0  0  0  0  0  0  0  0  0  0
   30.5672   -6.3915  -19.6595 C   0  0  1  0  0  0  0  0  0  0  0  0
   29.7558   -5.2072  -20.1113 C   0  0  0  0  0  0  0  0  0  0  0  0
   30.5083   -4.0497  -20.6504 C   0  0  0  0  0  0  0  0  0  0  0  0
   29.5895   -2.8733  -21.0153 C   0  0  0  0  0  0  0  0  0  0  0  0
   30.3389   -1.7119  -21.5725 C   0  0  0  0  0  0  0  0  0  0  0  0
   29.4234   -0.6259  -21.8919 N   0  0  0  0  0  0  0  0  0  0  0  0
   31.6459   -5.9663  -18.7471 C   0  0  0  0  0  0  0  0  0  0  0  0
   32.7075   -5.5210  -19.2311 O   0  0  0  0  0  0  0  0  0  0  0  0
   33.1874   -3.2895  -13.5636 N   0  0  0  0  0  0  0  0  0  0  0  0
   33.4024   -4.0194  -14.7708 C   0  0  0  0  0  0  0  0  0  0  0  0
   34.6140   -4.2671  -15.0630 O   0  0  0  0  0  0  0  0  0  0  0  0
   32.2472   -4.4379  -15.5948 C   0  0  0  0  0  0  0  0  0  0  0  0
   32.6224   -5.5971  -16.4394 C   0  0  2  0  0  0  0  0  0  0  0  0
   31.5622   -6.0282  -17.3309 N   0  0  0  0  0  0  0  0  0  0  0  0
   33.1649   -6.7422  -15.6635 C   0  0  0  0  0  0  0  0  0  0  0  0
   32.4689   -7.6232  -15.1127 O   0  0  0  0  0  0  0  0  0  0  0  0
   34.5462   -6.8670  -15.5247 O   0  0  0  0  0  0  0  0  0  0  0  0
  2  1  1  6
  3  2  1  0
  4  3  1  0
  5  4  1  0
  5  6  1  0
  7  6  1  0
  8  2  1  0
  8  9  2  0
 10 11  1  0
 10  8  1  0
 11 12  1  1
 13 12  1  0
 14 13  1  0
 15 14  1  0
 16 15  1  0
 17 18  2  0
 17 11  1  0
 19 20  1  0
 20 21  2  0
 20 22  1  0
 23 22  1  1
 23 24  1  0
 23 25  1  0
 24 17  1  0
 25 27  1  0
 26 25  2  0
M  END
$$$$
