KKN.pdb
     RDKit          3D

 27 26  0  0  1  0  0  0  0  0999 V2000
   27.3826  -12.6641  -16.2009 N   0  0  0  0  0  0  0  0  0  0  0  0
   27.0492  -11.5892  -17.0992 C   0  0  1  0  0  0  0  0  0  0  0  0
   25.5856  -11.2005  -16.9991 C   0  0  0  0  0  0  0  0  0  0  0  0
   24.7622  -12.3659  -17.4258 C   0  0  0  0  0  0  0  0  0  0  0  0
   23.2962  -12.1332  -17.5155 C   0  0  0  0  0  0  0  0  0  0  0  0
   22.4736  -13.2835  -17.9816 C   0  0  0  0  0  0  0  0  0  0  0  0
   22.7695  -13.7800  -19.2846 N   0  0  0  0  0  0  0  0  0  0  0  0
   27.9540  -10.4339  -16.7994 C   0  0  0  0  0  0  0  0  0  0  0  0
   27.6327   -9.6607  -15.8903 O   0  0  0  0  0  0  0  0  0  0  0  0
   29.1467  -10.2184  -17.5255 N   0  0  0  0  0  0  0  0  0  0  0  0
   30.0335   -9.1244  -17.4222 C   0  0  1  0  0  0  0  0  0  0  0  0
   31.4677   -9.4278  -17.0816 C   0  0  0  0  0  0  0  0  0  0  0  0
   32.3558   -8.2661  -16.8399 C   0  0  0  0  0  0  0  0  0  0  0  0
   33.7684   -8.6896  -16.4083 C   0  0  0  0  0  0  0  0  0  0  0  0
   34.6062   -7.5352  -15.9764 C   0  0  0  0  0  0  0  0  0  0  0  0
   35.8702   -8.0052  -15.4278 N   0  0  0  0  0  0  0  0  0  0  0  0
   29.9552   -8.1199  -18.5000 C   0  0  0  0  0  0  0  0  0  0  0  0
   30.2592   -8.4559  -19.6636 O   0  0  0  0  0  0  0  0  0  0  0  0
   25.6682   -5.4672  -19.7892 N   0  0  0  0  0  0  0  0  0  0  0  0
   27.0251   -5.8924  -19.9090 C   0  0  0  0  0  0  0  0  0  0  0  0
   27.2132   -6.9846  -20.5306 O   0  0  0  0  0  0  0  0  0  0  0  0
   28.1089   -5.0718  -19.3253 C   0  0  0  0  0  0  0  0  0  0  0  0
   29.3912   -5.8137  -19.3824 C   0  0  2  0  0  0  0  0  0  0  0  0
   29.5512   -6.7725  -18.3055 N   0  0  0  0  0  0  0  0  0  0  0  0
   30.5806   -4.9298  -19.4901 C   0  0  0  0  0  0  0  0  0  0  0  0
   31.0602   -4.2626  -18.5473 O   0  0  0  0  0  0  0  0  0  0  0  0
   31.2276   -4.8188  -20.7197 O   0  0  0  0  0  0  0  0  0  0  0  0
  2  1  1  1
  3  2  1  0
  4  3  1  0
  5  4  1  0
  5  6  1  0
  7  6  1  0
  8  2  1  0
  8  9  2  0
 10 11  1  0
 10  8  1  0
 11 12  1  6
 13 12  1  0
 14 13  1  0
 15 14  1  0
 16 15  1  0
 17 18  2  0
 17 11  1  0
 19 20  1  0
 20 21  2  0
 20 22  1  0
 23 22  1  1
 23 24  1  0
 23 25  1  0
 24 17  1  0
 25 27  1  0
 26 25  2  0
M  END
$$$$
