KKN.pdb
     RDKit          3D

 27 26  0  0  1  0  0  0  0  0999 V2000
   25.7965  -25.8599  -15.5010 N   0  0  0  0  0  0  0  0  0  0  0  0
   24.6919  -25.0791  -15.9946 C   0  0  1  0  0  0  0  0  0  0  0  0
   24.6625  -25.0343  -17.5113 C   0  0  0  0  0  0  0  0  0  0  0  0
   25.6385  -24.0060  -17.9675 C   0  0  0  0  0  0  0  0  0  0  0  0
   26.6025  -23.5198  -16.9450 C   0  0  0  0  0  0  0  0  0  0  0  0
   27.4709  -22.3791  -17.3474 C   0  0  0  0  0  0  0  0  0  0  0  0
   28.3265  -21.8538  -16.3355 N   0  0  0  0  0  0  0  0  0  0  0  0
   23.4280  -25.6510  -15.4298 C   0  0  0  0  0  0  0  0  0  0  0  0
   22.3996  -24.9681  -15.4903 O   0  0  0  0  0  0  0  0  0  0  0  0
   23.3935  -26.9345  -14.8403 N   0  0  0  0  0  0  0  0  0  0  0  0
   22.2939  -27.5715  -14.2248 C   0  0  1  0  0  0  0  0  0  0  0  0
   22.3734  -29.0633  -14.0421 C   0  0  0  0  0  0  0  0  0  0  0  0
   21.1637  -29.7357  -13.5117 C   0  0  0  0  0  0  0  0  0  0  0  0
   21.3656  -31.2487  -13.3350 C   0  0  0  0  0  0  0  0  0  0  0  0
   20.1493  -31.9319  -12.8107 C   0  0  0  0  0  0  0  0  0  0  0  0
   20.3547  -33.3728  -12.7753 N   0  0  0  0  0  0  0  0  0  0  0  0
   21.7654  -26.9252  -13.0084 C   0  0  0  0  0  0  0  0  0  0  0  0
   22.5235  -26.2012  -12.3298 O   0  0  0  0  0  0  0  0  0  0  0  0
   17.5170  -24.7421  -11.1831 N   0  0  0  0  0  0  0  0  0  0  0  0
   18.5894  -24.0310  -11.7999 C   0  0  0  0  0  0  0  0  0  0  0  0
   18.3692  -22.8066  -12.0585 O   0  0  0  0  0  0  0  0  0  0  0  0
   19.8601  -24.7273  -12.0984 C   0  0  0  0  0  0  0  0  0  0  0  0
   19.7835  -26.1361  -11.6429 C   0  0  2  0  0  0  0  0  0  0  0  0
   20.4309  -27.0698  -12.5449 N   0  0  0  0  0  0  0  0  0  0  0  0
   18.4022  -26.5779  -11.3198 C   0  0  0  0  0  0  0  0  0  0  0  0
   17.6171  -27.1140  -12.1324 O   0  0  0  0  0  0  0  0  0  0  0  0
   17.9224  -26.3937  -10.0242 O   0  0  0  0  0  0  0  0  0  0  0  0
  2  1  1  6
  3  2  1  0
  4  3  1  0
  5  4  1  0
  5  6  1  0
  7  6  1  0
  8  2  1  0
  8  9  2  0
 10 11  1  0
 10  8  1  0
 11 12  1  1
 13 12  1  0
 14 13  1  0
 15 14  1  0
 16 15  1  0
 17 18  2  0
 17 11  1  0
 19 20  1  0
 20 21  2  0
 20 22  1  0
 23 22  1  6
 23 24  1  0
 23 25  1  0
 24 17  1  0
 25 27  1  0
 26 25  2  0
M  END
$$$$
