KKN.pdb
     RDKit          3D

 27 26  0  0  1  0  0  0  0  0999 V2000
   21.3517  -15.2834  -19.4361 N   0  0  0  0  0  0  0  0  0  0  0  0
   21.9066  -14.2514  -18.5991 C   0  0  1  0  0  0  0  0  0  0  0  0
   23.1989  -13.6946  -19.1676 C   0  0  0  0  0  0  0  0  0  0  0  0
   23.9516  -14.8133  -19.8001 C   0  0  0  0  0  0  0  0  0  0  0  0
   25.1671  -14.4323  -20.5675 C   0  0  0  0  0  0  0  0  0  0  0  0
   25.9148  -15.5463  -21.2134 C   0  0  0  0  0  0  0  0  0  0  0  0
   27.0890  -15.1798  -21.9337 N   0  0  0  0  0  0  0  0  0  0  0  0
   20.8695  -13.1848  -18.4251 C   0  0  0  0  0  0  0  0  0  0  0  0
   20.8909  -12.2180  -19.1947 O   0  0  0  0  0  0  0  0  0  0  0  0
   19.8856  -13.2652  -17.4144 N   0  0  0  0  0  0  0  0  0  0  0  0
   18.9140  -12.2975  -17.0778 C   0  0  1  0  0  0  0  0  0  0  0  0
   17.5344  -12.7934  -16.7375 C   0  0  0  0  0  0  0  0  0  0  0  0
   16.4714  -11.7690  -16.6047 C   0  0  0  0  0  0  0  0  0  0  0  0
   15.1126  -12.3812  -16.2305 C   0  0  0  0  0  0  0  0  0  0  0  0
   14.0401  -11.3556  -16.0930 C   0  0  0  0  0  0  0  0  0  0  0  0
   12.7762  -11.9895  -15.7462 N   0  0  0  0  0  0  0  0  0  0  0  0
   19.3401  -11.2508  -16.1293 C   0  0  0  0  0  0  0  0  0  0  0  0
   19.9639  -11.5844  -15.1002 O   0  0  0  0  0  0  0  0  0  0  0  0
   20.5274   -6.9808  -13.6886 N   0  0  0  0  0  0  0  0  0  0  0  0
   21.4924   -7.8643  -14.2582 C   0  0  0  0  0  0  0  0  0  0  0  0
   22.7020   -7.6521  -13.9319 O   0  0  0  0  0  0  0  0  0  0  0  0
   21.0551   -8.9457  -15.1681 C   0  0  0  0  0  0  0  0  0  0  0  0
   19.5996   -8.8315  -15.4259 C   0  0  2  0  0  0  0  0  0  0  0  0
   19.0870   -9.8647  -16.3059 N   0  0  0  0  0  0  0  0  0  0  0  0
   19.1863   -7.4822  -15.8908 C   0  0  0  0  0  0  0  0  0  0  0  0
   18.2394   -6.8219  -15.4098 O   0  0  0  0  0  0  0  0  0  0  0  0
   19.8888   -6.8863  -16.9369 O   0  0  0  0  0  0  0  0  0  0  0  0
  2  1  1  6
  3  2  1  0
  4  3  1  0
  5  4  1  0
  5  6  1  0
  7  6  1  0
  8  2  1  0
  8  9  2  0
 10 11  1  0
 10  8  1  0
 11 12  1  1
 13 12  1  0
 14 13  1  0
 15 14  1  0
 16 15  1  0
 17 18  2  0
 17 11  1  0
 19 20  1  0
 20 21  2  0
 20 22  1  0
 23 22  1  6
 23 24  1  0
 23 25  1  0
 24 17  1  0
 25 27  1  0
 26 25  2  0
M  END
$$$$
