KKN.pdb
     RDKit          3D

 27 26  0  0  1  0  0  0  0  0999 V2000
   25.1332  -14.7339  -21.1999 N   0  0  0  0  0  0  0  0  0  0  0  0
   23.9011  -15.4136  -21.5054 C   0  0  1  0  0  0  0  0  0  0  0  0
   24.0421  -16.9204  -21.3925 C   0  0  0  0  0  0  0  0  0  0  0  0
   24.9176  -17.3924  -22.5010 C   0  0  0  0  0  0  0  0  0  0  0  0
   25.0669  -18.8658  -22.6345 C   0  0  0  0  0  0  0  0  0  0  0  0
   25.9076  -19.3432  -23.7671 C   0  0  0  0  0  0  0  0  0  0  0  0
   26.0051  -20.7566  -23.9245 N   0  0  0  0  0  0  0  0  0  0  0  0
   22.8381  -14.8837  -20.5928 C   0  0  0  0  0  0  0  0  0  0  0  0
   22.4184  -15.6214  -19.6944 O   0  0  0  0  0  0  0  0  0  0  0  0
   22.3177  -13.5785  -20.7400 N   0  0  0  0  0  0  0  0  0  0  0  0
   21.3006  -12.9645  -19.9768 C   0  0  1  0  0  0  0  0  0  0  0  0
   21.3225  -11.4629  -19.8778 C   0  0  0  0  0  0  0  0  0  0  0  0
   20.2931  -10.8364  -19.0149 C   0  0  0  0  0  0  0  0  0  0  0  0
   20.3553   -9.3014  -19.0506 C   0  0  0  0  0  0  0  0  0  0  0  0
   19.3886   -8.6666  -18.1106 C   0  0  0  0  0  0  0  0  0  0  0  0
   19.5345   -7.2183  -18.1376 N   0  0  0  0  0  0  0  0  0  0  0  0
   19.9278  -13.4512  -20.2119 C   0  0  0  0  0  0  0  0  0  0  0  0
   19.4892  -13.4839  -21.3807 O   0  0  0  0  0  0  0  0  0  0  0  0
   15.2687  -16.9154  -18.3300 N   0  0  0  0  0  0  0  0  0  0  0  0
   15.7802  -15.6438  -18.7271 C   0  0  0  0  0  0  0  0  0  0  0  0
   14.9652  -14.8812  -19.3345 O   0  0  0  0  0  0  0  0  0  0  0  0
   17.1835  -15.2866  -18.4241 C   0  0  0  0  0  0  0  0  0  0  0  0
   17.6789  -14.3003  -19.4140 C   0  0  2  0  0  0  0  0  0  0  0  0
   19.0525  -13.8936  -19.1850 N   0  0  0  0  0  0  0  0  0  0  0  0
   16.7912  -13.1184  -19.5651 C   0  0  0  0  0  0  0  0  0  0  0  0
   16.8659  -12.0783  -18.8748 O   0  0  0  0  0  0  0  0  0  0  0  0
   15.7953  -13.1450  -20.5400 O   0  0  0  0  0  0  0  0  0  0  0  0
  2  1  1  1
  3  2  1  0
  4  3  1  0
  5  4  1  0
  5  6  1  0
  7  6  1  0
  8  2  1  0
  8  9  2  0
 10 11  1  0
 10  8  1  0
 11 12  1  6
 13 12  1  0
 14 13  1  0
 15 14  1  0
 16 15  1  0
 17 18  2  0
 17 11  1  0
 19 20  1  0
 20 21  2  0
 20 22  1  0
 23 22  1  1
 23 24  1  0
 23 25  1  0
 24 17  1  0
 25 27  1  0
 26 25  2  0
M  END
$$$$
