KKN.pdb
     RDKit          3D

 27 26  0  0  1  0  0  0  0  0999 V2000
   26.8356  -21.9097  -18.8251 N   0  0  0  0  0  0  0  0  0  0  0  0
   26.8754  -21.8293  -17.3879 C   0  0  1  0  0  0  0  0  0  0  0  0
   28.1637  -21.1998  -16.8910 C   0  0  0  0  0  0  0  0  0  0  0  0
   29.3075  -21.9763  -17.4451 C   0  0  0  0  0  0  0  0  0  0  0  0
   29.4440  -23.3756  -16.9606 C   0  0  0  0  0  0  0  0  0  0  0  0
   30.6500  -24.1177  -17.4209 C   0  0  0  0  0  0  0  0  0  0  0  0
   30.7612  -25.4693  -16.9816 N   0  0  0  0  0  0  0  0  0  0  0  0
   25.6702  -21.0666  -16.9305 C   0  0  0  0  0  0  0  0  0  0  0  0
   25.5569  -20.8216  -15.7244 O   0  0  0  0  0  0  0  0  0  0  0  0
   24.6797  -20.6308  -17.8388 N   0  0  0  0  0  0  0  0  0  0  0  0
   23.4933  -19.9230  -17.5469 C   0  0  1  0  0  0  0  0  0  0  0  0
   22.9579  -19.0035  -18.6114 C   0  0  0  0  0  0  0  0  0  0  0  0
   23.7730  -17.8076  -18.9312 C   0  0  0  0  0  0  0  0  0  0  0  0
   23.1158  -16.9208  -20.0003 C   0  0  0  0  0  0  0  0  0  0  0  0
   23.8930  -15.6784  -20.2714 C   0  0  0  0  0  0  0  0  0  0  0  0
   23.1666  -14.8195  -21.1957 N   0  0  0  0  0  0  0  0  0  0  0  0
   22.4016  -20.7069  -16.9383 C   0  0  0  0  0  0  0  0  0  0  0  0
   22.3526  -21.9375  -17.1443 O   0  0  0  0  0  0  0  0  0  0  0  0
   18.5359  -22.4080  -14.1225 N   0  0  0  0  0  0  0  0  0  0  0  0
   19.5465  -23.1345  -14.8205 C   0  0  0  0  0  0  0  0  0  0  0  0
   19.4406  -24.4005  -14.7937 O   0  0  0  0  0  0  0  0  0  0  0  0
   20.6297  -22.4062  -15.5168 C   0  0  0  0  0  0  0  0  0  0  0  0
   20.4512  -20.9451  -15.3400 C   0  0  2  0  0  0  0  0  0  0  0  0
   21.3829  -20.1518  -16.1193 N   0  0  0  0  0  0  0  0  0  0  0  0
   20.4484  -20.5184  -13.9168 C   0  0  0  0  0  0  0  0  0  0  0  0
   21.1639  -19.6080  -13.4444 O   0  0  0  0  0  0  0  0  0  0  0  0
   19.5951  -21.1629  -13.0227 O   0  0  0  0  0  0  0  0  0  0  0  0
  2  1  1  6
  3  2  1  0
  4  3  1  0
  5  4  1  0
  5  6  1  0
  7  6  1  0
  8  2  1  0
  8  9  2  0
 10 11  1  0
 10  8  1  0
 11 12  1  6
 13 12  1  0
 14 13  1  0
 15 14  1  0
 16 15  1  0
 17 18  2  0
 17 11  1  0
 19 20  1  0
 20 21  2  0
 20 22  1  0
 23 22  1  1
 23 24  1  0
 23 25  1  0
 24 17  1  0
 25 27  1  0
 26 25  2  0
M  END
$$$$
