GFD.pdb
     RDKit          3D

 24 24  0  0  1  0  0  0  0  0999 V2000
    7.1393  -13.3182   20.2746 N   0  0  0  0  0  0  0  0  0  0  0  0
    6.8097  -14.4032   21.1763 C   0  0  0  0  0  0  0  0  0  0  0  0
    7.8390  -14.5343   22.2457 C   0  0  0  0  0  0  0  0  0  0  0  0
    9.0251  -14.1690   22.0920 O   0  0  0  0  0  0  0  0  0  0  0  0
    7.4487  -15.0947   23.4778 N   0  0  0  0  0  0  0  0  0  0  0  0
    8.3500  -15.2599   24.5830 C   0  0  1  0  0  0  0  0  0  0  0  0
    7.7198  -15.0439   25.9092 C   0  0  0  0  0  0  0  0  0  0  0  0
    7.3437  -13.6151   26.1398 C   0  0  0  0  0  0  0  0  0  0  0  0
    8.3333  -12.6739   26.3156 C   0  0  0  0  0  0  0  0  0  0  0  0
    8.0314  -11.3344   26.5313 C   0  0  0  0  0  0  0  0  0  0  0  0
    6.7252  -10.8986   26.5768 C   0  0  0  0  0  0  0  0  0  0  0  0
    5.7318  -11.8357   26.4017 C   0  0  0  0  0  0  0  0  0  0  0  0
    6.0352  -13.1849   26.1846 C   0  0  0  0  0  0  0  0  0  0  0  0
    9.0818  -16.5493   24.5693 C   0  0  0  0  0  0  0  0  0  0  0  0
    8.5610  -17.6716   24.3442 O   0  0  0  0  0  0  0  0  0  0  0  0
   10.4774  -16.5213   24.8279 N   0  0  0  0  0  0  0  0  0  0  0  0
   11.2207  -17.8031   24.8686 C   0  0  1  0  0  0  0  0  0  0  0  0
   12.6508  -17.4343   24.5412 C   0  0  0  0  0  0  0  0  0  0  0  0
   12.8432  -16.7918   23.2507 C   0  0  0  0  0  0  0  0  0  0  0  0
   12.3312  -17.2681   22.2160 O   0  0  0  0  0  0  0  0  0  0  0  0
   11.1799  -18.3639   26.2342 C   0  0  0  0  0  0  0  0  0  0  0  0
   10.6565  -17.7195   27.1654 O   0  0  0  0  0  0  0  0  0  0  0  0
   13.5985  -15.6407   23.1517 O   0  0  0  0  0  0  0  0  0  0  0  0
   11.7207  -19.6031   26.4800 O   0  0  0  0  0  0  0  0  0  0  0  0
  2  1  1  0
  3  2  1  0
  3  5  1  0
  4  3  2  0
  6  5  1  0
  6 14  1  0
  6  7  1  1
  8  7  1  0
  8 13  2  0
  9  8  1  0
 10  9  2  0
 10 11  1  0
 11 12  2  0
 12 13  1  0
 14 16  1  0
 15 14  2  0
 16 17  1  0
 17 18  1  1
 17 21  1  0
 19 18  1  0
 20 19  2  0
 21 24  1  0
 22 21  2  0
 23 19  1  0
M  END
$$$$
