GFD.pdb
     RDKit          3D

 24 24  0  0  1  0  0  0  0  0999 V2000
    5.0996  -19.3951   23.8455 N   0  0  0  0  0  0  0  0  0  0  0  0
    5.4296  -18.1381   24.4859 C   0  0  0  0  0  0  0  0  0  0  0  0
    6.4876  -17.4170   23.7237 C   0  0  0  0  0  0  0  0  0  0  0  0
    7.0078  -17.8797   22.6849 O   0  0  0  0  0  0  0  0  0  0  0  0
    6.9122  -16.1621   24.2024 N   0  0  0  0  0  0  0  0  0  0  0  0
    7.9036  -15.3651   23.5369 C   0  0  1  0  0  0  0  0  0  0  0  0
    7.6529  -13.9045   23.6171 C   0  0  0  0  0  0  0  0  0  0  0  0
    7.3733  -13.4463   25.0128 C   0  0  0  0  0  0  0  0  0  0  0  0
    6.0703  -13.3606   25.4495 C   0  0  0  0  0  0  0  0  0  0  0  0
    5.7625  -12.9413   26.7385 C   0  0  0  0  0  0  0  0  0  0  0  0
    6.7549  -12.5951   27.6292 C   0  0  0  0  0  0  0  0  0  0  0  0
    8.0596  -12.6788   27.1976 C   0  0  0  0  0  0  0  0  0  0  0  0
    8.3702  -13.1010   25.8995 C   0  0  0  0  0  0  0  0  0  0  0  0
    9.2933  -15.6685   23.9555 C   0  0  0  0  0  0  0  0  0  0  0  0
   10.3279  -15.2119   23.4056 O   0  0  0  0  0  0  0  0  0  0  0  0
    9.4763  -16.5391   25.0619 N   0  0  0  0  0  0  0  0  0  0  0  0
   10.8019  -17.1726   25.2588 C   0  0  1  0  0  0  0  0  0  0  0  0
   11.8039  -16.0820   24.9509 C   0  0  0  0  0  0  0  0  0  0  0  0
   12.7456  -16.3907   23.8864 C   0  0  0  0  0  0  0  0  0  0  0  0
   12.6437  -17.4471   23.2283 O   0  0  0  0  0  0  0  0  0  0  0  0
   10.9616  -17.5739   26.6709 C   0  0  0  0  0  0  0  0  0  0  0  0
   11.9769  -18.1990   27.0382 O   0  0  0  0  0  0  0  0  0  0  0  0
   13.7702  -15.5153   23.5877 O   0  0  0  0  0  0  0  0  0  0  0  0
    9.9866  -17.2561   27.5858 O   0  0  0  0  0  0  0  0  0  0  0  0
  2  1  1  0
  3  2  1  0
  3  5  1  0
  4  3  2  0
  6  5  1  0
  6 14  1  0
  6  7  1  1
  8  7  1  0
  8 13  2  0
  9  8  1  0
 10  9  2  0
 10 11  1  0
 11 12  2  0
 12 13  1  0
 14 16  1  0
 15 14  2  0
 16 17  1  0
 17 18  1  1
 17 21  1  0
 19 18  1  0
 20 19  2  0
 21 24  1  0
 22 21  2  0
 23 19  1  0
M  END
$$$$
