GFD.pdb
     RDKit          3D

 24 24  0  0  1  0  0  0  0  0999 V2000
    9.2419  -18.5663   17.2213 N   0  0  0  0  0  0  0  0  0  0  0  0
    8.7426  -18.4405   18.5755 C   0  0  0  0  0  0  0  0  0  0  0  0
    9.5400  -17.4433   19.3435 C   0  0  0  0  0  0  0  0  0  0  0  0
   10.5330  -16.8551   18.8619 O   0  0  0  0  0  0  0  0  0  0  0  0
    9.1502  -17.1588   20.6669 N   0  0  0  0  0  0  0  0  0  0  0  0
    9.9227  -16.3309   21.5495 C   0  0  1  0  0  0  0  0  0  0  0  0
    9.1037  -15.4279   22.3959 C   0  0  0  0  0  0  0  0  0  0  0  0
    8.2654  -14.4888   21.5888 C   0  0  0  0  0  0  0  0  0  0  0  0
    8.8350  -13.3477   21.0697 C   0  0  0  0  0  0  0  0  0  0  0  0
    8.0955  -12.4468   20.3124 C   0  0  0  0  0  0  0  0  0  0  0  0
    6.7601  -12.6646   20.0529 C   0  0  0  0  0  0  0  0  0  0  0  0
    6.1855  -13.8041   20.5698 C   0  0  0  0  0  0  0  0  0  0  0  0
    6.9298  -14.7117   21.3325 C   0  0  0  0  0  0  0  0  0  0  0  0
   10.8829  -17.0866   22.3894 C   0  0  0  0  0  0  0  0  0  0  0  0
   10.6072  -18.1246   23.0435 O   0  0  0  0  0  0  0  0  0  0  0  0
   12.2172  -16.6075   22.4636 N   0  0  0  0  0  0  0  0  0  0  0  0
   13.2353  -17.4373   23.1508 C   0  0  1  0  0  0  0  0  0  0  0  0
   14.5340  -17.1283   22.4393 C   0  0  0  0  0  0  0  0  0  0  0  0
   15.7162  -17.7518   23.0127 C   0  0  0  0  0  0  0  0  0  0  0  0
   15.6672  -18.9097   23.4777 O   0  0  0  0  0  0  0  0  0  0  0  0
   13.3587  -17.0152   24.5606 C   0  0  0  0  0  0  0  0  0  0  0  0
   14.0851  -17.6533   25.3489 O   0  0  0  0  0  0  0  0  0  0  0  0
   16.9148  -17.0682   23.0508 O   0  0  0  0  0  0  0  0  0  0  0  0
   12.6701  -15.9125   25.0061 O   0  0  0  0  0  0  0  0  0  0  0  0
  2  1  1  0
  3  2  1  0
  3  5  1  0
  4  3  2  0
  6  5  1  0
  6 14  1  0
  6  7  1  1
  8  7  1  0
  8 13  2  0
  9  8  1  0
 10  9  2  0
 10 11  1  0
 11 12  2  0
 12 13  1  0
 14 16  1  0
 15 14  2  0
 16 17  1  0
 17 18  1  6
 17 21  1  0
 19 18  1  0
 20 19  2  0
 21 24  1  0
 22 21  2  0
 23 19  1  0
M  END
$$$$
