GFD.pdb
     RDKit          3D

 24 24  0  0  1  0  0  0  0  0999 V2000
    6.2745  -14.8944   20.0980 N   0  0  0  0  0  0  0  0  0  0  0  0
    6.0493  -15.4634   21.4112 C   0  0  0  0  0  0  0  0  0  0  0  0
    7.1718  -15.1298   22.3325 C   0  0  0  0  0  0  0  0  0  0  0  0
    8.1945  -14.5149   21.9585 O   0  0  0  0  0  0  0  0  0  0  0  0
    7.0662  -15.5287   23.6794 N   0  0  0  0  0  0  0  0  0  0  0  0
    8.1027  -15.3016   24.6465 C   0  0  1  0  0  0  0  0  0  0  0  0
    7.5974  -15.0178   26.0128 C   0  0  0  0  0  0  0  0  0  0  0  0
    7.0839  -13.6206   26.1558 C   0  0  0  0  0  0  0  0  0  0  0  0
    7.9721  -12.5685   26.1500 C   0  0  0  0  0  0  0  0  0  0  0  0
    7.5408  -11.2534   26.2785 C   0  0  0  0  0  0  0  0  0  0  0  0
    6.2031  -10.9544   26.4168 C   0  0  0  0  0  0  0  0  0  0  0  0
    5.3106  -12.0028   26.4235 C   0  0  0  0  0  0  0  0  0  0  0  0
    5.7444  -13.3275   26.2941 C   0  0  0  0  0  0  0  0  0  0  0  0
    9.1226  -16.3767   24.6924 C   0  0  0  0  0  0  0  0  0  0  0  0
    8.8724  -17.6036   24.8086 O   0  0  0  0  0  0  0  0  0  0  0  0
   10.4878  -15.9987   24.5968 N   0  0  0  0  0  0  0  0  0  0  0  0
   11.5173  -17.0616   24.5101 C   0  0  1  0  0  0  0  0  0  0  0  0
   12.7708  -16.3524   24.0473 C   0  0  0  0  0  0  0  0  0  0  0  0
   13.9199  -17.2141   23.8195 C   0  0  0  0  0  0  0  0  0  0  0  0
   15.0614  -16.7314   23.6656 O   0  0  0  0  0  0  0  0  0  0  0  0
   11.7656  -17.6304   25.8501 C   0  0  0  0  0  0  0  0  0  0  0  0
   11.4030  -17.0158   26.8735 O   0  0  0  0  0  0  0  0  0  0  0  0
   13.7635  -18.5847   23.7701 O   0  0  0  0  0  0  0  0  0  0  0  0
   12.3988  -18.8442   25.9702 O   0  0  0  0  0  0  0  0  0  0  0  0
  2  1  1  0
  3  2  1  0
  3  5  1  0
  4  3  2  0
  6  5  1  0
  6 14  1  0
  6  7  1  1
  8  7  1  0
  8 13  2  0
  9  8  1  0
 10  9  2  0
 10 11  1  0
 11 12  2  0
 12 13  1  0
 14 16  1  0
 15 14  2  0
 16 17  1  0
 17 18  1  1
 17 21  1  0
 19 18  1  0
 20 19  2  0
 21 24  1  0
 22 21  2  0
 23 19  1  0
M  END
$$$$
