GFD.pdb
     RDKit          3D

 24 24  0  0  1  0  0  0  0  0999 V2000
    9.1433  -17.7444   20.0522 N   0  0  0  0  0  0  0  0  0  0  0  0
    8.2260  -17.8500   21.1686 C   0  0  0  0  0  0  0  0  0  0  0  0
    8.5709  -16.8654   22.2325 C   0  0  0  0  0  0  0  0  0  0  0  0
    9.6440  -16.2233   22.2383 O   0  0  0  0  0  0  0  0  0  0  0  0
    7.6419  -16.6570   23.2707 N   0  0  0  0  0  0  0  0  0  0  0  0
    7.8717  -15.7446   24.3550 C   0  0  1  0  0  0  0  0  0  0  0  0
    6.6283  -15.2002   24.9554 C   0  0  0  0  0  0  0  0  0  0  0  0
    6.8929  -14.0657   25.8928 C   0  0  0  0  0  0  0  0  0  0  0  0
    6.8788  -12.7745   25.4149 C   0  0  0  0  0  0  0  0  0  0  0  0
    7.1177  -11.6887   26.2491 C   0  0  0  0  0  0  0  0  0  0  0  0
    7.3781  -11.8666   27.5902 C   0  0  0  0  0  0  0  0  0  0  0  0
    7.3936  -13.1558   28.0734 C   0  0  0  0  0  0  0  0  0  0  0  0
    7.1531  -14.2497   27.2337 C   0  0  0  0  0  0  0  0  0  0  0  0
    8.7555  -16.2869   25.4148 C   0  0  0  0  0  0  0  0  0  0  0  0
    8.5589  -17.3614   26.0378 O   0  0  0  0  0  0  0  0  0  0  0  0
    9.9147  -15.5414   25.7557 N   0  0  0  0  0  0  0  0  0  0  0  0
   10.9639  -16.1910   26.5769 C   0  0  1  0  0  0  0  0  0  0  0  0
   12.2634  -15.5781   26.1037 C   0  0  0  0  0  0  0  0  0  0  0  0
   13.0416  -16.4048   25.1948 C   0  0  0  0  0  0  0  0  0  0  0  0
   12.6815  -17.5688   24.9212 O   0  0  0  0  0  0  0  0  0  0  0  0
   10.7719  -15.8474   28.0002 C   0  0  0  0  0  0  0  0  0  0  0  0
   11.2088  -16.5988   28.8952 O   0  0  0  0  0  0  0  0  0  0  0  0
   14.1951  -15.9112   24.6192 O   0  0  0  0  0  0  0  0  0  0  0  0
   10.1091  -14.6926   28.3406 O   0  0  0  0  0  0  0  0  0  0  0  0
  2  1  1  0
  3  2  1  0
  3  5  1  0
  4  3  2  0
  6  5  1  0
  6 14  1  0
  6  7  1  1
  8  7  1  0
  8 13  2  0
  9  8  1  0
 10  9  2  0
 10 11  1  0
 11 12  2  0
 12 13  1  0
 14 16  1  0
 15 14  2  0
 16 17  1  0
 17 18  1  6
 17 21  1  0
 19 18  1  0
 20 19  2  0
 21 24  1  0
 22 21  2  0
 23 19  1  0
M  END
$$$$
