KAF.pdb
     RDKit          3D

 26 26  0  0  1  0  0  0  0  0999 V2000
    6.6933  -18.6777   20.9668 N   0  0  0  0  0  0  0  0  0  0  0  0
    8.1063  -18.5464   20.5840 C   0  0  1  0  0  0  0  0  0  0  0  0
    8.1707  -18.8846   19.1148 C   0  0  0  0  0  0  0  0  0  0  0  0
    6.9696  -19.6624   18.7167 C   0  0  0  0  0  0  0  0  0  0  0  0
    7.1682  -21.1643   18.9166 C   0  0  0  0  0  0  0  0  0  0  0  0
    6.5145  -21.8383   17.7246 C   0  0  0  0  0  0  0  0  0  0  0  0
    6.5887  -23.2593   17.9056 N   0  0  0  0  0  0  0  0  0  0  0  0
    8.5559  -17.1492   20.7663 C   0  0  0  0  0  0  0  0  0  0  0  0
    9.6944  -16.7635   20.4198 O   0  0  0  0  0  0  0  0  0  0  0  0
    6.9079  -13.8439   21.4392 C   0  0  0  0  0  0  0  0  0  0  0  0
    8.1095  -14.7780   21.5261 C   0  0  2  0  0  0  0  0  0  0  0  0
    7.6853  -16.1590   21.3608 N   0  0  0  0  0  0  0  0  0  0  0  0
    8.7447  -14.6411   22.8577 C   0  0  0  0  0  0  0  0  0  0  0  0
    9.3345  -13.5828   23.2060 O   0  0  0  0  0  0  0  0  0  0  0  0
    8.7226  -15.6954   23.8122 N   0  0  0  0  0  0  0  0  0  0  0  0
    9.3292  -15.4988   25.1387 C   0  0  1  0  0  0  0  0  0  0  0  0
    8.1604  -15.3664   26.0931 C   0  0  0  0  0  0  0  0  0  0  0  0
    7.6517  -13.9996   26.2317 C   0  0  0  0  0  0  0  0  0  0  0  0
    6.3199  -13.7210   26.0373 C   0  0  0  0  0  0  0  0  0  0  0  0
    5.8207  -12.4314   26.1673 C   0  0  0  0  0  0  0  0  0  0  0  0
    6.6926  -11.4087   26.5008 C   0  0  0  0  0  0  0  0  0  0  0  0
    8.0212  -11.7032   26.6919 C   0  0  0  0  0  0  0  0  0  0  0  0
    8.5170  -12.9852   26.5626 C   0  0  0  0  0  0  0  0  0  0  0  0
   10.1928  -16.6568   25.4239 C   0  0  0  0  0  0  0  0  0  0  0  0
   10.0950  -17.6705   24.6861 O   0  0  0  0  0  0  0  0  0  0  0  0
   11.1144  -16.7044   26.4603 O   0  0  0  0  0  0  0  0  0  0  0  0
  2  3  1  0
  2  1  1  6
  4  3  1  0
  5  4  1  0
  6  5  1  0
  7  6  1  0
  8  9  2  0
  8  2  1  0
 11 10  1  1
 11 12  1  0
 12  8  1  0
 13 14  2  0
 13 11  1  0
 15 13  1  0
 16 17  1  1
 16 15  1  0
 18 17  1  0
 18 23  2  0
 19 18  1  0
 20 19  2  0
 20 21  1  0
 21 22  2  0
 22 23  1  0
 24 16  1  0
 25 24  2  0
 26 24  1  0
M  END
$$$$
