KAF.pdb
     RDKit          3D

 26 26  0  0  1  0  0  0  0  0999 V2000
    6.6798  -18.4303   18.9752 N   0  0  0  0  0  0  0  0  0  0  0  0
    6.2824  -17.5033   20.0443 C   0  0  1  0  0  0  0  0  0  0  0  0
    6.1208  -18.3467   21.2850 C   0  0  0  0  0  0  0  0  0  0  0  0
    5.0352  -19.3411   21.0888 C   0  0  0  0  0  0  0  0  0  0  0  0
    4.8521  -20.2376   22.3126 C   0  0  0  0  0  0  0  0  0  0  0  0
    3.6176  -21.0765   22.0398 C   0  0  0  0  0  0  0  0  0  0  0  0
    3.4090  -21.9581   23.1520 N   0  0  0  0  0  0  0  0  0  0  0  0
    7.3539  -16.5123   20.2839 C   0  0  0  0  0  0  0  0  0  0  0  0
    8.5665  -16.8173   20.2442 O   0  0  0  0  0  0  0  0  0  0  0  0
    7.4857  -12.7389   20.7881 C   0  0  0  0  0  0  0  0  0  0  0  0
    8.0839  -14.1411   20.7769 C   0  0  2  0  0  0  0  0  0  0  0  0
    7.0384  -15.1318   20.5779 N   0  0  0  0  0  0  0  0  0  0  0  0
    8.7381  -14.4081   22.0792 C   0  0  0  0  0  0  0  0  0  0  0  0
    9.8869  -13.9640   22.3483 O   0  0  0  0  0  0  0  0  0  0  0  0
    8.1052  -15.1787   23.0935 N   0  0  0  0  0  0  0  0  0  0  0  0
    8.8341  -15.5080   24.3290 C   0  0  1  0  0  0  0  0  0  0  0  0
    9.1707  -14.1720   24.9585 C   0  0  0  0  0  0  0  0  0  0  0  0
    8.0383  -13.5190   25.6201 C   0  0  0  0  0  0  0  0  0  0  0  0
    8.1356  -12.2226   26.0662 C   0  0  0  0  0  0  0  0  0  0  0  0
    7.0711  -11.5878   26.6929 C   0  0  0  0  0  0  0  0  0  0  0  0
    5.8877  -12.2853   26.8683 C   0  0  0  0  0  0  0  0  0  0  0  0
    5.8060  -13.5806   26.4169 C   0  0  0  0  0  0  0  0  0  0  0  0
    6.8644  -14.2112   25.7939 C   0  0  0  0  0  0  0  0  0  0  0  0
    7.9618  -16.3490   25.1655 C   0  0  0  0  0  0  0  0  0  0  0  0
    6.7665  -16.5090   24.8088 O   0  0  0  0  0  0  0  0  0  0  0  0
    8.3737  -16.9816   26.3299 O   0  0  0  0  0  0  0  0  0  0  0  0
  2  3  1  0
  2  1  1  6
  4  3  1  0
  5  4  1  0
  6  5  1  0
  7  6  1  0
  8  9  2  0
  8  2  1  0
 11 10  1  1
 11 12  1  0
 12  8  1  0
 13 14  2  0
 13 11  1  0
 15 13  1  0
 16 17  1  1
 16 15  1  0
 18 17  1  0
 18 23  2  0
 19 18  1  0
 20 19  2  0
 20 21  1  0
 21 22  2  0
 22 23  1  0
 24 16  1  0
 25 24  2  0
 26 24  1  0
M  END
$$$$
