KAF.pdb
     RDKit          3D

 26 26  0  0  1  0  0  0  0  0999 V2000
    6.0580  -18.2904   21.3079 N   0  0  0  0  0  0  0  0  0  0  0  0
    7.2863  -18.3605   20.5038 C   0  0  1  0  0  0  0  0  0  0  0  0
    6.8419  -18.6659   19.0945 C   0  0  0  0  0  0  0  0  0  0  0  0
    6.1083  -19.9569   19.0587 C   0  0  0  0  0  0  0  0  0  0  0  0
    5.7688  -20.3829   17.6311 C   0  0  0  0  0  0  0  0  0  0  0  0
    4.8780  -21.6049   17.7564 C   0  0  0  0  0  0  0  0  0  0  0  0
    4.5553  -22.0723   16.4392 N   0  0  0  0  0  0  0  0  0  0  0  0
    7.9736  -17.0508   20.5081 C   0  0  0  0  0  0  0  0  0  0  0  0
    9.0366  -16.8525   19.8792 O   0  0  0  0  0  0  0  0  0  0  0  0
    7.2081  -13.4993   21.1891 C   0  0  0  0  0  0  0  0  0  0  0  0
    8.1625  -14.6760   21.3587 C   0  0  2  0  0  0  0  0  0  0  0  0
    7.4367  -15.9313   21.2500 N   0  0  0  0  0  0  0  0  0  0  0  0
    8.7884  -14.6134   22.7002 C   0  0  0  0  0  0  0  0  0  0  0  0
    9.5951  -13.6970   23.0141 O   0  0  0  0  0  0  0  0  0  0  0  0
    8.5123  -15.5830   23.7036 N   0  0  0  0  0  0  0  0  0  0  0  0
    9.1670  -15.4872   25.0183 C   0  0  1  0  0  0  0  0  0  0  0  0
    8.0341  -15.4485   26.0231 C   0  0  0  0  0  0  0  0  0  0  0  0
    7.4848  -14.1105   26.2557 C   0  0  0  0  0  0  0  0  0  0  0  0
    6.1553  -13.8459   26.0284 C   0  0  0  0  0  0  0  0  0  0  0  0
    5.6178  -12.5839   26.2463 C   0  0  0  0  0  0  0  0  0  0  0  0
    6.4484  -11.5746   26.7032 C   0  0  0  0  0  0  0  0  0  0  0  0
    7.7752  -11.8546   26.9257 C   0  0  0  0  0  0  0  0  0  0  0  0
    8.3091  -13.1093   26.7090 C   0  0  0  0  0  0  0  0  0  0  0  0
   10.0525  -16.6530   25.1754 C   0  0  0  0  0  0  0  0  0  0  0  0
    9.9991  -17.5641   24.3102 O   0  0  0  0  0  0  0  0  0  0  0  0
   10.9489  -16.8146   26.2223 O   0  0  0  0  0  0  0  0  0  0  0  0
  2  3  1  0
  2  1  1  1
  4  3  1  0
  5  4  1  0
  6  5  1  0
  7  6  1  0
  8  9  2  0
  8  2  1  0
 11 10  1  1
 11 12  1  0
 12  8  1  0
 13 14  2  0
 13 11  1  0
 15 13  1  0
 16 17  1  1
 16 15  1  0
 18 17  1  0
 18 23  2  0
 19 18  1  0
 20 19  2  0
 20 21  1  0
 21 22  2  0
 22 23  1  0
 24 16  1  0
 25 24  2  0
 26 24  1  0
M  END
$$$$
