KAF.pdb
     RDKit          3D

 26 26  0  0  1  0  0  0  0  0999 V2000
    6.9233  -18.4209   20.5609 N   0  0  0  0  0  0  0  0  0  0  0  0
    8.3457  -18.2110   20.2558 C   0  0  1  0  0  0  0  0  0  0  0  0
    8.4783  -18.3801   18.7622 C   0  0  0  0  0  0  0  0  0  0  0  0
    7.2156  -18.9185   18.1951 C   0  0  0  0  0  0  0  0  0  0  0  0
    7.3039  -19.1106   16.6818 C   0  0  0  0  0  0  0  0  0  0  0  0
    5.9710  -19.6947   16.2524 C   0  0  0  0  0  0  0  0  0  0  0  0
    5.9753  -19.8431   14.8257 N   0  0  0  0  0  0  0  0  0  0  0  0
    8.7450  -16.8320   20.6114 C   0  0  0  0  0  0  0  0  0  0  0  0
    9.9118  -16.4115   20.4478 O   0  0  0  0  0  0  0  0  0  0  0  0
    6.9287  -13.6288   21.4251 C   0  0  0  0  0  0  0  0  0  0  0  0
    8.1582  -14.5287   21.4770 C   0  0  2  0  0  0  0  0  0  0  0  0
    7.7894  -15.9014   21.1705 N   0  0  0  0  0  0  0  0  0  0  0  0
    8.7367  -14.4943   22.8407 C   0  0  0  0  0  0  0  0  0  0  0  0
    9.3198  -13.4702   23.2886 O   0  0  0  0  0  0  0  0  0  0  0  0
    8.6649  -15.6136   23.7153 N   0  0  0  0  0  0  0  0  0  0  0  0
    9.2413  -15.5285   25.0669 C   0  0  1  0  0  0  0  0  0  0  0  0
    8.0512  -15.4563   26.0013 C   0  0  0  0  0  0  0  0  0  0  0  0
    7.5856  -14.0945   26.2745 C   0  0  0  0  0  0  0  0  0  0  0  0
    8.4658  -13.1151   26.6685 C   0  0  0  0  0  0  0  0  0  0  0  0
    8.0416  -11.8186   26.9289 C   0  0  0  0  0  0  0  0  0  0  0  0
    6.6982  -11.5145   26.7857 C   0  0  0  0  0  0  0  0  0  0  0  0
    5.8306  -12.5043   26.3912 C   0  0  0  0  0  0  0  0  0  0  0  0
    6.2528  -13.7931   26.1323 C   0  0  0  0  0  0  0  0  0  0  0  0
   10.0855  -16.7158   25.2807 C   0  0  0  0  0  0  0  0  0  0  0  0
   10.6894  -16.8290   26.3780 O   0  0  0  0  0  0  0  0  0  0  0  0
   10.2605  -17.7257   24.3452 O   0  0  0  0  0  0  0  0  0  0  0  0
  2  3  1  0
  2  1  1  6
  4  3  1  0
  5  4  1  0
  6  5  1  0
  7  6  1  0
  8  9  2  0
  8  2  1  0
 11 10  1  1
 11 12  1  0
 12  8  1  0
 13 14  2  0
 13 11  1  0
 15 13  1  0
 16 17  1  1
 16 15  1  0
 18 17  1  0
 18 23  2  0
 19 18  1  0
 20 19  2  0
 20 21  1  0
 21 22  2  0
 22 23  1  0
 24 16  1  0
 25 24  2  0
 26 24  1  0
M  END
$$$$
