KAF.pdb
     RDKit          3D

 26 26  0  0  1  0  0  0  0  0999 V2000
    5.2787  -16.8593   20.9624 N   0  0  0  0  0  0  0  0  0  0  0  0
    6.6178  -16.6998   21.5468 C   0  0  1  0  0  0  0  0  0  0  0  0
    7.0530  -15.2951   21.2085 C   0  0  0  0  0  0  0  0  0  0  0  0
    7.6577  -15.2605   19.8523 C   0  0  0  0  0  0  0  0  0  0  0  0
    8.0343  -13.8412   19.4297 C   0  0  0  0  0  0  0  0  0  0  0  0
    8.4894  -13.9381   17.9854 C   0  0  0  0  0  0  0  0  0  0  0  0
    8.7512  -12.6144   17.4989 N   0  0  0  0  0  0  0  0  0  0  0  0
    6.5505  -16.8310   23.0185 C   0  0  0  0  0  0  0  0  0  0  0  0
    5.6070  -16.3560   23.6887 O   0  0  0  0  0  0  0  0  0  0  0  0
    7.6903  -19.1249   25.5944 C   0  0  0  0  0  0  0  0  0  0  0  0
    7.5290  -17.6616   25.1982 C   0  0  2  0  0  0  0  0  0  0  0  0
    7.5871  -17.5234   23.7519 N   0  0  0  0  0  0  0  0  0  0  0  0
    8.6320  -16.8671   25.7877 C   0  0  0  0  0  0  0  0  0  0  0  0
    9.7262  -16.7006   25.1841 O   0  0  0  0  0  0  0  0  0  0  0  0
    8.5147  -16.2509   27.0642 N   0  0  0  0  0  0  0  0  0  0  0  0
    9.5785  -15.3570   27.5496 C   0  0  1  0  0  0  0  0  0  0  0  0
    8.8599  -14.2647   28.3143 C   0  0  0  0  0  0  0  0  0  0  0  0
    7.9601  -13.4508   27.4933 C   0  0  0  0  0  0  0  0  0  0  0  0
    8.2118  -13.2537   26.1565 C   0  0  0  0  0  0  0  0  0  0  0  0
    7.3677  -12.4873   25.3633 C   0  0  0  0  0  0  0  0  0  0  0  0
    6.2486  -11.9120   25.9414 C   0  0  0  0  0  0  0  0  0  0  0  0
    6.0106  -12.1183   27.2790 C   0  0  0  0  0  0  0  0  0  0  0  0
    6.8499  -12.8802   28.0672 C   0  0  0  0  0  0  0  0  0  0  0  0
   10.4988  -16.1496   28.3820 C   0  0  0  0  0  0  0  0  0  0  0  0
   11.5121  -15.5790   28.8608 O   0  0  0  0  0  0  0  0  0  0  0  0
   10.3214  -17.4942   28.6755 O   0  0  0  0  0  0  0  0  0  0  0  0
  2  3  1  0
  2  1  1  6
  4  3  1  0
  5  4  1  0
  6  5  1  0
  7  6  1  0
  8  9  2  0
  8  2  1  0
 11 10  1  6
 11 12  1  0
 12  8  1  0
 13 14  2  0
 13 11  1  0
 15 13  1  0
 16 17  1  1
 16 15  1  0
 18 17  1  0
 18 23  2  0
 19 18  1  0
 20 19  2  0
 20 21  1  0
 21 22  2  0
 22 23  1  0
 24 16  1  0
 25 24  2  0
 26 24  1  0
M  END
$$$$
