KAF.pdb
     RDKit          3D

 26 26  0  0  1  0  0  0  0  0999 V2000
    6.9988  -18.8548   19.7213 N   0  0  0  0  0  0  0  0  0  0  0  0
    6.4405  -17.8232   20.6069 C   0  0  1  0  0  0  0  0  0  0  0  0
    6.1098  -18.5238   21.9019 C   0  0  0  0  0  0  0  0  0  0  0  0
    6.4225  -19.9716   21.7936 C   0  0  0  0  0  0  0  0  0  0  0  0
    5.9665  -20.7495   23.0272 C   0  0  0  0  0  0  0  0  0  0  0  0
    6.4044  -22.1854   22.8059 C   0  0  0  0  0  0  0  0  0  0  0  0
    6.0962  -22.9439   23.9837 N   0  0  0  0  0  0  0  0  0  0  0  0
    7.4550  -16.7822   20.8797 C   0  0  0  0  0  0  0  0  0  0  0  0
    8.6824  -17.0047   20.7843 O   0  0  0  0  0  0  0  0  0  0  0  0
    7.3324  -13.0180   21.2665 C   0  0  0  0  0  0  0  0  0  0  0  0
    8.0342  -14.3679   21.3641 C   0  0  2  0  0  0  0  0  0  0  0  0
    7.0635  -15.4466   21.2732 N   0  0  0  0  0  0  0  0  0  0  0  0
    8.7252  -14.4707   22.6707 C   0  0  0  0  0  0  0  0  0  0  0  0
    9.7159  -13.7453   22.9565 O   0  0  0  0  0  0  0  0  0  0  0  0
    8.3076  -15.3922   23.6705 N   0  0  0  0  0  0  0  0  0  0  0  0
    8.9585  -15.3894   24.9906 C   0  0  1  0  0  0  0  0  0  0  0  0
    7.8305  -15.2253   25.9882 C   0  0  0  0  0  0  0  0  0  0  0  0
    7.3595  -13.8463   26.1387 C   0  0  0  0  0  0  0  0  0  0  0  0
    6.0595  -13.5103   25.8451 C   0  0  0  0  0  0  0  0  0  0  0  0
    5.5960  -12.2085   25.9848 C   0  0  0  0  0  0  0  0  0  0  0  0
    6.4714  -11.2327   26.4310 C   0  0  0  0  0  0  0  0  0  0  0  0
    7.7678  -11.5843   26.7205 C   0  0  0  0  0  0  0  0  0  0  0  0
    8.2282  -12.8784   26.5816 C   0  0  0  0  0  0  0  0  0  0  0  0
    9.6964  -16.6548   25.1404 C   0  0  0  0  0  0  0  0  0  0  0  0
    9.5785  -17.5247   24.2399 O   0  0  0  0  0  0  0  0  0  0  0  0
   10.5193  -16.9537   26.2170 O   0  0  0  0  0  0  0  0  0  0  0  0
  2  3  1  0
  2  1  1  6
  4  3  1  0
  5  4  1  0
  6  5  1  0
  7  6  1  0
  8  9  2  0
  8  2  1  0
 11 10  1  1
 11 12  1  0
 12  8  1  0
 13 14  2  0
 13 11  1  0
 15 13  1  0
 16 17  1  1
 16 15  1  0
 18 17  1  0
 18 23  2  0
 19 18  1  0
 20 19  2  0
 20 21  1  0
 21 22  2  0
 22 23  1  0
 24 16  1  0
 25 24  2  0
 26 24  1  0
M  END
$$$$
