KAF.pdb
     RDKit          3D

 26 26  0  0  1  0  0  0  0  0999 V2000
    6.6867  -18.1651   20.4107 N   0  0  0  0  0  0  0  0  0  0  0  0
    8.1396  -18.1299   20.1917 C   0  0  1  0  0  0  0  0  0  0  0  0
    8.3392  -18.3105   18.7069 C   0  0  0  0  0  0  0  0  0  0  0  0
    7.4035  -19.3403   18.1873 C   0  0  0  0  0  0  0  0  0  0  0  0
    7.5784  -19.5674   16.6864 C   0  0  0  0  0  0  0  0  0  0  0  0
    6.6219  -20.6851   16.3149 C   0  0  0  0  0  0  0  0  0  0  0  0
    6.4620  -20.6950   14.8894 N   0  0  0  0  0  0  0  0  0  0  0  0
    8.6823  -16.8110   20.5834 C   0  0  0  0  0  0  0  0  0  0  0  0
    9.8976  -16.5320   20.4819 O   0  0  0  0  0  0  0  0  0  0  0  0
    7.2368  -13.4143   21.3383 C   0  0  0  0  0  0  0  0  0  0  0  0
    8.3346  -14.4648   21.4627 C   0  0  2  0  0  0  0  0  0  0  0  0
    7.8177  -15.7764   21.1068 N   0  0  0  0  0  0  0  0  0  0  0  0
    8.8112  -14.5157   22.8647 C   0  0  0  0  0  0  0  0  0  0  0  0
    9.4623  -13.5667   23.3793 O   0  0  0  0  0  0  0  0  0  0  0  0
    8.5596  -15.6368   23.7031 N   0  0  0  0  0  0  0  0  0  0  0  0
    9.0793  -15.6563   25.0800 C   0  0  1  0  0  0  0  0  0  0  0  0
    7.8612  -15.4934   25.9656 C   0  0  0  0  0  0  0  0  0  0  0  0
    7.5931  -14.1104   26.3675 C   0  0  0  0  0  0  0  0  0  0  0  0
    6.3051  -13.6690   26.5559 C   0  0  0  0  0  0  0  0  0  0  0  0
    6.0335  -12.3620   26.9394 C   0  0  0  0  0  0  0  0  0  0  0  0
    7.0915  -11.4901   27.1343 C   0  0  0  0  0  0  0  0  0  0  0  0
    8.3733  -11.9463   26.9420 C   0  0  0  0  0  0  0  0  0  0  0  0
    8.6429  -13.2456   26.5608 C   0  0  0  0  0  0  0  0  0  0  0  0
    9.7884  -16.9304   25.2842 C   0  0  0  0  0  0  0  0  0  0  0  0
    9.6682  -17.8271   24.4107 O   0  0  0  0  0  0  0  0  0  0  0  0
   10.5865  -17.2099   26.3845 O   0  0  0  0  0  0  0  0  0  0  0  0
  2  3  1  0
  2  1  1  6
  4  3  1  0
  5  4  1  0
  6  5  1  0
  7  6  1  0
  8  9  2  0
  8  2  1  0
 11 10  1  1
 11 12  1  0
 12  8  1  0
 13 14  2  0
 13 11  1  0
 15 13  1  0
 16 17  1  1
 16 15  1  0
 18 17  1  0
 18 23  2  0
 19 18  1  0
 20 19  2  0
 20 21  1  0
 21 22  2  0
 22 23  1  0
 24 16  1  0
 25 24  2  0
 26 24  1  0
M  END
$$$$
