KAF.pdb
     RDKit          3D

 26 26  0  0  1  0  0  0  0  0999 V2000
    7.8740  -18.9316   19.3673 N   0  0  0  0  0  0  0  0  0  0  0  0
    7.3711  -18.2670   20.5779 C   0  0  1  0  0  0  0  0  0  0  0  0
    7.6739  -19.2040   21.7212 C   0  0  0  0  0  0  0  0  0  0  0  0
    6.8435  -20.4304   21.6101 C   0  0  0  0  0  0  0  0  0  0  0  0
    7.1142  -21.4103   22.7508 C   0  0  0  0  0  0  0  0  0  0  0  0
    6.1762  -22.5826   22.5312 C   0  0  0  0  0  0  0  0  0  0  0  0
    5.1670  -22.5575   23.5501 N   0  0  0  0  0  0  0  0  0  0  0  0
    8.0982  -16.9988   20.8024 C   0  0  0  0  0  0  0  0  0  0  0  0
    9.3389  -16.9080   20.6700 O   0  0  0  0  0  0  0  0  0  0  0  0
    7.1361  -13.3684   21.2913 C   0  0  0  0  0  0  0  0  0  0  0  0
    8.0992  -14.5439   21.4126 C   0  0  2  0  0  0  0  0  0  0  0  0
    7.3944  -15.7959   21.1892 N   0  0  0  0  0  0  0  0  0  0  0  0
    8.6756  -14.5698   22.7773 C   0  0  0  0  0  0  0  0  0  0  0  0
    9.4757  -13.6813   23.1768 O   0  0  0  0  0  0  0  0  0  0  0  0
    8.3569  -15.5974   23.7076 N   0  0  0  0  0  0  0  0  0  0  0  0
    8.9283  -15.5644   25.0636 C   0  0  1  0  0  0  0  0  0  0  0  0
    7.7407  -15.4034   25.9901 C   0  0  0  0  0  0  0  0  0  0  0  0
    7.3710  -14.0106   26.2540 C   0  0  0  0  0  0  0  0  0  0  0  0
    6.0545  -13.6162   26.2363 C   0  0  0  0  0  0  0  0  0  0  0  0
    5.6865  -12.3006   26.4869 C   0  0  0  0  0  0  0  0  0  0  0  0
    6.6761  -11.3713   26.7602 C   0  0  0  0  0  0  0  0  0  0  0  0
    7.9877  -11.7810   26.7743 C   0  0  0  0  0  0  0  0  0  0  0  0
    8.3531  -13.0889   26.5252 C   0  0  0  0  0  0  0  0  0  0  0  0
    9.6750  -16.8154   25.2770 C   0  0  0  0  0  0  0  0  0  0  0  0
   10.2629  -16.9795   26.3765 O   0  0  0  0  0  0  0  0  0  0  0  0
    9.7739  -17.8330   24.3387 O   0  0  0  0  0  0  0  0  0  0  0  0
  2  3  1  0
  2  1  1  6
  4  3  1  0
  5  4  1  0
  6  5  1  0
  7  6  1  0
  8  9  2  0
  8  2  1  0
 11 10  1  1
 11 12  1  0
 12  8  1  0
 13 14  2  0
 13 11  1  0
 15 13  1  0
 16 17  1  1
 16 15  1  0
 18 17  1  0
 18 23  2  0
 19 18  1  0
 20 19  2  0
 20 21  1  0
 21 22  2  0
 22 23  1  0
 24 16  1  0
 25 24  2  0
 26 24  1  0
M  END
$$$$
