HEI.pdb
     RDKit          3D

 28 28  0  0  1  0  0  0  0  0999 V2000
   22.3821  -21.2571  -15.6749 N   0  0  0  0  0  0  0  0  0  0  0  0
   22.9013  -20.0996  -14.9758 C   0  0  1  0  0  0  0  0  0  0  0  0
   21.8044  -19.4249  -14.2176 C   0  0  0  0  0  0  0  0  0  0  0  0
   20.9587  -18.6828  -15.2233 C   0  0  0  0  0  0  0  0  0  0  0  0
   19.7679  -19.1142  -15.7716 C   0  0  0  0  0  0  0  0  0  0  0  0
   19.3001  -18.1946  -16.6268 N   0  0  0  0  0  0  0  0  0  0  0  0
   20.1946  -17.1904  -16.6145 C   0  0  0  0  0  0  0  0  0  0  0  0
   21.1992  -17.4797  -15.7683 N   0  0  0  0  0  0  0  0  0  0  0  0
   24.0906  -20.4319  -14.2140 C   0  0  0  0  0  0  0  0  0  0  0  0
   23.9940  -21.2998  -13.2985 O   0  0  0  0  0  0  0  0  0  0  0  0
   25.3796  -19.8636  -14.4027 N   0  0  0  0  0  0  0  0  0  0  0  0
   26.4910  -20.2428  -13.5670 C   0  0  1  0  0  0  0  0  0  0  0  0
   27.8152  -19.9504  -14.1544 C   0  0  0  0  0  0  0  0  0  0  0  0
   28.1504  -20.4870  -15.4861 C   0  0  0  0  0  0  0  0  0  0  0  0
   28.2807  -21.9225  -15.6523 C   0  0  0  0  0  0  0  0  0  0  0  0
   29.1762  -22.5391  -14.9779 O   0  0  0  0  0  0  0  0  0  0  0  0
   26.3372  -19.6961  -12.1781 C   0  0  0  0  0  0  0  0  0  0  0  0
   26.0083  -18.5116  -11.9644 O   0  0  0  0  0  0  0  0  0  0  0  0
   27.5007  -22.6959  -16.4968 O   0  0  0  0  0  0  0  0  0  0  0  0
   23.1238  -20.8834   -8.6485 C   0  0  0  0  0  0  0  0  0  0  0  0
   24.2559  -20.3461   -9.4719 C   0  0  0  0  0  0  0  0  0  0  0  0
   25.6164  -20.7398   -8.9335 C   0  0  2  0  0  0  0  0  0  0  0  0
   25.6336  -20.4377   -7.4682 C   0  0  0  0  0  0  0  0  0  0  0  0
   26.7065  -20.1111   -9.7179 C   0  0  2  0  0  0  0  0  0  0  0  0
   26.5741  -20.5578  -11.1024 N   0  0  0  0  0  0  0  0  0  0  0  0
   28.0588  -20.3598   -9.1922 C   0  0  0  0  0  0  0  0  0  0  0  0
   28.6683  -19.6360   -8.2075 O   0  0  0  0  0  0  0  0  0  0  0  0
   28.7119  -21.3260   -9.6950 O   0  0  0  0  0  0  0  0  0  0  0  0
  2  9  1  0
  2  1  1  1
  3  2  1  0
  4  3  1  0
  4  5  2  0
  6  5  1  0
  7  8  2  0
  7  6  1  0
  8  4  1  0
  9 11  1  0
 10  9  2  0
 11 12  1  0
 12 13  1  6
 13 14  1  0
 14 15  1  0
 15 19  1  0
 16 15  2  0
 17 12  1  0
 18 17  2  0
 21 20  1  0
 21 22  1  0
 22 24  1  0
 22 23  1  1
 24 25  1  6
 24 26  1  0
 25 17  1  0
 26 27  1  0
 28 26  2  0
M  END
$$$$
