HEI.pdb
     RDKit          3D

 28 28  0  0  1  0  0  0  0  0999 V2000
   18.7300  -12.5717  -18.3933 N   0  0  0  0  0  0  0  0  0  0  0  0
   19.3776  -12.1510  -17.1678 C   0  0  1  0  0  0  0  0  0  0  0  0
   20.7048  -12.8245  -17.0327 C   0  0  0  0  0  0  0  0  0  0  0  0
   20.4445  -14.3084  -16.9464 C   0  0  0  0  0  0  0  0  0  0  0  0
   19.8535  -14.9781  -15.8942 C   0  0  0  0  0  0  0  0  0  0  0  0
   19.7867  -16.2883  -16.1675 N   0  0  0  0  0  0  0  0  0  0  0  0
   20.3340  -16.4393  -17.3867 C   0  0  0  0  0  0  0  0  0  0  0  0
   20.7334  -15.2464  -17.8624 N   0  0  0  0  0  0  0  0  0  0  0  0
   19.3816  -10.7055  -17.0415 C   0  0  0  0  0  0  0  0  0  0  0  0
   19.8134  -10.0194  -18.0129 O   0  0  0  0  0  0  0  0  0  0  0  0
   18.9373   -9.9728  -15.9076 N   0  0  0  0  0  0  0  0  0  0  0  0
   18.8861   -8.5325  -15.9240 C   0  0  1  0  0  0  0  0  0  0  0  0
   17.5730   -7.9708  -15.5446 C   0  0  0  0  0  0  0  0  0  0  0  0
   17.3921   -6.5077  -15.5188 C   0  0  0  0  0  0  0  0  0  0  0  0
   16.0994   -5.9665  -15.1432 C   0  0  0  0  0  0  0  0  0  0  0  0
   15.1169   -6.1095  -15.9501 O   0  0  0  0  0  0  0  0  0  0  0  0
   20.0206   -7.9401  -15.1408 C   0  0  0  0  0  0  0  0  0  0  0  0
   20.4304   -8.4501  -14.0783 O   0  0  0  0  0  0  0  0  0  0  0  0
   15.8356   -5.2949  -13.9604 O   0  0  0  0  0  0  0  0  0  0  0  0
   24.3905   -7.4045  -17.4448 C   0  0  0  0  0  0  0  0  0  0  0  0
   23.3192   -7.4315  -16.3960 C   0  0  0  0  0  0  0  0  0  0  0  0
   22.8598   -6.0474  -15.9853 C   0  0  2  0  0  0  0  0  0  0  0  0
   24.0643   -5.2783  -15.5419 C   0  0  0  0  0  0  0  0  0  0  0  0
   21.7595   -6.1192  -14.9937 C   0  0  2  0  0  0  0  0  0  0  0  0
   20.6248   -6.7794  -15.6343 N   0  0  0  0  0  0  0  0  0  0  0  0
   21.3775   -4.8226  -14.4107 C   0  0  0  0  0  0  0  0  0  0  0  0
   20.3622   -4.0253  -14.8562 O   0  0  0  0  0  0  0  0  0  0  0  0
   22.0463   -4.4118  -13.4124 O   0  0  0  0  0  0  0  0  0  0  0  0
  2  9  1  0
  2  1  1  6
  3  2  1  0
  4  3  1  0
  4  5  2  0
  6  5  1  0
  7  8  2  0
  7  6  1  0
  8  4  1  0
  9 11  1  0
 10  9  2  0
 11 12  1  0
 12 13  1  1
 13 14  1  0
 14 15  1  0
 15 19  1  0
 16 15  2  0
 17 12  1  0
 18 17  2  0
 21 20  1  0
 21 22  1  0
 22 24  1  0
 22 23  1  1
 24 25  1  6
 24 26  1  0
 25 17  1  0
 26 27  1  0
 28 26  2  0
M  END
$$$$
