HEI.pdb
     RDKit          3D

 28 28  0  0  1  0  0  0  0  0999 V2000
   15.8087  -11.3908  -17.3360 N   0  0  0  0  0  0  0  0  0  0  0  0
   16.8332  -11.2322  -16.3243 C   0  0  1  0  0  0  0  0  0  0  0  0
   17.7444  -12.4166  -16.3282 C   0  0  0  0  0  0  0  0  0  0  0  0
   16.9224  -13.6125  -15.9143 C   0  0  0  0  0  0  0  0  0  0  0  0
   16.1341  -13.7156  -14.7860 C   0  0  0  0  0  0  0  0  0  0  0  0
   15.5518  -14.9219  -14.7453 N   0  0  0  0  0  0  0  0  0  0  0  0
   15.9737  -15.5726  -15.8442 C   0  0  0  0  0  0  0  0  0  0  0  0
   16.8022  -14.7864  -16.5544 N   0  0  0  0  0  0  0  0  0  0  0  0
   17.4755   -9.9347  -16.4215 C   0  0  0  0  0  0  0  0  0  0  0  0
   18.4350   -9.7994  -17.2349 O   0  0  0  0  0  0  0  0  0  0  0  0
   17.1215   -8.7783  -15.6748 N   0  0  0  0  0  0  0  0  0  0  0  0
   17.8403   -7.5393  -15.8342 C   0  0  1  0  0  0  0  0  0  0  0  0
   16.9722   -6.3515  -15.9744 C   0  0  0  0  0  0  0  0  0  0  0  0
   17.5864   -5.0259  -16.1726 C   0  0  0  0  0  0  0  0  0  0  0  0
   16.7259   -3.8633  -16.2866 C   0  0  0  0  0  0  0  0  0  0  0  0
   15.4631   -4.0196  -16.1527 O   0  0  0  0  0  0  0  0  0  0  0  0
   18.8827   -7.3753  -14.7674 C   0  0  0  0  0  0  0  0  0  0  0  0
   18.6768   -7.7077  -13.5825 O   0  0  0  0  0  0  0  0  0  0  0  0
   17.1665   -2.5731  -16.5331 O   0  0  0  0  0  0  0  0  0  0  0  0
   22.9838   -9.9663  -14.8384 C   0  0  0  0  0  0  0  0  0  0  0  0
   21.8745   -8.9999  -14.5488 C   0  0  0  0  0  0  0  0  0  0  0  0
   22.3213   -7.5533  -14.6068 C   0  0  2  0  0  0  0  0  0  0  0  0
   23.5795   -7.4306  -13.8065 C   0  0  0  0  0  0  0  0  0  0  0  0
   21.2275   -6.6371  -14.2032 C   0  0  2  0  0  0  0  0  0  0  0  0
   20.1179   -6.8309  -15.1333 N   0  0  0  0  0  0  0  0  0  0  0  0
   21.6199   -5.2213  -14.1106 C   0  0  0  0  0  0  0  0  0  0  0  0
   22.0957   -4.6060  -12.9881 O   0  0  0  0  0  0  0  0  0  0  0  0
   21.5068   -4.5145  -15.1596 O   0  0  0  0  0  0  0  0  0  0  0  0
  2  9  1  0
  2  1  1  6
  3  2  1  0
  4  3  1  0
  4  5  2  0
  6  5  1  0
  7  8  2  0
  7  6  1  0
  8  4  1  0
  9 11  1  0
 10  9  2  0
 11 12  1  0
 12 13  1  1
 13 14  1  0
 14 15  1  0
 15 19  1  0
 16 15  2  0
 17 12  1  0
 18 17  2  0
 21 20  1  0
 21 22  1  0
 22 24  1  0
 22 23  1  1
 24 25  1  6
 24 26  1  0
 25 17  1  0
 26 27  1  0
 28 26  2  0
M  END
$$$$
