HEI.pdb
     RDKit          3D

 28 28  0  0  1  0  0  0  0  0999 V2000
   27.1725  -22.4015  -16.7463 N   0  0  0  0  0  0  0  0  0  0  0  0
   28.0059  -21.7666  -15.7460 C   0  0  1  0  0  0  0  0  0  0  0  0
   29.0511  -20.9281  -16.4075 C   0  0  0  0  0  0  0  0  0  0  0  0
   29.8255  -21.8315  -17.3354 C   0  0  0  0  0  0  0  0  0  0  0  0
   30.4846  -22.9935  -16.9886 C   0  0  0  0  0  0  0  0  0  0  0  0
   31.0614  -23.5314  -18.0721 N   0  0  0  0  0  0  0  0  0  0  0  0
   30.7649  -22.7093  -19.0944 C   0  0  0  0  0  0  0  0  0  0  0  0
   30.0183  -21.6803  -18.6554 N   0  0  0  0  0  0  0  0  0  0  0  0
   27.2047  -21.1039  -14.7339 C   0  0  0  0  0  0  0  0  0  0  0  0
   27.3477  -19.8567  -14.5768 O   0  0  0  0  0  0  0  0  0  0  0  0
   26.2553  -21.7357  -13.8856 N   0  0  0  0  0  0  0  0  0  0  0  0
   25.4367  -20.9681  -12.9812 C   0  0  1  0  0  0  0  0  0  0  0  0
   24.0568  -20.7427  -13.4595 C   0  0  0  0  0  0  0  0  0  0  0  0
   23.0994  -20.0277  -12.5957 C   0  0  0  0  0  0  0  0  0  0  0  0
   21.6992  -19.9967  -12.9748 C   0  0  0  0  0  0  0  0  0  0  0  0
   21.3591  -20.4888  -14.1058 O   0  0  0  0  0  0  0  0  0  0  0  0
   25.4858  -21.5333  -11.5920 C   0  0  0  0  0  0  0  0  0  0  0  0
   25.4599  -22.7617  -11.3747 O   0  0  0  0  0  0  0  0  0  0  0  0
   20.6803  -19.4684  -12.1987 O   0  0  0  0  0  0  0  0  0  0  0  0
   28.5465  -19.1436   -7.9754 C   0  0  0  0  0  0  0  0  0  0  0  0
   27.7066  -20.1508   -8.7022 C   0  0  0  0  0  0  0  0  0  0  0  0
   26.2448  -20.0955   -8.3078 C   0  0  2  0  0  0  0  0  0  0  0  0
   26.1619  -20.3025   -6.8282 C   0  0  0  0  0  0  0  0  0  0  0  0
   25.4336  -21.0341   -9.1203 C   0  0  2  0  0  0  0  0  0  0  0  0
   25.5634  -20.6380  -10.5204 N   0  0  0  0  0  0  0  0  0  0  0  0
   24.0233  -21.1343   -8.7109 C   0  0  0  0  0  0  0  0  0  0  0  0
   23.5282  -22.0179   -7.7948 O   0  0  0  0  0  0  0  0  0  0  0  0
   23.1997  -20.3343   -9.2536 O   0  0  0  0  0  0  0  0  0  0  0  0
  2  9  1  0
  2  1  1  6
  3  2  1  0
  4  3  1  0
  4  5  2  0
  6  5  1  0
  7  8  2  0
  7  6  1  0
  8  4  1  0
  9 11  1  0
 10  9  2  0
 11 12  1  0
 12 13  1  6
 13 14  1  0
 14 15  1  0
 15 19  1  0
 16 15  2  0
 17 12  1  0
 18 17  2  0
 21 20  1  0
 21 22  1  0
 22 24  1  0
 22 23  1  1
 24 25  1  6
 24 26  1  0
 25 17  1  0
 26 27  1  0
 28 26  2  0
M  END
$$$$
