HEI.pdb
     RDKit          3D

 28 28  0  0  1  0  0  0  0  0999 V2000
   26.9789  -21.0138  -16.4482 N   0  0  0  0  0  0  0  0  0  0  0  0
   27.5985  -21.3353  -15.1790 C   0  0  1  0  0  0  0  0  0  0  0  0
   29.0785  -21.1493  -15.2700 C   0  0  0  0  0  0  0  0  0  0  0  0
   29.6254  -22.3109  -16.0630 C   0  0  0  0  0  0  0  0  0  0  0  0
   29.9612  -23.5555  -15.5701 C   0  0  0  0  0  0  0  0  0  0  0  0
   30.4132  -24.3328  -16.5637 N   0  0  0  0  0  0  0  0  0  0  0  0
   30.3608  -23.5779  -17.6757 C   0  0  0  0  0  0  0  0  0  0  0  0
   29.8857  -22.3551  -17.3793 N   0  0  0  0  0  0  0  0  0  0  0  0
   26.9379  -20.6546  -14.0810 C   0  0  0  0  0  0  0  0  0  0  0  0
   27.3249  -19.4889  -13.7776 O   0  0  0  0  0  0  0  0  0  0  0  0
   25.8758  -21.1837  -13.2986 N   0  0  0  0  0  0  0  0  0  0  0  0
   25.2923  -20.4232  -12.2223 C   0  0  1  0  0  0  0  0  0  0  0  0
   23.8803  -20.0477  -12.4447 C   0  0  0  0  0  0  0  0  0  0  0  0
   23.4433  -19.6423  -13.7933 C   0  0  0  0  0  0  0  0  0  0  0  0
   22.3545  -20.3639  -14.4250 C   0  0  0  0  0  0  0  0  0  0  0  0
   22.5352  -20.8428  -15.5976 O   0  0  0  0  0  0  0  0  0  0  0  0
   25.5138  -21.0963  -10.8997 C   0  0  0  0  0  0  0  0  0  0  0  0
   25.5837  -22.3373  -10.7907 O   0  0  0  0  0  0  0  0  0  0  0  0
   21.1116  -20.5816  -13.8528 O   0  0  0  0  0  0  0  0  0  0  0  0
   28.8055  -18.8650   -7.4251 C   0  0  0  0  0  0  0  0  0  0  0  0
   27.9311  -19.8422   -8.1521 C   0  0  0  0  0  0  0  0  0  0  0  0
   26.5258  -19.9093   -7.5896 C   0  0  2  0  0  0  0  0  0  0  0  0
   26.6296  -20.2674   -6.1405 C   0  0  0  0  0  0  0  0  0  0  0  0
   25.6659  -20.8064   -8.3989 C   0  0  2  0  0  0  0  0  0  0  0  0
   25.6439  -20.2893   -9.7649 N   0  0  0  0  0  0  0  0  0  0  0  0
   24.3069  -20.9942   -7.8654 C   0  0  0  0  0  0  0  0  0  0  0  0
   23.9386  -21.9504   -6.9626 O   0  0  0  0  0  0  0  0  0  0  0  0
   23.4033  -20.2029   -8.2781 O   0  0  0  0  0  0  0  0  0  0  0  0
  2  9  1  0
  2  1  1  6
  3  2  1  0
  4  3  1  0
  4  5  2  0
  6  5  1  0
  7  8  2  0
  7  6  1  0
  8  4  1  0
  9 11  1  0
 10  9  2  0
 11 12  1  0
 12 13  1  6
 13 14  1  0
 14 15  1  0
 15 19  1  0
 16 15  2  0
 17 12  1  0
 18 17  2  0
 21 20  1  0
 21 22  1  0
 22 24  1  0
 22 23  1  1
 24 25  1  6
 24 26  1  0
 25 17  1  0
 26 27  1  0
 28 26  2  0
M  END
$$$$
