HEI.pdb
     RDKit          3D

 28 28  0  0  1  0  0  0  0  0999 V2000
   27.4058  -16.5728  -17.8139 N   0  0  0  0  0  0  0  0  0  0  0  0
   26.8601  -16.3736  -16.4869 C   0  0  1  0  0  0  0  0  0  0  0  0
   25.9617  -15.1795  -16.4768 C   0  0  0  0  0  0  0  0  0  0  0  0
   26.8360  -13.9626  -16.6550 C   0  0  0  0  0  0  0  0  0  0  0  0
   27.5263  -13.2956  -15.6632 C   0  0  0  0  0  0  0  0  0  0  0  0
   28.1967  -12.2619  -16.1903 N   0  0  0  0  0  0  0  0  0  0  0  0
   27.9275  -12.2809  -17.5080 C   0  0  0  0  0  0  0  0  0  0  0  0
   27.1058  -13.3063  -17.7947 N   0  0  0  0  0  0  0  0  0  0  0  0
   26.2939  -17.6006  -15.9587 C   0  0  0  0  0  0  0  0  0  0  0  0
   25.5581  -18.2971  -16.7165 O   0  0  0  0  0  0  0  0  0  0  0  0
   26.4917  -18.1045  -14.6445 N   0  0  0  0  0  0  0  0  0  0  0  0
   25.7160  -19.2123  -14.1464 C   0  0  1  0  0  0  0  0  0  0  0  0
   26.3037  -19.8782  -12.9652 C   0  0  0  0  0  0  0  0  0  0  0  0
   25.6083  -21.0308  -12.3637 C   0  0  0  0  0  0  0  0  0  0  0  0
   26.1945  -21.6780  -11.2050 C   0  0  0  0  0  0  0  0  0  0  0  0
   27.2765  -21.1999  -10.7175 O   0  0  0  0  0  0  0  0  0  0  0  0
   24.2819  -18.8216  -13.9403 C   0  0  0  0  0  0  0  0  0  0  0  0
   23.9591  -17.7364  -13.4159 O   0  0  0  0  0  0  0  0  0  0  0  0
   25.6697  -22.7922  -10.5704 O   0  0  0  0  0  0  0  0  0  0  0  0
   19.4182  -18.0438  -16.8236 C   0  0  0  0  0  0  0  0  0  0  0  0
   19.9149  -18.6117  -15.5279 C   0  0  0  0  0  0  0  0  0  0  0  0
   21.3791  -18.9983  -15.5753 C   0  0  2  0  0  0  0  0  0  0  0  0
   21.5554  -19.9884  -16.6832 C   0  0  0  0  0  0  0  0  0  0  0  0
   21.8585  -19.4496  -14.2465 C   0  0  2  0  0  0  0  0  0  0  0  0
   23.2905  -19.7160  -14.3564 N   0  0  0  0  0  0  0  0  0  0  0  0
   21.1303  -20.6037  -13.6944 C   0  0  0  0  0  0  0  0  0  0  0  0
   20.0373  -20.5307  -12.8790 O   0  0  0  0  0  0  0  0  0  0  0  0
   21.5528  -21.7614  -14.0012 O   0  0  0  0  0  0  0  0  0  0  0  0
  2  9  1  0
  2  1  1  6
  3  2  1  0
  4  3  1  0
  4  5  2  0
  6  5  1  0
  7  8  2  0
  7  6  1  0
  8  4  1  0
  9 11  1  0
 10  9  2  0
 11 12  1  0
 12 13  1  1
 13 14  1  0
 14 15  1  0
 15 19  1  0
 16 15  2  0
 17 12  1  0
 18 17  2  0
 21 20  1  0
 21 22  1  0
 22 24  1  0
 22 23  1  6
 24 25  1  6
 24 26  1  0
 25 17  1  0
 26 27  1  0
 28 26  2  0
M  END
$$$$
