HEI.pdb
     RDKit          3D

 28 28  0  0  1  0  0  0  0  0999 V2000
   19.5362  -15.0168  -19.6863 N   0  0  0  0  0  0  0  0  0  0  0  0
   19.1048  -14.4562  -18.4222 C   0  0  1  0  0  0  0  0  0  0  0  0
   19.5371  -15.3390  -17.2966 C   0  0  0  0  0  0  0  0  0  0  0  0
   18.7349  -16.6132  -17.3964 C   0  0  0  0  0  0  0  0  0  0  0  0
   19.1280  -17.7843  -18.0121 C   0  0  0  0  0  0  0  0  0  0  0  0
   18.1595  -18.7040  -17.9032 N   0  0  0  0  0  0  0  0  0  0  0  0
   17.1629  -18.1115  -17.2217 C   0  0  0  0  0  0  0  0  0  0  0  0
   17.5048  -16.8479  -16.9128 N   0  0  0  0  0  0  0  0  0  0  0  0
   19.4731  -13.0571  -18.3115 C   0  0  0  0  0  0  0  0  0  0  0  0
   20.6973  -12.7500  -18.3990 O   0  0  0  0  0  0  0  0  0  0  0  0
   18.5709  -11.9775  -18.1102 N   0  0  0  0  0  0  0  0  0  0  0  0
   19.0495  -10.6307  -17.9254 C   0  0  1  0  0  0  0  0  0  0  0  0
   18.0981   -9.5869  -18.3604 C   0  0  0  0  0  0  0  0  0  0  0  0
   18.4627   -8.1665  -18.2072 C   0  0  0  0  0  0  0  0  0  0  0  0
   17.8610   -7.3990  -17.1329 C   0  0  0  0  0  0  0  0  0  0  0  0
   16.5871   -7.4049  -17.0141 O   0  0  0  0  0  0  0  0  0  0  0  0
   19.5460  -10.4183  -16.5254 C   0  0  0  0  0  0  0  0  0  0  0  0
   18.9917  -10.9434  -15.5385 O   0  0  0  0  0  0  0  0  0  0  0  0
   18.5650   -6.6458  -16.2073 O   0  0  0  0  0  0  0  0  0  0  0  0
   23.8288  -12.0435  -14.9375 C   0  0  0  0  0  0  0  0  0  0  0  0
   22.4866  -11.3825  -15.0371 C   0  0  0  0  0  0  0  0  0  0  0  0
   22.5625   -9.8729  -14.9316 C   0  0  2  0  0  0  0  0  0  0  0  0
   23.3200   -9.5389  -13.6852 C   0  0  0  0  0  0  0  0  0  0  0  0
   21.2163   -9.2594  -15.0327 C   0  0  2  0  0  0  0  0  0  0  0  0
   20.6673   -9.6028  -16.3420 N   0  0  0  0  0  0  0  0  0  0  0  0
   21.1877   -7.8072  -14.7937 C   0  0  0  0  0  0  0  0  0  0  0  0
   20.8757   -7.2086  -13.6065 O   0  0  0  0  0  0  0  0  0  0  0  0
   21.4765   -7.0491  -15.7708 O   0  0  0  0  0  0  0  0  0  0  0  0
  2  9  1  0
  2  1  1  6
  3  2  1  0
  4  3  1  0
  4  5  2  0
  6  5  1  0
  7  8  2  0
  7  6  1  0
  8  4  1  0
  9 11  1  0
 10  9  2  0
 11 12  1  0
 12 13  1  1
 13 14  1  0
 14 15  1  0
 15 19  1  0
 16 15  2  0
 17 12  1  0
 18 17  2  0
 21 20  1  0
 21 22  1  0
 22 24  1  0
 22 23  1  1
 24 25  1  6
 24 26  1  0
 25 17  1  0
 26 27  1  0
 28 26  2  0
M  END
$$$$
