CGV.pdb
     RDKit          3D

 18 17  0  0  1  0  0  0  0  0999 V2000
   17.2665  -15.2254  -18.5440 N   0  0  0  0  0  0  0  0  0  0  0  0
   17.4429  -14.6479  -17.1990 C   0  0  1  0  0  0  0  0  0  0  0  0
   18.0520  -15.8052  -16.3931 C   0  0  0  0  0  0  0  0  0  0  0  0
   16.7802  -16.8272  -15.6600 S   0  0  0  0  0  0  0  0  0  0  0  0
   18.4182  -13.5457  -17.3231 C   0  0  0  0  0  0  0  0  0  0  0  0
   19.5242  -13.7530  -17.8804 O   0  0  0  0  0  0  0  0  0  0  0  0
   18.1759  -12.2241  -16.8370 N   0  0  0  0  0  0  0  0  0  0  0  0
   19.1287  -11.1996  -17.1029 C   0  0  0  0  0  0  0  0  0  0  0  0
   19.7308  -10.5661  -15.9421 C   0  0  0  0  0  0  0  0  0  0  0  0
   19.0954  -10.6832  -14.8377 O   0  0  0  0  0  0  0  0  0  0  0  0
   23.7563   -9.1964  -15.5963 C   0  0  0  0  0  0  0  0  0  0  0  0
   22.9176   -9.7076  -14.4656 C   0  0  2  0  0  0  0  0  0  0  0  0
   23.0973  -11.1977  -14.3793 C   0  0  0  0  0  0  0  0  0  0  0  0
   21.4847   -9.2959  -14.6799 C   0  0  2  0  0  0  0  0  0  0  0  0
   20.9269   -9.8431  -15.8980 N   0  0  0  0  0  0  0  0  0  0  0  0
   21.3043   -7.8247  -14.6012 C   0  0  0  0  0  0  0  0  0  0  0  0
   21.1726   -7.1026  -15.6270 O   0  0  0  0  0  0  0  0  0  0  0  0
   21.2711   -7.1613  -13.3824 O   0  0  0  0  0  0  0  0  0  0  0  0
  2  1  1  6
  2  3  1  0
  3  4  1  0
  5  6  2  0
  5  2  1  0
  7  5  1  0
  8  9  1  0
  8  7  1  0
  9 15  1  0
 10  9  2  0
 12 11  1  6
 13 12  1  0
 14 12  1  0
 14 16  1  0
 14 15  1  6
 16 17  2  0
 16 18  1  0
M  END
$$$$
