CGV.pdb
     RDKit          3D

 18 17  0  0  1  0  0  0  0  0999 V2000
   19.2088  -23.6417  -11.8597 N   0  0  0  0  0  0  0  0  0  0  0  0
   18.1408  -23.5381  -10.8487 C   0  0  1  0  0  0  0  0  0  0  0  0
   17.0070  -24.3880  -11.4420 C   0  0  0  0  0  0  0  0  0  0  0  0
   16.1061  -25.2546  -10.1626 S   0  0  0  0  0  0  0  0  0  0  0  0
   18.6508  -24.1626   -9.6113 C   0  0  0  0  0  0  0  0  0  0  0  0
   19.6220  -24.9565   -9.6693 O   0  0  0  0  0  0  0  0  0  0  0  0
   18.0948  -23.9134   -8.3189 N   0  0  0  0  0  0  0  0  0  0  0  0
   18.7392  -24.4523   -7.1688 C   0  0  0  0  0  0  0  0  0  0  0  0
   17.9346  -25.3272   -6.3331 C   0  0  0  0  0  0  0  0  0  0  0  0
   16.7508  -25.5787   -6.7486 O   0  0  0  0  0  0  0  0  0  0  0  0
   17.2246  -28.5316   -2.6714 C   0  0  0  0  0  0  0  0  0  0  0  0
   18.1384  -27.4910   -3.2418 C   0  0  2  0  0  0  0  0  0  0  0  0
   18.6181  -26.6152   -2.1180 C   0  0  0  0  0  0  0  0  0  0  0  0
   17.4154  -26.7272   -4.3199 C   0  0  2  0  0  0  0  0  0  0  0  0
   18.3101  -25.9246   -5.1259 N   0  0  0  0  0  0  0  0  0  0  0  0
   16.2872  -25.9266   -3.7820 C   0  0  0  0  0  0  0  0  0  0  0  0
   15.1666  -26.4356   -3.5057 O   0  0  0  0  0  0  0  0  0  0  0  0
   16.4085  -24.5630   -3.5531 O   0  0  0  0  0  0  0  0  0  0  0  0
  2  1  1  6
  2  3  1  0
  3  4  1  0
  5  6  2  0
  5  2  1  0
  7  5  1  0
  8  9  1  0
  8  7  1  0
  9 15  1  0
 10  9  2  0
 12 11  1  1
 13 12  1  0
 14 12  1  0
 14 16  1  0
 14 15  1  1
 16 17  2  0
 16 18  1  0
M  END
$$$$
