CGV.pdb
     RDKit          3D

 18 17  0  0  1  0  0  0  0  0999 V2000
   18.7591  -14.5643  -18.3370 N   0  0  0  0  0  0  0  0  0  0  0  0
   18.7041  -13.2449  -18.9926 C   0  0  1  0  0  0  0  0  0  0  0  0
   17.2126  -12.8820  -18.9354 C   0  0  0  0  0  0  0  0  0  0  0  0
   16.2269  -14.0298  -19.8895 S   0  0  0  0  0  0  0  0  0  0  0  0
   19.4873  -12.3113  -18.1582 C   0  0  0  0  0  0  0  0  0  0  0  0
   19.8547  -12.6614  -17.0096 O   0  0  0  0  0  0  0  0  0  0  0  0
   19.8637  -11.0012  -18.5869 N   0  0  0  0  0  0  0  0  0  0  0  0
   20.7581  -10.2369  -17.7844 C   0  0  0  0  0  0  0  0  0  0  0  0
   20.1514   -9.4204  -16.7468 C   0  0  0  0  0  0  0  0  0  0  0  0
   18.8734   -9.3571  -16.7486 O   0  0  0  0  0  0  0  0  0  0  0  0
   19.6493   -7.7101  -12.3149 C   0  0  0  0  0  0  0  0  0  0  0  0
   20.3329   -8.5599  -13.3414 C   0  0  2  0  0  0  0  0  0  0  0  0
   21.7847   -8.6762  -12.9687 C   0  0  0  0  0  0  0  0  0  0  0  0
   20.1187   -7.9633  -14.7076 C   0  0  2  0  0  0  0  0  0  0  0  0
   20.8086   -8.6966  -15.7472 N   0  0  0  0  0  0  0  0  0  0  0  0
   20.4408   -6.5149  -14.7457 C   0  0  0  0  0  0  0  0  0  0  0  0
   19.6565   -5.6346  -14.2970 O   0  0  0  0  0  0  0  0  0  0  0  0
   21.6334   -6.0499  -15.2825 O   0  0  0  0  0  0  0  0  0  0  0  0
  2  1  1  1
  2  3  1  0
  3  4  1  0
  5  6  2  0
  5  2  1  0
  7  5  1  0
  8  9  1  0
  8  7  1  0
  9 15  1  0
 10  9  2  0
 12 11  1  1
 13 12  1  0
 14 12  1  0
 14 16  1  0
 14 15  1  6
 16 17  2  0
 16 18  1  0
M  END
$$$$
