CGV.pdb
     RDKit          3D

 18 17  0  0  1  0  0  0  0  0999 V2000
   21.2595  -13.3194  -16.2904 N   0  0  0  0  0  0  0  0  0  0  0  0
   22.2785  -12.4354  -15.6958 C   0  0  1  0  0  0  0  0  0  0  0  0
   23.5854  -12.9114  -16.3479 C   0  0  0  0  0  0  0  0  0  0  0  0
   24.3277  -14.2466  -15.4175 S   0  0  0  0  0  0  0  0  0  0  0  0
   21.9661  -11.0583  -16.1285 C   0  0  0  0  0  0  0  0  0  0  0  0
   21.2739  -10.8717  -17.1595 O   0  0  0  0  0  0  0  0  0  0  0  0
   22.4129   -9.8948  -15.4296 N   0  0  0  0  0  0  0  0  0  0  0  0
   22.0817   -8.6070  -15.9396 C   0  0  0  0  0  0  0  0  0  0  0  0
   21.4223   -7.7006  -15.0150 C   0  0  0  0  0  0  0  0  0  0  0  0
   21.0693   -8.1955  -13.8891 O   0  0  0  0  0  0  0  0  0  0  0  0
   20.8215   -3.3410  -15.3432 C   0  0  0  0  0  0  0  0  0  0  0  0
   21.2105   -4.1434  -14.1398 C   0  0  2  0  0  0  0  0  0  0  0  0
   22.7109   -4.2218  -14.0881 C   0  0  0  0  0  0  0  0  0  0  0  0
   20.5493   -5.4951  -14.2049 C   0  0  2  0  0  0  0  0  0  0  0  0
   21.1307   -6.3484  -15.2190 N   0  0  0  0  0  0  0  0  0  0  0  0
   19.0752   -5.3941  -14.3458 C   0  0  0  0  0  0  0  0  0  0  0  0
   18.3280   -5.0247  -13.3989 O   0  0  0  0  0  0  0  0  0  0  0  0
   18.4367   -5.7040  -15.5386 O   0  0  0  0  0  0  0  0  0  0  0  0
  2  1  1  6
  2  3  1  0
  3  4  1  0
  5  6  2  0
  5  2  1  0
  7  5  1  0
  8  9  1  0
  8  7  1  0
  9 15  1  0
 10  9  2  0
 12 11  1  6
 13 12  1  0
 14 12  1  0
 14 16  1  0
 14 15  1  6
 16 17  2  0
 16 18  1  0
M  END
$$$$
