CGV.pdb
     RDKit          3D

 18 17  0  0  1  0  0  0  0  0999 V2000
   20.4533  -14.1579  -17.8022 N   0  0  0  0  0  0  0  0  0  0  0  0
   21.0842  -12.8801  -18.1801 C   0  0  1  0  0  0  0  0  0  0  0  0
   20.1975  -12.3722  -19.3271 C   0  0  0  0  0  0  0  0  0  0  0  0
   20.5826  -13.2029  -20.8636 S   0  0  0  0  0  0  0  0  0  0  0  0
   20.9745  -11.9792  -17.0149 C   0  0  0  0  0  0  0  0  0  0  0  0
   19.9152  -11.9596  -16.3408 O   0  0  0  0  0  0  0  0  0  0  0  0
   22.0252  -11.1066  -16.5951 N   0  0  0  0  0  0  0  0  0  0  0  0
   21.7895  -10.2000  -15.5223 C   0  0  0  0  0  0  0  0  0  0  0  0
   22.0590   -8.7986  -15.7953 C   0  0  0  0  0  0  0  0  0  0  0  0
   22.6629   -8.5397  -16.8933 O   0  0  0  0  0  0  0  0  0  0  0  0
   21.0769   -4.3375  -16.5248 C   0  0  0  0  0  0  0  0  0  0  0  0
   20.8139   -5.7788  -16.2133 C   0  0  2  0  0  0  0  0  0  0  0  0
   19.4818   -5.8783  -15.5235 C   0  0  0  0  0  0  0  0  0  0  0  0
   21.9491   -6.3275  -15.3896 C   0  0  2  0  0  0  0  0  0  0  0  0
   21.7318   -7.7020  -14.9919 N   0  0  0  0  0  0  0  0  0  0  0  0
   22.2726   -5.4606  -14.2290 C   0  0  0  0  0  0  0  0  0  0  0  0
   21.8349   -5.6910  -13.0686 O   0  0  0  0  0  0  0  0  0  0  0  0
   23.0813   -4.3404  -14.3624 O   0  0  0  0  0  0  0  0  0  0  0  0
  2  1  1  1
  2  3  1  0
  3  4  1  0
  5  6  2  0
  5  2  1  0
  7  5  1  0
  8  9  1  0
  8  7  1  0
  9 15  1  0
 10  9  2  0
 12 11  1  1
 13 12  1  0
 14 12  1  0
 14 16  1  0
 14 15  1  1
 16 17  2  0
 16 18  1  0
M  END
$$$$
