CGV.pdb
     RDKit          3D

 18 17  0  0  1  0  0  0  0  0999 V2000
   16.7275  -14.5523  -15.3543 N   0  0  0  0  0  0  0  0  0  0  0  0
   15.9447  -13.8682  -16.3996 C   0  0  1  0  0  0  0  0  0  0  0  0
   14.6030  -13.5825  -15.7083 C   0  0  0  0  0  0  0  0  0  0  0  0
   13.7682  -15.0986  -15.2568 S   0  0  0  0  0  0  0  0  0  0  0  0
   16.6397  -12.6012  -16.7048 C   0  0  0  0  0  0  0  0  0  0  0  0
   16.3421  -11.9628  -17.7443 O   0  0  0  0  0  0  0  0  0  0  0  0
   17.6552  -12.0415  -15.8698 N   0  0  0  0  0  0  0  0  0  0  0  0
   18.2924  -10.8310  -16.2659 C   0  0  0  0  0  0  0  0  0  0  0  0
   19.2142  -10.2471  -15.3065 C   0  0  0  0  0  0  0  0  0  0  0  0
   18.8996  -10.3657  -14.0719 O   0  0  0  0  0  0  0  0  0  0  0  0
   23.2361   -9.1445  -16.0568 C   0  0  0  0  0  0  0  0  0  0  0  0
   22.7077   -9.5783  -14.7241 C   0  0  2  0  0  0  0  0  0  0  0  0
   22.8133  -11.0754  -14.6377 C   0  0  0  0  0  0  0  0  0  0  0  0
   21.2984   -9.0739  -14.5567 C   0  0  2  0  0  0  0  0  0  0  0  0
   20.4063   -9.5704  -15.5823 N   0  0  0  0  0  0  0  0  0  0  0  0
   21.2401   -7.5952  -14.4414 C   0  0  0  0  0  0  0  0  0  0  0  0
   20.9202   -6.8524  -15.4095 O   0  0  0  0  0  0  0  0  0  0  0  0
   21.5377   -6.9472  -13.2505 O   0  0  0  0  0  0  0  0  0  0  0  0
  2  1  1  1
  2  3  1  0
  3  4  1  0
  5  6  2  0
  5  2  1  0
  7  5  1  0
  8  9  1  0
  8  7  1  0
  9 15  1  0
 10  9  2  0
 12 11  1  6
 13 12  1  0
 14 12  1  0
 14 16  1  0
 14 15  1  6
 16 17  2  0
 16 18  1  0
M  END
$$$$
