CGV.pdb
     RDKit          3D

 18 17  0  0  1  0  0  0  0  0999 V2000
   24.7483  -34.9615  -11.0997 N   0  0  0  0  0  0  0  0  0  0  0  0
   24.4826  -33.6790  -10.4229 C   0  0  1  0  0  0  0  0  0  0  0  0
   23.3349  -33.0745  -11.2458 C   0  0  0  0  0  0  0  0  0  0  0  0
   23.9459  -32.2743  -12.7242 S   0  0  0  0  0  0  0  0  0  0  0  0
   24.0177  -33.9956   -9.0573 C   0  0  0  0  0  0  0  0  0  0  0  0
   23.1519  -34.8888   -8.8860 O   0  0  0  0  0  0  0  0  0  0  0  0
   24.5042  -33.3331   -7.8885 N   0  0  0  0  0  0  0  0  0  0  0  0
   23.9517  -33.6667   -6.6190 C   0  0  0  0  0  0  0  0  0  0  0  0
   24.5478  -33.0114   -5.4673 C   0  0  0  0  0  0  0  0  0  0  0  0
   25.5966  -32.3133   -5.6908 O   0  0  0  0  0  0  0  0  0  0  0  0
   24.6470  -31.3414   -0.8493 C   0  0  0  0  0  0  0  0  0  0  0  0
   23.8811  -32.0896   -1.8966 C   0  0  2  0  0  0  0  0  0  0  0  0
   23.2676  -33.3039   -1.2571 C   0  0  0  0  0  0  0  0  0  0  0  0
   24.7983  -32.4244   -3.0434 C   0  0  2  0  0  0  0  0  0  0  0  0
   24.1029  -33.0589   -4.1426 N   0  0  0  0  0  0  0  0  0  0  0  0
   25.9791  -33.2114   -2.6080 C   0  0  0  0  0  0  0  0  0  0  0  0
   25.9987  -34.4724   -2.6315 O   0  0  0  0  0  0  0  0  0  0  0  0
   27.1340  -32.5939   -2.1481 O   0  0  0  0  0  0  0  0  0  0  0  0
  2  1  1  6
  2  3  1  0
  3  4  1  0
  5  6  2  0
  5  2  1  0
  7  5  1  0
  8  9  1  0
  8  7  1  0
  9 15  1  0
 10  9  2  0
 12 11  1  1
 13 12  1  0
 14 12  1  0
 14 16  1  0
 14 15  1  6
 16 17  2  0
 16 18  1  0
M  END
$$$$
