CGV.pdb
     RDKit          3D

 18 17  0  0  1  0  0  0  0  0999 V2000
   15.5507  -14.0914  -17.7380 N   0  0  0  0  0  0  0  0  0  0  0  0
   16.3766  -13.8980  -16.5322 C   0  0  1  0  0  0  0  0  0  0  0  0
   16.9552  -15.2967  -16.2703 C   0  0  0  0  0  0  0  0  0  0  0  0
   15.9494  -16.2090  -15.1061 S   0  0  0  0  0  0  0  0  0  0  0  0
   17.4585  -12.9590  -16.8916 C   0  0  0  0  0  0  0  0  0  0  0  0
   17.9515  -12.9900  -18.0461 O   0  0  0  0  0  0  0  0  0  0  0  0
   17.9927  -11.9920  -15.9854 N   0  0  0  0  0  0  0  0  0  0  0  0
   19.0547  -11.1468  -16.4165 C   0  0  0  0  0  0  0  0  0  0  0  0
   19.5114  -10.1518  -15.4612 C   0  0  0  0  0  0  0  0  0  0  0  0
   18.7984  -10.0056  -14.4088 O   0  0  0  0  0  0  0  0  0  0  0  0
   23.4556   -8.8078  -15.1271 C   0  0  0  0  0  0  0  0  0  0  0  0
   22.4755   -8.8720  -13.9962 C   0  0  2  0  0  0  0  0  0  0  0  0
   22.5161  -10.2570  -13.4131 C   0  0  0  0  0  0  0  0  0  0  0  0
   21.1097   -8.4799  -14.4953 C   0  0  2  0  0  0  0  0  0  0  0  0
   20.6429   -9.3367  -15.5641 N   0  0  0  0  0  0  0  0  0  0  0  0
   21.0367   -7.0443  -14.8655 C   0  0  0  0  0  0  0  0  0  0  0  0
   21.1339   -6.1193  -14.0134 O   0  0  0  0  0  0  0  0  0  0  0  0
   20.8560   -6.6420  -16.1816 O   0  0  0  0  0  0  0  0  0  0  0  0
  2  1  1  6
  2  3  1  0
  3  4  1  0
  5  6  2  0
  5  2  1  0
  7  5  1  0
  8  9  1  0
  8  7  1  0
  9 15  1  0
 10  9  2  0
 12 11  1  6
 13 12  1  0
 14 12  1  0
 14 16  1  0
 14 15  1  6
 16 17  2  0
 16 18  1  0
M  END
$$$$
