CGV.pdb
     RDKit          3D

 18 17  0  0  1  0  0  0  0  0999 V2000
   16.3836  -10.8283  -17.3487 N   0  0  0  0  0  0  0  0  0  0  0  0
   16.0387  -11.5874  -16.1327 C   0  0  1  0  0  0  0  0  0  0  0  0
   16.1653  -13.0513  -16.5805 C   0  0  0  0  0  0  0  0  0  0  0  0
   14.6613  -13.6255  -17.3599 S   0  0  0  0  0  0  0  0  0  0  0  0
   17.0658  -11.2748  -15.1185 C   0  0  0  0  0  0  0  0  0  0  0  0
   17.0447  -11.8632  -14.0094 O   0  0  0  0  0  0  0  0  0  0  0  0
   18.1094  -10.3210  -15.3255 N   0  0  0  0  0  0  0  0  0  0  0  0
   19.0187  -10.0438  -14.2650 C   0  0  0  0  0  0  0  0  0  0  0  0
   20.0250   -9.0299  -14.5309 C   0  0  0  0  0  0  0  0  0  0  0  0
   20.7944   -8.7238  -13.5555 O   0  0  0  0  0  0  0  0  0  0  0  0
   21.0465   -7.3952  -18.3880 C   0  0  0  0  0  0  0  0  0  0  0  0
   22.0256   -7.7033  -17.2971 C   0  0  2  0  0  0  0  0  0  0  0  0
   22.5114   -9.1139  -17.4818 C   0  0  0  0  0  0  0  0  0  0  0  0
   21.3728   -7.4727  -15.9595 C   0  0  2  0  0  0  0  0  0  0  0  0
   20.2457   -8.3519  -15.7337 N   0  0  0  0  0  0  0  0  0  0  0  0
   21.0143   -6.0481  -15.7466 C   0  0  0  0  0  0  0  0  0  0  0  0
   21.8819   -5.1360  -15.6667 O   0  0  0  0  0  0  0  0  0  0  0  0
   19.6926   -5.6425  -15.6233 O   0  0  0  0  0  0  0  0  0  0  0  0
  2  1  1  6
  2  3  1  0
  3  4  1  0
  5  6  2  0
  5  2  1  0
  7  5  1  0
  8  9  1  0
  8  7  1  0
  9 15  1  0
 10  9  2  0
 12 11  1  6
 13 12  1  0
 14 12  1  0
 14 16  1  0
 14 15  1  6
 16 17  2  0
 16 18  1  0
M  END
$$$$
