AYQ.pdb
     RDKit          3D

 27 27  0  0  1  0  0  0  0  0999 V2000
    8.3145  -21.9791   21.0083 C   0  0  0  0  0  0  0  0  0  0  0  0
    8.8920  -21.0831   22.0819 C   0  0  2  0  0  0  0  0  0  0  0  0
    8.0376  -21.0030   23.2482 N   0  0  0  0  0  0  0  0  0  0  0  0
    9.1635  -19.7147   21.5545 C   0  0  0  0  0  0  0  0  0  0  0  0
    9.9770  -19.6211   20.6092 O   0  0  0  0  0  0  0  0  0  0  0  0
    8.2094  -11.5101   18.9866 O   0  0  0  0  0  0  0  0  0  0  0  0
    8.0584  -12.7056   19.7162 C   0  0  0  0  0  0  0  0  0  0  0  0
    8.1993  -12.7232   21.0853 C   0  0  0  0  0  0  0  0  0  0  0  0
    8.0344  -13.9481   21.7356 C   0  0  0  0  0  0  0  0  0  0  0  0
    7.7425  -15.1128   21.0734 C   0  0  0  0  0  0  0  0  0  0  0  0
    7.5631  -16.4092   21.7619 C   0  0  0  0  0  0  0  0  0  0  0  0
    8.7887  -17.2307   21.5938 C   0  0  2  0  0  0  0  0  0  0  0  0
    8.5460  -18.5677   22.0792 N   0  0  0  0  0  0  0  0  0  0  0  0
    9.9977  -16.6943   22.2657 C   0  0  0  0  0  0  0  0  0  0  0  0
   10.0427  -16.7291   23.5198 O   0  0  0  0  0  0  0  0  0  0  0  0
    7.6078  -15.0637   19.7057 C   0  0  0  0  0  0  0  0  0  0  0  0
    7.7667  -13.8649   19.0447 C   0  0  0  0  0  0  0  0  0  0  0  0
   13.9252  -19.6987   23.4285 N   0  0  0  0  0  0  0  0  0  0  0  0
   14.7579  -18.5852   23.6782 C   0  0  0  0  0  0  0  0  0  0  0  0
   15.8867  -18.7446   24.1648 O   0  0  0  0  0  0  0  0  0  0  0  0
   14.1927  -17.2398   23.3223 C   0  0  0  0  0  0  0  0  0  0  0  0
   12.8549  -17.3741   22.6585 C   0  0  0  0  0  0  0  0  0  0  0  0
   12.3543  -16.0384   22.2317 C   0  0  2  0  0  0  0  0  0  0  0  0
   11.0860  -16.1512   21.5154 N   0  0  0  0  0  0  0  0  0  0  0  0
   13.3067  -15.4260   21.2858 C   0  0  0  0  0  0  0  0  0  0  0  0
   12.9490  -15.3612   20.0548 O   0  0  0  0  0  0  0  0  0  0  0  0
   14.5398  -14.9101   21.5715 O   0  0  0  0  0  0  0  0  0  0  0  0
  2  1  1  6
  3  2  1  0
  4 13  1  0
  4  2  1  0
  5  4  2  0
  7  6  1  0
  8  7  2  0
  9  8  1  0
 10  9  2  0
 10 16  1  0
 12 11  1  1
 11 10  1  0
 12 14  1  0
 12 13  1  0
 14 15  2  0
 16 17  2  0
 17  7  1  0
 19 18  1  0
 19 21  1  0
 20 19  2  0
 22 21  1  0
 23 22  1  6
 24 14  1  0
 24 23  1  0
 25 23  1  0
 25 27  1  0
 26 25  2  0
M  END
$$$$
