AYQ.pdb
     RDKit          3D

 27 27  0  0  1  0  0  0  0  0999 V2000
   10.2315  -17.2421   19.6734 C   0  0  0  0  0  0  0  0  0  0  0  0
    9.7993  -17.7872   21.0169 C   0  0  2  0  0  0  0  0  0  0  0  0
    8.5657  -18.5409   20.9325 N   0  0  0  0  0  0  0  0  0  0  0  0
    9.6610  -16.6953   22.0234 C   0  0  0  0  0  0  0  0  0  0  0  0
   10.7076  -16.1022   22.3657 O   0  0  0  0  0  0  0  0  0  0  0  0
    7.8855  -12.5772   17.6667 O   0  0  0  0  0  0  0  0  0  0  0  0
    7.6467  -13.0732   18.9634 C   0  0  0  0  0  0  0  0  0  0  0  0
    6.9441  -14.2407   19.1577 C   0  0  0  0  0  0  0  0  0  0  0  0
    6.7495  -14.6657   20.4737 C   0  0  0  0  0  0  0  0  0  0  0  0
    7.2236  -13.9761   21.5600 C   0  0  0  0  0  0  0  0  0  0  0  0
    7.0220  -14.4280   22.9535 C   0  0  0  0  0  0  0  0  0  0  0  0
    8.2244  -15.1703   23.4101 C   0  0  2  0  0  0  0  0  0  0  0  0
    8.4225  -16.3312   22.5763 N   0  0  0  0  0  0  0  0  0  0  0  0
    8.1896  -15.6051   24.8280 C   0  0  0  0  0  0  0  0  0  0  0  0
    7.7314  -14.8064   25.6813 O   0  0  0  0  0  0  0  0  0  0  0  0
    7.9218  -12.8131   21.3341 C   0  0  0  0  0  0  0  0  0  0  0  0
    8.1249  -12.3761   20.0429 C   0  0  0  0  0  0  0  0  0  0  0  0
    6.1726  -20.3680   27.6991 N   0  0  0  0  0  0  0  0  0  0  0  0
    7.0530  -20.6289   26.6256 C   0  0  0  0  0  0  0  0  0  0  0  0
    7.0631  -21.7423   26.0810 O   0  0  0  0  0  0  0  0  0  0  0  0
    7.9454  -19.4952   26.2076 C   0  0  0  0  0  0  0  0  0  0  0  0
    7.6140  -18.2411   26.9599 C   0  0  0  0  0  0  0  0  0  0  0  0
    8.6103  -17.1777   26.6543 C   0  0  2  0  0  0  0  0  0  0  0  0
    8.6621  -16.8951   25.2218 N   0  0  0  0  0  0  0  0  0  0  0  0
    9.9615  -17.6347   27.0314 C   0  0  0  0  0  0  0  0  0  0  0  0
   10.1808  -17.8466   28.2782 O   0  0  0  0  0  0  0  0  0  0  0  0
   11.0194  -17.8647   26.1971 O   0  0  0  0  0  0  0  0  0  0  0  0
  2  1  1  6
  3  2  1  0
  4 13  1  0
  4  2  1  0
  5  4  2  0
  7  6  1  0
  8  7  2  0
  9  8  1  0
 10  9  2  0
 10 16  1  0
 12 11  1  6
 11 10  1  0
 12 14  1  0
 12 13  1  0
 14 15  2  0
 16 17  2  0
 17  7  1  0
 19 18  1  0
 19 21  1  0
 20 19  2  0
 22 21  1  0
 23 22  1  6
 24 14  1  0
 24 23  1  0
 25 23  1  0
 25 27  1  0
 26 25  2  0
M  END
$$$$
