AYQ.pdb
     RDKit          3D

 27 27  0  0  1  0  0  0  0  0999 V2000
    9.6879  -15.9790   18.2087 C   0  0  0  0  0  0  0  0  0  0  0  0
    9.4806  -16.8669   19.4161 C   0  0  2  0  0  0  0  0  0  0  0  0
    8.2581  -17.6378   19.3272 N   0  0  0  0  0  0  0  0  0  0  0  0
    9.4912  -16.0727   20.6784 C   0  0  0  0  0  0  0  0  0  0  0  0
   10.5721  -15.5325   21.0009 O   0  0  0  0  0  0  0  0  0  0  0  0
    6.8392  -12.1524   28.0631 O   0  0  0  0  0  0  0  0  0  0  0  0
    6.8950  -12.7290   26.7790 C   0  0  0  0  0  0  0  0  0  0  0  0
    7.4146  -12.0329   25.7112 C   0  0  0  0  0  0  0  0  0  0  0  0
    7.4346  -12.6742   24.4707 C   0  0  0  0  0  0  0  0  0  0  0  0
    6.9647  -13.9481   24.2799 C   0  0  0  0  0  0  0  0  0  0  0  0
    6.9898  -14.6294   22.9676 C   0  0  0  0  0  0  0  0  0  0  0  0
    8.3402  -15.2017   22.7349 C   0  0  2  0  0  0  0  0  0  0  0  0
    8.3516  -15.9234   21.4854 N   0  0  0  0  0  0  0  0  0  0  0  0
    8.8309  -16.1020   23.8071 C   0  0  0  0  0  0  0  0  0  0  0  0
    8.2828  -17.2241   23.9351 O   0  0  0  0  0  0  0  0  0  0  0  0
    6.4514  -14.6182   25.3656 C   0  0  0  0  0  0  0  0  0  0  0  0
    6.4223  -14.0033   26.5987 C   0  0  0  0  0  0  0  0  0  0  0  0
   14.1737  -17.7054   23.8111 N   0  0  0  0  0  0  0  0  0  0  0  0
   14.0356  -16.3689   24.2471 C   0  0  0  0  0  0  0  0  0  0  0  0
   14.9393  -15.5463   24.0397 O   0  0  0  0  0  0  0  0  0  0  0  0
   12.7555  -16.0304   24.9566 C   0  0  0  0  0  0  0  0  0  0  0  0
   11.8100  -17.1942   24.9498 C   0  0  0  0  0  0  0  0  0  0  0  0
   10.4811  -16.7823   25.4802 C   0  0  2  0  0  0  0  0  0  0  0  0
    9.8971  -15.7120   24.6752 N   0  0  0  0  0  0  0  0  0  0  0  0
   10.6336  -16.2350   26.8418 C   0  0  0  0  0  0  0  0  0  0  0  0
   11.0490  -17.0385   27.7524 O   0  0  0  0  0  0  0  0  0  0  0  0
   10.3841  -14.9549   27.2512 O   0  0  0  0  0  0  0  0  0  0  0  0
  2  1  1  6
  3  2  1  0
  4 13  1  0
  4  2  1  0
  5  4  2  0
  7  6  1  0
  8  7  2  0
  9  8  1  0
 10  9  2  0
 10 16  1  0
 12 11  1  1
 11 10  1  0
 12 14  1  0
 12 13  1  0
 14 15  2  0
 16 17  2  0
 17  7  1  0
 19 18  1  0
 19 21  1  0
 20 19  2  0
 22 21  1  0
 23 22  1  6
 24 14  1  0
 24 23  1  0
 25 23  1  0
 25 27  1  0
 26 25  2  0
M  END
$$$$
