AYQ.pdb
     RDKit          3D

 27 27  0  0  1  0  0  0  0  0999 V2000
    8.4575  -18.2118   19.5616 C   0  0  0  0  0  0  0  0  0  0  0  0
    8.8709  -16.7601   19.4587 C   0  0  2  0  0  0  0  0  0  0  0  0
   10.0878  -16.5888   18.6927 N   0  0  0  0  0  0  0  0  0  0  0  0
    9.0285  -16.1467   20.8089 C   0  0  0  0  0  0  0  0  0  0  0  0
   10.1364  -16.2887   21.3717 O   0  0  0  0  0  0  0  0  0  0  0  0
    7.2668  -11.7341   28.2025 O   0  0  0  0  0  0  0  0  0  0  0  0
    7.2174  -12.2726   26.9017 C   0  0  0  0  0  0  0  0  0  0  0  0
    8.1726  -11.9506   25.9643 C   0  0  0  0  0  0  0  0  0  0  0  0
    8.0535  -12.5260   24.6973 C   0  0  0  0  0  0  0  0  0  0  0  0
    7.0393  -13.3843   24.3583 C   0  0  0  0  0  0  0  0  0  0  0  0
    6.9152  -13.9975   23.0184 C   0  0  0  0  0  0  0  0  0  0  0  0
    8.1178  -14.8234   22.7408 C   0  0  2  0  0  0  0  0  0  0  0  0
    7.9943  -15.4369   21.4405 N   0  0  0  0  0  0  0  0  0  0  0  0
    8.3925  -15.8837   23.7413 C   0  0  0  0  0  0  0  0  0  0  0  0
    7.6051  -16.8597   23.8013 O   0  0  0  0  0  0  0  0  0  0  0  0
    6.0999  -13.6869   25.3160 C   0  0  0  0  0  0  0  0  0  0  0  0
    6.1991  -13.1297   26.5726 C   0  0  0  0  0  0  0  0  0  0  0  0
   13.3798  -17.8628   24.0602 N   0  0  0  0  0  0  0  0  0  0  0  0
   12.3139  -18.4464   23.3399 C   0  0  0  0  0  0  0  0  0  0  0  0
   12.5153  -18.9580   22.2291 O   0  0  0  0  0  0  0  0  0  0  0  0
   10.9643  -18.4022   23.9981 C   0  0  0  0  0  0  0  0  0  0  0  0
   11.0109  -17.6153   25.2737 C   0  0  0  0  0  0  0  0  0  0  0  0
    9.7037  -16.9441   25.5138 C   0  0  2  0  0  0  0  0  0  0  0  0
    9.5193  -15.8056   24.6169 N   0  0  0  0  0  0  0  0  0  0  0  0
    9.6660  -16.3975   26.8837 C   0  0  0  0  0  0  0  0  0  0  0  0
    9.6831  -17.2410   27.8510 O   0  0  0  0  0  0  0  0  0  0  0  0
    9.6176  -15.0809   27.2476 O   0  0  0  0  0  0  0  0  0  0  0  0
  2  1  1  1
  3  2  1  0
  4 13  1  0
  4  2  1  0
  5  4  2  0
  7  6  1  0
  8  7  2  0
  9  8  1  0
 10  9  2  0
 10 16  1  0
 12 11  1  1
 11 10  1  0
 12 14  1  0
 12 13  1  0
 14 15  2  0
 16 17  2  0
 17  7  1  0
 19 18  1  0
 19 21  1  0
 20 19  2  0
 22 21  1  0
 23 22  1  6
 24 14  1  0
 24 23  1  0
 25 23  1  0
 25 27  1  0
 26 25  2  0
M  END
$$$$
