AYQ.pdb
     RDKit          3D

 27 27  0  0  1  0  0  0  0  0999 V2000
    6.4459  -21.1127   24.6400 C   0  0  0  0  0  0  0  0  0  0  0  0
    5.7546  -20.5728   23.4072 C   0  0  2  0  0  0  0  0  0  0  0  0
    5.4801  -21.6089   22.4336 N   0  0  0  0  0  0  0  0  0  0  0  0
    6.5502  -19.4799   22.7772 C   0  0  0  0  0  0  0  0  0  0  0  0
    7.5660  -19.8171   22.1300 O   0  0  0  0  0  0  0  0  0  0  0  0
    8.5913  -11.9211   19.0013 O   0  0  0  0  0  0  0  0  0  0  0  0
    7.9991  -12.8643   19.8639 C   0  0  0  0  0  0  0  0  0  0  0  0
    8.1401  -12.7631   21.2293 C   0  0  0  0  0  0  0  0  0  0  0  0
    7.5225  -13.7377   22.0162 C   0  0  0  0  0  0  0  0  0  0  0  0
    6.7940  -14.7730   21.4892 C   0  0  0  0  0  0  0  0  0  0  0  0
    6.1360  -15.8026   22.3219 C   0  0  0  0  0  0  0  0  0  0  0  0
    6.9495  -17.0448   22.3047 C   0  0  2  0  0  0  0  0  0  0  0  0
    6.1951  -18.1260   22.8913 N   0  0  0  0  0  0  0  0  0  0  0  0
    8.2561  -16.9461   23.0002 C   0  0  0  0  0  0  0  0  0  0  0  0
    8.2672  -17.0222   24.2533 O   0  0  0  0  0  0  0  0  0  0  0  0
    6.6710  -14.8476   20.1215 C   0  0  0  0  0  0  0  0  0  0  0  0
    7.2728  -13.8958   19.3269 C   0  0  0  0  0  0  0  0  0  0  0  0
   12.1888  -20.5672   23.8583 N   0  0  0  0  0  0  0  0  0  0  0  0
   13.0436  -19.5066   24.2324 C   0  0  0  0  0  0  0  0  0  0  0  0
   14.1551  -19.7435   24.7273 O   0  0  0  0  0  0  0  0  0  0  0  0
   12.5230  -18.1179   23.9940 C   0  0  0  0  0  0  0  0  0  0  0  0
   11.1825  -18.1512   23.3229 C   0  0  0  0  0  0  0  0  0  0  0  0
   10.6948  -16.7663   23.0756 C   0  0  2  0  0  0  0  0  0  0  0  0
    9.4738  -16.7692   22.2733 N   0  0  0  0  0  0  0  0  0  0  0  0
   11.6966  -16.0150   22.2954 C   0  0  0  0  0  0  0  0  0  0  0  0
   12.8124  -15.7534   22.8733 O   0  0  0  0  0  0  0  0  0  0  0  0
   11.5747  -15.5620   21.0116 O   0  0  0  0  0  0  0  0  0  0  0  0
  2  1  1  1
  3  2  1  0
  4 13  1  0
  4  2  1  0
  5  4  2  0
  7  6  1  0
  8  7  2  0
  9  8  1  0
 10  9  2  0
 10 16  1  0
 12 11  1  1
 11 10  1  0
 12 14  1  0
 12 13  1  0
 14 15  2  0
 16 17  2  0
 17  7  1  0
 19 18  1  0
 19 21  1  0
 20 19  2  0
 22 21  1  0
 23 22  1  6
 24 14  1  0
 24 23  1  0
 25 23  1  0
 25 27  1  0
 26 25  2  0
M  END
$$$$
