AYQ.pdb
     RDKit          3D

 27 27  0  0  1  0  0  0  0  0999 V2000
    9.0043  -18.5630   19.5130 C   0  0  0  0  0  0  0  0  0  0  0  0
    9.3829  -17.1016   19.4126 C   0  0  2  0  0  0  0  0  0  0  0  0
   10.6381  -16.9062   18.7174 N   0  0  0  0  0  0  0  0  0  0  0  0
    9.4429  -16.4657   20.7604 C   0  0  0  0  0  0  0  0  0  0  0  0
   10.5383  -16.5120   21.3622 O   0  0  0  0  0  0  0  0  0  0  0  0
    7.3936  -11.7217   27.8226 O   0  0  0  0  0  0  0  0  0  0  0  0
    7.3044  -12.4101   26.5967 C   0  0  0  0  0  0  0  0  0  0  0  0
    6.5215  -13.5351   26.4706 C   0  0  0  0  0  0  0  0  0  0  0  0
    6.4861  -14.1604   25.2223 C   0  0  0  0  0  0  0  0  0  0  0  0
    7.1892  -13.7039   24.1372 C   0  0  0  0  0  0  0  0  0  0  0  0
    7.1485  -14.3629   22.8140 C   0  0  0  0  0  0  0  0  0  0  0  0
    8.3612  -15.2030   22.6439 C   0  0  2  0  0  0  0  0  0  0  0  0
    8.3330  -15.8373   21.3481 N   0  0  0  0  0  0  0  0  0  0  0  0
    8.5477  -16.2484   23.6798 C   0  0  0  0  0  0  0  0  0  0  0  0
    7.7627  -17.2281   23.6806 O   0  0  0  0  0  0  0  0  0  0  0  0
    7.9627  -12.5777   24.2941 C   0  0  0  0  0  0  0  0  0  0  0  0
    8.0115  -11.9455   25.5178 C   0  0  0  0  0  0  0  0  0  0  0  0
   13.2393  -19.3460   25.0101 N   0  0  0  0  0  0  0  0  0  0  0  0
   12.5503  -19.0107   23.8233 C   0  0  0  0  0  0  0  0  0  0  0  0
   13.0065  -19.3428   22.7197 O   0  0  0  0  0  0  0  0  0  0  0  0
   11.2675  -18.2477   23.9928 C   0  0  0  0  0  0  0  0  0  0  0  0
   10.9795  -17.9899   25.4416 C   0  0  0  0  0  0  0  0  0  0  0  0
    9.6847  -17.2698   25.5900 C   0  0  2  0  0  0  0  0  0  0  0  0
    9.5889  -16.1522   24.6540 N   0  0  0  0  0  0  0  0  0  0  0  0
    9.5904  -16.6833   26.9405 C   0  0  0  0  0  0  0  0  0  0  0  0
    9.7195  -15.4098   27.0358 O   0  0  0  0  0  0  0  0  0  0  0  0
    9.3756  -17.3458   28.1166 O   0  0  0  0  0  0  0  0  0  0  0  0
  2  1  1  1
  3  2  1  0
  4 13  1  0
  4  2  1  0
  5  4  2  0
  7  6  1  0
  8  7  2  0
  9  8  1  0
 10  9  2  0
 10 16  1  0
 12 11  1  1
 11 10  1  0
 12 14  1  0
 12 13  1  0
 14 15  2  0
 16 17  2  0
 17  7  1  0
 19 18  1  0
 19 21  1  0
 20 19  2  0
 22 21  1  0
 23 22  1  1
 24 14  1  0
 24 23  1  0
 25 23  1  0
 25 27  1  0
 26 25  2  0
M  END
$$$$
