AYQ.pdb
     RDKit          3D

 27 27  0  0  1  0  0  0  0  0999 V2000
    8.3291  -17.9504   19.4118 C   0  0  0  0  0  0  0  0  0  0  0  0
    8.6166  -16.4689   19.3049 C   0  0  2  0  0  0  0  0  0  0  0  0
    9.7624  -16.1912   18.4642 N   0  0  0  0  0  0  0  0  0  0  0  0
    8.8132  -15.8586   20.6515 C   0  0  0  0  0  0  0  0  0  0  0  0
    9.9820  -15.8261   21.0955 O   0  0  0  0  0  0  0  0  0  0  0  0
    7.1173  -12.0082   28.3508 O   0  0  0  0  0  0  0  0  0  0  0  0
    6.9850  -12.5325   27.0500 C   0  0  0  0  0  0  0  0  0  0  0  0
    6.3046  -13.7076   26.8250 C   0  0  0  0  0  0  0  0  0  0  0  0
    6.2176  -14.1611   25.5069 C   0  0  0  0  0  0  0  0  0  0  0  0
    6.7745  -13.4917   24.4477 C   0  0  0  0  0  0  0  0  0  0  0  0
    6.6788  -13.9689   23.0513 C   0  0  0  0  0  0  0  0  0  0  0  0
    7.9084  -14.7253   22.7033 C   0  0  2  0  0  0  0  0  0  0  0  0
    7.7497  -15.3373   21.4061 N   0  0  0  0  0  0  0  0  0  0  0  0
    8.2940  -15.7745   23.6787 C   0  0  0  0  0  0  0  0  0  0  0  0
    7.6196  -16.8329   23.7074 O   0  0  0  0  0  0  0  0  0  0  0  0
    7.4482  -12.3205   24.7039 C   0  0  0  0  0  0  0  0  0  0  0  0
    7.5456  -11.8556   25.9977 C   0  0  0  0  0  0  0  0  0  0  0  0
   13.9109  -16.5633   23.1507 N   0  0  0  0  0  0  0  0  0  0  0  0
   13.3791  -17.0996   24.3445 C   0  0  0  0  0  0  0  0  0  0  0  0
   13.9385  -18.0525   24.9061 O   0  0  0  0  0  0  0  0  0  0  0  0
   12.1280  -16.4511   24.8648 C   0  0  0  0  0  0  0  0  0  0  0  0
   10.9831  -17.4193   24.8783 C   0  0  0  0  0  0  0  0  0  0  0  0
    9.7505  -16.7537   25.3830 C   0  0  2  0  0  0  0  0  0  0  0  0
    9.4006  -15.5948   24.5650 N   0  0  0  0  0  0  0  0  0  0  0  0
    9.9823  -16.2388   26.7461 C   0  0  0  0  0  0  0  0  0  0  0  0
    9.9813  -14.9643   26.8983 O   0  0  0  0  0  0  0  0  0  0  0  0
   10.1976  -16.9700   27.8807 O   0  0  0  0  0  0  0  0  0  0  0  0
  2  1  1  1
  3  2  1  0
  4 13  1  0
  4  2  1  0
  5  4  2  0
  7  6  1  0
  8  7  2  0
  9  8  1  0
 10  9  2  0
 10 16  1  0
 12 11  1  1
 11 10  1  0
 12 14  1  0
 12 13  1  0
 14 15  2  0
 16 17  2  0
 17  7  1  0
 19 18  1  0
 19 21  1  0
 20 19  2  0
 22 21  1  0
 23 22  1  6
 24 14  1  0
 24 23  1  0
 25 23  1  0
 25 27  1  0
 26 25  2  0
M  END
$$$$
