AYQ.pdb
     RDKit          3D

 27 27  0  0  1  0  0  0  0  0999 V2000
    8.3497  -20.0044   20.2376 C   0  0  0  0  0  0  0  0  0  0  0  0
    8.5860  -18.6635   19.5779 C   0  0  2  0  0  0  0  0  0  0  0  0
    9.3695  -18.7787   18.3656 N   0  0  0  0  0  0  0  0  0  0  0  0
    9.2392  -17.7072   20.5176 C   0  0  0  0  0  0  0  0  0  0  0  0
   10.4859  -17.6215   20.4655 O   0  0  0  0  0  0  0  0  0  0  0  0
    7.5856  -11.9664   17.8050 O   0  0  0  0  0  0  0  0  0  0  0  0
    7.7871  -12.6700   19.0087 C   0  0  0  0  0  0  0  0  0  0  0  0
    8.9378  -12.5006   19.7448 C   0  0  0  0  0  0  0  0  0  0  0  0
    9.0620  -13.2344   20.9266 C   0  0  0  0  0  0  0  0  0  0  0  0
    8.0981  -14.1014   21.3732 C   0  0  0  0  0  0  0  0  0  0  0  0
    8.2270  -14.8751   22.6268 C   0  0  0  0  0  0  0  0  0  0  0  0
    9.1138  -16.0436   22.3962 C   0  0  2  0  0  0  0  0  0  0  0  0
    8.5090  -16.9272   21.4289 N   0  0  0  0  0  0  0  0  0  0  0  0
    9.4449  -16.8267   23.6119 C   0  0  0  0  0  0  0  0  0  0  0  0
    8.6363  -17.7117   23.9847 O   0  0  0  0  0  0  0  0  0  0  0  0
    6.9597  -14.2495   20.6162 C   0  0  0  0  0  0  0  0  0  0  0  0
    6.8173  -13.5347   19.4465 C   0  0  0  0  0  0  0  0  0  0  0  0
   13.7276  -19.2679   21.6692 N   0  0  0  0  0  0  0  0  0  0  0  0
   13.5579  -20.1585   22.7526 C   0  0  0  0  0  0  0  0  0  0  0  0
   14.2658  -21.1716   22.8467 O   0  0  0  0  0  0  0  0  0  0  0  0
   12.4921  -19.7984   23.7481 C   0  0  0  0  0  0  0  0  0  0  0  0
   11.8580  -18.4827   23.4084 C   0  0  0  0  0  0  0  0  0  0  0  0
   11.4482  -17.7716   24.6508 C   0  0  2  0  0  0  0  0  0  0  0  0
   10.6481  -16.5880   24.3452 N   0  0  0  0  0  0  0  0  0  0  0  0
   12.6433  -17.2855   25.3664 C   0  0  0  0  0  0  0  0  0  0  0  0
   12.9389  -17.8649   26.4729 O   0  0  0  0  0  0  0  0  0  0  0  0
   13.4850  -16.2794   24.9821 O   0  0  0  0  0  0  0  0  0  0  0  0
  2  1  1  1
  3  2  1  0
  4 13  1  0
  4  2  1  0
  5  4  2  0
  7  6  1  0
  8  7  2  0
  9  8  1  0
 10  9  2  0
 10 16  1  0
 12 11  1  1
 11 10  1  0
 12 14  1  0
 12 13  1  0
 14 15  2  0
 16 17  2  0
 17  7  1  0
 19 18  1  0
 19 21  1  0
 20 19  2  0
 22 21  1  0
 23 22  1  6
 24 14  1  0
 24 23  1  0
 25 23  1  0
 25 27  1  0
 26 25  2  0
M  END
$$$$
