AYQ.pdb
     RDKit          3D

 27 27  0  0  1  0  0  0  0  0999 V2000
    9.8524  -20.0909   19.8802 C   0  0  0  0  0  0  0  0  0  0  0  0
    9.4907  -18.6761   19.4843 C   0  0  2  0  0  0  0  0  0  0  0  0
    9.8143  -18.3932   18.1016 N   0  0  0  0  0  0  0  0  0  0  0  0
   10.1520  -17.6803   20.3761 C   0  0  0  0  0  0  0  0  0  0  0  0
   11.2667  -17.2445   20.0132 O   0  0  0  0  0  0  0  0  0  0  0  0
    6.5603  -12.3362   18.9017 O   0  0  0  0  0  0  0  0  0  0  0  0
    7.1319  -13.1195   19.9236 C   0  0  0  0  0  0  0  0  0  0  0  0
    6.4200  -14.1349   20.5209 C   0  0  0  0  0  0  0  0  0  0  0  0
    7.0573  -14.8655   21.5262 C   0  0  0  0  0  0  0  0  0  0  0  0
    8.3424  -14.6141   21.9330 C   0  0  0  0  0  0  0  0  0  0  0  0
    9.0194  -15.3904   22.9940 C   0  0  0  0  0  0  0  0  0  0  0  0
   10.1212  -16.1864   22.3960 C   0  0  2  0  0  0  0  0  0  0  0  0
    9.5693  -17.2364   21.5743 N   0  0  0  0  0  0  0  0  0  0  0  0
   11.0571  -16.7923   23.3745 C   0  0  0  0  0  0  0  0  0  0  0  0
   10.6628  -17.7841   24.0354 O   0  0  0  0  0  0  0  0  0  0  0  0
    9.0282  -13.5933   21.3175 C   0  0  0  0  0  0  0  0  0  0  0  0
    8.4175  -12.8600   20.3232 C   0  0  0  0  0  0  0  0  0  0  0  0
   17.1404  -15.9067   23.6123 N   0  0  0  0  0  0  0  0  0  0  0  0
   16.3727  -16.2756   22.4853 C   0  0  0  0  0  0  0  0  0  0  0  0
   16.8783  -16.2672   21.3537 O   0  0  0  0  0  0  0  0  0  0  0  0
   14.9466  -16.6656   22.7515 C   0  0  0  0  0  0  0  0  0  0  0  0
   14.6714  -16.7351   24.2239 C   0  0  0  0  0  0  0  0  0  0  0  0
   13.2331  -17.0345   24.4662 C   0  0  2  0  0  0  0  0  0  0  0  0
   12.3730  -16.2689   23.5670 N   0  0  0  0  0  0  0  0  0  0  0  0
   12.8611  -16.6279   25.8348 C   0  0  0  0  0  0  0  0  0  0  0  0
   13.5250  -17.1500   26.8013 O   0  0  0  0  0  0  0  0  0  0  0  0
   11.8816  -15.7465   26.1981 O   0  0  0  0  0  0  0  0  0  0  0  0
  2  1  1  1
  3  2  1  0
  4 13  1  0
  4  2  1  0
  5  4  2  0
  7  6  1  0
  8  7  2  0
  9  8  1  0
 10  9  2  0
 10 16  1  0
 12 11  1  1
 11 10  1  0
 12 14  1  0
 12 13  1  0
 14 15  2  0
 16 17  2  0
 17  7  1  0
 19 18  1  0
 19 21  1  0
 20 19  2  0
 22 21  1  0
 23 22  1  6
 24 14  1  0
 24 23  1  0
 25 23  1  0
 25 27  1  0
 26 25  2  0
M  END
$$$$
