HYK.pdb
     RDKit          3D

 32 33  0  0  1  0  0  0  0  0999 V2000
   10.3425  -16.9621   19.1270 N   0  0  0  0  0  0  0  0  0  0  0  0
    8.9853  -16.8725   19.6894 C   0  0  1  0  0  0  0  0  0  0  0  0
    8.5166  -18.2907   19.8823 C   0  0  0  0  0  0  0  0  0  0  0  0
    7.6954  -18.7744   18.7575 C   0  0  0  0  0  0  0  0  0  0  0  0
    8.0571  -18.6213   17.4357 C   0  0  0  0  0  0  0  0  0  0  0  0
    7.1120  -19.1610   16.6578 N   0  0  0  0  0  0  0  0  0  0  0  0
    6.1597  -19.6527   17.4492 C   0  0  0  0  0  0  0  0  0  0  0  0
    6.5141  -19.4172   18.7430 N   0  0  0  0  0  0  0  0  0  0  0  0
    9.1255  -16.2709   21.0462 C   0  0  0  0  0  0  0  0  0  0  0  0
   10.1481  -16.6174   21.7161 O   0  0  0  0  0  0  0  0  0  0  0  0
    6.9350  -11.5737   28.3413 O   0  0  0  0  0  0  0  0  0  0  0  0
    7.0024  -12.1243   27.0556 C   0  0  0  0  0  0  0  0  0  0  0  0
    6.1645  -13.1428   26.6465 C   0  0  0  0  0  0  0  0  0  0  0  0
    6.2462  -13.6753   25.3688 C   0  0  0  0  0  0  0  0  0  0  0  0
    7.1760  -13.1995   24.4584 C   0  0  0  0  0  0  0  0  0  0  0  0
    7.2711  -13.7653   23.0924 C   0  0  0  0  0  0  0  0  0  0  0  0
    8.3241  -14.8022   22.9229 C   0  0  2  0  0  0  0  0  0  0  0  0
    8.1752  -15.3560   21.5790 N   0  0  0  0  0  0  0  0  0  0  0  0
    8.3186  -15.8702   23.9466 C   0  0  0  0  0  0  0  0  0  0  0  0
    7.3552  -16.6687   23.9473 O   0  0  0  0  0  0  0  0  0  0  0  0
    8.0021  -12.1827   24.8885 C   0  0  0  0  0  0  0  0  0  0  0  0
    7.9227  -11.6483   26.1651 C   0  0  0  0  0  0  0  0  0  0  0  0
    9.3228  -16.0391   24.9094 N   0  0  0  0  0  0  0  0  0  0  0  0
    9.2274  -17.2145   25.8934 C   0  0  1  0  0  0  0  0  0  0  0  0
    9.8400  -18.3585   25.2017 C   0  0  0  0  0  0  0  0  0  0  0  0
   11.1118  -18.2187   24.5135 C   0  0  0  0  0  0  0  0  0  0  0  0
   11.7612  -19.3093   23.7709 C   0  0  0  0  0  0  0  0  0  0  0  0
   13.1381  -18.8473   23.2181 C   0  0  0  0  0  0  0  0  0  0  0  0
   13.7095  -19.9660   22.5202 N   0  0  0  0  0  0  0  0  0  0  0  0
    9.9026  -16.7060   27.1096 C   0  0  0  0  0  0  0  0  0  0  0  0
   10.4118  -15.4602   27.3383 O   0  0  0  0  0  0  0  0  0  0  0  0
   10.0582  -17.5119   28.1109 O   0  0  0  0  0  0  0  0  0  0  0  0
  2  1  1  1
  3  2  1  0
  3  4  1  0
  4  5  2  0
  5  6  1  0
  7  6  1  0
  8  4  1  0
  8  7  2  0
  9 18  1  0
  9  2  1  0
 10  9  2  0
 12 11  1  0
 13 12  2  0
 14 13  1  0
 15 14  2  0
 15 21  1  0
 16 15  1  0
 17 16  1  1
 17 18  1  0
 19 23  1  0
 19 17  1  0
 20 19  2  0
 21 22  2  0
 22 12  1  0
 24 23  1  0
 24 30  1  0
 24 25  1  6
 26 25  1  0
 27 28  1  0
 27 26  1  0
 28 29  1  0
 30 31  1  0
 32 30  2  0
M  END
$$$$
