HYK.pdb
     RDKit          3D

 32 33  0  0  1  0  0  0  0  0999 V2000
   10.4797  -16.9176   18.7847 N   0  0  0  0  0  0  0  0  0  0  0  0
    9.1809  -17.0534   19.4635 C   0  0  1  0  0  0  0  0  0  0  0  0
    9.0069  -18.5224   19.7463 C   0  0  0  0  0  0  0  0  0  0  0  0
    7.8944  -19.1186   18.9843 C   0  0  0  0  0  0  0  0  0  0  0  0
    7.1205  -18.4063   18.0926 C   0  0  0  0  0  0  0  0  0  0  0  0
    6.1995  -19.2203   17.5646 N   0  0  0  0  0  0  0  0  0  0  0  0
    6.3672  -20.4303   18.0965 C   0  0  0  0  0  0  0  0  0  0  0  0
    7.4095  -20.3730   18.9712 N   0  0  0  0  0  0  0  0  0  0  0  0
    9.3151  -16.3684   20.7808 C   0  0  0  0  0  0  0  0  0  0  0  0
   10.4615  -16.4121   21.3272 O   0  0  0  0  0  0  0  0  0  0  0  0
    6.7826  -11.9735   28.1613 O   0  0  0  0  0  0  0  0  0  0  0  0
    6.8844  -12.5186   26.8755 C   0  0  0  0  0  0  0  0  0  0  0  0
    7.6078  -11.9057   25.8717 C   0  0  0  0  0  0  0  0  0  0  0  0
    7.6971  -12.4610   24.6042 C   0  0  0  0  0  0  0  0  0  0  0  0
    7.0599  -13.6541   24.3042 C   0  0  0  0  0  0  0  0  0  0  0  0
    7.1484  -14.2522   22.9516 C   0  0  0  0  0  0  0  0  0  0  0  0
    8.3903  -15.0309   22.6982 C   0  0  2  0  0  0  0  0  0  0  0  0
    8.2290  -15.6967   21.4077 N   0  0  0  0  0  0  0  0  0  0  0  0
    8.7481  -15.9975   23.7594 C   0  0  0  0  0  0  0  0  0  0  0  0
    8.0715  -17.0468   23.8409 O   0  0  0  0  0  0  0  0  0  0  0  0
    6.3433  -14.2483   25.3216 C   0  0  0  0  0  0  0  0  0  0  0  0
    6.2523  -13.6956   26.5896 C   0  0  0  0  0  0  0  0  0  0  0  0
    9.7938  -15.8081   24.6729 N   0  0  0  0  0  0  0  0  0  0  0  0
   10.1912  -16.9610   25.6066 C   0  0  1  0  0  0  0  0  0  0  0  0
   11.4928  -17.4363   25.1143 C   0  0  0  0  0  0  0  0  0  0  0  0
   12.2481  -18.4352   25.8508 C   0  0  0  0  0  0  0  0  0  0  0  0
   12.0641  -19.8845   25.6824 C   0  0  0  0  0  0  0  0  0  0  0  0
   13.0069  -20.6677   26.6377 C   0  0  0  0  0  0  0  0  0  0  0  0
   12.6540  -22.0568   26.5333 N   0  0  0  0  0  0  0  0  0  0  0  0
   10.1494  -16.3479   26.9541 C   0  0  0  0  0  0  0  0  0  0  0  0
    9.9595  -16.9612   28.1589 O   0  0  0  0  0  0  0  0  0  0  0  0
   10.3028  -15.0661   27.0534 O   0  0  0  0  0  0  0  0  0  0  0  0
  2  1  1  6
  3  2  1  0
  3  4  1  0
  4  5  2  0
  5  6  1  0
  7  6  1  0
  8  4  1  0
  8  7  2  0
  9 18  1  0
  9  2  1  0
 10  9  2  0
 12 11  1  0
 13 12  2  0
 14 13  1  0
 15 14  2  0
 15 21  1  0
 16 15  1  0
 17 16  1  1
 17 18  1  0
 19 23  1  0
 19 17  1  0
 20 19  2  0
 21 22  2  0
 22 12  1  0
 24 23  1  0
 24 30  1  0
 24 25  1  6
 26 25  1  0
 27 28  1  0
 27 26  1  0
 28 29  1  0
 30 31  1  0
 32 30  2  0
M  END
$$$$
