HYK.pdb
     RDKit          3D

 32 33  0  0  1  0  0  0  0  0999 V2000
   10.6983  -16.7130   19.1437 N   0  0  0  0  0  0  0  0  0  0  0  0
    9.3644  -16.8409   19.7523 C   0  0  1  0  0  0  0  0  0  0  0  0
    9.1270  -18.3167   19.9364 C   0  0  0  0  0  0  0  0  0  0  0  0
    8.8140  -19.0030   18.6696 C   0  0  0  0  0  0  0  0  0  0  0  0
    7.5470  -19.4315   18.3340 C   0  0  0  0  0  0  0  0  0  0  0  0
    7.5862  -20.0136   17.1302 N   0  0  0  0  0  0  0  0  0  0  0  0
    8.8435  -19.9666   16.6918 C   0  0  0  0  0  0  0  0  0  0  0  0
    9.6034  -19.3454   17.6359 N   0  0  0  0  0  0  0  0  0  0  0  0
    9.4581  -16.2409   21.1138 C   0  0  0  0  0  0  0  0  0  0  0  0
   10.5533  -16.4139   21.7344 O   0  0  0  0  0  0  0  0  0  0  0  0
    7.0529  -11.5595   28.3515 O   0  0  0  0  0  0  0  0  0  0  0  0
    7.1073  -12.1787   27.0967 C   0  0  0  0  0  0  0  0  0  0  0  0
    6.3721  -13.3096   26.8017 C   0  0  0  0  0  0  0  0  0  0  0  0
    6.4391  -13.9087   25.5530 C   0  0  0  0  0  0  0  0  0  0  0  0
    7.2501  -13.3884   24.5574 C   0  0  0  0  0  0  0  0  0  0  0  0
    7.3290  -14.0244   23.2216 C   0  0  0  0  0  0  0  0  0  0  0  0
    8.5346  -14.8691   23.0076 C   0  0  2  0  0  0  0  0  0  0  0  0
    8.3889  -15.5103   21.7028 N   0  0  0  0  0  0  0  0  0  0  0  0
    8.7943  -15.8663   24.0691 C   0  0  0  0  0  0  0  0  0  0  0  0
    7.9471  -16.7721   24.2344 O   0  0  0  0  0  0  0  0  0  0  0  0
    7.9751  -12.2589   24.8742 C   0  0  0  0  0  0  0  0  0  0  0  0
    7.9101  -11.6579   26.1215 C   0  0  0  0  0  0  0  0  0  0  0  0
    9.9263  -15.8560   24.8951 N   0  0  0  0  0  0  0  0  0  0  0  0
   10.0485  -16.9030   26.0121 C   0  0  1  0  0  0  0  0  0  0  0  0
   11.3356  -17.5760   25.7826 C   0  0  0  0  0  0  0  0  0  0  0  0
   11.5935  -18.2874   24.5424 C   0  0  0  0  0  0  0  0  0  0  0  0
   12.8453  -19.0054   24.2593 C   0  0  0  0  0  0  0  0  0  0  0  0
   12.8152  -19.6085   22.8274 C   0  0  0  0  0  0  0  0  0  0  0  0
   14.0820  -20.2529   22.6144 N   0  0  0  0  0  0  0  0  0  0  0  0
    9.9016  -16.1074   27.2526 C   0  0  0  0  0  0  0  0  0  0  0  0
    9.9011  -14.7495   27.3937 O   0  0  0  0  0  0  0  0  0  0  0  0
    9.7574  -16.7364   28.3751 O   0  0  0  0  0  0  0  0  0  0  0  0
  2  1  1  1
  3  2  1  0
  3  4  1  0
  4  5  2  0
  5  6  1  0
  7  6  1  0
  8  4  1  0
  8  7  2  0
  9 18  1  0
  9  2  1  0
 10  9  2  0
 12 11  1  0
 13 12  2  0
 14 13  1  0
 15 14  2  0
 15 21  1  0
 16 15  1  0
 17 16  1  1
 17 18  1  0
 19 23  1  0
 19 17  1  0
 20 19  2  0
 21 22  2  0
 22 12  1  0
 24 23  1  0
 24 30  1  0
 24 25  1  1
 26 25  1  0
 27 28  1  0
 27 26  1  0
 28 29  1  0
 30 31  1  0
 32 30  2  0
M  END
$$$$
