HYK.pdb
     RDKit          3D

 32 33  0  0  1  0  0  0  0  0999 V2000
    9.9373  -16.9033   18.8903 N   0  0  0  0  0  0  0  0  0  0  0  0
    8.6777  -16.9582   19.6496 C   0  0  1  0  0  0  0  0  0  0  0  0
    8.4224  -18.4150   19.9339 C   0  0  0  0  0  0  0  0  0  0  0  0
    7.3493  -18.9771   19.0936 C   0  0  0  0  0  0  0  0  0  0  0  0
    6.0115  -18.8915   19.4168 C   0  0  0  0  0  0  0  0  0  0  0  0
    5.2913  -19.4923   18.4631 N   0  0  0  0  0  0  0  0  0  0  0  0
    6.1349  -19.9573   17.5426 C   0  0  0  0  0  0  0  0  0  0  0  0
    7.4032  -19.6427   17.9261 N   0  0  0  0  0  0  0  0  0  0  0  0
    8.9411  -16.2976   20.9599 C   0  0  0  0  0  0  0  0  0  0  0  0
   10.0874  -16.4934   21.4721 O   0  0  0  0  0  0  0  0  0  0  0  0
    7.1298  -11.7411   28.4594 O   0  0  0  0  0  0  0  0  0  0  0  0
    7.1616  -12.2589   27.1587 C   0  0  0  0  0  0  0  0  0  0  0  0
    8.2030  -12.0013   26.2894 C   0  0  0  0  0  0  0  0  0  0  0  0
    8.2168  -12.5232   25.0048 C   0  0  0  0  0  0  0  0  0  0  0  0
    7.1806  -13.3234   24.5514 C   0  0  0  0  0  0  0  0  0  0  0  0
    7.1869  -13.8825   23.1794 C   0  0  0  0  0  0  0  0  0  0  0  0
    8.2308  -14.9136   22.9350 C   0  0  2  0  0  0  0  0  0  0  0  0
    7.9732  -15.4878   21.6164 N   0  0  0  0  0  0  0  0  0  0  0  0
    8.3221  -15.9668   23.9699 C   0  0  0  0  0  0  0  0  0  0  0  0
    7.3529  -16.7492   24.0888 O   0  0  0  0  0  0  0  0  0  0  0  0
    6.1514  -13.5673   25.4363 C   0  0  0  0  0  0  0  0  0  0  0  0
    6.1350  -13.0470   26.7210 C   0  0  0  0  0  0  0  0  0  0  0  0
    9.4233  -16.1384   24.8195 N   0  0  0  0  0  0  0  0  0  0  0  0
    9.4024  -17.2742   25.8531 C   0  0  1  0  0  0  0  0  0  0  0  0
   10.2245  -18.3480   25.2756 C   0  0  0  0  0  0  0  0  0  0  0  0
   10.5735  -19.5216   26.0578 C   0  0  0  0  0  0  0  0  0  0  0  0
   11.4501  -20.5963   25.5689 C   0  0  0  0  0  0  0  0  0  0  0  0
   11.7200  -21.6332   26.6943 C   0  0  0  0  0  0  0  0  0  0  0  0
   12.6145  -22.6195   26.1537 N   0  0  0  0  0  0  0  0  0  0  0  0
    9.8911  -16.6265   27.0921 C   0  0  0  0  0  0  0  0  0  0  0  0
    9.6593  -16.9909   28.3871 O   0  0  0  0  0  0  0  0  0  0  0  0
   10.6338  -15.5714   26.9846 O   0  0  0  0  0  0  0  0  0  0  0  0
  2  1  1  6
  3  2  1  0
  3  4  1  0
  4  5  2  0
  5  6  1  0
  7  6  1  0
  8  4  1  0
  8  7  2  0
  9 18  1  0
  9  2  1  0
 10  9  2  0
 12 11  1  0
 13 12  2  0
 14 13  1  0
 15 14  2  0
 15 21  1  0
 16 15  1  0
 17 16  1  1
 17 18  1  0
 19 23  1  0
 19 17  1  0
 20 19  2  0
 21 22  2  0
 22 12  1  0
 24 23  1  0
 24 30  1  0
 24 25  1  6
 26 25  1  0
 27 28  1  0
 27 26  1  0
 28 29  1  0
 30 31  1  0
 32 30  2  0
M  END
$$$$
