HYK.pdb
     RDKit          3D

 32 33  0  0  1  0  0  0  0  0999 V2000
   10.2178  -13.1711   19.8576 N   0  0  0  0  0  0  0  0  0  0  0  0
    9.0630  -13.6887   20.6090 C   0  0  1  0  0  0  0  0  0  0  0  0
    8.5333  -14.8534   19.8146 C   0  0  0  0  0  0  0  0  0  0  0  0
    7.8762  -14.4342   18.5632 C   0  0  0  0  0  0  0  0  0  0  0  0
    7.9353  -13.1471   18.0717 C   0  0  0  0  0  0  0  0  0  0  0  0
    7.2445  -13.0831   16.9279 N   0  0  0  0  0  0  0  0  0  0  0  0
    6.7481  -14.2942   16.6793 C   0  0  0  0  0  0  0  0  0  0  0  0
    7.1341  -15.1297   17.6831 N   0  0  0  0  0  0  0  0  0  0  0  0
    9.5984  -14.2394   21.8867 C   0  0  0  0  0  0  0  0  0  0  0  0
   10.7387  -14.7969   21.8289 O   0  0  0  0  0  0  0  0  0  0  0  0
   10.4963  -15.5054   30.6800 O   0  0  0  0  0  0  0  0  0  0  0  0
   10.0346  -15.1678   29.4018 C   0  0  0  0  0  0  0  0  0  0  0  0
    9.0823  -15.9185   28.7414 C   0  0  0  0  0  0  0  0  0  0  0  0
    8.6374  -15.5682   27.4756 C   0  0  0  0  0  0  0  0  0  0  0  0
    9.1372  -14.4482   26.8311 C   0  0  0  0  0  0  0  0  0  0  0  0
    8.6687  -14.0690   25.4776 C   0  0  0  0  0  0  0  0  0  0  0  0
    9.4556  -14.6588   24.3615 C   0  0  2  0  0  0  0  0  0  0  0  0
    8.8850  -14.1545   23.1146 N   0  0  0  0  0  0  0  0  0  0  0  0
    9.5256  -16.1365   24.3601 C   0  0  0  0  0  0  0  0  0  0  0  0
    8.4857  -16.7666   24.0649 O   0  0  0  0  0  0  0  0  0  0  0  0
   10.0871  -13.7137   27.5092 C   0  0  0  0  0  0  0  0  0  0  0  0
   10.5337  -14.0615   28.7745 C   0  0  0  0  0  0  0  0  0  0  0  0
   10.6810  -16.8674   24.6680 N   0  0  0  0  0  0  0  0  0  0  0  0
   10.5986  -18.3987   24.7529 C   0  0  1  0  0  0  0  0  0  0  0  0
   11.5360  -18.9010   23.7373 C   0  0  0  0  0  0  0  0  0  0  0  0
   11.3788  -18.5450   22.3376 C   0  0  0  0  0  0  0  0  0  0  0  0
   12.3145  -18.9581   21.2811 C   0  0  0  0  0  0  0  0  0  0  0  0
   11.8679  -18.3900   19.9054 C   0  0  0  0  0  0  0  0  0  0  0  0
   12.8683  -18.7709   18.9466 N   0  0  0  0  0  0  0  0  0  0  0  0
   10.9066  -18.6857   26.1729 C   0  0  0  0  0  0  0  0  0  0  0  0
   10.6216  -19.8110   26.8913 O   0  0  0  0  0  0  0  0  0  0  0  0
   11.5204  -17.7804   26.8658 O   0  0  0  0  0  0  0  0  0  0  0  0
  2  1  1  6
  3  2  1  0
  3  4  1  0
  4  5  2  0
  5  6  1  0
  7  6  1  0
  8  4  1  0
  8  7  2  0
  9 18  1  0
  9  2  1  0
 10  9  2  0
 12 11  1  0
 13 12  2  0
 14 13  1  0
 15 14  2  0
 15 21  1  0
 16 15  1  0
 17 16  1  1
 17 18  1  0
 19 23  1  0
 19 17  1  0
 20 19  2  0
 21 22  2  0
 22 12  1  0
 24 23  1  0
 24 30  1  0
 24 25  1  6
 26 25  1  0
 27 28  1  0
 27 26  1  0
 28 29  1  0
 30 31  1  0
 32 30  2  0
M  END
$$$$
