HYK.pdb
     RDKit          3D

 32 33  0  0  1  0  0  0  0  0999 V2000
   10.4971  -16.6072   18.9534 N   0  0  0  0  0  0  0  0  0  0  0  0
    9.1247  -16.3377   19.4116 C   0  0  1  0  0  0  0  0  0  0  0  0
    8.4030  -17.6591   19.3749 C   0  0  0  0  0  0  0  0  0  0  0  0
    7.9105  -17.9990   18.0275 C   0  0  0  0  0  0  0  0  0  0  0  0
    8.1771  -17.2369   16.9097 C   0  0  0  0  0  0  0  0  0  0  0  0
    7.5962  -17.8022   15.8456 N   0  0  0  0  0  0  0  0  0  0  0  0
    6.9678  -18.9027   16.2567 C   0  0  0  0  0  0  0  0  0  0  0  0
    7.1582  -19.0284   17.5994 N   0  0  0  0  0  0  0  0  0  0  0  0
    9.2250  -15.9348   20.8434 C   0  0  0  0  0  0  0  0  0  0  0  0
   10.1804  -16.4437   21.5089 O   0  0  0  0  0  0  0  0  0  0  0  0
    6.9863  -12.0325   28.5851 O   0  0  0  0  0  0  0  0  0  0  0  0
    7.1022  -12.4147   27.2429 C   0  0  0  0  0  0  0  0  0  0  0  0
    8.1491  -11.9954   26.4463 C   0  0  0  0  0  0  0  0  0  0  0  0
    8.2469  -12.3845   25.1189 C   0  0  0  0  0  0  0  0  0  0  0  0
    7.2922  -13.2105   24.5481 C   0  0  0  0  0  0  0  0  0  0  0  0
    7.3883  -13.6284   23.1299 C   0  0  0  0  0  0  0  0  0  0  0  0
    8.4358  -14.6478   22.8538 C   0  0  2  0  0  0  0  0  0  0  0  0
    8.3093  -15.0304   21.4494 N   0  0  0  0  0  0  0  0  0  0  0  0
    8.4011  -15.8335   23.7377 C   0  0  0  0  0  0  0  0  0  0  0  0
    7.4815  -16.6632   23.5601 O   0  0  0  0  0  0  0  0  0  0  0  0
    6.2558  -13.6168   25.3621 C   0  0  0  0  0  0  0  0  0  0  0  0
    6.1555  -13.2294   26.6892 C   0  0  0  0  0  0  0  0  0  0  0  0
    9.3317  -16.0804   24.7560 N   0  0  0  0  0  0  0  0  0  0  0  0
    9.1928  -17.3521   25.6059 C   0  0  1  0  0  0  0  0  0  0  0  0
   10.0461  -18.3570   24.9545 C   0  0  0  0  0  0  0  0  0  0  0  0
   10.3244  -19.6288   25.5993 C   0  0  0  0  0  0  0  0  0  0  0  0
   11.1545  -20.6834   24.9983 C   0  0  0  0  0  0  0  0  0  0  0  0
   11.3365  -21.8651   25.9910 C   0  0  0  0  0  0  0  0  0  0  0  0
   12.2708  -22.7785   25.3927 N   0  0  0  0  0  0  0  0  0  0  0  0
    9.5741  -16.9054   26.9656 C   0  0  0  0  0  0  0  0  0  0  0  0
    9.2594  -17.4768   28.1648 O   0  0  0  0  0  0  0  0  0  0  0  0
   10.2950  -15.8365   27.0839 O   0  0  0  0  0  0  0  0  0  0  0  0
  2  1  1  1
  3  2  1  0
  3  4  1  0
  4  5  2  0
  5  6  1  0
  7  6  1  0
  8  4  1  0
  8  7  2  0
  9 18  1  0
  9  2  1  0
 10  9  2  0
 12 11  1  0
 13 12  2  0
 14 13  1  0
 15 14  2  0
 15 21  1  0
 16 15  1  0
 17 16  1  1
 17 18  1  0
 19 23  1  0
 19 17  1  0
 20 19  2  0
 21 22  2  0
 22 12  1  0
 24 23  1  0
 24 30  1  0
 24 25  1  6
 26 25  1  0
 27 28  1  0
 27 26  1  0
 28 29  1  0
 30 31  1  0
 32 30  2  0
M  END
$$$$
