HYK.pdb
     RDKit          3D

 32 33  0  0  1  0  0  0  0  0999 V2000
    9.9270  -17.0863   18.6753 N   0  0  0  0  0  0  0  0  0  0  0  0
    8.7159  -17.2388   19.4974 C   0  0  1  0  0  0  0  0  0  0  0  0
    8.6101  -18.7059   19.8207 C   0  0  0  0  0  0  0  0  0  0  0  0
    8.1505  -19.5079   18.6722 C   0  0  0  0  0  0  0  0  0  0  0  0
    6.8300  -19.8476   18.4663 C   0  0  0  0  0  0  0  0  0  0  0  0
    6.7341  -20.5736   17.3469 N   0  0  0  0  0  0  0  0  0  0  0  0
    7.9575  -20.7045   16.8359 C   0  0  0  0  0  0  0  0  0  0  0  0
    8.8332  -20.0501   17.6481 N   0  0  0  0  0  0  0  0  0  0  0  0
    8.9798  -16.5271   20.7805 C   0  0  0  0  0  0  0  0  0  0  0  0
   10.1778  -16.5483   21.2035 O   0  0  0  0  0  0  0  0  0  0  0  0
    7.3183  -11.7392   28.1579 O   0  0  0  0  0  0  0  0  0  0  0  0
    7.2487  -12.3813   26.9154 C   0  0  0  0  0  0  0  0  0  0  0  0
    6.5172  -13.5368   26.7244 C   0  0  0  0  0  0  0  0  0  0  0  0
    6.4602  -14.1585   25.4862 C   0  0  0  0  0  0  0  0  0  0  0  0
    7.1389  -13.6368   24.3968 C   0  0  0  0  0  0  0  0  0  0  0  0
    7.0850  -14.2968   23.0715 C   0  0  0  0  0  0  0  0  0  0  0  0
    8.2404  -15.1852   22.7739 C   0  0  2  0  0  0  0  0  0  0  0  0
    7.9576  -15.8548   21.5065 N   0  0  0  0  0  0  0  0  0  0  0  0
    8.5657  -16.1625   23.8358 C   0  0  0  0  0  0  0  0  0  0  0  0
    7.8071  -17.1486   23.9693 O   0  0  0  0  0  0  0  0  0  0  0  0
    7.8627  -12.4827   24.6107 C   0  0  0  0  0  0  0  0  0  0  0  0
    7.9216  -11.8590   25.8473 C   0  0  0  0  0  0  0  0  0  0  0  0
    9.6667  -16.0495   24.6954 N   0  0  0  0  0  0  0  0  0  0  0  0
    9.9531  -17.1767   25.6984 C   0  0  1  0  0  0  0  0  0  0  0  0
   11.1957  -17.8114   25.2340 C   0  0  0  0  0  0  0  0  0  0  0  0
   11.8388  -18.8519   26.0180 C   0  0  0  0  0  0  0  0  0  0  0  0
   13.1000  -19.5020   25.6317 C   0  0  0  0  0  0  0  0  0  0  0  0
   13.5603  -20.4957   26.7342 C   0  0  0  0  0  0  0  0  0  0  0  0
   14.7241  -21.1732   26.2323 N   0  0  0  0  0  0  0  0  0  0  0  0
    9.9851  -16.4803   27.0051 C   0  0  0  0  0  0  0  0  0  0  0  0
   10.2031  -15.1560   27.2547 O   0  0  0  0  0  0  0  0  0  0  0  0
    9.7916  -17.1763   28.0796 O   0  0  0  0  0  0  0  0  0  0  0  0
  2  1  1  6
  3  2  1  0
  3  4  1  0
  4  5  2  0
  5  6  1  0
  7  6  1  0
  8  4  1  0
  8  7  2  0
  9 18  1  0
  9  2  1  0
 10  9  2  0
 12 11  1  0
 13 12  2  0
 14 13  1  0
 15 14  2  0
 15 21  1  0
 16 15  1  0
 17 16  1  1
 17 18  1  0
 19 23  1  0
 19 17  1  0
 20 19  2  0
 21 22  2  0
 22 12  1  0
 24 23  1  0
 24 30  1  0
 24 25  1  6
 26 25  1  0
 27 28  1  0
 27 26  1  0
 28 29  1  0
 30 31  1  0
 32 30  2  0
M  END
$$$$
