HYK.pdb
     RDKit          3D

 32 33  0  0  1  0  0  0  0  0999 V2000
   13.0996  -17.0784   14.9931 N   0  0  0  0  0  0  0  0  0  0  0  0
   12.1157  -17.1787   16.0831 C   0  0  1  0  0  0  0  0  0  0  0  0
   11.6246  -18.6024   16.0752 C   0  0  0  0  0  0  0  0  0  0  0  0
   10.3425  -18.7560   15.3636 C   0  0  0  0  0  0  0  0  0  0  0  0
    9.6729  -17.7040   14.7751 C   0  0  0  0  0  0  0  0  0  0  0  0
    8.5484  -18.1607   14.2126 N   0  0  0  0  0  0  0  0  0  0  0  0
    8.4852  -19.4740   14.4276 C   0  0  0  0  0  0  0  0  0  0  0  0
    9.5875  -19.8455   15.1359 N   0  0  0  0  0  0  0  0  0  0  0  0
   12.8680  -16.9837   17.3553 C   0  0  0  0  0  0  0  0  0  0  0  0
   14.0800  -17.3653   17.3603 O   0  0  0  0  0  0  0  0  0  0  0  0
   18.0411  -12.6078   17.9491 O   0  0  0  0  0  0  0  0  0  0  0  0
   16.8416  -13.1396   18.4384 C   0  0  0  0  0  0  0  0  0  0  0  0
   15.6333  -12.9377   17.8013 C   0  0  0  0  0  0  0  0  0  0  0  0
   14.4556  -13.4725   18.3012 C   0  0  0  0  0  0  0  0  0  0  0  0
   14.4550  -14.2299   19.4614 C   0  0  0  0  0  0  0  0  0  0  0  0
   13.2004  -14.8024   20.0031 C   0  0  0  0  0  0  0  0  0  0  0  0
   13.0272  -16.2593   19.7575 C   0  0  2  0  0  0  0  0  0  0  0  0
   12.2773  -16.4030   18.5119 N   0  0  0  0  0  0  0  0  0  0  0  0
   12.3829  -17.0057   20.8604 C   0  0  0  0  0  0  0  0  0  0  0  0
   11.2007  -16.7125   21.1468 O   0  0  0  0  0  0  0  0  0  0  0  0
   15.6726  -14.4184   20.0806 C   0  0  0  0  0  0  0  0  0  0  0  0
   16.8514  -13.8851   19.5833 C   0  0  0  0  0  0  0  0  0  0  0  0
   13.0150  -18.0154   21.5985 N   0  0  0  0  0  0  0  0  0  0  0  0
   12.1952  -18.8282   22.6115 C   0  0  1  0  0  0  0  0  0  0  0  0
   12.7050  -20.2043   22.5178 C   0  0  0  0  0  0  0  0  0  0  0  0
   12.5126  -20.9893   21.3105 C   0  0  0  0  0  0  0  0  0  0  0  0
   12.9912  -22.3707   21.1512 C   0  0  0  0  0  0  0  0  0  0  0  0
   12.5878  -22.9295   19.7585 C   0  0  0  0  0  0  0  0  0  0  0  0
   13.0732  -24.2803   19.6891 N   0  0  0  0  0  0  0  0  0  0  0  0
   12.4023  -18.1050   23.8873 C   0  0  0  0  0  0  0  0  0  0  0  0
   13.4666  -17.3372   24.2633 O   0  0  0  0  0  0  0  0  0  0  0  0
   11.4848  -18.1850   24.7974 O   0  0  0  0  0  0  0  0  0  0  0  0
  2  1  1  6
  3  2  1  0
  3  4  1  0
  4  5  2  0
  5  6  1  0
  7  6  1  0
  8  4  1  0
  8  7  2  0
  9 18  1  0
  9  2  1  0
 10  9  2  0
 12 11  1  0
 13 12  2  0
 14 13  1  0
 15 14  2  0
 15 21  1  0
 16 15  1  0
 17 16  1  1
 17 18  1  0
 19 23  1  0
 19 17  1  0
 20 19  2  0
 21 22  2  0
 22 12  1  0
 24 23  1  0
 24 30  1  0
 24 25  1  1
 26 25  1  0
 27 28  1  0
 27 26  1  0
 28 29  1  0
 30 31  1  0
 32 30  2  0
M  END
$$$$
