IYQ.pdb
     RDKit          3D

 30 30  0  0  1  0  0  0  0  0999 V2000
   30.4154  -10.3712  -18.1067 C   0  0  0  0  0  0  0  0  0  0  0  0
   29.5306  -11.4676  -17.5787 C   0  0  0  0  0  0  0  0  0  0  0  0
   28.0821  -11.0316  -17.5117 C   0  0  2  0  0  0  0  0  0  0  0  0
   27.9860   -9.8124  -16.6224 C   0  0  0  0  0  0  0  0  0  0  0  0
   27.1667  -12.1450  -17.0613 C   0  0  2  0  0  0  0  0  0  0  0  0
   27.4305  -13.2652  -17.9779 N   0  0  0  0  0  0  0  0  0  0  0  0
   25.7386  -11.7900  -17.1953 C   0  0  0  0  0  0  0  0  0  0  0  0
   25.2161  -11.6898  -18.3586 O   0  0  0  0  0  0  0  0  0  0  0  0
   17.1118  -10.6067  -15.7733 O   0  0  0  0  0  0  0  0  0  0  0  0
   18.4472  -10.9863  -15.7627 C   0  0  0  0  0  0  0  0  0  0  0  0
   19.1328  -11.2970  -16.9197 C   0  0  0  0  0  0  0  0  0  0  0  0
   20.4598  -11.6701  -16.8676 C   0  0  0  0  0  0  0  0  0  0  0  0
   21.1694  -11.7548  -15.6852 C   0  0  0  0  0  0  0  0  0  0  0  0
   22.5870  -12.1581  -15.6247 C   0  0  0  0  0  0  0  0  0  0  0  0
   23.5280  -11.1254  -16.1355 C   0  0  2  0  0  0  0  0  0  0  0  0
   24.9128  -11.5528  -16.0666 N   0  0  0  0  0  0  0  0  0  0  0  0
   23.4062   -9.8474  -15.4203 C   0  0  0  0  0  0  0  0  0  0  0  0
   23.9333   -9.7095  -14.2983 O   0  0  0  0  0  0  0  0  0  0  0  0
   20.4499  -11.4342  -14.5266 C   0  0  0  0  0  0  0  0  0  0  0  0
   19.1239  -11.0599  -14.5641 C   0  0  0  0  0  0  0  0  0  0  0  0
   23.0587   -4.1869  -17.7708 N   0  0  0  0  0  0  0  0  0  0  0  0
   22.7994   -3.8788  -16.4134 C   0  0  0  0  0  0  0  0  0  0  0  0
   22.7488   -2.7010  -16.0251 O   0  0  0  0  0  0  0  0  0  0  0  0
   22.5892   -5.0359  -15.4684 C   0  0  0  0  0  0  0  0  0  0  0  0
   22.7289   -6.3411  -16.1987 C   0  0  0  0  0  0  0  0  0  0  0  0
   22.5634   -7.4943  -15.2684 C   0  0  2  0  0  0  0  0  0  0  0  0
   22.7014   -8.7651  -15.9784 N   0  0  0  0  0  0  0  0  0  0  0  0
   21.2375   -7.4543  -14.6296 C   0  0  0  0  0  0  0  0  0  0  0  0
   21.1526   -6.8017  -13.3799 O   0  0  0  0  0  0  0  0  0  0  0  0
   20.1967   -7.9449  -15.0984 O   0  0  0  0  0  0  0  0  0  0  0  0
  2  1  1  0
  3  2  1  0
  3  4  1  1
  5  3  1  0
  5  6  1  6
  7  5  1  0
  7  8  2  0
  9 10  1  0
 10 20  2  0
 11 10  1  0
 11 12  2  0
 12 13  1  0
 13 19  2  0
 13 14  1  0
 15 14  1  1
 15 16  1  0
 16  7  1  0
 17 15  1  0
 18 17  2  0
 20 19  1  0
 22 21  1  0
 22 23  2  0
 24 22  1  0
 25 24  1  0
 26 25  1  6
 26 27  1  0
 27 17  1  0
 28 29  1  0
 28 26  1  0
 30 28  2  0
M  END
$$$$
