IYQ.pdb
     RDKit          3D

 30 30  0  0  1  0  0  0  0  0999 V2000
   29.9552  -26.2191  -16.6345 C   0  0  0  0  0  0  0  0  0  0  0  0
   28.8811  -25.6700  -17.5337 C   0  0  0  0  0  0  0  0  0  0  0  0
   27.6919  -25.1701  -16.7408 C   0  0  2  0  0  0  0  0  0  0  0  0
   27.1434  -26.3156  -15.9201 C   0  0  0  0  0  0  0  0  0  0  0  0
   26.6396  -24.5375  -17.6200 C   0  0  2  0  0  0  0  0  0  0  0  0
   27.2950  -23.3776  -18.2443 N   0  0  0  0  0  0  0  0  0  0  0  0
   25.4874  -24.0313  -16.8455 C   0  0  0  0  0  0  0  0  0  0  0  0
   25.4588  -22.8064  -16.4781 O   0  0  0  0  0  0  0  0  0  0  0  0
   17.5677  -21.5156  -14.5373 O   0  0  0  0  0  0  0  0  0  0  0  0
   18.7568  -21.9747  -15.0877 C   0  0  0  0  0  0  0  0  0  0  0  0
   18.7839  -22.8541  -16.1513 C   0  0  0  0  0  0  0  0  0  0  0  0
   19.9862  -23.2873  -16.6703 C   0  0  0  0  0  0  0  0  0  0  0  0
   21.2088  -22.8798  -16.1721 C   0  0  0  0  0  0  0  0  0  0  0  0
   22.4967  -23.3443  -16.7209 C   0  0  0  0  0  0  0  0  0  0  0  0
   23.1588  -24.3907  -15.8966 C   0  0  2  0  0  0  0  0  0  0  0  0
   24.3959  -24.8641  -16.4887 N   0  0  0  0  0  0  0  0  0  0  0  0
   22.2916  -25.5523  -15.6556 C   0  0  0  0  0  0  0  0  0  0  0  0
   22.0088  -26.3231  -16.5945 O   0  0  0  0  0  0  0  0  0  0  0  0
   21.1525  -21.9876  -15.0933 C   0  0  0  0  0  0  0  0  0  0  0  0
   19.9583  -21.5466  -14.5649 C   0  0  0  0  0  0  0  0  0  0  0  0
   19.7106  -26.2239  -10.3048 N   0  0  0  0  0  0  0  0  0  0  0  0
   18.7229  -26.8091  -11.1335 C   0  0  0  0  0  0  0  0  0  0  0  0
   17.5326  -26.8393  -10.7832 O   0  0  0  0  0  0  0  0  0  0  0  0
   19.1781  -27.3891  -12.4496 C   0  0  0  0  0  0  0  0  0  0  0  0
   20.6417  -27.1252  -12.6607 C   0  0  0  0  0  0  0  0  0  0  0  0
   20.9594  -27.0064  -14.1125 C   0  0  2  0  0  0  0  0  0  0  0  0
   21.7680  -25.8171  -14.3769 N   0  0  0  0  0  0  0  0  0  0  0  0
   19.7216  -26.9189  -14.9049 C   0  0  0  0  0  0  0  0  0  0  0  0
   19.0347  -28.1288  -15.1478 O   0  0  0  0  0  0  0  0  0  0  0  0
   19.2378  -25.8745  -15.3728 O   0  0  0  0  0  0  0  0  0  0  0  0
  2  1  1  0
  3  2  1  0
  3  4  1  6
  5  3  1  0
  5  6  1  1
  7  5  1  0
  7  8  2  0
  9 10  1  0
 10 20  2  0
 11 10  1  0
 11 12  2  0
 12 13  1  0
 13 19  2  0
 13 14  1  0
 15 14  1  6
 15 16  1  0
 16  7  1  0
 17 15  1  0
 18 17  2  0
 20 19  1  0
 22 21  1  0
 22 23  2  0
 24 22  1  0
 25 24  1  0
 26 25  1  1
 26 27  1  0
 27 17  1  0
 28 29  1  0
 28 26  1  0
 30 28  2  0
M  END
$$$$
