IYQ.pdb
     RDKit          3D

 30 30  0  0  1  0  0  0  0  0999 V2000
   29.4363  -18.1338  -21.8999 C   0  0  0  0  0  0  0  0  0  0  0  0
   28.7811  -18.4669  -20.5870 C   0  0  0  0  0  0  0  0  0  0  0  0
   28.3552  -19.9188  -20.5290 C   0  0  2  0  0  0  0  0  0  0  0  0
   27.4900  -20.2162  -21.7330 C   0  0  0  0  0  0  0  0  0  0  0  0
   27.6694  -20.2652  -19.2289 C   0  0  2  0  0  0  0  0  0  0  0  0
   28.6713  -20.0214  -18.1794 N   0  0  0  0  0  0  0  0  0  0  0  0
   27.2885  -21.6911  -19.1547 C   0  0  0  0  0  0  0  0  0  0  0  0
   26.3943  -22.1510  -19.9453 O   0  0  0  0  0  0  0  0  0  0  0  0
   27.2167  -30.2956  -16.9128 O   0  0  0  0  0  0  0  0  0  0  0  0
   27.5710  -28.9704  -17.1264 C   0  0  0  0  0  0  0  0  0  0  0  0
   27.8268  -28.1003  -16.0858 C   0  0  0  0  0  0  0  0  0  0  0  0
   28.1762  -26.7902  -16.3392 C   0  0  0  0  0  0  0  0  0  0  0  0
   28.2896  -26.2778  -17.6173 C   0  0  0  0  0  0  0  0  0  0  0  0
   28.6582  -24.8763  -17.8926 C   0  0  0  0  0  0  0  0  0  0  0  0
   27.4910  -23.9667  -18.0445 C   0  0  2  0  0  0  0  0  0  0  0  0
   27.8855  -22.5823  -18.2265 N   0  0  0  0  0  0  0  0  0  0  0  0
   26.5696  -24.0347  -16.9017 C   0  0  0  0  0  0  0  0  0  0  0  0
   26.9607  -23.6977  -15.7663 O   0  0  0  0  0  0  0  0  0  0  0  0
   28.0248  -27.1818  -18.6543 C   0  0  0  0  0  0  0  0  0  0  0  0
   27.6748  -28.4934  -18.4156 C   0  0  0  0  0  0  0  0  0  0  0  0
   20.9491  -22.1078  -16.5955 N   0  0  0  0  0  0  0  0  0  0  0  0
   20.9023  -22.8966  -15.4207 C   0  0  0  0  0  0  0  0  0  0  0  0
   19.9141  -22.8654  -14.6703 O   0  0  0  0  0  0  0  0  0  0  0  0
   22.0968  -23.7691  -15.1244 C   0  0  0  0  0  0  0  0  0  0  0  0
   23.1404  -23.6098  -16.1930 C   0  0  0  0  0  0  0  0  0  0  0  0
   24.3061  -24.5039  -15.9390 C   0  0  2  0  0  0  0  0  0  0  0  0
   25.2431  -24.4756  -17.0612 N   0  0  0  0  0  0  0  0  0  0  0  0
   23.8565  -25.8912  -15.7368 C   0  0  0  0  0  0  0  0  0  0  0  0
   23.6588  -26.3079  -14.4019 O   0  0  0  0  0  0  0  0  0  0  0  0
   23.6393  -26.7171  -16.6393 O   0  0  0  0  0  0  0  0  0  0  0  0
  2  1  1  0
  3  2  1  0
  3  4  1  6
  5  3  1  0
  5  6  1  1
  7  5  1  0
  7  8  2  0
  9 10  1  0
 10 20  2  0
 11 10  1  0
 11 12  2  0
 12 13  1  0
 13 19  2  0
 13 14  1  0
 15 14  1  1
 15 16  1  0
 16  7  1  0
 17 15  1  0
 18 17  2  0
 20 19  1  0
 22 21  1  0
 22 23  2  0
 24 22  1  0
 25 24  1  0
 26 25  1  6
 26 27  1  0
 27 17  1  0
 28 29  1  0
 28 26  1  0
 30 28  2  0
M  END
$$$$
