IYQ.pdb
     RDKit          3D

 30 30  0  0  1  0  0  0  0  0999 V2000
   20.5687  -12.8834  -19.5061 C   0  0  0  0  0  0  0  0  0  0  0  0
   21.2308  -12.9647  -18.1575 C   0  0  0  0  0  0  0  0  0  0  0  0
   20.6113  -11.9954  -17.1729 C   0  0  2  0  0  0  0  0  0  0  0  0
   19.1308  -12.2871  -17.0754 C   0  0  0  0  0  0  0  0  0  0  0  0
   20.8909  -10.5551  -17.5306 C   0  0  2  0  0  0  0  0  0  0  0  0
   22.3570  -10.4372  -17.5674 N   0  0  0  0  0  0  0  0  0  0  0  0
   20.3965   -9.6130  -16.5051 C   0  0  0  0  0  0  0  0  0  0  0  0
   19.1471   -9.5676  -16.2348 O   0  0  0  0  0  0  0  0  0  0  0  0
   19.5525   -4.9152   -9.1695 O   0  0  0  0  0  0  0  0  0  0  0  0
   20.0503   -5.6679  -10.2245 C   0  0  0  0  0  0  0  0  0  0  0  0
   19.7879   -7.0169  -10.3540 C   0  0  0  0  0  0  0  0  0  0  0  0
   20.3011   -7.7304  -11.4171 C   0  0  0  0  0  0  0  0  0  0  0  0
   21.0901   -7.1561  -12.3951 C   0  0  0  0  0  0  0  0  0  0  0  0
   21.6448   -7.9165  -13.5308 C   0  0  0  0  0  0  0  0  0  0  0  0
   20.8424   -7.8044  -14.7783 C   0  0  2  0  0  0  0  0  0  0  0  0
   21.2674   -8.7443  -15.7986 N   0  0  0  0  0  0  0  0  0  0  0  0
   20.8807   -6.4532  -15.3548 C   0  0  0  0  0  0  0  0  0  0  0  0
   21.8969   -6.0658  -15.9656 O   0  0  0  0  0  0  0  0  0  0  0  0
   21.3406   -5.7865  -12.2396 C   0  0  0  0  0  0  0  0  0  0  0  0
   20.8342   -5.0613  -11.1824 C   0  0  0  0  0  0  0  0  0  0  0  0
   15.9024   -2.7358  -16.3005 N   0  0  0  0  0  0  0  0  0  0  0  0
   16.9299   -1.9300  -16.8478 C   0  0  0  0  0  0  0  0  0  0  0  0
   16.6698   -0.8396  -17.3807 O   0  0  0  0  0  0  0  0  0  0  0  0
   18.3425   -2.4513  -16.7550 C   0  0  0  0  0  0  0  0  0  0  0  0
   18.3674   -3.7744  -16.0444 C   0  0  0  0  0  0  0  0  0  0  0  0
   19.7626   -4.2823  -15.9094 C   0  0  2  0  0  0  0  0  0  0  0  0
   19.7859   -5.5780  -15.2321 N   0  0  0  0  0  0  0  0  0  0  0  0
   20.5833   -3.3340  -15.1383 C   0  0  0  0  0  0  0  0  0  0  0  0
   21.3503   -2.4076  -15.8788 O   0  0  0  0  0  0  0  0  0  0  0  0
   20.6542   -3.2844  -13.8988 O   0  0  0  0  0  0  0  0  0  0  0  0
  2  1  1  0
  3  2  1  0
  3  4  1  6
  5  3  1  0
  5  6  1  1
  7  5  1  0
  7  8  2  0
  9 10  1  0
 10 20  2  0
 11 10  1  0
 11 12  2  0
 12 13  1  0
 13 19  2  0
 13 14  1  0
 15 14  1  1
 15 16  1  0
 16  7  1  0
 17 15  1  0
 18 17  2  0
 20 19  1  0
 22 21  1  0
 22 23  2  0
 24 22  1  0
 25 24  1  0
 26 25  1  1
 26 27  1  0
 27 17  1  0
 28 29  1  0
 28 26  1  0
 30 28  2  0
M  END
$$$$
