IYQ.pdb
     RDKit          3D

 30 30  0  0  1  0  0  0  0  0999 V2000
   26.9254  -16.7093  -20.5796 C   0  0  0  0  0  0  0  0  0  0  0  0
   25.6772  -16.5531  -19.7541 C   0  0  0  0  0  0  0  0  0  0  0  0
   25.2638  -17.8622  -19.1152 C   0  0  2  0  0  0  0  0  0  0  0  0
   25.1631  -18.9155  -20.1954 C   0  0  0  0  0  0  0  0  0  0  0  0
   23.9887  -17.7346  -18.3162 C   0  0  2  0  0  0  0  0  0  0  0  0
   24.2333  -16.6457  -17.3575 N   0  0  0  0  0  0  0  0  0  0  0  0
   23.6880  -18.9527  -17.5355 C   0  0  0  0  0  0  0  0  0  0  0  0
   23.5287  -20.0696  -18.1384 O   0  0  0  0  0  0  0  0  0  0  0  0
   29.1298  -22.4266  -16.9393 O   0  0  0  0  0  0  0  0  0  0  0  0
   28.0089  -21.8995  -16.3122 C   0  0  0  0  0  0  0  0  0  0  0  0
   27.9377  -20.5774  -15.9220 C   0  0  0  0  0  0  0  0  0  0  0  0
   26.8059  -20.0912  -15.3013 C   0  0  0  0  0  0  0  0  0  0  0  0
   25.6997  -20.8756  -15.0368 C   0  0  0  0  0  0  0  0  0  0  0  0
   24.4894  -20.3609  -14.3689 C   0  0  0  0  0  0  0  0  0  0  0  0
   23.3548  -20.1037  -15.2959 C   0  0  2  0  0  0  0  0  0  0  0  0
   23.5675  -18.9303  -16.1223 N   0  0  0  0  0  0  0  0  0  0  0  0
   22.0753  -19.9427  -14.5912 C   0  0  0  0  0  0  0  0  0  0  0  0
   21.8731  -18.9296  -13.8922 O   0  0  0  0  0  0  0  0  0  0  0  0
   25.7985  -22.2128  -15.4431 C   0  0  0  0  0  0  0  0  0  0  0  0
   26.9232  -22.7118  -16.0643 C   0  0  0  0  0  0  0  0  0  0  0  0
   16.6101  -23.9751  -13.7843 N   0  0  0  0  0  0  0  0  0  0  0  0
   16.4912  -22.6285  -14.2053 C   0  0  0  0  0  0  0  0  0  0  0  0
   15.5823  -22.2787  -14.9748 O   0  0  0  0  0  0  0  0  0  0  0  0
   17.5096  -21.6465  -13.6814 C   0  0  0  0  0  0  0  0  0  0  0  0
   18.7846  -21.7428  -14.4697 C   0  0  0  0  0  0  0  0  0  0  0  0
   19.8052  -20.7861  -13.9542 C   0  0  2  0  0  0  0  0  0  0  0  0
   21.0632  -20.9152  -14.6883 N   0  0  0  0  0  0  0  0  0  0  0  0
   20.0667  -21.0321  -12.5264 C   0  0  0  0  0  0  0  0  0  0  0  0
   19.3668  -20.2246  -11.6029 O   0  0  0  0  0  0  0  0  0  0  0  0
   20.8474  -21.8859  -12.0734 O   0  0  0  0  0  0  0  0  0  0  0  0
  2  1  1  0
  3  2  1  0
  3  4  1  6
  5  3  1  0
  5  6  1  1
  7  5  1  0
  7  8  2  0
  9 10  1  0
 10 20  2  0
 11 10  1  0
 11 12  2  0
 12 13  1  0
 13 19  2  0
 13 14  1  0
 15 14  1  1
 15 16  1  0
 16  7  1  0
 17 15  1  0
 18 17  2  0
 20 19  1  0
 22 21  1  0
 22 23  2  0
 24 22  1  0
 25 24  1  0
 26 25  1  6
 26 27  1  0
 27 17  1  0
 28 29  1  0
 28 26  1  0
 30 28  2  0
M  END
$$$$
