IYQ.pdb
     RDKit          3D

 30 30  0  0  1  0  0  0  0  0999 V2000
   27.2588  -22.1665  -20.6667 C   0  0  0  0  0  0  0  0  0  0  0  0
   27.8898  -22.5905  -19.3683 C   0  0  0  0  0  0  0  0  0  0  0  0
   26.8913  -22.5698  -18.2302 C   0  0  2  0  0  0  0  0  0  0  0  0
   26.2296  -21.2106  -18.1937 C   0  0  0  0  0  0  0  0  0  0  0  0
   27.5195  -22.9389  -16.9074 C   0  0  2  0  0  0  0  0  0  0  0  0
   27.9058  -24.3526  -17.0371 N   0  0  0  0  0  0  0  0  0  0  0  0
   26.5652  -22.8419  -15.7833 C   0  0  0  0  0  0  0  0  0  0  0  0
   25.6676  -23.7408  -15.6336 O   0  0  0  0  0  0  0  0  0  0  0  0
   22.6326  -20.0414   -8.3000 O   0  0  0  0  0  0  0  0  0  0  0  0
   23.5276  -20.2561   -9.3394 C   0  0  0  0  0  0  0  0  0  0  0  0
   24.5596  -21.1679   -9.2450 C   0  0  0  0  0  0  0  0  0  0  0  0
   25.4285  -21.3526  -10.3003 C   0  0  0  0  0  0  0  0  0  0  0  0
   25.3247  -20.6553  -11.4885 C   0  0  0  0  0  0  0  0  0  0  0  0
   26.2545  -20.8462  -12.6175 C   0  0  0  0  0  0  0  0  0  0  0  0
   25.6673  -21.5975  -13.7592 C   0  0  2  0  0  0  0  0  0  0  0  0
   26.6073  -21.7743  -14.8502 N   0  0  0  0  0  0  0  0  0  0  0  0
   24.4582  -20.9566  -14.2948 C   0  0  0  0  0  0  0  0  0  0  0  0
   24.5540  -19.9084  -14.9639 O   0  0  0  0  0  0  0  0  0  0  0  0
   24.2689  -19.7368  -11.5575 C   0  0  0  0  0  0  0  0  0  0  0  0
   23.3934  -19.5422  -10.5109 C   0  0  0  0  0  0  0  0  0  0  0  0
   20.5442  -22.4129  -18.1342 N   0  0  0  0  0  0  0  0  0  0  0  0
   19.7900  -21.3441  -17.5924 C   0  0  0  0  0  0  0  0  0  0  0  0
   18.8792  -20.8107  -18.2456 O   0  0  0  0  0  0  0  0  0  0  0  0
   20.1398  -20.8866  -16.1981 C   0  0  0  0  0  0  0  0  0  0  0  0
   21.4080  -21.5439  -15.7333 C   0  0  0  0  0  0  0  0  0  0  0  0
   21.9692  -20.8415  -14.5441 C   0  0  2  0  0  0  0  0  0  0  0  0
   23.1823  -21.5043  -14.0675 N   0  0  0  0  0  0  0  0  0  0  0  0
   20.9856  -20.8170  -13.4489 C   0  0  0  0  0  0  0  0  0  0  0  0
   20.0035  -19.8032  -13.4981 O   0  0  0  0  0  0  0  0  0  0  0  0
   20.9513  -21.6103  -12.4933 O   0  0  0  0  0  0  0  0  0  0  0  0
  2  1  1  0
  3  2  1  0
  3  4  1  1
  5  3  1  0
  5  6  1  6
  7  5  1  0
  7  8  2  0
  9 10  1  0
 10 20  2  0
 11 10  1  0
 11 12  2  0
 12 13  1  0
 13 19  2  0
 13 14  1  0
 15 14  1  1
 15 16  1  0
 16  7  1  0
 17 15  1  0
 18 17  2  0
 20 19  1  0
 22 21  1  0
 22 23  2  0
 24 22  1  0
 25 24  1  0
 26 25  1  6
 26 27  1  0
 27 17  1  0
 28 29  1  0
 28 26  1  0
 30 28  2  0
M  END
$$$$
