IYQ.pdb
     RDKit          3D

 30 30  0  0  1  0  0  0  0  0999 V2000
   16.2979  -16.3684  -17.3155 C   0  0  0  0  0  0  0  0  0  0  0  0
   16.8529  -15.4301  -16.2785 C   0  0  0  0  0  0  0  0  0  0  0  0
   17.1271  -14.0582  -16.8578 C   0  0  2  0  0  0  0  0  0  0  0  0
   18.0661  -14.2098  -18.0333 C   0  0  0  0  0  0  0  0  0  0  0  0
   17.6531  -13.0919  -15.8232 C   0  0  2  0  0  0  0  0  0  0  0  0
   16.5809  -12.9649  -14.8237 N   0  0  0  0  0  0  0  0  0  0  0  0
   17.8993  -11.7463  -16.3819 C   0  0  0  0  0  0  0  0  0  0  0  0
   18.8251  -11.5786  -17.2484 O   0  0  0  0  0  0  0  0  0  0  0  0
   16.8343   -3.1459  -18.3873 O   0  0  0  0  0  0  0  0  0  0  0  0
   16.6470   -4.4526  -17.9572 C   0  0  0  0  0  0  0  0  0  0  0  0
   16.4155   -4.7652  -16.6329 C   0  0  0  0  0  0  0  0  0  0  0  0
   16.2342   -6.0765  -16.2450 C   0  0  0  0  0  0  0  0  0  0  0  0
   16.2719   -7.1337  -17.1336 C   0  0  0  0  0  0  0  0  0  0  0  0
   16.0835   -8.5377  -16.7223 C   0  0  0  0  0  0  0  0  0  0  0  0
   17.3558   -9.2667  -16.4725 C   0  0  2  0  0  0  0  0  0  0  0  0
   17.1368  -10.6167  -15.9882 N   0  0  0  0  0  0  0  0  0  0  0  0
   18.2262   -8.5712  -15.5142 C   0  0  0  0  0  0  0  0  0  0  0  0
   17.8563   -8.4216  -14.3325 O   0  0  0  0  0  0  0  0  0  0  0  0
   16.5083   -6.7886  -18.4707 C   0  0  0  0  0  0  0  0  0  0  0  0
   16.6911   -5.4827  -18.8722 C   0  0  0  0  0  0  0  0  0  0  0  0
   23.9853  -10.5890  -15.0416 N   0  0  0  0  0  0  0  0  0  0  0  0
   23.1008   -9.7603  -14.3098 C   0  0  0  0  0  0  0  0  0  0  0  0
   23.0314   -9.8369  -13.0729 O   0  0  0  0  0  0  0  0  0  0  0  0
   22.2540   -8.7886  -15.0937 C   0  0  0  0  0  0  0  0  0  0  0  0
   21.2205   -8.1580  -14.2046 C   0  0  0  0  0  0  0  0  0  0  0  0
   20.3058   -7.2793  -14.9881 C   0  0  2  0  0  0  0  0  0  0  0  0
   19.4800   -8.0652  -15.9037 N   0  0  0  0  0  0  0  0  0  0  0  0
   21.0780   -6.3018  -15.7729 C   0  0  0  0  0  0  0  0  0  0  0  0
   21.7918   -5.3236  -15.0461 O   0  0  0  0  0  0  0  0  0  0  0  0
   21.1508   -6.2695  -17.0128 O   0  0  0  0  0  0  0  0  0  0  0  0
  2  1  1  0
  3  2  1  0
  3  4  1  6
  5  3  1  0
  5  6  1  1
  7  5  1  0
  7  8  2  0
  9 10  1  0
 10 20  2  0
 11 10  1  0
 11 12  2  0
 12 13  1  0
 13 19  2  0
 13 14  1  0
 15 14  1  1
 15 16  1  0
 16  7  1  0
 17 15  1  0
 18 17  2  0
 20 19  1  0
 22 21  1  0
 22 23  2  0
 24 22  1  0
 25 24  1  0
 26 25  1  6
 26 27  1  0
 27 17  1  0
 28 29  1  0
 28 26  1  0
 30 28  2  0
M  END
$$$$
