IYQ.pdb
     RDKit          3D

 30 30  0  0  1  0  0  0  0  0999 V2000
   26.0217  -20.7225  -19.9663 C   0  0  0  0  0  0  0  0  0  0  0  0
   26.7039  -21.5447  -18.9069 C   0  0  0  0  0  0  0  0  0  0  0  0
   27.9318  -20.8453  -18.3629 C   0  0  2  0  0  0  0  0  0  0  0  0
   28.8402  -20.4959  -19.5201 C   0  0  0  0  0  0  0  0  0  0  0  0
   28.6364  -21.6607  -17.3049 C   0  0  2  0  0  0  0  0  0  0  0  0
   28.8238  -22.9944  -17.8972 N   0  0  0  0  0  0  0  0  0  0  0  0
   27.8194  -21.8286  -16.0851 C   0  0  0  0  0  0  0  0  0  0  0  0
   27.1807  -22.9204  -15.8945 O   0  0  0  0  0  0  0  0  0  0  0  0
   24.5941  -20.4436   -7.8983 O   0  0  0  0  0  0  0  0  0  0  0  0
   25.3012  -20.3568   -9.0900 C   0  0  0  0  0  0  0  0  0  0  0  0
   26.3719  -21.1810   -9.3717 C   0  0  0  0  0  0  0  0  0  0  0  0
   27.0492  -21.0637  -10.5677 C   0  0  0  0  0  0  0  0  0  0  0  0
   26.7087  -20.1380  -11.5350 C   0  0  0  0  0  0  0  0  0  0  0  0
   27.4333  -20.0059  -12.8130 C   0  0  0  0  0  0  0  0  0  0  0  0
   26.9479  -20.9253  -13.8769 C   0  0  2  0  0  0  0  0  0  0  0  0
   27.7149  -20.8103  -15.1031 N   0  0  0  0  0  0  0  0  0  0  0  0
   25.5301  -20.7150  -14.2012 C   0  0  0  0  0  0  0  0  0  0  0  0
   25.1959  -19.7753  -14.9502 O   0  0  0  0  0  0  0  0  0  0  0  0
   25.6188  -19.3146  -11.2236 C   0  0  0  0  0  0  0  0  0  0  0  0
   24.9330  -19.4210  -10.0327 C   0  0  0  0  0  0  0  0  0  0  0  0
   21.0710  -25.0043  -14.3533 N   0  0  0  0  0  0  0  0  0  0  0  0
   20.3022  -23.8510  -14.6423 C   0  0  0  0  0  0  0  0  0  0  0  0
   19.1177  -23.9473  -15.0006 O   0  0  0  0  0  0  0  0  0  0  0  0
   20.9811  -22.5117  -14.4967 C   0  0  0  0  0  0  0  0  0  0  0  0
   22.4212  -22.6932  -14.1101 C   0  0  0  0  0  0  0  0  0  0  0  0
   23.1221  -21.3799  -14.0278 C   0  0  2  0  0  0  0  0  0  0  0  0
   24.5313  -21.5582  -13.6807 N   0  0  0  0  0  0  0  0  0  0  0  0
   22.4920  -20.5230  -13.0099 C   0  0  0  0  0  0  0  0  0  0  0  0
   21.3112  -19.8473  -13.3893 O   0  0  0  0  0  0  0  0  0  0  0  0
   22.9128  -20.3485  -11.8540 O   0  0  0  0  0  0  0  0  0  0  0  0
  2  1  1  0
  3  2  1  0
  3  4  1  6
  5  3  1  0
  5  6  1  6
  7  5  1  0
  7  8  2  0
  9 10  1  0
 10 20  2  0
 11 10  1  0
 11 12  2  0
 12 13  1  0
 13 19  2  0
 13 14  1  0
 15 14  1  1
 15 16  1  0
 16  7  1  0
 17 15  1  0
 18 17  2  0
 20 19  1  0
 22 21  1  0
 22 23  2  0
 24 22  1  0
 25 24  1  0
 26 25  1  1
 26 27  1  0
 27 17  1  0
 28 29  1  0
 28 26  1  0
 30 28  2  0
M  END
$$$$
