IYQ.pdb
     RDKit          3D

 30 30  0  0  1  0  0  0  0  0999 V2000
   27.0864  -23.5016  -19.6827 C   0  0  0  0  0  0  0  0  0  0  0  0
   27.2376  -23.6310  -18.1914 C   0  0  0  0  0  0  0  0  0  0  0  0
   25.9728  -23.2235  -17.4654 C   0  0  2  0  0  0  0  0  0  0  0  0
   25.5861  -21.8322  -17.9139 C   0  0  0  0  0  0  0  0  0  0  0  0
   26.1127  -23.3255  -15.9652 C   0  0  2  0  0  0  0  0  0  0  0  0
   26.3899  -24.7444  -15.6923 N   0  0  0  0  0  0  0  0  0  0  0  0
   24.8643  -22.9740  -15.2571 C   0  0  0  0  0  0  0  0  0  0  0  0
   23.8618  -23.7670  -15.3066 O   0  0  0  0  0  0  0  0  0  0  0  0
   19.1542  -18.4415  -10.1042 O   0  0  0  0  0  0  0  0  0  0  0  0
   20.2893  -18.8899  -10.7660 C   0  0  0  0  0  0  0  0  0  0  0  0
   20.7216  -18.3263  -11.9495 C   0  0  0  0  0  0  0  0  0  0  0  0
   21.8549  -18.8003  -12.5771 C   0  0  0  0  0  0  0  0  0  0  0  0
   22.6103  -19.8423  -12.0748 C   0  0  0  0  0  0  0  0  0  0  0  0
   23.8199  -20.3554  -12.7452 C   0  0  0  0  0  0  0  0  0  0  0  0
   23.5412  -21.3828  -13.7842 C   0  0  2  0  0  0  0  0  0  0  0  0
   24.7332  -21.7731  -14.5135 N   0  0  0  0  0  0  0  0  0  0  0  0
   22.5318  -20.9424  -14.7572 C   0  0  0  0  0  0  0  0  0  0  0  0
   22.8462  -20.1427  -15.6613 O   0  0  0  0  0  0  0  0  0  0  0  0
   22.1494  -20.3958  -10.8731 C   0  0  0  0  0  0  0  0  0  0  0  0
   21.0189  -19.9321  -10.2354 C   0  0  0  0  0  0  0  0  0  0  0  0
   18.5935  -24.0852  -17.9132 N   0  0  0  0  0  0  0  0  0  0  0  0
   18.1794  -22.7866  -18.2966 C   0  0  0  0  0  0  0  0  0  0  0  0
   17.4525  -22.6157  -19.2881 O   0  0  0  0  0  0  0  0  0  0  0  0
   18.6569  -21.6302  -17.4536 C   0  0  0  0  0  0  0  0  0  0  0  0
   19.6564  -22.1010  -16.4359 C   0  0  0  0  0  0  0  0  0  0  0  0
   20.1890  -20.9575  -15.6413 C   0  0  2  0  0  0  0  0  0  0  0  0
   21.2055  -21.4072  -14.6912 N   0  0  0  0  0  0  0  0  0  0  0  0
   19.1042  -20.3007  -14.8934 C   0  0  0  0  0  0  0  0  0  0  0  0
   18.5176  -19.1631  -15.4904 O   0  0  0  0  0  0  0  0  0  0  0  0
   18.6678  -20.6645  -13.7884 O   0  0  0  0  0  0  0  0  0  0  0  0
  2  1  1  0
  3  2  1  0
  3  4  1  1
  5  3  1  0
  5  6  1  6
  7  5  1  0
  7  8  2  0
  9 10  1  0
 10 20  2  0
 11 10  1  0
 11 12  2  0
 12 13  1  0
 13 19  2  0
 13 14  1  0
 15 14  1  1
 15 16  1  0
 16  7  1  0
 17 15  1  0
 18 17  2  0
 20 19  1  0
 22 21  1  0
 22 23  2  0
 24 22  1  0
 25 24  1  0
 26 25  1  1
 26 27  1  0
 27 17  1  0
 28 29  1  0
 28 26  1  0
 30 28  2  0
M  END
$$$$
