IYQ.pdb
     RDKit          3D

 30 30  0  0  1  0  0  0  0  0999 V2000
   26.1171  -18.8691  -19.3681 C   0  0  0  0  0  0  0  0  0  0  0  0
   27.0565  -19.2053  -18.2420 C   0  0  0  0  0  0  0  0  0  0  0  0
   26.3267  -19.8435  -17.0789 C   0  0  2  0  0  0  0  0  0  0  0  0
   25.1188  -18.9975  -16.7447 C   0  0  0  0  0  0  0  0  0  0  0  0
   27.2256  -20.0589  -15.8846 C   0  0  2  0  0  0  0  0  0  0  0  0
   28.2650  -20.9956  -16.3395 N   0  0  0  0  0  0  0  0  0  0  0  0
   26.5187  -20.6966  -14.7544 C   0  0  0  0  0  0  0  0  0  0  0  0
   26.1563  -21.9202  -14.8418 O   0  0  0  0  0  0  0  0  0  0  0  0
   31.2762  -21.9614  -10.0801 O   0  0  0  0  0  0  0  0  0  0  0  0
   29.9801  -21.5244  -10.3176 C   0  0  0  0  0  0  0  0  0  0  0  0
   28.8905  -22.0631   -9.6635 C   0  0  0  0  0  0  0  0  0  0  0  0
   27.6177  -21.6016   -9.9273 C   0  0  0  0  0  0  0  0  0  0  0  0
   27.3581  -20.5969  -10.8394 C   0  0  0  0  0  0  0  0  0  0  0  0
   25.9982  -20.1038  -11.1281 C   0  0  0  0  0  0  0  0  0  0  0  0
   25.4678  -20.5410  -12.4472 C   0  0  2  0  0  0  0  0  0  0  0  0
   26.2224  -19.9931  -13.5587 N   0  0  0  0  0  0  0  0  0  0  0  0
   24.0540  -20.1858  -12.6332 C   0  0  0  0  0  0  0  0  0  0  0  0
   23.7358  -19.0039  -12.8735 O   0  0  0  0  0  0  0  0  0  0  0  0
   28.4812  -20.0679  -11.4887 C   0  0  0  0  0  0  0  0  0  0  0  0
   29.7584  -20.5194  -11.2348 C   0  0  0  0  0  0  0  0  0  0  0  0
   20.2704  -23.3206  -16.0072 N   0  0  0  0  0  0  0  0  0  0  0  0
   19.2937  -22.4785  -15.4229 C   0  0  0  0  0  0  0  0  0  0  0  0
   18.1119  -22.5145  -15.8009 O   0  0  0  0  0  0  0  0  0  0  0  0
   19.7494  -21.5436  -14.3301 C   0  0  0  0  0  0  0  0  0  0  0  0
   21.1973  -21.7803  -14.0077 C   0  0  0  0  0  0  0  0  0  0  0  0
   21.6613  -20.8628  -12.9281 C   0  0  2  0  0  0  0  0  0  0  0  0
   23.0413  -21.1585  -12.5455 N   0  0  0  0  0  0  0  0  0  0  0  0
   20.8050  -20.9940  -11.7376 C   0  0  0  0  0  0  0  0  0  0  0  0
   19.7271  -20.0883  -11.6260 O   0  0  0  0  0  0  0  0  0  0  0  0
   20.9542  -21.8307  -10.8313 O   0  0  0  0  0  0  0  0  0  0  0  0
  2  1  1  0
  3  2  1  0
  3  4  1  1
  5  3  1  0
  5  6  1  6
  7  5  1  0
  7  8  2  0
  9 10  1  0
 10 20  2  0
 11 10  1  0
 11 12  2  0
 12 13  1  0
 13 19  2  0
 13 14  1  0
 15 14  1  1
 15 16  1  0
 16  7  1  0
 17 15  1  0
 18 17  2  0
 20 19  1  0
 22 21  1  0
 22 23  2  0
 24 22  1  0
 25 24  1  0
 26 25  1  6
 26 27  1  0
 27 17  1  0
 28 29  1  0
 28 26  1  0
 30 28  2  0
M  END
$$$$
