DTC.pdb
     RDKit          3D

 22 21  0  0  1  0  0  0  0  0999 V2000
   18.9876  -13.0968  -16.2666 N   0  0  0  0  0  0  0  0  0  0  0  0
   18.8042  -11.7135  -16.6629 C   0  0  1  0  0  0  0  0  0  0  0  0
   17.3368  -11.3476  -16.6422 C   0  0  0  0  0  0  0  0  0  0  0  0
   16.6336  -12.1827  -17.6463 C   0  0  0  0  0  0  0  0  0  0  0  0
   15.7446  -13.0033  -17.3139 O   0  0  0  0  0  0  0  0  0  0  0  0
   19.6022  -10.8573  -15.7575 C   0  0  0  0  0  0  0  0  0  0  0  0
   19.3910  -10.8527  -14.4957 O   0  0  0  0  0  0  0  0  0  0  0  0
   16.9572  -12.0642  -18.9958 O   0  0  0  0  0  0  0  0  0  0  0  0
   23.2298  -10.9584  -15.1558 C   0  0  0  0  0  0  0  0  0  0  0  0
   22.9275   -9.5171  -15.5249 C   0  0  1  0  0  0  0  0  0  0  0  0
   23.3433   -9.3251  -16.8214 O   0  0  0  0  0  0  0  0  0  0  0  0
   21.4601   -9.1942  -15.3311 C   0  0  2  0  0  0  0  0  0  0  0  0
   20.6356   -9.9977  -16.2013 N   0  0  0  0  0  0  0  0  0  0  0  0
   21.2831   -7.7560  -15.5134 C   0  0  0  0  0  0  0  0  0  0  0  0
   20.6133   -7.3422  -16.4931 O   0  0  0  0  0  0  0  0  0  0  0  0
   21.8273   -6.7509  -14.6403 N   0  0  0  0  0  0  0  0  0  0  0  0
   21.5375   -5.3548  -14.7807 C   0  0  1  0  0  0  0  0  0  0  0  0
   20.0576   -5.0538  -14.7460 C   0  0  0  0  0  0  0  0  0  0  0  0
   19.7081   -3.3015  -14.6247 S   0  0  0  0  0  0  0  0  0  0  0  0
   22.2819   -4.5982  -13.7495 C   0  0  0  0  0  0  0  0  0  0  0  0
   22.4308   -5.0356  -12.5832 O   0  0  0  0  0  0  0  0  0  0  0  0
   22.8289   -3.3730  -14.0837 O   0  0  0  0  0  0  0  0  0  0  0  0
  2  1  1  1
  3  2  1  0
  3  4  1  0
  4  5  2  0
  6  2  1  0
  6 13  1  0
  7  6  2  0
  8  4  1  0
 10  9  1  6
 11 10  1  0
 12 10  1  0
 12 14  1  0
 12 13  1  6
 14 15  2  0
 16 14  1  0
 16 17  1  0
 17 20  1  0
 17 18  1  1
 19 18  1  0
 20 22  1  0
 21 20  2  0
M  END
$$$$
