DTC.pdb
     RDKit          3D

 22 21  0  0  1  0  0  0  0  0999 V2000
   26.9147  -20.1804  -12.4989 N   0  0  0  0  0  0  0  0  0  0  0  0
   25.6762  -20.8392  -12.1299 C   0  0  1  0  0  0  0  0  0  0  0  0
   25.4155  -20.6836  -10.6482 C   0  0  0  0  0  0  0  0  0  0  0  0
   26.6287  -21.1172   -9.9131 C   0  0  0  0  0  0  0  0  0  0  0  0
   27.3627  -22.0406  -10.3406 O   0  0  0  0  0  0  0  0  0  0  0  0
   24.5820  -20.2711  -12.9483 C   0  0  0  0  0  0  0  0  0  0  0  0
   24.2091  -19.0561  -12.8012 O   0  0  0  0  0  0  0  0  0  0  0  0
   26.9747  -20.4933   -8.7170 O   0  0  0  0  0  0  0  0  0  0  0  0
   21.8360  -20.2823  -17.0327 C   0  0  0  0  0  0  0  0  0  0  0  0
   22.9916  -20.7982  -16.1940 C   0  0  1  0  0  0  0  0  0  0  0  0
   24.1479  -20.2551  -16.7025 O   0  0  0  0  0  0  0  0  0  0  0  0
   22.7946  -20.4773  -14.7267 C   0  0  2  0  0  0  0  0  0  0  0  0
   23.8782  -21.0051  -13.9330 N   0  0  0  0  0  0  0  0  0  0  0  0
   21.4780  -20.9669  -14.3268 C   0  0  0  0  0  0  0  0  0  0  0  0
   21.4023  -21.9121  -13.5019 O   0  0  0  0  0  0  0  0  0  0  0  0
   20.2308  -20.4411  -14.8135 N   0  0  0  0  0  0  0  0  0  0  0  0
   18.9649  -20.7641  -14.2254 C   0  0  1  0  0  0  0  0  0  0  0  0
   18.8959  -20.4288  -12.7541 C   0  0  0  0  0  0  0  0  0  0  0  0
   17.2176  -20.3802  -12.1310 S   0  0  0  0  0  0  0  0  0  0  0  0
   17.8886  -20.1028  -14.9963 C   0  0  0  0  0  0  0  0  0  0  0  0
   16.8331  -20.7028  -15.3121 O   0  0  0  0  0  0  0  0  0  0  0  0
   18.0534  -18.7843  -15.3789 O   0  0  0  0  0  0  0  0  0  0  0  0
  2  1  1  6
  3  2  1  0
  3  4  1  0
  4  5  2  0
  6  2  1  0
  6 13  1  0
  7  6  2  0
  8  4  1  0
 10  9  1  6
 11 10  1  0
 12 10  1  0
 12 14  1  0
 12 13  1  1
 14 15  2  0
 16 14  1  0
 16 17  1  0
 17 20  1  0
 17 18  1  1
 19 18  1  0
 20 22  1  0
 21 20  2  0
M  END
$$$$
