DTC.pdb
     RDKit          3D

 22 21  0  0  1  0  0  0  0  0999 V2000
   19.6225  -10.7242  -16.0673 N   0  0  0  0  0  0  0  0  0  0  0  0
   19.4699   -9.4433  -16.7305 C   0  0  1  0  0  0  0  0  0  0  0  0
   18.1394   -9.3737  -17.4464 C   0  0  0  0  0  0  0  0  0  0  0  0
   18.3437   -9.7983  -18.8529 C   0  0  0  0  0  0  0  0  0  0  0  0
   19.4913   -9.9029  -19.3490 O   0  0  0  0  0  0  0  0  0  0  0  0
   19.6123   -8.3725  -15.7192 C   0  0  0  0  0  0  0  0  0  0  0  0
   19.0046   -8.4399  -14.5953 O   0  0  0  0  0  0  0  0  0  0  0  0
   17.2437  -10.0917  -19.6553 O   0  0  0  0  0  0  0  0  0  0  0  0
   22.0845   -4.6129  -13.7449 C   0  0  0  0  0  0  0  0  0  0  0  0
   21.9517   -5.8695  -14.5864 C   0  0  1  0  0  0  0  0  0  0  0  0
   22.5061   -6.9065  -13.8736 O   0  0  0  0  0  0  0  0  0  0  0  0
   20.5082   -6.1302  -14.9647 C   0  0  2  0  0  0  0  0  0  0  0  0
   20.4102   -7.2185  -15.9074 N   0  0  0  0  0  0  0  0  0  0  0  0
   19.9314   -4.8782  -15.4475 C   0  0  0  0  0  0  0  0  0  0  0  0
   20.3659   -4.3770  -16.5149 O   0  0  0  0  0  0  0  0  0  0  0  0
   18.8804   -4.1556  -14.7827 N   0  0  0  0  0  0  0  0  0  0  0  0
   18.3215   -2.9410  -15.2976 C   0  0  1  0  0  0  0  0  0  0  0  0
   16.8629   -2.7676  -14.9450 C   0  0  0  0  0  0  0  0  0  0  0  0
   15.8752   -4.2058  -15.3488 S   0  0  0  0  0  0  0  0  0  0  0  0
   19.1423   -1.7972  -14.8416 C   0  0  0  0  0  0  0  0  0  0  0  0
   20.0742   -1.9370  -14.0134 O   0  0  0  0  0  0  0  0  0  0  0  0
   18.8724   -0.5378  -15.3446 O   0  0  0  0  0  0  0  0  0  0  0  0
  2  1  1  1
  3  2  1  0
  3  4  1  0
  4  5  2  0
  6  2  1  0
  6 13  1  0
  7  6  2  0
  8  4  1  0
 10  9  1  1
 11 10  1  0
 12 10  1  0
 12 14  1  0
 12 13  1  6
 14 15  2  0
 16 14  1  0
 16 17  1  0
 17 20  1  0
 17 18  1  1
 19 18  1  0
 20 22  1  0
 21 20  2  0
M  END
$$$$
