DTC.pdb
     RDKit          3D

 22 21  0  0  1  0  0  0  0  0999 V2000
   16.4581  -10.6207  -14.5383 N   0  0  0  0  0  0  0  0  0  0  0  0
   17.0738   -9.9624  -13.4018 C   0  0  1  0  0  0  0  0  0  0  0  0
   18.2608   -9.1379  -13.8475 C   0  0  0  0  0  0  0  0  0  0  0  0
   19.2941  -10.0584  -14.3815 C   0  0  0  0  0  0  0  0  0  0  0  0
   19.1173  -11.3002  -14.4118 O   0  0  0  0  0  0  0  0  0  0  0  0
   16.0477   -9.1375  -12.7263 C   0  0  0  0  0  0  0  0  0  0  0  0
   15.3592   -8.2766  -13.3758 O   0  0  0  0  0  0  0  0  0  0  0  0
   20.4958   -9.5465  -14.8649 O   0  0  0  0  0  0  0  0  0  0  0  0
   13.1128  -10.3551  -10.5876 C   0  0  0  0  0  0  0  0  0  0  0  0
   13.8877   -9.3306   -9.7784 C   0  0  1  0  0  0  0  0  0  0  0  0
   14.6310  -10.0149   -8.8457 O   0  0  0  0  0  0  0  0  0  0  0  0
   14.7406   -8.4530  -10.6713 C   0  0  2  0  0  0  0  0  0  0  0  0
   15.7523   -9.2309  -11.3451 N   0  0  0  0  0  0  0  0  0  0  0  0
   15.2775   -7.3640   -9.8597 C   0  0  0  0  0  0  0  0  0  0  0  0
   16.5183   -7.1646   -9.8486 O   0  0  0  0  0  0  0  0  0  0  0  0
   14.4803   -6.4799   -9.0524 N   0  0  0  0  0  0  0  0  0  0  0  0
   15.0035   -5.2921   -8.4455 C   0  0  1  0  0  0  0  0  0  0  0  0
   15.6273   -4.3458   -9.4441 C   0  0  0  0  0  0  0  0  0  0  0  0
   16.0619   -2.7646   -8.7245 S   0  0  0  0  0  0  0  0  0  0  0  0
   13.9358   -4.6400   -7.6552 C   0  0  0  0  0  0  0  0  0  0  0  0
   12.7254   -4.7299   -7.9727 O   0  0  0  0  0  0  0  0  0  0  0  0
   14.2848   -3.9103   -6.5336 O   0  0  0  0  0  0  0  0  0  0  0  0
  2  1  1  6
  3  2  1  0
  3  4  1  0
  4  5  2  0
  6  2  1  0
  6 13  1  0
  7  6  2  0
  8  4  1  0
 10  9  1  6
 11 10  1  0
 12 10  1  0
 12 14  1  0
 12 13  1  1
 14 15  2  0
 16 14  1  0
 16 17  1  0
 17 20  1  0
 17 18  1  6
 19 18  1  0
 20 22  1  0
 21 20  2  0
M  END
$$$$
