DTC.pdb
     RDKit          3D

 22 21  0  0  1  0  0  0  0  0999 V2000
   25.2201  -18.3745  -17.2113 N   0  0  0  0  0  0  0  0  0  0  0  0
   26.0189  -17.9924  -16.0624 C   0  0  1  0  0  0  0  0  0  0  0  0
   26.0043  -16.4905  -15.8842 C   0  0  0  0  0  0  0  0  0  0  0  0
   26.8017  -15.8832  -16.9776 C   0  0  0  0  0  0  0  0  0  0  0  0
   27.3026  -16.5803  -17.8927 O   0  0  0  0  0  0  0  0  0  0  0  0
   25.4941  -18.6974  -14.8719 C   0  0  0  0  0  0  0  0  0  0  0  0
   24.4295  -18.2997  -14.2844 O   0  0  0  0  0  0  0  0  0  0  0  0
   27.0081  -14.5061  -17.0028 O   0  0  0  0  0  0  0  0  0  0  0  0
   25.0565  -22.9210  -12.3831 C   0  0  0  0  0  0  0  0  0  0  0  0
   25.6038  -22.0941  -13.5327 C   0  0  1  0  0  0  0  0  0  0  0  0
   24.8850  -22.4216  -14.6582 O   0  0  0  0  0  0  0  0  0  0  0  0
   25.5520  -20.6127  -13.2203 C   0  0  2  0  0  0  0  0  0  0  0  0
   26.1100  -19.8374  -14.3020 N   0  0  0  0  0  0  0  0  0  0  0  0
   26.2136  -20.3953  -11.9365 C   0  0  0  0  0  0  0  0  0  0  0  0
   27.4520  -20.5897  -11.8468 O   0  0  0  0  0  0  0  0  0  0  0  0
   25.5449  -19.9660  -10.7376 N   0  0  0  0  0  0  0  0  0  0  0  0
   26.0663  -20.2049   -9.4246 C   0  0  1  0  0  0  0  0  0  0  0  0
   26.4888  -18.9380   -8.7188 C   0  0  0  0  0  0  0  0  0  0  0  0
   26.9167  -19.2097   -7.0012 S   0  0  0  0  0  0  0  0  0  0  0  0
   25.0734  -20.9723   -8.6403 C   0  0  0  0  0  0  0  0  0  0  0  0
   25.3551  -21.4812   -7.5288 O   0  0  0  0  0  0  0  0  0  0  0  0
   23.7978  -21.1319   -9.1496 O   0  0  0  0  0  0  0  0  0  0  0  0
  2  1  1  6
  3  2  1  0
  3  4  1  0
  4  5  2  0
  6  2  1  0
  6 13  1  0
  7  6  2  0
  8  4  1  0
 10  9  1  1
 11 10  1  0
 12 10  1  0
 12 14  1  0
 12 13  1  6
 14 15  2  0
 16 14  1  0
 16 17  1  0
 17 20  1  0
 17 18  1  1
 19 18  1  0
 20 22  1  0
 21 20  2  0
M  END
$$$$
