DTC.pdb
     RDKit          3D

 22 21  0  0  1  0  0  0  0  0999 V2000
   16.6054  -11.3112  -14.7435 N   0  0  0  0  0  0  0  0  0  0  0  0
   17.9049  -11.2808  -15.3870 C   0  0  1  0  0  0  0  0  0  0  0  0
   17.9496  -12.2643  -16.5352 C   0  0  0  0  0  0  0  0  0  0  0  0
   17.7684  -13.6304  -15.9865 C   0  0  0  0  0  0  0  0  0  0  0  0
   18.7234  -14.2700  -15.4836 O   0  0  0  0  0  0  0  0  0  0  0  0
   18.1745   -9.8956  -15.8324 C   0  0  0  0  0  0  0  0  0  0  0  0
   19.2346   -9.6067  -16.4878 O   0  0  0  0  0  0  0  0  0  0  0  0
   16.5124  -14.2314  -16.0234 O   0  0  0  0  0  0  0  0  0  0  0  0
   16.6497   -5.1369  -16.2052 C   0  0  0  0  0  0  0  0  0  0  0  0
   16.3407   -6.5968  -15.9263 C   0  0  1  0  0  0  0  0  0  0  0  0
   15.4515   -7.0230  -16.8846 O   0  0  0  0  0  0  0  0  0  0  0  0
   17.6044   -7.4316  -15.8932 C   0  0  2  0  0  0  0  0  0  0  0  0
   17.3057   -8.8076  -15.5767 N   0  0  0  0  0  0  0  0  0  0  0  0
   18.5405   -6.8029  -14.9650 C   0  0  0  0  0  0  0  0  0  0  0  0
   18.3248   -6.8862  -13.7297 O   0  0  0  0  0  0  0  0  0  0  0  0
   19.7182   -6.0785  -15.3614 N   0  0  0  0  0  0  0  0  0  0  0  0
   20.5620   -5.3907  -14.4299 C   0  0  1  0  0  0  0  0  0  0  0  0
   21.9561   -5.9683  -14.3599 C   0  0  0  0  0  0  0  0  0  0  0  0
   23.0756   -4.9643  -13.3875 S   0  0  0  0  0  0  0  0  0  0  0  0
   20.5751   -3.9482  -14.7602 C   0  0  0  0  0  0  0  0  0  0  0  0
   20.5333   -3.0632  -13.8720 O   0  0  0  0  0  0  0  0  0  0  0  0
   20.6351   -3.5667  -16.0879 O   0  0  0  0  0  0  0  0  0  0  0  0
  2  1  1  6
  3  2  1  0
  3  4  1  0
  4  5  2  0
  6  2  1  0
  6 13  1  0
  7  6  2  0
  8  4  1  0
 10  9  1  6
 11 10  1  0
 12 10  1  0
 12 14  1  0
 12 13  1  1
 14 15  2  0
 16 14  1  0
 16 17  1  0
 17 20  1  0
 17 18  1  6
 19 18  1  0
 20 22  1  0
 21 20  2  0
M  END
$$$$
