DTC.pdb
     RDKit          3D

 22 21  0  0  1  0  0  0  0  0999 V2000
   23.3362  -10.3763  -17.4766 N   0  0  0  0  0  0  0  0  0  0  0  0
   23.7878   -9.0533  -17.0896 C   0  0  1  0  0  0  0  0  0  0  0  0
   25.0704   -8.7007  -17.8095 C   0  0  0  0  0  0  0  0  0  0  0  0
   26.1604   -9.5438  -17.2605 C   0  0  0  0  0  0  0  0  0  0  0  0
   26.3546  -10.7151  -17.6659 O   0  0  0  0  0  0  0  0  0  0  0  0
   22.7057   -8.0862  -17.3785 C   0  0  0  0  0  0  0  0  0  0  0  0
   22.2294   -7.9608  -18.5593 O   0  0  0  0  0  0  0  0  0  0  0  0
   26.9973   -9.0363  -16.2696 O   0  0  0  0  0  0  0  0  0  0  0  0
   18.6033   -5.8758  -16.2554 C   0  0  0  0  0  0  0  0  0  0  0  0
   19.7467   -6.8514  -16.0420 C   0  0  1  0  0  0  0  0  0  0  0  0
   19.3638   -8.0613  -16.5715 O   0  0  0  0  0  0  0  0  0  0  0  0
   21.0347   -6.3329  -16.6480 C   0  0  2  0  0  0  0  0  0  0  0  0
   22.1256   -7.2445  -16.3994 N   0  0  0  0  0  0  0  0  0  0  0  0
   21.2660   -4.9838  -16.1387 C   0  0  0  0  0  0  0  0  0  0  0  0
   21.5874   -4.8325  -14.9332 O   0  0  0  0  0  0  0  0  0  0  0  0
   21.1525   -3.7852  -16.9258 N   0  0  0  0  0  0  0  0  0  0  0  0
   21.4832   -2.4857  -16.4212 C   0  0  1  0  0  0  0  0  0  0  0  0
   21.7905   -1.4897  -17.5145 C   0  0  0  0  0  0  0  0  0  0  0  0
   23.0933   -2.0429  -18.6117 S   0  0  0  0  0  0  0  0  0  0  0  0
   20.3949   -2.0178  -15.5344 C   0  0  0  0  0  0  0  0  0  0  0  0
   19.2712   -2.5752  -15.5112 O   0  0  0  0  0  0  0  0  0  0  0  0
   20.6255   -0.9339  -14.7073 O   0  0  0  0  0  0  0  0  0  0  0  0
  2  1  1  6
  3  2  1  0
  3  4  1  0
  4  5  2  0
  6  2  1  0
  6 13  1  0
  7  6  2  0
  8  4  1  0
 10  9  1  6
 11 10  1  0
 12 10  1  0
 12 14  1  0
 12 13  1  1
 14 15  2  0
 16 14  1  0
 16 17  1  0
 17 20  1  0
 17 18  1  6
 19 18  1  0
 20 22  1  0
 21 20  2  0
M  END
$$$$
