DTC.pdb
     RDKit          3D

 22 21  0  0  1  0  0  0  0  0999 V2000
   17.5330  -12.2634  -15.0730 N   0  0  0  0  0  0  0  0  0  0  0  0
   18.7294  -12.2417  -15.8929 C   0  0  1  0  0  0  0  0  0  0  0  0
   18.5653  -13.1488  -17.0920 C   0  0  0  0  0  0  0  0  0  0  0  0
   18.4490  -14.5459  -16.6076 C   0  0  0  0  0  0  0  0  0  0  0  0
   17.3747  -14.9928  -16.1382 O   0  0  0  0  0  0  0  0  0  0  0  0
   19.0001  -10.8419  -16.2892 C   0  0  0  0  0  0  0  0  0  0  0  0
   19.9865  -10.5494  -17.0497 O   0  0  0  0  0  0  0  0  0  0  0  0
   19.5513  -15.3950  -16.6688 O   0  0  0  0  0  0  0  0  0  0  0  0
   16.4602   -8.3673  -17.8329 C   0  0  0  0  0  0  0  0  0  0  0  0
   17.1188   -7.7036  -16.6368 C   0  0  1  0  0  0  0  0  0  0  0  0
   16.2164   -7.7286  -15.5996 O   0  0  0  0  0  0  0  0  0  0  0  0
   18.4289   -8.3775  -16.2840 C   0  0  2  0  0  0  0  0  0  0  0  0
   18.2118   -9.7431  -15.8709 N   0  0  0  0  0  0  0  0  0  0  0  0
   19.1059   -7.5588  -15.2818 C   0  0  0  0  0  0  0  0  0  0  0  0
   18.8245   -7.7223  -14.0679 O   0  0  0  0  0  0  0  0  0  0  0  0
   20.0929   -6.5561  -15.5803 N   0  0  0  0  0  0  0  0  0  0  0  0
   20.7558   -5.7876  -14.5689 C   0  0  1  0  0  0  0  0  0  0  0  0
   22.2606   -5.9046  -14.6316 C   0  0  0  0  0  0  0  0  0  0  0  0
   23.0920   -4.7689  -13.5243 S   0  0  0  0  0  0  0  0  0  0  0  0
   20.3046   -4.3809  -14.6543 C   0  0  0  0  0  0  0  0  0  0  0  0
   20.1111   -3.8111  -15.7551 O   0  0  0  0  0  0  0  0  0  0  0  0
   20.0904   -3.6752  -13.4846 O   0  0  0  0  0  0  0  0  0  0  0  0
  2  1  1  6
  3  2  1  0
  3  4  1  0
  4  5  2  0
  6  2  1  0
  6 13  1  0
  7  6  2  0
  8  4  1  0
 10  9  1  6
 11 10  1  0
 12 10  1  0
 12 14  1  0
 12 13  1  1
 14 15  2  0
 16 14  1  0
 16 17  1  0
 17 20  1  0
 17 18  1  6
 19 18  1  0
 20 22  1  0
 21 20  2  0
M  END
$$$$
