DTC.pdb
     RDKit          3D

 22 21  0  0  1  0  0  0  0  0999 V2000
   19.0021  -23.0097  -14.4574 N   0  0  0  0  0  0  0  0  0  0  0  0
   18.4612  -22.2957  -13.3164 C   0  0  1  0  0  0  0  0  0  0  0  0
   16.9528  -22.2264  -13.4025 C   0  0  0  0  0  0  0  0  0  0  0  0
   16.5852  -21.0225  -14.1871 C   0  0  0  0  0  0  0  0  0  0  0  0
   15.4038  -20.8099  -14.5521 O   0  0  0  0  0  0  0  0  0  0  0  0
   18.9159  -22.9730  -12.0818 C   0  0  0  0  0  0  0  0  0  0  0  0
   19.0248  -24.2467  -12.0288 O   0  0  0  0  0  0  0  0  0  0  0  0
   17.5650  -20.0957  -14.5350 O   0  0  0  0  0  0  0  0  0  0  0  0
   20.7772  -22.6288   -7.4461 C   0  0  0  0  0  0  0  0  0  0  0  0
   20.3974  -21.9713   -8.7608 C   0  0  1  0  0  0  0  0  0  0  0  0
   21.5537  -21.5042   -9.3401 O   0  0  0  0  0  0  0  0  0  0  0  0
   19.6431  -22.9297   -9.6592 C   0  0  2  0  0  0  0  0  0  0  0  0
   19.2577  -22.2863  -10.8922 N   0  0  0  0  0  0  0  0  0  0  0  0
   18.5191  -23.4739   -8.9018 C   0  0  0  0  0  0  0  0  0  0  0  0
   17.4584  -22.8051   -8.8173 O   0  0  0  0  0  0  0  0  0  0  0  0
   18.5295  -24.7448   -8.2283 N   0  0  0  0  0  0  0  0  0  0  0  0
   17.4251  -25.2265   -7.4530 C   0  0  1  0  0  0  0  0  0  0  0  0
   17.3569  -26.7345   -7.3981 C   0  0  0  0  0  0  0  0  0  0  0  0
   17.7061  -27.5034   -8.9773 S   0  0  0  0  0  0  0  0  0  0  0  0
   17.4805  -24.6240   -6.1026 C   0  0  0  0  0  0  0  0  0  0  0  0
   18.5343  -24.1231   -5.6416 O   0  0  0  0  0  0  0  0  0  0  0  0
   16.3355  -24.6138   -5.3274 O   0  0  0  0  0  0  0  0  0  0  0  0
  2  1  1  6
  3  2  1  0
  3  4  1  0
  4  5  2  0
  6  2  1  0
  6 13  1  0
  7  6  2  0
  8  4  1  0
 10  9  1  1
 11 10  1  0
 12 10  1  0
 12 14  1  0
 12 13  1  6
 14 15  2  0
 16 14  1  0
 16 17  1  0
 17 20  1  0
 17 18  1  1
 19 18  1  0
 20 22  1  0
 21 20  2  0
M  END
$$$$
