DTC.pdb
     RDKit          3D

 22 21  0  0  1  0  0  0  0  0999 V2000
   15.6623  -12.3433  -16.7790 N   0  0  0  0  0  0  0  0  0  0  0  0
   16.1550  -11.4992  -15.7072 C   0  0  1  0  0  0  0  0  0  0  0  0
   16.5355  -12.3369  -14.5068 C   0  0  0  0  0  0  0  0  0  0  0  0
   15.3183  -13.0274  -14.0150 C   0  0  0  0  0  0  0  0  0  0  0  0
   15.3007  -14.2651  -13.8102 O   0  0  0  0  0  0  0  0  0  0  0  0
   17.2985  -10.7120  -16.2192 C   0  0  0  0  0  0  0  0  0  0  0  0
   18.1689  -11.2388  -16.9950 O   0  0  0  0  0  0  0  0  0  0  0  0
   14.1580  -12.2969  -13.7699 O   0  0  0  0  0  0  0  0  0  0  0  0
   17.6782   -8.0492  -18.6211 C   0  0  0  0  0  0  0  0  0  0  0  0
   18.1845   -7.4759  -17.3096 C   0  0  1  0  0  0  0  0  0  0  0  0
   17.1773   -6.7062  -16.7771 O   0  0  0  0  0  0  0  0  0  0  0  0
   18.6390   -8.5717  -16.3675 C   0  0  2  0  0  0  0  0  0  0  0  0
   17.5167   -9.3499  -15.9014 N   0  0  0  0  0  0  0  0  0  0  0  0
   19.4157   -7.9559  -15.2948 C   0  0  0  0  0  0  0  0  0  0  0  0
   18.8149   -7.5027  -14.2882 O   0  0  0  0  0  0  0  0  0  0  0  0
   20.8479   -7.8234  -15.2984 N   0  0  0  0  0  0  0  0  0  0  0  0
   21.5856   -7.2927  -14.1907 C   0  0  1  0  0  0  0  0  0  0  0  0
   22.9582   -7.9071  -14.0483 C   0  0  0  0  0  0  0  0  0  0  0  0
   22.9055   -9.6864  -13.8519 S   0  0  0  0  0  0  0  0  0  0  0  0
   21.6471   -5.8190  -14.3098 C   0  0  0  0  0  0  0  0  0  0  0  0
   21.3057   -5.2227  -15.3595 O   0  0  0  0  0  0  0  0  0  0  0  0
   22.0943   -5.0790  -13.2307 O   0  0  0  0  0  0  0  0  0  0  0  0
  2  1  1  6
  3  2  1  0
  3  4  1  0
  4  5  2  0
  6  2  1  0
  6 13  1  0
  7  6  2  0
  8  4  1  0
 10  9  1  6
 11 10  1  0
 12 10  1  0
 12 14  1  0
 12 13  1  1
 14 15  2  0
 16 14  1  0
 16 17  1  0
 17 20  1  0
 17 18  1  6
 19 18  1  0
 20 22  1  0
 21 20  2  0
M  END
$$$$
