VNN.pdb
     RDKit          3D

 24 23  0  0  1  0  0  0  0  0999 V2000
    7.1873  -13.4643   21.4331 C   0  0  0  0  0  0  0  0  0  0  0  0
    8.2723  -13.2381   20.4125 C   0  0  2  0  0  0  0  0  0  0  0  0
    7.7212  -12.3112   19.3488 C   0  0  0  0  0  0  0  0  0  0  0  0
    8.6810  -14.5219   19.7188 C   0  0  2  0  0  0  0  0  0  0  0  0
    7.4822  -15.0941   19.1378 N   0  0  0  0  0  0  0  0  0  0  0  0
    9.2815  -15.4918   20.6771 C   0  0  0  0  0  0  0  0  0  0  0  0
    8.6162  -16.4811   21.0533 O   0  0  0  0  0  0  0  0  0  0  0  0
   14.5024  -17.2772   23.1295 N   0  0  0  0  0  0  0  0  0  0  0  0
   13.3064  -17.5609   22.4000 C   0  0  0  0  0  0  0  0  0  0  0  0
   12.8627  -18.7264   22.5481 O   0  0  0  0  0  0  0  0  0  0  0  0
   12.6800  -16.5228   21.5491 C   0  0  0  0  0  0  0  0  0  0  0  0
   11.2878  -16.2885   22.0165 C   0  0  2  0  0  0  0  0  0  0  0  0
   10.5896  -15.3508   21.1944 N   0  0  0  0  0  0  0  0  0  0  0  0
   11.2086  -15.9496   23.4607 C   0  0  0  0  0  0  0  0  0  0  0  0
   12.2840  -15.8782   24.1019 O   0  0  0  0  0  0  0  0  0  0  0  0
    6.6711  -17.4202   25.7052 N   0  0  0  0  0  0  0  0  0  0  0  0
    7.2119  -17.9877   24.5247 C   0  0  0  0  0  0  0  0  0  0  0  0
    6.4206  -18.7733   23.8984 O   0  0  0  0  0  0  0  0  0  0  0  0
    8.5837  -17.6865   24.0658 C   0  0  0  0  0  0  0  0  0  0  0  0
    9.3406  -16.7501   24.9530 C   0  0  2  0  0  0  0  0  0  0  0  0
   10.0060  -15.7015   24.1640 N   0  0  0  0  0  0  0  0  0  0  0  0
   10.2838  -17.4181   25.8579 C   0  0  0  0  0  0  0  0  0  0  0  0
   10.0975  -17.3515   27.2193 O   0  0  0  0  0  0  0  0  0  0  0  0
   11.2650  -18.0533   25.4105 O   0  0  0  0  0  0  0  0  0  0  0  0
  2  1  1  1
  2  4  1  0
  3  2  1  0
  4  6  1  0
  4  5  1  1
  6  7  2  0
  8  9  1  0
  9 11  1  0
 10  9  2  0
 12 11  1  6
 12 14  1  0
 13  6  1  0
 13 12  1  0
 14 21  1  0
 14 15  2  0
 17 19  1  0
 17 16  1  0
 18 17  2  0
 20 19  1  6
 20 22  1  0
 21 20  1  0
 22 24  2  0
 22 23  1  0
M  END
$$$$
