VNN.pdb
     RDKit          3D

 24 23  0  0  1  0  0  0  0  0999 V2000
    7.8310  -12.3134   19.6751 C   0  0  0  0  0  0  0  0  0  0  0  0
    8.7601  -13.4975   19.6066 C   0  0  2  0  0  0  0  0  0  0  0  0
   10.1412  -12.9826   19.2577 C   0  0  0  0  0  0  0  0  0  0  0  0
    8.3600  -14.4757   18.5205 C   0  0  2  0  0  0  0  0  0  0  0  0
    6.9866  -14.8622   18.7781 N   0  0  0  0  0  0  0  0  0  0  0  0
    9.2282  -15.6865   18.5310 C   0  0  0  0  0  0  0  0  0  0  0  0
    8.9764  -16.6205   19.3229 O   0  0  0  0  0  0  0  0  0  0  0  0
   10.6934  -16.5016   14.2266 N   0  0  0  0  0  0  0  0  0  0  0  0
   10.8003  -17.3524   15.3701 C   0  0  0  0  0  0  0  0  0  0  0  0
    9.9169  -18.2416   15.4497 O   0  0  0  0  0  0  0  0  0  0  0  0
   11.8893  -17.1562   16.3548 C   0  0  0  0  0  0  0  0  0  0  0  0
   11.2925  -16.9080   17.6941 C   0  0  2  0  0  0  0  0  0  0  0  0
   10.3439  -15.8391   17.6764 N   0  0  0  0  0  0  0  0  0  0  0  0
   12.3109  -16.7483   18.7638 C   0  0  0  0  0  0  0  0  0  0  0  0
   13.1709  -17.6524   18.8888 O   0  0  0  0  0  0  0  0  0  0  0  0
   16.3225  -14.7726   19.4732 N   0  0  0  0  0  0  0  0  0  0  0  0
   15.0372  -14.1766   19.5080 C   0  0  0  0  0  0  0  0  0  0  0  0
   14.7208  -13.5265   18.4531 O   0  0  0  0  0  0  0  0  0  0  0  0
   14.1438  -14.3045   20.6779 C   0  0  0  0  0  0  0  0  0  0  0  0
   13.3762  -15.5869   20.7321 C   0  0  2  0  0  0  0  0  0  0  0  0
   12.3794  -15.6483   19.6515 N   0  0  0  0  0  0  0  0  0  0  0  0
   12.7661  -15.8617   22.0386 C   0  0  0  0  0  0  0  0  0  0  0  0
   13.5566  -15.9686   23.1594 O   0  0  0  0  0  0  0  0  0  0  0  0
   11.5280  -16.0026   22.1541 O   0  0  0  0  0  0  0  0  0  0  0  0
  2  1  1  6
  2  4  1  0
  3  2  1  0
  4  6  1  0
  4  5  1  1
  6  7  2  0
  8  9  1  0
  9 11  1  0
 10  9  2  0
 12 11  1  6
 12 14  1  0
 13  6  1  0
 13 12  1  0
 14 21  1  0
 14 15  2  0
 17 19  1  0
 17 16  1  0
 18 17  2  0
 20 19  1  1
 20 22  1  0
 21 20  1  0
 22 24  2  0
 22 23  1  0
M  END
$$$$
