VNN.pdb
     RDKit          3D

 24 23  0  0  1  0  0  0  0  0999 V2000
    7.3781  -12.4191   18.8262 C   0  0  0  0  0  0  0  0  0  0  0  0
    8.4488  -13.2693   19.4594 C   0  0  2  0  0  0  0  0  0  0  0  0
    9.4591  -12.3401   20.0999 C   0  0  0  0  0  0  0  0  0  0  0  0
    9.1942  -14.1042   18.4377 C   0  0  2  0  0  0  0  0  0  0  0  0
    8.2104  -14.9190   17.7518 N   0  0  0  0  0  0  0  0  0  0  0  0
   10.2050  -14.9854   19.0870 C   0  0  0  0  0  0  0  0  0  0  0  0
    9.8309  -16.0139   19.6912 O   0  0  0  0  0  0  0  0  0  0  0  0
   12.6169  -15.3272   17.1255 N   0  0  0  0  0  0  0  0  0  0  0  0
   13.8665  -15.0984   17.7805 C   0  0  0  0  0  0  0  0  0  0  0  0
   14.8270  -14.8490   17.0108 O   0  0  0  0  0  0  0  0  0  0  0  0
   13.9649  -15.1627   19.2570 C   0  0  0  0  0  0  0  0  0  0  0  0
   12.6057  -15.3676   19.8247 C   0  0  2  0  0  0  0  0  0  0  0  0
   11.5923  -14.7156   19.0561 N   0  0  0  0  0  0  0  0  0  0  0  0
   12.5240  -15.0384   21.2710 C   0  0  0  0  0  0  0  0  0  0  0  0
   11.9761  -13.9570   21.5920 O   0  0  0  0  0  0  0  0  0  0  0  0
    8.6341  -15.2819   23.3698 N   0  0  0  0  0  0  0  0  0  0  0  0
    9.6881  -16.1387   23.7736 C   0  0  0  0  0  0  0  0  0  0  0  0
    9.6466  -16.4951   25.0012 O   0  0  0  0  0  0  0  0  0  0  0  0
   10.7451  -16.5777   22.8392 C   0  0  0  0  0  0  0  0  0  0  0  0
   12.1379  -16.4034   23.3555 C   0  0  2  0  0  0  0  0  0  0  0  0
   13.0205  -15.8584   22.3120 N   0  0  0  0  0  0  0  0  0  0  0  0
   12.7064  -17.6155   23.9573 C   0  0  0  0  0  0  0  0  0  0  0  0
   13.0043  -17.6438   25.3000 O   0  0  0  0  0  0  0  0  0  0  0  0
   12.9285  -18.6345   23.2654 O   0  0  0  0  0  0  0  0  0  0  0  0
  2  1  1  6
  2  4  1  0
  3  2  1  0
  4  6  1  0
  4  5  1  1
  6  7  2  0
  8  9  1  0
  9 11  1  0
 10  9  2  0
 12 11  1  6
 12 14  1  0
 13  6  1  0
 13 12  1  0
 14 21  1  0
 14 15  2  0
 17 19  1  0
 17 16  1  0
 18 17  2  0
 20 19  1  6
 20 22  1  0
 21 20  1  0
 22 24  2  0
 22 23  1  0
M  END
$$$$
