VNN.pdb
     RDKit          3D

 24 23  0  0  1  0  0  0  0  0999 V2000
    7.1537  -13.5583   20.8476 C   0  0  0  0  0  0  0  0  0  0  0  0
    8.3519  -13.3700   19.9539 C   0  0  2  0  0  0  0  0  0  0  0  0
    8.0396  -12.2421   18.9924 C   0  0  0  0  0  0  0  0  0  0  0  0
    8.6415  -14.6014   19.1195 C   0  0  2  0  0  0  0  0  0  0  0  0
    7.4318  -14.9134   18.3837 N   0  0  0  0  0  0  0  0  0  0  0  0
    9.0178  -15.7625   19.9740 C   0  0  0  0  0  0  0  0  0  0  0  0
    8.1313  -16.5473   20.3753 O   0  0  0  0  0  0  0  0  0  0  0  0
   12.5885  -18.0080   18.3780 N   0  0  0  0  0  0  0  0  0  0  0  0
   11.9092  -18.4031   19.5719 C   0  0  0  0  0  0  0  0  0  0  0  0
   11.1725  -19.4127   19.4495 O   0  0  0  0  0  0  0  0  0  0  0  0
   12.0958  -17.6439   20.8300 C   0  0  0  0  0  0  0  0  0  0  0  0
   10.7902  -17.0652   21.2450 C   0  0  2  0  0  0  0  0  0  0  0  0
   10.3502  -16.0299   20.3632 N   0  0  0  0  0  0  0  0  0  0  0  0
   10.7660  -16.6478   22.6705 C   0  0  0  0  0  0  0  0  0  0  0  0
   11.5185  -15.7052   23.0141 O   0  0  0  0  0  0  0  0  0  0  0  0
    7.6896  -15.2187   23.7102 N   0  0  0  0  0  0  0  0  0  0  0  0
    7.5159  -16.3151   24.5911 C   0  0  0  0  0  0  0  0  0  0  0  0
    6.4094  -16.9414   24.4532 O   0  0  0  0  0  0  0  0  0  0  0  0
    8.5410  -16.6933   25.5858 C   0  0  0  0  0  0  0  0  0  0  0  0
    9.9367  -16.7339   25.0500 C   0  0  2  0  0  0  0  0  0  0  0  0
    9.9543  -17.2383   23.6679 N   0  0  0  0  0  0  0  0  0  0  0  0
   10.8802  -17.4702   25.8999 C   0  0  0  0  0  0  0  0  0  0  0  0
   11.1560  -17.0230   27.1714 O   0  0  0  0  0  0  0  0  0  0  0  0
   11.4451  -18.5074   25.4861 O   0  0  0  0  0  0  0  0  0  0  0  0
  2  1  1  1
  2  4  1  0
  3  2  1  0
  4  6  1  0
  4  5  1  1
  6  7  2  0
  8  9  1  0
  9 11  1  0
 10  9  2  0
 12 11  1  6
 12 14  1  0
 13  6  1  0
 13 12  1  0
 14 21  1  0
 14 15  2  0
 17 19  1  0
 17 16  1  0
 18 17  2  0
 20 19  1  1
 20 22  1  0
 21 20  1  0
 22 24  2  0
 22 23  1  0
M  END
$$$$
