VNN.pdb
     RDKit          3D

 24 23  0  0  1  0  0  0  0  0999 V2000
    7.6281  -13.4240   21.4795 C   0  0  0  0  0  0  0  0  0  0  0  0
    8.3656  -13.5219   20.1693 C   0  0  2  0  0  0  0  0  0  0  0  0
    7.6167  -12.6850   19.1529 C   0  0  0  0  0  0  0  0  0  0  0  0
    8.4029  -14.9412   19.6393 C   0  0  2  0  0  0  0  0  0  0  0  0
    7.0285  -15.3735   19.4777 N   0  0  0  0  0  0  0  0  0  0  0  0
    9.1051  -15.8566   20.5821 C   0  0  0  0  0  0  0  0  0  0  0  0
    8.4517  -16.4551   21.4640 O   0  0  0  0  0  0  0  0  0  0  0  0
   12.1112  -19.2107   19.2794 N   0  0  0  0  0  0  0  0  0  0  0  0
   12.3985  -17.8245   19.4770 C   0  0  0  0  0  0  0  0  0  0  0  0
   12.4733  -17.1464   18.4226 O   0  0  0  0  0  0  0  0  0  0  0  0
   12.5845  -17.2819   20.8426 C   0  0  0  0  0  0  0  0  0  0  0  0
   11.2556  -16.9273   21.4082 C   0  0  2  0  0  0  0  0  0  0  0  0
   10.4985  -16.0895   20.5321 N   0  0  0  0  0  0  0  0  0  0  0  0
   11.3376  -16.3824   22.7878 C   0  0  0  0  0  0  0  0  0  0  0  0
   10.9391  -15.2081   22.9746 O   0  0  0  0  0  0  0  0  0  0  0  0
    9.1674  -15.0837   25.4548 N   0  0  0  0  0  0  0  0  0  0  0  0
    8.7160  -16.3662   25.0554 C   0  0  0  0  0  0  0  0  0  0  0  0
    7.4571  -16.4483   24.8458 O   0  0  0  0  0  0  0  0  0  0  0  0
    9.6386  -17.5095   24.8977 C   0  0  0  0  0  0  0  0  0  0  0  0
   11.0745  -17.1861   25.1631 C   0  0  2  0  0  0  0  0  0  0  0  0
   11.8332  -17.0943   23.9058 N   0  0  0  0  0  0  0  0  0  0  0  0
   11.7242  -18.0957   26.1146 C   0  0  0  0  0  0  0  0  0  0  0  0
   12.3911  -19.2090   25.6582 O   0  0  0  0  0  0  0  0  0  0  0  0
   11.6825  -17.8762   27.3460 O   0  0  0  0  0  0  0  0  0  0  0  0
  2  1  1  1
  2  4  1  0
  3  2  1  0
  4  6  1  0
  4  5  1  1
  6  7  2  0
  8  9  1  0
  9 11  1  0
 10  9  2  0
 12 11  1  6
 12 14  1  0
 13  6  1  0
 13 12  1  0
 14 21  1  0
 14 15  2  0
 17 19  1  0
 17 16  1  0
 18 17  2  0
 20 19  1  6
 20 22  1  0
 21 20  1  0
 22 24  2  0
 22 23  1  0
M  END
$$$$
