VNN.pdb
     RDKit          3D

 24 23  0  0  1  0  0  0  0  0999 V2000
    7.6816  -12.1128   26.8966 C   0  0  0  0  0  0  0  0  0  0  0  0
    6.8953  -12.0338   25.6138 C   0  0  2  0  0  0  0  0  0  0  0  0
    5.7930  -11.0134   25.8087 C   0  0  0  0  0  0  0  0  0  0  0  0
    6.2296  -13.3509   25.2695 C   0  0  2  0  0  0  0  0  0  0  0  0
    5.4530  -13.7525   26.4261 N   0  0  0  0  0  0  0  0  0  0  0  0
    7.2355  -14.4041   24.9552 C   0  0  0  0  0  0  0  0  0  0  0  0
    7.6905  -15.1181   25.8750 O   0  0  0  0  0  0  0  0  0  0  0  0
    8.7473  -18.3419   21.0633 N   0  0  0  0  0  0  0  0  0  0  0  0
    9.3629  -17.1024   21.4210 C   0  0  0  0  0  0  0  0  0  0  0  0
   10.6186  -17.1179   21.4192 O   0  0  0  0  0  0  0  0  0  0  0  0
    8.5353  -15.9214   21.7590 C   0  0  0  0  0  0  0  0  0  0  0  0
    8.5635  -15.7154   23.2316 C   0  0  2  0  0  0  0  0  0  0  0  0
    7.7129  -14.6443   23.6464 N   0  0  0  0  0  0  0  0  0  0  0  0
    9.9405  -15.5925   23.7752 C   0  0  0  0  0  0  0  0  0  0  0  0
   10.4594  -14.4509   23.7940 O   0  0  0  0  0  0  0  0  0  0  0  0
   10.5250  -16.7930   29.0739 N   0  0  0  0  0  0  0  0  0  0  0  0
   10.9970  -16.0134   27.9887 C   0  0  0  0  0  0  0  0  0  0  0  0
   11.9592  -15.2220   28.2779 O   0  0  0  0  0  0  0  0  0  0  0  0
   10.4139  -16.1171   26.6350 C   0  0  0  0  0  0  0  0  0  0  0  0
   11.3616  -16.6140   25.5902 C   0  0  2  0  0  0  0  0  0  0  0  0
   10.7081  -16.6720   24.2732 N   0  0  0  0  0  0  0  0  0  0  0  0
   12.0024  -17.8913   25.9258 C   0  0  0  0  0  0  0  0  0  0  0  0
   11.3013  -19.0682   25.7996 O   0  0  0  0  0  0  0  0  0  0  0  0
   13.1864  -17.9311   26.3294 O   0  0  0  0  0  0  0  0  0  0  0  0
  2  1  1  1
  2  4  1  0
  3  2  1  0
  4  6  1  0
  4  5  1  1
  6  7  2  0
  8  9  1  0
  9 11  1  0
 10  9  2  0
 12 11  1  6
 12 14  1  0
 13  6  1  0
 13 12  1  0
 14 21  1  0
 14 15  2  0
 17 19  1  0
 17 16  1  0
 18 17  2  0
 20 19  1  1
 20 22  1  0
 21 20  1  0
 22 24  2  0
 22 23  1  0
M  END
$$$$
