VNN.pdb
     RDKit          3D

 24 23  0  0  1  0  0  0  0  0999 V2000
    7.4942  -12.3809   18.7573 C   0  0  0  0  0  0  0  0  0  0  0  0
    7.7934  -13.4346   19.7918 C   0  0  2  0  0  0  0  0  0  0  0  0
    8.7133  -12.8197   20.8262 C   0  0  0  0  0  0  0  0  0  0  0  0
    8.5189  -14.6263   19.2003 C   0  0  2  0  0  0  0  0  0  0  0  0
    7.6801  -15.1558   18.1428 N   0  0  0  0  0  0  0  0  0  0  0  0
    8.7560  -15.6829   20.2237 C   0  0  0  0  0  0  0  0  0  0  0  0
    7.7817  -16.2256   20.7886 O   0  0  0  0  0  0  0  0  0  0  0  0
   10.7229  -19.1233   18.8673 N   0  0  0  0  0  0  0  0  0  0  0  0
   10.4172  -19.0274   20.2602 C   0  0  0  0  0  0  0  0  0  0  0  0
    9.4403  -19.7222   20.6343 O   0  0  0  0  0  0  0  0  0  0  0  0
   11.2235  -18.1595   21.1494 C   0  0  0  0  0  0  0  0  0  0  0  0
   10.3729  -17.0409   21.6361 C   0  0  2  0  0  0  0  0  0  0  0  0
   10.0494  -16.1133   20.5980 N   0  0  0  0  0  0  0  0  0  0  0  0
   10.9239  -16.3746   22.8441 C   0  0  0  0  0  0  0  0  0  0  0  0
   11.8018  -15.4952   22.6747 O   0  0  0  0  0  0  0  0  0  0  0  0
   12.0368  -14.6792   27.6991 N   0  0  0  0  0  0  0  0  0  0  0  0
   10.6712  -15.0415   27.5893 C   0  0  0  0  0  0  0  0  0  0  0  0
    9.9535  -14.7335   28.6021 O   0  0  0  0  0  0  0  0  0  0  0  0
   10.1328  -15.7212   26.3929 C   0  0  0  0  0  0  0  0  0  0  0  0
   11.1461  -15.9893   25.3260 C   0  0  2  0  0  0  0  0  0  0  0  0
   10.5284  -16.6617   24.1722 N   0  0  0  0  0  0  0  0  0  0  0  0
   12.3302  -16.7171   25.7980 C   0  0  0  0  0  0  0  0  0  0  0  0
   13.5457  -16.0776   25.8780 O   0  0  0  0  0  0  0  0  0  0  0  0
   12.2553  -17.9208   26.1322 O   0  0  0  0  0  0  0  0  0  0  0  0
  2  1  1  6
  2  4  1  0
  3  2  1  0
  4  6  1  0
  4  5  1  6
  6  7  2  0
  8  9  1  0
  9 11  1  0
 10  9  2  0
 12 11  1  6
 12 14  1  0
 13  6  1  0
 13 12  1  0
 14 21  1  0
 14 15  2  0
 17 19  1  0
 17 16  1  0
 18 17  2  0
 20 19  1  1
 20 22  1  0
 21 20  1  0
 22 24  2  0
 22 23  1  0
M  END
$$$$
