VNN.pdb
     RDKit          3D

 24 23  0  0  1  0  0  0  0  0999 V2000
    7.6074  -12.6891   18.4154 C   0  0  0  0  0  0  0  0  0  0  0  0
    7.7289  -13.0256   19.8789 C   0  0  2  0  0  0  0  0  0  0  0  0
    9.1076  -12.5990   20.3390 C   0  0  0  0  0  0  0  0  0  0  0  0
    7.6133  -14.5148   20.1344 C   0  0  2  0  0  0  0  0  0  0  0  0
    6.4018  -14.9681   19.4794 N   0  0  0  0  0  0  0  0  0  0  0  0
    7.5325  -14.8130   21.5920 C   0  0  0  0  0  0  0  0  0  0  0  0
    6.5721  -14.3728   22.2604 O   0  0  0  0  0  0  0  0  0  0  0  0
    7.4754  -15.9774   26.5405 N   0  0  0  0  0  0  0  0  0  0  0  0
    7.2397  -16.9167   25.4892 C   0  0  0  0  0  0  0  0  0  0  0  0
    7.1196  -18.1090   25.8649 O   0  0  0  0  0  0  0  0  0  0  0  0
    7.1526  -16.4641   24.0815 C   0  0  0  0  0  0  0  0  0  0  0  0
    8.4823  -15.9537   23.6536 C   0  0  2  0  0  0  0  0  0  0  0  0
    8.5030  -15.5823   22.2736 N   0  0  0  0  0  0  0  0  0  0  0  0
    9.5986  -16.8649   24.0150 C   0  0  0  0  0  0  0  0  0  0  0  0
    9.5484  -18.0440   23.5909 O   0  0  0  0  0  0  0  0  0  0  0  0
   12.9138  -16.9092   22.5837 N   0  0  0  0  0  0  0  0  0  0  0  0
   13.4810  -16.3734   23.7666 C   0  0  0  0  0  0  0  0  0  0  0  0
   14.3306  -15.4368   23.5752 O   0  0  0  0  0  0  0  0  0  0  0  0
   13.1105  -16.8677   25.1089 C   0  0  0  0  0  0  0  0  0  0  0  0
   11.7453  -17.4731   25.1894 C   0  0  2  0  0  0  0  0  0  0  0  0
   10.7143  -16.4967   24.8037 N   0  0  0  0  0  0  0  0  0  0  0  0
   11.4413  -18.0871   26.4876 C   0  0  0  0  0  0  0  0  0  0  0  0
   12.1262  -19.2076   26.8972 O   0  0  0  0  0  0  0  0  0  0  0  0
   10.5615  -17.6065   27.2368 O   0  0  0  0  0  0  0  0  0  0  0  0
  2  1  1  6
  2  4  1  0
  3  2  1  0
  4  6  1  0
  4  5  1  6
  6  7  2  0
  8  9  1  0
  9 11  1  0
 10  9  2  0
 12 11  1  6
 12 14  1  0
 13  6  1  0
 13 12  1  0
 14 21  1  0
 14 15  2  0
 17 19  1  0
 17 16  1  0
 18 17  2  0
 20 19  1  1
 20 22  1  0
 21 20  1  0
 22 24  2  0
 22 23  1  0
M  END
$$$$
