VNN.pdb
     RDKit          3D

 24 23  0  0  1  0  0  0  0  0999 V2000
    7.9681  -13.4009   20.2351 C   0  0  0  0  0  0  0  0  0  0  0  0
    8.9444  -13.1018   19.1272 C   0  0  2  0  0  0  0  0  0  0  0  0
    8.2183  -12.2850   18.0783 C   0  0  0  0  0  0  0  0  0  0  0  0
    9.4412  -14.3619   18.4476 C   0  0  2  0  0  0  0  0  0  0  0  0
    8.2733  -15.1407   18.0848 N   0  0  0  0  0  0  0  0  0  0  0  0
   10.3117  -15.1627   19.3537 C   0  0  0  0  0  0  0  0  0  0  0  0
    9.8590  -16.1971   19.8904 O   0  0  0  0  0  0  0  0  0  0  0  0
   14.4405  -13.5983   18.2702 N   0  0  0  0  0  0  0  0  0  0  0  0
   14.3013  -14.8977   18.8493 C   0  0  0  0  0  0  0  0  0  0  0  0
   14.4780  -15.8516   18.0519 O   0  0  0  0  0  0  0  0  0  0  0  0
   13.9729  -15.0500   20.2856 C   0  0  0  0  0  0  0  0  0  0  0  0
   12.5849  -15.5684   20.4129 C   0  0  2  0  0  0  0  0  0  0  0  0
   11.6489  -14.8086   19.6451 N   0  0  0  0  0  0  0  0  0  0  0  0
   12.1561  -15.7416   21.8247 C   0  0  0  0  0  0  0  0  0  0  0  0
   12.8981  -16.4132   22.5804 O   0  0  0  0  0  0  0  0  0  0  0  0
    7.2552  -15.3882   25.5845 N   0  0  0  0  0  0  0  0  0  0  0  0
    8.6484  -15.2494   25.3654 C   0  0  0  0  0  0  0  0  0  0  0  0
    9.3742  -15.4454   26.4000 O   0  0  0  0  0  0  0  0  0  0  0  0
    9.2045  -14.9049   24.0405 C   0  0  0  0  0  0  0  0  0  0  0  0
   10.4912  -15.5931   23.7124 C   0  0  2  0  0  0  0  0  0  0  0  0
   10.9700  -15.2025   22.3771 N   0  0  0  0  0  0  0  0  0  0  0  0
   10.4397  -17.0531   23.8560 C   0  0  0  0  0  0  0  0  0  0  0  0
   11.1446  -17.6719   24.8623 O   0  0  0  0  0  0  0  0  0  0  0  0
    9.7603  -17.7535   23.0723 O   0  0  0  0  0  0  0  0  0  0  0  0
  2  1  1  1
  2  4  1  0
  3  2  1  0
  4  6  1  0
  4  5  1  1
  6  7  2  0
  8  9  1  0
  9 11  1  0
 10  9  2  0
 12 11  1  1
 12 14  1  0
 13  6  1  0
 13 12  1  0
 14 21  1  0
 14 15  2  0
 17 19  1  0
 17 16  1  0
 18 17  2  0
 20 19  1  6
 20 22  1  0
 21 20  1  0
 22 24  2  0
 22 23  1  0
M  END
$$$$
