VNN.pdb
     RDKit          3D

 24 23  0  0  1  0  0  0  0  0999 V2000
    8.7956  -13.5070   20.9136 C   0  0  0  0  0  0  0  0  0  0  0  0
    8.9284  -13.3089   19.4259 C   0  0  2  0  0  0  0  0  0  0  0  0
    8.1596  -12.0576   19.0551 C   0  0  0  0  0  0  0  0  0  0  0  0
    8.3229  -14.4548   18.6406 C   0  0  2  0  0  0  0  0  0  0  0  0
    6.9316  -14.5561   19.0361 N   0  0  0  0  0  0  0  0  0  0  0  0
    9.0175  -15.7408   18.9299 C   0  0  0  0  0  0  0  0  0  0  0  0
    8.6141  -16.4637   19.8667 O   0  0  0  0  0  0  0  0  0  0  0  0
   11.4532  -20.4685   17.0795 N   0  0  0  0  0  0  0  0  0  0  0  0
   12.0970  -19.2441   17.4390 C   0  0  0  0  0  0  0  0  0  0  0  0
   13.2129  -19.3800   17.9988 O   0  0  0  0  0  0  0  0  0  0  0  0
   11.4524  -17.9421   17.1500 C   0  0  0  0  0  0  0  0  0  0  0  0
   10.8663  -17.4024   18.4058 C   0  0  2  0  0  0  0  0  0  0  0  0
   10.1306  -16.1967   18.1873 N   0  0  0  0  0  0  0  0  0  0  0  0
   11.8600  -17.2726   19.5024 C   0  0  0  0  0  0  0  0  0  0  0  0
   12.4072  -18.3211   19.9195 O   0  0  0  0  0  0  0  0  0  0  0  0
   14.1752  -13.8333   18.6122 N   0  0  0  0  0  0  0  0  0  0  0  0
   14.7433  -14.6432   19.6268 C   0  0  0  0  0  0  0  0  0  0  0  0
   15.8184  -15.2477   19.2887 O   0  0  0  0  0  0  0  0  0  0  0  0
   14.1307  -14.7699   20.9654 C   0  0  0  0  0  0  0  0  0  0  0  0
   13.2787  -15.9863   21.1426 C   0  0  2  0  0  0  0  0  0  0  0  0
   12.2329  -16.0499   20.1095 N   0  0  0  0  0  0  0  0  0  0  0  0
   12.7098  -16.1246   22.4886 C   0  0  0  0  0  0  0  0  0  0  0  0
   11.3480  -16.2291   22.6539 O   0  0  0  0  0  0  0  0  0  0  0  0
   13.4469  -16.1489   23.4997 O   0  0  0  0  0  0  0  0  0  0  0  0
  2  1  1  1
  2  4  1  0
  3  2  1  0
  4  6  1  0
  4  5  1  1
  6  7  2  0
  8  9  1  0
  9 11  1  0
 10  9  2  0
 12 11  1  6
 12 14  1  0
 13  6  1  0
 13 12  1  0
 14 21  1  0
 14 15  2  0
 17 19  1  0
 17 16  1  0
 18 17  2  0
 20 19  1  1
 20 22  1  0
 21 20  1  0
 22 24  2  0
 22 23  1  0
M  END
$$$$
