CHY.pdb
     RDKit          3D

 29 30  0  0  1  0  0  0  0  0999 V2000
   22.1740  -11.1596  -19.9880 N   0  0  0  0  0  0  0  0  0  0  0  0
   22.8977  -10.5465  -18.9005 C   0  0  1  0  0  0  0  0  0  0  0  0
   23.9726   -9.6032  -19.3859 C   0  0  0  0  0  0  0  0  0  0  0  0
   25.3644  -10.5608  -20.0406 S   0  0  0  0  0  0  0  0  0  0  0  0
   21.9342   -9.7543  -18.0944 C   0  0  0  0  0  0  0  0  0  0  0  0
   21.0366   -9.0847  -18.6413 O   0  0  0  0  0  0  0  0  0  0  0  0
   22.0045   -9.7343  -16.6725 N   0  0  0  0  0  0  0  0  0  0  0  0
   21.1203   -8.8831  -15.9171 C   0  0  1  0  0  0  0  0  0  0  0  0
   20.3822   -9.6855  -14.8376 C   0  0  0  0  0  0  0  0  0  0  0  0
   19.3046  -10.5119  -15.4228 C   0  0  0  0  0  0  0  0  0  0  0  0
   19.4085  -11.8631  -15.6486 C   0  0  0  0  0  0  0  0  0  0  0  0
   18.2206  -12.2311  -16.1868 N   0  0  0  0  0  0  0  0  0  0  0  0
   17.4315  -11.1404  -16.2809 C   0  0  0  0  0  0  0  0  0  0  0  0
   18.1059  -10.0842  -15.8083 N   0  0  0  0  0  0  0  0  0  0  0  0
   21.9267   -7.8852  -15.1811 C   0  0  0  0  0  0  0  0  0  0  0  0
   23.0811   -8.2160  -14.8061 O   0  0  0  0  0  0  0  0  0  0  0  0
   22.1805   -2.1155  -19.4791 O   0  0  0  0  0  0  0  0  0  0  0  0
   22.4735   -2.9796  -18.4215 C   0  0  0  0  0  0  0  0  0  0  0  0
   22.8096   -2.3790  -17.2109 C   0  0  0  0  0  0  0  0  0  0  0  0
   23.1099   -3.2056  -16.1274 C   0  0  0  0  0  0  0  0  0  0  0  0
   23.0735   -4.5717  -16.2562 C   0  0  0  0  0  0  0  0  0  0  0  0
   23.3904   -5.4378  -15.1117 C   0  0  0  0  0  0  0  0  0  0  0  0
   22.1854   -5.6262  -14.2556 C   0  0  2  0  0  0  0  0  0  0  0  0
   21.3492   -6.6145  -14.9424 N   0  0  0  0  0  0  0  0  0  0  0  0
   21.4251   -4.4206  -13.9307 C   0  0  0  0  0  0  0  0  0  0  0  0
   20.1077   -4.2676  -14.3219 O   0  0  0  0  0  0  0  0  0  0  0  0
   22.7322   -5.1390  -17.4859 C   0  0  0  0  0  0  0  0  0  0  0  0
   22.4320   -4.3439  -18.5690 C   0  0  0  0  0  0  0  0  0  0  0  0
   21.9561   -3.4937  -13.2854 O   0  0  0  0  0  0  0  0  0  0  0  0
  2  1  1  6
  2  3  1  0
  3  4  1  0
  5  2  1  0
  6  5  2  0
  7  5  1  0
  8 15  1  0
  8  7  1  0
  9 10  1  0
  8  9  1  1
 10 11  2  0
 12 11  1  0
 13 12  1  0
 14 13  2  0
 14 10  1  0
 15 16  2  0
 18 28  2  0
 18 17  1  0
 19 18  1  0
 20 21  1  0
 20 19  2  0
 21 27  2  0
 22 21  1  0
 23 22  1  6
 24 23  1  0
 24 15  1  0
 25 26  1  0
 25 23  1  0
 27 28  1  0
 29 25  2  0
M  END
$$$$
