CHY.pdb
     RDKit          3D

 29 30  0  0  1  0  0  0  0  0999 V2000
   27.0570  -16.2947  -18.6890 N   0  0  0  0  0  0  0  0  0  0  0  0
   27.2733  -17.3994  -17.7861 C   0  0  1  0  0  0  0  0  0  0  0  0
   28.0968  -17.0047  -16.5832 C   0  0  0  0  0  0  0  0  0  0  0  0
   29.8429  -16.9018  -17.0555 S   0  0  0  0  0  0  0  0  0  0  0  0
   25.9494  -17.8585  -17.2941 C   0  0  0  0  0  0  0  0  0  0  0  0
   25.3918  -17.2977  -16.3309 O   0  0  0  0  0  0  0  0  0  0  0  0
   25.2749  -18.9529  -17.9061 N   0  0  0  0  0  0  0  0  0  0  0  0
   24.0282  -19.4291  -17.3621 C   0  0  1  0  0  0  0  0  0  0  0  0
   23.4046  -20.4910  -18.2774 C   0  0  0  0  0  0  0  0  0  0  0  0
   22.0614  -20.8886  -17.8040 C   0  0  0  0  0  0  0  0  0  0  0  0
   21.4085  -20.2910  -16.7531 C   0  0  0  0  0  0  0  0  0  0  0  0
   20.2246  -20.9416  -16.6473 N   0  0  0  0  0  0  0  0  0  0  0  0
   20.1681  -21.8955  -17.6001 C   0  0  0  0  0  0  0  0  0  0  0  0
   21.3035  -21.8573  -18.3096 N   0  0  0  0  0  0  0  0  0  0  0  0
   24.2958  -20.1222  -16.0831 C   0  0  0  0  0  0  0  0  0  0  0  0
   25.3031  -20.8729  -16.0150 O   0  0  0  0  0  0  0  0  0  0  0  0
   26.2340  -20.9906   -7.9421 O   0  0  0  0  0  0  0  0  0  0  0  0
   25.8978  -20.6488   -9.2540 C   0  0  0  0  0  0  0  0  0  0  0  0
   26.5445  -21.3614  -10.2608 C   0  0  0  0  0  0  0  0  0  0  0  0
   26.2381  -21.0520  -11.5866 C   0  0  0  0  0  0  0  0  0  0  0  0
   25.3243  -20.0722  -11.8850 C   0  0  0  0  0  0  0  0  0  0  0  0
   25.0051  -19.7505  -13.2832 C   0  0  0  0  0  0  0  0  0  0  0  0
   23.7695  -20.4657  -13.7101 C   0  0  2  0  0  0  0  0  0  0  0  0
   23.3998  -19.8986  -15.0097 N   0  0  0  0  0  0  0  0  0  0  0  0
   22.6451  -20.4327  -12.7764 C   0  0  0  0  0  0  0  0  0  0  0  0
   22.4895  -21.3949  -11.7956 O   0  0  0  0  0  0  0  0  0  0  0  0
   24.6953  -19.3781  -10.8492 C   0  0  0  0  0  0  0  0  0  0  0  0
   24.9813  -19.6657   -9.5335 C   0  0  0  0  0  0  0  0  0  0  0  0
   21.7924  -19.5241  -12.8463 O   0  0  0  0  0  0  0  0  0  0  0  0
  2  1  1  6
  2  3  1  0
  3  4  1  0
  5  2  1  0
  6  5  2  0
  7  5  1  0
  8 15  1  0
  8  7  1  0
  9 10  1  0
  8  9  1  6
 10 11  2  0
 12 11  1  0
 13 12  1  0
 14 13  2  0
 14 10  1  0
 15 16  2  0
 18 28  2  0
 18 17  1  0
 19 18  1  0
 20 21  1  0
 20 19  2  0
 21 27  2  0
 22 21  1  0
 23 22  1  1
 24 23  1  0
 24 15  1  0
 25 26  1  0
 25 23  1  0
 27 28  1  0
 29 25  2  0
M  END
$$$$
