CHY.pdb
     RDKit          3D

 29 30  0  0  1  0  0  0  0  0999 V2000
   28.8287  -25.7315  -17.7760 N   0  0  0  0  0  0  0  0  0  0  0  0
   27.4625  -25.8240  -17.3207 C   0  0  1  0  0  0  0  0  0  0  0  0
   27.3017  -26.8043  -16.1831 C   0  0  0  0  0  0  0  0  0  0  0  0
   27.4947  -28.4930  -16.8106 S   0  0  0  0  0  0  0  0  0  0  0  0
   27.0508  -24.4864  -16.8237 C   0  0  0  0  0  0  0  0  0  0  0  0
   27.8833  -23.6979  -16.3356 O   0  0  0  0  0  0  0  0  0  0  0  0
   25.6933  -24.0620  -16.8888 N   0  0  0  0  0  0  0  0  0  0  0  0
   25.3427  -22.7065  -16.5474 C   0  0  1  0  0  0  0  0  0  0  0  0
   23.9983  -22.3167  -17.1757 C   0  0  0  0  0  0  0  0  0  0  0  0
   24.1864  -21.6652  -18.4897 C   0  0  0  0  0  0  0  0  0  0  0  0
   25.4131  -21.3585  -19.0271 C   0  0  0  0  0  0  0  0  0  0  0  0
   25.1482  -20.7804  -20.2237 N   0  0  0  0  0  0  0  0  0  0  0  0
   23.8107  -20.7412  -20.3989 C   0  0  0  0  0  0  0  0  0  0  0  0
   23.2240  -21.2881  -19.3263 N   0  0  0  0  0  0  0  0  0  0  0  0
   25.1326  -22.6182  -15.0859 C   0  0  0  0  0  0  0  0  0  0  0  0
   24.7626  -23.6547  -14.4765 O   0  0  0  0  0  0  0  0  0  0  0  0
   25.6070  -19.5281   -6.9956 O   0  0  0  0  0  0  0  0  0  0  0  0
   25.7958  -19.8032   -8.3519 C   0  0  0  0  0  0  0  0  0  0  0  0
   26.0645  -21.1298   -8.6795 C   0  0  0  0  0  0  0  0  0  0  0  0
   26.2599  -21.4489  -10.0239 C   0  0  0  0  0  0  0  0  0  0  0  0
   26.1882  -20.4790  -10.9925 C   0  0  0  0  0  0  0  0  0  0  0  0
   26.3945  -20.8206  -12.4072 C   0  0  0  0  0  0  0  0  0  0  0  0
   25.1212  -21.2996  -13.0153 C   0  0  2  0  0  0  0  0  0  0  0  0
   25.3612  -21.3692  -14.4592 N   0  0  0  0  0  0  0  0  0  0  0  0
   23.9232  -20.5185  -12.7125 C   0  0  0  0  0  0  0  0  0  0  0  0
   23.4478  -19.5547  -13.5827 O   0  0  0  0  0  0  0  0  0  0  0  0
   25.9167  -19.1588  -10.6269 C   0  0  0  0  0  0  0  0  0  0  0  0
   25.7203  -18.8199   -9.3070 C   0  0  0  0  0  0  0  0  0  0  0  0
   23.2973  -20.7081  -11.6496 O   0  0  0  0  0  0  0  0  0  0  0  0
  2  1  1  1
  2  3  1  0
  3  4  1  0
  5  2  1  0
  6  5  2  0
  7  5  1  0
  8 15  1  0
  8  7  1  0
  9 10  1  0
  8  9  1  6
 10 11  2  0
 12 11  1  0
 13 12  1  0
 14 13  2  0
 14 10  1  0
 15 16  2  0
 18 28  2  0
 18 17  1  0
 19 18  1  0
 20 21  1  0
 20 19  2  0
 21 27  2  0
 22 21  1  0
 23 22  1  1
 24 23  1  0
 24 15  1  0
 25 26  1  0
 25 23  1  0
 27 28  1  0
 29 25  2  0
M  END
$$$$
