CHY.pdb
     RDKit          3D

 29 30  0  0  1  0  0  0  0  0999 V2000
   19.4569  -11.7940  -18.7179 N   0  0  0  0  0  0  0  0  0  0  0  0
   19.1882  -10.4225  -19.0773 C   0  0  1  0  0  0  0  0  0  0  0  0
   17.8912  -10.2717  -19.8364 C   0  0  0  0  0  0  0  0  0  0  0  0
   18.1099  -10.8775  -21.5299 S   0  0  0  0  0  0  0  0  0  0  0  0
   19.0713   -9.6324  -17.8253 C   0  0  0  0  0  0  0  0  0  0  0  0
   18.5400  -10.1162  -16.8071 O   0  0  0  0  0  0  0  0  0  0  0  0
   19.5620   -8.2980  -17.7477 N   0  0  0  0  0  0  0  0  0  0  0  0
   19.4386   -7.5529  -16.5202 C   0  0  1  0  0  0  0  0  0  0  0  0
   20.8193   -7.2675  -15.9150 C   0  0  0  0  0  0  0  0  0  0  0  0
   21.3416   -8.4433  -15.1863 C   0  0  0  0  0  0  0  0  0  0  0  0
   20.6328   -9.6039  -14.9910 C   0  0  0  0  0  0  0  0  0  0  0  0
   21.4584  -10.4169  -14.2884 N   0  0  0  0  0  0  0  0  0  0  0  0
   22.6213   -9.7681  -14.0694 C   0  0  0  0  0  0  0  0  0  0  0  0
   22.5425   -8.5522  -14.6256 N   0  0  0  0  0  0  0  0  0  0  0  0
   18.8601   -6.2251  -16.8204 C   0  0  0  0  0  0  0  0  0  0  0  0
   19.1957   -5.6611  -17.8937 O   0  0  0  0  0  0  0  0  0  0  0  0
   13.6228    0.6135  -16.9394 O   0  0  0  0  0  0  0  0  0  0  0  0
   14.2063   -0.6448  -16.7738 C   0  0  0  0  0  0  0  0  0  0  0  0
   14.4360   -1.0489  -15.4610 C   0  0  0  0  0  0  0  0  0  0  0  0
   15.0175   -2.2998  -15.2499 C   0  0  0  0  0  0  0  0  0  0  0  0
   15.3519   -3.1055  -16.3096 C   0  0  0  0  0  0  0  0  0  0  0  0
   15.9641   -4.4223  -16.0817 C   0  0  0  0  0  0  0  0  0  0  0  0
   17.4485   -4.3254  -16.1686 C   0  0  2  0  0  0  0  0  0  0  0  0
   17.9612   -5.6674  -15.8792 N   0  0  0  0  0  0  0  0  0  0  0  0
   18.0840   -3.3191  -15.3199 C   0  0  0  0  0  0  0  0  0  0  0  0
   18.7707   -3.6687  -14.1718 O   0  0  0  0  0  0  0  0  0  0  0  0
   15.1069   -2.6673  -17.6128 C   0  0  0  0  0  0  0  0  0  0  0  0
   14.5341   -1.4372  -17.8459 C   0  0  0  0  0  0  0  0  0  0  0  0
   18.0192   -2.1089  -15.6181 O   0  0  0  0  0  0  0  0  0  0  0  0
  2  1  1  1
  2  3  1  0
  3  4  1  0
  5  2  1  0
  6  5  2  0
  7  5  1  0
  8 15  1  0
  8  7  1  0
  9 10  1  0
  8  9  1  6
 10 11  2  0
 12 11  1  0
 13 12  1  0
 14 13  2  0
 14 10  1  0
 15 16  2  0
 18 28  2  0
 18 17  1  0
 19 18  1  0
 20 21  1  0
 20 19  2  0
 21 27  2  0
 22 21  1  0
 23 22  1  1
 24 23  1  0
 24 15  1  0
 25 26  1  0
 25 23  1  0
 27 28  1  0
 29 25  2  0
M  END
$$$$
