CHY.pdb
     RDKit          3D

 29 30  0  0  1  0  0  0  0  0999 V2000
   23.9658  -12.4939  -16.1778 N   0  0  0  0  0  0  0  0  0  0  0  0
   22.6468  -12.4220  -16.7585 C   0  0  1  0  0  0  0  0  0  0  0  0
   21.8820  -13.7156  -16.6077 C   0  0  0  0  0  0  0  0  0  0  0  0
   22.7728  -15.0450  -17.4572 S   0  0  0  0  0  0  0  0  0  0  0  0
   21.8864  -11.3640  -16.0457 C   0  0  0  0  0  0  0  0  0  0  0  0
   21.9798  -11.2268  -14.8105 O   0  0  0  0  0  0  0  0  0  0  0  0
   21.0272  -10.4731  -16.7494 N   0  0  0  0  0  0  0  0  0  0  0  0
   20.2750   -9.4759  -16.0306 C   0  0  1  0  0  0  0  0  0  0  0  0
   20.3709   -8.1129  -16.7288 C   0  0  0  0  0  0  0  0  0  0  0  0
   21.7270   -7.5373  -16.6026 C   0  0  0  0  0  0  0  0  0  0  0  0
   22.5134   -7.6605  -15.4828 C   0  0  0  0  0  0  0  0  0  0  0  0
   23.6604   -7.0001  -15.7732 N   0  0  0  0  0  0  0  0  0  0  0  0
   23.5666   -6.4982  -17.0224 C   0  0  0  0  0  0  0  0  0  0  0  0
   22.3723   -6.8330  -17.5278 N   0  0  0  0  0  0  0  0  0  0  0  0
   18.8408   -9.8359  -16.0689 C   0  0  0  0  0  0  0  0  0  0  0  0
   18.5114  -10.8968  -16.6592 O   0  0  0  0  0  0  0  0  0  0  0  0
   10.9497  -12.2201  -15.0419 O   0  0  0  0  0  0  0  0  0  0  0  0
   12.2956  -11.8474  -15.0673 C   0  0  0  0  0  0  0  0  0  0  0  0
   12.7934  -11.2591  -13.9072 C   0  0  0  0  0  0  0  0  0  0  0  0
   14.1338  -10.8713  -13.8894 C   0  0  0  0  0  0  0  0  0  0  0  0
   14.9350  -11.0662  -14.9867 C   0  0  0  0  0  0  0  0  0  0  0  0
   16.3463  -10.6561  -14.9625 C   0  0  0  0  0  0  0  0  0  0  0  0
   16.5012   -9.2980  -15.5558 C   0  0  2  0  0  0  0  0  0  0  0  0
   17.9227   -8.9622  -15.4373 N   0  0  0  0  0  0  0  0  0  0  0  0
   15.6575   -8.2444  -14.9945 C   0  0  0  0  0  0  0  0  0  0  0  0
   16.1131   -7.4091  -13.9911 O   0  0  0  0  0  0  0  0  0  0  0  0
   14.4014  -11.6593  -16.1330 C   0  0  0  0  0  0  0  0  0  0  0  0
   13.0819  -12.0502  -16.1742 C   0  0  0  0  0  0  0  0  0  0  0  0
   14.4946   -8.0751  -15.4148 O   0  0  0  0  0  0  0  0  0  0  0  0
  2  1  1  1
  2  3  1  0
  3  4  1  0
  5  2  1  0
  6  5  2  0
  7  5  1  0
  8 15  1  0
  8  7  1  0
  9 10  1  0
  8  9  1  6
 10 11  2  0
 12 11  1  0
 13 12  1  0
 14 13  2  0
 14 10  1  0
 15 16  2  0
 18 28  2  0
 18 17  1  0
 19 18  1  0
 20 21  1  0
 20 19  2  0
 21 27  2  0
 22 21  1  0
 23 22  1  1
 24 23  1  0
 24 15  1  0
 25 26  1  0
 25 23  1  0
 27 28  1  0
 29 25  2  0
M  END
$$$$
