IKC.pdb
     RDKit          3D

 24 23  0  0  1  0  0  0  0  0999 V2000
   18.2313  -20.9357  -18.0368 C   0  0  0  0  0  0  0  0  0  0  0  0
   18.9624  -20.2042  -16.9627 C   0  0  0  0  0  0  0  0  0  0  0  0
   20.2646  -20.8766  -16.5625 C   0  0  2  0  0  0  0  0  0  0  0  0
   19.9188  -22.2221  -15.9135 C   0  0  0  0  0  0  0  0  0  0  0  0
   20.8737  -20.0256  -15.4722 C   0  0  2  0  0  0  0  0  0  0  0  0
   21.0335  -18.6840  -15.9658 N   0  0  0  0  0  0  0  0  0  0  0  0
   22.1746  -20.5372  -15.0158 C   0  0  0  0  0  0  0  0  0  0  0  0
   22.2814  -21.7141  -14.5634 O   0  0  0  0  0  0  0  0  0  0  0  0
   23.3123  -19.7153  -15.0806 N   0  0  0  0  0  0  0  0  0  0  0  0
   24.6665  -20.2710  -14.6533 C   0  0  1  0  0  0  0  0  0  0  0  0
   25.6497  -19.6675  -15.5633 C   0  0  0  0  0  0  0  0  0  0  0  0
   26.7267  -20.4030  -16.2087 C   0  0  0  0  0  0  0  0  0  0  0  0
   26.5720  -21.8241  -16.5776 C   0  0  0  0  0  0  0  0  0  0  0  0
   27.8883  -22.2599  -17.2731 C   0  0  0  0  0  0  0  0  0  0  0  0
   27.7307  -23.6707  -17.5655 N   0  0  0  0  0  0  0  0  0  0  0  0
   24.7144  -20.0400  -13.2209 C   0  0  0  0  0  0  0  0  0  0  0  0
   24.2396  -18.9295  -12.7732 O   0  0  0  0  0  0  0  0  0  0  0  0
   25.2123  -20.8963  -12.2223 N   0  0  0  0  0  0  0  0  0  0  0  0
   25.6048  -20.4406  -10.9047 C   0  0  1  0  0  0  0  0  0  0  0  0
   24.4524  -20.9320   -9.9866 C   0  0  0  0  0  0  0  0  0  0  0  0
   24.9464  -20.6322   -8.2774 S   0  0  0  0  0  0  0  0  0  0  0  0
   26.8834  -20.9824  -10.4433 C   0  0  0  0  0  0  0  0  0  0  0  0
   27.5662  -20.5018   -9.3537 O   0  0  0  0  0  0  0  0  0  0  0  0
   27.4237  -21.9537  -11.0638 O   0  0  0  0  0  0  0  0  0  0  0  0
  1  2  1  0
  3  2  1  0
  3  4  1  1
  5  6  1  6
  5  3  1  0
  7  5  1  0
  8  7  2  0
  9  7  1  0
 10 11  1  6
 10  9  1  0
 11 12  1  0
 13 12  1  0
 13 14  1  0
 15 14  1  0
 16 10  1  0
 17 16  2  0
 18 16  1  0
 19 20  1  1
 19 18  1  0
 20 21  1  0
 22 19  1  0
 22 23  1  0
 24 22  2  0
M  END
$$$$
