IKC.pdb
     RDKit          3D

 24 23  0  0  1  0  0  0  0  0999 V2000
   24.1408  -21.5669   -7.3881 C   0  0  0  0  0  0  0  0  0  0  0  0
   23.7128  -20.9789   -8.6898 C   0  0  0  0  0  0  0  0  0  0  0  0
   24.7271  -21.1875   -9.8013 C   0  0  2  0  0  0  0  0  0  0  0  0
   26.0228  -20.4751   -9.3952 C   0  0  0  0  0  0  0  0  0  0  0  0
   24.2010  -20.4504  -11.0112 C   0  0  2  0  0  0  0  0  0  0  0  0
   22.9326  -21.0173  -11.3842 N   0  0  0  0  0  0  0  0  0  0  0  0
   25.1211  -20.5139  -12.1565 C   0  0  0  0  0  0  0  0  0  0  0  0
   26.2420  -19.9282  -12.1158 O   0  0  0  0  0  0  0  0  0  0  0  0
   24.7566  -21.2304  -13.3088 N   0  0  0  0  0  0  0  0  0  0  0  0
   25.7448  -21.3492  -14.4642 C   0  0  1  0  0  0  0  0  0  0  0  0
   25.3896  -22.5902  -15.1660 C   0  0  0  0  0  0  0  0  0  0  0  0
   26.3339  -23.4061  -15.9143 C   0  0  0  0  0  0  0  0  0  0  0  0
   25.9173  -24.6688  -16.5557 C   0  0  0  0  0  0  0  0  0  0  0  0
   27.1615  -25.2421  -17.2834 C   0  0  0  0  0  0  0  0  0  0  0  0
   26.7207  -26.4752  -17.9048 N   0  0  0  0  0  0  0  0  0  0  0  0
   25.6830  -20.0580  -15.1246 C   0  0  0  0  0  0  0  0  0  0  0  0
   24.5212  -19.5405  -15.3293 O   0  0  0  0  0  0  0  0  0  0  0  0
   26.7532  -19.2635  -15.5738 N   0  0  0  0  0  0  0  0  0  0  0  0
   26.5758  -17.9845  -16.2299 C   0  0  1  0  0  0  0  0  0  0  0  0
   27.1461  -16.9637  -15.2076 C   0  0  0  0  0  0  0  0  0  0  0  0
   27.1102  -15.3340  -15.9807 S   0  0  0  0  0  0  0  0  0  0  0  0
   27.2807  -17.8670  -17.5069 C   0  0  0  0  0  0  0  0  0  0  0  0
   26.7929  -17.1725  -18.5858 O   0  0  0  0  0  0  0  0  0  0  0  0
   28.4123  -18.4288  -17.6628 O   0  0  0  0  0  0  0  0  0  0  0  0
  1  2  1  0
  3  2  1  0
  3  4  1  1
  5  6  1  6
  5  3  1  0
  7  5  1  0
  8  7  2  0
  9  7  1  0
 10 11  1  6
 10  9  1  0
 11 12  1  0
 13 12  1  0
 13 14  1  0
 15 14  1  0
 16 10  1  0
 17 16  2  0
 18 16  1  0
 19 20  1  1
 19 18  1  0
 20 21  1  0
 22 19  1  0
 22 23  1  0
 24 22  2  0
M  END
$$$$
