IKC.pdb
     RDKit          3D

 24 23  0  0  1  0  0  0  0  0999 V2000
   29.9555  -20.5057  -11.7705 C   0  0  0  0  0  0  0  0  0  0  0  0
   28.5391  -20.6843  -11.3401 C   0  0  0  0  0  0  0  0  0  0  0  0
   27.5763  -20.8392  -12.5049 C   0  0  2  0  0  0  0  0  0  0  0  0
   27.5337  -19.5054  -13.2602 C   0  0  0  0  0  0  0  0  0  0  0  0
   26.2014  -21.0304  -11.9073 C   0  0  2  0  0  0  0  0  0  0  0  0
   26.2258  -22.1832  -11.0472 N   0  0  0  0  0  0  0  0  0  0  0  0
   25.1595  -21.2052  -12.9302 C   0  0  0  0  0  0  0  0  0  0  0  0
   25.1957  -22.1887  -13.7255 O   0  0  0  0  0  0  0  0  0  0  0  0
   24.1120  -20.2741  -13.0292 N   0  0  0  0  0  0  0  0  0  0  0  0
   23.1050  -20.3936  -14.1680 C   0  0  1  0  0  0  0  0  0  0  0  0
   21.7868  -20.4880  -13.5258 C   0  0  0  0  0  0  0  0  0  0  0  0
   21.2672  -21.6933  -12.8974 C   0  0  0  0  0  0  0  0  0  0  0  0
   19.8152  -21.9298  -12.7745 C   0  0  0  0  0  0  0  0  0  0  0  0
   19.3318  -21.1535  -11.5216 C   0  0  0  0  0  0  0  0  0  0  0  0
   17.9267  -21.4777  -11.3755 N   0  0  0  0  0  0  0  0  0  0  0  0
   23.4392  -19.2983  -15.0602 C   0  0  0  0  0  0  0  0  0  0  0  0
   23.4210  -18.1030  -14.5803 O   0  0  0  0  0  0  0  0  0  0  0  0
   23.8046  -19.3675  -16.4166 N   0  0  0  0  0  0  0  0  0  0  0  0
   24.0498  -18.1991  -17.2366 C   0  0  1  0  0  0  0  0  0  0  0  0
   25.5977  -18.1496  -17.3542 C   0  0  0  0  0  0  0  0  0  0  0  0
   26.0234  -16.7529  -18.4139 S   0  0  0  0  0  0  0  0  0  0  0  0
   23.4447  -18.2675  -18.5673 C   0  0  0  0  0  0  0  0  0  0  0  0
   23.0752  -17.1633  -19.2944 O   0  0  0  0  0  0  0  0  0  0  0  0
   23.2330  -19.3982  -19.1124 O   0  0  0  0  0  0  0  0  0  0  0  0
  1  2  1  0
  3  2  1  0
  3  4  1  6
  5  6  1  1
  5  3  1  0
  7  5  1  0
  8  7  2  0
  9  7  1  0
 10 11  1  1
 10  9  1  0
 11 12  1  0
 13 12  1  0
 13 14  1  0
 15 14  1  0
 16 10  1  0
 17 16  2  0
 18 16  1  0
 19 20  1  6
 19 18  1  0
 20 21  1  0
 22 19  1  0
 22 23  1  0
 24 22  2  0
M  END
$$$$
