IKC.pdb
     RDKit          3D

 24 23  0  0  1  0  0  0  0  0999 V2000
   13.0182  -13.2950  -17.7873 C   0  0  0  0  0  0  0  0  0  0  0  0
   13.8859  -13.2491  -16.5756 C   0  0  0  0  0  0  0  0  0  0  0  0
   14.7330  -11.9907  -16.4952 C   0  0  2  0  0  0  0  0  0  0  0  0
   15.9919  -12.2166  -17.3410 C   0  0  0  0  0  0  0  0  0  0  0  0
   15.2012  -11.8749  -15.0630 C   0  0  2  0  0  0  0  0  0  0  0  0
   14.5634  -12.9009  -14.2822 N   0  0  0  0  0  0  0  0  0  0  0  0
   14.9065  -10.5592  -14.4762 C   0  0  0  0  0  0  0  0  0  0  0  0
   13.7496  -10.0555  -14.5718 O   0  0  0  0  0  0  0  0  0  0  0  0
   15.9155   -9.8510  -13.8021 N   0  0  0  0  0  0  0  0  0  0  0  0
   15.5950   -8.4972  -13.1776 C   0  0  1  0  0  0  0  0  0  0  0  0
   15.7658   -8.6764  -11.7293 C   0  0  0  0  0  0  0  0  0  0  0  0
   15.1730   -7.8095  -10.7220 C   0  0  0  0  0  0  0  0  0  0  0  0
   15.3851   -8.0505   -9.2810 C   0  0  0  0  0  0  0  0  0  0  0  0
   14.5772   -6.9704   -8.5149 C   0  0  0  0  0  0  0  0  0  0  0  0
   14.7160   -7.2978   -7.1098 N   0  0  0  0  0  0  0  0  0  0  0  0
   16.4046   -7.5543  -13.9276 C   0  0  0  0  0  0  0  0  0  0  0  0
   17.6339   -7.8639  -14.1566 O   0  0  0  0  0  0  0  0  0  0  0  0
   16.0140   -6.3155  -14.4670 N   0  0  0  0  0  0  0  0  0  0  0  0
   16.9436   -5.3741  -15.0565 C   0  0  1  0  0  0  0  0  0  0  0  0
   16.3456   -5.0974  -16.4630 C   0  0  0  0  0  0  0  0  0  0  0  0
   17.3261   -3.7910  -17.2291 S   0  0  0  0  0  0  0  0  0  0  0  0
   17.0776   -4.1225  -14.3102 C   0  0  0  0  0  0  0  0  0  0  0  0
   18.2099   -3.3465  -14.3203 O   0  0  0  0  0  0  0  0  0  0  0  0
   16.1102   -3.6990  -13.5995 O   0  0  0  0  0  0  0  0  0  0  0  0
  1  2  1  0
  3  2  1  0
  3  4  1  6
  5  6  1  1
  5  3  1  0
  7  5  1  0
  8  7  2  0
  9  7  1  0
 10 11  1  1
 10  9  1  0
 11 12  1  0
 13 12  1  0
 13 14  1  0
 15 14  1  0
 16 10  1  0
 17 16  2  0
 18 16  1  0
 19 20  1  6
 19 18  1  0
 20 21  1  0
 22 19  1  0
 22 23  1  0
 24 22  2  0
M  END
$$$$
