IKC.pdb
     RDKit          3D

 24 23  0  0  1  0  0  0  0  0999 V2000
   32.6005  -33.1976   -7.2190 C   0  0  0  0  0  0  0  0  0  0  0  0
   31.2626  -33.4294   -7.8351 C   0  0  0  0  0  0  0  0  0  0  0  0
   30.1139  -33.2250   -6.8621 C   0  0  2  0  0  0  0  0  0  0  0  0
   30.2856  -34.2279   -5.7149 C   0  0  0  0  0  0  0  0  0  0  0  0
   28.8528  -33.6282   -7.5907 C   0  0  2  0  0  0  0  0  0  0  0  0
   28.5874  -32.6655   -8.6260 N   0  0  0  0  0  0  0  0  0  0  0  0
   27.6883  -33.7197   -6.6975 C   0  0  0  0  0  0  0  0  0  0  0  0
   27.0587  -32.6782   -6.3508 O   0  0  0  0  0  0  0  0  0  0  0  0
   27.2669  -34.9728   -6.2220 N   0  0  0  0  0  0  0  0  0  0  0  0
   26.0534  -35.0589   -5.3025 C   0  0  1  0  0  0  0  0  0  0  0  0
   25.1119  -35.9684   -5.9699 C   0  0  0  0  0  0  0  0  0  0  0  0
   23.8386  -36.3876   -5.4037 C   0  0  0  0  0  0  0  0  0  0  0  0
   22.9377  -37.3012   -6.1338 C   0  0  0  0  0  0  0  0  0  0  0  0
   21.7131  -37.5615   -5.2180 C   0  0  0  0  0  0  0  0  0  0  0  0
   20.8785  -38.5048   -5.9351 N   0  0  0  0  0  0  0  0  0  0  0  0
   26.6115  -35.3657   -3.9981 C   0  0  0  0  0  0  0  0  0  0  0  0
   27.5482  -36.2478   -3.9354 O   0  0  0  0  0  0  0  0  0  0  0  0
   26.2672  -34.8038   -2.7555 N   0  0  0  0  0  0  0  0  0  0  0  0
   26.8424  -35.2360   -1.4985 C   0  0  1  0  0  0  0  0  0  0  0  0
   27.1313  -33.9066   -0.7490 C   0  0  0  0  0  0  0  0  0  0  0  0
   28.4920  -33.0816   -1.5993 S   0  0  0  0  0  0  0  0  0  0  0  0
   25.9578  -36.0841   -0.6987 C   0  0  0  0  0  0  0  0  0  0  0  0
   26.2678  -36.5358    0.5600 O   0  0  0  0  0  0  0  0  0  0  0  0
   24.8295  -36.4443   -1.1650 O   0  0  0  0  0  0  0  0  0  0  0  0
  1  2  1  0
  3  2  1  0
  3  4  1  1
  5  6  1  6
  5  3  1  0
  7  5  1  0
  8  7  2  0
  9  7  1  0
 10 11  1  6
 10  9  1  0
 11 12  1  0
 13 12  1  0
 13 14  1  0
 15 14  1  0
 16 10  1  0
 17 16  2  0
 18 16  1  0
 19 20  1  1
 19 18  1  0
 20 21  1  0
 22 19  1  0
 22 23  1  0
 24 22  2  0
M  END
$$$$
