IKC.pdb
     RDKit          3D

 24 23  0  0  1  0  0  0  0  0999 V2000
   22.9629   -9.0653  -13.7615 C   0  0  0  0  0  0  0  0  0  0  0  0
   21.6844   -9.8094  -13.5743 C   0  0  0  0  0  0  0  0  0  0  0  0
   20.5338   -8.9188  -13.1376 C   0  0  2  0  0  0  0  0  0  0  0  0
   20.8213   -8.4470  -11.7071 C   0  0  0  0  0  0  0  0  0  0  0  0
   19.3106   -9.8023  -13.0533 C   0  0  2  0  0  0  0  0  0  0  0  0
   19.0684  -10.3836  -14.3466 N   0  0  0  0  0  0  0  0  0  0  0  0
   18.1134   -9.0703  -12.6139 C   0  0  0  0  0  0  0  0  0  0  0  0
   17.5985   -8.1773  -13.3478 O   0  0  0  0  0  0  0  0  0  0  0  0
   17.5322   -9.3615  -11.3683 N   0  0  0  0  0  0  0  0  0  0  0  0
   16.2488   -8.6504  -10.9529 C   0  0  1  0  0  0  0  0  0  0  0  0
   15.3571   -9.7022  -10.4454 C   0  0  0  0  0  0  0  0  0  0  0  0
   14.0588   -9.4515   -9.8378 C   0  0  0  0  0  0  0  0  0  0  0  0
   13.1382  -10.5580   -9.5104 C   0  0  0  0  0  0  0  0  0  0  0  0
   11.8916   -9.9287   -8.8351 C   0  0  0  0  0  0  0  0  0  0  0  0
   10.8650   -9.8944   -9.8576 N   0  0  0  0  0  0  0  0  0  0  0  0
   16.6992   -7.5614  -10.1052 C   0  0  0  0  0  0  0  0  0  0  0  0
   17.6712   -7.7927   -9.2922 O   0  0  0  0  0  0  0  0  0  0  0  0
   16.2124   -6.2426  -10.0586 N   0  0  0  0  0  0  0  0  0  0  0  0
   16.6122   -5.2806   -9.0525 C   0  0  1  0  0  0  0  0  0  0  0  0
   18.1086   -5.0137   -9.3719 C   0  0  0  0  0  0  0  0  0  0  0  0
   18.1911   -4.2144  -10.9872 S   0  0  0  0  0  0  0  0  0  0  0  0
   15.8566   -4.0280   -9.0923 C   0  0  0  0  0  0  0  0  0  0  0  0
   15.9909   -3.0268   -8.1628 O   0  0  0  0  0  0  0  0  0  0  0  0
   15.0173   -3.8209  -10.0267 O   0  0  0  0  0  0  0  0  0  0  0  0
  1  2  1  0
  3  2  1  0
  3  4  1  1
  5  6  1  6
  5  3  1  0
  7  5  1  0
  8  7  2  0
  9  7  1  0
 10 11  1  1
 10  9  1  0
 11 12  1  0
 13 12  1  0
 13 14  1  0
 15 14  1  0
 16 10  1  0
 17 16  2  0
 18 16  1  0
 19 20  1  6
 19 18  1  0
 20 21  1  0
 22 19  1  0
 22 23  1  0
 24 22  2  0
M  END
$$$$
