IKC.pdb
     RDKit          3D

 24 23  0  0  1  0  0  0  0  0999 V2000
   26.0634  -20.7388   -8.0043 C   0  0  0  0  0  0  0  0  0  0  0  0
   24.7749  -20.9399   -8.7272 C   0  0  0  0  0  0  0  0  0  0  0  0
   24.9591  -21.2190  -10.2091 C   0  0  2  0  0  0  0  0  0  0  0  0
   26.4626  -21.3542  -10.4787 C   0  0  0  0  0  0  0  0  0  0  0  0
   24.5082  -19.9770  -10.9426 C   0  0  2  0  0  0  0  0  0  0  0  0
   23.2770  -19.5153  -10.3595 N   0  0  0  0  0  0  0  0  0  0  0  0
   24.3111  -20.2100  -12.3811 C   0  0  0  0  0  0  0  0  0  0  0  0
   25.2306  -20.7232  -13.0827 O   0  0  0  0  0  0  0  0  0  0  0  0
   23.0922  -19.8612  -12.9866 N   0  0  0  0  0  0  0  0  0  0  0  0
   22.9548  -19.9453  -14.5030 C   0  0  1  0  0  0  0  0  0  0  0  0
   21.5441  -20.2676  -14.7578 C   0  0  0  0  0  0  0  0  0  0  0  0
   20.9969  -20.5631  -16.0734 C   0  0  0  0  0  0  0  0  0  0  0  0
   19.7730  -19.8982  -16.5626 C   0  0  0  0  0  0  0  0  0  0  0  0
   19.5428  -20.3817  -18.0184 C   0  0  0  0  0  0  0  0  0  0  0  0
   18.1614  -20.8166  -18.0751 N   0  0  0  0  0  0  0  0  0  0  0  0
   23.5527  -18.7144  -14.9873 C   0  0  0  0  0  0  0  0  0  0  0  0
   23.4490  -17.6631  -14.2501 O   0  0  0  0  0  0  0  0  0  0  0  0
   24.2640  -18.5097  -16.1833 N   0  0  0  0  0  0  0  0  0  0  0  0
   25.4056  -17.6247  -16.2903 C   0  0  1  0  0  0  0  0  0  0  0  0
   26.3986  -18.1744  -15.2300 C   0  0  0  0  0  0  0  0  0  0  0  0
   27.9377  -17.2461  -15.3861 S   0  0  0  0  0  0  0  0  0  0  0  0
   26.0322  -17.6178  -17.6126 C   0  0  0  0  0  0  0  0  0  0  0  0
   26.6749  -16.5284  -18.1460 O   0  0  0  0  0  0  0  0  0  0  0  0
   25.9980  -18.6632  -18.3382 O   0  0  0  0  0  0  0  0  0  0  0  0
  1  2  1  0
  3  2  1  0
  3  4  1  1
  5  6  1  1
  5  3  1  0
  7  5  1  0
  8  7  2  0
  9  7  1  0
 10 11  1  1
 10  9  1  0
 11 12  1  0
 13 12  1  0
 13 14  1  0
 15 14  1  0
 16 10  1  0
 17 16  2  0
 18 16  1  0
 19 20  1  1
 19 18  1  0
 20 21  1  0
 22 19  1  0
 22 23  1  0
 24 22  2  0
M  END
$$$$
