IKC.pdb
     RDKit          3D

 24 23  0  0  1  0  0  0  0  0999 V2000
   26.0055  -13.6913  -15.9105 C   0  0  0  0  0  0  0  0  0  0  0  0
   26.1853  -14.8586  -16.8206 C   0  0  0  0  0  0  0  0  0  0  0  0
   25.8637  -16.1873  -16.1581 C   0  0  2  0  0  0  0  0  0  0  0  0
   26.9594  -16.4746  -15.1246 C   0  0  0  0  0  0  0  0  0  0  0  0
   26.0015  -17.2478  -17.2259 C   0  0  2  0  0  0  0  0  0  0  0  0
   24.9853  -17.0377  -18.2221 N   0  0  0  0  0  0  0  0  0  0  0  0
   25.8842  -18.6111  -16.6874 C   0  0  0  0  0  0  0  0  0  0  0  0
   24.7605  -19.0666  -16.3255 O   0  0  0  0  0  0  0  0  0  0  0  0
   27.0277  -19.4193  -16.5717 N   0  0  0  0  0  0  0  0  0  0  0  0
   26.8919  -20.8425  -16.0412 C   0  0  1  0  0  0  0  0  0  0  0  0
   27.9328  -21.6230  -16.7241 C   0  0  0  0  0  0  0  0  0  0  0  0
   28.1370  -23.0521  -16.5403 C   0  0  0  0  0  0  0  0  0  0  0  0
   27.0933  -24.0298  -16.9065 C   0  0  0  0  0  0  0  0  0  0  0  0
   27.6911  -25.4423  -16.6750 C   0  0  0  0  0  0  0  0  0  0  0  0
   26.6110  -26.3739  -16.9323 N   0  0  0  0  0  0  0  0  0  0  0  0
   26.8811  -20.6889  -14.5978 C   0  0  0  0  0  0  0  0  0  0  0  0
   27.8833  -20.0961  -14.0471 O   0  0  0  0  0  0  0  0  0  0  0  0
   25.8876  -21.1003  -13.6911 N   0  0  0  0  0  0  0  0  0  0  0  0
   26.1385  -21.3271  -12.2827 C   0  0  1  0  0  0  0  0  0  0  0  0
   25.2516  -20.2665  -11.5750 C   0  0  0  0  0  0  0  0  0  0  0  0
   25.2432  -20.6464   -9.8113 S   0  0  0  0  0  0  0  0  0  0  0  0
   25.7829  -22.6701  -11.8229 C   0  0  0  0  0  0  0  0  0  0  0  0
   24.9756  -23.5282  -12.5273 O   0  0  0  0  0  0  0  0  0  0  0  0
   26.2282  -23.1001  -10.7106 O   0  0  0  0  0  0  0  0  0  0  0  0
  1  2  1  0
  3  2  1  0
  3  4  1  1
  5  6  1  6
  5  3  1  0
  7  5  1  0
  8  7  2  0
  9  7  1  0
 10 11  1  1
 10  9  1  0
 11 12  1  0
 13 12  1  0
 13 14  1  0
 15 14  1  0
 16 10  1  0
 17 16  2  0
 18 16  1  0
 19 20  1  1
 19 18  1  0
 20 21  1  0
 22 19  1  0
 22 23  1  0
 24 22  2  0
M  END
$$$$
