FSP.pdb
     RDKit          3D

 25 26  0  0  1  0  0  0  0  0999 V2000
   23.3889  -25.4350  -14.5002 N   0  0  0  0  0  0  0  0  0  0  0  0
   24.1728  -25.0375  -15.6265 C   0  0  1  0  0  0  0  0  0  0  0  0
   23.2502  -24.6215  -16.7438 C   0  0  0  0  0  0  0  0  0  0  0  0
   22.6240  -25.8398  -17.2890 C   0  0  0  0  0  0  0  0  0  0  0  0
   23.2922  -26.6623  -18.1592 C   0  0  0  0  0  0  0  0  0  0  0  0
   22.6946  -27.8190  -18.6756 C   0  0  0  0  0  0  0  0  0  0  0  0
   21.4005  -28.1350  -18.2963 C   0  0  0  0  0  0  0  0  0  0  0  0
   20.7224  -27.3122  -17.4213 C   0  0  0  0  0  0  0  0  0  0  0  0
   21.3434  -26.1615  -16.9199 C   0  0  0  0  0  0  0  0  0  0  0  0
   25.1854  -24.0095  -15.3007 C   0  0  0  0  0  0  0  0  0  0  0  0
   25.5715  -23.9204  -14.1072 O   0  0  0  0  0  0  0  0  0  0  0  0
   29.3530  -23.7289  -16.3708 O   0  0  0  0  0  0  0  0  0  0  0  0
   27.9886  -24.0119  -16.4372 C   0  0  0  0  0  0  0  0  0  0  0  0
   27.1569  -22.7520  -16.2777 C   0  0  2  0  0  0  0  0  0  0  0  0
   25.7391  -23.1250  -16.2610 N   0  0  0  0  0  0  0  0  0  0  0  0
   27.4118  -21.7695  -17.3519 C   0  0  0  0  0  0  0  0  0  0  0  0
   27.4319  -22.1463  -18.5763 O   0  0  0  0  0  0  0  0  0  0  0  0
   27.6424  -20.3828  -17.1164 N   0  0  0  0  0  0  0  0  0  0  0  0
   27.6469  -19.6945  -15.8571 C   0  0  0  0  0  0  0  0  0  0  0  0
   28.8312  -18.7281  -16.0291 C   0  0  0  0  0  0  0  0  0  0  0  0
   28.4207  -18.1556  -17.3895 C   0  0  0  0  0  0  0  0  0  0  0  0
   27.9297  -19.3845  -18.1564 C   0  0  1  0  0  0  0  0  0  0  0  0
   29.0210  -19.8882  -19.0354 C   0  0  0  0  0  0  0  0  0  0  0  0
   29.2915  -19.2897  -20.2405 O   0  0  0  0  0  0  0  0  0  0  0  0
   29.6966  -20.8740  -18.6635 O   0  0  0  0  0  0  0  0  0  0  0  0
  2  1  1  1
  2 10  1  0
  3  2  1  0
  4  5  2  0
  4  3  1  0
  6  5  1  0
  7  6  2  0
  8  7  1  0
  8  9  2  0
  9  4  1  0
 10 15  1  0
 10 11  2  0
 13 12  1  0
 14 13  1  6
 15 14  1  0
 16 14  1  0
 16 17  2  0
 18 16  1  0
 19 18  1  0
 20 19  1  0
 20 21  1  0
 21 22  1  0
 22 18  1  0
 22 23  1  6
 24 23  1  0
 25 23  2  0
M  END
$$$$
