FSP.pdb
     RDKit          3D

 25 26  0  0  1  0  0  0  0  0999 V2000
   15.7584   -8.5534   -9.2953 N   0  0  0  0  0  0  0  0  0  0  0  0
   15.8382   -7.3249  -10.0202 C   0  0  1  0  0  0  0  0  0  0  0  0
   16.1088   -6.2012   -9.0524 C   0  0  0  0  0  0  0  0  0  0  0  0
   14.8182   -5.7806   -8.4770 C   0  0  0  0  0  0  0  0  0  0  0  0
   13.8794   -5.1197   -9.2268 C   0  0  0  0  0  0  0  0  0  0  0  0
   12.6543   -4.7214   -8.6773 C   0  0  0  0  0  0  0  0  0  0  0  0
   12.3893   -5.0034   -7.3475 C   0  0  0  0  0  0  0  0  0  0  0  0
   13.3289   -5.6680   -6.5873 C   0  0  0  0  0  0  0  0  0  0  0  0
   14.5462   -6.0550   -7.1616 C   0  0  0  0  0  0  0  0  0  0  0  0
   16.8043   -7.3682  -11.1396 C   0  0  0  0  0  0  0  0  0  0  0  0
   17.8910   -7.9742  -10.9568 O   0  0  0  0  0  0  0  0  0  0  0  0
   17.7046   -6.4309  -15.8701 O   0  0  0  0  0  0  0  0  0  0  0  0
   16.8506   -6.3390  -14.7708 C   0  0  0  0  0  0  0  0  0  0  0  0
   17.5365   -6.8083  -13.5004 C   0  0  2  0  0  0  0  0  0  0  0  0
   16.5678   -6.7643  -12.4007 N   0  0  0  0  0  0  0  0  0  0  0  0
   18.7225   -5.9923  -13.1665 C   0  0  0  0  0  0  0  0  0  0  0  0
   18.5774   -4.8049  -12.7075 O   0  0  0  0  0  0  0  0  0  0  0  0
   20.0644   -6.4476  -13.3211 N   0  0  0  0  0  0  0  0  0  0  0  0
   20.5109   -7.7746  -13.6360 C   0  0  0  0  0  0  0  0  0  0  0  0
   21.6648   -7.4961  -14.6143 C   0  0  0  0  0  0  0  0  0  0  0  0
   22.3983   -6.4564  -13.7610 C   0  0  0  0  0  0  0  0  0  0  0  0
   21.2634   -5.6082  -13.1846 C   0  0  1  0  0  0  0  0  0  0  0  0
   21.0994   -4.3769  -14.0056 C   0  0  0  0  0  0  0  0  0  0  0  0
   21.8625   -3.2613  -13.7675 O   0  0  0  0  0  0  0  0  0  0  0  0
   20.2492   -4.3660  -14.9241 O   0  0  0  0  0  0  0  0  0  0  0  0
  2  1  1  1
  2 10  1  0
  3  2  1  0
  4  5  2  0
  4  3  1  0
  6  5  1  0
  7  6  2  0
  8  7  1  0
  8  9  2  0
  9  4  1  0
 10 15  1  0
 10 11  2  0
 13 12  1  0
 14 13  1  6
 15 14  1  0
 16 14  1  0
 16 17  2  0
 18 16  1  0
 19 18  1  0
 20 19  1  0
 20 21  1  0
 21 22  1  0
 22 18  1  0
 22 23  1  6
 24 23  1  0
 25 23  2  0
M  END
$$$$
