FSP.pdb
     RDKit          3D

 25 26  0  0  1  0  0  0  0  0999 V2000
   28.7782  -21.0892   -8.9027 N   0  0  0  0  0  0  0  0  0  0  0  0
   27.3959  -20.7284   -8.9081 C   0  0  1  0  0  0  0  0  0  0  0  0
   27.2230  -19.4380   -8.1480 C   0  0  0  0  0  0  0  0  0  0  0  0
   27.6394  -19.6762   -6.7539 C   0  0  0  0  0  0  0  0  0  0  0  0
   26.8516  -20.3802   -5.8798 C   0  0  0  0  0  0  0  0  0  0  0  0
   27.2500  -20.6048   -4.5561 C   0  0  0  0  0  0  0  0  0  0  0  0
   28.4668  -20.1033   -4.1248 C   0  0  0  0  0  0  0  0  0  0  0  0
   29.2645  -19.3943   -4.9986 C   0  0  0  0  0  0  0  0  0  0  0  0
   28.8421  -19.1840   -6.3172 C   0  0  0  0  0  0  0  0  0  0  0  0
   26.8088  -20.6823  -10.2651 C   0  0  0  0  0  0  0  0  0  0  0  0
   27.4741  -20.1268  -11.1762 O   0  0  0  0  0  0  0  0  0  0  0  0
   24.7845  -22.7331  -13.8455 O   0  0  0  0  0  0  0  0  0  0  0  0
   25.2229  -22.6551  -12.5234 C   0  0  0  0  0  0  0  0  0  0  0  0
   25.0115  -21.2635  -11.9547 C   0  0  2  0  0  0  0  0  0  0  0  0
   25.5412  -21.2300  -10.5880 N   0  0  0  0  0  0  0  0  0  0  0  0
   23.5887  -20.8639  -11.9588 C   0  0  0  0  0  0  0  0  0  0  0  0
   22.7771  -21.3670  -11.1044 O   0  0  0  0  0  0  0  0  0  0  0  0
   23.0343  -19.9235  -12.8753 N   0  0  0  0  0  0  0  0  0  0  0  0
   23.7272  -19.1458  -13.8626 C   0  0  0  0  0  0  0  0  0  0  0  0
   22.7548  -19.2068  -15.0528 C   0  0  0  0  0  0  0  0  0  0  0  0
   21.4871  -18.8080  -14.2904 C   0  0  0  0  0  0  0  0  0  0  0  0
   21.6088  -19.5788  -12.9749 C   0  0  1  0  0  0  0  0  0  0  0  0
   20.8038  -20.8288  -13.0572 C   0  0  0  0  0  0  0  0  0  0  0  0
   21.2561  -21.9159  -13.7623 O   0  0  0  0  0  0  0  0  0  0  0  0
   19.6980  -20.8807  -12.4733 O   0  0  0  0  0  0  0  0  0  0  0  0
  2  1  1  6
  2 10  1  0
  3  2  1  0
  4  5  2  0
  4  3  1  0
  6  5  1  0
  7  6  2  0
  8  7  1  0
  8  9  2  0
  9  4  1  0
 10 15  1  0
 10 11  2  0
 13 12  1  0
 14 13  1  1
 15 14  1  0
 16 14  1  0
 16 17  2  0
 18 16  1  0
 19 18  1  0
 20 19  1  0
 20 21  1  0
 21 22  1  0
 22 18  1  0
 22 23  1  6
 24 23  1  0
 25 23  2  0
M  END
$$$$
