FSP.pdb
     RDKit          3D

 25 26  0  0  1  0  0  0  0  0999 V2000
   21.7329  -20.1385  -13.2284 N   0  0  0  0  0  0  0  0  0  0  0  0
   23.1392  -20.1059  -12.9789 C   0  0  1  0  0  0  0  0  0  0  0  0
   23.6000  -21.4872  -12.5886 C   0  0  0  0  0  0  0  0  0  0  0  0
   24.4949  -21.3522  -11.4247 C   0  0  0  0  0  0  0  0  0  0  0  0
   24.0092  -21.0613  -10.1758 C   0  0  0  0  0  0  0  0  0  0  0  0
   24.8619  -20.9335   -9.0721 C   0  0  0  0  0  0  0  0  0  0  0  0
   26.2246  -21.1057   -9.2506 C   0  0  0  0  0  0  0  0  0  0  0  0
   26.7202  -21.3985  -10.5040 C   0  0  0  0  0  0  0  0  0  0  0  0
   25.8453  -21.5207  -11.5907 C   0  0  0  0  0  0  0  0  0  0  0  0
   23.9184  -19.5318  -14.0975 C   0  0  0  0  0  0  0  0  0  0  0  0
   23.3939  -19.5290  -15.2405 O   0  0  0  0  0  0  0  0  0  0  0  0
   27.9579  -17.0968  -15.4833 O   0  0  0  0  0  0  0  0  0  0  0  0
   27.1825  -17.6660  -14.4730 C   0  0  0  0  0  0  0  0  0  0  0  0
   25.9408  -18.3302  -15.0404 C   0  0  2  0  0  0  0  0  0  0  0  0
   25.2194  -18.9878  -13.9465 N   0  0  0  0  0  0  0  0  0  0  0  0
   26.2606  -19.3095  -16.1001 C   0  0  0  0  0  0  0  0  0  0  0  0
   26.8323  -20.4165  -15.8012 O   0  0  0  0  0  0  0  0  0  0  0  0
   25.9661  -19.1057  -17.4797 N   0  0  0  0  0  0  0  0  0  0  0  0
   25.2622  -18.0056  -18.0745 C   0  0  0  0  0  0  0  0  0  0  0  0
   26.0815  -17.7602  -19.3531 C   0  0  0  0  0  0  0  0  0  0  0  0
   26.1106  -19.2098  -19.8480 C   0  0  0  0  0  0  0  0  0  0  0  0
   26.3487  -20.0150  -18.5695 C   0  0  1  0  0  0  0  0  0  0  0  0
   27.7966  -20.3424  -18.4531 C   0  0  0  0  0  0  0  0  0  0  0  0
   28.2921  -21.5335  -18.9216 O   0  0  0  0  0  0  0  0  0  0  0  0
   28.5671  -19.5146  -17.9169 O   0  0  0  0  0  0  0  0  0  0  0  0
  2  1  1  6
  2 10  1  0
  3  2  1  0
  4  5  2  0
  4  3  1  0
  6  5  1  0
  7  6  2  0
  8  7  1  0
  8  9  2  0
  9  4  1  0
 10 15  1  0
 10 11  2  0
 13 12  1  0
 14 13  1  1
 15 14  1  0
 16 14  1  0
 16 17  2  0
 18 16  1  0
 19 18  1  0
 20 19  1  0
 20 21  1  0
 21 22  1  0
 22 18  1  0
 22 23  1  1
 24 23  1  0
 25 23  2  0
M  END
$$$$
