FSP.pdb
     RDKit          3D

 25 26  0  0  1  0  0  0  0  0999 V2000
   19.3678  -10.9931  -15.1632 N   0  0  0  0  0  0  0  0  0  0  0  0
   19.1932   -9.6107  -15.4787 C   0  0  1  0  0  0  0  0  0  0  0  0
   17.8042   -9.4046  -16.0272 C   0  0  0  0  0  0  0  0  0  0  0  0
   17.7519  -10.0200  -17.3660 C   0  0  0  0  0  0  0  0  0  0  0  0
   18.2885   -9.3974  -18.4635 C   0  0  0  0  0  0  0  0  0  0  0  0
   18.2372   -9.9845  -19.7340 C   0  0  0  0  0  0  0  0  0  0  0  0
   17.6303  -11.2209  -19.8804 C   0  0  0  0  0  0  0  0  0  0  0  0
   17.0884  -11.8530  -18.7808 C   0  0  0  0  0  0  0  0  0  0  0  0
   17.1534  -11.2436  -17.5215 C   0  0  0  0  0  0  0  0  0  0  0  0
   19.5077   -8.7089  -14.3491 C   0  0  0  0  0  0  0  0  0  0  0  0
   19.0762   -9.0196  -13.2095 O   0  0  0  0  0  0  0  0  0  0  0  0
   21.7850   -4.6565  -12.7692 O   0  0  0  0  0  0  0  0  0  0  0  0
   21.5625   -5.5969  -13.7753 C   0  0  0  0  0  0  0  0  0  0  0  0
   20.4567   -6.5633  -13.3905 C   0  0  2  0  0  0  0  0  0  0  0  0
   20.2667   -7.5188  -14.4862 N   0  0  0  0  0  0  0  0  0  0  0  0
   19.1847   -5.8730  -13.0911 C   0  0  0  0  0  0  0  0  0  0  0  0
   18.5321   -5.2926  -14.0286 O   0  0  0  0  0  0  0  0  0  0  0  0
   18.6091   -5.8061  -11.7889 N   0  0  0  0  0  0  0  0  0  0  0  0
   19.0453   -6.4810  -10.5999 C   0  0  0  0  0  0  0  0  0  0  0  0
   18.8584   -5.3909   -9.5309 C   0  0  0  0  0  0  0  0  0  0  0  0
   17.4214   -5.0040   -9.8950 C   0  0  0  0  0  0  0  0  0  0  0  0
   17.4323   -5.0041  -11.4245 C   0  0  1  0  0  0  0  0  0  0  0  0
   17.6129   -3.6110  -11.9183 C   0  0  0  0  0  0  0  0  0  0  0  0
   16.5700   -2.7188  -11.9150 O   0  0  0  0  0  0  0  0  0  0  0  0
   18.7354   -3.2560  -12.3431 O   0  0  0  0  0  0  0  0  0  0  0  0
  2  1  1  1
  2 10  1  0
  3  2  1  0
  4  5  2  0
  4  3  1  0
  6  5  1  0
  7  6  2  0
  8  7  1  0
  8  9  2  0
  9  4  1  0
 10 15  1  0
 10 11  2  0
 13 12  1  0
 14 13  1  6
 15 14  1  0
 16 14  1  0
 16 17  2  0
 18 16  1  0
 19 18  1  0
 20 19  1  0
 20 21  1  0
 21 22  1  0
 22 18  1  0
 22 23  1  1
 24 23  1  0
 25 23  2  0
M  END
$$$$
