FSP.pdb
     RDKit          3D

 25 26  0  0  1  0  0  0  0  0999 V2000
   27.5008  -22.4555  -11.0979 N   0  0  0  0  0  0  0  0  0  0  0  0
   26.4361  -21.5303  -10.8707 C   0  0  1  0  0  0  0  0  0  0  0  0
   27.0175  -20.1550  -10.6632 C   0  0  0  0  0  0  0  0  0  0  0  0
   27.4560  -20.0577   -9.2589 C   0  0  0  0  0  0  0  0  0  0  0  0
   26.6241  -19.5805   -8.2788 C   0  0  0  0  0  0  0  0  0  0  0  0
   27.0436  -19.4893   -6.9456 C   0  0  0  0  0  0  0  0  0  0  0  0
   28.3271  -19.8907   -6.6146 C   0  0  0  0  0  0  0  0  0  0  0  0
   29.1693  -20.3717   -7.5953 C   0  0  0  0  0  0  0  0  0  0  0  0
   28.7245  -20.4525   -8.9208 C   0  0  0  0  0  0  0  0  0  0  0  0
   25.3967  -21.5652  -11.9227 C   0  0  0  0  0  0  0  0  0  0  0  0
   25.7733  -21.6051  -13.1218 O   0  0  0  0  0  0  0  0  0  0  0  0
   21.4855  -21.0867  -10.9028 O   0  0  0  0  0  0  0  0  0  0  0  0
   21.6349  -21.8800  -12.0406 C   0  0  0  0  0  0  0  0  0  0  0  0
   22.9850  -21.6526  -12.6966 C   0  0  2  0  0  0  0  0  0  0  0  0
   24.0054  -21.5558  -11.6482 N   0  0  0  0  0  0  0  0  0  0  0  0
   23.0043  -20.4385  -13.5389 C   0  0  0  0  0  0  0  0  0  0  0  0
   22.8673  -19.2824  -13.0037 O   0  0  0  0  0  0  0  0  0  0  0  0
   23.1729  -20.4608  -14.9541 N   0  0  0  0  0  0  0  0  0  0  0  0
   23.5966  -21.5620  -15.7710 C   0  0  0  0  0  0  0  0  0  0  0  0
   22.6748  -21.4212  -16.9944 C   0  0  0  0  0  0  0  0  0  0  0  0
   22.9229  -19.9322  -17.2560 C   0  0  0  0  0  0  0  0  0  0  0  0
   22.9298  -19.3233  -15.8529 C   0  0  1  0  0  0  0  0  0  0  0  0
   21.5913  -18.7404  -15.5596 C   0  0  0  0  0  0  0  0  0  0  0  0
   21.2546  -17.4852  -16.0009 O   0  0  0  0  0  0  0  0  0  0  0  0
   20.7667  -19.4107  -14.8985 O   0  0  0  0  0  0  0  0  0  0  0  0
  2  1  1  6
  2 10  1  0
  3  2  1  0
  4  5  2  0
  4  3  1  0
  6  5  1  0
  7  6  2  0
  8  7  1  0
  8  9  2  0
  9  4  1  0
 10 15  1  0
 10 11  2  0
 13 12  1  0
 14 13  1  1
 15 14  1  0
 16 14  1  0
 16 17  2  0
 18 16  1  0
 19 18  1  0
 20 19  1  0
 20 21  1  0
 21 22  1  0
 22 18  1  0
 22 23  1  1
 24 23  1  0
 25 23  2  0
M  END
$$$$
