FSP.pdb
     RDKit          3D

 25 26  0  0  1  0  0  0  0  0999 V2000
   20.3930  -16.7738  -17.9015 N   0  0  0  0  0  0  0  0  0  0  0  0
   21.7966  -16.9658  -18.0859 C   0  0  1  0  0  0  0  0  0  0  0  0
   22.3673  -15.7631  -18.7932 C   0  0  0  0  0  0  0  0  0  0  0  0
   22.2159  -15.9788  -20.2438 C   0  0  0  0  0  0  0  0  0  0  0  0
   21.1901  -15.4065  -20.9513 C   0  0  0  0  0  0  0  0  0  0  0  0
   21.0489  -15.6134  -22.3293 C   0  0  0  0  0  0  0  0  0  0  0  0
   21.9675  -16.4142  -22.9875 C   0  0  0  0  0  0  0  0  0  0  0  0
   23.0018  -16.9931  -22.2823 C   0  0  0  0  0  0  0  0  0  0  0  0
   23.1198  -16.7698  -20.9048 C   0  0  0  0  0  0  0  0  0  0  0  0
   22.5118  -17.2920  -16.8327 C   0  0  0  0  0  0  0  0  0  0  0  0
   22.1144  -16.7505  -15.7696 O   0  0  0  0  0  0  0  0  0  0  0  0
   23.4192  -19.8202  -13.4973 O   0  0  0  0  0  0  0  0  0  0  0  0
   22.9824  -19.2959  -14.7141 C   0  0  0  0  0  0  0  0  0  0  0  0
   24.1380  -18.7166  -15.5102 C   0  0  2  0  0  0  0  0  0  0  0  0
   23.6163  -18.1794  -16.7707 N   0  0  0  0  0  0  0  0  0  0  0  0
   25.1923  -19.7161  -15.7808 C   0  0  0  0  0  0  0  0  0  0  0  0
   24.8945  -20.8290  -16.3416 O   0  0  0  0  0  0  0  0  0  0  0  0
   26.5664  -19.5240  -15.4539 N   0  0  0  0  0  0  0  0  0  0  0  0
   27.1673  -18.3865  -14.8180 C   0  0  0  0  0  0  0  0  0  0  0  0
   28.1795  -19.0521  -13.8702 C   0  0  0  0  0  0  0  0  0  0  0  0
   28.8301  -19.9814  -14.9000 C   0  0  0  0  0  0  0  0  0  0  0  0
   27.6415  -20.4916  -15.7162 C   0  0  1  0  0  0  0  0  0  0  0  0
   27.2329  -21.8315  -15.2112 C   0  0  0  0  0  0  0  0  0  0  0  0
   27.9443  -22.9582  -15.5400 O   0  0  0  0  0  0  0  0  0  0  0  0
   26.2231  -21.9241  -14.4777 O   0  0  0  0  0  0  0  0  0  0  0  0
  2  1  1  1
  2 10  1  0
  3  2  1  0
  4  5  2  0
  4  3  1  0
  6  5  1  0
  7  6  2  0
  8  7  1  0
  8  9  2  0
  9  4  1  0
 10 15  1  0
 10 11  2  0
 13 12  1  0
 14 13  1  6
 15 14  1  0
 16 14  1  0
 16 17  2  0
 18 16  1  0
 19 18  1  0
 20 19  1  0
 20 21  1  0
 21 22  1  0
 22 18  1  0
 22 23  1  1
 24 23  1  0
 25 23  2  0
M  END
$$$$
