FSP.pdb
     RDKit          3D

 25 26  0  0  1  0  0  0  0  0999 V2000
   25.8532  -21.3084   -9.8755 N   0  0  0  0  0  0  0  0  0  0  0  0
   25.2342  -21.0190  -11.1301 C   0  0  1  0  0  0  0  0  0  0  0  0
   24.0423  -20.1264  -10.8945 C   0  0  0  0  0  0  0  0  0  0  0  0
   22.8683  -20.9905  -10.6734 C   0  0  0  0  0  0  0  0  0  0  0  0
   22.2490  -21.0611   -9.4520 C   0  0  0  0  0  0  0  0  0  0  0  0
   21.1340  -21.8829   -9.2451 C   0  0  0  0  0  0  0  0  0  0  0  0
   20.6498  -22.6390  -10.2997 C   0  0  0  0  0  0  0  0  0  0  0  0
   21.2678  -22.5730  -11.5310 C   0  0  0  0  0  0  0  0  0  0  0  0
   22.3813  -21.7429  -11.7108 C   0  0  0  0  0  0  0  0  0  0  0  0
   26.1742  -20.4741  -12.1340 C   0  0  0  0  0  0  0  0  0  0  0  0
   26.8404  -19.4535  -11.8243 O   0  0  0  0  0  0  0  0  0  0  0  0
   28.9577  -22.0948  -14.4831 O   0  0  0  0  0  0  0  0  0  0  0  0
   27.9082  -21.5427  -15.2179 C   0  0  0  0  0  0  0  0  0  0  0  0
   27.2174  -20.4347  -14.4434 C   0  0  2  0  0  0  0  0  0  0  0  0
   26.3604  -21.0417  -13.4202 N   0  0  0  0  0  0  0  0  0  0  0  0
   26.4181  -19.5507  -15.3174 C   0  0  0  0  0  0  0  0  0  0  0  0
   25.3256  -19.9752  -15.8348 O   0  0  0  0  0  0  0  0  0  0  0  0
   26.7863  -18.2110  -15.6357 N   0  0  0  0  0  0  0  0  0  0  0  0
   27.8816  -17.4511  -15.1043 C   0  0  0  0  0  0  0  0  0  0  0  0
   28.3915  -16.7145  -16.3547 C   0  0  0  0  0  0  0  0  0  0  0  0
   27.0389  -16.1723  -16.8276 C   0  0  0  0  0  0  0  0  0  0  0  0
   26.0875  -17.3479  -16.5988 C   0  0  1  0  0  0  0  0  0  0  0  0
   25.8984  -18.0877  -17.8772 C   0  0  0  0  0  0  0  0  0  0  0  0
   26.8178  -19.0146  -18.3004 O   0  0  0  0  0  0  0  0  0  0  0  0
   24.8839  -17.8540  -18.5719 O   0  0  0  0  0  0  0  0  0  0  0  0
  2  1  1  1
  2 10  1  0
  3  2  1  0
  4  5  2  0
  4  3  1  0
  6  5  1  0
  7  6  2  0
  8  7  1  0
  8  9  2  0
  9  4  1  0
 10 15  1  0
 10 11  2  0
 13 12  1  0
 14 13  1  6
 15 14  1  0
 16 14  1  0
 16 17  2  0
 18 16  1  0
 19 18  1  0
 20 19  1  0
 20 21  1  0
 21 22  1  0
 22 18  1  0
 22 23  1  6
 24 23  1  0
 25 23  2  0
M  END
$$$$
