FSP.pdb
     RDKit          3D

 25 26  0  0  1  0  0  0  0  0999 V2000
   25.0598  -19.5417  -13.1802 N   0  0  0  0  0  0  0  0  0  0  0  0
   26.1503  -19.2687  -12.2985 C   0  0  1  0  0  0  0  0  0  0  0  0
   26.7462  -17.9308  -12.6553 C   0  0  0  0  0  0  0  0  0  0  0  0
   27.2967  -18.0315  -14.0194 C   0  0  0  0  0  0  0  0  0  0  0  0
   28.3310  -18.8817  -14.3150 C   0  0  0  0  0  0  0  0  0  0  0  0
   28.8517  -18.9750  -15.6118 C   0  0  0  0  0  0  0  0  0  0  0  0
   28.3071  -18.1896  -16.6142 C   0  0  0  0  0  0  0  0  0  0  0  0
   27.2665  -17.3321  -16.3241 C   0  0  0  0  0  0  0  0  0  0  0  0
   26.7646  -17.2583  -15.0187 C   0  0  0  0  0  0  0  0  0  0  0  0
   25.7870  -19.3762  -10.8685 C   0  0  0  0  0  0  0  0  0  0  0  0
   24.6549  -18.9581  -10.5153 O   0  0  0  0  0  0  0  0  0  0  0  0
   25.3007  -22.1417   -8.9607 O   0  0  0  0  0  0  0  0  0  0  0  0
   25.0836  -20.9216   -8.3201 C   0  0  0  0  0  0  0  0  0  0  0  0
   26.2840  -20.0034   -8.4638 C   0  0  2  0  0  0  0  0  0  0  0  0
   26.6464  -19.9239   -9.8822 N   0  0  0  0  0  0  0  0  0  0  0  0
   27.4418  -20.4615   -7.6678 C   0  0  0  0  0  0  0  0  0  0  0  0
   27.8475  -21.6732   -7.7617 O   0  0  0  0  0  0  0  0  0  0  0  0
   28.1676  -19.6224   -6.7730 N   0  0  0  0  0  0  0  0  0  0  0  0
   28.2455  -18.1894   -6.7807 C   0  0  0  0  0  0  0  0  0  0  0  0
   28.1819  -17.8612   -5.2792 C   0  0  0  0  0  0  0  0  0  0  0  0
   29.2673  -18.8395   -4.8189 C   0  0  0  0  0  0  0  0  0  0  0  0
   28.9862  -20.0944   -5.6469 C   0  0  1  0  0  0  0  0  0  0  0  0
   28.1954  -21.0580   -4.8324 C   0  0  0  0  0  0  0  0  0  0  0  0
   28.7963  -21.8307   -3.8705 O   0  0  0  0  0  0  0  0  0  0  0  0
   26.9646  -21.1606   -5.0351 O   0  0  0  0  0  0  0  0  0  0  0  0
  2  1  1  6
  2 10  1  0
  3  2  1  0
  4  5  2  0
  4  3  1  0
  6  5  1  0
  7  6  2  0
  8  7  1  0
  8  9  2  0
  9  4  1  0
 10 15  1  0
 10 11  2  0
 13 12  1  0
 14 13  1  6
 15 14  1  0
 16 14  1  0
 16 17  2  0
 18 16  1  0
 19 18  1  0
 20 19  1  0
 20 21  1  0
 21 22  1  0
 22 18  1  0
 22 23  1  1
 24 23  1  0
 25 23  2  0
M  END
$$$$
