QLH.pdb
     RDKit          3D

 28 28  0  0  1  0  0  0  0  0999 V2000
   17.5467  -10.3618  -19.2551 N   0  0  0  0  0  0  0  0  0  0  0  0
   16.1254  -10.2657  -19.0591 C   0  0  0  0  0  0  0  0  0  0  0  0
   15.3276  -10.7975  -19.8601 O   0  0  0  0  0  0  0  0  0  0  0  0
   15.6614   -9.5244  -17.8898 C   0  0  0  0  0  0  0  0  0  0  0  0
   16.7379   -8.8995  -17.0599 C   0  0  0  0  0  0  0  0  0  0  0  0
   17.4742   -9.9005  -16.2309 C   0  0  2  0  0  0  0  0  0  0  0  0
   16.6252  -10.3706  -15.1733 N   0  0  0  0  0  0  0  0  0  0  0  0
   18.6465   -9.1692  -15.6167 C   0  0  0  0  0  0  0  0  0  0  0  0
   18.4687   -8.4379  -14.6194 O   0  0  0  0  0  0  0  0  0  0  0  0
   22.4878  -10.5099  -13.5348 C   0  0  0  0  0  0  0  0  0  0  0  0
   22.5567  -10.6850  -15.0775 C   0  0  2  0  0  0  0  0  0  0  0  0
   24.0059  -11.1621  -15.2828 C   0  0  0  0  0  0  0  0  0  0  0  0
   22.3640   -9.3658  -15.6685 C   0  0  0  0  0  0  0  0  0  0  0  0
   21.1072   -8.6271  -15.6340 C   0  0  2  0  0  0  0  0  0  0  0  0
   19.9476   -9.2962  -16.1504 N   0  0  0  0  0  0  0  0  0  0  0  0
   21.1175   -7.1750  -15.9226 C   0  0  0  0  0  0  0  0  0  0  0  0
   21.1034   -6.6907  -17.0641 O   0  0  0  0  0  0  0  0  0  0  0  0
   21.1486   -6.2727  -14.8369 N   0  0  0  0  0  0  0  0  0  0  0  0
   21.2111   -4.8379  -14.9092 C   0  0  1  0  0  0  0  0  0  0  0  0
   19.9809   -4.1146  -14.3476 C   0  0  0  0  0  0  0  0  0  0  0  0
   18.7776   -4.3029  -15.1688 C   0  0  0  0  0  0  0  0  0  0  0  0
   18.6781   -5.0619  -16.3425 C   0  0  0  0  0  0  0  0  0  0  0  0
   17.4233   -5.0054  -16.8217 N   0  0  0  0  0  0  0  0  0  0  0  0
   16.7333   -4.2287  -15.9759 C   0  0  0  0  0  0  0  0  0  0  0  0
   17.5640   -3.8126  -14.9842 N   0  0  0  0  0  0  0  0  0  0  0  0
   22.4763   -4.2288  -14.5377 C   0  0  0  0  0  0  0  0  0  0  0  0
   23.4033   -4.8091  -13.9032 O   0  0  0  0  0  0  0  0  0  0  0  0
   22.7385   -2.9047  -14.8834 O   0  0  0  0  0  0  0  0  0  0  0  0
  2  3  2  0
  2  1  1  0
  4  2  1  0
  5  4  1  0
  5  6  1  0
  6  8  1  0
  6  7  1  1
  8  9  2  0
 11 10  1  1
 12 11  1  0
 13 11  1  0
 14 13  1  6
 15 14  1  0
 15  8  1  0
 16 17  2  0
 16 14  1  0
 18 16  1  0
 19 18  1  0
 19 26  1  0
 19 20  1  1
 21 25  1  0
 21 20  1  0
 22 21  2  0
 23 22  1  0
 23 24  1  0
 24 25  2  0
 26 28  1  0
 27 26  2  0
M  END
$$$$
