QLH.pdb
     RDKit          3D

 28 28  0  0  1  0  0  0  0  0999 V2000
   25.9247  -17.3968  -17.8886 N   0  0  0  0  0  0  0  0  0  0  0  0
   26.9827  -18.2846  -17.4883 C   0  0  0  0  0  0  0  0  0  0  0  0
   27.9032  -17.8929  -16.7397 O   0  0  0  0  0  0  0  0  0  0  0  0
   26.9318  -19.6540  -17.9925 C   0  0  0  0  0  0  0  0  0  0  0  0
   26.1125  -20.6052  -17.1787 C   0  0  0  0  0  0  0  0  0  0  0  0
   26.8392  -21.0952  -15.9691 C   0  0  2  0  0  0  0  0  0  0  0  0
   27.5771  -22.2822  -16.2963 N   0  0  0  0  0  0  0  0  0  0  0  0
   25.7817  -21.4528  -14.9493 C   0  0  0  0  0  0  0  0  0  0  0  0
   25.0459  -22.4446  -15.1392 O   0  0  0  0  0  0  0  0  0  0  0  0
   25.5479  -20.7801   -9.1456 C   0  0  0  0  0  0  0  0  0  0  0  0
   25.3381  -21.5293  -10.4910 C   0  0  2  0  0  0  0  0  0  0  0  0
   26.7765  -21.9331  -10.8622 C   0  0  0  0  0  0  0  0  0  0  0  0
   24.8167  -20.5589  -11.4464 C   0  0  0  0  0  0  0  0  0  0  0  0
   24.5305  -20.8568  -12.8448 C   0  0  2  0  0  0  0  0  0  0  0  0
   25.6068  -20.6839  -13.7780 N   0  0  0  0  0  0  0  0  0  0  0  0
   23.2107  -20.4864  -13.4043 C   0  0  0  0  0  0  0  0  0  0  0  0
   22.9484  -19.3797  -13.8985 O   0  0  0  0  0  0  0  0  0  0  0  0
   22.1743  -21.4451  -13.3766 N   0  0  0  0  0  0  0  0  0  0  0  0
   20.8152  -21.2589  -13.8078 C   0  0  1  0  0  0  0  0  0  0  0  0
   20.1990  -22.4682  -14.5220 C   0  0  0  0  0  0  0  0  0  0  0  0
   20.8146  -22.7410  -15.8274 C   0  0  0  0  0  0  0  0  0  0  0  0
   21.7335  -21.9275  -16.5036 C   0  0  0  0  0  0  0  0  0  0  0  0
   22.0802  -22.4971  -17.6709 N   0  0  0  0  0  0  0  0  0  0  0  0
   21.4001  -23.6491  -17.7428 C   0  0  0  0  0  0  0  0  0  0  0  0
   20.6413  -23.7820  -16.6234 N   0  0  0  0  0  0  0  0  0  0  0  0
   19.9223  -20.6121  -12.8622 C   0  0  0  0  0  0  0  0  0  0  0  0
   20.2069  -20.3468  -11.6592 O   0  0  0  0  0  0  0  0  0  0  0  0
   18.6418  -20.2348  -13.2614 O   0  0  0  0  0  0  0  0  0  0  0  0
  2  3  2  0
  2  1  1  0
  4  2  1  0
  5  4  1  0
  5  6  1  0
  6  8  1  0
  6  7  1  6
  8  9  2  0
 11 10  1  1
 12 11  1  0
 13 11  1  0
 14 13  1  1
 15 14  1  0
 15  8  1  0
 16 17  2  0
 16 14  1  0
 18 16  1  0
 19 18  1  0
 19 26  1  0
 19 20  1  1
 21 25  1  0
 21 20  1  0
 22 21  2  0
 23 22  1  0
 23 24  1  0
 24 25  2  0
 26 28  1  0
 27 26  2  0
M  END
$$$$
