QLH.pdb
     RDKit          3D

 28 28  0  0  1  0  0  0  0  0999 V2000
   27.4619  -21.4362  -14.9075 N   0  0  0  0  0  0  0  0  0  0  0  0
   27.3850  -22.2801  -16.0692 C   0  0  0  0  0  0  0  0  0  0  0  0
   28.3512  -22.3841  -16.8546 O   0  0  0  0  0  0  0  0  0  0  0  0
   26.1360  -23.0045  -16.2867 C   0  0  0  0  0  0  0  0  0  0  0  0
   25.0802  -22.7849  -15.2497 C   0  0  0  0  0  0  0  0  0  0  0  0
   24.0209  -21.8352  -15.7049 C   0  0  2  0  0  0  0  0  0  0  0  0
   24.6307  -20.6748  -16.2897 N   0  0  0  0  0  0  0  0  0  0  0  0
   23.2666  -21.4085  -14.4658 C   0  0  0  0  0  0  0  0  0  0  0  0
   23.8684  -20.8136  -13.5465 O   0  0  0  0  0  0  0  0  0  0  0  0
   19.2781  -17.8539  -14.7969 C   0  0  0  0  0  0  0  0  0  0  0  0
   20.2817  -18.2438  -13.6762 C   0  0  2  0  0  0  0  0  0  0  0  0
   21.1249  -16.9631  -13.5394 C   0  0  0  0  0  0  0  0  0  0  0  0
   21.0954  -19.3393  -14.1903 C   0  0  0  0  0  0  0  0  0  0  0  0
   20.9307  -20.7354  -13.8027 C   0  0  2  0  0  0  0  0  0  0  0  0
   21.8863  -21.6702  -14.3244 N   0  0  0  0  0  0  0  0  0  0  0  0
   19.5648  -21.2973  -13.6985 C   0  0  0  0  0  0  0  0  0  0  0  0
   18.6221  -20.7362  -13.1204 O   0  0  0  0  0  0  0  0  0  0  0  0
   19.3067  -22.5540  -14.2884 N   0  0  0  0  0  0  0  0  0  0  0  0
   18.0527  -23.2577  -14.3055 C   0  0  1  0  0  0  0  0  0  0  0  0
   18.1651  -24.7710  -14.0831 C   0  0  0  0  0  0  0  0  0  0  0  0
   18.4714  -25.1273  -12.6914 C   0  0  0  0  0  0  0  0  0  0  0  0
   19.2281  -24.3741  -11.7839 C   0  0  0  0  0  0  0  0  0  0  0  0
   19.2978  -25.0119  -10.6025 N   0  0  0  0  0  0  0  0  0  0  0  0
   18.6023  -26.1477  -10.7478 C   0  0  0  0  0  0  0  0  0  0  0  0
   18.1101  -26.2028  -12.0132 N   0  0  0  0  0  0  0  0  0  0  0  0
   16.9544  -22.6343  -13.5879 C   0  0  0  0  0  0  0  0  0  0  0  0
   17.0240  -21.5361  -12.9653 O   0  0  0  0  0  0  0  0  0  0  0  0
   15.7067  -23.2534  -13.5524 O   0  0  0  0  0  0  0  0  0  0  0  0
  2  3  2  0
  2  1  1  0
  4  2  1  0
  5  4  1  0
  5  6  1  0
  6  8  1  0
  6  7  1  1
  8  9  2  0
 11 10  1  6
 12 11  1  0
 13 11  1  0
 14 13  1  6
 15 14  1  0
 15  8  1  0
 16 17  2  0
 16 14  1  0
 18 16  1  0
 19 18  1  0
 19 26  1  0
 19 20  1  1
 21 25  1  0
 21 20  1  0
 22 21  2  0
 23 22  1  0
 23 24  1  0
 24 25  2  0
 26 28  1  0
 27 26  2  0
M  END
$$$$
