QLH.pdb
     RDKit          3D

 28 28  0  0  1  0  0  0  0  0999 V2000
   22.7139  -18.4241  -16.8166 N   0  0  0  0  0  0  0  0  0  0  0  0
   21.9511  -18.4446  -18.0353 C   0  0  0  0  0  0  0  0  0  0  0  0
   21.5490  -19.5215  -18.5252 O   0  0  0  0  0  0  0  0  0  0  0  0
   21.6697  -17.1594  -18.6686 C   0  0  0  0  0  0  0  0  0  0  0  0
   22.1214  -15.9563  -17.9026 C   0  0  0  0  0  0  0  0  0  0  0  0
   23.1105  -15.1336  -18.6617 C   0  0  2  0  0  0  0  0  0  0  0  0
   24.1373  -15.9829  -19.1955 N   0  0  0  0  0  0  0  0  0  0  0  0
   23.7396  -14.1895  -17.6622 C   0  0  0  0  0  0  0  0  0  0  0  0
   24.5520  -14.6277  -16.8201 O   0  0  0  0  0  0  0  0  0  0  0  0
   27.8741  -11.5456  -16.2211 C   0  0  0  0  0  0  0  0  0  0  0  0
   26.4190  -11.0226  -16.0644 C   0  0  2  0  0  0  0  0  0  0  0  0
   26.2434  -11.0134  -14.5351 C   0  0  0  0  0  0  0  0  0  0  0  0
   25.5388  -12.0124  -16.6743 C   0  0  0  0  0  0  0  0  0  0  0  0
   24.1064  -11.8248  -16.8726 C   0  0  2  0  0  0  0  0  0  0  0  0
   23.4261  -12.8127  -17.6603 N   0  0  0  0  0  0  0  0  0  0  0  0
   23.5811  -10.4557  -17.0767 C   0  0  0  0  0  0  0  0  0  0  0  0
   23.9088   -9.7158  -18.0163 O   0  0  0  0  0  0  0  0  0  0  0  0
   22.6485   -9.9466  -16.1467 N   0  0  0  0  0  0  0  0  0  0  0  0
   21.8114   -8.7887  -16.3101 C   0  0  1  0  0  0  0  0  0  0  0  0
   20.3486   -8.9931  -15.8971 C   0  0  0  0  0  0  0  0  0  0  0  0
   19.5181   -7.8006  -16.1108 C   0  0  0  0  0  0  0  0  0  0  0  0
   19.6449   -6.5670  -15.4584 C   0  0  0  0  0  0  0  0  0  0  0  0
   18.7126   -5.7100  -15.9099 N   0  0  0  0  0  0  0  0  0  0  0  0
   18.0039   -6.3773  -16.8304 C   0  0  0  0  0  0  0  0  0  0  0  0
   18.5020   -7.6369  -16.9401 N   0  0  0  0  0  0  0  0  0  0  0  0
   22.3754   -7.5206  -15.8817 C   0  0  0  0  0  0  0  0  0  0  0  0
   22.4113   -6.4682  -16.5816 O   0  0  0  0  0  0  0  0  0  0  0  0
   22.9326   -7.4016  -14.6102 O   0  0  0  0  0  0  0  0  0  0  0  0
  2  3  2  0
  2  1  1  0
  4  2  1  0
  5  4  1  0
  5  6  1  0
  6  8  1  0
  6  7  1  1
  8  9  2  0
 11 10  1  1
 12 11  1  0
 13 11  1  0
 14 13  1  6
 15 14  1  0
 15  8  1  0
 16 17  2  0
 16 14  1  0
 18 16  1  0
 19 18  1  0
 19 26  1  0
 19 20  1  1
 21 25  1  0
 21 20  1  0
 22 21  2  0
 23 22  1  0
 23 24  1  0
 24 25  2  0
 26 28  1  0
 27 26  2  0
M  END
$$$$
