QLH.pdb
     RDKit          3D

 28 28  0  0  1  0  0  0  0  0999 V2000
   13.2049  -20.1695    7.4713 N   0  0  0  0  0  0  0  0  0  0  0  0
   12.2578  -20.2615    6.3933 C   0  0  0  0  0  0  0  0  0  0  0  0
   11.1203  -20.7455    6.5751 O   0  0  0  0  0  0  0  0  0  0  0  0
   12.6829  -19.7665    5.0870 C   0  0  0  0  0  0  0  0  0  0  0  0
   14.0751  -19.2218    5.0315 C   0  0  0  0  0  0  0  0  0  0  0  0
   14.3862  -18.5806    3.7187 C   0  0  2  0  0  0  0  0  0  0  0  0
   14.4609  -19.5849    2.6958 N   0  0  0  0  0  0  0  0  0  0  0  0
   15.7489  -17.9423    3.8656 C   0  0  0  0  0  0  0  0  0  0  0  0
   16.7593  -18.5254    3.4180 O   0  0  0  0  0  0  0  0  0  0  0  0
   18.4267  -13.1136    5.4499 C   0  0  0  0  0  0  0  0  0  0  0  0
   18.3952  -13.8028    4.0573 C   0  0  2  0  0  0  0  0  0  0  0  0
   18.2171  -12.6035    3.1087 C   0  0  0  0  0  0  0  0  0  0  0  0
   17.2144  -14.6580    4.0278 C   0  0  0  0  0  0  0  0  0  0  0  0
   17.1506  -15.9890    4.6202 C   0  0  2  0  0  0  0  0  0  0  0  0
   15.9051  -16.6918    4.5025 N   0  0  0  0  0  0  0  0  0  0  0  0
   17.8397  -16.2383    5.9066 C   0  0  0  0  0  0  0  0  0  0  0  0
   18.9593  -15.7906    6.1962 O   0  0  0  0  0  0  0  0  0  0  0  0
   17.1926  -17.0385    6.8734 N   0  0  0  0  0  0  0  0  0  0  0  0
   17.6663  -17.3462    8.1958 C   0  0  1  0  0  0  0  0  0  0  0  0
   18.2278  -16.1469    8.9696 C   0  0  0  0  0  0  0  0  0  0  0  0
   17.1835  -15.2358    9.4564 C   0  0  0  0  0  0  0  0  0  0  0  0
   15.8554  -15.1755    9.0140 C   0  0  0  0  0  0  0  0  0  0  0  0
   15.1895  -14.2207    9.6865 N   0  0  0  0  0  0  0  0  0  0  0  0
   16.0691  -13.6805   10.5405 C   0  0  0  0  0  0  0  0  0  0  0  0
   17.2673  -14.3035   10.3897 N   0  0  0  0  0  0  0  0  0  0  0  0
   16.8269  -18.2239    8.9927 C   0  0  0  0  0  0  0  0  0  0  0  0
   15.7085  -18.6873    8.6281 O   0  0  0  0  0  0  0  0  0  0  0  0
   17.2405  -18.6153   10.2643 O   0  0  0  0  0  0  0  0  0  0  0  0
  2  3  2  0
  2  1  1  0
  4  2  1  0
  5  4  1  0
  5  6  1  0
  6  8  1  0
  6  7  1  6
  8  9  2  0
 11 10  1  1
 12 11  1  0
 13 11  1  0
 14 13  1  1
 15 14  1  0
 15  8  1  0
 16 17  2  0
 16 14  1  0
 18 16  1  0
 19 18  1  0
 19 26  1  0
 19 20  1  1
 21 25  1  0
 21 20  1  0
 22 21  2  0
 23 22  1  0
 23 24  1  0
 24 25  2  0
 26 28  1  0
 27 26  2  0
M  END
$$$$
