QLH.pdb
     RDKit          3D

 28 28  0  0  1  0  0  0  0  0999 V2000
   14.9306   -8.3046  -13.6833 N   0  0  0  0  0  0  0  0  0  0  0  0
   13.8119   -8.3847  -14.5832 C   0  0  0  0  0  0  0  0  0  0  0  0
   12.6471   -8.5200  -14.1518 O   0  0  0  0  0  0  0  0  0  0  0  0
   14.0975   -8.3004  -16.0127 C   0  0  0  0  0  0  0  0  0  0  0  0
   15.5419   -8.1416  -16.3681 C   0  0  0  0  0  0  0  0  0  0  0  0
   15.9654   -6.7098  -16.4129 C   0  0  2  0  0  0  0  0  0  0  0  0
   15.4559   -6.0920  -17.6042 N   0  0  0  0  0  0  0  0  0  0  0  0
   17.4759   -6.7115  -16.4811 C   0  0  0  0  0  0  0  0  0  0  0  0
   18.0475   -6.7848  -17.5898 O   0  0  0  0  0  0  0  0  0  0  0  0
   22.2244   -4.7245  -13.2679 C   0  0  0  0  0  0  0  0  0  0  0  0
   21.8803   -5.7971  -14.3386 C   0  0  2  0  0  0  0  0  0  0  0  0
   22.5790   -5.2375  -15.5909 C   0  0  0  0  0  0  0  0  0  0  0  0
   20.4324   -5.7826  -14.5113 C   0  0  0  0  0  0  0  0  0  0  0  0
   19.6873   -6.7767  -15.2749 C   0  0  2  0  0  0  0  0  0  0  0  0
   18.2602   -6.6313  -15.3097 N   0  0  0  0  0  0  0  0  0  0  0  0
   20.1272   -8.1899  -15.2392 C   0  0  0  0  0  0  0  0  0  0  0  0
   19.8393   -8.9873  -14.3342 O   0  0  0  0  0  0  0  0  0  0  0  0
   20.9296   -8.6725  -16.2962 N   0  0  0  0  0  0  0  0  0  0  0  0
   21.4802   -9.9944  -16.4272 C   0  0  1  0  0  0  0  0  0  0  0  0
   20.7535  -10.8934  -17.4352 C   0  0  0  0  0  0  0  0  0  0  0  0
   21.2980  -12.2566  -17.4878 C   0  0  0  0  0  0  0  0  0  0  0  0
   22.2995  -12.7881  -16.6644 C   0  0  0  0  0  0  0  0  0  0  0  0
   22.5409  -14.0671  -17.0009 N   0  0  0  0  0  0  0  0  0  0  0  0
   21.7142  -14.3503  -18.0164 C   0  0  0  0  0  0  0  0  0  0  0  0
   20.9710  -13.2482  -18.2985 N   0  0  0  0  0  0  0  0  0  0  0  0
   22.9285  -10.0856  -16.4898 C   0  0  0  0  0  0  0  0  0  0  0  0
   23.6261  -10.9694  -15.9147 O   0  0  0  0  0  0  0  0  0  0  0  0
   23.6527   -9.1513  -17.2273 O   0  0  0  0  0  0  0  0  0  0  0  0
  2  3  2  0
  2  1  1  0
  4  2  1  0
  5  4  1  0
  5  6  1  0
  6  8  1  0
  6  7  1  6
  8  9  2  0
 11 10  1  1
 12 11  1  0
 13 11  1  0
 14 13  1  1
 15 14  1  0
 15  8  1  0
 16 17  2  0
 16 14  1  0
 18 16  1  0
 19 18  1  0
 19 26  1  0
 19 20  1  6
 21 25  1  0
 21 20  1  0
 22 21  2  0
 23 22  1  0
 23 24  1  0
 24 25  2  0
 26 28  1  0
 27 26  2  0
M  END
$$$$
