QLH.pdb
     RDKit          3D

 28 28  0  0  1  0  0  0  0  0999 V2000
   14.6488  -11.6601  -17.3402 N   0  0  0  0  0  0  0  0  0  0  0  0
   15.0020  -13.0274  -17.0693 C   0  0  0  0  0  0  0  0  0  0  0  0
   14.2871  -13.9692  -17.4732 O   0  0  0  0  0  0  0  0  0  0  0  0
   16.2252  -13.2626  -16.3073 C   0  0  0  0  0  0  0  0  0  0  0  0
   16.9662  -12.0314  -15.8911 C   0  0  0  0  0  0  0  0  0  0  0  0
   17.8424  -11.4973  -16.9766 C   0  0  2  0  0  0  0  0  0  0  0  0
   18.8616  -12.4578  -17.2917 N   0  0  0  0  0  0  0  0  0  0  0  0
   18.5061  -10.2576  -16.4207 C   0  0  0  0  0  0  0  0  0  0  0  0
   17.8313   -9.4295  -15.7726 O   0  0  0  0  0  0  0  0  0  0  0  0
   22.0076   -9.6754  -13.3425 C   0  0  0  0  0  0  0  0  0  0  0  0
   22.4123  -10.1400  -14.7693 C   0  0  2  0  0  0  0  0  0  0  0  0
   23.9484  -10.1717  -14.6738 C   0  0  0  0  0  0  0  0  0  0  0  0
   21.9790   -9.1025  -15.6979 C   0  0  0  0  0  0  0  0  0  0  0  0
   20.5929   -8.8835  -16.0946 C   0  0  2  0  0  0  0  0  0  0  0  0
   19.8826  -10.0141  -16.6201 N   0  0  0  0  0  0  0  0  0  0  0  0
   20.2250   -7.6088  -16.7519 C   0  0  0  0  0  0  0  0  0  0  0  0
   20.2019   -7.4387  -17.9800 O   0  0  0  0  0  0  0  0  0  0  0  0
   19.8793   -6.5072  -15.9391 N   0  0  0  0  0  0  0  0  0  0  0  0
   19.5410   -5.1813  -16.3813 C   0  0  1  0  0  0  0  0  0  0  0  0
   18.0434   -4.9470  -16.6144 C   0  0  0  0  0  0  0  0  0  0  0  0
   17.5138   -5.7012  -17.7583 C   0  0  0  0  0  0  0  0  0  0  0  0
   18.0969   -5.8115  -19.0276 C   0  0  0  0  0  0  0  0  0  0  0  0
   17.3315   -6.5820  -19.8200 N   0  0  0  0  0  0  0  0  0  0  0  0
   16.2817   -6.9577  -19.0771 C   0  0  0  0  0  0  0  0  0  0  0  0
   16.4062   -6.4184  -17.8360 N   0  0  0  0  0  0  0  0  0  0  0  0
   20.2130   -4.0856  -15.7048 C   0  0  0  0  0  0  0  0  0  0  0  0
   21.0232   -4.2137  -14.7427 O   0  0  0  0  0  0  0  0  0  0  0  0
   19.9813   -2.7725  -16.1089 O   0  0  0  0  0  0  0  0  0  0  0  0
  2  3  2  0
  2  1  1  0
  4  2  1  0
  5  4  1  0
  5  6  1  0
  6  8  1  0
  6  7  1  1
  8  9  2  0
 11 10  1  1
 12 11  1  0
 13 11  1  0
 14 13  1  6
 15 14  1  0
 15  8  1  0
 16 17  2  0
 16 14  1  0
 18 16  1  0
 19 18  1  0
 19 26  1  0
 19 20  1  1
 21 25  1  0
 21 20  1  0
 22 21  2  0
 23 22  1  0
 23 24  1  0
 24 25  2  0
 26 28  1  0
 27 26  2  0
M  END
$$$$
