QLH.pdb
     RDKit          3D

 28 28  0  0  1  0  0  0  0  0999 V2000
   22.1961  -21.9317  -17.6292 N   0  0  0  0  0  0  0  0  0  0  0  0
   21.9130  -21.8946  -19.0385 C   0  0  0  0  0  0  0  0  0  0  0  0
   21.0904  -22.6831  -19.5509 O   0  0  0  0  0  0  0  0  0  0  0  0
   22.6249  -20.9003  -19.8365 C   0  0  0  0  0  0  0  0  0  0  0  0
   23.4554  -19.9302  -19.0574 C   0  0  0  0  0  0  0  0  0  0  0  0
   24.8601  -20.4022  -18.8695 C   0  0  2  0  0  0  0  0  0  0  0  0
   25.1299  -21.4874  -19.7694 N   0  0  0  0  0  0  0  0  0  0  0  0
   24.9524  -20.9197  -17.4517 C   0  0  0  0  0  0  0  0  0  0  0  0
   25.0476  -22.1480  -17.2439 O   0  0  0  0  0  0  0  0  0  0  0  0
   26.3023  -21.1744  -12.2391 C   0  0  0  0  0  0  0  0  0  0  0  0
   27.1909  -20.9209  -13.4887 C   0  0  2  0  0  0  0  0  0  0  0  0
   28.3796  -20.1496  -12.8872 C   0  0  0  0  0  0  0  0  0  0  0  0
   26.4295  -20.0646  -14.3906 C   0  0  0  0  0  0  0  0  0  0  0  0
   25.1509  -20.4331  -14.9873 C   0  0  2  0  0  0  0  0  0  0  0  0
   24.9332  -20.0375  -16.3493 N   0  0  0  0  0  0  0  0  0  0  0  0
   23.9250  -20.3682  -14.1598 C   0  0  0  0  0  0  0  0  0  0  0  0
   23.9028  -20.5372  -12.9315 O   0  0  0  0  0  0  0  0  0  0  0  0
   22.6945  -20.1006  -14.7987 N   0  0  0  0  0  0  0  0  0  0  0  0
   21.3991  -20.0248  -14.1789 C   0  0  1  0  0  0  0  0  0  0  0  0
   20.4353  -19.0256  -14.8306 C   0  0  0  0  0  0  0  0  0  0  0  0
   21.0763  -17.7503  -15.1781 C   0  0  0  0  0  0  0  0  0  0  0  0
   22.4020  -17.3826  -14.9126 C   0  0  0  0  0  0  0  0  0  0  0  0
   22.6369  -16.1425  -15.3757 N   0  0  0  0  0  0  0  0  0  0  0  0
   21.4892  -15.7238  -15.9256 C   0  0  0  0  0  0  0  0  0  0  0  0
   20.5575  -16.7048  -15.7985 N   0  0  0  0  0  0  0  0  0  0  0  0
   20.7838  -21.2894  -13.8158 C   0  0  0  0  0  0  0  0  0  0  0  0
   21.2859  -22.4297  -14.0309 O   0  0  0  0  0  0  0  0  0  0  0  0
   19.5446  -21.3021  -13.1790 O   0  0  0  0  0  0  0  0  0  0  0  0
  2  3  2  0
  2  1  1  0
  4  2  1  0
  5  4  1  0
  5  6  1  0
  6  8  1  0
  6  7  1  6
  8  9  2  0
 11 10  1  1
 12 11  1  0
 13 11  1  0
 14 13  1  1
 15 14  1  0
 15  8  1  0
 16 17  2  0
 16 14  1  0
 18 16  1  0
 19 18  1  0
 19 26  1  0
 19 20  1  6
 21 25  1  0
 21 20  1  0
 22 21  2  0
 23 22  1  0
 23 24  1  0
 24 25  2  0
 26 28  1  0
 27 26  2  0
M  END
$$$$
