QLH.pdb
     RDKit          3D

 28 28  0  0  1  0  0  0  0  0999 V2000
   28.1627  -19.3366  -19.1929 N   0  0  0  0  0  0  0  0  0  0  0  0
   27.3727  -18.3460  -18.5131 C   0  0  0  0  0  0  0  0  0  0  0  0
   27.3890  -17.1502  -18.8748 O   0  0  0  0  0  0  0  0  0  0  0  0
   26.5565  -18.7985  -17.3900 C   0  0  0  0  0  0  0  0  0  0  0  0
   26.6944  -20.2469  -17.0417 C   0  0  0  0  0  0  0  0  0  0  0  0
   27.1121  -20.4563  -15.6229 C   0  0  2  0  0  0  0  0  0  0  0  0
   28.0377  -21.5508  -15.5480 N   0  0  0  0  0  0  0  0  0  0  0  0
   25.8622  -20.8311  -14.8590 C   0  0  0  0  0  0  0  0  0  0  0  0
   25.1122  -21.7291  -15.2974 O   0  0  0  0  0  0  0  0  0  0  0  0
   25.8566  -22.4121  -10.7398 C   0  0  0  0  0  0  0  0  0  0  0  0
   25.7773  -20.8600  -10.7325 C   0  0  2  0  0  0  0  0  0  0  0  0
   25.6809  -20.5497   -9.2278 C   0  0  0  0  0  0  0  0  0  0  0  0
   24.5408  -20.4899  -11.4112 C   0  0  0  0  0  0  0  0  0  0  0  0
   24.3669  -20.4938  -12.8590 C   0  0  2  0  0  0  0  0  0  0  0  0
   25.5220  -20.1829  -13.6515 N   0  0  0  0  0  0  0  0  0  0  0  0
   23.1082  -19.9678  -13.4343 C   0  0  0  0  0  0  0  0  0  0  0  0
   22.9292  -18.7832  -13.7544 O   0  0  0  0  0  0  0  0  0  0  0  0
   22.0334  -20.8617  -13.6335 N   0  0  0  0  0  0  0  0  0  0  0  0
   20.7936  -20.5838  -14.3069 C   0  0  1  0  0  0  0  0  0  0  0  0
   20.7105  -21.1193  -15.7416 C   0  0  0  0  0  0  0  0  0  0  0  0
   19.4923  -20.6956  -16.4446 C   0  0  0  0  0  0  0  0  0  0  0  0
   18.4675  -19.8912  -15.9287 C   0  0  0  0  0  0  0  0  0  0  0  0
   17.5124  -19.7111  -16.8575 N   0  0  0  0  0  0  0  0  0  0  0  0
   17.9142  -20.3838  -17.9441 C   0  0  0  0  0  0  0  0  0  0  0  0
   19.1101  -20.9723  -17.6794 N   0  0  0  0  0  0  0  0  0  0  0  0
   19.5813  -20.7796  -13.5312 C   0  0  0  0  0  0  0  0  0  0  0  0
   19.4361  -21.6388  -12.6151 O   0  0  0  0  0  0  0  0  0  0  0  0
   18.4632  -19.9851  -13.7761 O   0  0  0  0  0  0  0  0  0  0  0  0
  2  3  2  0
  2  1  1  0
  4  2  1  0
  5  4  1  0
  5  6  1  0
  6  8  1  0
  6  7  1  6
  8  9  2  0
 11 10  1  1
 12 11  1  0
 13 11  1  0
 14 13  1  1
 15 14  1  0
 15  8  1  0
 16 17  2  0
 16 14  1  0
 18 16  1  0
 19 18  1  0
 19 26  1  0
 19 20  1  6
 21 25  1  0
 21 20  1  0
 22 21  2  0
 23 22  1  0
 23 24  1  0
 24 25  2  0
 26 28  1  0
 27 26  2  0
M  END
$$$$
