YFY.pdb
     RDKit          3D

 36 38  0  0  1  0  0  0  0  0999 V2000
    6.7801  -20.8000   16.2867 O   0  0  0  0  0  0  0  0  0  0  0  0
    7.5780  -20.2165   17.2477 C   0  0  0  0  0  0  0  0  0  0  0  0
    7.0938  -20.1185   18.5199 C   0  0  0  0  0  0  0  0  0  0  0  0
    7.8825  -19.5376   19.4869 C   0  0  0  0  0  0  0  0  0  0  0  0
    9.1349  -19.0642   19.1791 C   0  0  0  0  0  0  0  0  0  0  0  0
    9.9733  -18.4363   20.2532 C   0  0  0  0  0  0  0  0  0  0  0  0
    9.3883  -17.0780   20.5380 C   0  0  2  0  0  0  0  0  0  0  0  0
    9.4488  -16.2461   19.3596 N   0  0  0  0  0  0  0  0  0  0  0  0
    9.9721  -16.4111   21.7247 C   0  0  0  0  0  0  0  0  0  0  0  0
   11.1696  -15.9930   21.6247 O   0  0  0  0  0  0  0  0  0  0  0  0
    9.6125  -19.1671   17.8983 C   0  0  0  0  0  0  0  0  0  0  0  0
    8.8274  -19.7474   16.9275 C   0  0  0  0  0  0  0  0  0  0  0  0
    9.2771  -16.2162   22.9456 N   0  0  0  0  0  0  0  0  0  0  0  0
    9.8822  -15.7622   24.1551 C   0  0  1  0  0  0  0  0  0  0  0  0
    8.8130  -15.3877   25.1535 C   0  0  0  0  0  0  0  0  0  0  0  0
    9.3240  -14.9566   26.4474 C   0  0  0  0  0  0  0  0  0  0  0  0
    9.6859  -13.6540   26.7427 C   0  0  0  0  0  0  0  0  0  0  0  0
   10.1653  -13.2654   27.9667 C   0  0  0  0  0  0  0  0  0  0  0  0
   10.3046  -14.1898   28.9690 C   0  0  0  0  0  0  0  0  0  0  0  0
    9.9574  -15.4943   28.7197 C   0  0  0  0  0  0  0  0  0  0  0  0
    9.4695  -15.8735   27.4637 C   0  0  0  0  0  0  0  0  0  0  0  0
   10.9359  -16.6149   24.7090 C   0  0  0  0  0  0  0  0  0  0  0  0
   10.7790  -17.8271   25.0356 O   0  0  0  0  0  0  0  0  0  0  0  0
   19.1790  -19.3157   26.8106 O   0  0  0  0  0  0  0  0  0  0  0  0
   18.0779  -18.5453   26.4375 C   0  0  0  0  0  0  0  0  0  0  0  0
   17.5441  -17.5797   27.2557 C   0  0  0  0  0  0  0  0  0  0  0  0
   16.4546  -16.8487   26.8340 C   0  0  0  0  0  0  0  0  0  0  0  0
   15.8428  -17.0308   25.5985 C   0  0  0  0  0  0  0  0  0  0  0  0
   14.6709  -16.2406   25.1761 C   0  0  0  0  0  0  0  0  0  0  0  0
   13.3555  -16.9873   25.3516 C   0  0  2  0  0  0  0  0  0  0  0  0
   12.2487  -16.1172   24.9199 N   0  0  0  0  0  0  0  0  0  0  0  0
   13.1632  -17.2404   26.7873 C   0  0  0  0  0  0  0  0  0  0  0  0
   12.8332  -16.2815   27.7335 O   0  0  0  0  0  0  0  0  0  0  0  0
   16.4067  -18.0134   24.7969 C   0  0  0  0  0  0  0  0  0  0  0  0
   17.4956  -18.7511   25.2061 C   0  0  0  0  0  0  0  0  0  0  0  0
   13.3041  -18.4118   27.2166 O   0  0  0  0  0  0  0  0  0  0  0  0
  2  1  1  0
  3  2  2  0
  4  3  1  0
  5 11  1  0
  5  4  2  0
  6  5  1  0
  7  6  1  0
  7  8  1  6
  9  7  1  0
 10  9  2  0
 11 12  2  0
 12  2  1  0
 13  9  1  0
 14 13  1  0
 14 15  1  1
 16 15  1  0
 16 17  2  0
 18 17  1  0
 19 18  2  0
 20 21  2  0
 20 19  1  0
 21 16  1  0
 22 14  1  0
 23 22  2  0
 25 24  1  0
 25 26  2  0
 27 26  1  0
 28 27  2  0
 29 28  1  0
 30 29  1  1
 30 31  1  0
 31 22  1  0
 32 30  1  0
 32 33  1  0
 34 35  2  0
 34 28  1  0
 35 25  1  0
 36 32  2  0
M  END
$$$$
