YFY.pdb
     RDKit          3D

 36 38  0  0  1  0  0  0  0  0999 V2000
    4.7340  -24.5928   19.5508 O   0  0  0  0  0  0  0  0  0  0  0  0
    4.9834  -23.2783   19.8830 C   0  0  0  0  0  0  0  0  0  0  0  0
    4.4252  -22.2984   19.1144 C   0  0  0  0  0  0  0  0  0  0  0  0
    4.6680  -20.9827   19.4376 C   0  0  0  0  0  0  0  0  0  0  0  0
    5.4579  -20.6594   20.5141 C   0  0  0  0  0  0  0  0  0  0  0  0
    5.7052  -19.2168   20.8439 C   0  0  0  0  0  0  0  0  0  0  0  0
    5.0960  -18.9583   22.1967 C   0  0  2  0  0  0  0  0  0  0  0  0
    3.6614  -19.1104   22.1407 N   0  0  0  0  0  0  0  0  0  0  0  0
    5.4989  -17.6662   22.7982 C   0  0  0  0  0  0  0  0  0  0  0  0
    5.4067  -16.6308   22.0644 O   0  0  0  0  0  0  0  0  0  0  0  0
    6.0143  -21.6508   21.2801 C   0  0  0  0  0  0  0  0  0  0  0  0
    5.7744  -22.9683   20.9610 C   0  0  0  0  0  0  0  0  0  0  0  0
    5.9727  -17.5249   24.1276 N   0  0  0  0  0  0  0  0  0  0  0  0
    6.7378  -16.4165   24.5981 C   0  0  1  0  0  0  0  0  0  0  0  0
    6.4186  -16.1536   26.0504 C   0  0  0  0  0  0  0  0  0  0  0  0
    6.8046  -14.8301   26.5201 C   0  0  0  0  0  0  0  0  0  0  0  0
    6.0153  -13.7010   26.3899 C   0  0  0  0  0  0  0  0  0  0  0  0
    6.3943  -12.4623   26.8381 C   0  0  0  0  0  0  0  0  0  0  0  0
    7.6101  -12.3014   27.4502 C   0  0  0  0  0  0  0  0  0  0  0  0
    8.4257  -13.3953   27.6005 C   0  0  0  0  0  0  0  0  0  0  0  0
    8.0225  -14.6530   27.1367 C   0  0  0  0  0  0  0  0  0  0  0  0
    8.1720  -16.4516   24.3048 C   0  0  0  0  0  0  0  0  0  0  0  0
    8.9241  -17.4450   24.5239 O   0  0  0  0  0  0  0  0  0  0  0  0
    7.2577  -13.9942   17.6665 O   0  0  0  0  0  0  0  0  0  0  0  0
    8.0316  -14.0198   18.8264 C   0  0  0  0  0  0  0  0  0  0  0  0
    7.8562  -13.1188   19.8482 C   0  0  0  0  0  0  0  0  0  0  0  0
    8.6509  -13.1922   20.9717 C   0  0  0  0  0  0  0  0  0  0  0  0
    9.6477  -14.1467   21.1427 C   0  0  0  0  0  0  0  0  0  0  0  0
   10.4910  -14.1965   22.3521 C   0  0  0  0  0  0  0  0  0  0  0  0
   10.2112  -15.4141   23.2225 C   0  0  2  0  0  0  0  0  0  0  0  0
    8.8324  -15.3324   23.7327 N   0  0  0  0  0  0  0  0  0  0  0  0
   11.1020  -15.3536   24.3909 C   0  0  0  0  0  0  0  0  0  0  0  0
   10.6873  -15.2825   25.7126 O   0  0  0  0  0  0  0  0  0  0  0  0
    9.7984  -15.0412   20.0924 C   0  0  0  0  0  0  0  0  0  0  0  0
    9.0107  -14.9791   18.9640 C   0  0  0  0  0  0  0  0  0  0  0  0
   12.3434  -15.3652   24.2033 O   0  0  0  0  0  0  0  0  0  0  0  0
  2  1  1  0
  3  2  2  0
  4  3  1  0
  5 11  1  0
  5  4  2  0
  6  5  1  0
  7  6  1  0
  7  8  1  6
  9  7  1  0
 10  9  2  0
 11 12  2  0
 12  2  1  0
 13  9  1  0
 14 13  1  0
 14 15  1  1
 16 15  1  0
 16 17  2  0
 18 17  1  0
 19 18  2  0
 20 21  2  0
 20 19  1  0
 21 16  1  0
 22 14  1  0
 23 22  2  0
 25 24  1  0
 25 26  2  0
 27 26  1  0
 28 27  2  0
 29 28  1  0
 30 29  1  6
 30 31  1  0
 31 22  1  0
 32 30  1  0
 32 33  1  0
 34 35  2  0
 34 28  1  0
 35 25  1  0
 36 32  2  0
M  END
$$$$
