YFY.pdb
     RDKit          3D

 36 38  0  0  1  0  0  0  0  0999 V2000
    3.9421  -23.6595   18.2233 O   0  0  0  0  0  0  0  0  0  0  0  0
    3.9743  -22.5234   19.0035 C   0  0  0  0  0  0  0  0  0  0  0  0
    4.9834  -22.3898   19.9127 C   0  0  0  0  0  0  0  0  0  0  0  0
    5.0246  -21.2592   20.6965 C   0  0  0  0  0  0  0  0  0  0  0  0
    4.0683  -20.2813   20.5677 C   0  0  0  0  0  0  0  0  0  0  0  0
    4.1383  -19.0589   21.4347 C   0  0  0  0  0  0  0  0  0  0  0  0
    5.3812  -19.1803   22.2765 C   0  0  2  0  0  0  0  0  0  0  0  0
    5.1813  -20.1421   23.3344 N   0  0  0  0  0  0  0  0  0  0  0  0
    5.8889  -17.8855   22.7856 C   0  0  0  0  0  0  0  0  0  0  0  0
    6.0949  -16.9663   21.9302 O   0  0  0  0  0  0  0  0  0  0  0  0
    3.0586  -20.4245   19.6516 C   0  0  0  0  0  0  0  0  0  0  0  0
    3.0129  -21.5537   18.8652 C   0  0  0  0  0  0  0  0  0  0  0  0
    6.1514  -17.6205   24.1540 N   0  0  0  0  0  0  0  0  0  0  0  0
    6.8018  -16.4468   24.6384 C   0  0  1  0  0  0  0  0  0  0  0  0
    6.3371  -16.1467   26.0434 C   0  0  0  0  0  0  0  0  0  0  0  0
    6.7734  -14.8557   26.5574 C   0  0  0  0  0  0  0  0  0  0  0  0
    8.0107  -14.6293   27.1343 C   0  0  0  0  0  0  0  0  0  0  0  0
    8.4053  -13.4070   27.6130 C   0  0  0  0  0  0  0  0  0  0  0  0
    7.5544  -12.3356   27.5308 C   0  0  0  0  0  0  0  0  0  0  0  0
    6.3164  -12.5152   26.9656 C   0  0  0  0  0  0  0  0  0  0  0  0
    5.9298  -13.7706   26.4818 C   0  0  0  0  0  0  0  0  0  0  0  0
    8.2562  -16.4007   24.4741 C   0  0  0  0  0  0  0  0  0  0  0  0
    9.0278  -17.3892   24.6413 O   0  0  0  0  0  0  0  0  0  0  0  0
    7.1885  -13.8934   17.7591 O   0  0  0  0  0  0  0  0  0  0  0  0
    7.9699  -13.8926   18.9143 C   0  0  0  0  0  0  0  0  0  0  0  0
    9.3412  -13.9611   18.8753 C   0  0  0  0  0  0  0  0  0  0  0  0
   10.0622  -13.9567   20.0498 C   0  0  0  0  0  0  0  0  0  0  0  0
    9.4743  -13.8857   21.3080 C   0  0  0  0  0  0  0  0  0  0  0  0
   10.2699  -13.8925   22.5503 C   0  0  0  0  0  0  0  0  0  0  0  0
   10.1628  -15.2031   23.3179 C   0  0  2  0  0  0  0  0  0  0  0  0
    8.9156  -15.2001   24.1007 N   0  0  0  0  0  0  0  0  0  0  0  0
   11.2710  -15.2580   24.2828 C   0  0  0  0  0  0  0  0  0  0  0  0
   11.1324  -15.2815   25.6627 O   0  0  0  0  0  0  0  0  0  0  0  0
    8.0881  -13.8174   21.3117 C   0  0  0  0  0  0  0  0  0  0  0  0
    7.3556  -13.8208   20.1452 C   0  0  0  0  0  0  0  0  0  0  0  0
   12.4482  -15.2862   23.8472 O   0  0  0  0  0  0  0  0  0  0  0  0
  2  1  1  0
  3  2  2  0
  4  3  1  0
  5 11  1  0
  5  4  2  0
  6  5  1  0
  7  6  1  0
  7  8  1  1
  9  7  1  0
 10  9  2  0
 11 12  2  0
 12  2  1  0
 13  9  1  0
 14 13  1  0
 14 15  1  1
 16 15  1  0
 16 17  2  0
 18 17  1  0
 19 18  2  0
 20 21  2  0
 20 19  1  0
 21 16  1  0
 22 14  1  0
 23 22  2  0
 25 24  1  0
 25 26  2  0
 27 26  1  0
 28 27  2  0
 29 28  1  0
 30 29  1  1
 30 31  1  0
 31 22  1  0
 32 30  1  0
 32 33  1  0
 34 35  2  0
 34 28  1  0
 35 25  1  0
 36 32  2  0
M  END
$$$$
