YFY.pdb
     RDKit          3D

 36 38  0  0  1  0  0  0  0  0999 V2000
    8.0311  -24.7296   29.0657 O   0  0  0  0  0  0  0  0  0  0  0  0
    8.1495  -23.5275   28.4011 C   0  0  0  0  0  0  0  0  0  0  0  0
    9.1333  -23.3993   27.4638 C   0  0  0  0  0  0  0  0  0  0  0  0
    9.2600  -22.2033   26.7946 C   0  0  0  0  0  0  0  0  0  0  0  0
    8.4125  -21.1560   27.0636 C   0  0  0  0  0  0  0  0  0  0  0  0
    8.5731  -19.8639   26.3183 C   0  0  0  0  0  0  0  0  0  0  0  0
    7.4659  -19.7967   25.2995 C   0  0  2  0  0  0  0  0  0  0  0  0
    7.5690  -20.8966   24.3700 N   0  0  0  0  0  0  0  0  0  0  0  0
    7.3641  -18.4894   24.6108 C   0  0  0  0  0  0  0  0  0  0  0  0
    7.9008  -18.3960   23.4609 O   0  0  0  0  0  0  0  0  0  0  0  0
    7.4275  -21.2945   28.0068 C   0  0  0  0  0  0  0  0  0  0  0  0
    7.2966  -22.4888   28.6790 C   0  0  0  0  0  0  0  0  0  0  0  0
    6.7092  -17.3557   25.1563 N   0  0  0  0  0  0  0  0  0  0  0  0
    7.1615  -16.0113   25.0036 C   0  0  1  0  0  0  0  0  0  0  0  0
    6.2181  -15.0700   25.7136 C   0  0  0  0  0  0  0  0  0  0  0  0
    6.5824  -13.6636   25.6102 C   0  0  0  0  0  0  0  0  0  0  0  0
    6.5983  -12.7865   26.6805 C   0  0  0  0  0  0  0  0  0  0  0  0
    6.9441  -11.4651   26.5652 C   0  0  0  0  0  0  0  0  0  0  0  0
    7.2967  -10.9569   25.3421 C   0  0  0  0  0  0  0  0  0  0  0  0
    7.2948  -11.7919   24.2526 C   0  0  0  0  0  0  0  0  0  0  0  0
    6.9388  -13.1389   24.3885 C   0  0  0  0  0  0  0  0  0  0  0  0
    8.5745  -15.7683   25.3011 C   0  0  0  0  0  0  0  0  0  0  0  0
    8.9974  -15.1785   26.3373 O   0  0  0  0  0  0  0  0  0  0  0  0
    9.8416  -15.2303   30.8689 O   0  0  0  0  0  0  0  0  0  0  0  0
   10.2936  -15.5252   29.5829 C   0  0  0  0  0  0  0  0  0  0  0  0
   10.5878  -14.5476   28.6640 C   0  0  0  0  0  0  0  0  0  0  0  0
   11.0311  -14.8983   27.4071 C   0  0  0  0  0  0  0  0  0  0  0  0
   11.2045  -16.2158   26.9970 C   0  0  0  0  0  0  0  0  0  0  0  0
   11.6714  -16.5635   25.6415 C   0  0  0  0  0  0  0  0  0  0  0  0
   10.9917  -15.7470   24.5507 C   0  0  2  0  0  0  0  0  0  0  0  0
    9.5963  -16.1972   24.4136 N   0  0  0  0  0  0  0  0  0  0  0  0
   11.6618  -16.0427   23.2756 C   0  0  0  0  0  0  0  0  0  0  0  0
   11.0700  -16.6583   22.1826 O   0  0  0  0  0  0  0  0  0  0  0  0
   10.8986  -17.1781   27.9491 C   0  0  0  0  0  0  0  0  0  0  0  0
   10.4549  -16.8412   29.2089 C   0  0  0  0  0  0  0  0  0  0  0  0
   12.8682  -15.7222   23.1406 O   0  0  0  0  0  0  0  0  0  0  0  0
  2  1  1  0
  3  2  2  0
  4  3  1  0
  5 11  1  0
  5  4  2  0
  6  5  1  0
  7  6  1  0
  7  8  1  6
  9  7  1  0
 10  9  2  0
 11 12  2  0
 12  2  1  0
 13  9  1  0
 14 13  1  0
 14 15  1  1
 16 15  1  0
 16 17  2  0
 18 17  1  0
 19 18  2  0
 20 21  2  0
 20 19  1  0
 21 16  1  0
 22 14  1  0
 23 22  2  0
 25 24  1  0
 25 26  2  0
 27 26  1  0
 28 27  2  0
 29 28  1  0
 30 29  1  1
 30 31  1  0
 31 22  1  0
 32 30  1  0
 32 33  1  0
 34 35  2  0
 34 28  1  0
 35 25  1  0
 36 32  2  0
M  END
$$$$
