YFY.pdb
     RDKit          3D

 36 38  0  0  1  0  0  0  0  0999 V2000
   12.0478  -21.2702   15.1757 O   0  0  0  0  0  0  0  0  0  0  0  0
   11.5844  -20.7137   16.3488 C   0  0  0  0  0  0  0  0  0  0  0  0
   10.3914  -20.0512   16.3249 C   0  0  0  0  0  0  0  0  0  0  0  0
    9.9197  -19.4921   17.4908 C   0  0  0  0  0  0  0  0  0  0  0  0
   10.6353  -19.5977   18.6588 C   0  0  0  0  0  0  0  0  0  0  0  0
   10.0968  -18.9791   19.9151 C   0  0  0  0  0  0  0  0  0  0  0  0
    9.5951  -17.6053   19.5557 C   0  0  2  0  0  0  0  0  0  0  0  0
   10.2750  -17.1118   18.3816 N   0  0  0  0  0  0  0  0  0  0  0  0
    9.6406  -16.6386   20.6768 C   0  0  0  0  0  0  0  0  0  0  0  0
   10.7316  -16.0087   20.8559 O   0  0  0  0  0  0  0  0  0  0  0  0
   11.8326  -20.2651   18.6727 C   0  0  0  0  0  0  0  0  0  0  0  0
   12.3087  -20.8262   17.5091 C   0  0  0  0  0  0  0  0  0  0  0  0
    8.5495  -16.3815   21.5458 N   0  0  0  0  0  0  0  0  0  0  0  0
    8.6307  -15.5927   22.7317 C   0  0  1  0  0  0  0  0  0  0  0  0
    7.2929  -14.9511   23.0126 C   0  0  0  0  0  0  0  0  0  0  0  0
    7.2705  -14.1024   24.1960 C   0  0  0  0  0  0  0  0  0  0  0  0
    6.8987  -14.5387   25.4555 C   0  0  0  0  0  0  0  0  0  0  0  0
    6.8836  -13.7259   26.5592 C   0  0  0  0  0  0  0  0  0  0  0  0
    7.2496  -12.4103   26.4420 C   0  0  0  0  0  0  0  0  0  0  0  0
    7.6258  -11.9349   25.2104 C   0  0  0  0  0  0  0  0  0  0  0  0
    7.6354  -12.7791   24.0939 C   0  0  0  0  0  0  0  0  0  0  0  0
    9.2318  -16.2420   23.8985 C   0  0  0  0  0  0  0  0  0  0  0  0
    9.0325  -17.4465   24.2301 O   0  0  0  0  0  0  0  0  0  0  0  0
    9.2524  -14.6126   31.3059 O   0  0  0  0  0  0  0  0  0  0  0  0
    9.9067  -14.7207   30.0790 C   0  0  0  0  0  0  0  0  0  0  0  0
    9.9394  -13.6921   29.1692 C   0  0  0  0  0  0  0  0  0  0  0  0
   10.6017  -13.8559   27.9718 C   0  0  0  0  0  0  0  0  0  0  0  0
   11.2576  -15.0289   27.6146 C   0  0  0  0  0  0  0  0  0  0  0  0
   11.9509  -15.1808   26.3213 C   0  0  0  0  0  0  0  0  0  0  0  0
   11.2713  -16.1810   25.3960 C   0  0  2  0  0  0  0  0  0  0  0  0
   10.1103  -15.5351   24.7612 N   0  0  0  0  0  0  0  0  0  0  0  0
   10.7489  -17.2816   26.2195 C   0  0  0  0  0  0  0  0  0  0  0  0
   11.5163  -18.2715   26.8153 O   0  0  0  0  0  0  0  0  0  0  0  0
   11.2054  -16.0476   28.5557 C   0  0  0  0  0  0  0  0  0  0  0  0
   10.5470  -15.8970   29.7563 C   0  0  0  0  0  0  0  0  0  0  0  0
    9.5105  -17.3535   26.4135 O   0  0  0  0  0  0  0  0  0  0  0  0
  2  1  1  0
  3  2  2  0
  4  3  1  0
  5 11  1  0
  5  4  2  0
  6  5  1  0
  7  6  1  0
  7  8  1  6
  9  7  1  0
 10  9  2  0
 11 12  2  0
 12  2  1  0
 13  9  1  0
 14 13  1  0
 14 15  1  1
 16 15  1  0
 16 17  2  0
 18 17  1  0
 19 18  2  0
 20 21  2  0
 20 19  1  0
 21 16  1  0
 22 14  1  0
 23 22  2  0
 25 24  1  0
 25 26  2  0
 27 26  1  0
 28 27  2  0
 29 28  1  0
 30 29  1  1
 30 31  1  0
 31 22  1  0
 32 30  1  0
 32 33  1  0
 34 35  2  0
 34 28  1  0
 35 25  1  0
 36 32  2  0
M  END
$$$$
