YFY.pdb
     RDKit          3D

 36 38  0  0  1  0  0  0  0  0999 V2000
    8.8549  -19.6533   16.0032 O   0  0  0  0  0  0  0  0  0  0  0  0
    9.1235  -19.1997   17.2771 C   0  0  0  0  0  0  0  0  0  0  0  0
   10.2029  -18.3849   17.4608 C   0  0  0  0  0  0  0  0  0  0  0  0
   10.4797  -17.9265   18.7287 C   0  0  0  0  0  0  0  0  0  0  0  0
    9.6852  -18.2816   19.7918 C   0  0  0  0  0  0  0  0  0  0  0  0
   10.0101  -17.7666   21.1630 C   0  0  0  0  0  0  0  0  0  0  0  0
    9.3109  -16.4418   21.3185 C   0  0  2  0  0  0  0  0  0  0  0  0
    9.8139  -15.4905   20.3561 N   0  0  0  0  0  0  0  0  0  0  0  0
    9.3383  -15.9084   22.7000 C   0  0  0  0  0  0  0  0  0  0  0  0
   10.3435  -15.2011   23.0289 O   0  0  0  0  0  0  0  0  0  0  0  0
    8.6033  -19.1005   19.5972 C   0  0  0  0  0  0  0  0  0  0  0  0
    8.3221  -19.5617   18.3309 C   0  0  0  0  0  0  0  0  0  0  0  0
    8.3190  -16.1398   23.6587 N   0  0  0  0  0  0  0  0  0  0  0  0
    8.5052  -16.0566   25.0707 C   0  0  1  0  0  0  0  0  0  0  0  0
    7.2294  -15.5879   25.7287 C   0  0  0  0  0  0  0  0  0  0  0  0
    7.0888  -14.1401   25.8030 C   0  0  0  0  0  0  0  0  0  0  0  0
    7.3410  -13.3945   26.9411 C   0  0  0  0  0  0  0  0  0  0  0  0
    7.2036  -12.0317   26.9935 C   0  0  0  0  0  0  0  0  0  0  0  0
    6.7978  -11.3441   25.8793 C   0  0  0  0  0  0  0  0  0  0  0  0
    6.5367  -12.0442   24.7278 C   0  0  0  0  0  0  0  0  0  0  0  0
    6.6822  -13.4360   24.6923 C   0  0  0  0  0  0  0  0  0  0  0  0
    9.1058  -17.2278   25.7123 C   0  0  0  0  0  0  0  0  0  0  0  0
    8.7291  -18.4206   25.5230 O   0  0  0  0  0  0  0  0  0  0  0  0
   15.7578  -15.8056   23.7724 O   0  0  0  0  0  0  0  0  0  0  0  0
   14.7289  -16.5778   24.3110 C   0  0  0  0  0  0  0  0  0  0  0  0
   13.4977  -16.6848   23.7114 C   0  0  0  0  0  0  0  0  0  0  0  0
   12.5182  -17.4629   24.2896 C   0  0  0  0  0  0  0  0  0  0  0  0
   12.7007  -18.1668   25.4749 C   0  0  0  0  0  0  0  0  0  0  0  0
   11.6312  -18.9850   26.0774 C   0  0  0  0  0  0  0  0  0  0  0  0
   10.8831  -18.2612   27.1886 C   0  0  2  0  0  0  0  0  0  0  0  0
   10.1902  -17.0935   26.6189 N   0  0  0  0  0  0  0  0  0  0  0  0
   11.8745  -17.7439   28.1436 C   0  0  0  0  0  0  0  0  0  0  0  0
   12.0253  -16.4121   28.5005 O   0  0  0  0  0  0  0  0  0  0  0  0
   13.9552  -18.0373   26.0542 C   0  0  0  0  0  0  0  0  0  0  0  0
   14.9431  -17.2630   25.4867 C   0  0  0  0  0  0  0  0  0  0  0  0
   12.6606  -18.5537   28.6938 O   0  0  0  0  0  0  0  0  0  0  0  0
  2  1  1  0
  3  2  2  0
  4  3  1  0
  5 11  1  0
  5  4  2  0
  6  5  1  0
  7  6  1  0
  7  8  1  6
  9  7  1  0
 10  9  2  0
 11 12  2  0
 12  2  1  0
 13  9  1  0
 14 13  1  0
 14 15  1  1
 16 15  1  0
 16 17  2  0
 18 17  1  0
 19 18  2  0
 20 21  2  0
 20 19  1  0
 21 16  1  0
 22 14  1  0
 23 22  2  0
 25 24  1  0
 25 26  2  0
 27 26  1  0
 28 27  2  0
 29 28  1  0
 30 29  1  6
 30 31  1  0
 31 22  1  0
 32 30  1  0
 32 33  1  0
 34 35  2  0
 34 28  1  0
 35 25  1  0
 36 32  2  0
M  END
$$$$
