YFY.pdb
     RDKit          3D

 36 38  0  0  1  0  0  0  0  0999 V2000
    8.8017  -11.9737   18.6412 O   0  0  0  0  0  0  0  0  0  0  0  0
    8.3007  -13.2026   19.0143 C   0  0  0  0  0  0  0  0  0  0  0  0
    8.9584  -14.3240   18.5988 C   0  0  0  0  0  0  0  0  0  0  0  0
    8.4664  -15.5559   18.9659 C   0  0  0  0  0  0  0  0  0  0  0  0
    7.3337  -15.6573   19.7367 C   0  0  0  0  0  0  0  0  0  0  0  0
    6.8202  -17.0131   20.1227 C   0  0  0  0  0  0  0  0  0  0  0  0
    6.0337  -16.8456   21.3962 C   0  0  2  0  0  0  0  0  0  0  0  0
    4.7758  -16.1893   21.1289 N   0  0  0  0  0  0  0  0  0  0  0  0
    6.7898  -16.1847   22.4847 C   0  0  0  0  0  0  0  0  0  0  0  0
    6.4398  -15.0026   22.7996 O   0  0  0  0  0  0  0  0  0  0  0  0
    6.6800  -14.5252   20.1492 C   0  0  0  0  0  0  0  0  0  0  0  0
    7.1682  -13.2905   19.7846 C   0  0  0  0  0  0  0  0  0  0  0  0
    7.8647  -16.7910   23.1839 N   0  0  0  0  0  0  0  0  0  0  0  0
    8.5562  -16.1912   24.2780 C   0  0  1  0  0  0  0  0  0  0  0  0
    7.5883  -15.9069   25.4016 C   0  0  0  0  0  0  0  0  0  0  0  0
    7.3038  -14.4931   25.6059 C   0  0  0  0  0  0  0  0  0  0  0  0
    8.2708  -13.5377   25.8650 C   0  0  0  0  0  0  0  0  0  0  0  0
    7.9852  -12.2105   26.0546 C   0  0  0  0  0  0  0  0  0  0  0  0
    6.6867  -11.7766   25.9907 C   0  0  0  0  0  0  0  0  0  0  0  0
    5.6949  -12.6908   25.7358 C   0  0  0  0  0  0  0  0  0  0  0  0
    6.0046  -14.0425   25.5446 C   0  0  0  0  0  0  0  0  0  0  0  0
    9.7841  -16.8616   24.7107 C   0  0  0  0  0  0  0  0  0  0  0  0
    9.8217  -17.8438   25.5071 O   0  0  0  0  0  0  0  0  0  0  0  0
   10.4896  -16.6829   31.3663 O   0  0  0  0  0  0  0  0  0  0  0  0
   10.8048  -16.2983   30.0633 C   0  0  0  0  0  0  0  0  0  0  0  0
   11.2677  -17.1882   29.1248 C   0  0  0  0  0  0  0  0  0  0  0  0
   11.5632  -16.7510   27.8518 C   0  0  0  0  0  0  0  0  0  0  0  0
   11.4193  -15.4293   27.4440 C   0  0  0  0  0  0  0  0  0  0  0  0
   11.7526  -14.9863   26.0769 C   0  0  0  0  0  0  0  0  0  0  0  0
   12.1652  -16.1331   25.1642 C   0  0  2  0  0  0  0  0  0  0  0  0
   11.0562  -16.4371   24.2445 N   0  0  0  0  0  0  0  0  0  0  0  0
   12.3677  -17.3281   25.9969 C   0  0  0  0  0  0  0  0  0  0  0  0
   12.3851  -17.3456   27.3837 O   0  0  0  0  0  0  0  0  0  0  0  0
   10.9497  -14.5569   28.4159 C   0  0  0  0  0  0  0  0  0  0  0  0
   10.6504  -14.9807   29.6919 C   0  0  0  0  0  0  0  0  0  0  0  0
   12.5417  -18.4348   25.4301 O   0  0  0  0  0  0  0  0  0  0  0  0
  2  1  1  0
  3  2  2  0
  4  3  1  0
  5 11  1  0
  5  4  2  0
  6  5  1  0
  7  6  1  0
  7  8  1  6
  9  7  1  0
 10  9  2  0
 11 12  2  0
 12  2  1  0
 13  9  1  0
 14 13  1  0
 14 15  1  1
 16 15  1  0
 16 17  2  0
 18 17  1  0
 19 18  2  0
 20 21  2  0
 20 19  1  0
 21 16  1  0
 22 14  1  0
 23 22  2  0
 25 24  1  0
 25 26  2  0
 27 26  1  0
 28 27  2  0
 29 28  1  0
 30 29  1  1
 30 31  1  0
 31 22  1  0
 32 30  1  0
 32 33  1  0
 34 35  2  0
 34 28  1  0
 35 25  1  0
 36 32  2  0
M  END
$$$$
