WDW.pdb
     RDKit          3D

 37 40  0  0  1  0  0  0  0  0999 V2000
   27.1921  -20.3771  -16.2342 N   0  0  0  0  0  0  0  0  0  0  0  0
   26.4243  -21.1272  -15.2999 C   0  0  1  0  0  0  0  0  0  0  0  0
   26.2254  -20.3704  -14.0367 C   0  0  0  0  0  0  0  0  0  0  0  0
   27.3909  -19.7683  -13.4146 C   0  0  0  0  0  0  0  0  0  0  0  0
   27.9373  -18.5391  -13.5202 C   0  0  0  0  0  0  0  0  0  0  0  0
   29.0606  -18.4789  -12.7429 N   0  0  0  0  0  0  0  0  0  0  0  0
   29.2212  -19.6833  -12.1446 C   0  0  0  0  0  0  0  0  0  0  0  0
   30.1889  -20.1639  -11.2693 C   0  0  0  0  0  0  0  0  0  0  0  0
   30.1629  -21.4431  -10.7801 C   0  0  0  0  0  0  0  0  0  0  0  0
   29.1255  -22.2819  -11.1802 C   0  0  0  0  0  0  0  0  0  0  0  0
   28.1606  -21.7880  -12.0579 C   0  0  0  0  0  0  0  0  0  0  0  0
   28.2077  -20.5020  -12.5367 C   0  0  0  0  0  0  0  0  0  0  0  0
   25.3151  -21.9198  -15.8003 C   0  0  0  0  0  0  0  0  0  0  0  0
   24.4378  -21.3469  -16.5361 O   0  0  0  0  0  0  0  0  0  0  0  0
   25.0566  -23.3009  -15.5685 N   0  0  0  0  0  0  0  0  0  0  0  0
   23.7444  -23.8901  -15.4982 C   0  0  1  0  0  0  0  0  0  0  0  0
   23.8168  -25.3882  -15.3236 C   0  0  0  0  0  0  0  0  0  0  0  0
   25.0223  -25.9011  -15.9975 C   0  0  0  0  0  0  0  0  0  0  0  0
   25.8419  -26.5966  -15.3153 O   0  0  0  0  0  0  0  0  0  0  0  0
   22.8128  -23.3297  -14.5423 C   0  0  0  0  0  0  0  0  0  0  0  0
   22.5387  -24.0977  -13.5432 O   0  0  0  0  0  0  0  0  0  0  0  0
   25.3413  -25.6847  -17.3352 O   0  0  0  0  0  0  0  0  0  0  0  0
   22.1481  -22.0884  -14.5057 N   0  0  0  0  0  0  0  0  0  0  0  0
   21.2440  -21.7462  -13.4158 C   0  0  1  0  0  0  0  0  0  0  0  0
   21.9108  -21.5002  -12.1044 C   0  0  0  0  0  0  0  0  0  0  0  0
   23.0706  -20.5805  -12.1735 C   0  0  0  0  0  0  0  0  0  0  0  0
   23.4543  -19.7143  -13.1467 C   0  0  0  0  0  0  0  0  0  0  0  0
   24.6010  -19.0752  -12.7960 N   0  0  0  0  0  0  0  0  0  0  0  0
   24.9491  -19.5452  -11.5774 C   0  0  0  0  0  0  0  0  0  0  0  0
   26.0220  -19.2473  -10.7454 C   0  0  0  0  0  0  0  0  0  0  0  0
   26.1894  -19.8580   -9.5153 C   0  0  0  0  0  0  0  0  0  0  0  0
   25.2531  -20.7955   -9.1057 C   0  0  0  0  0  0  0  0  0  0  0  0
   24.1944  -21.0851   -9.9346 C   0  0  0  0  0  0  0  0  0  0  0  0
   24.0348  -20.4634  -11.1737 C   0  0  0  0  0  0  0  0  0  0  0  0
   20.4097  -20.5599  -13.7308 C   0  0  0  0  0  0  0  0  0  0  0  0
   19.5655  -20.0436  -12.9729 O   0  0  0  0  0  0  0  0  0  0  0  0
   20.6302  -20.0097  -15.0107 O   0  0  0  0  0  0  0  0  0  0  0  0
  2  1  1  6
  2  3  1  0
  3  4  1  0
  4 12  1  0
  4  5  2  0
  5  6  1  0
  7  8  2  0
  7  6  1  0
  9  8  1  0
 10  9  2  0
 11 10  1  0
 11 12  2  0
 12  7  1  0
 13 14  2  0
 13  2  1  0
 15 13  1  0
 16 15  1  0
 17 18  1  0
 16 17  1  1
 18 19  2  0
 20 16  1  0
 20 21  2  0
 22 18  1  0
 23 20  1  0
 24 25  1  1
 24 23  1  0
 25 26  1  0
 26 34  1  0
 26 27  2  0
 27 28  1  0
 29 28  1  0
 29 30  2  0
 31 30  1  0
 32 31  2  0
 33 34  2  0
 33 32  1  0
 34 29  1  0
 35 24  1  0
 36 35  2  0
 37 35  1  0
M  END
$$$$
