WDW.pdb
     RDKit          3D

 37 40  0  0  1  0  0  0  0  0999 V2000
   29.7287  -22.7107  -18.8268 N   0  0  0  0  0  0  0  0  0  0  0  0
   29.2220  -23.1104  -17.5586 C   0  0  1  0  0  0  0  0  0  0  0  0
   30.3022  -23.6542  -16.6950 C   0  0  0  0  0  0  0  0  0  0  0  0
   31.0701  -24.7802  -17.1954 C   0  0  0  0  0  0  0  0  0  0  0  0
   32.3521  -24.8899  -17.6018 C   0  0  0  0  0  0  0  0  0  0  0  0
   32.5840  -26.1727  -18.0143 N   0  0  0  0  0  0  0  0  0  0  0  0
   31.4353  -26.8746  -17.8664 C   0  0  0  0  0  0  0  0  0  0  0  0
   31.1159  -28.2009  -18.1359 C   0  0  0  0  0  0  0  0  0  0  0  0
   29.8652  -28.7127  -17.9121 C   0  0  0  0  0  0  0  0  0  0  0  0
   28.8879  -27.8653  -17.3957 C   0  0  0  0  0  0  0  0  0  0  0  0
   29.2207  -26.5374  -17.1288 C   0  0  0  0  0  0  0  0  0  0  0  0
   30.4812  -26.0457  -17.3625 C   0  0  0  0  0  0  0  0  0  0  0  0
   28.2019  -22.2863  -16.9347 C   0  0  0  0  0  0  0  0  0  0  0  0
   28.4808  -21.0651  -16.6695 O   0  0  0  0  0  0  0  0  0  0  0  0
   26.8836  -22.6693  -16.5562 N   0  0  0  0  0  0  0  0  0  0  0  0
   25.9120  -21.7890  -15.9604 C   0  0  1  0  0  0  0  0  0  0  0  0
   24.6055  -21.8100  -16.7172 C   0  0  0  0  0  0  0  0  0  0  0  0
   23.6438  -20.9101  -16.0571 C   0  0  0  0  0  0  0  0  0  0  0  0
   22.7800  -21.4233  -15.2752 O   0  0  0  0  0  0  0  0  0  0  0  0
   25.6596  -21.9373  -14.5427 C   0  0  0  0  0  0  0  0  0  0  0  0
   25.9570  -23.0960  -14.0607 O   0  0  0  0  0  0  0  0  0  0  0  0
   23.6030  -19.5282  -16.2205 O   0  0  0  0  0  0  0  0  0  0  0  0
   25.1452  -21.0383  -13.5881 N   0  0  0  0  0  0  0  0  0  0  0  0
   25.0627  -21.3969  -12.1785 C   0  0  1  0  0  0  0  0  0  0  0  0
   26.3660  -21.3851  -11.4531 C   0  0  0  0  0  0  0  0  0  0  0  0
   26.3022  -20.7958  -10.0951 C   0  0  0  0  0  0  0  0  0  0  0  0
   25.2784  -20.1852   -9.4443 C   0  0  0  0  0  0  0  0  0  0  0  0
   25.6693  -19.7788   -8.2080 N   0  0  0  0  0  0  0  0  0  0  0  0
   26.9650  -20.1399   -8.0736 C   0  0  0  0  0  0  0  0  0  0  0  0
   27.8637  -19.9792   -7.0254 C   0  0  0  0  0  0  0  0  0  0  0  0
   29.1684  -20.4333   -7.1002 C   0  0  0  0  0  0  0  0  0  0  0  0
   29.5857  -21.0682   -8.2605 C   0  0  0  0  0  0  0  0  0  0  0  0
   28.6908  -21.2231   -9.2934 C   0  0  0  0  0  0  0  0  0  0  0  0
   27.3767  -20.7612   -9.2077 C   0  0  0  0  0  0  0  0  0  0  0  0
   24.1199  -20.5265  -11.4326 C   0  0  0  0  0  0  0  0  0  0  0  0
   23.6960  -19.4187  -11.8156 O   0  0  0  0  0  0  0  0  0  0  0  0
   23.7004  -21.0446  -10.1896 O   0  0  0  0  0  0  0  0  0  0  0  0
  2  1  1  6
  2  3  1  0
  3  4  1  0
  4 12  1  0
  4  5  2  0
  5  6  1  0
  7  8  2  0
  7  6  1  0
  9  8  1  0
 10  9  2  0
 11 10  1  0
 11 12  2  0
 12  7  1  0
 13 14  2  0
 13  2  1  0
 15 13  1  0
 16 15  1  0
 17 18  1  0
 16 17  1  6
 18 19  2  0
 20 16  1  0
 20 21  2  0
 22 18  1  0
 23 20  1  0
 24 25  1  1
 24 23  1  0
 25 26  1  0
 26 34  1  0
 26 27  2  0
 27 28  1  0
 29 28  1  0
 29 30  2  0
 31 30  1  0
 32 31  2  0
 33 34  2  0
 33 32  1  0
 34 29  1  0
 35 24  1  0
 36 35  2  0
 37 35  1  0
M  END
$$$$
