WDW.pdb
     RDKit          3D

 37 40  0  0  1  0  0  0  0  0999 V2000
   20.1407  -22.6480  -12.8220 N   0  0  0  0  0  0  0  0  0  0  0  0
   20.8618  -21.4319  -12.6603 C   0  0  1  0  0  0  0  0  0  0  0  0
   20.8515  -20.9849  -11.2432 C   0  0  0  0  0  0  0  0  0  0  0  0
   19.5640  -20.8078  -10.5960 C   0  0  0  0  0  0  0  0  0  0  0  0
   18.8549  -21.5988   -9.7640 C   0  0  0  0  0  0  0  0  0  0  0  0
   17.6753  -20.9809   -9.4539 N   0  0  0  0  0  0  0  0  0  0  0  0
   17.6435  -19.7906  -10.0990 C   0  0  0  0  0  0  0  0  0  0  0  0
   16.6879  -18.7811  -10.1392 C   0  0  0  0  0  0  0  0  0  0  0  0
   16.8598  -17.6394  -10.8763 C   0  0  0  0  0  0  0  0  0  0  0  0
   18.0373  -17.4959  -11.6062 C   0  0  0  0  0  0  0  0  0  0  0  0
   18.9884  -18.5149  -11.5572 C   0  0  0  0  0  0  0  0  0  0  0  0
   18.7938  -19.6517  -10.8122 C   0  0  0  0  0  0  0  0  0  0  0  0
   22.0849  -21.2511  -13.4221 C   0  0  0  0  0  0  0  0  0  0  0  0
   22.8868  -22.2429  -13.5346 O   0  0  0  0  0  0  0  0  0  0  0  0
   22.5347  -20.0715  -14.0810 N   0  0  0  0  0  0  0  0  0  0  0  0
   23.7740  -19.9576  -14.8056 C   0  0  1  0  0  0  0  0  0  0  0  0
   23.7610  -18.7764  -15.7463 C   0  0  0  0  0  0  0  0  0  0  0  0
   24.9223  -18.8579  -16.6491 C   0  0  0  0  0  0  0  0  0  0  0  0
   25.5576  -19.9593  -16.7127 O   0  0  0  0  0  0  0  0  0  0  0  0
   24.9991  -19.9564  -14.0343 C   0  0  0  0  0  0  0  0  0  0  0  0
   25.3040  -18.8186  -13.5091 O   0  0  0  0  0  0  0  0  0  0  0  0
   25.3863  -17.8163  -17.4478 O   0  0  0  0  0  0  0  0  0  0  0  0
   25.9237  -20.9805  -13.7513 N   0  0  0  0  0  0  0  0  0  0  0  0
   27.2124  -20.6881  -13.1380 C   0  0  1  0  0  0  0  0  0  0  0  0
   27.4914  -21.4404  -11.8806 C   0  0  0  0  0  0  0  0  0  0  0  0
   26.7763  -20.9240  -10.6900 C   0  0  0  0  0  0  0  0  0  0  0  0
   25.5232  -20.4155  -10.5639 C   0  0  0  0  0  0  0  0  0  0  0  0
   25.2821  -20.0451   -9.2790 N   0  0  0  0  0  0  0  0  0  0  0  0
   26.4037  -20.3253   -8.5784 C   0  0  0  0  0  0  0  0  0  0  0  0
   26.7189  -20.1568   -7.2352 C   0  0  0  0  0  0  0  0  0  0  0  0
   27.9502  -20.5188   -6.7185 C   0  0  0  0  0  0  0  0  0  0  0  0
   28.8947  -21.0668   -7.5735 C   0  0  0  0  0  0  0  0  0  0  0  0
   28.5755  -21.2301   -8.9014 C   0  0  0  0  0  0  0  0  0  0  0  0
   27.3304  -20.8614   -9.4125 C   0  0  0  0  0  0  0  0  0  0  0  0
   28.3434  -20.9249  -14.0694 C   0  0  0  0  0  0  0  0  0  0  0  0
   28.2493  -21.3834  -15.2247 O   0  0  0  0  0  0  0  0  0  0  0  0
   29.6112  -20.5866  -13.5520 O   0  0  0  0  0  0  0  0  0  0  0  0
  2  1  1  1
  2  3  1  0
  3  4  1  0
  4 12  1  0
  4  5  2  0
  5  6  1  0
  7  8  2  0
  7  6  1  0
  9  8  1  0
 10  9  2  0
 11 10  1  0
 11 12  2  0
 12  7  1  0
 13 14  2  0
 13  2  1  0
 15 13  1  0
 16 15  1  0
 17 18  1  0
 16 17  1  1
 18 19  2  0
 20 16  1  0
 20 21  2  0
 22 18  1  0
 23 20  1  0
 24 25  1  1
 24 23  1  0
 25 26  1  0
 26 34  1  0
 26 27  2  0
 27 28  1  0
 29 28  1  0
 29 30  2  0
 31 30  1  0
 32 31  2  0
 33 34  2  0
 33 32  1  0
 34 29  1  0
 35 24  1  0
 36 35  2  0
 37 35  1  0
M  END
$$$$
