WDW.pdb
     RDKit          3D

 37 40  0  0  1  0  0  0  0  0999 V2000
   28.0232  -22.6182  -12.2751 N   0  0  0  0  0  0  0  0  0  0  0  0
   26.9460  -21.7336  -11.9882 C   0  0  1  0  0  0  0  0  0  0  0  0
   27.4435  -20.4203  -11.5024 C   0  0  0  0  0  0  0  0  0  0  0  0
   28.4103  -20.4184  -10.4194 C   0  0  0  0  0  0  0  0  0  0  0  0
   29.7553  -20.5259  -10.4092 C   0  0  0  0  0  0  0  0  0  0  0  0
   30.1982  -20.4972   -9.1159 N   0  0  0  0  0  0  0  0  0  0  0  0
   29.1197  -20.3717   -8.3064 C   0  0  0  0  0  0  0  0  0  0  0  0
   29.0001  -20.3003   -6.9228 C   0  0  0  0  0  0  0  0  0  0  0  0
   27.7871  -20.1781   -6.2983 C   0  0  0  0  0  0  0  0  0  0  0  0
   26.6408  -20.1237   -7.0874 C   0  0  0  0  0  0  0  0  0  0  0  0
   26.7738  -20.1955   -8.4740 C   0  0  0  0  0  0  0  0  0  0  0  0
   28.0005  -20.3194   -9.0783 C   0  0  0  0  0  0  0  0  0  0  0  0
   25.7960  -21.7400  -12.8751 C   0  0  0  0  0  0  0  0  0  0  0  0
   25.9986  -21.6968  -14.1386 O   0  0  0  0  0  0  0  0  0  0  0  0
   24.4187  -21.7821  -12.5156 N   0  0  0  0  0  0  0  0  0  0  0  0
   23.3241  -21.7177  -13.4492 C   0  0  1  0  0  0  0  0  0  0  0  0
   22.4189  -22.9201  -13.3278 C   0  0  0  0  0  0  0  0  0  0  0  0
   21.3511  -22.8321  -14.3390 C   0  0  0  0  0  0  0  0  0  0  0  0
   21.3579  -21.8383  -15.1348 O   0  0  0  0  0  0  0  0  0  0  0  0
   22.5312  -20.5066  -13.4635 C   0  0  0  0  0  0  0  0  0  0  0  0
   21.8853  -20.2726  -12.3721 O   0  0  0  0  0  0  0  0  0  0  0  0
   20.3238  -23.7582  -14.4969 O   0  0  0  0  0  0  0  0  0  0  0  0
   22.3371  -19.5309  -14.4606 N   0  0  0  0  0  0  0  0  0  0  0  0
   21.4722  -18.3805  -14.2353 C   0  0  1  0  0  0  0  0  0  0  0  0
   21.5485  -17.3255  -15.2869 C   0  0  0  0  0  0  0  0  0  0  0  0
   21.2398  -17.8048  -16.6546 C   0  0  0  0  0  0  0  0  0  0  0  0
   20.0590  -17.8687  -17.3226 C   0  0  0  0  0  0  0  0  0  0  0  0
   20.2363  -18.3962  -18.5623 N   0  0  0  0  0  0  0  0  0  0  0  0
   21.5546  -18.6705  -18.6813 C   0  0  0  0  0  0  0  0  0  0  0  0
   22.2932  -19.2155  -19.7251 C   0  0  0  0  0  0  0  0  0  0  0  0
   23.6594  -19.4135  -19.6333 C   0  0  0  0  0  0  0  0  0  0  0  0
   24.3057  -19.0543  -18.4600 C   0  0  0  0  0  0  0  0  0  0  0  0
   23.5680  -18.5160  -17.4315 C   0  0  0  0  0  0  0  0  0  0  0  0
   22.1901  -18.3205  -17.5343 C   0  0  0  0  0  0  0  0  0  0  0  0
   20.0479  -18.7705  -14.0857 C   0  0  0  0  0  0  0  0  0  0  0  0
   19.5540  -19.8626  -14.4275 O   0  0  0  0  0  0  0  0  0  0  0  0
   19.2267  -17.7830  -13.5026 O   0  0  0  0  0  0  0  0  0  0  0  0
  2  1  1  6
  2  3  1  0
  3  4  1  0
  4 12  1  0
  4  5  2  0
  5  6  1  0
  7  8  2  0
  7  6  1  0
  9  8  1  0
 10  9  2  0
 11 10  1  0
 11 12  2  0
 12  7  1  0
 13 14  2  0
 13  2  1  0
 15 13  1  0
 16 15  1  0
 17 18  1  0
 16 17  1  1
 18 19  2  0
 20 16  1  0
 20 21  2  0
 22 18  1  0
 23 20  1  0
 24 25  1  6
 24 23  1  0
 25 26  1  0
 26 34  1  0
 26 27  2  0
 27 28  1  0
 29 28  1  0
 29 30  2  0
 31 30  1  0
 32 31  2  0
 33 34  2  0
 33 32  1  0
 34 29  1  0
 35 24  1  0
 36 35  2  0
 37 35  1  0
M  END
$$$$
