WDW.pdb
     RDKit          3D

 37 40  0  0  1  0  0  0  0  0999 V2000
   25.1526  -20.7215  -15.1197 N   0  0  0  0  0  0  0  0  0  0  0  0
   26.5089  -20.5380  -15.5094 C   0  0  1  0  0  0  0  0  0  0  0  0
   27.4407  -21.0363  -14.4646 C   0  0  0  0  0  0  0  0  0  0  0  0
   27.1012  -20.7849  -13.0756 C   0  0  0  0  0  0  0  0  0  0  0  0
   26.8016  -21.6146  -12.0546 C   0  0  0  0  0  0  0  0  0  0  0  0
   26.5241  -20.8729  -10.9399 N   0  0  0  0  0  0  0  0  0  0  0  0
   26.6496  -19.5643  -11.2655 C   0  0  0  0  0  0  0  0  0  0  0  0
   26.4775  -18.4016  -10.5223 C   0  0  0  0  0  0  0  0  0  0  0  0
   26.6537  -17.1551  -11.0621 C   0  0  0  0  0  0  0  0  0  0  0  0
   27.0188  -17.0619  -12.4030 C   0  0  0  0  0  0  0  0  0  0  0  0
   27.1891  -18.2352  -13.1376 C   0  0  0  0  0  0  0  0  0  0  0  0
   27.0055  -19.4744  -12.5756 C   0  0  0  0  0  0  0  0  0  0  0  0
   26.8616  -20.7643  -16.8999 C   0  0  0  0  0  0  0  0  0  0  0  0
   27.9901  -21.3090  -17.1631 O   0  0  0  0  0  0  0  0  0  0  0  0
   26.0955  -20.4432  -18.0565 N   0  0  0  0  0  0  0  0  0  0  0  0
   24.7213  -20.0127  -18.0378 C   0  0  1  0  0  0  0  0  0  0  0  0
   24.2991  -19.4440  -19.3713 C   0  0  0  0  0  0  0  0  0  0  0  0
   25.3169  -18.4871  -19.8389 C   0  0  0  0  0  0  0  0  0  0  0  0
   25.3647  -17.3421  -19.2842 O   0  0  0  0  0  0  0  0  0  0  0  0
   23.7320  -20.9626  -17.5746 C   0  0  0  0  0  0  0  0  0  0  0  0
   23.9246  -22.1759  -17.9673 O   0  0  0  0  0  0  0  0  0  0  0  0
   26.2416  -18.7364  -20.8493 O   0  0  0  0  0  0  0  0  0  0  0  0
   22.5899  -20.8001  -16.7665 N   0  0  0  0  0  0  0  0  0  0  0  0
   22.3308  -21.6824  -15.6366 C   0  0  1  0  0  0  0  0  0  0  0  0
   23.5507  -22.1585  -14.9226 C   0  0  0  0  0  0  0  0  0  0  0  0
   23.6813  -21.6534  -13.5357 C   0  0  0  0  0  0  0  0  0  0  0  0
   22.7411  -21.1892  -12.6725 C   0  0  0  0  0  0  0  0  0  0  0  0
   23.3115  -20.8115  -11.4985 N   0  0  0  0  0  0  0  0  0  0  0  0
   24.6379  -21.0418  -11.6207 C   0  0  0  0  0  0  0  0  0  0  0  0
   25.6938  -20.8450  -10.7385 C   0  0  0  0  0  0  0  0  0  0  0  0
   26.9995  -21.1554  -11.0746 C   0  0  0  0  0  0  0  0  0  0  0  0
   27.2553  -21.6795  -12.3328 C   0  0  0  0  0  0  0  0  0  0  0  0
   26.2053  -21.8712  -13.2004 C   0  0  0  0  0  0  0  0  0  0  0  0
   24.8917  -21.5545  -12.8514 C   0  0  0  0  0  0  0  0  0  0  0  0
   21.4314  -21.0598  -14.6334 C   0  0  0  0  0  0  0  0  0  0  0  0
   20.7359  -21.6738  -13.8010 O   0  0  0  0  0  0  0  0  0  0  0  0
   21.3975  -19.6501  -14.6697 O   0  0  0  0  0  0  0  0  0  0  0  0
  2  1  1  1
  2  3  1  0
  3  4  1  0
  4 12  1  0
  4  5  2  0
  5  6  1  0
  7  8  2  0
  7  6  1  0
  9  8  1  0
 10  9  2  0
 11 10  1  0
 11 12  2  0
 12  7  1  0
 13 14  2  0
 13  2  1  0
 15 13  1  0
 16 15  1  0
 17 18  1  0
 16 17  1  6
 18 19  2  0
 20 16  1  0
 20 21  2  0
 22 18  1  0
 23 20  1  0
 24 25  1  1
 24 23  1  0
 25 26  1  0
 26 34  1  0
 26 27  2  0
 27 28  1  0
 29 28  1  0
 29 30  2  0
 31 30  1  0
 32 31  2  0
 33 34  2  0
 33 32  1  0
 34 29  1  0
 35 24  1  0
 36 35  2  0
 37 35  1  0
M  END
$$$$
