WDW.pdb
     RDKit          3D

 37 40  0  0  1  0  0  0  0  0999 V2000
   26.6660  -22.7275  -13.5807 N   0  0  0  0  0  0  0  0  0  0  0  0
   25.6486  -21.8371  -13.1367 C   0  0  1  0  0  0  0  0  0  0  0  0
   26.2195  -20.5249  -12.7363 C   0  0  0  0  0  0  0  0  0  0  0  0
   27.3564  -20.5257  -11.8333 C   0  0  0  0  0  0  0  0  0  0  0  0
   28.6838  -20.4222  -12.0523 C   0  0  0  0  0  0  0  0  0  0  0  0
   29.3439  -20.5084  -10.8580 N   0  0  0  0  0  0  0  0  0  0  0  0
   28.4211  -20.6690   -9.8798 C   0  0  0  0  0  0  0  0  0  0  0  0
   28.5434  -20.8140   -8.5022 C   0  0  0  0  0  0  0  0  0  0  0  0
   27.4566  -20.9725   -7.6836 C   0  0  0  0  0  0  0  0  0  0  0  0
   26.1901  -20.9864   -8.2630 C   0  0  0  0  0  0  0  0  0  0  0  0
   26.0805  -20.8392   -9.6456 C   0  0  0  0  0  0  0  0  0  0  0  0
   27.1844  -20.6831  -10.4470 C   0  0  0  0  0  0  0  0  0  0  0  0
   24.3773  -21.8405  -13.8388 C   0  0  0  0  0  0  0  0  0  0  0  0
   24.3862  -21.8107  -15.1188 O   0  0  0  0  0  0  0  0  0  0  0  0
   23.0702  -21.8660  -13.2742 N   0  0  0  0  0  0  0  0  0  0  0  0
   21.8615  -22.1244  -14.0132 C   0  0  1  0  0  0  0  0  0  0  0  0
   20.7371  -22.5599  -13.1043 C   0  0  0  0  0  0  0  0  0  0  0  0
   20.2704  -21.4057  -12.3167 C   0  0  0  0  0  0  0  0  0  0  0  0
   20.6301  -21.3250  -11.0981 O   0  0  0  0  0  0  0  0  0  0  0  0
   21.3940  -21.0879  -14.9091 C   0  0  0  0  0  0  0  0  0  0  0  0
   22.0264  -19.9679  -14.8140 O   0  0  0  0  0  0  0  0  0  0  0  0
   19.4590  -20.3842  -12.8027 O   0  0  0  0  0  0  0  0  0  0  0  0
   20.3670  -21.0820  -15.8730 N   0  0  0  0  0  0  0  0  0  0  0  0
   20.3150  -20.0673  -16.9170 C   0  0  1  0  0  0  0  0  0  0  0  0
   21.5337  -19.9887  -17.7735 C   0  0  0  0  0  0  0  0  0  0  0  0
   21.5490  -18.8384  -18.7075 C   0  0  0  0  0  0  0  0  0  0  0  0
   22.0518  -17.5857  -18.5578 C   0  0  0  0  0  0  0  0  0  0  0  0
   21.8298  -16.8424  -19.6734 N   0  0  0  0  0  0  0  0  0  0  0  0
   21.1748  -17.6403  -20.5461 C   0  0  0  0  0  0  0  0  0  0  0  0
   20.7013  -17.4083  -21.8322 C   0  0  0  0  0  0  0  0  0  0  0  0
   20.0459  -18.3846  -22.5611 C   0  0  0  0  0  0  0  0  0  0  0  0
   19.8593  -19.6319  -21.9841 C   0  0  0  0  0  0  0  0  0  0  0  0
   20.3303  -19.8538  -20.7111 C   0  0  0  0  0  0  0  0  0  0  0  0
   20.9901  -18.8619  -19.9843 C   0  0  0  0  0  0  0  0  0  0  0  0
   19.1426  -20.2412  -17.8103 C   0  0  0  0  0  0  0  0  0  0  0  0
   18.8232  -21.2959  -18.3928 O   0  0  0  0  0  0  0  0  0  0  0  0
   18.3573  -19.0821  -17.9812 O   0  0  0  0  0  0  0  0  0  0  0  0
  2  1  1  6
  2  3  1  0
  3  4  1  0
  4 12  1  0
  4  5  2  0
  5  6  1  0
  7  8  2  0
  7  6  1  0
  9  8  1  0
 10  9  2  0
 11 10  1  0
 11 12  2  0
 12  7  1  0
 13 14  2  0
 13  2  1  0
 15 13  1  0
 16 15  1  0
 17 18  1  0
 16 17  1  1
 18 19  2  0
 20 16  1  0
 20 21  2  0
 22 18  1  0
 23 20  1  0
 24 25  1  6
 24 23  1  0
 25 26  1  0
 26 34  1  0
 26 27  2  0
 27 28  1  0
 29 28  1  0
 29 30  2  0
 31 30  1  0
 32 31  2  0
 33 34  2  0
 33 32  1  0
 34 29  1  0
 35 24  1  0
 36 35  2  0
 37 35  1  0
M  END
$$$$
