WDW.pdb
     RDKit          3D

 37 40  0  0  1  0  0  0  0  0999 V2000
   28.3946  -21.9380  -10.5968 N   0  0  0  0  0  0  0  0  0  0  0  0
   27.2837  -21.1559  -10.1731 C   0  0  1  0  0  0  0  0  0  0  0  0
   27.6967  -20.1265   -9.1843 C   0  0  0  0  0  0  0  0  0  0  0  0
   28.6605  -20.5086   -8.1679 C   0  0  0  0  0  0  0  0  0  0  0  0
   29.8624  -21.1169   -8.2461 C   0  0  0  0  0  0  0  0  0  0  0  0
   30.3660  -21.2797   -6.9853 N   0  0  0  0  0  0  0  0  0  0  0  0
   29.4701  -20.7694   -6.1072 C   0  0  0  0  0  0  0  0  0  0  0  0
   29.4765  -20.6815   -4.7193 C   0  0  0  0  0  0  0  0  0  0  0  0
   28.4432  -20.1202   -4.0168 C   0  0  0  0  0  0  0  0  0  0  0  0
   27.3541  -19.6231   -4.7285 C   0  0  0  0  0  0  0  0  0  0  0  0
   27.3599  -19.7164   -6.1201 C   0  0  0  0  0  0  0  0  0  0  0  0
   28.4065  -20.2847   -6.8034 C   0  0  0  0  0  0  0  0  0  0  0  0
   26.2845  -20.7887  -11.1609 C   0  0  0  0  0  0  0  0  0  0  0  0
   26.6806  -20.3542  -12.2983 O   0  0  0  0  0  0  0  0  0  0  0  0
   24.8676  -20.8413  -11.0282 N   0  0  0  0  0  0  0  0  0  0  0  0
   23.9454  -20.9924  -12.1239 C   0  0  1  0  0  0  0  0  0  0  0  0
   24.3538  -22.1193  -13.0424 C   0  0  0  0  0  0  0  0  0  0  0  0
   23.4704  -22.1333  -14.2213 C   0  0  0  0  0  0  0  0  0  0  0  0
   22.9937  -23.2510  -14.6014 O   0  0  0  0  0  0  0  0  0  0  0  0
   22.5393  -21.1093  -11.8000 C   0  0  0  0  0  0  0  0  0  0  0  0
   21.9335  -22.0912  -12.3762 O   0  0  0  0  0  0  0  0  0  0  0  0
   23.1102  -21.0107  -14.9616 O   0  0  0  0  0  0  0  0  0  0  0  0
   21.7083  -20.3397  -10.9628 N   0  0  0  0  0  0  0  0  0  0  0  0
   20.7371  -19.4041  -11.5140 C   0  0  1  0  0  0  0  0  0  0  0  0
   21.3296  -18.2384  -12.2316 C   0  0  0  0  0  0  0  0  0  0  0  0
   20.9240  -18.1269  -13.6524 C   0  0  0  0  0  0  0  0  0  0  0  0
   19.6902  -18.1057  -14.2196 C   0  0  0  0  0  0  0  0  0  0  0  0
   19.7846  -18.0055  -15.5715 N   0  0  0  0  0  0  0  0  0  0  0  0
   21.1034  -17.9617  -15.8652 C   0  0  0  0  0  0  0  0  0  0  0  0
   21.7759  -17.8614  -17.0775 C   0  0  0  0  0  0  0  0  0  0  0  0
   23.1571  -17.8326  -17.1512 C   0  0  0  0  0  0  0  0  0  0  0  0
   23.8872  -17.9062  -15.9743 C   0  0  0  0  0  0  0  0  0  0  0  0
   23.2146  -18.0056  -14.7787 C   0  0  0  0  0  0  0  0  0  0  0  0
   21.8208  -18.0339  -14.7154 C   0  0  0  0  0  0  0  0  0  0  0  0
   19.7809  -20.0666  -12.4358 C   0  0  0  0  0  0  0  0  0  0  0  0
   20.0760  -20.9072  -13.3075 O   0  0  0  0  0  0  0  0  0  0  0  0
   18.4365  -19.6737  -12.2693 O   0  0  0  0  0  0  0  0  0  0  0  0
  2  1  1  6
  2  3  1  0
  3  4  1  0
  4 12  1  0
  4  5  2  0
  5  6  1  0
  7  8  2  0
  7  6  1  0
  9  8  1  0
 10  9  2  0
 11 10  1  0
 11 12  2  0
 12  7  1  0
 13 14  2  0
 13  2  1  0
 15 13  1  0
 16 15  1  0
 17 18  1  0
 16 17  1  1
 18 19  2  0
 20 16  1  0
 20 21  2  0
 22 18  1  0
 23 20  1  0
 24 25  1  6
 24 23  1  0
 25 26  1  0
 26 34  1  0
 26 27  2  0
 27 28  1  0
 29 28  1  0
 29 30  2  0
 31 30  1  0
 32 31  2  0
 33 34  2  0
 33 32  1  0
 34 29  1  0
 35 24  1  0
 36 35  2  0
 37 35  1  0
M  END
$$$$
