WDW.pdb
     RDKit          3D

 37 40  0  0  1  0  0  0  0  0999 V2000
   29.6812  -21.3699  -18.4158 N   0  0  0  0  0  0  0  0  0  0  0  0
   28.8199  -22.1288  -17.5749 C   0  0  1  0  0  0  0  0  0  0  0  0
   29.2378  -23.5538  -17.5228 C   0  0  0  0  0  0  0  0  0  0  0  0
   29.4190  -24.2551  -18.7811 C   0  0  0  0  0  0  0  0  0  0  0  0
   30.4874  -24.8754  -19.3237 C   0  0  0  0  0  0  0  0  0  0  0  0
   30.1471  -25.3602  -20.5560 N   0  0  0  0  0  0  0  0  0  0  0  0
   28.8521  -25.0396  -20.7894 C   0  0  0  0  0  0  0  0  0  0  0  0
   28.0169  -25.2798  -21.8750 C   0  0  0  0  0  0  0  0  0  0  0  0
   26.7156  -24.8530  -21.9058 C   0  0  0  0  0  0  0  0  0  0  0  0
   26.2232  -24.1559  -20.8052 C   0  0  0  0  0  0  0  0  0  0  0  0
   27.0705  -23.9219  -19.7223 C   0  0  0  0  0  0  0  0  0  0  0  0
   28.3724  -24.3580  -19.7140 C   0  0  0  0  0  0  0  0  0  0  0  0
   28.3395  -21.5152  -16.3494 C   0  0  0  0  0  0  0  0  0  0  0  0
   29.1992  -21.0742  -15.5092 O   0  0  0  0  0  0  0  0  0  0  0  0
   26.9886  -21.3370  -15.9356 N   0  0  0  0  0  0  0  0  0  0  0  0
   26.5710  -20.5216  -14.8244 C   0  0  1  0  0  0  0  0  0  0  0  0
   25.4893  -19.5476  -15.2257 C   0  0  0  0  0  0  0  0  0  0  0  0
   24.2727  -20.2926  -15.5936 C   0  0  0  0  0  0  0  0  0  0  0  0
   24.2161  -20.8155  -16.7531 O   0  0  0  0  0  0  0  0  0  0  0  0
   26.1899  -21.2022  -13.6048 C   0  0  0  0  0  0  0  0  0  0  0  0
   25.7683  -22.4097  -13.7708 O   0  0  0  0  0  0  0  0  0  0  0  0
   23.1676  -20.4737  -14.7666 O   0  0  0  0  0  0  0  0  0  0  0  0
   26.1972  -20.7811  -12.2608 N   0  0  0  0  0  0  0  0  0  0  0  0
   25.7417  -21.6584  -11.1906 C   0  0  1  0  0  0  0  0  0  0  0  0
   26.7195  -21.8503  -10.0807 C   0  0  0  0  0  0  0  0  0  0  0  0
   26.7904  -20.7175   -9.1282 C   0  0  0  0  0  0  0  0  0  0  0  0
   26.0412  -19.5880   -9.0417 C   0  0  0  0  0  0  0  0  0  0  0  0
   26.4668  -18.8067   -8.0147 N   0  0  0  0  0  0  0  0  0  0  0  0
   27.5046  -19.4545   -7.4397 C   0  0  0  0  0  0  0  0  0  0  0  0
   28.3140  -19.1242   -6.3591 C   0  0  0  0  0  0  0  0  0  0  0  0
   29.3393  -19.9482   -5.9303 C   0  0  0  0  0  0  0  0  0  0  0  0
   29.5604  -21.1399   -6.6044 C   0  0  0  0  0  0  0  0  0  0  0  0
   28.7555  -21.4596   -7.6729 C   0  0  0  0  0  0  0  0  0  0  0  0
   27.7239  -20.6212   -8.0975 C   0  0  0  0  0  0  0  0  0  0  0  0
   24.4627  -21.1984  -10.5946 C   0  0  0  0  0  0  0  0  0  0  0  0
   23.7888  -21.8213   -9.7510 O   0  0  0  0  0  0  0  0  0  0  0  0
   24.0161  -19.9435  -11.0584 O   0  0  0  0  0  0  0  0  0  0  0  0
  2  1  1  1
  2  3  1  0
  3  4  1  0
  4 12  1  0
  4  5  2  0
  5  6  1  0
  7  8  2  0
  7  6  1  0
  9  8  1  0
 10  9  2  0
 11 10  1  0
 11 12  2  0
 12  7  1  0
 13 14  2  0
 13  2  1  0
 15 13  1  0
 16 15  1  0
 17 18  1  0
 16 17  1  6
 18 19  2  0
 20 16  1  0
 20 21  2  0
 22 18  1  0
 23 20  1  0
 24 25  1  1
 24 23  1  0
 25 26  1  0
 26 34  1  0
 26 27  2  0
 27 28  1  0
 29 28  1  0
 29 30  2  0
 31 30  1  0
 32 31  2  0
 33 34  2  0
 33 32  1  0
 34 29  1  0
 35 24  1  0
 36 35  2  0
 37 35  1  0
M  END
$$$$
