WDW.pdb
     RDKit          3D

 37 40  0  0  1  0  0  0  0  0999 V2000
   21.4273  -15.3589    9.3877 N   0  0  0  0  0  0  0  0  0  0  0  0
   20.7876  -16.2709    8.5022 C   0  0  1  0  0  0  0  0  0  0  0  0
   21.2076  -16.0391    7.0958 C   0  0  0  0  0  0  0  0  0  0  0  0
   21.0119  -14.7130    6.5381 C   0  0  0  0  0  0  0  0  0  0  0  0
   21.6312  -13.5363    6.7674 C   0  0  0  0  0  0  0  0  0  0  0  0
   21.0488  -12.5655    6.0006 N   0  0  0  0  0  0  0  0  0  0  0  0
   20.0530  -13.1390    5.2838 C   0  0  0  0  0  0  0  0  0  0  0  0
   19.1499  -12.6159    4.3648 C   0  0  0  0  0  0  0  0  0  0  0  0
   18.2016  -13.3890    3.7491 C   0  0  0  0  0  0  0  0  0  0  0  0
   18.1504  -14.7452    4.0621 C   0  0  0  0  0  0  0  0  0  0  0  0
   19.0619  -15.2581    4.9847 C   0  0  0  0  0  0  0  0  0  0  0  0
   20.0035  -14.4636    5.5909 C   0  0  0  0  0  0  0  0  0  0  0  0
   20.6069  -17.6434    8.9411 C   0  0  0  0  0  0  0  0  0  0  0  0
   21.6435  -18.3823    9.0788 O   0  0  0  0  0  0  0  0  0  0  0  0
   19.3842  -18.3076    9.2440 N   0  0  0  0  0  0  0  0  0  0  0  0
   19.2596  -19.7174    9.5101 C   0  0  1  0  0  0  0  0  0  0  0  0
   18.3643  -19.9818   10.6969 C   0  0  0  0  0  0  0  0  0  0  0  0
   18.9805  -19.4158   11.9095 C   0  0  0  0  0  0  0  0  0  0  0  0
   20.2230  -19.6161   12.1015 O   0  0  0  0  0  0  0  0  0  0  0  0
   18.8759  -20.5723    8.4066 C   0  0  0  0  0  0  0  0  0  0  0  0
   17.9769  -20.0749    7.6270 O   0  0  0  0  0  0  0  0  0  0  0  0
   18.3065  -18.6709   12.8733 O   0  0  0  0  0  0  0  0  0  0  0  0
   19.3107  -21.8573    8.0277 N   0  0  0  0  0  0  0  0  0  0  0  0
   18.7107  -22.5568    6.8994 C   0  0  1  0  0  0  0  0  0  0  0  0
   19.1717  -22.0923    5.5591 C   0  0  0  0  0  0  0  0  0  0  0  0
   18.5003  -22.7590    4.4188 C   0  0  0  0  0  0  0  0  0  0  0  0
   17.1939  -22.7716    4.0476 C   0  0  0  0  0  0  0  0  0  0  0  0
   17.0178  -23.5320    2.9353 N   0  0  0  0  0  0  0  0  0  0  0  0
   18.2362  -24.0090    2.5956 C   0  0  0  0  0  0  0  0  0  0  0  0
   18.6473  -24.8318    1.5535 C   0  0  0  0  0  0  0  0  0  0  0  0
   19.9697  -25.2038    1.3891 C   0  0  0  0  0  0  0  0  0  0  0  0
   20.9092  -24.7370    2.2961 C   0  0  0  0  0  0  0  0  0  0  0  0
   20.4946  -23.9236    3.3249 C   0  0  0  0  0  0  0  0  0  0  0  0
   19.1580  -23.5543    3.4818 C   0  0  0  0  0  0  0  0  0  0  0  0
   18.9256  -24.0236    6.9703 C   0  0  0  0  0  0  0  0  0  0  0  0
   19.8038  -24.5975    7.6434 O   0  0  0  0  0  0  0  0  0  0  0  0
   18.0330  -24.7866    6.1888 O   0  0  0  0  0  0  0  0  0  0  0  0
  2  1  1  1
  2  3  1  0
  3  4  1  0
  4 12  1  0
  4  5  2  0
  5  6  1  0
  7  8  2  0
  7  6  1  0
  9  8  1  0
 10  9  2  0
 11 10  1  0
 11 12  2  0
 12  7  1  0
 13 14  2  0
 13  2  1  0
 15 13  1  0
 16 15  1  0
 17 18  1  0
 16 17  1  1
 18 19  2  0
 20 16  1  0
 20 21  2  0
 22 18  1  0
 23 20  1  0
 24 25  1  6
 24 23  1  0
 25 26  1  0
 26 34  1  0
 26 27  2  0
 27 28  1  0
 29 28  1  0
 29 30  2  0
 31 30  1  0
 32 31  2  0
 33 34  2  0
 33 32  1  0
 34 29  1  0
 35 24  1  0
 36 35  2  0
 37 35  1  0
M  END
$$$$
