AEL.pdb
     RDKit          3D

 23 22  0  0  1  0  0  0  0  0999 V2000
    7.1609  -12.8984   19.0142 C   0  0  0  0  0  0  0  0  0  0  0  0
    8.5088  -13.2212   19.6321 C   0  0  2  0  0  0  0  0  0  0  0  0
    9.3990  -13.8164   18.6814 N   0  0  0  0  0  0  0  0  0  0  0  0
    8.2662  -14.1024   20.8104 C   0  0  0  0  0  0  0  0  0  0  0  0
    7.1978  -14.0044   21.4671 O   0  0  0  0  0  0  0  0  0  0  0  0
    9.2033  -15.0789   21.2489 N   0  0  0  0  0  0  0  0  0  0  0  0
    8.8991  -16.0879   22.2378 C   0  0  1  0  0  0  0  0  0  0  0  0
    9.6368  -17.3798   21.9959 C   0  0  0  0  0  0  0  0  0  0  0  0
    9.0903  -18.1701   20.8513 C   0  0  0  0  0  0  0  0  0  0  0  0
    9.9110  -19.4023   20.7150 C   0  0  0  0  0  0  0  0  0  0  0  0
    9.6805  -20.2708   19.8217 O   0  0  0  0  0  0  0  0  0  0  0  0
    9.2578  -15.5320   23.5683 C   0  0  0  0  0  0  0  0  0  0  0  0
   10.4111  -15.0714   23.8222 O   0  0  0  0  0  0  0  0  0  0  0  0
   10.9886  -19.6812   21.5629 O   0  0  0  0  0  0  0  0  0  0  0  0
    5.7997  -12.4214   26.4332 C   0  0  0  0  0  0  0  0  0  0  0  0
    7.0730  -12.9645   25.8486 C   0  0  1  0  0  0  0  0  0  0  0  0
    8.0927  -11.8340   25.8562 C   0  0  0  0  0  0  0  0  0  0  0  0
    7.5486  -14.1620   26.5685 C   0  0  0  0  0  0  0  0  0  0  0  0
    8.6227  -14.9529   25.9320 C   0  0  2  0  0  0  0  0  0  0  0  0
    8.2964  -15.4911   24.6449 N   0  0  0  0  0  0  0  0  0  0  0  0
    9.0198  -16.1225   26.8015 C   0  0  0  0  0  0  0  0  0  0  0  0
    8.8990  -17.4102   26.3416 O   0  0  0  0  0  0  0  0  0  0  0  0
    9.4630  -15.9196   27.9513 O   0  0  0  0  0  0  0  0  0  0  0  0
  2  3  1  0
  2  1  1  6
  4  2  1  0
  4  5  2  0
  6  4  1  0
  7  6  1  0
  7 12  1  0
  7  8  1  6
  9 10  1  0
  9  8  1  0
 10 11  2  0
 12 13  2  0
 12 20  1  0
 14 10  1  0
 16 15  1  1
 16 17  1  0
 18 16  1  0
 19 18  1  1
 20 19  1  0
 21 19  1  0
 21 22  1  0
 23 21  2  0
M  END
$$$$
