AEL.pdb
     RDKit          3D

 23 22  0  0  1  0  0  0  0  0999 V2000
    8.0725  -12.2541   19.4985 C   0  0  0  0  0  0  0  0  0  0  0  0
    8.1319  -13.7045   19.0560 C   0  0  2  0  0  0  0  0  0  0  0  0
    7.0138  -14.0537   18.2324 N   0  0  0  0  0  0  0  0  0  0  0  0
    8.2176  -14.5480   20.2828 C   0  0  0  0  0  0  0  0  0  0  0  0
    7.1736  -14.8678   20.9074 O   0  0  0  0  0  0  0  0  0  0  0  0
    9.4513  -15.0272   20.8044 N   0  0  0  0  0  0  0  0  0  0  0  0
    9.5431  -15.9546   21.9090 C   0  0  1  0  0  0  0  0  0  0  0  0
   10.7871  -16.8038   21.8531 C   0  0  0  0  0  0  0  0  0  0  0  0
   10.6346  -18.0247   21.0049 C   0  0  0  0  0  0  0  0  0  0  0  0
   11.9299  -18.7543   21.0192 C   0  0  0  0  0  0  0  0  0  0  0  0
   12.4046  -19.2654   22.0770 O   0  0  0  0  0  0  0  0  0  0  0  0
    9.5194  -15.1588   23.1636 C   0  0  0  0  0  0  0  0  0  0  0  0
    9.8362  -13.9319   23.1945 O   0  0  0  0  0  0  0  0  0  0  0  0
   12.7064  -18.9230   19.8675 O   0  0  0  0  0  0  0  0  0  0  0  0
    8.2049  -12.0004   26.8431 C   0  0  0  0  0  0  0  0  0  0  0  0
    7.3267  -13.1848   26.5533 C   0  0  1  0  0  0  0  0  0  0  0  0
    5.9023  -12.6672   26.4084 C   0  0  0  0  0  0  0  0  0  0  0  0
    7.7806  -13.9360   25.3667 C   0  0  0  0  0  0  0  0  0  0  0  0
    8.8245  -14.9617   25.5728 C   0  0  2  0  0  0  0  0  0  0  0  0
    9.1295  -15.7552   24.4195 N   0  0  0  0  0  0  0  0  0  0  0  0
    8.4273  -15.9244   26.6670 C   0  0  0  0  0  0  0  0  0  0  0  0
    8.1167  -17.2288   26.3736 O   0  0  0  0  0  0  0  0  0  0  0  0
    8.3799  -15.5329   27.8519 O   0  0  0  0  0  0  0  0  0  0  0  0
  2  3  1  0
  2  1  1  1
  4  2  1  0
  4  5  2  0
  6  4  1  0
  7  6  1  0
  7 12  1  0
  7  8  1  6
  9 10  1  0
  9  8  1  0
 10 11  2  0
 12 13  2  0
 12 20  1  0
 14 10  1  0
 16 15  1  6
 16 17  1  0
 18 16  1  0
 19 18  1  6
 20 19  1  0
 21 19  1  0
 21 22  1  0
 23 21  2  0
M  END
$$$$
