AEL.pdb
     RDKit          3D

 23 22  0  0  1  0  0  0  0  0999 V2000
    8.3580  -12.1146   19.9552 C   0  0  0  0  0  0  0  0  0  0  0  0
    8.4636  -13.5175   19.3864 C   0  0  2  0  0  0  0  0  0  0  0  0
    7.5053  -13.7413   18.3461 N   0  0  0  0  0  0  0  0  0  0  0  0
    8.3067  -14.4766   20.5175 C   0  0  0  0  0  0  0  0  0  0  0  0
    7.1623  -14.8663   20.8652 O   0  0  0  0  0  0  0  0  0  0  0  0
    9.4119  -14.9929   21.2496 N   0  0  0  0  0  0  0  0  0  0  0  0
    9.2976  -16.0578   22.2198 C   0  0  1  0  0  0  0  0  0  0  0  0
   10.3178  -17.1473   22.0098 C   0  0  0  0  0  0  0  0  0  0  0  0
   10.1007  -17.9300   20.7554 C   0  0  0  0  0  0  0  0  0  0  0  0
   11.1867  -18.9402   20.6547 C   0  0  0  0  0  0  0  0  0  0  0  0
   12.1738  -18.7938   19.8737 O   0  0  0  0  0  0  0  0  0  0  0  0
    9.4601  -15.4537   23.5676 C   0  0  0  0  0  0  0  0  0  0  0  0
   10.5220  -14.8579   23.9201 O   0  0  0  0  0  0  0  0  0  0  0  0
   11.1885  -20.1152   21.4144 O   0  0  0  0  0  0  0  0  0  0  0  0
    5.5769  -12.6337   26.3644 C   0  0  0  0  0  0  0  0  0  0  0  0
    6.8972  -13.0926   25.8126 C   0  0  1  0  0  0  0  0  0  0  0  0
    7.8884  -11.9531   26.0045 C   0  0  0  0  0  0  0  0  0  0  0  0
    7.3523  -14.3511   26.4349 C   0  0  0  0  0  0  0  0  0  0  0  0
    8.5603  -14.9881   25.8696 C   0  0  2  0  0  0  0  0  0  0  0  0
    8.4024  -15.5192   24.5483 N   0  0  0  0  0  0  0  0  0  0  0  0
    9.0269  -16.1299   26.7415 C   0  0  0  0  0  0  0  0  0  0  0  0
    9.7278  -15.8882   27.8967 O   0  0  0  0  0  0  0  0  0  0  0  0
    8.7743  -17.3074   26.4110 O   0  0  0  0  0  0  0  0  0  0  0  0
  2  3  1  0
  2  1  1  1
  4  2  1  0
  4  5  2  0
  6  4  1  0
  7  6  1  0
  7 12  1  0
  7  8  1  6
  9 10  1  0
  9  8  1  0
 10 11  2  0
 12 13  2  0
 12 20  1  0
 14 10  1  0
 16 15  1  1
 16 17  1  0
 18 16  1  0
 19 18  1  1
 20 19  1  0
 21 19  1  0
 21 22  1  0
 23 21  2  0
M  END
$$$$
