AEL.pdb
     RDKit          3D

 23 22  0  0  1  0  0  0  0  0999 V2000
    8.2002  -12.1324   19.9867 C   0  0  0  0  0  0  0  0  0  0  0  0
    8.2912  -13.5410   19.4294 C   0  0  2  0  0  0  0  0  0  0  0  0
    7.2742  -13.7917   18.4531 N   0  0  0  0  0  0  0  0  0  0  0  0
    8.2184  -14.4875   20.5796 C   0  0  0  0  0  0  0  0  0  0  0  0
    7.1043  -14.8104   21.0664 O   0  0  0  0  0  0  0  0  0  0  0  0
    9.3730  -15.0648   21.1774 N   0  0  0  0  0  0  0  0  0  0  0  0
    9.3157  -16.0566   22.2270 C   0  0  1  0  0  0  0  0  0  0  0  0
   10.2273  -17.2289   21.9693 C   0  0  0  0  0  0  0  0  0  0  0  0
    9.8476  -18.0216   20.7607 C   0  0  0  0  0  0  0  0  0  0  0  0
   10.8513  -19.1054   20.5924 C   0  0  0  0  0  0  0  0  0  0  0  0
   11.3911  -19.6843   21.5819 O   0  0  0  0  0  0  0  0  0  0  0  0
    9.6894  -15.3840   23.4981 C   0  0  0  0  0  0  0  0  0  0  0  0
   10.7360  -14.6775   23.6092 O   0  0  0  0  0  0  0  0  0  0  0  0
   11.2634  -19.5546   19.3330 O   0  0  0  0  0  0  0  0  0  0  0  0
    6.2238  -13.5939   26.7535 C   0  0  0  0  0  0  0  0  0  0  0  0
    7.2964  -13.3797   25.7231 C   0  0  1  0  0  0  0  0  0  0  0  0
    7.1435  -11.9582   25.1996 C   0  0  0  0  0  0  0  0  0  0  0  0
    8.6449  -13.6437   26.2616 C   0  0  0  0  0  0  0  0  0  0  0  0
    9.2603  -14.9479   25.9377 C   0  0  2  0  0  0  0  0  0  0  0  0
    8.8668  -15.5067   24.6784 N   0  0  0  0  0  0  0  0  0  0  0  0
    8.9274  -15.9785   26.9907 C   0  0  0  0  0  0  0  0  0  0  0  0
    8.3024  -17.1520   26.6495 O   0  0  0  0  0  0  0  0  0  0  0  0
    9.2225  -15.7641   28.1851 O   0  0  0  0  0  0  0  0  0  0  0  0
  2  3  1  0
  2  1  1  1
  4  2  1  0
  4  5  2  0
  6  4  1  0
  7  6  1  0
  7 12  1  0
  7  8  1  6
  9 10  1  0
  9  8  1  0
 10 11  2  0
 12 13  2  0
 12 20  1  0
 14 10  1  0
 16 15  1  1
 16 17  1  0
 18 16  1  0
 19 18  1  1
 20 19  1  0
 21 19  1  0
 21 22  1  0
 23 21  2  0
M  END
$$$$
