AEL.pdb
     RDKit          3D

 23 22  0  0  1  0  0  0  0  0999 V2000
    8.1474  -12.1220   20.1987 C   0  0  0  0  0  0  0  0  0  0  0  0
    8.3024  -13.5001   19.5825 C   0  0  2  0  0  0  0  0  0  0  0  0
    7.3091  -13.7479   18.5813 N   0  0  0  0  0  0  0  0  0  0  0  0
    8.2527  -14.4981   20.6895 C   0  0  0  0  0  0  0  0  0  0  0  0
    7.1512  -14.9761   21.0643 O   0  0  0  0  0  0  0  0  0  0  0  0
    9.4165  -14.9556   21.3680 N   0  0  0  0  0  0  0  0  0  0  0  0
    9.4046  -16.0287   22.3359 C   0  0  1  0  0  0  0  0  0  0  0  0
   10.5227  -17.0165   22.1221 C   0  0  0  0  0  0  0  0  0  0  0  0
   10.3157  -17.8995   20.9344 C   0  0  0  0  0  0  0  0  0  0  0  0
   11.4826  -18.8158   20.8386 C   0  0  0  0  0  0  0  0  0  0  0  0
   12.1220  -18.9828   19.7575 O   0  0  0  0  0  0  0  0  0  0  0  0
    9.5112  -15.4149   23.6849 C   0  0  0  0  0  0  0  0  0  0  0  0
   10.4992  -14.6986   24.0277 O   0  0  0  0  0  0  0  0  0  0  0  0
   11.9487  -19.5509   21.9341 O   0  0  0  0  0  0  0  0  0  0  0  0
    5.4067  -12.9571   26.2842 C   0  0  0  0  0  0  0  0  0  0  0  0
    6.7854  -13.3126   25.8037 C   0  0  1  0  0  0  0  0  0  0  0  0
    7.6463  -12.0637   25.9349 C   0  0  0  0  0  0  0  0  0  0  0  0
    7.3468  -14.4674   26.5313 C   0  0  0  0  0  0  0  0  0  0  0  0
    8.5894  -15.0646   25.9986 C   0  0  2  0  0  0  0  0  0  0  0  0
    8.4812  -15.6094   24.6779 N   0  0  0  0  0  0  0  0  0  0  0  0
    9.0758  -16.1836   26.8892 C   0  0  0  0  0  0  0  0  0  0  0  0
    9.5861  -15.9159   28.1350 O   0  0  0  0  0  0  0  0  0  0  0  0
    9.0145  -17.3657   26.4912 O   0  0  0  0  0  0  0  0  0  0  0  0
  2  3  1  0
  2  1  1  1
  4  2  1  0
  4  5  2  0
  6  4  1  0
  7  6  1  0
  7 12  1  0
  7  8  1  6
  9 10  1  0
  9  8  1  0
 10 11  2  0
 12 13  2  0
 12 20  1  0
 14 10  1  0
 16 15  1  1
 16 17  1  0
 18 16  1  0
 19 18  1  1
 20 19  1  0
 21 19  1  0
 21 22  1  0
 23 21  2  0
M  END
$$$$
