AEL.pdb
     RDKit          3D

 23 22  0  0  1  0  0  0  0  0999 V2000
    6.7669  -18.8235   26.6394 C   0  0  0  0  0  0  0  0  0  0  0  0
    7.0277  -19.3572   25.2430 C   0  0  2  0  0  0  0  0  0  0  0  0
    7.4122  -20.7364   25.2658 N   0  0  0  0  0  0  0  0  0  0  0  0
    8.0652  -18.4899   24.6143 C   0  0  0  0  0  0  0  0  0  0  0  0
    9.2865  -18.7535   24.7605 O   0  0  0  0  0  0  0  0  0  0  0  0
    7.7434  -17.3450   23.8337 N   0  0  0  0  0  0  0  0  0  0  0  0
    8.7307  -16.5516   23.1378 C   0  0  1  0  0  0  0  0  0  0  0  0
    8.1596  -15.8285   21.9450 C   0  0  0  0  0  0  0  0  0  0  0  0
    9.1632  -14.9883   21.2238 C   0  0  0  0  0  0  0  0  0  0  0  0
    8.6170  -14.6826   19.8753 C   0  0  0  0  0  0  0  0  0  0  0  0
    8.9680  -15.3284   18.8432 O   0  0  0  0  0  0  0  0  0  0  0  0
    9.2882  -15.5775   24.1115 C   0  0  0  0  0  0  0  0  0  0  0  0
   10.3338  -14.9021   23.8719 O   0  0  0  0  0  0  0  0  0  0  0  0
    7.6822  -13.6640   19.6600 O   0  0  0  0  0  0  0  0  0  0  0  0
    5.9306  -12.3523   26.6133 C   0  0  0  0  0  0  0  0  0  0  0  0
    7.0893  -12.9925   25.9022 C   0  0  1  0  0  0  0  0  0  0  0  0
    7.6074  -11.9858   24.8842 C   0  0  0  0  0  0  0  0  0  0  0  0
    8.1371  -13.4417   26.8395 C   0  0  0  0  0  0  0  0  0  0  0  0
    9.1510  -14.3838   26.3211 C   0  0  2  0  0  0  0  0  0  0  0  0
    8.6560  -15.3539   25.3902 N   0  0  0  0  0  0  0  0  0  0  0  0
    9.7968  -15.1558   27.4474 C   0  0  0  0  0  0  0  0  0  0  0  0
   10.4981  -14.5044   28.4313 O   0  0  0  0  0  0  0  0  0  0  0  0
    9.6938  -16.3997   27.4871 O   0  0  0  0  0  0  0  0  0  0  0  0
  2  3  1  0
  2  1  1  1
  4  2  1  0
  4  5  2  0
  6  4  1  0
  7  6  1  0
  7 12  1  0
  7  8  1  6
  9 10  1  0
  9  8  1  0
 10 11  2  0
 12 13  2  0
 12 20  1  0
 14 10  1  0
 16 15  1  1
 16 17  1  0
 18 16  1  0
 19 18  1  1
 20 19  1  0
 21 19  1  0
 21 22  1  0
 23 21  2  0
M  END
$$$$
