AEL.pdb
     RDKit          3D

 23 22  0  0  1  0  0  0  0  0999 V2000
    7.9168  -12.3777   20.3631 C   0  0  0  0  0  0  0  0  0  0  0  0
    8.0408  -13.7907   19.8236 C   0  0  2  0  0  0  0  0  0  0  0  0
    6.9749  -14.1094   18.9220 N   0  0  0  0  0  0  0  0  0  0  0  0
    8.0919  -14.7172   20.9910 C   0  0  0  0  0  0  0  0  0  0  0  0
    7.0375  -15.0243   21.6043 O   0  0  0  0  0  0  0  0  0  0  0  0
    9.3032  -15.2923   21.4665 N   0  0  0  0  0  0  0  0  0  0  0  0
    9.3645  -16.2196   22.5732 C   0  0  1  0  0  0  0  0  0  0  0  0
   10.5155  -17.1859   22.4587 C   0  0  0  0  0  0  0  0  0  0  0  0
   10.4255  -18.0773   21.2627 C   0  0  0  0  0  0  0  0  0  0  0  0
   11.7863  -18.6086   20.9866 C   0  0  0  0  0  0  0  0  0  0  0  0
   12.4560  -19.2349   21.8611 O   0  0  0  0  0  0  0  0  0  0  0  0
    9.4861  -15.4200   23.8198 C   0  0  0  0  0  0  0  0  0  0  0  0
   10.4266  -14.5905   24.0043 O   0  0  0  0  0  0  0  0  0  0  0  0
   12.4133  -18.4514   19.7457 O   0  0  0  0  0  0  0  0  0  0  0  0
    5.6910  -12.4790   26.2463 C   0  0  0  0  0  0  0  0  0  0  0  0
    7.0314  -12.9913   25.8001 C   0  0  1  0  0  0  0  0  0  0  0  0
    8.0041  -11.8212   25.8550 C   0  0  0  0  0  0  0  0  0  0  0  0
    7.4828  -14.1423   26.6061 C   0  0  0  0  0  0  0  0  0  0  0  0
    8.6823  -14.8680   26.1382 C   0  0  2  0  0  0  0  0  0  0  0  0
    8.5262  -15.5540   24.8901 N   0  0  0  0  0  0  0  0  0  0  0  0
    9.1157  -15.9033   27.1492 C   0  0  0  0  0  0  0  0  0  0  0  0
    9.1898  -17.2301   26.8053 O   0  0  0  0  0  0  0  0  0  0  0  0
    9.4104  -15.5522   28.3108 O   0  0  0  0  0  0  0  0  0  0  0  0
  2  3  1  0
  2  1  1  1
  4  2  1  0
  4  5  2  0
  6  4  1  0
  7  6  1  0
  7 12  1  0
  7  8  1  6
  9 10  1  0
  9  8  1  0
 10 11  2  0
 12 13  2  0
 12 20  1  0
 14 10  1  0
 16 15  1  1
 16 17  1  0
 18 16  1  0
 19 18  1  1
 20 19  1  0
 21 19  1  0
 21 22  1  0
 23 21  2  0
M  END
$$$$
