AEL.pdb
     RDKit          3D

 23 22  0  0  1  0  0  0  0  0999 V2000
    8.2555  -12.0199   19.7682 C   0  0  0  0  0  0  0  0  0  0  0  0
    8.3870  -13.4222   19.2032 C   0  0  2  0  0  0  0  0  0  0  0  0
    7.4728  -13.6469   18.1241 N   0  0  0  0  0  0  0  0  0  0  0  0
    8.1852  -14.3825   20.3262 C   0  0  0  0  0  0  0  0  0  0  0  0
    7.0329  -14.8064   20.5996 O   0  0  0  0  0  0  0  0  0  0  0  0
    9.2550  -14.8623   21.1320 N   0  0  0  0  0  0  0  0  0  0  0  0
    9.1130  -15.9371   22.0875 C   0  0  1  0  0  0  0  0  0  0  0  0
   10.0785  -17.0674   21.8385 C   0  0  0  0  0  0  0  0  0  0  0  0
    9.9472  -18.1872   22.8194 C   0  0  0  0  0  0  0  0  0  0  0  0
   10.9070  -19.2524   22.4263 C   0  0  0  0  0  0  0  0  0  0  0  0
   11.1066  -19.5670   21.2152 O   0  0  0  0  0  0  0  0  0  0  0  0
    9.3304  -15.3635   23.4409 C   0  0  0  0  0  0  0  0  0  0  0  0
   10.3989  -14.7596   23.7577 O   0  0  0  0  0  0  0  0  0  0  0  0
   11.6499  -19.9744   23.3669 O   0  0  0  0  0  0  0  0  0  0  0  0
    5.9335  -12.3209   26.4517 C   0  0  0  0  0  0  0  0  0  0  0  0
    7.1895  -12.9194   25.8840 C   0  0  1  0  0  0  0  0  0  0  0  0
    8.3226  -11.9411   26.1616 C   0  0  0  0  0  0  0  0  0  0  0  0
    7.4574  -14.2660   26.4255 C   0  0  0  0  0  0  0  0  0  0  0  0
    8.5605  -15.0354   25.8126 C   0  0  2  0  0  0  0  0  0  0  0  0
    8.3216  -15.4698   24.4684 N   0  0  0  0  0  0  0  0  0  0  0  0
    8.8676  -16.2751   26.6193 C   0  0  0  0  0  0  0  0  0  0  0  0
    8.6335  -17.5242   26.1005 O   0  0  0  0  0  0  0  0  0  0  0  0
    9.3393  -16.1662   27.7705 O   0  0  0  0  0  0  0  0  0  0  0  0
  2  3  1  0
  2  1  1  1
  4  2  1  0
  4  5  2  0
  6  4  1  0
  7  6  1  0
  7 12  1  0
  7  8  1  6
  9 10  1  0
  9  8  1  0
 10 11  2  0
 12 13  2  0
 12 20  1  0
 14 10  1  0
 16 15  1  1
 16 17  1  0
 18 16  1  0
 19 18  1  1
 20 19  1  0
 21 19  1  0
 21 22  1  0
 23 21  2  0
M  END
$$$$
