GNQ.pdb
     RDKit          3D

 22 21  0  0  1  0  0  0  0  0999 V2000
   19.1872  -14.1967  -18.2784 N   0  0  0  0  0  0  0  0  0  0  0  0
   18.7050  -13.5060  -17.1010 C   0  0  0  0  0  0  0  0  0  0  0  0
   18.6544  -12.0534  -17.3676 C   0  0  0  0  0  0  0  0  0  0  0  0
   19.1665  -11.5891  -18.4241 O   0  0  0  0  0  0  0  0  0  0  0  0
   15.3789   -9.6025  -17.9526 N   0  0  0  0  0  0  0  0  0  0  0  0
   15.5890   -9.1986  -16.5752 C   0  0  0  0  0  0  0  0  0  0  0  0
   14.5532   -8.8573  -15.9893 O   0  0  0  0  0  0  0  0  0  0  0  0
   16.8921   -9.2069  -15.9791 C   0  0  0  0  0  0  0  0  0  0  0  0
   18.0764   -9.7001  -16.7808 C   0  0  2  0  0  0  0  0  0  0  0  0
   18.0489  -11.1581  -16.4766 N   0  0  0  0  0  0  0  0  0  0  0  0
   19.3686   -9.1466  -16.3766 C   0  0  0  0  0  0  0  0  0  0  0  0
   19.7986   -9.4904  -15.2135 O   0  0  0  0  0  0  0  0  0  0  0  0
   24.2302   -7.3300  -19.7659 N   0  0  0  0  0  0  0  0  0  0  0  0
   24.7138   -6.9820  -18.4810 C   0  0  0  0  0  0  0  0  0  0  0  0
   25.8744   -6.5355  -18.3233 O   0  0  0  0  0  0  0  0  0  0  0  0
   23.8337   -7.1487  -17.3029 C   0  0  0  0  0  0  0  0  0  0  0  0
   22.5046   -7.6477  -17.7448 C   0  0  0  0  0  0  0  0  0  0  0  0
   21.5421   -7.8922  -16.6143 C   0  0  2  0  0  0  0  0  0  0  0  0
   20.2214   -8.2854  -17.0914 N   0  0  0  0  0  0  0  0  0  0  0  0
   21.3822   -6.6644  -15.8070 C   0  0  0  0  0  0  0  0  0  0  0  0
   22.0471   -6.4363  -14.7810 O   0  0  0  0  0  0  0  0  0  0  0  0
   20.4543   -5.6763  -16.1664 O   0  0  0  0  0  0  0  0  0  0  0  0
  2  3  1  0
  2  1  1  0
  3  4  2  0
  5  6  1  0
  6  7  2  0
  6  8  1  0
  9  8  1  1
  9 11  1  0
 10  9  1  0
 10  3  1  0
 11 19  1  0
 11 12  2  0
 13 14  1  0
 14 16  1  0
 15 14  2  0
 17 16  1  0
 18 17  1  6
 19 18  1  0
 20 22  1  0
 20 18  1  0
 21 20  2  0
M  END
$$$$
