GNQ.pdb
     RDKit          3D

 22 21  0  0  1  0  0  0  0  0999 V2000
   21.6309  -13.8498  -18.9125 N   0  0  0  0  0  0  0  0  0  0  0  0
   21.0595  -14.0035  -17.5913 C   0  0  0  0  0  0  0  0  0  0  0  0
   21.6714  -13.0215  -16.6721 C   0  0  0  0  0  0  0  0  0  0  0  0
   21.2892  -12.9610  -15.4703 O   0  0  0  0  0  0  0  0  0  0  0  0
   26.2965  -12.5320  -15.1940 N   0  0  0  0  0  0  0  0  0  0  0  0
   25.6463  -12.2827  -16.4667 C   0  0  0  0  0  0  0  0  0  0  0  0
   25.9447  -13.0971  -17.3500 O   0  0  0  0  0  0  0  0  0  0  0  0
   24.7453  -11.1834  -16.6487 C   0  0  0  0  0  0  0  0  0  0  0  0
   23.3432  -11.2667  -16.0869 C   0  0  2  0  0  0  0  0  0  0  0  0
   22.6767  -12.1411  -17.0921 N   0  0  0  0  0  0  0  0  0  0  0  0
   22.6325   -9.9906  -16.0100 C   0  0  0  0  0  0  0  0  0  0  0  0
   22.0500   -9.5954  -17.0872 O   0  0  0  0  0  0  0  0  0  0  0  0
   24.1229   -4.5919  -15.8594 N   0  0  0  0  0  0  0  0  0  0  0  0
   22.7323   -4.3325  -15.7886 C   0  0  0  0  0  0  0  0  0  0  0  0
   22.2764   -3.1805  -15.9791 O   0  0  0  0  0  0  0  0  0  0  0  0
   21.8003   -5.4411  -15.4837 C   0  0  0  0  0  0  0  0  0  0  0  0
   22.5687   -6.7040  -15.3244 C   0  0  0  0  0  0  0  0  0  0  0  0
   21.7175   -7.8898  -14.9594 C   0  0  2  0  0  0  0  0  0  0  0  0
   22.4889   -9.1262  -14.9090 N   0  0  0  0  0  0  0  0  0  0  0  0
   20.6416   -8.0706  -15.9566 C   0  0  0  0  0  0  0  0  0  0  0  0
   19.4850   -7.6444  -15.7908 O   0  0  0  0  0  0  0  0  0  0  0  0
   20.8774   -8.7449  -17.1633 O   0  0  0  0  0  0  0  0  0  0  0  0
  2  3  1  0
  2  1  1  0
  3  4  2  0
  5  6  1  0
  6  7  2  0
  6  8  1  0
  9  8  1  6
  9 11  1  0
 10  9  1  0
 10  3  1  0
 11 19  1  0
 11 12  2  0
 13 14  1  0
 14 16  1  0
 15 14  2  0
 17 16  1  0
 18 17  1  6
 19 18  1  0
 20 22  1  0
 20 18  1  0
 21 20  2  0
M  END
$$$$
