GNQ.pdb
     RDKit          3D

 22 21  0  0  1  0  0  0  0  0999 V2000
   24.9745  -24.5754  -14.9894 N   0  0  0  0  0  0  0  0  0  0  0  0
   24.7461  -23.1465  -15.0334 C   0  0  0  0  0  0  0  0  0  0  0  0
   23.4708  -22.8300  -14.3572 C   0  0  0  0  0  0  0  0  0  0  0  0
   22.7400  -23.7634  -13.9227 O   0  0  0  0  0  0  0  0  0  0  0  0
   19.9433  -20.2549  -11.3965 N   0  0  0  0  0  0  0  0  0  0  0  0
   21.1383  -19.5179  -11.7620 C   0  0  0  0  0  0  0  0  0  0  0  0
   21.3546  -18.5288  -11.0496 O   0  0  0  0  0  0  0  0  0  0  0  0
   21.9700  -19.9273  -12.8546 C   0  0  0  0  0  0  0  0  0  0  0  0
   21.7214  -21.2616  -13.5228 C   0  0  2  0  0  0  0  0  0  0  0  0
   23.0362  -21.5105  -14.1773 N   0  0  0  0  0  0  0  0  0  0  0  0
   20.6693  -21.2563  -14.5389 C   0  0  0  0  0  0  0  0  0  0  0  0
   21.0542  -21.3822  -15.7603 O   0  0  0  0  0  0  0  0  0  0  0  0
   17.5577  -26.1862  -16.2852 N   0  0  0  0  0  0  0  0  0  0  0  0
   16.8555  -25.2083  -15.5391 C   0  0  0  0  0  0  0  0  0  0  0  0
   16.1007  -25.5326  -14.5923 O   0  0  0  0  0  0  0  0  0  0  0  0
   17.0150  -23.7778  -15.8834 C   0  0  0  0  0  0  0  0  0  0  0  0
   18.0493  -23.1698  -15.0051 C   0  0  0  0  0  0  0  0  0  0  0  0
   18.3068  -21.7147  -15.2891 C   0  0  2  0  0  0  0  0  0  0  0  0
   19.2778  -21.1376  -14.3669 N   0  0  0  0  0  0  0  0  0  0  0  0
   17.0530  -20.9419  -15.1646 C   0  0  0  0  0  0  0  0  0  0  0  0
   16.0469  -21.1655  -15.8608 O   0  0  0  0  0  0  0  0  0  0  0  0
   16.9341  -19.8979  -14.2361 O   0  0  0  0  0  0  0  0  0  0  0  0
  2  3  1  0
  2  1  1  0
  3  4  2  0
  5  6  1  0
  6  7  2  0
  6  8  1  0
  9  8  1  6
  9 11  1  0
 10  9  1  0
 10  3  1  0
 11 19  1  0
 11 12  2  0
 13 14  1  0
 14 16  1  0
 15 14  2  0
 17 16  1  0
 18 17  1  1
 19 18  1  0
 20 22  1  0
 20 18  1  0
 21 20  2  0
M  END
$$$$
