GNQ.pdb
     RDKit          3D

 22 21  0  0  1  0  0  0  0  0999 V2000
   21.3430  -33.6862  -12.6768 N   0  0  0  0  0  0  0  0  0  0  0  0
   22.5639  -32.9089  -12.7049 C   0  0  0  0  0  0  0  0  0  0  0  0
   23.6675  -33.7032  -12.1261 C   0  0  0  0  0  0  0  0  0  0  0  0
   23.5803  -34.9619  -12.0797 O   0  0  0  0  0  0  0  0  0  0  0  0
   27.8759  -32.3003  -13.9695 N   0  0  0  0  0  0  0  0  0  0  0  0
   27.5197  -33.4111  -13.1070 C   0  0  0  0  0  0  0  0  0  0  0  0
   27.5756  -34.5156  -13.6634 O   0  0  0  0  0  0  0  0  0  0  0  0
   27.1427  -33.2107  -11.7392 C   0  0  0  0  0  0  0  0  0  0  0  0
   25.9573  -33.9619  -11.1740 C   0  0  2  0  0  0  0  0  0  0  0  0
   24.8262  -33.1008  -11.6192 N   0  0  0  0  0  0  0  0  0  0  0  0
   25.9353  -34.0725   -9.7157 C   0  0  0  0  0  0  0  0  0  0  0  0
   25.7155  -32.9851   -9.0637 O   0  0  0  0  0  0  0  0  0  0  0  0
   24.3731  -37.6754   -4.1001 N   0  0  0  0  0  0  0  0  0  0  0  0
   24.7864  -36.6793   -5.0182 C   0  0  0  0  0  0  0  0  0  0  0  0
   23.9604  -35.8923   -5.5374 O   0  0  0  0  0  0  0  0  0  0  0  0
   26.2190  -36.5654   -5.3718 C   0  0  0  0  0  0  0  0  0  0  0  0
   26.3623  -36.5291   -6.8513 C   0  0  0  0  0  0  0  0  0  0  0  0
   26.0352  -35.1923   -7.4595 C   0  0  2  0  0  0  0  0  0  0  0  0
   26.1168  -35.2154   -8.9153 N   0  0  0  0  0  0  0  0  0  0  0  0
   26.9802  -34.1658   -6.9717 C   0  0  0  0  0  0  0  0  0  0  0  0
   26.7001  -33.3635   -6.0636 O   0  0  0  0  0  0  0  0  0  0  0  0
   28.2652  -34.0445   -7.5198 O   0  0  0  0  0  0  0  0  0  0  0  0
  2  3  1  0
  2  1  1  0
  3  4  2  0
  5  6  1  0
  6  7  2  0
  6  8  1  0
  9  8  1  1
  9 11  1  0
 10  9  1  0
 10  3  1  0
 11 19  1  0
 11 12  2  0
 13 14  1  0
 14 16  1  0
 15 14  2  0
 17 16  1  0
 18 17  1  1
 19 18  1  0
 20 22  1  0
 20 18  1  0
 21 20  2  0
M  END
$$$$
