GNQ.pdb
     RDKit          3D

 22 21  0  0  1  0  0  0  0  0999 V2000
   27.6224  -21.8982  -16.7179 N   0  0  0  0  0  0  0  0  0  0  0  0
   28.0321  -21.2053  -15.5147 C   0  0  0  0  0  0  0  0  0  0  0  0
   27.0545  -21.4669  -14.4379 C   0  0  0  0  0  0  0  0  0  0  0  0
   26.4318  -22.5648  -14.4059 O   0  0  0  0  0  0  0  0  0  0  0  0
   24.7176  -21.4434   -9.7143 N   0  0  0  0  0  0  0  0  0  0  0  0
   25.9004  -20.6165   -9.8628 C   0  0  0  0  0  0  0  0  0  0  0  0
   26.3858  -20.2384   -8.7886 O   0  0  0  0  0  0  0  0  0  0  0  0
   26.4312  -20.2874  -11.1525 C   0  0  0  0  0  0  0  0  0  0  0  0
   25.7692  -20.8403  -12.3953 C   0  0  2  0  0  0  0  0  0  0  0  0
   26.7893  -20.5261  -13.4345 N   0  0  0  0  0  0  0  0  0  0  0  0
   24.5020  -20.2040  -12.7545 C   0  0  0  0  0  0  0  0  0  0  0  0
   24.5751  -19.1928  -13.5469 O   0  0  0  0  0  0  0  0  0  0  0  0
   22.4485  -23.1677  -16.6027 N   0  0  0  0  0  0  0  0  0  0  0  0
   22.7045  -21.7965  -16.8478 C   0  0  0  0  0  0  0  0  0  0  0  0
   22.9702  -21.3818  -18.0006 O   0  0  0  0  0  0  0  0  0  0  0  0
   22.6583  -20.8356  -15.7232 C   0  0  0  0  0  0  0  0  0  0  0  0
   22.4211  -21.5713  -14.4531 C   0  0  0  0  0  0  0  0  0  0  0  0
   22.0849  -20.6790  -13.2891 C   0  0  2  0  0  0  0  0  0  0  0  0
   23.1977  -20.5496  -12.3556 N   0  0  0  0  0  0  0  0  0  0  0  0
   20.9327  -21.2275  -12.5431 C   0  0  0  0  0  0  0  0  0  0  0  0
   21.0071  -22.2472  -11.8349 O   0  0  0  0  0  0  0  0  0  0  0  0
   19.6741  -20.6118  -12.5979 O   0  0  0  0  0  0  0  0  0  0  0  0
  2  3  1  0
  2  1  1  0
  3  4  2  0
  5  6  1  0
  6  7  2  0
  6  8  1  0
  9  8  1  1
  9 11  1  0
 10  9  1  0
 10  3  1  0
 11 19  1  0
 11 12  2  0
 13 14  1  0
 14 16  1  0
 15 14  2  0
 17 16  1  0
 18 17  1  6
 19 18  1  0
 20 22  1  0
 20 18  1  0
 21 20  2  0
M  END
$$$$
