GNQ.pdb
     RDKit          3D

 22 21  0  0  1  0  0  0  0  0999 V2000
   13.8715  -12.8193  -13.0270 N   0  0  0  0  0  0  0  0  0  0  0  0
   15.0746  -12.4083  -12.3348 C   0  0  0  0  0  0  0  0  0  0  0  0
   15.1206  -10.9331  -12.2595 C   0  0  0  0  0  0  0  0  0  0  0  0
   14.3870  -10.2409  -13.0189 O   0  0  0  0  0  0  0  0  0  0  0  0
   15.9724   -6.7010   -8.3064 N   0  0  0  0  0  0  0  0  0  0  0  0
   15.4449   -7.0598   -9.6094 C   0  0  0  0  0  0  0  0  0  0  0  0
   15.0369   -6.0943  -10.2681 O   0  0  0  0  0  0  0  0  0  0  0  0
   15.4149   -8.4195  -10.0605 C   0  0  0  0  0  0  0  0  0  0  0  0
   16.0263   -8.7760  -11.3975 C   0  0  2  0  0  0  0  0  0  0  0  0
   15.9618  -10.2638  -11.3613 N   0  0  0  0  0  0  0  0  0  0  0  0
   17.4169   -8.3570  -11.5715 C   0  0  0  0  0  0  0  0  0  0  0  0
   18.3172   -9.1854  -11.1728 O   0  0  0  0  0  0  0  0  0  0  0  0
   20.3778  -10.5252  -14.3571 N   0  0  0  0  0  0  0  0  0  0  0  0
   21.0785   -9.3713  -14.7854 C   0  0  0  0  0  0  0  0  0  0  0  0
   22.2934   -9.4252  -15.0893 O   0  0  0  0  0  0  0  0  0  0  0  0
   20.3642   -8.0782  -14.8755 C   0  0  0  0  0  0  0  0  0  0  0  0
   19.1455   -8.1258  -14.0249 C   0  0  0  0  0  0  0  0  0  0  0  0
   19.1348   -7.1014  -12.9229 C   0  0  2  0  0  0  0  0  0  0  0  0
   17.9154   -7.1636  -12.1257 N   0  0  0  0  0  0  0  0  0  0  0  0
   19.2322   -5.7405  -13.4915 C   0  0  0  0  0  0  0  0  0  0  0  0
   18.2398   -5.0861  -13.8573 O   0  0  0  0  0  0  0  0  0  0  0  0
   20.4736   -5.1078  -13.6489 O   0  0  0  0  0  0  0  0  0  0  0  0
  2  3  1  0
  2  1  1  0
  3  4  2  0
  5  6  1  0
  6  7  2  0
  6  8  1  0
  9  8  1  1
  9 11  1  0
 10  9  1  0
 10  3  1  0
 11 19  1  0
 11 12  2  0
 13 14  1  0
 14 16  1  0
 15 14  2  0
 17 16  1  0
 18 17  1  6
 19 18  1  0
 20 22  1  0
 20 18  1  0
 21 20  2  0
M  END
$$$$
