YSV.pdb
     RDKit          3D

 26 26  0  0  1  0  0  0  0  0999 V2000
    5.7270  -10.7303   28.1875 O   0  0  0  0  0  0  0  0  0  0  0  0
    6.3127  -11.6926   27.3806 C   0  0  0  0  0  0  0  0  0  0  0  0
    7.2745  -12.5226   27.9002 C   0  0  0  0  0  0  0  0  0  0  0  0
    7.8595  -13.4879   27.0841 C   0  0  0  0  0  0  0  0  0  0  0  0
    7.4803  -13.6082   25.7791 C   0  0  0  0  0  0  0  0  0  0  0  0
    8.1116  -14.6440   24.9131 C   0  0  0  0  0  0  0  0  0  0  0  0
    7.0633  -15.6224   24.3951 C   0  0  2  0  0  0  0  0  0  0  0  0
    6.6542  -16.4263   25.5302 N   0  0  0  0  0  0  0  0  0  0  0  0
    7.6929  -16.4494   23.3575 C   0  0  0  0  0  0  0  0  0  0  0  0
    8.2163  -17.5476   23.7170 O   0  0  0  0  0  0  0  0  0  0  0  0
    6.5065  -12.7639   25.2627 C   0  0  0  0  0  0  0  0  0  0  0  0
    5.9193  -11.8058   26.0554 C   0  0  0  0  0  0  0  0  0  0  0  0
    7.4832  -15.1480   19.6084 O   0  0  0  0  0  0  0  0  0  0  0  0
    8.4562  -16.1194   19.6703 C   0  0  0  0  0  0  0  0  0  0  0  0
    8.5759  -16.7183   21.0801 C   0  0  2  0  0  0  0  0  0  0  0  0
    7.7114  -16.0288   22.0028 N   0  0  0  0  0  0  0  0  0  0  0  0
   10.0108  -16.5304   21.4595 C   0  0  0  0  0  0  0  0  0  0  0  0
   10.4335  -15.4160   21.8575 O   0  0  0  0  0  0  0  0  0  0  0  0
   13.7297  -18.6542   23.5062 C   0  0  0  0  0  0  0  0  0  0  0  0
   12.2680  -18.5921   23.0473 C   0  0  2  0  0  0  0  0  0  0  0  0
   11.7591  -19.9451   22.6686 C   0  0  0  0  0  0  0  0  0  0  0  0
   12.2453  -17.6171   21.8818 C   0  0  2  0  0  0  0  0  0  0  0  0
   10.8914  -17.6172   21.3675 N   0  0  0  0  0  0  0  0  0  0  0  0
   13.1460  -18.0701   20.8043 C   0  0  0  0  0  0  0  0  0  0  0  0
   14.4943  -17.7548   20.8238 O   0  0  0  0  0  0  0  0  0  0  0  0
   12.7043  -18.7461   19.8573 O   0  0  0  0  0  0  0  0  0  0  0  0
  2  3  2  0
  2  1  1  0
  4  3  1  0
  5  4  2  0
  6  5  1  0
  7  6  1  0
  7  9  1  0
  7  8  1  1
  9 16  1  0
  9 10  2  0
 11  5  1  0
 11 12  2  0
 12  2  1  0
 13 14  1  0
 15 14  1  6
 16 15  1  0
 17 15  1  0
 17 18  2  0
 20 19  1  6
 20 21  1  0
 20 22  1  0
 22 23  1  6
 23 17  1  0
 24 22  1  0
 25 24  1  0
 26 24  2  0
M  END
$$$$
