YSV.pdb
     RDKit          3D

 26 26  0  0  1  0  0  0  0  0999 V2000
   12.0263  -25.0421   16.6523 O   0  0  0  0  0  0  0  0  0  0  0  0
   12.1198  -23.6798   16.4166 C   0  0  0  0  0  0  0  0  0  0  0  0
   12.7628  -23.2265   15.2918 C   0  0  0  0  0  0  0  0  0  0  0  0
   12.8534  -21.8561   15.0604 C   0  0  0  0  0  0  0  0  0  0  0  0
   12.3080  -20.9709   15.9437 C   0  0  0  0  0  0  0  0  0  0  0  0
   12.4098  -19.5061   15.6880 C   0  0  0  0  0  0  0  0  0  0  0  0
   13.4241  -19.2227   14.5855 C   0  0  2  0  0  0  0  0  0  0  0  0
   13.0705  -20.0797   13.4709 N   0  0  0  0  0  0  0  0  0  0  0  0
   14.7579  -19.5502   15.1056 C   0  0  0  0  0  0  0  0  0  0  0  0
   15.2131  -20.7106   14.8700 O   0  0  0  0  0  0  0  0  0  0  0  0
   11.6596  -21.4392   17.0787 C   0  0  0  0  0  0  0  0  0  0  0  0
   11.5616  -22.7892   17.3215 C   0  0  0  0  0  0  0  0  0  0  0  0
   17.6267  -16.9155   15.4781 O   0  0  0  0  0  0  0  0  0  0  0  0
   17.9237  -18.2463   15.6655 C   0  0  0  0  0  0  0  0  0  0  0  0
   16.7841  -18.9905   16.3783 C   0  0  2  0  0  0  0  0  0  0  0  0
   15.5054  -18.5976   15.8447 N   0  0  0  0  0  0  0  0  0  0  0  0
   16.9017  -18.5924   17.8157 C   0  0  0  0  0  0  0  0  0  0  0  0
   16.3162  -17.5702   18.2531 O   0  0  0  0  0  0  0  0  0  0  0  0
   16.3753  -20.6524   21.0049 C   0  0  0  0  0  0  0  0  0  0  0  0
   17.8695  -20.3464   20.8467 C   0  0  2  0  0  0  0  0  0  0  0  0
   18.5491  -20.2539   22.1743 C   0  0  0  0  0  0  0  0  0  0  0  0
   17.9409  -19.0439   20.0669 C   0  0  2  0  0  0  0  0  0  0  0  0
   17.6777  -19.3751   18.6818 N   0  0  0  0  0  0  0  0  0  0  0  0
   19.2930  -18.4587   20.1504 C   0  0  0  0  0  0  0  0  0  0  0  0
   20.1854  -18.5753   19.0979 O   0  0  0  0  0  0  0  0  0  0  0  0
   19.6526  -17.8486   21.1737 O   0  0  0  0  0  0  0  0  0  0  0  0
  2  3  2  0
  2  1  1  0
  4  3  1  0
  5  4  2  0
  6  5  1  0
  7  6  1  0
  7  9  1  0
  7  8  1  6
  9 16  1  0
  9 10  2  0
 11  5  1  0
 11 12  2  0
 12  2  1  0
 13 14  1  0
 15 14  1  6
 16 15  1  0
 17 15  1  0
 17 18  2  0
 20 19  1  1
 20 21  1  0
 20 22  1  0
 22 23  1  6
 23 17  1  0
 24 22  1  0
 25 24  1  0
 26 24  2  0
M  END
$$$$
