YSV.pdb
     RDKit          3D

 26 26  0  0  1  0  0  0  0  0999 V2000
    0.3050  -33.1298   26.4835 O   0  0  0  0  0  0  0  0  0  0  0  0
   -0.3240  -31.8968   26.4187 C   0  0  0  0  0  0  0  0  0  0  0  0
    0.3208  -30.8338   25.8372 C   0  0  0  0  0  0  0  0  0  0  0  0
   -0.3167  -29.5970   25.7751 C   0  0  0  0  0  0  0  0  0  0  0  0
   -1.5716  -29.4425   26.2877 C   0  0  0  0  0  0  0  0  0  0  0  0
   -2.2462  -28.1153   26.2169 C   0  0  0  0  0  0  0  0  0  0  0  0
   -3.3928  -28.1489   25.2125 C   0  0  2  0  0  0  0  0  0  0  0  0
   -2.7860  -28.1917   23.8965 N   0  0  0  0  0  0  0  0  0  0  0  0
   -4.1854  -26.9256   25.3928 C   0  0  0  0  0  0  0  0  0  0  0  0
   -3.6934  -25.8370   24.9661 O   0  0  0  0  0  0  0  0  0  0  0  0
   -2.2156  -30.5238   26.8741 C   0  0  0  0  0  0  0  0  0  0  0  0
   -1.5997  -31.7514   26.9432 C   0  0  0  0  0  0  0  0  0  0  0  0
   -7.6202  -26.6926   27.8381 O   0  0  0  0  0  0  0  0  0  0  0  0
   -7.6376  -26.0325   26.6305 C   0  0  0  0  0  0  0  0  0  0  0  0
   -6.2184  -25.7491   26.1146 C   0  0  2  0  0  0  0  0  0  0  0  0
   -5.4557  -26.9673   26.0229 N   0  0  0  0  0  0  0  0  0  0  0  0
   -5.6171  -24.8240   27.1250 C   0  0  0  0  0  0  0  0  0  0  0  0
   -4.9772  -25.2706   28.1099 O   0  0  0  0  0  0  0  0  0  0  0  0
   -3.9500  -20.3738   27.9594 C   0  0  0  0  0  0  0  0  0  0  0  0
   -4.5252  -21.4133   26.9899 C   0  0  2  0  0  0  0  0  0  0  0  0
   -5.4544  -20.7820   26.0044 C   0  0  0  0  0  0  0  0  0  0  0  0
   -5.2194  -22.4468   27.8615 C   0  0  2  0  0  0  0  0  0  0  0  0
   -5.7734  -23.4402   26.9650 N   0  0  0  0  0  0  0  0  0  0  0  0
   -6.3322  -21.8340   28.6123 C   0  0  0  0  0  0  0  0  0  0  0  0
   -7.6486  -22.0699   28.2530 O   0  0  0  0  0  0  0  0  0  0  0  0
   -6.1021  -21.0922   29.5848 O   0  0  0  0  0  0  0  0  0  0  0  0
  2  3  2  0
  2  1  1  0
  4  3  1  0
  5  4  2  0
  6  5  1  0
  7  6  1  0
  7  9  1  0
  7  8  1  6
  9 16  1  0
  9 10  2  0
 11  5  1  0
 11 12  2  0
 12  2  1  0
 13 14  1  0
 15 14  1  1
 16 15  1  0
 17 15  1  0
 17 18  2  0
 20 19  1  1
 20 21  1  0
 20 22  1  0
 22 23  1  6
 23 17  1  0
 24 22  1  0
 25 24  1  0
 26 24  2  0
M  END
$$$$
