YSV.pdb
     RDKit          3D

 26 26  0  0  1  0  0  0  0  0999 V2000
   10.9677  -22.2527   31.5498 O   0  0  0  0  0  0  0  0  0  0  0  0
   10.9074  -21.2845   30.5603 C   0  0  0  0  0  0  0  0  0  0  0  0
   11.8170  -20.2566   30.5578 C   0  0  0  0  0  0  0  0  0  0  0  0
   11.7512  -19.2865   29.5606 C   0  0  0  0  0  0  0  0  0  0  0  0
   10.7911  -19.3566   28.5939 C   0  0  0  0  0  0  0  0  0  0  0  0
   10.7283  -18.3142   27.5305 C   0  0  0  0  0  0  0  0  0  0  0  0
   10.5586  -18.9566   26.1582 C   0  0  2  0  0  0  0  0  0  0  0  0
   11.8544  -19.4946   25.7927 N   0  0  0  0  0  0  0  0  0  0  0  0
   10.1342  -17.9094   25.2201 C   0  0  0  0  0  0  0  0  0  0  0  0
   10.9952  -17.0445   24.8741 O   0  0  0  0  0  0  0  0  0  0  0  0
    9.8755  -20.4003   28.6048 C   0  0  0  0  0  0  0  0  0  0  0  0
    9.9270  -21.3660   29.5826 C   0  0  0  0  0  0  0  0  0  0  0  0
    6.0886  -17.5809   24.0338 O   0  0  0  0  0  0  0  0  0  0  0  0
    7.0439  -16.8609   23.3531 C   0  0  0  0  0  0  0  0  0  0  0  0
    8.2987  -16.6265   24.2081 C   0  0  2  0  0  0  0  0  0  0  0  0
    8.8062  -17.8724   24.7222 N   0  0  0  0  0  0  0  0  0  0  0  0
    7.8459  -15.7395   25.3246 C   0  0  0  0  0  0  0  0  0  0  0  0
    7.6388  -16.2024   26.4743 O   0  0  0  0  0  0  0  0  0  0  0  0
    6.9960  -11.0802   26.6349 C   0  0  0  0  0  0  0  0  0  0  0  0
    7.4495  -12.0454   25.5331 C   0  0  2  0  0  0  0  0  0  0  0  0
    6.7788  -11.7403   24.2331 C   0  0  0  0  0  0  0  0  0  0  0  0
    7.1163  -13.4371   26.0447 C   0  0  2  0  0  0  0  0  0  0  0  0
    7.6517  -14.3733   25.0780 N   0  0  0  0  0  0  0  0  0  0  0  0
    5.6552  -13.6325   26.1130 C   0  0  0  0  0  0  0  0  0  0  0  0
    4.9936  -14.3936   25.1639 O   0  0  0  0  0  0  0  0  0  0  0  0
    4.9930  -13.1131   27.0297 O   0  0  0  0  0  0  0  0  0  0  0  0
  2  3  2  0
  2  1  1  0
  4  3  1  0
  5  4  2  0
  6  5  1  0
  7  6  1  0
  7  9  1  0
  7  8  1  6
  9 16  1  0
  9 10  2  0
 11  5  1  0
 11 12  2  0
 12  2  1  0
 13 14  1  0
 15 14  1  6
 16 15  1  0
 17 15  1  0
 17 18  2  0
 20 19  1  1
 20 21  1  0
 20 22  1  0
 22 23  1  6
 23 17  1  0
 24 22  1  0
 25 24  1  0
 26 24  2  0
M  END
$$$$
