YSV.pdb
     RDKit          3D

 26 26  0  0  1  0  0  0  0  0999 V2000
    5.0816  -10.5315   27.1011 O   0  0  0  0  0  0  0  0  0  0  0  0
    5.8953  -11.5309   26.5922 C   0  0  0  0  0  0  0  0  0  0  0  0
    6.6667  -12.2805   27.4449 C   0  0  0  0  0  0  0  0  0  0  0  0
    7.4825  -13.2837   26.9273 C   0  0  0  0  0  0  0  0  0  0  0  0
    7.5154  -13.5200   25.5841 C   0  0  0  0  0  0  0  0  0  0  0  0
    8.3914  -14.5956   25.0389 C   0  0  0  0  0  0  0  0  0  0  0  0
    7.5524  -15.7266   24.4543 C   0  0  2  0  0  0  0  0  0  0  0  0
    6.9503  -16.4159   25.5787 N   0  0  0  0  0  0  0  0  0  0  0  0
    8.4520  -16.6144   23.7064 C   0  0  0  0  0  0  0  0  0  0  0  0
    8.9384  -17.6124   24.3200 O   0  0  0  0  0  0  0  0  0  0  0  0
    6.7315  -12.7564   24.7295 C   0  0  0  0  0  0  0  0  0  0  0  0
    5.9207  -11.7623   25.2249 C   0  0  0  0  0  0  0  0  0  0  0  0
   10.2551  -15.5731   20.0483 O   0  0  0  0  0  0  0  0  0  0  0  0
    9.7993  -16.8646   20.1844 C   0  0  0  0  0  0  0  0  0  0  0  0
    9.6480  -17.2639   21.6604 C   0  0  2  0  0  0  0  0  0  0  0  0
    8.7618  -16.3589   22.3458 N   0  0  0  0  0  0  0  0  0  0  0  0
   11.0301  -17.1805   22.2272 C   0  0  0  0  0  0  0  0  0  0  0  0
   11.4299  -16.1387   22.8048 O   0  0  0  0  0  0  0  0  0  0  0  0
   14.5563  -19.8723   24.1209 C   0  0  0  0  0  0  0  0  0  0  0  0
   13.1474  -19.7107   23.5378 C   0  0  2  0  0  0  0  0  0  0  0  0
   12.7820  -20.8705   22.6693 C   0  0  0  0  0  0  0  0  0  0  0  0
   13.1685  -18.3977   22.7729 C   0  0  2  0  0  0  0  0  0  0  0  0
   11.8864  -18.2841   22.1089 N   0  0  0  0  0  0  0  0  0  0  0  0
   14.2214  -18.4124   21.7392 C   0  0  0  0  0  0  0  0  0  0  0  0
   13.9478  -18.8387   20.4503 O   0  0  0  0  0  0  0  0  0  0  0  0
   15.3770  -18.0399   22.0125 O   0  0  0  0  0  0  0  0  0  0  0  0
  2  3  2  0
  2  1  1  0
  4  3  1  0
  5  4  2  0
  6  5  1  0
  7  6  1  0
  7  9  1  0
  7  8  1  1
  9 16  1  0
  9 10  2  0
 11  5  1  0
 11 12  2  0
 12  2  1  0
 13 14  1  0
 15 14  1  6
 16 15  1  0
 17 15  1  0
 17 18  2  0
 20 19  1  6
 20 21  1  0
 20 22  1  0
 22 23  1  6
 23 17  1  0
 24 22  1  0
 25 24  1  0
 26 24  2  0
M  END
$$$$
