YSV.pdb
     RDKit          3D

 26 26  0  0  1  0  0  0  0  0999 V2000
   10.8140  -15.7239   29.2060 O   0  0  0  0  0  0  0  0  0  0  0  0
    9.6859  -16.1620   28.5310 C   0  0  0  0  0  0  0  0  0  0  0  0
    8.7518  -15.2513   28.1042 C   0  0  0  0  0  0  0  0  0  0  0  0
    7.6201  -15.6979   27.4263 C   0  0  0  0  0  0  0  0  0  0  0  0
    7.4406  -17.0292   27.1880 C   0  0  0  0  0  0  0  0  0  0  0  0
    6.2265  -17.4981   26.4618 C   0  0  0  0  0  0  0  0  0  0  0  0
    6.5488  -18.7218   25.6111 C   0  0  2  0  0  0  0  0  0  0  0  0
    7.3250  -19.6135   26.4504 N   0  0  0  0  0  0  0  0  0  0  0  0
    7.3283  -18.2710   24.4509 C   0  0  0  0  0  0  0  0  0  0  0  0
    8.0986  -19.1124   23.8962 O   0  0  0  0  0  0  0  0  0  0  0  0
    8.3911  -17.9427   27.6237 C   0  0  0  0  0  0  0  0  0  0  0  0
    9.5140  -17.5178   28.2944 C   0  0  0  0  0  0  0  0  0  0  0  0
    5.9689  -15.4230   22.1311 O   0  0  0  0  0  0  0  0  0  0  0  0
    7.0604  -16.1220   21.6684 C   0  0  0  0  0  0  0  0  0  0  0  0
    7.9855  -16.5597   22.8144 C   0  0  2  0  0  0  0  0  0  0  0  0
    7.2187  -16.9399   23.9726 N   0  0  0  0  0  0  0  0  0  0  0  0
    8.8294  -15.3602   23.1098 C   0  0  0  0  0  0  0  0  0  0  0  0
    8.4086  -14.2000   22.8736 O   0  0  0  0  0  0  0  0  0  0  0  0
    9.9550  -14.8185   26.3032 C   0  0  0  0  0  0  0  0  0  0  0  0
   10.2027  -13.7533   25.2283 C   0  0  2  0  0  0  0  0  0  0  0  0
    8.9199  -13.1519   24.7531 C   0  0  0  0  0  0  0  0  0  0  0  0
   10.9582  -14.4614   24.1160 C   0  0  2  0  0  0  0  0  0  0  0  0
   10.1070  -15.5400   23.6581 N   0  0  0  0  0  0  0  0  0  0  0  0
   12.2106  -15.0505   24.6281 C   0  0  0  0  0  0  0  0  0  0  0  0
   13.2747  -14.2468   25.0016 O   0  0  0  0  0  0  0  0  0  0  0  0
   12.3289  -16.2850   24.7323 O   0  0  0  0  0  0  0  0  0  0  0  0
  2  3  2  0
  2  1  1  0
  4  3  1  0
  5  4  2  0
  6  5  1  0
  7  6  1  0
  7  9  1  0
  7  8  1  1
  9 16  1  0
  9 10  2  0
 11  5  1  0
 11 12  2  0
 12  2  1  0
 13 14  1  0
 15 14  1  6
 16 15  1  0
 17 15  1  0
 17 18  2  0
 20 19  1  1
 20 21  1  0
 20 22  1  0
 22 23  1  1
 23 17  1  0
 24 22  1  0
 25 24  1  0
 26 24  2  0
M  END
$$$$
