CDS.pdb
     RDKit          3D

 21 20  0  0  1  0  0  0  0  0999 V2000
   19.5352  -17.6734  -17.6180 N   0  0  0  0  0  0  0  0  0  0  0  0
   18.7482  -16.4618  -17.5050 C   0  0  1  0  0  0  0  0  0  0  0  0
   17.9140  -16.5971  -16.2286 C   0  0  0  0  0  0  0  0  0  0  0  0
   17.0324  -15.0344  -15.9318 S   0  0  0  0  0  0  0  0  0  0  0  0
   19.6356  -15.2829  -17.3819 C   0  0  0  0  0  0  0  0  0  0  0  0
   20.8570  -15.4591  -17.1420 O   0  0  0  0  0  0  0  0  0  0  0  0
   19.1504  -13.9765  -17.5257 N   0  0  0  0  0  0  0  0  0  0  0  0
   20.1003  -12.8655  -17.5535 C   0  0  1  0  0  0  0  0  0  0  0  0
   21.0574  -13.0531  -18.7083 C   0  0  0  0  0  0  0  0  0  0  0  0
   22.0608  -12.0074  -18.8347 C   0  0  0  0  0  0  0  0  0  0  0  0
   21.8852  -11.0772  -19.6830 O   0  0  0  0  0  0  0  0  0  0  0  0
   19.2951  -11.6371  -17.6479 C   0  0  0  0  0  0  0  0  0  0  0  0
   18.3830  -11.5114  -18.5164 O   0  0  0  0  0  0  0  0  0  0  0  0
   23.2306  -11.9262  -18.0920 O   0  0  0  0  0  0  0  0  0  0  0  0
   18.4694   -9.4427  -14.5608 O   0  0  0  0  0  0  0  0  0  0  0  0
   18.8544   -8.5661  -15.5844 C   0  0  0  0  0  0  0  0  0  0  0  0
   18.6586   -9.3676  -16.8896 C   0  0  2  0  0  0  0  0  0  0  0  0
   19.4871  -10.5328  -16.7757 N   0  0  0  0  0  0  0  0  0  0  0  0
   19.0819   -8.4774  -17.9838 C   0  0  0  0  0  0  0  0  0  0  0  0
   18.3489   -7.3717  -18.3039 O   0  0  0  0  0  0  0  0  0  0  0  0
   20.1524   -8.7668  -18.6259 O   0  0  0  0  0  0  0  0  0  0  0  0
  2  5  1  0
  2  1  1  1
  3  2  1  0
  4  3  1  0
  5  6  2  0
  7  8  1  0
  7  5  1  0
  8 12  1  0
  9 10  1  0
  8  9  1  6
 10 14  1  0
 11 10  2  0
 12 13  2  0
 15 16  1  0
 17 16  1  1
 17 19  1  0
 18 17  1  0
 18 12  1  0
 19 21  2  0
 19 20  1  0
M  END
$$$$
