CDS.pdb
     RDKit          3D

 21 20  0  0  1  0  0  0  0  0999 V2000
   14.7021  -13.1970  -15.3754 N   0  0  0  0  0  0  0  0  0  0  0  0
   15.4287  -12.4356  -14.3792 C   0  0  1  0  0  0  0  0  0  0  0  0
   16.5012  -13.3677  -13.8098 C   0  0  0  0  0  0  0  0  0  0  0  0
   15.7307  -14.4813  -12.5959 S   0  0  0  0  0  0  0  0  0  0  0  0
   16.0856  -11.2658  -15.0058 C   0  0  0  0  0  0  0  0  0  0  0  0
   16.4892  -11.3542  -16.1931 O   0  0  0  0  0  0  0  0  0  0  0  0
   16.2693  -10.0633  -14.3108 N   0  0  0  0  0  0  0  0  0  0  0  0
   16.7734   -8.8962  -15.0325 C   0  0  1  0  0  0  0  0  0  0  0  0
   15.8574   -7.7195  -14.7847 C   0  0  0  0  0  0  0  0  0  0  0  0
   16.2522   -6.4955  -15.4646 C   0  0  0  0  0  0  0  0  0  0  0  0
   16.9564   -6.5706  -16.5201 O   0  0  0  0  0  0  0  0  0  0  0  0
   18.1505   -8.6819  -14.5591 C   0  0  0  0  0  0  0  0  0  0  0  0
   18.4457   -8.7621  -13.3308 O   0  0  0  0  0  0  0  0  0  0  0  0
   15.9216   -5.2106  -15.0566 O   0  0  0  0  0  0  0  0  0  0  0  0
   22.7347   -9.0114  -15.3408 O   0  0  0  0  0  0  0  0  0  0  0  0
   21.4680   -9.0049  -15.9407 C   0  0  0  0  0  0  0  0  0  0  0  0
   20.5589   -8.2548  -14.9431 C   0  0  2  0  0  0  0  0  0  0  0  0
   19.2206   -8.3813  -15.4430 N   0  0  0  0  0  0  0  0  0  0  0  0
   21.0286   -6.8590  -14.9313 C   0  0  0  0  0  0  0  0  0  0  0  0
   21.8714   -6.4170  -13.9532 O   0  0  0  0  0  0  0  0  0  0  0  0
   20.6268   -6.0725  -15.8596 O   0  0  0  0  0  0  0  0  0  0  0  0
  2  5  1  0
  2  1  1  6
  3  2  1  0
  4  3  1  0
  5  6  2  0
  7  8  1  0
  7  5  1  0
  8 12  1  0
  9 10  1  0
  8  9  1  1
 10 14  1  0
 11 10  2  0
 12 13  2  0
 15 16  1  0
 17 16  1  6
 17 19  1  0
 18 17  1  0
 18 12  1  0
 19 21  2  0
 19 20  1  0
M  END
$$$$
