CDS.pdb
     RDKit          3D

 21 20  0  0  1  0  0  0  0  0999 V2000
   15.6822  -13.2571  -14.1677 N   0  0  0  0  0  0  0  0  0  0  0  0
   15.2717  -11.8698  -14.2523 C   0  0  1  0  0  0  0  0  0  0  0  0
   13.7863  -11.8280  -13.8848 C   0  0  0  0  0  0  0  0  0  0  0  0
   12.8151  -12.4743  -15.2799 S   0  0  0  0  0  0  0  0  0  0  0  0
   16.0343  -11.0489  -13.2842 C   0  0  0  0  0  0  0  0  0  0  0  0
   16.4365  -11.5778  -12.2170 O   0  0  0  0  0  0  0  0  0  0  0  0
   16.3195   -9.6987  -13.5259 N   0  0  0  0  0  0  0  0  0  0  0  0
   17.1012   -8.9513  -12.5424 C   0  0  1  0  0  0  0  0  0  0  0  0
   18.1128   -8.0861  -13.2587 C   0  0  0  0  0  0  0  0  0  0  0  0
   18.8672   -7.1964  -12.3896 C   0  0  0  0  0  0  0  0  0  0  0  0
   19.7395   -7.6863  -11.6055 O   0  0  0  0  0  0  0  0  0  0  0  0
   16.1322   -8.1859  -11.7413 C   0  0  0  0  0  0  0  0  0  0  0  0
   15.2282   -7.4892  -12.2886 O   0  0  0  0  0  0  0  0  0  0  0  0
   18.7202   -5.8173  -12.3335 O   0  0  0  0  0  0  0  0  0  0  0  0
   13.7901   -9.1792   -9.2634 O   0  0  0  0  0  0  0  0  0  0  0  0
   14.5801   -8.2851   -8.5280 C   0  0  0  0  0  0  0  0  0  0  0  0
   15.2317   -7.3673   -9.5850 C   0  0  2  0  0  0  0  0  0  0  0  0
   16.1492   -8.1878  -10.3213 N   0  0  0  0  0  0  0  0  0  0  0  0
   15.9080   -6.2954   -8.8350 C   0  0  0  0  0  0  0  0  0  0  0  0
   17.2669   -6.1740   -8.8682 O   0  0  0  0  0  0  0  0  0  0  0  0
   15.1905   -5.4824   -8.1523 O   0  0  0  0  0  0  0  0  0  0  0  0
  2  5  1  0
  2  1  1  1
  3  2  1  0
  4  3  1  0
  5  6  2  0
  7  8  1  0
  7  5  1  0
  8 12  1  0
  9 10  1  0
  8  9  1  6
 10 14  1  0
 11 10  2  0
 12 13  2  0
 15 16  1  0
 17 16  1  1
 17 19  1  0
 18 17  1  0
 18 12  1  0
 19 21  2  0
 19 20  1  0
M  END
$$$$
