CDS.pdb
     RDKit          3D

 21 20  0  0  1  0  0  0  0  0999 V2000
   21.5148  -13.8364  -16.9573 N   0  0  0  0  0  0  0  0  0  0  0  0
   22.1999  -12.5889  -17.2303 C   0  0  1  0  0  0  0  0  0  0  0  0
   22.5632  -12.6034  -18.7173 C   0  0  0  0  0  0  0  0  0  0  0  0
   23.7020  -13.9857  -19.0328 S   0  0  0  0  0  0  0  0  0  0  0  0
   21.3036  -11.4415  -16.9610 C   0  0  0  0  0  0  0  0  0  0  0  0
   20.0676  -11.5737  -17.1486 O   0  0  0  0  0  0  0  0  0  0  0  0
   21.7963  -10.2126  -16.5028 N   0  0  0  0  0  0  0  0  0  0  0  0
   20.8508   -9.1495  -16.1671 C   0  0  1  0  0  0  0  0  0  0  0  0
   19.8535   -9.6665  -15.1556 C   0  0  0  0  0  0  0  0  0  0  0  0
   18.9582   -8.6526  -14.6202 C   0  0  0  0  0  0  0  0  0  0  0  0
   17.9678   -8.2675  -15.3178 O   0  0  0  0  0  0  0  0  0  0  0  0
   21.6574   -8.0203  -15.6765 C   0  0  0  0  0  0  0  0  0  0  0  0
   22.5309   -8.1767  -14.7740 O   0  0  0  0  0  0  0  0  0  0  0  0
   19.0868   -8.0459  -13.3784 O   0  0  0  0  0  0  0  0  0  0  0  0
   22.9027   -3.4161  -16.1207 O   0  0  0  0  0  0  0  0  0  0  0  0
   21.9647   -4.3836  -16.5062 C   0  0  0  0  0  0  0  0  0  0  0  0
   22.3143   -5.6330  -15.6690 C   0  0  2  0  0  0  0  0  0  0  0  0
   21.5098   -6.7025  -16.1849 N   0  0  0  0  0  0  0  0  0  0  0  0
   21.9816   -5.2971  -14.2742 C   0  0  0  0  0  0  0  0  0  0  0  0
   20.6906   -5.3501  -13.8350 O   0  0  0  0  0  0  0  0  0  0  0  0
   22.9320   -4.9545  -13.4860 O   0  0  0  0  0  0  0  0  0  0  0  0
  2  5  1  0
  2  1  1  6
  3  2  1  0
  4  3  1  0
  5  6  2  0
  7  8  1  0
  7  5  1  0
  8 12  1  0
  9 10  1  0
  8  9  1  1
 10 14  1  0
 11 10  2  0
 12 13  2  0
 15 16  1  0
 17 16  1  6
 17 19  1  0
 18 17  1  0
 18 12  1  0
 19 21  2  0
 19 20  1  0
M  END
$$$$
