CDS.pdb
     RDKit          3D

 21 20  0  0  1  0  0  0  0  0999 V2000
   17.5627  -12.2312  -15.6587 N   0  0  0  0  0  0  0  0  0  0  0  0
   17.5151  -10.8393  -16.0594 C   0  0  1  0  0  0  0  0  0  0  0  0
   16.4735  -10.1604  -15.1664 C   0  0  0  0  0  0  0  0  0  0  0  0
   16.3289   -8.4138  -15.6518 S   0  0  0  0  0  0  0  0  0  0  0  0
   18.8319  -10.1976  -15.8430 C   0  0  0  0  0  0  0  0  0  0  0  0
   19.4334  -10.3872  -14.7554 O   0  0  0  0  0  0  0  0  0  0  0  0
   19.4253   -9.3849  -16.8178 N   0  0  0  0  0  0  0  0  0  0  0  0
   20.7683   -8.8583  -16.5814 C   0  0  1  0  0  0  0  0  0  0  0  0
   21.5403   -8.8520  -17.8810 C   0  0  0  0  0  0  0  0  0  0  0  0
   21.8561  -10.1737  -18.4002 C   0  0  0  0  0  0  0  0  0  0  0  0
   21.3826  -10.5287  -19.5252 O   0  0  0  0  0  0  0  0  0  0  0  0
   20.5890   -7.5202  -15.9951 C   0  0  0  0  0  0  0  0  0  0  0  0
   19.7708   -6.6890  -16.4866 O   0  0  0  0  0  0  0  0  0  0  0  0
   22.6521  -11.1153  -17.7627 O   0  0  0  0  0  0  0  0  0  0  0  0
   21.8310   -6.8372  -12.3794 O   0  0  0  0  0  0  0  0  0  0  0  0
   20.8594   -5.9271  -12.8176 C   0  0  0  0  0  0  0  0  0  0  0  0
   21.1194   -5.7651  -14.3310 C   0  0  2  0  0  0  0  0  0  0  0  0
   21.3113   -7.0878  -14.8514 N   0  0  0  0  0  0  0  0  0  0  0  0
   22.3260   -4.9294  -14.4517 C   0  0  0  0  0  0  0  0  0  0  0  0
   22.3149   -3.6283  -14.0400 O   0  0  0  0  0  0  0  0  0  0  0  0
   23.3832   -5.4531  -14.9518 O   0  0  0  0  0  0  0  0  0  0  0  0
  2  5  1  0
  2  1  1  1
  3  2  1  0
  4  3  1  0
  5  6  2  0
  7  8  1  0
  7  5  1  0
  8 12  1  0
  9 10  1  0
  8  9  1  6
 10 14  1  0
 11 10  2  0
 12 13  2  0
 15 16  1  0
 17 16  1  1
 17 19  1  0
 18 17  1  0
 18 12  1  0
 19 21  2  0
 19 20  1  0
M  END
$$$$
