CDS.pdb
     RDKit          3D

 21 20  0  0  1  0  0  0  0  0999 V2000
   19.0434  -12.8406  -15.9059 N   0  0  0  0  0  0  0  0  0  0  0  0
   18.6417  -11.4948  -16.2632 C   0  0  1  0  0  0  0  0  0  0  0  0
   17.6865  -11.0157  -15.1671 C   0  0  0  0  0  0  0  0  0  0  0  0
   16.0913  -11.8670  -15.3615 S   0  0  0  0  0  0  0  0  0  0  0  0
   19.8214  -10.6008  -16.3035 C   0  0  0  0  0  0  0  0  0  0  0  0
   20.6986  -10.7049  -15.4090 O   0  0  0  0  0  0  0  0  0  0  0  0
   19.9860   -9.6422  -17.3119 N   0  0  0  0  0  0  0  0  0  0  0  0
   21.2003   -8.8282  -17.3261 C   0  0  1  0  0  0  0  0  0  0  0  0
   21.5832   -8.5241  -18.7564 C   0  0  0  0  0  0  0  0  0  0  0  0
   22.7964   -7.7344  -18.9001 C   0  0  0  0  0  0  0  0  0  0  0  0
   23.0162   -7.1268  -19.9948 O   0  0  0  0  0  0  0  0  0  0  0  0
   20.9017   -7.6286  -16.5273 C   0  0  0  0  0  0  0  0  0  0  0  0
   19.8110   -7.0008  -16.6626 O   0  0  0  0  0  0  0  0  0  0  0  0
   23.7692   -7.5760  -17.9227 O   0  0  0  0  0  0  0  0  0  0  0  0
   21.9565   -4.8912  -12.7643 O   0  0  0  0  0  0  0  0  0  0  0  0
   22.3101   -6.0328  -13.4965 C   0  0  0  0  0  0  0  0  0  0  0  0
   21.4536   -5.9639  -14.7795 C   0  0  2  0  0  0  0  0  0  0  0  0
   21.8072   -7.1121  -15.5628 N   0  0  0  0  0  0  0  0  0  0  0  0
   21.8087   -4.6969  -15.4410 C   0  0  0  0  0  0  0  0  0  0  0  0
   20.9907   -3.6088  -15.3446 O   0  0  0  0  0  0  0  0  0  0  0  0
   22.9018   -4.6423  -16.1075 O   0  0  0  0  0  0  0  0  0  0  0  0
  2  5  1  0
  2  1  1  1
  3  2  1  0
  4  3  1  0
  5  6  2  0
  7  8  1  0
  7  5  1  0
  8 12  1  0
  9 10  1  0
  8  9  1  6
 10 14  1  0
 11 10  2  0
 12 13  2  0
 15 16  1  0
 17 16  1  1
 17 19  1  0
 18 17  1  0
 18 12  1  0
 19 21  2  0
 19 20  1  0
M  END
$$$$
