YHT.pdb
     RDKit          3D

 30 31  0  0  1  0  0  0  0  0999 V2000
    5.6056  -10.3791   27.5687 O   0  0  0  0  0  0  0  0  0  0  0  0
    6.0958  -11.5631   27.0698 C   0  0  0  0  0  0  0  0  0  0  0  0
    5.5035  -12.7435   27.4524 C   0  0  0  0  0  0  0  0  0  0  0  0
    5.9758  -13.9215   26.9685 C   0  0  0  0  0  0  0  0  0  0  0  0
    7.0426  -13.9382   26.0987 C   0  0  0  0  0  0  0  0  0  0  0  0
    7.5851  -15.2102   25.5545 C   0  0  0  0  0  0  0  0  0  0  0  0
    7.1073  -15.4653   24.1461 C   0  0  2  0  0  0  0  0  0  0  0  0
    5.9866  -16.4121   24.2927 N   0  0  0  0  0  0  0  0  0  0  0  0
    8.1150  -16.0491   23.2622 C   0  0  0  0  0  0  0  0  0  0  0  0
    8.2467  -17.2998   23.2457 O   0  0  0  0  0  0  0  0  0  0  0  0
    7.6408  -12.7686   25.7104 C   0  0  0  0  0  0  0  0  0  0  0  0
    7.1706  -11.5685   26.1944 C   0  0  0  0  0  0  0  0  0  0  0  0
    8.9723  -15.3205   22.4030 N   0  0  0  0  0  0  0  0  0  0  0  0
    9.9737  -15.9241   21.5458 C   0  0  1  0  0  0  0  0  0  0  0  0
   10.3779  -14.9757   20.4385 C   0  0  0  0  0  0  0  0  0  0  0  0
    9.2370  -14.6502   19.5495 C   0  0  0  0  0  0  0  0  0  0  0  0
    7.9561  -15.1952   19.6114 C   0  0  0  0  0  0  0  0  0  0  0  0
    7.1798  -14.6755   18.6595 N   0  0  0  0  0  0  0  0  0  0  0  0
    7.9491  -13.7977   17.9816 C   0  0  0  0  0  0  0  0  0  0  0  0
    9.1838  -13.7865   18.5204 N   0  0  0  0  0  0  0  0  0  0  0  0
   11.0708  -16.4274   22.3424 C   0  0  0  0  0  0  0  0  0  0  0  0
   11.9638  -15.5815   22.7012 O   0  0  0  0  0  0  0  0  0  0  0  0
   11.2096  -18.8313   25.6216 C   0  0  0  0  0  0  0  0  0  0  0  0
   12.1372  -19.2581   24.5311 C   0  0  1  0  0  0  0  0  0  0  0  0
   11.5246  -20.3095   23.8429 O   0  0  0  0  0  0  0  0  0  0  0  0
   12.4585  -18.1450   23.5557 C   0  0  2  0  0  0  0  0  0  0  0  0
   11.3037  -17.7461   22.7929 N   0  0  0  0  0  0  0  0  0  0  0  0
   13.6628  -18.4098   22.7664 C   0  0  0  0  0  0  0  0  0  0  0  0
   13.6907  -18.4207   21.5084 O   0  0  0  0  0  0  0  0  0  0  0  0
   14.8801  -18.6723   23.3803 O   0  0  0  0  0  0  0  0  0  0  0  0
  2  1  1  0
  3  2  2  0
  4  3  1  0
  5 11  1  0
  5  4  2  0
  6  5  1  0
  7  9  1  0
  7  6  1  0
  7  8  1  1
  9 10  2  0
 11 12  2  0
 12  2  1  0
 13 14  1  0
 13  9  1  0
 14 15  1  6
 15 16  1  0
 16 17  2  0
 17 18  1  0
 19 18  1  0
 20 16  1  0
 20 19  2  0
 21 14  1  0
 22 21  2  0
 24 23  1  1
 24 26  1  0
 25 24  1  0
 26 28  1  0
 26 27  1  6
 27 21  1  0
 28 30  1  0
 29 28  2  0
M  END
$$$$
