YHT.pdb
     RDKit          3D

 30 31  0  0  1  0  0  0  0  0999 V2000
    7.4865  -12.1530   17.1863 O   0  0  0  0  0  0  0  0  0  0  0  0
    7.7572  -12.7669   18.3867 C   0  0  0  0  0  0  0  0  0  0  0  0
    6.7093  -13.1893   19.1704 C   0  0  0  0  0  0  0  0  0  0  0  0
    6.9598  -13.7973   20.3588 C   0  0  0  0  0  0  0  0  0  0  0  0
    8.2556  -13.9919   20.7808 C   0  0  0  0  0  0  0  0  0  0  0  0
    8.5629  -14.6504   22.0770 C   0  0  0  0  0  0  0  0  0  0  0  0
    9.2683  -15.9699   21.8812 C   0  0  2  0  0  0  0  0  0  0  0  0
    8.3132  -16.8007   21.1254 N   0  0  0  0  0  0  0  0  0  0  0  0
    9.6224  -16.6564   23.1225 C   0  0  0  0  0  0  0  0  0  0  0  0
    8.7018  -17.1727   23.8065 O   0  0  0  0  0  0  0  0  0  0  0  0
    9.3077  -13.5753   20.0087 C   0  0  0  0  0  0  0  0  0  0  0  0
    9.0658  -12.9578   18.8021 C   0  0  0  0  0  0  0  0  0  0  0  0
   10.9345  -16.7986   23.6346 N   0  0  0  0  0  0  0  0  0  0  0  0
   11.2669  -17.5476   24.8307 C   0  0  1  0  0  0  0  0  0  0  0  0
   12.5117  -18.3804   24.6166 C   0  0  0  0  0  0  0  0  0  0  0  0
   12.2821  -19.4713   23.6394 C   0  0  0  0  0  0  0  0  0  0  0  0
   11.1046  -20.1965   23.4680 C   0  0  0  0  0  0  0  0  0  0  0  0
   11.2494  -21.1023   22.4999 N   0  0  0  0  0  0  0  0  0  0  0  0
   12.5125  -20.9689   22.0431 C   0  0  0  0  0  0  0  0  0  0  0  0
   13.1282  -19.9878   22.7310 N   0  0  0  0  0  0  0  0  0  0  0  0
   11.3204  -16.6615   25.9724 C   0  0  0  0  0  0  0  0  0  0  0  0
   12.1976  -15.7282   25.9426 O   0  0  0  0  0  0  0  0  0  0  0  0
    9.8106  -13.7540   27.4220 C   0  0  0  0  0  0  0  0  0  0  0  0
    9.7739  -14.7844   28.5031 C   0  0  1  0  0  0  0  0  0  0  0  0
    8.4938  -15.3462   28.5080 O   0  0  0  0  0  0  0  0  0  0  0  0
   10.7987  -15.8829   28.3111 C   0  0  2  0  0  0  0  0  0  0  0  0
   10.5258  -16.6766   27.1407 N   0  0  0  0  0  0  0  0  0  0  0  0
   11.0505  -16.6466   29.5345 C   0  0  0  0  0  0  0  0  0  0  0  0
   10.9721  -17.9004   29.6094 O   0  0  0  0  0  0  0  0  0  0  0  0
   11.4007  -16.0112   30.7182 O   0  0  0  0  0  0  0  0  0  0  0  0
  2  1  1  0
  3  2  2  0
  4  3  1  0
  5 11  1  0
  5  4  2  0
  6  5  1  0
  7  9  1  0
  7  6  1  0
  7  8  1  6
  9 10  2  0
 11 12  2  0
 12  2  1  0
 13 14  1  0
 13  9  1  0
 14 15  1  6
 15 16  1  0
 16 17  2  0
 17 18  1  0
 19 18  1  0
 20 16  1  0
 20 19  2  0
 21 14  1  0
 22 21  2  0
 24 23  1  6
 24 26  1  0
 25 24  1  0
 26 28  1  0
 26 27  1  6
 27 21  1  0
 28 30  1  0
 29 28  2  0
M  END
$$$$
