YHT.pdb
     RDKit          3D

 30 31  0  0  1  0  0  0  0  0999 V2000
   11.5407  -15.0433   29.2246 O   0  0  0  0  0  0  0  0  0  0  0  0
   10.5144  -14.7225   28.3673 C   0  0  0  0  0  0  0  0  0  0  0  0
    9.2584  -14.5054   28.8831 C   0  0  0  0  0  0  0  0  0  0  0  0
    8.2341  -14.1877   28.0496 C   0  0  0  0  0  0  0  0  0  0  0  0
    8.4479  -14.0823   26.6938 C   0  0  0  0  0  0  0  0  0  0  0  0
    7.3478  -13.7399   25.7553 C   0  0  0  0  0  0  0  0  0  0  0  0
    6.7945  -14.9655   25.0707 C   0  0  2  0  0  0  0  0  0  0  0  0
    6.5795  -15.9402   26.1558 N   0  0  0  0  0  0  0  0  0  0  0  0
    7.6837  -15.5521   24.0692 C   0  0  0  0  0  0  0  0  0  0  0  0
    7.6501  -16.7968   23.8923 O   0  0  0  0  0  0  0  0  0  0  0  0
    9.6948  -14.2963   26.1685 C   0  0  0  0  0  0  0  0  0  0  0  0
   10.7408  -14.6190   27.0037 C   0  0  0  0  0  0  0  0  0  0  0  0
    8.5964  -14.8318   23.2616 N   0  0  0  0  0  0  0  0  0  0  0  0
    9.4033  -15.4257   22.2136 C   0  0  1  0  0  0  0  0  0  0  0  0
    9.7146  -14.4129   21.1336 C   0  0  0  0  0  0  0  0  0  0  0  0
    8.5644  -14.2124   20.2199 C   0  0  0  0  0  0  0  0  0  0  0  0
    7.3462  -14.8876   20.2601 C   0  0  0  0  0  0  0  0  0  0  0  0
    6.5397  -14.4562   19.2895 N   0  0  0  0  0  0  0  0  0  0  0  0
    7.2271  -13.5063   18.6209 C   0  0  0  0  0  0  0  0  0  0  0  0
    8.4427  -13.3640   19.1841 N   0  0  0  0  0  0  0  0  0  0  0  0
   10.5616  -16.0749   22.7867 C   0  0  0  0  0  0  0  0  0  0  0  0
   11.3838  -15.3329   23.4309 O   0  0  0  0  0  0  0  0  0  0  0  0
   10.8983  -19.3531   25.1264 C   0  0  0  0  0  0  0  0  0  0  0  0
   11.8229  -19.3682   23.9530 C   0  0  1  0  0  0  0  0  0  0  0  0
   11.2381  -20.1655   22.9647 O   0  0  0  0  0  0  0  0  0  0  0  0
   12.0868  -17.9882   23.3876 C   0  0  2  0  0  0  0  0  0  0  0  0
   10.9238  -17.4397   22.7385 N   0  0  0  0  0  0  0  0  0  0  0  0
   13.3236  -17.9198   22.6073 C   0  0  0  0  0  0  0  0  0  0  0  0
   13.3800  -17.5318   21.4115 O   0  0  0  0  0  0  0  0  0  0  0  0
   14.5422  -18.2908   23.1594 O   0  0  0  0  0  0  0  0  0  0  0  0
  2  1  1  0
  3  2  2  0
  4  3  1  0
  5 11  1  0
  5  4  2  0
  6  5  1  0
  7  9  1  0
  7  6  1  0
  7  8  1  1
  9 10  2  0
 11 12  2  0
 12  2  1  0
 13 14  1  0
 13  9  1  0
 14 15  1  6
 15 16  1  0
 16 17  2  0
 17 18  1  0
 19 18  1  0
 20 16  1  0
 20 19  2  0
 21 14  1  0
 22 21  2  0
 24 23  1  1
 24 26  1  0
 25 24  1  0
 26 28  1  0
 26 27  1  6
 27 21  1  0
 28 30  1  0
 29 28  2  0
M  END
$$$$
