YHT.pdb
     RDKit          3D

 30 31  0  0  1  0  0  0  0  0999 V2000
    8.4101  -13.4206   15.8648 O   0  0  0  0  0  0  0  0  0  0  0  0
    8.1019  -13.6978   17.1761 C   0  0  0  0  0  0  0  0  0  0  0  0
    8.6357  -14.8210   17.7629 C   0  0  0  0  0  0  0  0  0  0  0  0
    8.3412  -15.1089   19.0572 C   0  0  0  0  0  0  0  0  0  0  0  0
    7.5124  -14.2827   19.7821 C   0  0  0  0  0  0  0  0  0  0  0  0
    7.1679  -14.5718   21.1984 C   0  0  0  0  0  0  0  0  0  0  0  0
    6.9106  -16.0416   21.4230 C   0  0  2  0  0  0  0  0  0  0  0  0
    5.5664  -16.2796   20.8661 N   0  0  0  0  0  0  0  0  0  0  0  0
    6.9269  -16.4508   22.8266 C   0  0  0  0  0  0  0  0  0  0  0  0
    5.8603  -16.3687   23.4880 O   0  0  0  0  0  0  0  0  0  0  0  0
    6.9746  -13.1610   19.2081 C   0  0  0  0  0  0  0  0  0  0  0  0
    7.2662  -12.8591   17.8968 C   0  0  0  0  0  0  0  0  0  0  0  0
    8.0563  -16.9438   23.5233 N   0  0  0  0  0  0  0  0  0  0  0  0
    8.0579  -17.2953   24.9298 C   0  0  1  0  0  0  0  0  0  0  0  0
    8.5111  -18.7252   25.1275 C   0  0  0  0  0  0  0  0  0  0  0  0
    8.5977  -19.0809   26.5641 C   0  0  0  0  0  0  0  0  0  0  0  0
    7.6584  -18.7843   27.5497 C   0  0  0  0  0  0  0  0  0  0  0  0
    8.0567  -19.2544   28.7326 N   0  0  0  0  0  0  0  0  0  0  0  0
    9.2474  -19.8534   28.5199 C   0  0  0  0  0  0  0  0  0  0  0  0
    9.5675  -19.7462   27.2157 N   0  0  0  0  0  0  0  0  0  0  0  0
    8.8039  -16.3139   25.6860 C   0  0  0  0  0  0  0  0  0  0  0  0
    9.9525  -15.9784   25.2280 O   0  0  0  0  0  0  0  0  0  0  0  0
    8.3198  -12.6498   26.5251 C   0  0  0  0  0  0  0  0  0  0  0  0
    8.5898  -13.3880   27.7955 C   0  0  1  0  0  0  0  0  0  0  0  0
    7.3611  -13.6103   28.4242 O   0  0  0  0  0  0  0  0  0  0  0  0
    9.2831  -14.7162   27.5743 C   0  0  2  0  0  0  0  0  0  0  0  0
    8.4395  -15.6564   26.8823 N   0  0  0  0  0  0  0  0  0  0  0  0
    9.9250  -15.2319   28.7849 C   0  0  0  0  0  0  0  0  0  0  0  0
    9.7192  -16.3810   29.2549 O   0  0  0  0  0  0  0  0  0  0  0  0
   10.8248  -14.4583   29.5054 O   0  0  0  0  0  0  0  0  0  0  0  0
  2  1  1  0
  3  2  2  0
  4  3  1  0
  5 11  1  0
  5  4  2  0
  6  5  1  0
  7  9  1  0
  7  6  1  0
  7  8  1  1
  9 10  2  0
 11 12  2  0
 12  2  1  0
 13 14  1  0
 13  9  1  0
 14 15  1  6
 15 16  1  0
 16 17  2  0
 17 18  1  0
 19 18  1  0
 20 16  1  0
 20 19  2  0
 21 14  1  0
 22 21  2  0
 24 23  1  6
 24 26  1  0
 25 24  1  0
 26 28  1  0
 26 27  1  1
 27 21  1  0
 28 30  1  0
 29 28  2  0
M  END
$$$$
