YHT.pdb
     RDKit          3D

 30 31  0  0  1  0  0  0  0  0999 V2000
    7.4485  -11.3648   17.9233 O   0  0  0  0  0  0  0  0  0  0  0  0
    7.8537  -12.3342   18.8105 C   0  0  0  0  0  0  0  0  0  0  0  0
    9.1995  -12.5420   19.0018 C   0  0  0  0  0  0  0  0  0  0  0  0
    9.6160  -13.4956   19.8746 C   0  0  0  0  0  0  0  0  0  0  0  0
    8.6985  -14.2532   20.5669 C   0  0  0  0  0  0  0  0  0  0  0  0
    9.1219  -15.3064   21.5259 C   0  0  0  0  0  0  0  0  0  0  0  0
    9.6546  -16.5274   20.8170 C   0  0  2  0  0  0  0  0  0  0  0  0
    8.4888  -17.0967   20.1166 N   0  0  0  0  0  0  0  0  0  0  0  0
   10.2230  -17.5415   21.7036 C   0  0  0  0  0  0  0  0  0  0  0  0
    9.4390  -18.2464   22.3895 O   0  0  0  0  0  0  0  0  0  0  0  0
    7.3552  -14.0553   20.3846 C   0  0  0  0  0  0  0  0  0  0  0  0
    6.9213  -13.0914   19.5024 C   0  0  0  0  0  0  0  0  0  0  0  0
   11.6038  -17.8103   21.8620 N   0  0  0  0  0  0  0  0  0  0  0  0
   12.1396  -18.8488   22.7203 C   0  0  1  0  0  0  0  0  0  0  0  0
   13.5061  -19.2900   22.2437 C   0  0  0  0  0  0  0  0  0  0  0  0
   14.1128  -20.2855   23.1595 C   0  0  0  0  0  0  0  0  0  0  0  0
   15.2683  -20.1166   23.9198 C   0  0  0  0  0  0  0  0  0  0  0  0
   15.5257  -21.2152   24.6307 N   0  0  0  0  0  0  0  0  0  0  0  0
   14.5449  -22.0946   24.3362 C   0  0  0  0  0  0  0  0  0  0  0  0
   13.6991  -21.5309   23.4521 N   0  0  0  0  0  0  0  0  0  0  0  0
   12.0879  -18.4262   24.1024 C   0  0  0  0  0  0  0  0  0  0  0  0
   12.7771  -17.3940   24.4203 O   0  0  0  0  0  0  0  0  0  0  0  0
    9.2120  -19.5317   27.0769 C   0  0  0  0  0  0  0  0  0  0  0  0
   10.0857  -18.3221   27.1490 C   0  0  1  0  0  0  0  0  0  0  0  0
   10.2331  -17.9873   28.4983 O   0  0  0  0  0  0  0  0  0  0  0  0
   11.4542  -18.5412   26.5382 C   0  0  2  0  0  0  0  0  0  0  0  0
   11.3696  -18.9997   25.1754 N   0  0  0  0  0  0  0  0  0  0  0  0
   12.3446  -19.3195   27.4011 C   0  0  0  0  0  0  0  0  0  0  0  0
   12.9359  -20.3691   27.0372 O   0  0  0  0  0  0  0  0  0  0  0  0
   12.5949  -18.9318   28.7105 O   0  0  0  0  0  0  0  0  0  0  0  0
  2  1  1  0
  3  2  2  0
  4  3  1  0
  5 11  1  0
  5  4  2  0
  6  5  1  0
  7  9  1  0
  7  6  1  0
  7  8  1  1
  9 10  2  0
 11 12  2  0
 12  2  1  0
 13 14  1  0
 13  9  1  0
 14 15  1  6
 15 16  1  0
 16 17  2  0
 17 18  1  0
 19 18  1  0
 20 16  1  0
 20 19  2  0
 21 14  1  0
 22 21  2  0
 24 23  1  1
 24 26  1  0
 25 24  1  0
 26 28  1  0
 26 27  1  6
 27 21  1  0
 28 30  1  0
 29 28  2  0
M  END
$$$$
