YHT.pdb
     RDKit          3D

 30 31  0  0  1  0  0  0  0  0999 V2000
    7.5138  -12.2656   23.7854 O   0  0  0  0  0  0  0  0  0  0  0  0
    7.4371  -12.9516   22.5960 C   0  0  0  0  0  0  0  0  0  0  0  0
    7.9696  -12.3827   21.4631 C   0  0  0  0  0  0  0  0  0  0  0  0
    7.9020  -13.0474   20.2805 C   0  0  0  0  0  0  0  0  0  0  0  0
    7.3039  -14.2854   20.2118 C   0  0  0  0  0  0  0  0  0  0  0  0
    7.2107  -15.0363   18.9329 C   0  0  0  0  0  0  0  0  0  0  0  0
    8.4633  -15.8317   18.6583 C   0  0  2  0  0  0  0  0  0  0  0  0
    8.1309  -16.6696   17.4915 N   0  0  0  0  0  0  0  0  0  0  0  0
    8.8868  -16.6929   19.7613 C   0  0  0  0  0  0  0  0  0  0  0  0
    8.2507  -17.7577   19.9696 O   0  0  0  0  0  0  0  0  0  0  0  0
    6.7699  -14.8621   21.3338 C   0  0  0  0  0  0  0  0  0  0  0  0
    6.8326  -14.1977   22.5381 C   0  0  0  0  0  0  0  0  0  0  0  0
    9.9717  -16.4339   20.6330 N   0  0  0  0  0  0  0  0  0  0  0  0
   10.3924  -17.3226   21.6985 C   0  0  1  0  0  0  0  0  0  0  0  0
   11.8568  -17.6763   21.5588 C   0  0  0  0  0  0  0  0  0  0  0  0
   12.0851  -18.6507   20.4651 C   0  0  0  0  0  0  0  0  0  0  0  0
   12.8925  -18.4653   19.3447 C   0  0  0  0  0  0  0  0  0  0  0  0
   12.8675  -19.5473   18.5654 N   0  0  0  0  0  0  0  0  0  0  0  0
   12.0495  -20.4323   19.1733 C   0  0  0  0  0  0  0  0  0  0  0  0
   11.5824  -19.8886   20.3139 N   0  0  0  0  0  0  0  0  0  0  0  0
   10.0235  -16.7680   22.9822 C   0  0  0  0  0  0  0  0  0  0  0  0
   10.5665  -15.6553   23.3118 O   0  0  0  0  0  0  0  0  0  0  0  0
    6.9289  -15.4366   24.7715 C   0  0  0  0  0  0  0  0  0  0  0  0
    7.5495  -16.4845   25.6367 C   0  0  1  0  0  0  0  0  0  0  0  0
    6.8008  -17.6554   25.4848 O   0  0  0  0  0  0  0  0  0  0  0  0
    8.9942  -16.7681   25.2819 C   0  0  2  0  0  0  0  0  0  0  0  0
    9.1296  -17.2873   23.9453 N   0  0  0  0  0  0  0  0  0  0  0  0
    9.6960  -17.5286   26.3175 C   0  0  0  0  0  0  0  0  0  0  0  0
   10.3168  -18.6019   26.1027 O   0  0  0  0  0  0  0  0  0  0  0  0
    9.7167  -17.0954   27.6364 O   0  0  0  0  0  0  0  0  0  0  0  0
  2  1  1  0
  3  2  2  0
  4  3  1  0
  5 11  1  0
  5  4  2  0
  6  5  1  0
  7  9  1  0
  7  6  1  0
  7  8  1  6
  9 10  2  0
 11 12  2  0
 12  2  1  0
 13 14  1  0
 13  9  1  0
 14 15  1  1
 15 16  1  0
 16 17  2  0
 17 18  1  0
 19 18  1  0
 20 16  1  0
 20 19  2  0
 21 14  1  0
 22 21  2  0
 24 23  1  6
 24 26  1  0
 25 24  1  0
 26 28  1  0
 26 27  1  6
 27 21  1  0
 28 30  1  0
 29 28  2  0
M  END
$$$$
