YHT.pdb
     RDKit          3D

 30 31  0  0  1  0  0  0  0  0999 V2000
    8.4634  -11.3527   17.5167 O   0  0  0  0  0  0  0  0  0  0  0  0
    8.1765  -12.4700   18.2653 C   0  0  0  0  0  0  0  0  0  0  0  0
    7.1477  -12.4157   19.1760 C   0  0  0  0  0  0  0  0  0  0  0  0
    6.8517  -13.5107   19.9231 C   0  0  0  0  0  0  0  0  0  0  0  0
    7.5757  -14.6718   19.7726 C   0  0  0  0  0  0  0  0  0  0  0  0
    7.2792  -15.8854   20.5772 C   0  0  0  0  0  0  0  0  0  0  0  0
    8.0925  -17.0718   20.1211 C   0  0  2  0  0  0  0  0  0  0  0  0
    7.0994  -18.0455   19.6318 N   0  0  0  0  0  0  0  0  0  0  0  0
    8.8960  -17.6943   21.1721 C   0  0  0  0  0  0  0  0  0  0  0  0
    8.3410  -18.5187   21.9430 O   0  0  0  0  0  0  0  0  0  0  0  0
    8.6029  -14.7377   18.8685 C   0  0  0  0  0  0  0  0  0  0  0  0
    8.9120  -13.6340   18.1057 C   0  0  0  0  0  0  0  0  0  0  0  0
   10.2710  -17.4510   21.4049 N   0  0  0  0  0  0  0  0  0  0  0  0
   11.0503  -18.0993   22.4413 C   0  0  1  0  0  0  0  0  0  0  0  0
   12.5037  -18.2072   22.0350 C   0  0  0  0  0  0  0  0  0  0  0  0
   12.6980  -19.1923   20.9442 C   0  0  0  0  0  0  0  0  0  0  0  0
   12.3018  -20.5282   20.9534 C   0  0  0  0  0  0  0  0  0  0  0  0
   12.6351  -21.1231   19.8072 N   0  0  0  0  0  0  0  0  0  0  0  0
   13.2443  -20.1818   19.0558 C   0  0  0  0  0  0  0  0  0  0  0  0
   13.2793  -19.0240   19.7436 N   0  0  0  0  0  0  0  0  0  0  0  0
   10.8240  -17.4486   23.7129 C   0  0  0  0  0  0  0  0  0  0  0  0
   11.6266  -16.5022   24.0319 O   0  0  0  0  0  0  0  0  0  0  0  0
    8.0398  -15.3460   25.1423 C   0  0  0  0  0  0  0  0  0  0  0  0
    8.3542  -16.4106   26.1421 C   0  0  1  0  0  0  0  0  0  0  0  0
    7.3773  -17.4035   26.0232 O   0  0  0  0  0  0  0  0  0  0  0  0
    9.7211  -17.0303   25.9392 C   0  0  2  0  0  0  0  0  0  0  0  0
    9.8223  -17.7112   24.6740 N   0  0  0  0  0  0  0  0  0  0  0  0
   10.1737  -17.8024   27.0978 C   0  0  0  0  0  0  0  0  0  0  0  0
   10.5047  -19.0155   27.0486 O   0  0  0  0  0  0  0  0  0  0  0  0
   10.2659  -17.2220   28.3557 O   0  0  0  0  0  0  0  0  0  0  0  0
  2  1  1  0
  3  2  2  0
  4  3  1  0
  5 11  1  0
  5  4  2  0
  6  5  1  0
  7  9  1  0
  7  6  1  0
  7  8  1  1
  9 10  2  0
 11 12  2  0
 12  2  1  0
 13 14  1  0
 13  9  1  0
 14 15  1  6
 15 16  1  0
 16 17  2  0
 17 18  1  0
 19 18  1  0
 20 16  1  0
 20 19  2  0
 21 14  1  0
 22 21  2  0
 24 23  1  6
 24 26  1  0
 25 24  1  0
 26 28  1  0
 26 27  1  6
 27 21  1  0
 28 30  1  0
 29 28  2  0
M  END
$$$$
