YHT.pdb
     RDKit          3D

 30 31  0  0  1  0  0  0  0  0999 V2000
    5.0021  -10.4906   27.7516 O   0  0  0  0  0  0  0  0  0  0  0  0
    5.7378  -11.4996   27.1754 C   0  0  0  0  0  0  0  0  0  0  0  0
    6.3518  -11.2698   25.9667 C   0  0  0  0  0  0  0  0  0  0  0  0
    7.0820  -12.2560   25.3845 C   0  0  0  0  0  0  0  0  0  0  0  0
    7.2096  -13.4816   25.9981 C   0  0  0  0  0  0  0  0  0  0  0  0
    7.9982  -14.5820   25.3855 C   0  0  0  0  0  0  0  0  0  0  0  0
    7.3108  -15.1539   24.1700 C   0  0  2  0  0  0  0  0  0  0  0  0
    6.3689  -16.1546   24.7041 N   0  0  0  0  0  0  0  0  0  0  0  0
    8.2092  -15.8028   23.2164 C   0  0  0  0  0  0  0  0  0  0  0  0
    8.3498  -17.0511   23.2783 O   0  0  0  0  0  0  0  0  0  0  0  0
    6.6024  -13.7222   27.2024 C   0  0  0  0  0  0  0  0  0  0  0  0
    5.8597  -12.7300   27.8020 C   0  0  0  0  0  0  0  0  0  0  0  0
    8.9490  -15.1412   22.2069 N   0  0  0  0  0  0  0  0  0  0  0  0
    9.7853  -15.8157   21.2335 C   0  0  1  0  0  0  0  0  0  0  0  0
   10.1817  -14.8733   20.1182 C   0  0  0  0  0  0  0  0  0  0  0  0
    9.0428  -14.5796   19.2158 C   0  0  0  0  0  0  0  0  0  0  0  0
    7.7761  -15.1583   19.2641 C   0  0  0  0  0  0  0  0  0  0  0  0
    6.9972  -14.6608   18.3026 N   0  0  0  0  0  0  0  0  0  0  0  0
    7.7506  -13.7640   17.6318 C   0  0  0  0  0  0  0  0  0  0  0  0
    8.9783  -13.7193   18.1846 N   0  0  0  0  0  0  0  0  0  0  0  0
   10.8925  -16.4676   21.8973 C   0  0  0  0  0  0  0  0  0  0  0  0
   11.6520  -15.7307   22.6195 O   0  0  0  0  0  0  0  0  0  0  0  0
   11.1845  -19.5330   24.4090 C   0  0  0  0  0  0  0  0  0  0  0  0
   12.0929  -19.6859   23.2328 C   0  0  1  0  0  0  0  0  0  0  0  0
   11.4622  -20.5360   22.3197 O   0  0  0  0  0  0  0  0  0  0  0  0
   12.4087  -18.3704   22.5519 C   0  0  2  0  0  0  0  0  0  0  0  0
   11.2641  -17.8304   21.8644 N   0  0  0  0  0  0  0  0  0  0  0  0
   13.6409  -18.4193   21.7630 C   0  0  0  0  0  0  0  0  0  0  0  0
   14.7690  -18.7116   22.2381 O   0  0  0  0  0  0  0  0  0  0  0  0
   13.6347  -18.1371   20.4036 O   0  0  0  0  0  0  0  0  0  0  0  0
  2  1  1  0
  3  2  2  0
  4  3  1  0
  5 11  1  0
  5  4  2  0
  6  5  1  0
  7  9  1  0
  7  6  1  0
  7  8  1  1
  9 10  2  0
 11 12  2  0
 12  2  1  0
 13 14  1  0
 13  9  1  0
 14 15  1  6
 15 16  1  0
 16 17  2  0
 17 18  1  0
 19 18  1  0
 20 16  1  0
 20 19  2  0
 21 14  1  0
 22 21  2  0
 24 23  1  1
 24 26  1  0
 25 24  1  0
 26 28  1  0
 26 27  1  6
 27 21  1  0
 28 30  1  0
 29 28  2  0
M  END
$$$$
