YHT.pdb
     RDKit          3D

 30 31  0  0  1  0  0  0  0  0999 V2000
    7.7669  -12.0072   23.5493 O   0  0  0  0  0  0  0  0  0  0  0  0
    7.5417  -12.8272   22.4685 C   0  0  0  0  0  0  0  0  0  0  0  0
    7.9410  -12.4098   21.2207 C   0  0  0  0  0  0  0  0  0  0  0  0
    7.7258  -13.2080   20.1430 C   0  0  0  0  0  0  0  0  0  0  0  0
    7.1111  -14.4304   20.2947 C   0  0  0  0  0  0  0  0  0  0  0  0
    6.8581  -15.3251   19.1356 C   0  0  0  0  0  0  0  0  0  0  0  0
    8.0939  -16.0977   18.7447 C   0  0  2  0  0  0  0  0  0  0  0  0
    7.6360  -17.0470   17.7136 N   0  0  0  0  0  0  0  0  0  0  0  0
    8.7133  -16.8423   19.8400 C   0  0  0  0  0  0  0  0  0  0  0  0
    8.1648  -17.9054   20.2285 O   0  0  0  0  0  0  0  0  0  0  0  0
    6.7089  -14.8568   21.5329 C   0  0  0  0  0  0  0  0  0  0  0  0
    6.9218  -14.0561   22.6326 C   0  0  0  0  0  0  0  0  0  0  0  0
    9.9001  -16.4698   20.5158 N   0  0  0  0  0  0  0  0  0  0  0  0
   10.4925  -17.2263   21.6015 C   0  0  1  0  0  0  0  0  0  0  0  0
   11.9888  -17.3526   21.4168 C   0  0  0  0  0  0  0  0  0  0  0  0
   12.3326  -18.3649   20.3897 C   0  0  0  0  0  0  0  0  0  0  0  0
   11.5760  -19.4817   20.0406 C   0  0  0  0  0  0  0  0  0  0  0  0
   12.1839  -20.1769   19.0784 N   0  0  0  0  0  0  0  0  0  0  0  0
   13.3290  -19.5180   18.8018 C   0  0  0  0  0  0  0  0  0  0  0  0
   13.4132  -18.4304   19.5923 N   0  0  0  0  0  0  0  0  0  0  0  0
   10.0843  -16.6719   22.8733 C   0  0  0  0  0  0  0  0  0  0  0  0
   10.6723  -15.5995   23.2550 O   0  0  0  0  0  0  0  0  0  0  0  0
    6.8679  -15.3352   24.5566 C   0  0  0  0  0  0  0  0  0  0  0  0
    7.4742  -16.3842   25.4306 C   0  0  1  0  0  0  0  0  0  0  0  0
    6.7407  -17.5605   25.2497 O   0  0  0  0  0  0  0  0  0  0  0  0
    8.9306  -16.6521   25.1131 C   0  0  2  0  0  0  0  0  0  0  0  0
    9.1077  -17.1526   23.7742 N   0  0  0  0  0  0  0  0  0  0  0  0
    9.6089  -17.4210   26.1581 C   0  0  0  0  0  0  0  0  0  0  0  0
   10.2148  -18.5046   25.9527 O   0  0  0  0  0  0  0  0  0  0  0  0
    9.6223  -16.9848   27.4761 O   0  0  0  0  0  0  0  0  0  0  0  0
  2  1  1  0
  3  2  2  0
  4  3  1  0
  5 11  1  0
  5  4  2  0
  6  5  1  0
  7  9  1  0
  7  6  1  0
  7  8  1  6
  9 10  2  0
 11 12  2  0
 12  2  1  0
 13 14  1  0
 13  9  1  0
 14 15  1  6
 15 16  1  0
 16 17  2  0
 17 18  1  0
 19 18  1  0
 20 16  1  0
 20 19  2  0
 21 14  1  0
 22 21  2  0
 24 23  1  6
 24 26  1  0
 25 24  1  0
 26 28  1  0
 26 27  1  6
 27 21  1  0
 28 30  1  0
 29 28  2  0
M  END
$$$$
