YHT.pdb
     RDKit          3D

 30 31  0  0  1  0  0  0  0  0999 V2000
    8.7435  -12.7931   17.0677 O   0  0  0  0  0  0  0  0  0  0  0  0
    8.3263  -13.2473   18.2969 C   0  0  0  0  0  0  0  0  0  0  0  0
    6.9807  -13.2652   18.5791 C   0  0  0  0  0  0  0  0  0  0  0  0
    6.5524  -13.7109   19.7886 C   0  0  0  0  0  0  0  0  0  0  0  0
    7.4580  -14.1436   20.7307 C   0  0  0  0  0  0  0  0  0  0  0  0
    7.0219  -14.6335   22.0642 C   0  0  0  0  0  0  0  0  0  0  0  0
    7.0906  -16.1380   22.1577 C   0  0  2  0  0  0  0  0  0  0  0  0
    5.8043  -16.6098   21.6127 N   0  0  0  0  0  0  0  0  0  0  0  0
    7.2526  -16.6527   23.5165 C   0  0  0  0  0  0  0  0  0  0  0  0
    6.2653  -16.6140   24.2946 O   0  0  0  0  0  0  0  0  0  0  0  0
    8.8011  -14.1303   20.4610 C   0  0  0  0  0  0  0  0  0  0  0  0
    9.2468  -13.6808   19.2383 C   0  0  0  0  0  0  0  0  0  0  0  0
    8.4434  -17.2046   24.0470 N   0  0  0  0  0  0  0  0  0  0  0  0
    8.5850  -17.6839   25.4080 C   0  0  1  0  0  0  0  0  0  0  0  0
    9.0881  -19.1106   25.4274 C   0  0  0  0  0  0  0  0  0  0  0  0
    8.0707  -20.0594   24.9148 C   0  0  0  0  0  0  0  0  0  0  0  0
    6.8235  -20.3217   25.4781 C   0  0  0  0  0  0  0  0  0  0  0  0
    6.1656  -21.2300   24.7565 N   0  0  0  0  0  0  0  0  0  0  0  0
    6.9780  -21.5578   23.7297 C   0  0  0  0  0  0  0  0  0  0  0  0
    8.1209  -20.8517   23.8297 N   0  0  0  0  0  0  0  0  0  0  0  0
    9.3754  -16.7528   26.1824 C   0  0  0  0  0  0  0  0  0  0  0  0
   10.6011  -16.6062   25.8396 O   0  0  0  0  0  0  0  0  0  0  0  0
    9.1997  -13.0113   26.7716 C   0  0  0  0  0  0  0  0  0  0  0  0
    9.3246  -13.6790   28.1021 C   0  0  1  0  0  0  0  0  0  0  0  0
    8.0513  -13.7143   28.6782 O   0  0  0  0  0  0  0  0  0  0  0  0
    9.8682  -15.0895   28.0096 C   0  0  2  0  0  0  0  0  0  0  0  0
    8.9810  -15.9632   27.2858 N   0  0  0  0  0  0  0  0  0  0  0  0
   10.3336  -15.6058   29.2981 C   0  0  0  0  0  0  0  0  0  0  0  0
   11.1417  -14.9994   30.0482 O   0  0  0  0  0  0  0  0  0  0  0  0
    9.8962  -16.8321   29.7803 O   0  0  0  0  0  0  0  0  0  0  0  0
  2  1  1  0
  3  2  2  0
  4  3  1  0
  5 11  1  0
  5  4  2  0
  6  5  1  0
  7  9  1  0
  7  6  1  0
  7  8  1  1
  9 10  2  0
 11 12  2  0
 12  2  1  0
 13 14  1  0
 13  9  1  0
 14 15  1  6
 15 16  1  0
 16 17  2  0
 17 18  1  0
 19 18  1  0
 20 16  1  0
 20 19  2  0
 21 14  1  0
 22 21  2  0
 24 23  1  6
 24 26  1  0
 25 24  1  0
 26 28  1  0
 26 27  1  1
 27 21  1  0
 28 30  1  0
 29 28  2  0
M  END
$$$$
