MSV.pdb
     RDKit          3D

 22 21  0  0  1  0  0  0  0  0999 V2000
    8.0062  -11.7474   20.4894 C   0  0  0  0  0  0  0  0  0  0  0  0
    8.1759  -12.7914   19.0216 S   0  0  0  0  0  0  0  0  0  0  0  0
    7.7783  -14.5158   19.3747 C   0  0  0  0  0  0  0  0  0  0  0  0
    7.4769  -14.7206   20.8518 C   0  0  0  0  0  0  0  0  0  0  0  0
    7.1204  -16.1628   21.1347 C   0  0  2  0  0  0  0  0  0  0  0  0
    5.8851  -16.4438   20.4270 N   0  0  0  0  0  0  0  0  0  0  0  0
    6.9344  -16.3247   22.6135 C   0  0  0  0  0  0  0  0  0  0  0  0
    5.8857  -15.9220   23.1763 O   0  0  0  0  0  0  0  0  0  0  0  0
    8.4522  -19.2334   24.9539 O   0  0  0  0  0  0  0  0  0  0  0  0
    7.4042  -18.3783   25.2826 C   0  0  0  0  0  0  0  0  0  0  0  0
    7.8040  -16.9528   24.8845 C   0  0  2  0  0  0  0  0  0  0  0  0
    7.9162  -16.9290   23.4333 N   0  0  0  0  0  0  0  0  0  0  0  0
    9.0554  -16.5445   25.5411 C   0  0  0  0  0  0  0  0  0  0  0  0
   10.1420  -16.7063   24.9506 O   0  0  0  0  0  0  0  0  0  0  0  0
    8.9679  -14.3761   29.4956 C   0  0  0  0  0  0  0  0  0  0  0  0
    9.9641  -14.2971   28.3863 C   0  0  2  0  0  0  0  0  0  0  0  0
    9.5646  -13.2121   27.3883 C   0  0  0  0  0  0  0  0  0  0  0  0
   10.1472  -15.5613   27.6051 C   0  0  2  0  0  0  0  0  0  0  0  0
    9.0047  -15.9739   26.8348 N   0  0  0  0  0  0  0  0  0  0  0  0
   10.6623  -16.6971   28.4324 C   0  0  0  0  0  0  0  0  0  0  0  0
    9.9553  -17.7080   28.6004 O   0  0  0  0  0  0  0  0  0  0  0  0
   11.9127  -16.6495   29.0186 O   0  0  0  0  0  0  0  0  0  0  0  0
  2  1  1  0
  3  2  1  0
  4  5  1  0
  4  3  1  0
  5  6  1  6
  7  5  1  0
  8  7  2  0
 11 10  1  1
 10  9  1  0
 11 13  1  0
 11 12  1  0
 12  7  1  0
 13 19  1  0
 14 13  2  0
 16 15  1  1
 16 17  1  0
 18 20  1  0
 18 16  1  0
 18 19  1  1
 20 22  1  0
 21 20  2  0
M  END
$$$$
