MSV.pdb
     RDKit          3D

 22 21  0  0  1  0  0  0  0  0999 V2000
    7.1008  -12.1678   18.2286 C   0  0  0  0  0  0  0  0  0  0  0  0
    7.7055  -13.5493   17.2291 S   0  0  0  0  0  0  0  0  0  0  0  0
    8.3573  -14.8842   18.2534 C   0  0  0  0  0  0  0  0  0  0  0  0
    8.0363  -14.6581   19.7233 C   0  0  0  0  0  0  0  0  0  0  0  0
    8.6737  -15.7250   20.5850 C   0  0  2  0  0  0  0  0  0  0  0  0
    8.3289  -17.0078   20.0008 N   0  0  0  0  0  0  0  0  0  0  0  0
    8.1203  -15.6073   21.9734 C   0  0  0  0  0  0  0  0  0  0  0  0
    7.9488  -14.4807   22.5025 O   0  0  0  0  0  0  0  0  0  0  0  0
    8.2493  -18.5830   24.9250 O   0  0  0  0  0  0  0  0  0  0  0  0
    7.0028  -18.0511   24.6077 C   0  0  0  0  0  0  0  0  0  0  0  0
    7.2083  -16.6264   24.0801 C   0  0  2  0  0  0  0  0  0  0  0  0
    7.7707  -16.7421   22.7424 N   0  0  0  0  0  0  0  0  0  0  0  0
    8.0729  -15.8431   24.9760 C   0  0  0  0  0  0  0  0  0  0  0  0
    9.3123  -15.9423   24.8778 O   0  0  0  0  0  0  0  0  0  0  0  0
    6.1896  -13.0031   27.8561 C   0  0  0  0  0  0  0  0  0  0  0  0
    7.5269  -12.8618   27.2071 C   0  0  2  0  0  0  0  0  0  0  0  0
    7.4088  -12.0571   25.9144 C   0  0  0  0  0  0  0  0  0  0  0  0
    8.2031  -14.1512   26.8573 C   0  0  2  0  0  0  0  0  0  0  0  0
    7.4821  -14.9885   25.9364 N   0  0  0  0  0  0  0  0  0  0  0  0
    8.6334  -14.9364   28.0565 C   0  0  0  0  0  0  0  0  0  0  0  0
    8.1874  -16.0852   28.2340 O   0  0  0  0  0  0  0  0  0  0  0  0
    9.5200  -14.4126   28.9778 O   0  0  0  0  0  0  0  0  0  0  0  0
  2  1  1  0
  3  2  1  0
  4  5  1  0
  4  3  1  0
  5  6  1  6
  7  5  1  0
  8  7  2  0
 11 10  1  1
 10  9  1  0
 11 13  1  0
 11 12  1  0
 12  7  1  0
 13 19  1  0
 14 13  2  0
 16 15  1  6
 16 17  1  0
 18 20  1  0
 18 16  1  0
 18 19  1  1
 20 22  1  0
 21 20  2  0
M  END
$$$$
