MSV.pdb
     RDKit          3D

 22 21  0  0  1  0  0  0  0  0999 V2000
    6.3467  -12.0893   26.8943 C   0  0  0  0  0  0  0  0  0  0  0  0
    6.0444  -11.6134   25.1752 S   0  0  0  0  0  0  0  0  0  0  0  0
    6.0676  -13.0395   24.0698 C   0  0  0  0  0  0  0  0  0  0  0  0
    7.0297  -14.1075   24.5682 C   0  0  0  0  0  0  0  0  0  0  0  0
    7.0827  -15.2757   23.6092 C   0  0  2  0  0  0  0  0  0  0  0  0
    5.7695  -15.8931   23.6156 N   0  0  0  0  0  0  0  0  0  0  0  0
    8.1252  -16.2391   24.0916 C   0  0  0  0  0  0  0  0  0  0  0  0
    7.8994  -16.9910   25.0725 O   0  0  0  0  0  0  0  0  0  0  0  0
   12.1227  -15.9323   22.7802 O   0  0  0  0  0  0  0  0  0  0  0  0
   11.6014  -17.1958   23.0432 C   0  0  0  0  0  0  0  0  0  0  0  0
   10.5019  -17.0514   24.1018 C   0  0  2  0  0  0  0  0  0  0  0  0
    9.3939  -16.3454   23.4748 N   0  0  0  0  0  0  0  0  0  0  0  0
   10.9974  -16.3502   25.2962 C   0  0  0  0  0  0  0  0  0  0  0  0
   11.3997  -15.1738   25.1971 O   0  0  0  0  0  0  0  0  0  0  0  0
   10.5518  -14.0862   27.3275 C   0  0  0  0  0  0  0  0  0  0  0  0
   10.4979  -15.2793   28.2236 C   0  0  2  0  0  0  0  0  0  0  0  0
   10.9245  -14.9006   29.6403 C   0  0  0  0  0  0  0  0  0  0  0  0
   11.3587  -16.4299   27.8025 C   0  0  2  0  0  0  0  0  0  0  0  0
   11.0092  -17.0240   26.5401 N   0  0  0  0  0  0  0  0  0  0  0  0
   11.4970  -17.4811   28.8588 C   0  0  0  0  0  0  0  0  0  0  0  0
   12.0221  -17.1933   29.9503 O   0  0  0  0  0  0  0  0  0  0  0  0
   11.0527  -18.7727   28.6493 O   0  0  0  0  0  0  0  0  0  0  0  0
  2  1  1  0
  3  2  1  0
  4  5  1  0
  4  3  1  0
  5  6  1  1
  7  5  1  0
  8  7  2  0
 11 10  1  6
 10  9  1  0
 11 13  1  0
 11 12  1  0
 12  7  1  0
 13 19  1  0
 14 13  2  0
 16 15  1  6
 16 17  1  0
 18 20  1  0
 18 16  1  0
 18 19  1  6
 20 22  1  0
 21 20  2  0
M  END
$$$$
