MSV.pdb
     RDKit          3D

 22 21  0  0  1  0  0  0  0  0999 V2000
    8.4751  -11.5720   19.6289 C   0  0  0  0  0  0  0  0  0  0  0  0
    8.3360  -12.5938   18.1423 S   0  0  0  0  0  0  0  0  0  0  0  0
    8.5307  -14.3489   18.5135 C   0  0  0  0  0  0  0  0  0  0  0  0
    7.8914  -14.7043   19.8475 C   0  0  0  0  0  0  0  0  0  0  0  0
    8.1588  -16.1490   20.2059 C   0  0  2  0  0  0  0  0  0  0  0  0
    7.3947  -16.9665   19.2821 N   0  0  0  0  0  0  0  0  0  0  0  0
    7.7083  -16.3793   21.6172 C   0  0  0  0  0  0  0  0  0  0  0  0
    6.4861  -16.3824   21.9083 O   0  0  0  0  0  0  0  0  0  0  0  0
   10.0443  -18.0765   24.4559 O   0  0  0  0  0  0  0  0  0  0  0  0
    8.6699  -17.9699   24.6485 C   0  0  0  0  0  0  0  0  0  0  0  0
    8.2055  -16.6298   24.0664 C   0  0  2  0  0  0  0  0  0  0  0  0
    8.6242  -16.6004   22.6725 N   0  0  0  0  0  0  0  0  0  0  0  0
    8.7504  -15.4967   24.8299 C   0  0  0  0  0  0  0  0  0  0  0  0
    9.8140  -14.9599   24.4608 O   0  0  0  0  0  0  0  0  0  0  0  0
    6.2225  -13.4842   27.8316 C   0  0  0  0  0  0  0  0  0  0  0  0
    7.4377  -12.9447   27.1522 C   0  0  2  0  0  0  0  0  0  0  0  0
    7.0558  -12.2656   25.8386 C   0  0  0  0  0  0  0  0  0  0  0  0
    8.4885  -13.9608   26.8277 C   0  0  2  0  0  0  0  0  0  0  0  0
    8.0568  -15.0341   25.9730 N   0  0  0  0  0  0  0  0  0  0  0  0
    9.1829  -14.4995   28.0392 C   0  0  0  0  0  0  0  0  0  0  0  0
    9.1353  -15.7188   28.2862 O   0  0  0  0  0  0  0  0  0  0  0  0
    9.8802  -13.6694   28.8960 O   0  0  0  0  0  0  0  0  0  0  0  0
  2  1  1  0
  3  2  1  0
  4  5  1  0
  4  3  1  0
  5  6  1  6
  7  5  1  0
  8  7  2  0
 11 10  1  1
 10  9  1  0
 11 13  1  0
 11 12  1  0
 12  7  1  0
 13 19  1  0
 14 13  2  0
 16 15  1  6
 16 17  1  0
 18 20  1  0
 18 16  1  0
 18 19  1  1
 20 22  1  0
 21 20  2  0
M  END
$$$$
