MSV.pdb
     RDKit          3D

 22 21  0  0  1  0  0  0  0  0999 V2000
    8.1251  -11.5806   19.5856 C   0  0  0  0  0  0  0  0  0  0  0  0
    8.2977  -12.6056   18.1047 S   0  0  0  0  0  0  0  0  0  0  0  0
    8.3520  -14.3637   18.5077 C   0  0  0  0  0  0  0  0  0  0  0  0
    7.8073  -14.6261   19.9039 C   0  0  0  0  0  0  0  0  0  0  0  0
    7.8730  -16.0991   20.2404 C   0  0  2  0  0  0  0  0  0  0  0  0
    6.9286  -16.7777   19.3725 N   0  0  0  0  0  0  0  0  0  0  0  0
    7.4929  -16.2747   21.6800 C   0  0  0  0  0  0  0  0  0  0  0  0
    6.2954  -16.1684   22.0451 O   0  0  0  0  0  0  0  0  0  0  0  0
   10.0562  -17.8318   24.5821 O   0  0  0  0  0  0  0  0  0  0  0  0
    8.6691  -17.8581   24.6953 C   0  0  0  0  0  0  0  0  0  0  0  0
    8.1133  -16.5606   24.0969 C   0  0  2  0  0  0  0  0  0  0  0  0
    8.4502  -16.5635   22.6807 N   0  0  0  0  0  0  0  0  0  0  0  0
    8.6501  -15.3788   24.7891 C   0  0  0  0  0  0  0  0  0  0  0  0
    9.7633  -14.9241   24.4582 O   0  0  0  0  0  0  0  0  0  0  0  0
    6.0533  -12.9578   27.4361 C   0  0  0  0  0  0  0  0  0  0  0  0
    7.3559  -12.5721   26.8166 C   0  0  2  0  0  0  0  0  0  0  0  0
    7.1292  -11.9727   25.4302 C   0  0  0  0  0  0  0  0  0  0  0  0
    8.3376  -13.6907   26.6522 C   0  0  2  0  0  0  0  0  0  0  0  0
    7.8922  -14.7768   25.8210 N   0  0  0  0  0  0  0  0  0  0  0  0
    8.8678  -14.2067   27.9532 C   0  0  0  0  0  0  0  0  0  0  0  0
    8.6943  -15.4008   28.2598 O   0  0  0  0  0  0  0  0  0  0  0  0
    9.5498  -13.3830   28.8282 O   0  0  0  0  0  0  0  0  0  0  0  0
  2  1  1  0
  3  2  1  0
  4  5  1  0
  4  3  1  0
  5  6  1  6
  7  5  1  0
  8  7  2  0
 11 10  1  1
 10  9  1  0
 11 13  1  0
 11 12  1  0
 12  7  1  0
 13 19  1  0
 14 13  2  0
 16 15  1  6
 16 17  1  0
 18 20  1  0
 18 16  1  0
 18 19  1  1
 20 22  1  0
 21 20  2  0
M  END
$$$$
