NYL.pdb
     RDKit          3D

 29 29  0  0  1  0  0  0  0  0999 V2000
   16.1310  -15.0765  -16.6190 N   0  0  0  0  0  0  0  0  0  0  0  0
   15.7013  -14.4361  -17.8089 C   0  0  0  0  0  0  0  0  0  0  0  0
   14.9165  -15.0605  -18.5714 O   0  0  0  0  0  0  0  0  0  0  0  0
   16.1672  -13.0578  -18.1484 C   0  0  0  0  0  0  0  0  0  0  0  0
   17.0806  -12.5678  -17.0214 C   0  0  2  0  0  0  0  0  0  0  0  0
   16.3243  -12.4286  -15.8163 N   0  0  0  0  0  0  0  0  0  0  0  0
   17.7978  -11.3430  -17.4142 C   0  0  0  0  0  0  0  0  0  0  0  0
   18.5749  -11.4308  -18.4118 O   0  0  0  0  0  0  0  0  0  0  0  0
   20.2281   -3.3797  -19.7192 O   0  0  0  0  0  0  0  0  0  0  0  0
   19.5666   -4.5105  -19.2330 C   0  0  0  0  0  0  0  0  0  0  0  0
   19.5424   -5.6401  -20.0217 C   0  0  0  0  0  0  0  0  0  0  0  0
   18.8871   -6.7502  -19.5326 C   0  0  0  0  0  0  0  0  0  0  0  0
   18.2613   -6.7598  -18.2867 C   0  0  0  0  0  0  0  0  0  0  0  0
   17.5601   -7.9641  -17.8003 C   0  0  0  0  0  0  0  0  0  0  0  0
   18.4716   -8.9815  -17.1860 C   0  0  2  0  0  0  0  0  0  0  0  0
   17.6635  -10.1007  -16.7456 N   0  0  0  0  0  0  0  0  0  0  0  0
   19.3259   -8.4586  -16.0965 C   0  0  0  0  0  0  0  0  0  0  0  0
   18.8000   -8.2313  -14.9829 O   0  0  0  0  0  0  0  0  0  0  0  0
   18.2917   -5.6271  -17.5080 C   0  0  0  0  0  0  0  0  0  0  0  0
   18.9474   -4.5191  -17.9996 C   0  0  0  0  0  0  0  0  0  0  0  0
   22.1341   -9.7105  -13.1074 C   0  0  0  0  0  0  0  0  0  0  0  0
   22.5848   -9.8632  -14.5634 C   0  0  2  0  0  0  0  0  0  0  0  0
   23.8057  -10.7107  -14.5912 C   0  0  0  0  0  0  0  0  0  0  0  0
   22.7822   -8.4899  -15.1376 C   0  0  0  0  0  0  0  0  0  0  0  0
   21.5492   -7.6552  -15.1776 C   0  0  2  0  0  0  0  0  0  0  0  0
   20.7151   -8.2037  -16.2592 N   0  0  0  0  0  0  0  0  0  0  0  0
   21.7914   -6.2230  -15.4448 C   0  0  0  0  0  0  0  0  0  0  0  0
   22.0903   -5.3268  -14.4296 O   0  0  0  0  0  0  0  0  0  0  0  0
   21.7331   -5.7664  -16.6167 O   0  0  0  0  0  0  0  0  0  0  0  0
  1  2  1  0
  2  3  2  0
  4  2  1  0
  5  4  1  0
  5  6  1  1
  7  8  2  0
  7  5  1  0
  9 10  1  0
 10 20  2  0
 10 11  1  0
 11 12  2  0
 12 13  1  0
 13 14  1  0
 15 14  1  1
 15 16  1  0
 16  7  1  0
 17 15  1  0
 17 18  2  0
 19 13  2  0
 20 19  1  0
 22 23  1  1
 22 21  1  0
 24 22  1  0
 25 24  1  6
 25 26  1  0
 26 17  1  0
 27 25  1  0
 28 27  1  0
 29 27  2  0
M  END
$$$$
