NYL.pdb
     RDKit          3D

 29 29  0  0  1  0  0  0  0  0999 V2000
   18.2365  -21.9578  -14.9822 N   0  0  0  0  0  0  0  0  0  0  0  0
   18.2076  -20.5531  -14.7903 C   0  0  0  0  0  0  0  0  0  0  0  0
   17.3110  -19.8901  -15.3765 O   0  0  0  0  0  0  0  0  0  0  0  0
   19.2139  -19.8784  -13.9162 C   0  0  0  0  0  0  0  0  0  0  0  0
   20.1523  -20.9475  -13.3496 C   0  0  2  0  0  0  0  0  0  0  0  0
   19.5780  -21.5140  -12.1693 N   0  0  0  0  0  0  0  0  0  0  0  0
   21.5086  -20.4102  -13.1478 C   0  0  0  0  0  0  0  0  0  0  0  0
   21.6058  -19.3442  -12.4689 O   0  0  0  0  0  0  0  0  0  0  0  0
   26.0598  -20.5956   -7.3002 O   0  0  0  0  0  0  0  0  0  0  0  0
   25.7417  -20.8250   -8.6414 C   0  0  0  0  0  0  0  0  0  0  0  0
   26.7613  -20.7908   -9.5676 C   0  0  0  0  0  0  0  0  0  0  0  0
   26.4365  -21.0185  -10.8880 C   0  0  0  0  0  0  0  0  0  0  0  0
   25.1306  -21.2771  -11.3023 C   0  0  0  0  0  0  0  0  0  0  0  0
   24.8190  -21.5059  -12.7269 C   0  0  0  0  0  0  0  0  0  0  0  0
   23.9677  -20.4335  -13.3341 C   0  0  2  0  0  0  0  0  0  0  0  0
   22.6819  -21.0142  -13.6644 N   0  0  0  0  0  0  0  0  0  0  0  0
   24.5785  -19.7535  -14.4980 C   0  0  0  0  0  0  0  0  0  0  0  0
   24.3711  -20.2237  -15.6400 O   0  0  0  0  0  0  0  0  0  0  0  0
   24.1209  -21.3089  -10.3697 C   0  0  0  0  0  0  0  0  0  0  0  0
   24.4487  -21.0809   -9.0506 C   0  0  0  0  0  0  0  0  0  0  0  0
   28.2754  -16.4466  -16.7052 C   0  0  0  0  0  0  0  0  0  0  0  0
   27.0907  -15.7085  -16.0743 C   0  0  2  0  0  0  0  0  0  0  0  0
   27.5729  -14.4010  -15.5569 C   0  0  0  0  0  0  0  0  0  0  0  0
   26.4929  -16.5978  -15.0224 C   0  0  0  0  0  0  0  0  0  0  0  0
   25.9052  -17.8626  -15.5455 C   0  0  2  0  0  0  0  0  0  0  0  0
   25.3889  -18.5917  -14.3758 N   0  0  0  0  0  0  0  0  0  0  0  0
   26.8636  -18.7298  -16.2602 C   0  0  0  0  0  0  0  0  0  0  0  0
   27.7640  -19.5410  -15.5863 O   0  0  0  0  0  0  0  0  0  0  0  0
   26.8927  -18.7592  -17.5186 O   0  0  0  0  0  0  0  0  0  0  0  0
  1  2  1  0
  2  3  2  0
  4  2  1  0
  5  4  1  0
  5  6  1  1
  7  8  2  0
  7  5  1  0
  9 10  1  0
 10 20  2  0
 10 11  1  0
 11 12  2  0
 12 13  1  0
 13 14  1  0
 15 14  1  6
 15 16  1  0
 16  7  1  0
 17 15  1  0
 17 18  2  0
 19 13  2  0
 20 19  1  0
 22 23  1  1
 22 21  1  0
 24 22  1  0
 25 24  1  1
 25 26  1  0
 26 17  1  0
 27 25  1  0
 28 27  1  0
 29 27  2  0
M  END
$$$$
