NYL.pdb
     RDKit          3D

 29 29  0  0  1  0  0  0  0  0999 V2000
   28.4941  -24.7398  -16.2395 N   0  0  0  0  0  0  0  0  0  0  0  0
   27.2730  -24.8166  -16.9562 C   0  0  0  0  0  0  0  0  0  0  0  0
   27.1450  -25.7252  -17.8194 O   0  0  0  0  0  0  0  0  0  0  0  0
   26.1683  -23.8456  -16.6938 C   0  0  0  0  0  0  0  0  0  0  0  0
   25.5884  -24.1402  -15.3077 C   0  0  2  0  0  0  0  0  0  0  0  0
   24.9164  -25.4018  -15.3263 N   0  0  0  0  0  0  0  0  0  0  0  0
   24.7449  -23.0281  -14.8380 C   0  0  0  0  0  0  0  0  0  0  0  0
   23.4941  -23.2318  -14.8100 O   0  0  0  0  0  0  0  0  0  0  0  0
   24.3381  -21.2058   -7.6282 O   0  0  0  0  0  0  0  0  0  0  0  0
   24.5243  -20.8657   -8.9706 C   0  0  0  0  0  0  0  0  0  0  0  0
   23.4334  -20.4255   -9.6882 C   0  0  0  0  0  0  0  0  0  0  0  0
   23.6280  -20.0925  -11.0119 C   0  0  0  0  0  0  0  0  0  0  0  0
   24.8738  -20.1875  -11.6308 C   0  0  0  0  0  0  0  0  0  0  0  0
   25.0421  -19.8319  -13.0535 C   0  0  0  0  0  0  0  0  0  0  0  0
   24.3207  -20.7511  -13.9905 C   0  0  2  0  0  0  0  0  0  0  0  0
   25.2533  -21.7711  -14.4257 N   0  0  0  0  0  0  0  0  0  0  0  0
   23.6748  -20.0727  -15.1363 C   0  0  0  0  0  0  0  0  0  0  0  0
   24.3077  -19.9885  -16.2137 O   0  0  0  0  0  0  0  0  0  0  0  0
   25.9555  -20.6279  -10.9053 C   0  0  0  0  0  0  0  0  0  0  0  0
   25.7578  -20.9600   -9.5824 C   0  0  0  0  0  0  0  0  0  0  0  0
   22.0056  -20.2734  -18.8844 C   0  0  0  0  0  0  0  0  0  0  0  0
   22.1519  -21.3396  -17.7944 C   0  0  2  0  0  0  0  0  0  0  0  0
   21.7948  -22.6598  -18.3770 C   0  0  0  0  0  0  0  0  0  0  0  0
   21.2964  -20.9360  -16.6282 C   0  0  0  0  0  0  0  0  0  0  0  0
   21.4487  -19.5130  -16.2152 C   0  0  2  0  0  0  0  0  0  0  0  0
   22.3695  -19.5136  -15.0669 N   0  0  0  0  0  0  0  0  0  0  0  0
   20.1881  -18.8573  -15.8124 C   0  0  0  0  0  0  0  0  0  0  0  0
   19.5256  -17.9663  -16.6432 O   0  0  0  0  0  0  0  0  0  0  0  0
   19.6702  -19.0900  -14.6886 O   0  0  0  0  0  0  0  0  0  0  0  0
  1  2  1  0
  2  3  2  0
  4  2  1  0
  5  4  1  0
  5  6  1  6
  7  8  2  0
  7  5  1  0
  9 10  1  0
 10 20  2  0
 10 11  1  0
 11 12  2  0
 12 13  1  0
 13 14  1  0
 15 14  1  6
 15 16  1  0
 16  7  1  0
 17 15  1  0
 17 18  2  0
 19 13  2  0
 20 19  1  0
 22 23  1  6
 22 21  1  0
 24 22  1  0
 25 24  1  1
 25 26  1  0
 26 17  1  0
 27 25  1  0
 28 27  1  0
 29 27  2  0
M  END
$$$$
