NYL.pdb
     RDKit          3D

 29 29  0  0  1  0  0  0  0  0999 V2000
   15.0430  -27.5241    4.5389 N   0  0  0  0  0  0  0  0  0  0  0  0
   16.1763  -26.9434    5.1627 C   0  0  0  0  0  0  0  0  0  0  0  0
   16.5906  -27.4525    6.2380 O   0  0  0  0  0  0  0  0  0  0  0  0
   16.8600  -25.7596    4.5601 C   0  0  0  0  0  0  0  0  0  0  0  0
   16.0732  -25.3303    3.3187 C   0  0  2  0  0  0  0  0  0  0  0  0
   16.2602  -26.2899    2.2757 N   0  0  0  0  0  0  0  0  0  0  0  0
   16.4151  -23.9534    2.9235 C   0  0  0  0  0  0  0  0  0  0  0  0
   17.5012  -23.7939    2.2895 O   0  0  0  0  0  0  0  0  0  0  0  0
   14.5915  -23.6812   -3.0519 O   0  0  0  0  0  0  0  0  0  0  0  0
   14.7119  -23.0010   -1.8372 C   0  0  0  0  0  0  0  0  0  0  0  0
   13.7148  -23.1607   -0.8998 C   0  0  0  0  0  0  0  0  0  0  0  0
   13.8434  -22.4851    0.2952 C   0  0  0  0  0  0  0  0  0  0  0  0
   14.9333  -21.6616    0.5743 C   0  0  0  0  0  0  0  0  0  0  0  0
   15.0318  -20.9456    1.8613 C   0  0  0  0  0  0  0  0  0  0  0  0
   16.0610  -21.5165    2.7877 C   0  0  2  0  0  0  0  0  0  0  0  0
   15.6069  -22.8256    3.2115 N   0  0  0  0  0  0  0  0  0  0  0  0
   16.3933  -20.6505    3.9409 C   0  0  0  0  0  0  0  0  0  0  0  0
   15.7132  -20.7626    4.9866 O   0  0  0  0  0  0  0  0  0  0  0  0
   15.9225  -21.5095   -0.3683 C   0  0  0  0  0  0  0  0  0  0  0  0
   15.7911  -22.1860   -1.5618 C   0  0  0  0  0  0  0  0  0  0  0  0
   19.1310  -19.8114    7.2958 C   0  0  0  0  0  0  0  0  0  0  0  0
   19.7821  -19.7323    5.9115 C   0  0  2  0  0  0  0  0  0  0  0  0
   21.2502  -19.5826    6.0903 C   0  0  0  0  0  0  0  0  0  0  0  0
   19.1411  -18.6029    5.1577 C   0  0  0  0  0  0  0  0  0  0  0  0
   17.6655  -18.7275    4.9976 C   0  0  2  0  0  0  0  0  0  0  0  0
   17.4492  -19.6988    3.9131 N   0  0  0  0  0  0  0  0  0  0  0  0
   16.9819  -17.4659    4.6481 C   0  0  0  0  0  0  0  0  0  0  0  0
   16.6751  -16.5080    5.6027 O   0  0  0  0  0  0  0  0  0  0  0  0
   16.6527  -17.2185    3.4583 O   0  0  0  0  0  0  0  0  0  0  0  0
  1  2  1  0
  2  3  2  0
  4  2  1  0
  5  4  1  0
  5  6  1  6
  7  8  2  0
  7  5  1  0
  9 10  1  0
 10 20  2  0
 10 11  1  0
 11 12  2  0
 12 13  1  0
 13 14  1  0
 15 14  1  1
 15 16  1  0
 16  7  1  0
 17 15  1  0
 17 18  2  0
 19 13  2  0
 20 19  1  0
 22 23  1  1
 22 21  1  0
 24 22  1  0
 25 24  1  6
 25 26  1  0
 26 17  1  0
 27 25  1  0
 28 27  1  0
 29 27  2  0
M  END
$$$$
