NYL.pdb
     RDKit          3D

 29 29  0  0  1  0  0  0  0  0999 V2000
   27.6488  -18.4555  -19.6139 N   0  0  0  0  0  0  0  0  0  0  0  0
   27.1304  -17.2235  -19.1405 C   0  0  0  0  0  0  0  0  0  0  0  0
   27.6763  -16.1578  -19.5320 O   0  0  0  0  0  0  0  0  0  0  0  0
   25.9680  -17.1913  -18.2027 C   0  0  0  0  0  0  0  0  0  0  0  0
   25.6954  -18.6204  -17.7254 C   0  0  2  0  0  0  0  0  0  0  0  0
   25.3558  -19.4438  -18.8436 N   0  0  0  0  0  0  0  0  0  0  0  0
   24.6885  -18.6381  -16.6508 C   0  0  0  0  0  0  0  0  0  0  0  0
   24.8656  -17.8322  -15.6885 O   0  0  0  0  0  0  0  0  0  0  0  0
   19.8650  -14.4173  -18.5057 O   0  0  0  0  0  0  0  0  0  0  0  0
   20.2035  -15.6342  -17.9081 C   0  0  0  0  0  0  0  0  0  0  0  0
   20.6344  -16.6608  -18.7198 C   0  0  0  0  0  0  0  0  0  0  0  0
   20.9658  -17.8571  -18.1199 C   0  0  0  0  0  0  0  0  0  0  0  0
   20.8783  -18.0515  -16.7421 C   0  0  0  0  0  0  0  0  0  0  0  0
   21.2319  -19.3502  -16.1362 C   0  0  0  0  0  0  0  0  0  0  0  0
   22.6105  -19.3835  -15.5515 C   0  0  2  0  0  0  0  0  0  0  0  0
   23.5583  -19.4930  -16.6420 N   0  0  0  0  0  0  0  0  0  0  0  0
   22.8183  -20.4389  -14.5350 C   0  0  0  0  0  0  0  0  0  0  0  0
   22.8561  -21.6322  -14.9133 O   0  0  0  0  0  0  0  0  0  0  0  0
   20.4471  -17.0203  -15.9415 C   0  0  0  0  0  0  0  0  0  0  0  0
   20.1165  -15.8257  -16.5440 C   0  0  0  0  0  0  0  0  0  0  0  0
   25.9637  -22.0100  -12.8239 C   0  0  0  0  0  0  0  0  0  0  0  0
   25.6036  -20.6635  -12.1887 C   0  0  2  0  0  0  0  0  0  0  0  0
   26.7775  -20.1793  -11.4158 C   0  0  0  0  0  0  0  0  0  0  0  0
   24.3649  -20.8535  -11.3615 C   0  0  0  0  0  0  0  0  0  0  0  0
   23.1507  -21.2170  -12.1440 C   0  0  2  0  0  0  0  0  0  0  0  0
   22.9767  -20.1572  -13.1505 N   0  0  0  0  0  0  0  0  0  0  0  0
   21.9154  -21.3162  -11.3408 C   0  0  0  0  0  0  0  0  0  0  0  0
   21.6606  -22.4019  -10.5165 O   0  0  0  0  0  0  0  0  0  0  0  0
   21.0452  -20.4071  -11.3804 O   0  0  0  0  0  0  0  0  0  0  0  0
  1  2  1  0
  2  3  2  0
  4  2  1  0
  5  4  1  0
  5  6  1  6
  7  8  2  0
  7  5  1  0
  9 10  1  0
 10 20  2  0
 10 11  1  0
 11 12  2  0
 12 13  1  0
 13 14  1  0
 15 14  1  6
 15 16  1  0
 16  7  1  0
 17 15  1  0
 17 18  2  0
 19 13  2  0
 20 19  1  0
 22 23  1  1
 22 21  1  0
 24 22  1  0
 25 24  1  1
 25 26  1  0
 26 17  1  0
 27 25  1  0
 28 27  1  0
 29 27  2  0
M  END
$$$$
