NYL.pdb
     RDKit          3D

 29 29  0  0  1  0  0  0  0  0999 V2000
   11.7027  -13.7165  -11.2986 N   0  0  0  0  0  0  0  0  0  0  0  0
   13.0024  -14.1093  -11.7075 C   0  0  0  0  0  0  0  0  0  0  0  0
   13.2410  -15.3399  -11.8326 O   0  0  0  0  0  0  0  0  0  0  0  0
   14.0598  -13.0903  -11.9822 C   0  0  0  0  0  0  0  0  0  0  0  0
   13.4517  -11.6997  -11.7795 C   0  0  2  0  0  0  0  0  0  0  0  0
   12.5770  -11.3945  -12.8683 N   0  0  0  0  0  0  0  0  0  0  0  0
   14.5001  -10.6885  -11.5621 C   0  0  0  0  0  0  0  0  0  0  0  0
   15.2634  -10.8620  -10.5650 O   0  0  0  0  0  0  0  0  0  0  0  0
   18.6421  -13.1270  -15.6234 O   0  0  0  0  0  0  0  0  0  0  0  0
   18.1142  -11.9573  -15.0705 C   0  0  0  0  0  0  0  0  0  0  0  0
   18.8610  -11.2895  -14.1246 C   0  0  0  0  0  0  0  0  0  0  0  0
   18.3309  -10.1365  -13.5855 C   0  0  0  0  0  0  0  0  0  0  0  0
   17.0849   -9.6388  -13.9644 C   0  0  0  0  0  0  0  0  0  0  0  0
   16.5448   -8.4064  -13.3576 C   0  0  0  0  0  0  0  0  0  0  0  0
   15.7772   -8.6468  -12.0941 C   0  0  2  0  0  0  0  0  0  0  0  0
   14.6913   -9.5579  -12.3949 N   0  0  0  0  0  0  0  0  0  0  0  0
   15.2935   -7.4165  -11.4289 C   0  0  0  0  0  0  0  0  0  0  0  0
   14.1038   -7.0691  -11.6094 O   0  0  0  0  0  0  0  0  0  0  0  0
   16.3481  -10.3133  -14.9093 C   0  0  0  0  0  0  0  0  0  0  0  0
   16.8807  -11.4654  -15.4463 C   0  0  0  0  0  0  0  0  0  0  0  0
   13.1978   -5.6391   -6.9051 C   0  0  0  0  0  0  0  0  0  0  0  0
   13.9595   -4.9287   -8.0283 C   0  0  2  0  0  0  0  0  0  0  0  0
   13.0102   -4.0444   -8.7541 C   0  0  0  0  0  0  0  0  0  0  0  0
   14.6004   -5.9758   -8.8929 C   0  0  0  0  0  0  0  0  0  0  0  0
   15.6029   -5.4479   -9.8599 C   0  0  2  0  0  0  0  0  0  0  0  0
   16.1193   -6.6135  -10.5955 N   0  0  0  0  0  0  0  0  0  0  0  0
   16.7384   -4.7400   -9.2347 C   0  0  0  0  0  0  0  0  0  0  0  0
   16.7302   -3.3672   -9.0394 O   0  0  0  0  0  0  0  0  0  0  0  0
   17.7610   -5.3691   -8.8555 O   0  0  0  0  0  0  0  0  0  0  0  0
  1  2  1  0
  2  3  2  0
  4  2  1  0
  5  4  1  0
  5  6  1  6
  7  8  2  0
  7  5  1  0
  9 10  1  0
 10 20  2  0
 10 11  1  0
 11 12  2  0
 12 13  1  0
 13 14  1  0
 15 14  1  6
 15 16  1  0
 16  7  1  0
 17 15  1  0
 17 18  2  0
 19 13  2  0
 20 19  1  0
 22 23  1  6
 22 21  1  0
 24 22  1  0
 25 24  1  1
 25 26  1  0
 26 17  1  0
 27 25  1  0
 28 27  1  0
 29 27  2  0
M  END
$$$$
