NYL.pdb
     RDKit          3D

 29 29  0  0  1  0  0  0  0  0999 V2000
   29.1272  -20.3273  -18.6128 N   0  0  0  0  0  0  0  0  0  0  0  0
   29.5331  -19.4396  -17.5842 C   0  0  0  0  0  0  0  0  0  0  0  0
   30.6962  -18.9584  -17.6372 O   0  0  0  0  0  0  0  0  0  0  0  0
   28.6056  -19.0850  -16.4680 C   0  0  0  0  0  0  0  0  0  0  0  0
   27.3092  -19.8793  -16.6494 C   0  0  2  0  0  0  0  0  0  0  0  0
   26.7028  -19.5309  -17.8961 N   0  0  0  0  0  0  0  0  0  0  0  0
   26.4167  -19.7104  -15.4902 C   0  0  0  0  0  0  0  0  0  0  0  0
   25.4164  -18.9473  -15.6455 O   0  0  0  0  0  0  0  0  0  0  0  0
   24.5774  -25.8104  -16.0440 O   0  0  0  0  0  0  0  0  0  0  0  0
   24.5081  -24.5403  -15.4656 C   0  0  0  0  0  0  0  0  0  0  0  0
   24.4069  -23.4490  -16.3007 C   0  0  0  0  0  0  0  0  0  0  0  0
   24.3391  -22.2005  -15.7198 C   0  0  0  0  0  0  0  0  0  0  0  0
   24.3697  -22.0168  -14.3380 C   0  0  0  0  0  0  0  0  0  0  0  0
   24.3055  -20.6635  -13.7520 C   0  0  0  0  0  0  0  0  0  0  0  0
   25.6152  -20.1838  -13.2063 C   0  0  2  0  0  0  0  0  0  0  0  0
   26.6183  -20.3453  -14.2394 N   0  0  0  0  0  0  0  0  0  0  0  0
   26.0231  -20.8298  -11.9389 C   0  0  0  0  0  0  0  0  0  0  0  0
   27.1730  -21.3203  -11.8624 O   0  0  0  0  0  0  0  0  0  0  0  0
   24.4709  -23.1127  -13.5140 C   0  0  0  0  0  0  0  0  0  0  0  0
   24.5384  -24.3594  -14.0977 C   0  0  0  0  0  0  0  0  0  0  0  0
   27.5411  -19.0374   -7.1855 C   0  0  0  0  0  0  0  0  0  0  0  0
   27.2660  -20.4415   -7.7326 C   0  0  2  0  0  0  0  0  0  0  0  0
   28.5236  -21.2304   -7.6567 C   0  0  0  0  0  0  0  0  0  0  0  0
   26.7166  -20.3016   -9.1231 C   0  0  0  0  0  0  0  0  0  0  0  0
   25.6611  -21.2930   -9.4716 C   0  0  2  0  0  0  0  0  0  0  0  0
   25.1678  -20.9176  -10.8066 N   0  0  0  0  0  0  0  0  0  0  0  0
   24.5197  -21.3225   -8.5348 C   0  0  0  0  0  0  0  0  0  0  0  0
   23.3850  -20.5509   -8.7353 O   0  0  0  0  0  0  0  0  0  0  0  0
   24.5424  -22.0578   -7.5131 O   0  0  0  0  0  0  0  0  0  0  0  0
  1  2  1  0
  2  3  2  0
  4  2  1  0
  5  4  1  0
  5  6  1  6
  7  8  2  0
  7  5  1  0
  9 10  1  0
 10 20  2  0
 10 11  1  0
 11 12  2  0
 12 13  1  0
 13 14  1  0
 15 14  1  6
 15 16  1  0
 16  7  1  0
 17 15  1  0
 17 18  2  0
 19 13  2  0
 20 19  1  0
 22 23  1  6
 22 21  1  0
 24 22  1  0
 25 24  1  1
 25 26  1  0
 26 17  1  0
 27 25  1  0
 28 27  1  0
 29 27  2  0
M  END
$$$$
