TGC.pdb
     RDKit          3D

 18 17  0  0  1  0  0  0  0  0999 V2000
    6.3289  -13.0237   19.0624 C   0  0  0  0  0  0  0  0  0  0  0  0
    7.3118  -13.9146   19.7516 C   0  0  1  0  0  0  0  0  0  0  0  0
    7.4872  -15.0712   18.9756 O   0  0  0  0  0  0  0  0  0  0  0  0
    8.6908  -13.2536   19.8318 C   0  0  2  0  0  0  0  0  0  0  0  0
    9.0968  -12.9704   18.4893 N   0  0  0  0  0  0  0  0  0  0  0  0
    9.6635  -14.1209   20.5429 C   0  0  0  0  0  0  0  0  0  0  0  0
   10.6447  -14.6333   19.9534 O   0  0  0  0  0  0  0  0  0  0  0  0
    9.4882  -14.3841   21.9268 N   0  0  0  0  0  0  0  0  0  0  0  0
   10.3213  -15.2463   22.6962 C   0  0  0  0  0  0  0  0  0  0  0  0
    9.8503  -15.4423   24.0817 C   0  0  0  0  0  0  0  0  0  0  0  0
   10.5282  -16.1359   24.8809 O   0  0  0  0  0  0  0  0  0  0  0  0
    8.6375  -14.8558   24.5251 N   0  0  0  0  0  0  0  0  0  0  0  0
    7.9690  -15.2103   25.7467 C   0  0  1  0  0  0  0  0  0  0  0  0
    6.6437  -14.4533   25.7894 C   0  0  0  0  0  0  0  0  0  0  0  0
    6.8727  -12.6748   25.6794 S   0  0  0  0  0  0  0  0  0  0  0  0
    7.6406  -16.6744   25.7875 C   0  0  0  0  0  0  0  0  0  0  0  0
    7.4164  -17.3201   24.7334 O   0  0  0  0  0  0  0  0  0  0  0  0
    7.5835  -17.3243   27.0016 O   0  0  0  0  0  0  0  0  0  0  0  0
  2  1  1  6
  3  2  1  0
  4  6  1  0
  4  5  1  6
  4  2  1  0
  6  7  2  0
  8  9  1  0
  8  6  1  0
 10 11  2  0
 10  9  1  0
 12 10  1  0
 13 12  1  0
 13 14  1  6
 14 15  1  0
 16 13  1  0
 17 16  2  0
 18 16  1  0
M  END
$$$$
