TGC.pdb
     RDKit          3D

 18 17  0  0  1  0  0  0  0  0999 V2000
    7.5353  -19.8682   23.2019 C   0  0  0  0  0  0  0  0  0  0  0  0
    6.8142  -19.1006   22.1410 C   0  0  1  0  0  0  0  0  0  0  0  0
    5.4755  -19.5220   22.1164 O   0  0  0  0  0  0  0  0  0  0  0  0
    6.7747  -17.6065   22.4742 C   0  0  2  0  0  0  0  0  0  0  0  0
    5.7852  -17.0156   21.6264 N   0  0  0  0  0  0  0  0  0  0  0  0
    8.1099  -16.9806   22.3020 C   0  0  0  0  0  0  0  0  0  0  0  0
    8.7223  -17.0227   21.2084 O   0  0  0  0  0  0  0  0  0  0  0  0
    8.7192  -16.3141   23.3974 N   0  0  0  0  0  0  0  0  0  0  0  0
    9.9970  -15.6861   23.3505 C   0  0  0  0  0  0  0  0  0  0  0  0
   10.3750  -15.0194   24.6124 C   0  0  0  0  0  0  0  0  0  0  0  0
   11.5276  -14.5361   24.7440 O   0  0  0  0  0  0  0  0  0  0  0  0
    9.4509  -14.9166   25.6833 N   0  0  0  0  0  0  0  0  0  0  0  0
    9.7671  -14.3649   26.9720 C   0  0  1  0  0  0  0  0  0  0  0  0
    8.5738  -13.5276   27.4262 C   0  0  0  0  0  0  0  0  0  0  0  0
    7.6732  -12.8205   26.0418 S   0  0  0  0  0  0  0  0  0  0  0  0
    9.9631  -15.4435   27.9973 C   0  0  0  0  0  0  0  0  0  0  0  0
   10.1813  -15.1633   29.2024 O   0  0  0  0  0  0  0  0  0  0  0  0
    9.9032  -16.7657   27.6126 O   0  0  0  0  0  0  0  0  0  0  0  0
  2  1  1  1
  3  2  1  0
  4  6  1  0
  4  5  1  6
  4  2  1  0
  6  7  2  0
  8  9  1  0
  8  6  1  0
 10 11  2  0
 10  9  1  0
 12 10  1  0
 13 12  1  0
 13 14  1  1
 14 15  1  0
 16 13  1  0
 17 16  2  0
 18 16  1  0
M  END
$$$$
