TGC.pdb
     RDKit          3D

 18 17  0  0  1  0  0  0  0  0999 V2000
    4.4232  -18.1316   20.5837 C   0  0  0  0  0  0  0  0  0  0  0  0
    4.4497  -18.1633   22.0781 C   0  0  1  0  0  0  0  0  0  0  0  0
    3.5413  -19.1378   22.5205 O   0  0  0  0  0  0  0  0  0  0  0  0
    5.8213  -18.6071   22.5943 C   0  0  2  0  0  0  0  0  0  0  0  0
    5.7072  -18.7500   24.0133 N   0  0  0  0  0  0  0  0  0  0  0  0
    6.8804  -17.6405   22.2093 C   0  0  0  0  0  0  0  0  0  0  0  0
    7.9961  -18.0202   21.7805 O   0  0  0  0  0  0  0  0  0  0  0  0
    6.6347  -16.2471   22.3254 N   0  0  0  0  0  0  0  0  0  0  0  0
    7.6027  -15.2331   22.0722 C   0  0  0  0  0  0  0  0  0  0  0  0
    8.1055  -14.5767   23.2954 C   0  0  0  0  0  0  0  0  0  0  0  0
    9.0245  -13.7233   23.2150 O   0  0  0  0  0  0  0  0  0  0  0  0
    7.5629  -14.8976   24.5658 N   0  0  0  0  0  0  0  0  0  0  0  0
    8.0805  -14.4044   25.8123 C   0  0  1  0  0  0  0  0  0  0  0  0
    6.8935  -13.9899   26.6786 C   0  0  0  0  0  0  0  0  0  0  0  0
    6.2657  -12.3650   26.2392 S   0  0  0  0  0  0  0  0  0  0  0  0
    8.8191  -15.4750   26.5617 C   0  0  0  0  0  0  0  0  0  0  0  0
    8.8870  -16.6491   26.1198 O   0  0  0  0  0  0  0  0  0  0  0  0
    9.4345  -15.1671   27.7558 O   0  0  0  0  0  0  0  0  0  0  0  0
  2  1  1  6
  3  2  1  0
  4  6  1  0
  4  5  1  1
  4  2  1  0
  6  7  2  0
  8  9  1  0
  8  6  1  0
 10 11  2  0
 10  9  1  0
 12 10  1  0
 13 12  1  0
 13 14  1  1
 14 15  1  0
 16 13  1  0
 17 16  2  0
 18 16  1  0
M  END
$$$$
