TGC.pdb
     RDKit          3D

 18 17  0  0  1  0  0  0  0  0999 V2000
    8.4114  -12.7033   18.7947 C   0  0  0  0  0  0  0  0  0  0  0  0
    8.1756  -13.9333   17.9784 C   0  0  1  0  0  0  0  0  0  0  0  0
    8.9763  -13.8660   16.8274 O   0  0  0  0  0  0  0  0  0  0  0  0
    8.6308  -15.1875   18.7299 C   0  0  2  0  0  0  0  0  0  0  0  0
    8.6145  -16.2663   17.7902 N   0  0  0  0  0  0  0  0  0  0  0  0
    7.7663  -15.4535   19.9073 C   0  0  0  0  0  0  0  0  0  0  0  0
    6.6942  -16.0962   19.8068 O   0  0  0  0  0  0  0  0  0  0  0  0
    8.1537  -14.9724   21.1854 N   0  0  0  0  0  0  0  0  0  0  0  0
    7.4559  -15.2470   22.3966 C   0  0  0  0  0  0  0  0  0  0  0  0
    8.0465  -14.5924   23.5809 C   0  0  0  0  0  0  0  0  0  0  0  0
    9.2007  -14.0999   23.5134 O   0  0  0  0  0  0  0  0  0  0  0  0
    7.3255  -14.5114   24.7996 N   0  0  0  0  0  0  0  0  0  0  0  0
    7.7790  -13.7942   25.9594 C   0  0  1  0  0  0  0  0  0  0  0  0
    6.5476  -13.2715   26.6952 C   0  0  0  0  0  0  0  0  0  0  0  0
    6.9820  -12.2304   28.0934 S   0  0  0  0  0  0  0  0  0  0  0  0
    8.5100  -14.6961   26.9109 C   0  0  0  0  0  0  0  0  0  0  0  0
    9.4158  -14.2533   27.6605 O   0  0  0  0  0  0  0  0  0  0  0  0
    8.1836  -16.0340   26.9653 O   0  0  0  0  0  0  0  0  0  0  0  0
  2  1  1  1
  3  2  1  0
  4  6  1  0
  4  5  1  6
  4  2  1  0
  6  7  2  0
  8  9  1  0
  8  6  1  0
 10 11  2  0
 10  9  1  0
 12 10  1  0
 13 12  1  0
 13 14  1  1
 14 15  1  0
 16 13  1  0
 17 16  2  0
 18 16  1  0
M  END
$$$$
