TGC.pdb
     RDKit          3D

 18 17  0  0  1  0  0  0  0  0999 V2000
    8.9563  -12.6369   17.7325 C   0  0  0  0  0  0  0  0  0  0  0  0
    8.7600  -13.7640   18.6947 C   0  0  1  0  0  0  0  0  0  0  0  0
    8.9420  -14.9747   18.0078 O   0  0  0  0  0  0  0  0  0  0  0  0
    9.8281  -13.7427   19.7918 C   0  0  2  0  0  0  0  0  0  0  0  0
   11.0706  -14.0873   19.1716 N   0  0  0  0  0  0  0  0  0  0  0  0
    9.4785  -14.6643   20.9020 C   0  0  0  0  0  0  0  0  0  0  0  0
   10.1889  -15.6589   21.1825 O   0  0  0  0  0  0  0  0  0  0  0  0
    8.3113  -14.4229   21.6733 N   0  0  0  0  0  0  0  0  0  0  0  0
    7.8835  -15.2324   22.7646 C   0  0  0  0  0  0  0  0  0  0  0  0
    8.3155  -14.7253   24.0822 C   0  0  0  0  0  0  0  0  0  0  0  0
    9.5404  -14.5987   24.3332 O   0  0  0  0  0  0  0  0  0  0  0  0
    7.3625  -14.3775   25.0734 N   0  0  0  0  0  0  0  0  0  0  0  0
    7.7002  -13.8730   26.3758 C   0  0  1  0  0  0  0  0  0  0  0  0
    6.4538  -13.2090   26.9560 C   0  0  0  0  0  0  0  0  0  0  0  0
    6.6975  -11.4556   27.2622 S   0  0  0  0  0  0  0  0  0  0  0  0
    8.0834  -14.9824   27.3115 C   0  0  0  0  0  0  0  0  0  0  0  0
    7.7089  -16.1640   27.1070 O   0  0  0  0  0  0  0  0  0  0  0  0
    8.8598  -14.7024   28.4154 O   0  0  0  0  0  0  0  0  0  0  0  0
  2  1  1  6
  3  2  1  0
  4  6  1  0
  4  5  1  6
  4  2  1  0
  6  7  2  0
  8  9  1  0
  8  6  1  0
 10 11  2  0
 10  9  1  0
 12 10  1  0
 13 12  1  0
 13 14  1  1
 14 15  1  0
 16 13  1  0
 17 16  2  0
 18 16  1  0
M  END
$$$$
