TGC.pdb
     RDKit          3D

 18 17  0  0  1  0  0  0  0  0999 V2000
    8.9655  -19.8181   19.3824 C   0  0  0  0  0  0  0  0  0  0  0  0
    8.9404  -18.3472   19.6481 C   0  0  1  0  0  0  0  0  0  0  0  0
    7.8885  -17.7783   18.9130 O   0  0  0  0  0  0  0  0  0  0  0  0
    8.6246  -18.0596   21.1186 C   0  0  2  0  0  0  0  0  0  0  0  0
    7.3393  -18.6275   21.3884 N   0  0  0  0  0  0  0  0  0  0  0  0
    8.6675  -16.6032   21.4040 C   0  0  0  0  0  0  0  0  0  0  0  0
    9.7374  -15.9513   21.3486 O   0  0  0  0  0  0  0  0  0  0  0  0
    7.4720  -15.9202   21.7496 N   0  0  0  0  0  0  0  0  0  0  0  0
    7.3722  -14.5114   21.9353 C   0  0  0  0  0  0  0  0  0  0  0  0
    7.9048  -14.0464   23.2314 C   0  0  0  0  0  0  0  0  0  0  0  0
    9.1390  -14.1092   23.4597 O   0  0  0  0  0  0  0  0  0  0  0  0
    7.0384  -13.5273   24.2272 N   0  0  0  0  0  0  0  0  0  0  0  0
    7.4780  -13.0437   25.5070 C   0  0  1  0  0  0  0  0  0  0  0  0
    6.3028  -12.3208   26.1608 C   0  0  0  0  0  0  0  0  0  0  0  0
    6.7787  -11.4825   27.6769 S   0  0  0  0  0  0  0  0  0  0  0  0
    7.8615  -14.1733   26.4181 C   0  0  0  0  0  0  0  0  0  0  0  0
    8.7561  -14.0316   27.2886 O   0  0  0  0  0  0  0  0  0  0  0  0
    7.2222  -15.3886   26.2996 O   0  0  0  0  0  0  0  0  0  0  0  0
  2  1  1  1
  3  2  1  0
  4  6  1  0
  4  5  1  6
  4  2  1  0
  6  7  2  0
  8  9  1  0
  8  6  1  0
 10 11  2  0
 10  9  1  0
 12 10  1  0
 13 12  1  0
 13 14  1  1
 14 15  1  0
 16 13  1  0
 17 16  2  0
 18 16  1  0
M  END
$$$$
