TGC.pdb
     RDKit          3D

 18 17  0  0  1  0  0  0  0  0999 V2000
    9.4746  -13.9388   16.7390 C   0  0  0  0  0  0  0  0  0  0  0  0
    8.7011  -14.4667   17.9042 C   0  0  1  0  0  0  0  0  0  0  0  0
    9.4976  -15.4031   18.5820 O   0  0  0  0  0  0  0  0  0  0  0  0
    8.4086  -13.3570   18.9180 C   0  0  2  0  0  0  0  0  0  0  0  0
    9.6711  -12.8986   19.4111 N   0  0  0  0  0  0  0  0  0  0  0  0
    7.5216  -13.8410   20.0058 C   0  0  0  0  0  0  0  0  0  0  0  0
    6.3862  -14.3176   19.7685 O   0  0  0  0  0  0  0  0  0  0  0  0
    7.9601  -13.7673   21.3540 N   0  0  0  0  0  0  0  0  0  0  0  0
    7.2533  -14.3138   22.4635 C   0  0  0  0  0  0  0  0  0  0  0  0
    7.9381  -14.1161   23.7565 C   0  0  0  0  0  0  0  0  0  0  0  0
    9.1732  -14.3284   23.8494 O   0  0  0  0  0  0  0  0  0  0  0  0
    7.2176  -13.6878   24.9006 N   0  0  0  0  0  0  0  0  0  0  0  0
    7.7961  -13.5312   26.2067 C   0  0  1  0  0  0  0  0  0  0  0  0
    6.7597  -12.8495   27.0968 C   0  0  0  0  0  0  0  0  0  0  0  0
    6.1909  -11.2911   26.4072 S   0  0  0  0  0  0  0  0  0  0  0  0
    8.1068  -14.8600   26.8320 C   0  0  0  0  0  0  0  0  0  0  0  0
    7.5602  -15.9147   26.4233 O   0  0  0  0  0  0  0  0  0  0  0  0
    9.0075  -14.9269   27.8731 O   0  0  0  0  0  0  0  0  0  0  0  0
  2  1  1  6
  3  2  1  0
  4  6  1  0
  4  5  1  1
  4  2  1  0
  6  7  2  0
  8  9  1  0
  8  6  1  0
 10 11  2  0
 10  9  1  0
 12 10  1  0
 13 12  1  0
 13 14  1  1
 14 15  1  0
 16 13  1  0
 17 16  2  0
 18 16  1  0
M  END
$$$$
