DGL.pdb
     RDKit          3D

 21 20  0  0  1  0  0  0  0  0999 V2000
   16.3290  -11.5044  -16.9694 N   0  0  0  0  0  0  0  0  0  0  0  0
   17.6831  -12.0022  -16.8761 C   0  0  1  0  0  0  0  0  0  0  0  0
   18.0115  -12.9170  -18.0441 C   0  0  0  0  0  0  0  0  0  0  0  0
   17.3552  -14.2250  -17.8688 C   0  0  0  0  0  0  0  0  0  0  0  0
   16.7458  -14.7431  -18.8260 O   0  0  0  0  0  0  0  0  0  0  0  0
   18.6016  -10.8158  -16.8735 C   0  0  0  0  0  0  0  0  0  0  0  0
   19.8136  -10.9283  -16.5582 O   0  0  0  0  0  0  0  0  0  0  0  0
   17.4187  -14.8671  -16.6498 O   0  0  0  0  0  0  0  0  0  0  0  0
   18.1344   -9.5178  -17.2284 N   0  0  0  0  0  0  0  0  0  0  0  0
   18.9701   -8.3696  -17.3392 C   0  0  0  0  0  0  0  0  0  0  0  0
   19.7843   -8.0442  -16.1645 C   0  0  0  0  0  0  0  0  0  0  0  0
   19.2780   -8.1454  -14.9899 O   0  0  0  0  0  0  0  0  0  0  0  0
   22.4694  -10.2318  -13.6835 C   0  0  0  0  0  0  0  0  0  0  0  0
   23.1537   -9.6746  -14.9012 C   0  0  2  0  0  0  0  0  0  0  0  0
   24.4658  -10.3586  -15.1121 C   0  0  0  0  0  0  0  0  0  0  0  0
   23.1584   -8.2153  -15.0355 C   0  0  0  0  0  0  0  0  0  0  0  0
   21.9130   -7.4337  -14.9378 C   0  0  2  0  0  0  0  0  0  0  0  0
   21.1343   -7.6126  -16.2031 N   0  0  0  0  0  0  0  0  0  0  0  0
   22.0287   -5.9838  -14.7543 C   0  0  0  0  0  0  0  0  0  0  0  0
   22.5073   -5.4791  -13.6698 O   0  0  0  0  0  0  0  0  0  0  0  0
   21.6617   -5.0108  -15.6814 O   0  0  0  0  0  0  0  0  0  0  0  0
  2  1  1  6
  2  3  1  0
  3  4  1  0
  4  5  2  0
  4  8  1  0
  6  7  2  0
  6  2  1  0
  9  6  1  0
 10  9  1  0
 11 10  1  0
 11 18  1  0
 12 11  2  0
 14 13  1  1
 14 15  1  0
 16 14  1  0
 17 18  1  0
 17 16  1  6
 19 21  1  0
 19 17  1  0
 20 19  2  0
M  END
$$$$
