DGL.pdb
     RDKit          3D

 21 20  0  0  1  0  0  0  0  0999 V2000
   14.9689  -13.5020  -14.7478 N   0  0  0  0  0  0  0  0  0  0  0  0
   13.9659  -12.5917  -15.2532 C   0  0  1  0  0  0  0  0  0  0  0  0
   12.5661  -13.0808  -14.9213 C   0  0  0  0  0  0  0  0  0  0  0  0
   12.2678  -14.3186  -15.6638 C   0  0  0  0  0  0  0  0  0  0  0  0
   11.5785  -15.2092  -15.1274 O   0  0  0  0  0  0  0  0  0  0  0  0
   14.2104  -11.2533  -14.6207 C   0  0  0  0  0  0  0  0  0  0  0  0
   13.6299  -10.9173  -13.5572 O   0  0  0  0  0  0  0  0  0  0  0  0
   12.7518  -14.4844  -16.9446 O   0  0  0  0  0  0  0  0  0  0  0  0
   15.1094  -10.3136  -15.2019 N   0  0  0  0  0  0  0  0  0  0  0  0
   15.3010   -8.9869  -14.7202 C   0  0  0  0  0  0  0  0  0  0  0  0
   16.2073   -8.1384  -15.4996 C   0  0  0  0  0  0  0  0  0  0  0  0
   16.8530   -8.6365  -16.4902 O   0  0  0  0  0  0  0  0  0  0  0  0
   16.2413   -3.8570  -19.2188 C   0  0  0  0  0  0  0  0  0  0  0  0
   17.1668   -4.6501  -18.3380 C   0  0  2  0  0  0  0  0  0  0  0  0
   18.1515   -5.4036  -19.1728 C   0  0  0  0  0  0  0  0  0  0  0  0
   16.5427   -5.3989  -17.2438 C   0  0  0  0  0  0  0  0  0  0  0  0
   17.3490   -5.9755  -16.1535 C   0  0  2  0  0  0  0  0  0  0  0  0
   16.4472   -6.7625  -15.2552 N   0  0  0  0  0  0  0  0  0  0  0  0
   18.0660   -5.0504  -15.2707 C   0  0  0  0  0  0  0  0  0  0  0  0
   17.5358   -4.6138  -14.1807 O   0  0  0  0  0  0  0  0  0  0  0  0
   19.3500   -4.5516  -15.4790 O   0  0  0  0  0  0  0  0  0  0  0  0
  2  1  1  1
  2  3  1  0
  3  4  1  0
  4  5  2  0
  4  8  1  0
  6  7  2  0
  6  2  1  0
  9  6  1  0
 10  9  1  0
 11 10  1  0
 11 18  1  0
 12 11  2  0
 14 13  1  6
 14 15  1  0
 16 14  1  0
 17 18  1  0
 17 16  1  6
 19 21  1  0
 19 17  1  0
 20 19  2  0
M  END
$$$$
