DGL.pdb
     RDKit          3D

 21 20  0  0  1  0  0  0  0  0999 V2000
   18.5080  -11.4495  -15.6478 N   0  0  0  0  0  0  0  0  0  0  0  0
   17.3120  -10.9693  -14.9927 C   0  0  1  0  0  0  0  0  0  0  0  0
   16.2548  -12.0581  -14.9172 C   0  0  0  0  0  0  0  0  0  0  0  0
   15.7719  -12.3960  -16.2681 C   0  0  0  0  0  0  0  0  0  0  0  0
   15.6459  -11.4953  -17.1218 O   0  0  0  0  0  0  0  0  0  0  0  0
   17.6993  -10.5269  -13.6124 C   0  0  0  0  0  0  0  0  0  0  0  0
   18.7416  -10.9575  -13.0565 O   0  0  0  0  0  0  0  0  0  0  0  0
   15.4628  -13.7036  -16.5794 O   0  0  0  0  0  0  0  0  0  0  0  0
   16.9001   -9.6024  -12.8804 N   0  0  0  0  0  0  0  0  0  0  0  0
   17.2928   -9.0068  -11.6476 C   0  0  0  0  0  0  0  0  0  0  0  0
   16.3455   -8.0584  -11.0545 C   0  0  0  0  0  0  0  0  0  0  0  0
   15.4215   -7.5423  -11.7799 O   0  0  0  0  0  0  0  0  0  0  0  0
   14.4694   -6.0207   -5.4583 C   0  0  0  0  0  0  0  0  0  0  0  0
   14.2559   -6.0521   -6.9465 C   0  0  2  0  0  0  0  0  0  0  0  0
   12.8131   -6.2929   -7.2543 C   0  0  0  0  0  0  0  0  0  0  0  0
   15.2205   -6.8317   -7.7270 C   0  0  0  0  0  0  0  0  0  0  0  0
   15.3120   -6.6915   -9.1910 C   0  0  2  0  0  0  0  0  0  0  0  0
   16.3508   -7.6413   -9.6994 N   0  0  0  0  0  0  0  0  0  0  0  0
   15.6868   -5.3807   -9.7300 C   0  0  0  0  0  0  0  0  0  0  0  0
   16.9155   -4.9951   -9.7673 O   0  0  0  0  0  0  0  0  0  0  0  0
   14.8112   -4.4306  -10.2512 O   0  0  0  0  0  0  0  0  0  0  0  0
  2  1  1  1
  2  3  1  0
  3  4  1  0
  4  5  2  0
  4  8  1  0
  6  7  2  0
  6  2  1  0
  9  6  1  0
 10  9  1  0
 11 10  1  0
 11 18  1  0
 12 11  2  0
 14 13  1  1
 14 15  1  0
 16 14  1  0
 17 18  1  0
 17 16  1  1
 19 21  1  0
 19 17  1  0
 20 19  2  0
M  END
$$$$
