DGL.pdb
     RDKit          3D

 21 20  0  0  1  0  0  0  0  0999 V2000
   16.5414  -11.2445  -17.0118 N   0  0  0  0  0  0  0  0  0  0  0  0
   15.4817  -10.4993  -16.3699 C   0  0  1  0  0  0  0  0  0  0  0  0
   15.0888  -11.1359  -15.0473 C   0  0  0  0  0  0  0  0  0  0  0  0
   14.3703  -12.4010  -15.2826 C   0  0  0  0  0  0  0  0  0  0  0  0
   13.4247  -12.4319  -16.0956 O   0  0  0  0  0  0  0  0  0  0  0  0
   15.9835   -9.1035  -16.1440 C   0  0  0  0  0  0  0  0  0  0  0  0
   15.2521   -8.2221  -15.6253 O   0  0  0  0  0  0  0  0  0  0  0  0
   14.7471  -13.5410  -14.6037 O   0  0  0  0  0  0  0  0  0  0  0  0
   17.3075   -8.7252  -16.5089 N   0  0  0  0  0  0  0  0  0  0  0  0
   17.8865   -7.4573  -16.2155 C   0  0  0  0  0  0  0  0  0  0  0  0
   18.8946   -7.4352  -15.1516 C   0  0  0  0  0  0  0  0  0  0  0  0
   18.8346   -8.2921  -14.1985 O   0  0  0  0  0  0  0  0  0  0  0  0
   23.7869   -9.5481  -14.4541 C   0  0  0  0  0  0  0  0  0  0  0  0
   22.8948   -8.5701  -13.7406 C   0  0  2  0  0  0  0  0  0  0  0  0
   22.5812   -9.0677  -12.3664 C   0  0  0  0  0  0  0  0  0  0  0  0
   21.7646   -8.0394  -14.5077 C   0  0  0  0  0  0  0  0  0  0  0  0
   21.1158   -6.7698  -14.1354 C   0  0  2  0  0  0  0  0  0  0  0  0
   19.9758   -6.5214  -15.0726 N   0  0  0  0  0  0  0  0  0  0  0  0
   21.9270   -5.5495  -14.1780 C   0  0  0  0  0  0  0  0  0  0  0  0
   22.7278   -5.2402  -13.2173 O   0  0  0  0  0  0  0  0  0  0  0  0
   21.9435   -4.6146  -15.2109 O   0  0  0  0  0  0  0  0  0  0  0  0
  2  1  1  1
  2  3  1  0
  3  4  1  0
  4  5  2  0
  4  8  1  0
  6  7  2  0
  6  2  1  0
  9  6  1  0
 10  9  1  0
 11 10  1  0
 11 18  1  0
 12 11  2  0
 14 13  1  6
 14 15  1  0
 16 14  1  0
 17 18  1  0
 17 16  1  6
 19 21  1  0
 19 17  1  0
 20 19  2  0
M  END
$$$$
