DGL.pdb
     RDKit          3D

 21 20  0  0  1  0  0  0  0  0999 V2000
   17.7216  -14.2803  -15.2123 N   0  0  0  0  0  0  0  0  0  0  0  0
   17.4031  -14.2623  -16.6224 C   0  0  1  0  0  0  0  0  0  0  0  0
   15.9032  -14.3583  -16.8458 C   0  0  0  0  0  0  0  0  0  0  0  0
   15.3895  -15.6371  -16.3232 C   0  0  0  0  0  0  0  0  0  0  0  0
   14.5655  -15.6348  -15.3867 O   0  0  0  0  0  0  0  0  0  0  0  0
   17.9297  -12.9765  -17.1885 C   0  0  0  0  0  0  0  0  0  0  0  0
   17.7771  -12.6857  -18.4021 O   0  0  0  0  0  0  0  0  0  0  0  0
   15.8221  -16.8263  -16.8719 O   0  0  0  0  0  0  0  0  0  0  0  0
   18.6223  -12.0373  -16.3714 N   0  0  0  0  0  0  0  0  0  0  0  0
   19.1334  -10.7933  -16.8405 C   0  0  0  0  0  0  0  0  0  0  0  0
   19.7958   -9.9470  -15.8437 C   0  0  0  0  0  0  0  0  0  0  0  0
   19.4175   -9.9896  -14.6184 O   0  0  0  0  0  0  0  0  0  0  0  0
   23.3357  -10.6573  -13.6968 C   0  0  0  0  0  0  0  0  0  0  0  0
   23.6137   -9.9706  -15.0055 C   0  0  2  0  0  0  0  0  0  0  0  0
   25.0558  -10.1205  -15.3690 C   0  0  0  0  0  0  0  0  0  0  0  0
   23.0425   -8.6315  -15.1730 C   0  0  0  0  0  0  0  0  0  0  0  0
   21.6002   -8.3870  -14.9954 C   0  0  2  0  0  0  0  0  0  0  0  0
   20.8603   -9.0503  -16.1144 N   0  0  0  0  0  0  0  0  0  0  0  0
   21.1379   -6.9957  -14.9946 C   0  0  0  0  0  0  0  0  0  0  0  0
   21.4210   -6.1935  -14.0271 O   0  0  0  0  0  0  0  0  0  0  0  0
   20.3766   -6.3869  -15.9899 O   0  0  0  0  0  0  0  0  0  0  0  0
  2  1  1  1
  2  3  1  0
  3  4  1  0
  4  5  2  0
  4  8  1  0
  6  7  2  0
  6  2  1  0
  9  6  1  0
 10  9  1  0
 11 10  1  0
 11 18  1  0
 12 11  2  0
 14 13  1  1
 14 15  1  0
 16 14  1  0
 17 18  1  0
 17 16  1  6
 19 21  1  0
 19 17  1  0
 20 19  2  0
M  END
$$$$
