DGL.pdb
     RDKit          3D

 21 20  0  0  1  0  0  0  0  0999 V2000
   17.6278   -5.5102  -15.1729 N   0  0  0  0  0  0  0  0  0  0  0  0
   16.7494   -4.5583  -15.8151 C   0  0  1  0  0  0  0  0  0  0  0  0
   15.2916   -4.9376  -15.6151 C   0  0  0  0  0  0  0  0  0  0  0  0
   15.0356   -6.2852  -16.1544 C   0  0  0  0  0  0  0  0  0  0  0  0
   15.3968   -6.5643  -17.3153 O   0  0  0  0  0  0  0  0  0  0  0  0
   17.0219   -3.2125  -15.2104 C   0  0  0  0  0  0  0  0  0  0  0  0
   17.1168   -3.0623  -13.9657 O   0  0  0  0  0  0  0  0  0  0  0  0
   14.3997   -7.2276  -15.3736 O   0  0  0  0  0  0  0  0  0  0  0  0
   17.1832   -2.0547  -16.0245 N   0  0  0  0  0  0  0  0  0  0  0  0
   17.4833   -0.7572  -15.5192 C   0  0  0  0  0  0  0  0  0  0  0  0
   18.7984   -0.5933  -14.8929 C   0  0  0  0  0  0  0  0  0  0  0  0
   19.6148   -1.5824  -14.8559 O   0  0  0  0  0  0  0  0  0  0  0  0
   23.6649   -0.2210  -13.7172 C   0  0  0  0  0  0  0  0  0  0  0  0
   23.0361    0.4947  -14.8808 C   0  0  2  0  0  0  0  0  0  0  0  0
   23.6176    1.8649  -15.0171 C   0  0  0  0  0  0  0  0  0  0  0  0
   21.5782    0.3988  -14.9941 C   0  0  0  0  0  0  0  0  0  0  0  0
   20.6994    0.7174  -13.8549 C   0  0  2  0  0  0  0  0  0  0  0  0
   19.2757    0.6038  -14.3016 N   0  0  0  0  0  0  0  0  0  0  0  0
   20.8136    2.0504  -13.2555 C   0  0  0  0  0  0  0  0  0  0  0  0
   21.5924    2.2729  -12.2537 O   0  0  0  0  0  0  0  0  0  0  0  0
   20.1356    3.1943  -13.6713 O   0  0  0  0  0  0  0  0  0  0  0  0
  2  1  1  1
  2  3  1  0
  3  4  1  0
  4  5  2  0
  4  8  1  0
  6  7  2  0
  6  2  1  0
  9  6  1  0
 10  9  1  0
 11 10  1  0
 11 18  1  0
 12 11  2  0
 14 13  1  1
 14 15  1  0
 16 14  1  0
 17 18  1  0
 17 16  1  6
 19 21  1  0
 19 17  1  0
 20 19  2  0
M  END
$$$$
