DGL.pdb
     RDKit          3D

 21 20  0  0  1  0  0  0  0  0999 V2000
   22.7491  -17.6137  -16.3947 N   0  0  0  0  0  0  0  0  0  0  0  0
   23.2068  -18.9615  -16.1417 C   0  0  1  0  0  0  0  0  0  0  0  0
   24.7246  -19.0336  -16.1461 C   0  0  0  0  0  0  0  0  0  0  0  0
   25.2448  -18.7703  -17.4998 C   0  0  0  0  0  0  0  0  0  0  0  0
   24.4529  -18.4865  -18.4209 O   0  0  0  0  0  0  0  0  0  0  0  0
   22.6726  -19.3763  -14.8024 C   0  0  0  0  0  0  0  0  0  0  0  0
   22.4509  -18.5323  -13.8973 O   0  0  0  0  0  0  0  0  0  0  0  0
   26.6013  -18.8390  -17.7394 O   0  0  0  0  0  0  0  0  0  0  0  0
   22.3969  -20.7423  -14.5069 N   0  0  0  0  0  0  0  0  0  0  0  0
   21.7968  -21.1931  -13.2963 C   0  0  0  0  0  0  0  0  0  0  0  0
   20.6328  -22.0728  -13.4377 C   0  0  0  0  0  0  0  0  0  0  0  0
   20.1204  -22.2708  -14.5972 O   0  0  0  0  0  0  0  0  0  0  0  0
   20.3086  -26.4309  -12.9277 C   0  0  0  0  0  0  0  0  0  0  0  0
   20.0009  -25.7084  -11.6452 C   0  0  2  0  0  0  0  0  0  0  0  0
   20.0325  -26.6639  -10.4962 C   0  0  0  0  0  0  0  0  0  0  0  0
   18.8709  -24.7760  -11.6775 C   0  0  0  0  0  0  0  0  0  0  0  0
   18.8286  -23.6575  -12.6360 C   0  0  2  0  0  0  0  0  0  0  0  0
   19.9938  -22.7561  -12.3723 N   0  0  0  0  0  0  0  0  0  0  0  0
   17.6504  -22.7853  -12.6171 C   0  0  0  0  0  0  0  0  0  0  0  0
   16.5225  -23.1678  -13.1083 O   0  0  0  0  0  0  0  0  0  0  0  0
   17.5952  -21.4977  -12.0880 O   0  0  0  0  0  0  0  0  0  0  0  0
  2  1  1  1
  2  3  1  0
  3  4  1  0
  4  5  2  0
  4  8  1  0
  6  7  2  0
  6  2  1  0
  9  6  1  0
 10  9  1  0
 11 10  1  0
 11 18  1  0
 12 11  2  0
 14 13  1  6
 14 15  1  0
 16 14  1  0
 17 18  1  0
 17 16  1  1
 19 21  1  0
 19 17  1  0
 20 19  2  0
M  END
$$$$
