DGL.pdb
     RDKit          3D

 21 20  0  0  1  0  0  0  0  0999 V2000
   15.7895   -9.9886  -14.8621 N   0  0  0  0  0  0  0  0  0  0  0  0
   14.9832   -8.8935  -15.3528 C   0  0  1  0  0  0  0  0  0  0  0  0
   13.5505   -9.0049  -14.8591 C   0  0  0  0  0  0  0  0  0  0  0  0
   12.9036  -10.1984  -15.4328 C   0  0  0  0  0  0  0  0  0  0  0  0
   13.0117  -10.4326  -16.6532 O   0  0  0  0  0  0  0  0  0  0  0  0
   15.6033   -7.6194  -14.8598 C   0  0  0  0  0  0  0  0  0  0  0  0
   15.2150   -6.4990  -15.2780 O   0  0  0  0  0  0  0  0  0  0  0  0
   12.1839  -11.0476  -14.6183 O   0  0  0  0  0  0  0  0  0  0  0  0
   16.6552   -7.6319  -13.8993 N   0  0  0  0  0  0  0  0  0  0  0  0
   17.2078   -6.4622  -13.3032 C   0  0  0  0  0  0  0  0  0  0  0  0
   18.6125   -6.5451  -12.8927 C   0  0  0  0  0  0  0  0  0  0  0  0
   19.0008   -7.5085  -12.1394 O   0  0  0  0  0  0  0  0  0  0  0  0
   22.6482   -8.8174  -15.4804 C   0  0  0  0  0  0  0  0  0  0  0  0
   22.5162   -7.8569  -14.3309 C   0  0  2  0  0  0  0  0  0  0  0  0
   23.0169   -8.4889  -13.0723 C   0  0  0  0  0  0  0  0  0  0  0  0
   21.2454   -7.1343  -14.2281 C   0  0  0  0  0  0  0  0  0  0  0  0
   21.0650   -6.0368  -13.2614 C   0  0  2  0  0  0  0  0  0  0  0  0
   19.6260   -5.6263  -13.2655 N   0  0  0  0  0  0  0  0  0  0  0  0
   21.8224   -4.8010  -13.4811 C   0  0  0  0  0  0  0  0  0  0  0  0
   21.3883   -3.8768  -14.2667 O   0  0  0  0  0  0  0  0  0  0  0  0
   23.0445   -4.4764  -12.8962 O   0  0  0  0  0  0  0  0  0  0  0  0
  2  1  1  1
  2  3  1  0
  3  4  1  0
  4  5  2  0
  4  8  1  0
  6  7  2  0
  6  2  1  0
  9  6  1  0
 10  9  1  0
 11 10  1  0
 11 18  1  0
 12 11  2  0
 14 13  1  6
 14 15  1  0
 16 14  1  0
 17 18  1  0
 17 16  1  6
 19 21  1  0
 19 17  1  0
 20 19  2  0
M  END
$$$$
