DGL.pdb
     RDKit          3D

 21 20  0  0  1  0  0  0  0  0999 V2000
   17.7729  -12.1242  -14.8306 N   0  0  0  0  0  0  0  0  0  0  0  0
   17.1673  -11.2395  -15.8004 C   0  0  1  0  0  0  0  0  0  0  0  0
   15.7337  -11.6486  -16.0941 C   0  0  0  0  0  0  0  0  0  0  0  0
   15.6950  -13.0143  -16.6470 C   0  0  0  0  0  0  0  0  0  0  0  0
   15.2578  -13.9508  -15.9485 O   0  0  0  0  0  0  0  0  0  0  0  0
   17.2034   -9.8518  -15.2310 C   0  0  0  0  0  0  0  0  0  0  0  0
   16.6670   -9.5848  -14.1256 O   0  0  0  0  0  0  0  0  0  0  0  0
   16.1416  -13.2481  -17.9307 O   0  0  0  0  0  0  0  0  0  0  0  0
   17.8471   -8.7853  -15.9219 N   0  0  0  0  0  0  0  0  0  0  0  0
   17.9797   -7.4638  -15.4071 C   0  0  0  0  0  0  0  0  0  0  0  0
   19.1658   -7.2035  -14.5862 C   0  0  0  0  0  0  0  0  0  0  0  0
   19.1004   -7.3352  -13.3115 O   0  0  0  0  0  0  0  0  0  0  0  0
   22.3515   -9.7255  -13.1948 C   0  0  0  0  0  0  0  0  0  0  0  0
   22.4466   -9.1879  -14.5960 C   0  0  2  0  0  0  0  0  0  0  0  0
   23.3612  -10.0418  -15.4137 C   0  0  0  0  0  0  0  0  0  0  0  0
   22.6277   -7.7396  -14.7274 C   0  0  0  0  0  0  0  0  0  0  0  0
   21.6328   -6.7924  -14.1939 C   0  0  2  0  0  0  0  0  0  0  0  0
   20.4316   -6.8059  -15.0863 N   0  0  0  0  0  0  0  0  0  0  0  0
   22.0207   -5.3828  -14.0855 C   0  0  0  0  0  0  0  0  0  0  0  0
   21.6375   -4.5111  -14.9533 O   0  0  0  0  0  0  0  0  0  0  0  0
   22.8085   -4.8269  -13.0798 O   0  0  0  0  0  0  0  0  0  0  0  0
  2  1  1  1
  2  3  1  0
  3  4  1  0
  4  5  2  0
  4  8  1  0
  6  7  2  0
  6  2  1  0
  9  6  1  0
 10  9  1  0
 11 10  1  0
 11 18  1  0
 12 11  2  0
 14 13  1  1
 14 15  1  0
 16 14  1  0
 17 18  1  0
 17 16  1  6
 19 21  1  0
 19 17  1  0
 20 19  2  0
M  END
$$$$
