DGL.pdb
     RDKit          3D

 21 20  0  0  1  0  0  0  0  0999 V2000
   14.1225  -12.6585  -10.3193 N   0  0  0  0  0  0  0  0  0  0  0  0
   13.1341  -11.6071  -10.4070 C   0  0  1  0  0  0  0  0  0  0  0  0
   12.1881  -11.6450   -9.2186 C   0  0  0  0  0  0  0  0  0  0  0  0
   10.7902  -11.7160   -9.6803 C   0  0  0  0  0  0  0  0  0  0  0  0
   10.5480  -11.8517  -10.8964 O   0  0  0  0  0  0  0  0  0  0  0  0
   13.8679  -10.2989  -10.4433 C   0  0  0  0  0  0  0  0  0  0  0  0
   13.2689   -9.2201  -10.6848 O   0  0  0  0  0  0  0  0  0  0  0  0
    9.7604  -11.6320   -8.7667 O   0  0  0  0  0  0  0  0  0  0  0  0
   15.2707  -10.2307  -10.2054 N   0  0  0  0  0  0  0  0  0  0  0  0
   16.0436   -9.0393  -10.3157 C   0  0  0  0  0  0  0  0  0  0  0  0
   16.4285   -8.6391  -11.6723 C   0  0  0  0  0  0  0  0  0  0  0  0
   16.2996   -9.4688  -12.6426 O   0  0  0  0  0  0  0  0  0  0  0  0
   15.1730   -5.1457  -16.0436 C   0  0  0  0  0  0  0  0  0  0  0  0
   16.3055   -5.9831  -15.5168 C   0  0  2  0  0  0  0  0  0  0  0  0
   16.6181   -7.0869  -16.4750 C   0  0  0  0  0  0  0  0  0  0  0  0
   16.2352   -6.3583  -14.1019 C   0  0  0  0  0  0  0  0  0  0  0  0
   17.3402   -7.0790  -13.4454 C   0  0  2  0  0  0  0  0  0  0  0  0
   16.9489   -7.3698  -12.0305 N   0  0  0  0  0  0  0  0  0  0  0  0
   18.6395   -6.4055  -13.3588 C   0  0  0  0  0  0  0  0  0  0  0  0
   18.9280   -5.6246  -12.3756 O   0  0  0  0  0  0  0  0  0  0  0  0
   19.6817   -6.5191  -14.2763 O   0  0  0  0  0  0  0  0  0  0  0  0
  2  1  1  1
  2  3  1  0
  3  4  1  0
  4  5  2  0
  4  8  1  0
  6  7  2  0
  6  2  1  0
  9  6  1  0
 10  9  1  0
 11 10  1  0
 11 18  1  0
 12 11  2  0
 14 13  1  6
 14 15  1  0
 16 14  1  0
 17 18  1  0
 17 16  1  1
 19 21  1  0
 19 17  1  0
 20 19  2  0
M  END
$$$$
