EQQ.pdb
     RDKit          3D

 28 27  0  0  1  0  0  0  0  0999 V2000
   19.3434  -11.5940  -16.7030 N   0  0  0  0  0  0  0  0  0  0  0  0
   18.7500  -10.5727  -17.5402 C   0  0  1  0  0  0  0  0  0  0  0  0
   17.3913  -11.0078  -18.0447 C   0  0  0  0  0  0  0  0  0  0  0  0
   17.3656  -12.4525  -18.4597 C   0  0  0  0  0  0  0  0  0  0  0  0
   15.9928  -12.7489  -18.9254 C   0  0  0  0  0  0  0  0  0  0  0  0
   15.1098  -11.8703  -18.8961 O   0  0  0  0  0  0  0  0  0  0  0  0
   18.5026   -9.3753  -16.7071 C   0  0  0  0  0  0  0  0  0  0  0  0
   17.9772   -8.3684  -17.2379 O   0  0  0  0  0  0  0  0  0  0  0  0
   15.6289  -14.0103  -19.4068 O   0  0  0  0  0  0  0  0  0  0  0  0
   17.5782   -9.4839  -10.6944 N   0  0  0  0  0  0  0  0  0  0  0  0
   16.5827   -9.6686  -11.6816 C   0  0  0  0  0  0  0  0  0  0  0  0
   15.4779  -10.1673  -11.3558 O   0  0  0  0  0  0  0  0  0  0  0  0
   16.8777   -9.2638  -13.0848 C   0  0  0  0  0  0  0  0  0  0  0  0
   18.2677   -8.7133  -13.1410 C   0  0  0  0  0  0  0  0  0  0  0  0
   18.6974   -8.2385  -14.4869 C   0  0  2  0  0  0  0  0  0  0  0  0
   18.8632   -9.3995  -15.3467 N   0  0  0  0  0  0  0  0  0  0  0  0
   19.9180   -7.4226  -14.5144 C   0  0  0  0  0  0  0  0  0  0  0  0
   21.0547   -7.9571  -14.5857 O   0  0  0  0  0  0  0  0  0  0  0  0
   20.5743   -1.5327  -16.8262 N   0  0  0  0  0  0  0  0  0  0  0  0
   21.7943   -1.7741  -16.1584 C   0  0  0  0  0  0  0  0  0  0  0  0
   22.7021   -0.9031  -16.2381 O   0  0  0  0  0  0  0  0  0  0  0  0
   22.0258   -2.9889  -15.3832 C   0  0  0  0  0  0  0  0  0  0  0  0
   20.8877   -3.9467  -15.2872 C   0  0  0  0  0  0  0  0  0  0  0  0
   21.1202   -5.1820  -14.4832 C   0  0  2  0  0  0  0  0  0  0  0  0
   19.8931   -5.9936  -14.4635 N   0  0  0  0  0  0  0  0  0  0  0  0
   21.7365   -5.0792  -13.1830 C   0  0  0  0  0  0  0  0  0  0  0  0
   23.0630   -4.8822  -12.8623 O   0  0  0  0  0  0  0  0  0  0  0  0
   20.9607   -5.1935  -12.1655 O   0  0  0  0  0  0  0  0  0  0  0  0
  2  1  1  1
  2  7  1  0
  3  2  1  0
  3  4  1  0
  5  4  1  0
  5  9  1  0
  6  5  2  0
  7  8  2  0
  7 16  1  0
 10 11  1  0
 11 12  2  0
 13 14  1  0
 13 11  1  0
 15 17  1  0
 15 14  1  1
 16 15  1  0
 17 18  2  0
 20 19  1  0
 20 21  2  0
 22 20  1  0
 23 22  1  0
 24 23  1  1
 25 24  1  0
 25 17  1  0
 26 24  1  0
 26 27  1  0
 28 26  2  0
M  END
$$$$
