EQQ.pdb
     RDKit          3D

 28 27  0  0  1  0  0  0  0  0999 V2000
   17.9964  -12.5854  -18.9474 N   0  0  0  0  0  0  0  0  0  0  0  0
   18.1595  -12.1934  -17.5633 C   0  0  1  0  0  0  0  0  0  0  0  0
   19.5125  -12.6191  -17.0356 C   0  0  0  0  0  0  0  0  0  0  0  0
   19.6899  -14.1119  -17.0409 C   0  0  0  0  0  0  0  0  0  0  0  0
   21.0103  -14.3970  -16.4369 C   0  0  0  0  0  0  0  0  0  0  0  0
   21.6892  -13.4805  -15.9354 O   0  0  0  0  0  0  0  0  0  0  0  0
   18.1507  -10.7155  -17.4951 C   0  0  0  0  0  0  0  0  0  0  0  0
   18.6132  -10.0636  -18.4610 O   0  0  0  0  0  0  0  0  0  0  0  0
   21.5495  -15.6868  -16.4070 O   0  0  0  0  0  0  0  0  0  0  0  0
   13.6291   -7.7701  -15.1430 N   0  0  0  0  0  0  0  0  0  0  0  0
   14.4773   -6.6406  -15.2069 C   0  0  0  0  0  0  0  0  0  0  0  0
   14.0143   -5.5068  -14.9317 O   0  0  0  0  0  0  0  0  0  0  0  0
   15.9014   -6.8320  -15.6011 C   0  0  0  0  0  0  0  0  0  0  0  0
   16.1437   -8.2917  -15.8220 C   0  0  0  0  0  0  0  0  0  0  0  0
   17.5295   -8.6372  -16.2485 C   0  0  2  0  0  0  0  0  0  0  0  0
   17.6256  -10.0845  -16.3517 N   0  0  0  0  0  0  0  0  0  0  0  0
   18.6057   -8.1287  -15.3885 C   0  0  0  0  0  0  0  0  0  0  0  0
   19.3436   -8.9139  -14.7391 O   0  0  0  0  0  0  0  0  0  0  0  0
   23.4363   -8.4019  -16.7856 N   0  0  0  0  0  0  0  0  0  0  0  0
   23.7253   -7.3380  -15.9040 C   0  0  0  0  0  0  0  0  0  0  0  0
   24.9339   -7.0550  -15.6842 O   0  0  0  0  0  0  0  0  0  0  0  0
   22.6730   -6.5638  -15.2532 C   0  0  0  0  0  0  0  0  0  0  0  0
   21.2690   -6.9823  -15.5280 C   0  0  0  0  0  0  0  0  0  0  0  0
   20.1957   -6.2284  -14.8167 C   0  0  2  0  0  0  0  0  0  0  0  0
   18.8793   -6.7331  -15.2373 N   0  0  0  0  0  0  0  0  0  0  0  0
   20.2477   -4.7874  -14.7732 C   0  0  0  0  0  0  0  0  0  0  0  0
   20.9031   -3.9672  -13.8792 O   0  0  0  0  0  0  0  0  0  0  0  0
   19.5906   -4.1581  -15.6801 O   0  0  0  0  0  0  0  0  0  0  0  0
  2  1  1  6
  2  7  1  0
  3  2  1  0
  3  4  1  0
  5  4  1  0
  5  9  1  0
  6  5  2  0
  7  8  2  0
  7 16  1  0
 10 11  1  0
 11 12  2  0
 13 14  1  0
 13 11  1  0
 15 17  1  0
 15 14  1  1
 16 15  1  0
 17 18  2  0
 20 19  1  0
 20 21  2  0
 22 20  1  0
 23 22  1  0
 24 23  1  6
 25 24  1  0
 25 17  1  0
 26 24  1  0
 26 27  1  0
 28 26  2  0
M  END
$$$$
