EQQ.pdb
     RDKit          3D

 28 27  0  0  1  0  0  0  0  0999 V2000
   22.8588  -18.4253  -18.7469 N   0  0  0  0  0  0  0  0  0  0  0  0
   23.4006  -17.9898  -17.4769 C   0  0  1  0  0  0  0  0  0  0  0  0
   22.3909  -17.1613  -16.7127 C   0  0  0  0  0  0  0  0  0  0  0  0
   21.0192  -17.2139  -17.3258 C   0  0  0  0  0  0  0  0  0  0  0  0
   20.1463  -16.3319  -16.5198 C   0  0  0  0  0  0  0  0  0  0  0  0
   20.6174  -15.3395  -15.9319 O   0  0  0  0  0  0  0  0  0  0  0  0
   23.6490  -19.1865  -16.6432 C   0  0  0  0  0  0  0  0  0  0  0  0
   22.7324  -20.0317  -16.5117 O   0  0  0  0  0  0  0  0  0  0  0  0
   18.7759  -16.5718  -16.3796 O   0  0  0  0  0  0  0  0  0  0  0  0
   28.1026  -22.5804  -17.3563 N   0  0  0  0  0  0  0  0  0  0  0  0
   28.6189  -21.8034  -16.2937 C   0  0  0  0  0  0  0  0  0  0  0  0
   29.8582  -21.7765  -16.0965 O   0  0  0  0  0  0  0  0  0  0  0  0
   27.6712  -21.0371  -15.4365 C   0  0  0  0  0  0  0  0  0  0  0  0
   26.2784  -21.2884  -15.9216 C   0  0  0  0  0  0  0  0  0  0  0  0
   25.2214  -20.5096  -15.2162 C   0  0  2  0  0  0  0  0  0  0  0  0
   24.9027  -19.3422  -16.0226 N   0  0  0  0  0  0  0  0  0  0  0  0
   25.5454  -20.0925  -13.8460 C   0  0  0  0  0  0  0  0  0  0  0  0
   25.7799  -18.8871  -13.5726 O   0  0  0  0  0  0  0  0  0  0  0  0
   20.7565  -19.7733  -11.8849 N   0  0  0  0  0  0  0  0  0  0  0  0
   21.3709  -19.7114  -10.6154 C   0  0  0  0  0  0  0  0  0  0  0  0
   20.6638  -19.3845   -9.6243 O   0  0  0  0  0  0  0  0  0  0  0  0
   22.7849  -20.0178  -10.4236 C   0  0  0  0  0  0  0  0  0  0  0  0
   23.5797  -20.3002  -11.6527 C   0  0  0  0  0  0  0  0  0  0  0  0
   24.9918  -20.7373  -11.4493 C   0  0  2  0  0  0  0  0  0  0  0  0
   25.6133  -21.0135  -12.7540 N   0  0  0  0  0  0  0  0  0  0  0  0
   25.2878  -21.7536  -10.4693 C   0  0  0  0  0  0  0  0  0  0  0  0
   25.4738  -21.6225   -9.1092 O   0  0  0  0  0  0  0  0  0  0  0  0
   25.4089  -22.9566  -10.9031 O   0  0  0  0  0  0  0  0  0  0  0  0
  2  1  1  6
  2  7  1  0
  3  2  1  0
  3  4  1  0
  5  4  1  0
  5  9  1  0
  6  5  2  0
  7  8  2  0
  7 16  1  0
 10 11  1  0
 11 12  2  0
 13 14  1  0
 13 11  1  0
 15 17  1  0
 15 14  1  6
 16 15  1  0
 17 18  2  0
 20 19  1  0
 20 21  2  0
 22 20  1  0
 23 22  1  0
 24 23  1  6
 25 24  1  0
 25 17  1  0
 26 24  1  0
 26 27  1  0
 28 26  2  0
M  END
$$$$
