EQQ.pdb
     RDKit          3D

 28 27  0  0  1  0  0  0  0  0999 V2000
   16.3120  -11.0375  -10.3543 N   0  0  0  0  0  0  0  0  0  0  0  0
   15.9014  -10.9384  -11.7391 C   0  0  1  0  0  0  0  0  0  0  0  0
   14.3947  -11.0044  -11.8634 C   0  0  0  0  0  0  0  0  0  0  0  0
   13.6919  -10.2630  -10.7605 C   0  0  0  0  0  0  0  0  0  0  0  0
   12.2392  -10.4704  -10.9513 C   0  0  0  0  0  0  0  0  0  0  0  0
   11.5265   -9.5651  -11.4254 O   0  0  0  0  0  0  0  0  0  0  0  0
   16.2860   -9.6015  -12.2428 C   0  0  0  0  0  0  0  0  0  0  0  0
   15.9880   -9.2911  -13.4204 O   0  0  0  0  0  0  0  0  0  0  0  0
   11.6100  -11.6711  -10.6083 O   0  0  0  0  0  0  0  0  0  0  0  0
   16.8883   -4.1601   -9.3963 N   0  0  0  0  0  0  0  0  0  0  0  0
   17.4619   -5.2738   -8.7404 C   0  0  0  0  0  0  0  0  0  0  0  0
   17.9201   -5.1358   -7.5800 O   0  0  0  0  0  0  0  0  0  0  0  0
   17.5052   -6.5829   -9.4506 C   0  0  0  0  0  0  0  0  0  0  0  0
   16.9315   -6.4022  -10.8205 C   0  0  0  0  0  0  0  0  0  0  0  0
   17.3955   -7.3978  -11.8281 C   0  0  2  0  0  0  0  0  0  0  0  0
   16.9740   -8.7185  -11.3893 N   0  0  0  0  0  0  0  0  0  0  0  0
   18.8384   -7.4027  -12.1006 C   0  0  0  0  0  0  0  0  0  0  0  0
   19.6477   -7.9437  -11.3036 O   0  0  0  0  0  0  0  0  0  0  0  0
   19.5163   -8.0160  -17.1824 N   0  0  0  0  0  0  0  0  0  0  0  0
   19.7007   -9.0303  -16.2180 C   0  0  0  0  0  0  0  0  0  0  0  0
   19.1256  -10.1376  -16.3974 O   0  0  0  0  0  0  0  0  0  0  0  0
   20.5346   -8.8331  -15.0366 C   0  0  0  0  0  0  0  0  0  0  0  0
   21.1141   -7.4729  -14.8476 C   0  0  0  0  0  0  0  0  0  0  0  0
   20.8527   -6.8117  -13.5357 C   0  0  2  0  0  0  0  0  0  0  0  0
   19.4059   -6.8041  -13.2689 N   0  0  0  0  0  0  0  0  0  0  0  0
   21.4764   -5.5448  -13.2408 C   0  0  0  0  0  0  0  0  0  0  0  0
   20.8888   -4.3427  -12.9072 O   0  0  0  0  0  0  0  0  0  0  0  0
   22.7590   -5.5047  -13.3001 O   0  0  0  0  0  0  0  0  0  0  0  0
  2  1  1  1
  2  7  1  0
  3  2  1  0
  3  4  1  0
  5  4  1  0
  5  9  1  0
  6  5  2  0
  7  8  2  0
  7 16  1  0
 10 11  1  0
 11 12  2  0
 13 14  1  0
 13 11  1  0
 15 17  1  0
 15 14  1  1
 16 15  1  0
 17 18  2  0
 20 19  1  0
 20 21  2  0
 22 20  1  0
 23 22  1  0
 24 23  1  6
 25 24  1  0
 25 17  1  0
 26 24  1  0
 26 27  1  0
 28 26  2  0
M  END
$$$$
