EQQ.pdb
     RDKit          3D

 28 27  0  0  1  0  0  0  0  0999 V2000
   27.3518  -32.8870   -7.5476 N   0  0  0  0  0  0  0  0  0  0  0  0
   25.9774  -33.2619   -7.2895 C   0  0  1  0  0  0  0  0  0  0  0  0
   25.4390  -34.1419   -8.3966 C   0  0  0  0  0  0  0  0  0  0  0  0
   25.2884  -33.4045   -9.6980 C   0  0  0  0  0  0  0  0  0  0  0  0
   24.7885  -34.3764  -10.6955 C   0  0  0  0  0  0  0  0  0  0  0  0
   24.6387  -34.0421  -11.8864 O   0  0  0  0  0  0  0  0  0  0  0  0
   25.9448  -34.0933   -6.0662 C   0  0  0  0  0  0  0  0  0  0  0  0
   24.8468  -34.5619   -5.6835 O   0  0  0  0  0  0  0  0  0  0  0  0
   24.4616  -35.6915  -10.3508 O   0  0  0  0  0  0  0  0  0  0  0  0
   30.5719  -37.5017   -4.3710 N   0  0  0  0  0  0  0  0  0  0  0  0
   29.8719  -37.6044   -3.1467 C   0  0  0  0  0  0  0  0  0  0  0  0
   30.3030  -38.3743   -2.2540 O   0  0  0  0  0  0  0  0  0  0  0  0
   28.6381  -36.7919   -2.9533 C   0  0  0  0  0  0  0  0  0  0  0  0
   28.3976  -35.9868   -4.1911 C   0  0  0  0  0  0  0  0  0  0  0  0
   27.1776  -35.1313   -4.1524 C   0  0  2  0  0  0  0  0  0  0  0  0
   27.1432  -34.3338   -5.3679 N   0  0  0  0  0  0  0  0  0  0  0  0
   27.0511  -34.2554   -2.9807 C   0  0  0  0  0  0  0  0  0  0  0  0
   27.3354  -33.0319   -3.0511 O   0  0  0  0  0  0  0  0  0  0  0  0
   23.5102  -30.6986   -2.0823 N   0  0  0  0  0  0  0  0  0  0  0  0
   23.9477  -30.6911   -0.7402 C   0  0  0  0  0  0  0  0  0  0  0  0
   23.5546  -29.7587    0.0116 O   0  0  0  0  0  0  0  0  0  0  0  0
   24.8281  -31.7257   -0.2068 C   0  0  0  0  0  0  0  0  0  0  0  0
   25.3072  -32.7569   -1.1707 C   0  0  0  0  0  0  0  0  0  0  0  0
   26.2028  -33.8178   -0.6238 C   0  0  2  0  0  0  0  0  0  0  0  0
   26.6041  -34.7286   -1.7073 N   0  0  0  0  0  0  0  0  0  0  0  0
   25.8224  -34.5204    0.5772 C   0  0  0  0  0  0  0  0  0  0  0  0
   25.7322  -34.0482    1.8697 O   0  0  0  0  0  0  0  0  0  0  0  0
   25.5311  -35.7651    0.4505 O   0  0  0  0  0  0  0  0  0  0  0  0
  2  1  1  6
  2  7  1  0
  3  2  1  0
  3  4  1  0
  5  4  1  0
  5  9  1  0
  6  5  2  0
  7  8  2  0
  7 16  1  0
 10 11  1  0
 11 12  2  0
 13 14  1  0
 13 11  1  0
 15 17  1  0
 15 14  1  1
 16 15  1  0
 17 18  2  0
 20 19  1  0
 20 21  2  0
 22 20  1  0
 23 22  1  0
 24 23  1  6
 25 24  1  0
 25 17  1  0
 26 24  1  0
 26 27  1  0
 28 26  2  0
M  END
$$$$
