EQQ.pdb
     RDKit          3D

 28 27  0  0  1  0  0  0  0  0999 V2000
   26.3345  -18.8745  -16.2309 N   0  0  0  0  0  0  0  0  0  0  0  0
   25.7440  -19.7358  -17.2337 C   0  0  1  0  0  0  0  0  0  0  0  0
   26.5322  -21.0196  -17.3770 C   0  0  0  0  0  0  0  0  0  0  0  0
   27.8446  -20.9755  -16.6453 C   0  0  0  0  0  0  0  0  0  0  0  0
   28.5020  -22.2856  -16.8480 C   0  0  0  0  0  0  0  0  0  0  0  0
   27.9966  -23.1385  -17.6026 O   0  0  0  0  0  0  0  0  0  0  0  0
   24.4008  -20.1413  -16.7648 C   0  0  0  0  0  0  0  0  0  0  0  0
   23.7528  -20.9769  -17.4383 O   0  0  0  0  0  0  0  0  0  0  0  0
   29.6987  -22.6221  -16.2076 O   0  0  0  0  0  0  0  0  0  0  0  0
   20.1958  -20.4674  -12.7500 N   0  0  0  0  0  0  0  0  0  0  0  0
   21.0044  -21.6260  -12.6927 C   0  0  0  0  0  0  0  0  0  0  0  0
   20.5088  -22.7026  -12.2795 O   0  0  0  0  0  0  0  0  0  0  0  0
   22.4268  -21.5325  -13.1265 C   0  0  0  0  0  0  0  0  0  0  0  0
   22.6931  -20.1359  -13.5923 C   0  0  0  0  0  0  0  0  0  0  0  0
   22.5767  -19.9358  -15.0648 C   0  0  2  0  0  0  0  0  0  0  0  0
   23.8890  -19.5794  -15.5800 N   0  0  0  0  0  0  0  0  0  0  0  0
   21.5874  -18.9399  -15.4957 C   0  0  0  0  0  0  0  0  0  0  0  0
   21.7725  -17.7118  -15.2946 O   0  0  0  0  0  0  0  0  0  0  0  0
   20.2973  -16.3755  -20.0898 N   0  0  0  0  0  0  0  0  0  0  0  0
   18.9442  -16.3414  -19.6889 C   0  0  0  0  0  0  0  0  0  0  0  0
   18.1872  -15.4795  -20.2117 O   0  0  0  0  0  0  0  0  0  0  0  0
   18.4055  -17.2708  -18.7009 C   0  0  0  0  0  0  0  0  0  0  0  0
   19.3711  -18.2259  -18.0865 C   0  0  0  0  0  0  0  0  0  0  0  0
   19.3881  -18.2925  -16.5959 C   0  0  2  0  0  0  0  0  0  0  0  0
   20.3721  -19.2958  -16.1602 N   0  0  0  0  0  0  0  0  0  0  0  0
   18.1431  -18.3886  -15.8738 C   0  0  0  0  0  0  0  0  0  0  0  0
   17.1955  -17.4144  -15.6404 O   0  0  0  0  0  0  0  0  0  0  0  0
   17.8607  -19.5311  -15.3589 O   0  0  0  0  0  0  0  0  0  0  0  0
  2  1  1  1
  2  7  1  0
  3  2  1  0
  3  4  1  0
  5  4  1  0
  5  9  1  0
  6  5  2  0
  7  8  2  0
  7 16  1  0
 10 11  1  0
 11 12  2  0
 13 14  1  0
 13 11  1  0
 15 17  1  0
 15 14  1  1
 16 15  1  0
 17 18  2  0
 20 19  1  0
 20 21  2  0
 22 20  1  0
 23 22  1  0
 24 23  1  6
 25 24  1  0
 25 17  1  0
 26 24  1  0
 26 27  1  0
 28 26  2  0
M  END
$$$$
