GFG.pdb
     RDKit          3D

 20 20  0  0  1  0  0  0  0  0999 V2000
    8.5909  -19.4950   19.6889 N   0  0  0  0  0  0  0  0  0  0  0  0
    8.4640  -18.9560   20.9886 C   0  0  0  0  0  0  0  0  0  0  0  0
    9.2063  -17.6923   21.1772 C   0  0  0  0  0  0  0  0  0  0  0  0
    9.8632  -17.2477   20.2097 O   0  0  0  0  0  0  0  0  0  0  0  0
    9.2038  -16.9732   22.3943 N   0  0  0  0  0  0  0  0  0  0  0  0
    9.9477  -15.7637   22.6471 C   0  0  1  0  0  0  0  0  0  0  0  0
    9.1063  -14.6204   23.0782 C   0  0  0  0  0  0  0  0  0  0  0  0
    8.2870  -14.0486   21.9790 C   0  0  0  0  0  0  0  0  0  0  0  0
    6.9976  -14.5220   21.8609 C   0  0  0  0  0  0  0  0  0  0  0  0
    6.1489  -14.0670   20.8834 C   0  0  0  0  0  0  0  0  0  0  0  0
    6.5962  -13.1109   19.9949 C   0  0  0  0  0  0  0  0  0  0  0  0
    7.8949  -12.6455   20.1272 C   0  0  0  0  0  0  0  0  0  0  0  0
    8.7512  -13.1005   21.1086 C   0  0  0  0  0  0  0  0  0  0  0  0
   11.0358  -16.0187   23.6586 C   0  0  0  0  0  0  0  0  0  0  0  0
   10.8272  -16.6267   24.7286 O   0  0  0  0  0  0  0  0  0  0  0  0
   12.3538  -15.5562   23.3984 N   0  0  0  0  0  0  0  0  0  0  0  0
   13.4321  -15.7289   24.3742 C   0  0  0  0  0  0  0  0  0  0  0  0
   14.5016  -16.5482   23.7739 C   0  0  0  0  0  0  0  0  0  0  0  0
   14.1773  -17.5931   22.8998 O   0  0  0  0  0  0  0  0  0  0  0  0
   15.7181  -16.3551   24.0097 O   0  0  0  0  0  0  0  0  0  0  0  0
  2  1  1  0
  3  2  1  0
  4  3  2  0
  5  3  1  0
  6  5  1  0
  6  7  1  1
  8  7  1  0
  9  8  2  0
 10  9  1  0
 11 12  1  0
 11 10  2  0
 12 13  2  0
 13  8  1  0
 14 15  2  0
 14  6  1  0
 16 14  1  0
 17 18  1  0
 17 16  1  0
 18 19  1  0
 20 18  2  0
M  END
$$$$
