GFG.pdb
     RDKit          3D

 20 20  0  0  1  0  0  0  0  0999 V2000
    5.3207  -17.1446   20.9532 N   0  0  0  0  0  0  0  0  0  0  0  0
    5.5137  -17.3707   22.3343 C   0  0  0  0  0  0  0  0  0  0  0  0
    6.5845  -16.5398   22.9232 C   0  0  0  0  0  0  0  0  0  0  0  0
    7.3210  -15.8940   22.1449 O   0  0  0  0  0  0  0  0  0  0  0  0
    6.8075  -16.4465   24.3160 N   0  0  0  0  0  0  0  0  0  0  0  0
    7.8948  -15.7318   24.9380 C   0  0  1  0  0  0  0  0  0  0  0  0
    7.5733  -15.2056   26.2874 C   0  0  0  0  0  0  0  0  0  0  0  0
    7.1357  -13.7862   26.2738 C   0  0  0  0  0  0  0  0  0  0  0  0
    5.9031  -13.5160   26.8289 C   0  0  0  0  0  0  0  0  0  0  0  0
    5.3952  -12.2420   26.8725 C   0  0  0  0  0  0  0  0  0  0  0  0
    6.1365  -11.2034   26.3476 C   0  0  0  0  0  0  0  0  0  0  0  0
    7.3735  -11.4918   25.7932 C   0  0  0  0  0  0  0  0  0  0  0  0
    7.8874  -12.7714   25.7475 C   0  0  0  0  0  0  0  0  0  0  0  0
    9.1263  -16.5989   24.9981 C   0  0  0  0  0  0  0  0  0  0  0  0
    9.2832  -17.4810   25.8672 O   0  0  0  0  0  0  0  0  0  0  0  0
   10.1560  -16.4176   24.0359 N   0  0  0  0  0  0  0  0  0  0  0  0
   11.2556  -17.3755   23.9021 C   0  0  0  0  0  0  0  0  0  0  0  0
   12.5376  -16.6695   24.0855 C   0  0  0  0  0  0  0  0  0  0  0  0
   13.7401  -17.3870   24.0802 O   0  0  0  0  0  0  0  0  0  0  0  0
   12.6115  -15.4285   24.2503 O   0  0  0  0  0  0  0  0  0  0  0  0
  2  1  1  0
  3  2  1  0
  4  3  2  0
  5  3  1  0
  6  5  1  0
  6  7  1  1
  8  7  1  0
  9  8  2  0
 10  9  1  0
 11 12  1  0
 11 10  2  0
 12 13  2  0
 13  8  1  0
 14 15  2  0
 14  6  1  0
 16 14  1  0
 17 18  1  0
 17 16  1  0
 18 19  1  0
 20 18  2  0
M  END
$$$$
