GFG.pdb
     RDKit          3D

 20 20  0  0  1  0  0  0  0  0999 V2000
    5.4084  -19.9709   22.2172 N   0  0  0  0  0  0  0  0  0  0  0  0
    5.9221  -19.6473   23.4928 C   0  0  0  0  0  0  0  0  0  0  0  0
    6.2913  -18.2235   23.6352 C   0  0  0  0  0  0  0  0  0  0  0  0
    6.3582  -17.5281   22.5974 O   0  0  0  0  0  0  0  0  0  0  0  0
    6.5689  -17.6222   24.8841 N   0  0  0  0  0  0  0  0  0  0  0  0
    7.1568  -16.3179   25.0668 C   0  0  1  0  0  0  0  0  0  0  0  0
    6.8070  -15.6772   26.3583 C   0  0  0  0  0  0  0  0  0  0  0  0
    7.0701  -14.2154   26.3774 C   0  0  0  0  0  0  0  0  0  0  0  0
    6.0267  -13.3965   26.0018 C   0  0  0  0  0  0  0  0  0  0  0  0
    6.1534  -12.0303   25.9810 C   0  0  0  0  0  0  0  0  0  0  0  0
    7.3559  -11.4601   26.3453 C   0  0  0  0  0  0  0  0  0  0  0  0
    8.3948  -12.2972   26.7202 C   0  0  0  0  0  0  0  0  0  0  0  0
    8.2712  -13.6711   26.7424 C   0  0  0  0  0  0  0  0  0  0  0  0
    8.6543  -16.3911   24.9116 C   0  0  0  0  0  0  0  0  0  0  0  0
    9.3518  -17.2250   25.5250 O   0  0  0  0  0  0  0  0  0  0  0  0
    9.3113  -15.4836   24.0377 N   0  0  0  0  0  0  0  0  0  0  0  0
   10.4701  -15.8919   23.2407 C   0  0  0  0  0  0  0  0  0  0  0  0
   11.6993  -15.6717   24.0257 C   0  0  0  0  0  0  0  0  0  0  0  0
   11.6642  -15.7606   25.4227 O   0  0  0  0  0  0  0  0  0  0  0  0
   12.8037  -15.4021   23.4962 O   0  0  0  0  0  0  0  0  0  0  0  0
  2  1  1  0
  3  2  1  0
  4  3  2  0
  5  3  1  0
  6  5  1  0
  6  7  1  1
  8  7  1  0
  9  8  2  0
 10  9  1  0
 11 12  1  0
 11 10  2  0
 12 13  2  0
 13  8  1  0
 14 15  2  0
 14  6  1  0
 16 14  1  0
 17 18  1  0
 17 16  1  0
 18 19  1  0
 20 18  2  0
M  END
$$$$
