GFG.pdb
     RDKit          3D

 20 20  0  0  1  0  0  0  0  0999 V2000
    5.3919  -19.9213   22.5889 N   0  0  0  0  0  0  0  0  0  0  0  0
    6.0389  -19.5906   23.8004 C   0  0  0  0  0  0  0  0  0  0  0  0
    6.4369  -18.1701   23.8870 C   0  0  0  0  0  0  0  0  0  0  0  0
    6.5999  -17.5404   22.8183 O   0  0  0  0  0  0  0  0  0  0  0  0
    6.6387  -17.5015   25.1160 N   0  0  0  0  0  0  0  0  0  0  0  0
    7.1371  -16.1556   25.2584 C   0  0  1  0  0  0  0  0  0  0  0  0
    6.5988  -15.4379   26.4400 C   0  0  0  0  0  0  0  0  0  0  0  0
    6.8852  -13.9805   26.4210 C   0  0  0  0  0  0  0  0  0  0  0  0
    5.9207  -13.1701   25.8611 C   0  0  0  0  0  0  0  0  0  0  0  0
    6.0758  -11.8087   25.7883 C   0  0  0  0  0  0  0  0  0  0  0  0
    7.2265  -11.2345   26.2881 C   0  0  0  0  0  0  0  0  0  0  0  0
    8.1863  -12.0630   26.8477 C   0  0  0  0  0  0  0  0  0  0  0  0
    8.0340  -13.4321   26.9226 C   0  0  0  0  0  0  0  0  0  0  0  0
    8.6440  -16.1549   25.2920 C   0  0  0  0  0  0  0  0  0  0  0  0
    9.2916  -16.4237   26.3247 O   0  0  0  0  0  0  0  0  0  0  0  0
    9.3690  -15.8389   24.1115 N   0  0  0  0  0  0  0  0  0  0  0  0
   10.8307  -15.7489   24.1121 C   0  0  0  0  0  0  0  0  0  0  0  0
   11.2960  -15.4200   22.7516 C   0  0  0  0  0  0  0  0  0  0  0  0
   12.6399  -15.0950   22.5298 O   0  0  0  0  0  0  0  0  0  0  0  0
   10.5334  -15.4152   21.7561 O   0  0  0  0  0  0  0  0  0  0  0  0
  2  1  1  0
  3  2  1  0
  4  3  2  0
  5  3  1  0
  6  5  1  0
  6  7  1  1
  8  7  1  0
  9  8  2  0
 10  9  1  0
 11 12  1  0
 11 10  2  0
 12 13  2  0
 13  8  1  0
 14 15  2  0
 14  6  1  0
 16 14  1  0
 17 18  1  0
 17 16  1  0
 18 19  1  0
 20 18  2  0
M  END
$$$$
