GFG.pdb
     RDKit          3D

 20 20  0  0  1  0  0  0  0  0999 V2000
    6.4826  -14.3688   20.2274 N   0  0  0  0  0  0  0  0  0  0  0  0
    6.4516  -15.1457   21.4069 C   0  0  0  0  0  0  0  0  0  0  0  0
    7.5499  -14.8354   22.3456 C   0  0  0  0  0  0  0  0  0  0  0  0
    8.5071  -14.1499   21.9226 O   0  0  0  0  0  0  0  0  0  0  0  0
    7.5620  -15.2775   23.6883 N   0  0  0  0  0  0  0  0  0  0  0  0
    8.6220  -15.0323   24.6350 C   0  0  1  0  0  0  0  0  0  0  0  0
    8.1483  -14.8180   26.0245 C   0  0  0  0  0  0  0  0  0  0  0  0
    7.4288  -13.5312   26.2063 C   0  0  0  0  0  0  0  0  0  0  0  0
    8.2086  -12.4002   26.3228 C   0  0  0  0  0  0  0  0  0  0  0  0
    7.6545  -11.1566   26.4941 C   0  0  0  0  0  0  0  0  0  0  0  0
    6.2815  -11.0333   26.5515 C   0  0  0  0  0  0  0  0  0  0  0  0
    5.5120  -12.1798   26.4328 C   0  0  0  0  0  0  0  0  0  0  0  0
    6.0653  -13.4318   26.2604 C   0  0  0  0  0  0  0  0  0  0  0  0
    9.6295  -16.1527   24.5964 C   0  0  0  0  0  0  0  0  0  0  0  0
    9.2959  -17.3553   24.6228 O   0  0  0  0  0  0  0  0  0  0  0  0
   11.0148  -15.8445   24.5270 N   0  0  0  0  0  0  0  0  0  0  0  0
   11.9584  -16.7158   23.8232 C   0  0  0  0  0  0  0  0  0  0  0  0
   12.6177  -17.6037   24.7992 C   0  0  0  0  0  0  0  0  0  0  0  0
   13.8154  -18.2472   24.4641 O   0  0  0  0  0  0  0  0  0  0  0  0
   12.1519  -17.8194   25.9434 O   0  0  0  0  0  0  0  0  0  0  0  0
  2  1  1  0
  3  2  1  0
  4  3  2  0
  5  3  1  0
  6  5  1  0
  6  7  1  1
  8  7  1  0
  9  8  2  0
 10  9  1  0
 11 12  1  0
 11 10  2  0
 12 13  2  0
 13  8  1  0
 14 15  2  0
 14  6  1  0
 16 14  1  0
 17 18  1  0
 17 16  1  0
 18 19  1  0
 20 18  2  0
M  END
$$$$
