GFG.pdb
     RDKit          3D

 20 20  0  0  1  0  0  0  0  0999 V2000
    5.2421  -18.3995   22.6748 N   0  0  0  0  0  0  0  0  0  0  0  0
    5.6853  -18.1268   23.9882 C   0  0  0  0  0  0  0  0  0  0  0  0
    6.7454  -17.0991   24.0507 C   0  0  0  0  0  0  0  0  0  0  0  0
    7.2503  -16.7109   22.9738 O   0  0  0  0  0  0  0  0  0  0  0  0
    7.2068  -16.5431   25.2656 N   0  0  0  0  0  0  0  0  0  0  0  0
    8.3431  -15.6650   25.3997 C   0  0  1  0  0  0  0  0  0  0  0  0
    8.3152  -14.8299   26.6257 C   0  0  0  0  0  0  0  0  0  0  0  0
    7.4623  -13.6211   26.4918 C   0  0  0  0  0  0  0  0  0  0  0  0
    8.0669  -12.4942   25.9771 C   0  0  0  0  0  0  0  0  0  0  0  0
    7.3782  -11.3195   25.8080 C   0  0  0  0  0  0  0  0  0  0  0  0
    6.0458  -11.2633   26.1620 C   0  0  0  0  0  0  0  0  0  0  0  0
    5.4529  -12.4048   26.6779 C   0  0  0  0  0  0  0  0  0  0  0  0
    6.1420  -13.5876   26.8494 C   0  0  0  0  0  0  0  0  0  0  0  0
    9.6260  -16.4538   25.3374 C   0  0  0  0  0  0  0  0  0  0  0  0
    9.9639  -17.2558   26.2322 O   0  0  0  0  0  0  0  0  0  0  0  0
   10.4937  -16.2896   24.2242 N   0  0  0  0  0  0  0  0  0  0  0  0
   11.9385  -16.4978   24.3428 C   0  0  0  0  0  0  0  0  0  0  0  0
   12.5562  -16.3752   23.0091 C   0  0  0  0  0  0  0  0  0  0  0  0
   11.7519  -16.1831   21.8789 O   0  0  0  0  0  0  0  0  0  0  0  0
   13.7956  -16.4351   22.8270 O   0  0  0  0  0  0  0  0  0  0  0  0
  2  1  1  0
  3  2  1  0
  4  3  2  0
  5  3  1  0
  6  5  1  0
  6  7  1  1
  8  7  1  0
  9  8  2  0
 10  9  1  0
 11 12  1  0
 11 10  2  0
 12 13  2  0
 13  8  1  0
 14 15  2  0
 14  6  1  0
 16 14  1  0
 17 18  1  0
 17 16  1  0
 18 19  1  0
 20 18  2  0
M  END
$$$$
