GFG.pdb
     RDKit          3D

 20 20  0  0  1  0  0  0  0  0999 V2000
    6.5045  -14.6950   20.4584 N   0  0  0  0  0  0  0  0  0  0  0  0
    6.3991  -15.3290   21.7164 C   0  0  0  0  0  0  0  0  0  0  0  0
    7.5067  -14.9989   22.6372 C   0  0  0  0  0  0  0  0  0  0  0  0
    8.4585  -14.3206   22.1906 O   0  0  0  0  0  0  0  0  0  0  0  0
    7.5337  -15.4144   23.9881 N   0  0  0  0  0  0  0  0  0  0  0  0
    8.5735  -15.0960   24.9354 C   0  0  1  0  0  0  0  0  0  0  0  0
    8.0719  -14.7937   26.2985 C   0  0  0  0  0  0  0  0  0  0  0  0
    7.3636  -13.4909   26.3865 C   0  0  0  0  0  0  0  0  0  0  0  0
    8.1537  -12.3651   26.4809 C   0  0  0  0  0  0  0  0  0  0  0  0
    7.6105  -11.1080   26.5677 C   0  0  0  0  0  0  0  0  0  0  0  0
    6.2382  -10.9655   26.5605 C   0  0  0  0  0  0  0  0  0  0  0  0
    5.4582  -12.1071   26.4651 C   0  0  0  0  0  0  0  0  0  0  0  0
    6.0006  -13.3727   26.3777 C   0  0  0  0  0  0  0  0  0  0  0  0
    9.5910  -16.2067   24.9906 C   0  0  0  0  0  0  0  0  0  0  0  0
    9.6509  -17.0143   25.9405 O   0  0  0  0  0  0  0  0  0  0  0  0
   10.5237  -16.3531   23.9287 N   0  0  0  0  0  0  0  0  0  0  0  0
   11.9101  -16.7540   24.1776 C   0  0  0  0  0  0  0  0  0  0  0  0
   12.6629  -16.7057   22.9101 C   0  0  0  0  0  0  0  0  0  0  0  0
   12.0066  -16.3793   21.7170 O   0  0  0  0  0  0  0  0  0  0  0  0
   13.8915  -16.9475   22.8408 O   0  0  0  0  0  0  0  0  0  0  0  0
  2  1  1  0
  3  2  1  0
  4  3  2  0
  5  3  1  0
  6  5  1  0
  6  7  1  1
  8  7  1  0
  9  8  2  0
 10  9  1  0
 11 12  1  0
 11 10  2  0
 12 13  2  0
 13  8  1  0
 14 15  2  0
 14  6  1  0
 16 14  1  0
 17 18  1  0
 17 16  1  0
 18 19  1  0
 20 18  2  0
M  END
$$$$
