GFG.pdb
     RDKit          3D

 20 20  0  0  1  0  0  0  0  0999 V2000
    6.7649  -21.2336   21.3888 N   0  0  0  0  0  0  0  0  0  0  0  0
    6.6358  -20.3285   22.4657 C   0  0  0  0  0  0  0  0  0  0  0  0
    7.2863  -19.0245   22.2204 C   0  0  0  0  0  0  0  0  0  0  0  0
    8.1165  -18.9493   21.2875 O   0  0  0  0  0  0  0  0  0  0  0  0
    7.0109  -17.8709   22.9896 N   0  0  0  0  0  0  0  0  0  0  0  0
    7.6313  -16.5818   22.8066 C   0  0  1  0  0  0  0  0  0  0  0  0
    6.6920  -15.4403   22.9317 C   0  0  0  0  0  0  0  0  0  0  0  0
    7.0611  -14.2816   22.0787 C   0  0  0  0  0  0  0  0  0  0  0  0
    6.7302  -14.3691   20.7433 C   0  0  0  0  0  0  0  0  0  0  0  0
    7.0214  -13.3599   19.8603 C   0  0  0  0  0  0  0  0  0  0  0  0
    7.6620  -12.2275   20.3196 C   0  0  0  0  0  0  0  0  0  0  0  0
    7.9878  -12.1551   21.6647 C   0  0  0  0  0  0  0  0  0  0  0  0
    7.6967  -13.1677   22.5555 C   0  0  0  0  0  0  0  0  0  0  0  0
    8.7839  -16.4136   23.7633 C   0  0  0  0  0  0  0  0  0  0  0  0
    8.6250  -16.3512   24.9998 O   0  0  0  0  0  0  0  0  0  0  0  0
   10.1070  -16.3215   23.2537 N   0  0  0  0  0  0  0  0  0  0  0  0
   11.2552  -16.1138   24.1387 C   0  0  0  0  0  0  0  0  0  0  0  0
   12.4902  -16.0930   23.3325 C   0  0  0  0  0  0  0  0  0  0  0  0
   13.7277  -15.8769   23.9513 O   0  0  0  0  0  0  0  0  0  0  0  0
   12.4927  -16.2628   22.0900 O   0  0  0  0  0  0  0  0  0  0  0  0
  2  1  1  0
  3  2  1  0
  4  3  2  0
  5  3  1  0
  6  5  1  0
  6  7  1  1
  8  7  1  0
  9  8  2  0
 10  9  1  0
 11 12  1  0
 11 10  2  0
 12 13  2  0
 13  8  1  0
 14 15  2  0
 14  6  1  0
 16 14  1  0
 17 18  1  0
 17 16  1  0
 18 19  1  0
 20 18  2  0
M  END
$$$$
