NCC.pdb
     RDKit          3D

 21 20  0  0  1  0  0  0  0  0999 V2000
   21.1344  -14.2401  -18.8395 N   0  0  0  0  0  0  0  0  0  0  0  0
   22.0951  -13.2373  -19.1469 C   0  0  0  0  0  0  0  0  0  0  0  0
   23.2644  -13.6106  -19.4180 O   0  0  0  0  0  0  0  0  0  0  0  0
   21.6626  -11.8146  -19.1298 C   0  0  0  0  0  0  0  0  0  0  0  0
   20.2461  -11.7740  -18.6584 C   0  0  2  0  0  0  0  0  0  0  0  0
   19.4021  -12.4157  -19.6146 N   0  0  0  0  0  0  0  0  0  0  0  0
   19.7820  -10.4173  -18.2840 C   0  0  0  0  0  0  0  0  0  0  0  0
   19.2090   -9.7106  -19.1256 O   0  0  0  0  0  0  0  0  0  0  0  0
   19.9724   -9.8924  -16.9827 N   0  0  0  0  0  0  0  0  0  0  0  0
   19.5200   -8.6188  -16.5308 C   0  0  1  0  0  0  0  0  0  0  0  0
   18.1741   -8.7037  -15.8590 C   0  0  0  0  0  0  0  0  0  0  0  0
   17.7450   -7.1012  -15.1581 S   0  0  0  0  0  0  0  0  0  0  0  0
   20.5183   -7.9067  -15.6948 C   0  0  0  0  0  0  0  0  0  0  0  0
   20.9792   -8.4891  -14.6857 O   0  0  0  0  0  0  0  0  0  0  0  0
   20.9835   -6.5966  -15.9754 N   0  0  0  0  0  0  0  0  0  0  0  0
   21.8554   -5.8526  -15.0937 C   0  0  1  0  0  0  0  0  0  0  0  0
   22.2722   -4.5959  -15.8671 C   0  0  0  0  0  0  0  0  0  0  0  0
   23.2732   -3.5845  -14.7499 S   0  0  0  0  0  0  0  0  0  0  0  0
   21.1976   -5.4393  -13.8430 C   0  0  0  0  0  0  0  0  0  0  0  0
   20.0585   -4.9260  -13.8734 O   0  0  0  0  0  0  0  0  0  0  0  0
   21.8195   -5.6083  -12.6226 O   0  0  0  0  0  0  0  0  0  0  0  0
  2  4  1  0
  2  1  1  0
  3  2  2  0
  5  7  1  0
  5  4  1  0
  5  6  1  6
  7  9  1  0
  8  7  2  0
  9 10  1  0
 10 13  1  0
 11 12  1  0
 10 11  1  1
 13 15  1  0
 13 14  2  0
 15 16  1  0
 16 19  1  0
 16 17  1  6
 18 17  1  0
 19 21  1  0
 20 19  2  0
M  END
$$$$
