NCC.pdb
     RDKit          3D

 21 20  0  0  1  0  0  0  0  0999 V2000
   12.2336  -12.1661   -9.9580 N   0  0  0  0  0  0  0  0  0  0  0  0
   13.5438  -11.6146  -10.0032 C   0  0  0  0  0  0  0  0  0  0  0  0
   14.4852  -12.3034   -9.5347 O   0  0  0  0  0  0  0  0  0  0  0  0
   13.7224  -10.2635  -10.5985 C   0  0  0  0  0  0  0  0  0  0  0  0
   14.3450   -9.3870   -9.5620 C   0  0  2  0  0  0  0  0  0  0  0  0
   13.4122   -9.1518   -8.5071 N   0  0  0  0  0  0  0  0  0  0  0  0
   14.9353   -8.1433  -10.1106 C   0  0  0  0  0  0  0  0  0  0  0  0
   14.2338   -7.3772  -10.7867 O   0  0  0  0  0  0  0  0  0  0  0  0
   16.2894   -7.7944   -9.8878 N   0  0  0  0  0  0  0  0  0  0  0  0
   16.9295   -6.6158  -10.3698 C   0  0  1  0  0  0  0  0  0  0  0  0
   16.6319   -5.4182   -9.5053 C   0  0  0  0  0  0  0  0  0  0  0  0
   16.1292   -5.9655   -7.8648 S   0  0  0  0  0  0  0  0  0  0  0  0
   18.3851   -6.7928  -10.5981 C   0  0  0  0  0  0  0  0  0  0  0  0
   19.1171   -7.0609   -9.6171 O   0  0  0  0  0  0  0  0  0  0  0  0
   18.9983   -6.6757  -11.8716 N   0  0  0  0  0  0  0  0  0  0  0  0
   20.4199   -6.8261  -12.0905 C   0  0  1  0  0  0  0  0  0  0  0  0
   20.5693   -7.7779  -13.2833 C   0  0  0  0  0  0  0  0  0  0  0  0
   22.3272   -7.8384  -13.7059 S   0  0  0  0  0  0  0  0  0  0  0  0
   21.0930   -5.5570  -12.4135 C   0  0  0  0  0  0  0  0  0  0  0  0
   22.2485   -5.3350  -11.9923 O   0  0  0  0  0  0  0  0  0  0  0  0
   20.4675   -4.5952  -13.1806 O   0  0  0  0  0  0  0  0  0  0  0  0
  2  4  1  0
  2  1  1  0
  3  2  2  0
  5  7  1  0
  5  4  1  0
  5  6  1  1
  7  9  1  0
  8  7  2  0
  9 10  1  0
 10 13  1  0
 11 12  1  0
 10 11  1  1
 13 15  1  0
 13 14  2  0
 15 16  1  0
 16 19  1  0
 16 17  1  6
 18 17  1  0
 19 21  1  0
 20 19  2  0
M  END
$$$$
