NCC.pdb
     RDKit          3D

 21 20  0  0  1  0  0  0  0  0999 V2000
   14.6198  -12.6156  -12.9112 N   0  0  0  0  0  0  0  0  0  0  0  0
   13.5808  -12.2516  -12.0105 C   0  0  0  0  0  0  0  0  0  0  0  0
   12.6619  -13.0855  -11.8094 O   0  0  0  0  0  0  0  0  0  0  0  0
   13.6420  -10.9141  -11.3634 C   0  0  0  0  0  0  0  0  0  0  0  0
   14.8998  -10.2465  -11.8138 C   0  0  2  0  0  0  0  0  0  0  0  0
   16.0298  -10.9830  -11.3457 N   0  0  0  0  0  0  0  0  0  0  0  0
   14.9608   -8.8041  -11.4795 C   0  0  0  0  0  0  0  0  0  0  0  0
   14.0413   -8.0524  -11.8338 O   0  0  0  0  0  0  0  0  0  0  0  0
   16.0461   -8.2463  -10.7611 N   0  0  0  0  0  0  0  0  0  0  0  0
   16.1757   -6.8761  -10.3915 C   0  0  1  0  0  0  0  0  0  0  0  0
   16.9076   -6.7107   -9.0850 C   0  0  0  0  0  0  0  0  0  0  0  0
   15.8531   -7.2491   -7.7279 S   0  0  0  0  0  0  0  0  0  0  0  0
   16.7539   -6.0326  -11.4670 C   0  0  0  0  0  0  0  0  0  0  0  0
   17.8362   -6.3869  -11.9896 O   0  0  0  0  0  0  0  0  0  0  0  0
   16.1469   -4.8413  -11.9402 N   0  0  0  0  0  0  0  0  0  0  0  0
   16.7662   -3.9569  -12.9023 C   0  0  1  0  0  0  0  0  0  0  0  0
   16.1880   -4.3419  -14.2692 C   0  0  0  0  0  0  0  0  0  0  0  0
   14.3854   -4.2922  -14.1237 S   0  0  0  0  0  0  0  0  0  0  0  0
   16.4762   -2.5353  -12.6517 C   0  0  0  0  0  0  0  0  0  0  0  0
   15.6743   -2.2081  -11.7507 O   0  0  0  0  0  0  0  0  0  0  0  0
   17.0780   -1.5439  -13.3998 O   0  0  0  0  0  0  0  0  0  0  0  0
  2  4  1  0
  2  1  1  0
  3  2  2  0
  5  7  1  0
  5  4  1  0
  5  6  1  1
  7  9  1  0
  8  7  2  0
  9 10  1  0
 10 13  1  0
 11 12  1  0
 10 11  1  1
 13 15  1  0
 13 14  2  0
 15 16  1  0
 16 19  1  0
 16 17  1  6
 18 17  1  0
 19 21  1  0
 20 19  2  0
M  END
$$$$
