NCC.pdb
     RDKit          3D

 21 20  0  0  1  0  0  0  0  0999 V2000
   18.8081   -9.6446  -18.0211 N   0  0  0  0  0  0  0  0  0  0  0  0
   17.5885   -9.5973  -17.2909 C   0  0  0  0  0  0  0  0  0  0  0  0
   16.6680  -10.3801  -17.6377 O   0  0  0  0  0  0  0  0  0  0  0  0
   17.4742   -8.6307  -16.1666 C   0  0  0  0  0  0  0  0  0  0  0  0
   18.6508   -8.8334  -15.2693 C   0  0  2  0  0  0  0  0  0  0  0  0
   18.4019   -9.9302  -14.3898 N   0  0  0  0  0  0  0  0  0  0  0  0
   19.0810   -7.6029  -14.5646 C   0  0  0  0  0  0  0  0  0  0  0  0
   18.4390   -7.2010  -13.5835 O   0  0  0  0  0  0  0  0  0  0  0  0
   20.2135   -6.8597  -14.9771 N   0  0  0  0  0  0  0  0  0  0  0  0
   20.6472   -5.6283  -14.4058 C   0  0  1  0  0  0  0  0  0  0  0  0
   22.1408   -5.4563  -14.5024 C   0  0  0  0  0  0  0  0  0  0  0  0
   22.6207   -3.8940  -13.7459 S   0  0  0  0  0  0  0  0  0  0  0  0
   19.9135   -4.4498  -14.9305 C   0  0  0  0  0  0  0  0  0  0  0  0
   19.9099   -4.2484  -16.1672 O   0  0  0  0  0  0  0  0  0  0  0  0
   19.2113   -3.5335  -14.1067 N   0  0  0  0  0  0  0  0  0  0  0  0
   18.5504   -2.3501  -14.6109 C   0  0  1  0  0  0  0  0  0  0  0  0
   17.0845   -2.4623  -14.1756 C   0  0  0  0  0  0  0  0  0  0  0  0
   16.3708   -3.8762  -15.0500 S   0  0  0  0  0  0  0  0  0  0  0  0
   19.1084   -1.1003  -14.0685 C   0  0  0  0  0  0  0  0  0  0  0  0
   18.5879   -0.0023  -14.3606 O   0  0  0  0  0  0  0  0  0  0  0  0
   20.2078   -1.1152  -13.2343 O   0  0  0  0  0  0  0  0  0  0  0  0
  2  4  1  0
  2  1  1  0
  3  2  2  0
  5  7  1  0
  5  4  1  0
  5  6  1  1
  7  9  1  0
  8  7  2  0
  9 10  1  0
 10 13  1  0
 11 12  1  0
 10 11  1  6
 13 15  1  0
 13 14  2  0
 15 16  1  0
 16 19  1  0
 16 17  1  1
 18 17  1  0
 19 21  1  0
 20 19  2  0
M  END
$$$$
