NCC.pdb
     RDKit          3D

 21 20  0  0  1  0  0  0  0  0999 V2000
   21.8713  -11.6464  -17.9349 N   0  0  0  0  0  0  0  0  0  0  0  0
   22.4683  -10.4147  -18.3218 C   0  0  0  0  0  0  0  0  0  0  0  0
   23.5032  -10.4641  -19.0337 O   0  0  0  0  0  0  0  0  0  0  0  0
   21.8372   -9.1483  -17.8644 C   0  0  0  0  0  0  0  0  0  0  0  0
   20.7692   -9.4999  -16.8815 C   0  0  2  0  0  0  0  0  0  0  0  0
   19.7337  -10.2322  -17.5373 N   0  0  0  0  0  0  0  0  0  0  0  0
   20.2670   -8.3401  -16.1076 C   0  0  0  0  0  0  0  0  0  0  0  0
   19.2838   -7.7073  -16.5186 O   0  0  0  0  0  0  0  0  0  0  0  0
   20.8783   -7.9230  -14.9004 N   0  0  0  0  0  0  0  0  0  0  0  0
   20.4530   -6.8278  -14.0938 C   0  0  1  0  0  0  0  0  0  0  0  0
   20.5477   -7.1398  -12.6229 C   0  0  0  0  0  0  0  0  0  0  0  0
   19.3718   -8.4374  -12.2022 S   0  0  0  0  0  0  0  0  0  0  0  0
   21.1265   -5.5512  -14.4392 C   0  0  0  0  0  0  0  0  0  0  0  0
   22.3725   -5.4818  -14.3268 O   0  0  0  0  0  0  0  0  0  0  0  0
   20.4357   -4.3985  -14.8925 N   0  0  0  0  0  0  0  0  0  0  0  0
   21.0988   -3.1880  -15.3244 C   0  0  1  0  0  0  0  0  0  0  0  0
   20.6329   -2.9368  -16.7634 C   0  0  0  0  0  0  0  0  0  0  0  0
   21.3645   -4.2276  -17.7984 S   0  0  0  0  0  0  0  0  0  0  0  0
   20.7520   -2.0147  -14.5054 C   0  0  0  0  0  0  0  0  0  0  0  0
   19.8027   -2.0742  -13.6947 O   0  0  0  0  0  0  0  0  0  0  0  0
   21.4611   -0.8358  -14.6152 O   0  0  0  0  0  0  0  0  0  0  0  0
  2  4  1  0
  2  1  1  0
  3  2  2  0
  5  7  1  0
  5  4  1  0
  5  6  1  6
  7  9  1  0
  8  7  2  0
  9 10  1  0
 10 13  1  0
 11 12  1  0
 10 11  1  1
 13 15  1  0
 13 14  2  0
 15 16  1  0
 16 19  1  0
 16 17  1  6
 18 17  1  0
 19 21  1  0
 20 19  2  0
M  END
$$$$
