NCC.pdb
     RDKit          3D

 21 20  0  0  1  0  0  0  0  0999 V2000
   26.8758  -13.6017  -16.1689 N   0  0  0  0  0  0  0  0  0  0  0  0
   27.5835  -12.7491  -15.2771 C   0  0  0  0  0  0  0  0  0  0  0  0
   28.1072  -13.2709  -14.2604 O   0  0  0  0  0  0  0  0  0  0  0  0
   27.6620  -11.2991  -15.5976 C   0  0  0  0  0  0  0  0  0  0  0  0
   26.8757  -11.0645  -16.8455 C   0  0  2  0  0  0  0  0  0  0  0  0
   27.4627  -11.7880  -17.9273 N   0  0  0  0  0  0  0  0  0  0  0  0
   26.6559   -9.6309  -17.1500 C   0  0  0  0  0  0  0  0  0  0  0  0
   27.6017   -8.9361  -17.5486 O   0  0  0  0  0  0  0  0  0  0  0  0
   25.3882   -9.0184  -16.9996 N   0  0  0  0  0  0  0  0  0  0  0  0
   25.0691   -7.6783  -17.3647 C   0  0  1  0  0  0  0  0  0  0  0  0
   25.3580   -7.4051  -18.8179 C   0  0  0  0  0  0  0  0  0  0  0  0
   24.6879   -8.7364  -19.8290 S   0  0  0  0  0  0  0  0  0  0  0  0
   23.6906   -7.2812  -16.9843 C   0  0  0  0  0  0  0  0  0  0  0  0
   22.7455   -8.0546  -17.2648 O   0  0  0  0  0  0  0  0  0  0  0  0
   23.3805   -6.0689  -16.3168 N   0  0  0  0  0  0  0  0  0  0  0  0
   22.0433   -5.7032  -15.9048 C   0  0  1  0  0  0  0  0  0  0  0  0
   21.6406   -6.7105  -14.8213 C   0  0  0  0  0  0  0  0  0  0  0  0
   20.0155   -6.2125  -14.2017 S   0  0  0  0  0  0  0  0  0  0  0  0
   21.9629   -4.3461  -15.3395 C   0  0  0  0  0  0  0  0  0  0  0  0
   22.9562   -3.8434  -14.7716 O   0  0  0  0  0  0  0  0  0  0  0  0
   20.7998   -3.6081  -15.4239 O   0  0  0  0  0  0  0  0  0  0  0  0
  2  4  1  0
  2  1  1  0
  3  2  2  0
  5  7  1  0
  5  4  1  0
  5  6  1  6
  7  9  1  0
  8  7  2  0
  9 10  1  0
 10 13  1  0
 11 12  1  0
 10 11  1  6
 13 15  1  0
 13 14  2  0
 15 16  1  0
 16 19  1  0
 16 17  1  1
 18 17  1  0
 19 21  1  0
 20 19  2  0
M  END
$$$$
