NCC.pdb
     RDKit          3D

 21 20  0  0  1  0  0  0  0  0999 V2000
   26.8931  -12.4701  -15.9868 N   0  0  0  0  0  0  0  0  0  0  0  0
   27.1859  -11.1312  -16.3672 C   0  0  0  0  0  0  0  0  0  0  0  0
   28.3938  -10.8146  -16.5118 O   0  0  0  0  0  0  0  0  0  0  0  0
   26.0527  -10.1898  -16.5705 C   0  0  0  0  0  0  0  0  0  0  0  0
   24.7984  -10.8915  -16.1649 C   0  0  2  0  0  0  0  0  0  0  0  0
   24.6091  -12.0486  -16.9796 N   0  0  0  0  0  0  0  0  0  0  0  0
   23.6102  -10.0072  -16.1177 C   0  0  0  0  0  0  0  0  0  0  0  0
   23.1065   -9.5990  -17.1740 O   0  0  0  0  0  0  0  0  0  0  0  0
   23.0223   -9.6061  -14.8935 N   0  0  0  0  0  0  0  0  0  0  0  0
   21.9076   -8.7281  -14.7603 C   0  0  1  0  0  0  0  0  0  0  0  0
   20.8318   -9.3112  -13.8812 C   0  0  0  0  0  0  0  0  0  0  0  0
   19.4956   -8.1193  -13.6882 S   0  0  0  0  0  0  0  0  0  0  0  0
   22.2903   -7.3569  -14.3409 C   0  0  0  0  0  0  0  0  0  0  0  0
   23.0082   -7.2203  -13.3231 O   0  0  0  0  0  0  0  0  0  0  0  0
   21.8876   -6.1854  -15.0314 N   0  0  0  0  0  0  0  0  0  0  0  0
   22.2460   -4.8484  -14.6128 C   0  0  1  0  0  0  0  0  0  0  0  0
   22.7141   -4.1170  -15.8765 C   0  0  0  0  0  0  0  0  0  0  0  0
   24.2279   -4.9319  -16.4396 S   0  0  0  0  0  0  0  0  0  0  0  0
   21.1187   -4.1035  -14.0278 C   0  0  0  0  0  0  0  0  0  0  0  0
   19.9488   -4.5167  -14.1779 O   0  0  0  0  0  0  0  0  0  0  0  0
   21.3285   -2.9444  -13.3088 O   0  0  0  0  0  0  0  0  0  0  0  0
  2  4  1  0
  2  1  1  0
  3  2  2  0
  5  7  1  0
  5  4  1  0
  5  6  1  6
  7  9  1  0
  8  7  2  0
  9 10  1  0
 10 13  1  0
 11 12  1  0
 10 11  1  1
 13 15  1  0
 13 14  2  0
 15 16  1  0
 16 19  1  0
 16 17  1  6
 18 17  1  0
 19 21  1  0
 20 19  2  0
M  END
$$$$
