NCC.pdb
     RDKit          3D

 21 20  0  0  1  0  0  0  0  0999 V2000
   30.7234  -29.9872  -18.8161 N   0  0  0  0  0  0  0  0  0  0  0  0
   30.8921  -31.2570  -18.1978 C   0  0  0  0  0  0  0  0  0  0  0  0
   32.0588  -31.7176  -18.1158 O   0  0  0  0  0  0  0  0  0  0  0  0
   29.6857  -31.9610  -17.6875 C   0  0  0  0  0  0  0  0  0  0  0  0
   29.5974  -31.7083  -16.2182 C   0  0  2  0  0  0  0  0  0  0  0  0
   30.5886  -32.4776  -15.5371 N   0  0  0  0  0  0  0  0  0  0  0  0
   28.2344  -31.8863  -15.6644 C   0  0  0  0  0  0  0  0  0  0  0  0
   27.2706  -31.3373  -16.2174 O   0  0  0  0  0  0  0  0  0  0  0  0
   27.9904  -32.6708  -14.5111 N   0  0  0  0  0  0  0  0  0  0  0  0
   26.7055  -32.9745  -13.9745 C   0  0  1  0  0  0  0  0  0  0  0  0
   25.9160  -33.8833  -14.8804 C   0  0  0  0  0  0  0  0  0  0  0  0
   26.8029  -35.4348  -15.1038 S   0  0  0  0  0  0  0  0  0  0  0  0
   26.7590  -33.4827  -12.5812 C   0  0  0  0  0  0  0  0  0  0  0  0
   27.5356  -34.4303  -12.3187 O   0  0  0  0  0  0  0  0  0  0  0  0
   25.9768  -32.9530  -11.5235 N   0  0  0  0  0  0  0  0  0  0  0  0
   26.0390  -33.4391  -10.1628 C   0  0  1  0  0  0  0  0  0  0  0  0
   25.5375  -32.2925   -9.2770 C   0  0  0  0  0  0  0  0  0  0  0  0
   25.6608  -32.8467   -7.5594 S   0  0  0  0  0  0  0  0  0  0  0  0
   25.1900  -34.6195   -9.9308 C   0  0  0  0  0  0  0  0  0  0  0  0
   24.0661  -34.6996  -10.4715 O   0  0  0  0  0  0  0  0  0  0  0  0
   25.6136  -35.6519   -9.1188 O   0  0  0  0  0  0  0  0  0  0  0  0
  2  4  1  0
  2  1  1  0
  3  2  2  0
  5  7  1  0
  5  4  1  0
  5  6  1  1
  7  9  1  0
  8  7  2  0
  9 10  1  0
 10 13  1  0
 11 12  1  0
 10 11  1  6
 13 15  1  0
 13 14  2  0
 15 16  1  0
 16 19  1  0
 16 17  1  1
 18 17  1  0
 19 21  1  0
 20 19  2  0
M  END
$$$$
