DVL.pdb
     RDKit          3D

 24 23  0  0  1  0  0  0  0  0999 V2000
   11.4193  -18.1612   19.2103 N   0  0  0  0  0  0  0  0  0  0  0  0
   10.3217  -18.0960   20.1136 C   0  0  1  0  0  0  0  0  0  0  0  0
   10.3799  -19.1248   21.2099 C   0  0  0  0  0  0  0  0  0  0  0  0
   10.4617  -20.4931   20.6373 C   0  0  0  0  0  0  0  0  0  0  0  0
   10.1527  -20.6810   19.4291 O   0  0  0  0  0  0  0  0  0  0  0  0
   10.1596  -16.7056   20.6371 C   0  0  0  0  0  0  0  0  0  0  0  0
   11.2239  -16.0407   20.8619 O   0  0  0  0  0  0  0  0  0  0  0  0
   10.8654  -21.5859   21.3736 O   0  0  0  0  0  0  0  0  0  0  0  0
    7.5010  -12.6817   21.5999 C   0  0  0  0  0  0  0  0  0  0  0  0
    7.6157  -14.0281   20.8919 C   0  0  1  0  0  0  0  0  0  0  0  0
    7.9241  -13.7430   19.4409 C   0  0  0  0  0  0  0  0  0  0  0  0
    8.6219  -14.8935   21.5555 C   0  0  2  0  0  0  0  0  0  0  0  0
    8.8896  -16.1233   20.8841 N   0  0  0  0  0  0  0  0  0  0  0  0
    8.4945  -14.9995   23.0368 C   0  0  0  0  0  0  0  0  0  0  0  0
    7.5534  -15.6473   23.5428 O   0  0  0  0  0  0  0  0  0  0  0  0
    8.1856  -11.9457   27.4928 C   0  0  0  0  0  0  0  0  0  0  0  0
    7.2637  -12.9660   26.7408 C   0  0  1  0  0  0  0  0  0  0  0  0
    5.9391  -12.2811   26.6937 C   0  0  0  0  0  0  0  0  0  0  0  0
    7.9602  -13.2191   25.4742 C   0  0  0  0  0  0  0  0  0  0  0  0
    9.0780  -14.1629   25.3638 C   0  0  2  0  0  0  0  0  0  0  0  0
    9.4086  -14.3887   23.9281 N   0  0  0  0  0  0  0  0  0  0  0  0
    8.9549  -15.4473   26.0436 C   0  0  0  0  0  0  0  0  0  0  0  0
    7.9105  -16.3147   25.6670 O   0  0  0  0  0  0  0  0  0  0  0  0
    9.6906  -15.8700   26.9422 O   0  0  0  0  0  0  0  0  0  0  0  0
  2  1  1  1
  2  6  1  0
  2  3  1  0
  3  4  1  0
  4  8  1  0
  4  5  2  0
  6 13  1  0
  6  7  2  0
 10  9  1  1
 10 11  1  0
 12 10  1  0
 12 13  1  6
 14 15  2  0
 14 12  1  0
 17 16  1  1
 17 19  1  0
 18 17  1  0
 20 19  1  6
 20 21  1  0
 21 14  1  0
 22 20  1  0
 23 22  1  0
 24 22  2  0
M  END
$$$$
