DVL.pdb
     RDKit          3D

 24 23  0  0  1  0  0  0  0  0999 V2000
   11.1978  -18.5292   19.5835 N   0  0  0  0  0  0  0  0  0  0  0  0
   12.0194  -17.4327   19.9678 C   0  0  1  0  0  0  0  0  0  0  0  0
   12.5790  -16.6604   18.8042 C   0  0  0  0  0  0  0  0  0  0  0  0
   13.6225  -17.4536   18.1052 C   0  0  0  0  0  0  0  0  0  0  0  0
   13.2983  -18.1865   17.1314 O   0  0  0  0  0  0  0  0  0  0  0  0
   11.3004  -16.5604   20.9453 C   0  0  0  0  0  0  0  0  0  0  0  0
   11.9239  -15.5369   21.3801 O   0  0  0  0  0  0  0  0  0  0  0  0
   14.9501  -17.4277   18.4746 O   0  0  0  0  0  0  0  0  0  0  0  0
    7.0656  -15.2715   23.2242 C   0  0  0  0  0  0  0  0  0  0  0  0
    7.7731  -16.0663   22.1310 C   0  0  1  0  0  0  0  0  0  0  0  0
    7.3961  -15.4386   20.8098 C   0  0  0  0  0  0  0  0  0  0  0  0
    9.2366  -16.1142   22.3713 C   0  0  2  0  0  0  0  0  0  0  0  0
    9.9810  -16.8336   21.3899 N   0  0  0  0  0  0  0  0  0  0  0  0
    9.6434  -16.3697   23.7824 C   0  0  0  0  0  0  0  0  0  0  0  0
   10.1706  -17.4576   24.0982 O   0  0  0  0  0  0  0  0  0  0  0  0
   10.0996  -12.7191   28.6858 C   0  0  0  0  0  0  0  0  0  0  0  0
   10.4406  -14.1990   28.2987 C   0  0  1  0  0  0  0  0  0  0  0  0
    9.7764  -15.0072   29.3624 C   0  0  0  0  0  0  0  0  0  0  0  0
    9.9568  -14.3340   26.9199 C   0  0  0  0  0  0  0  0  0  0  0  0
   10.0940  -15.5778   26.1541 C   0  0  2  0  0  0  0  0  0  0  0  0
    9.4598  -15.4190   24.8146 N   0  0  0  0  0  0  0  0  0  0  0  0
    9.6259  -16.8133   26.7717 C   0  0  0  0  0  0  0  0  0  0  0  0
    8.2497  -17.1121   26.7286 O   0  0  0  0  0  0  0  0  0  0  0  0
   10.3279  -17.6524   27.3466 O   0  0  0  0  0  0  0  0  0  0  0  0
  2  1  1  6
  2  6  1  0
  2  3  1  0
  3  4  1  0
  4  8  1  0
  4  5  2  0
  6 13  1  0
  6  7  2  0
 10  9  1  1
 10 11  1  0
 12 10  1  0
 12 13  1  6
 14 15  2  0
 14 12  1  0
 17 16  1  1
 17 19  1  0
 18 17  1  0
 20 19  1  1
 20 21  1  0
 21 14  1  0
 22 20  1  0
 23 22  1  0
 24 22  2  0
M  END
$$$$
