DVL.pdb
     RDKit          3D

 24 23  0  0  1  0  0  0  0  0999 V2000
   11.6226  -18.2345   20.4599 N   0  0  0  0  0  0  0  0  0  0  0  0
   12.2942  -17.2778   21.2714 C   0  0  1  0  0  0  0  0  0  0  0  0
   13.4325  -16.5856   20.5722 C   0  0  0  0  0  0  0  0  0  0  0  0
   14.5445  -17.5372   20.3182 C   0  0  0  0  0  0  0  0  0  0  0  0
   14.8522  -18.3839   21.2008 O   0  0  0  0  0  0  0  0  0  0  0  0
   11.3142  -16.3180   21.8647 C   0  0  0  0  0  0  0  0  0  0  0  0
   11.7653  -15.4688   22.7017 O   0  0  0  0  0  0  0  0  0  0  0  0
   15.2690  -17.5405   19.1457 O   0  0  0  0  0  0  0  0  0  0  0  0
    6.8843  -16.5579   21.1221 C   0  0  0  0  0  0  0  0  0  0  0  0
    7.7374  -15.2950   21.1895 C   0  0  1  0  0  0  0  0  0  0  0  0
    6.8315  -14.1691   21.6295 C   0  0  0  0  0  0  0  0  0  0  0  0
    8.9123  -15.4939   22.0737 C   0  0  2  0  0  0  0  0  0  0  0  0
    9.9351  -16.3274   21.5314 N   0  0  0  0  0  0  0  0  0  0  0  0
    8.5961  -15.7384   23.5096 C   0  0  0  0  0  0  0  0  0  0  0  0
    8.8969  -16.8272   24.0437 O   0  0  0  0  0  0  0  0  0  0  0  0
    6.3213  -11.6001   26.6502 C   0  0  0  0  0  0  0  0  0  0  0  0
    7.4899  -12.5670   26.2554 C   0  0  1  0  0  0  0  0  0  0  0  0
    8.5717  -12.2333   27.2269 C   0  0  0  0  0  0  0  0  0  0  0  0
    6.8899  -13.9049   26.3163 C   0  0  0  0  0  0  0  0  0  0  0  0
    7.5286  -15.0835   25.7202 C   0  0  2  0  0  0  0  0  0  0  0  0
    7.9548  -14.7760   24.3255 N   0  0  0  0  0  0  0  0  0  0  0  0
    6.7902  -16.3410   25.7384 C   0  0  0  0  0  0  0  0  0  0  0  0
    6.0396  -16.7012   24.6018 O   0  0  0  0  0  0  0  0  0  0  0  0
    6.7505  -17.1497   26.6720 O   0  0  0  0  0  0  0  0  0  0  0  0
  2  1  1  6
  2  6  1  0
  2  3  1  0
  3  4  1  0
  4  8  1  0
  4  5  2  0
  6 13  1  0
  6  7  2  0
 10  9  1  1
 10 11  1  0
 12 10  1  0
 12 13  1  6
 14 15  2  0
 14 12  1  0
 17 16  1  1
 17 19  1  0
 18 17  1  0
 20 19  1  6
 20 21  1  0
 21 14  1  0
 22 20  1  0
 23 22  1  0
 24 22  2  0
M  END
$$$$
