DVL.pdb
     RDKit          3D

 24 23  0  0  1  0  0  0  0  0999 V2000
   12.5019  -16.4446   19.3026 N   0  0  0  0  0  0  0  0  0  0  0  0
   12.5169  -17.1490   20.5388 C   0  0  1  0  0  0  0  0  0  0  0  0
   13.9006  -17.4080   21.0696 C   0  0  0  0  0  0  0  0  0  0  0  0
   14.6879  -18.2146   20.1019 C   0  0  0  0  0  0  0  0  0  0  0  0
   14.1264  -19.1516   19.4716 O   0  0  0  0  0  0  0  0  0  0  0  0
   11.6356  -16.4695   21.5365 C   0  0  0  0  0  0  0  0  0  0  0  0
   11.9741  -15.2982   21.9093 O   0  0  0  0  0  0  0  0  0  0  0  0
   16.0243  -17.9855   19.8546 O   0  0  0  0  0  0  0  0  0  0  0  0
    7.2642  -15.9093   23.7027 C   0  0  0  0  0  0  0  0  0  0  0  0
    8.1373  -16.5754   22.6437 C   0  0  1  0  0  0  0  0  0  0  0  0
    7.8371  -15.8964   21.3282 C   0  0  0  0  0  0  0  0  0  0  0  0
    9.5698  -16.5242   23.0269 C   0  0  2  0  0  0  0  0  0  0  0  0
   10.4668  -17.0760   22.0647 N   0  0  0  0  0  0  0  0  0  0  0  0
    9.8649  -16.8853   24.4426 C   0  0  0  0  0  0  0  0  0  0  0  0
   10.3887  -17.9865   24.7152 O   0  0  0  0  0  0  0  0  0  0  0  0
    9.2763  -13.0494   28.6157 C   0  0  0  0  0  0  0  0  0  0  0  0
   10.1044  -13.9688   27.6538 C   0  0  1  0  0  0  0  0  0  0  0  0
   11.5170  -13.7498   28.0807 C   0  0  0  0  0  0  0  0  0  0  0  0
    9.5223  -15.3033   27.8370 C   0  0  0  0  0  0  0  0  0  0  0  0
    9.8239  -16.4252   26.9410 C   0  0  2  0  0  0  0  0  0  0  0  0
    9.5757  -16.0234   25.5273 N   0  0  0  0  0  0  0  0  0  0  0  0
    9.1730  -17.7030   27.2062 C   0  0  0  0  0  0  0  0  0  0  0  0
    8.0085  -18.0317   26.4845 O   0  0  0  0  0  0  0  0  0  0  0  0
    9.5443  -18.5550   28.0208 O   0  0  0  0  0  0  0  0  0  0  0  0
  2  1  1  6
  2  6  1  0
  2  3  1  0
  3  4  1  0
  4  8  1  0
  4  5  2  0
  6 13  1  0
  6  7  2  0
 10  9  1  1
 10 11  1  0
 12 10  1  0
 12 13  1  6
 14 15  2  0
 14 12  1  0
 17 16  1  1
 17 19  1  0
 18 17  1  0
 20 19  1  1
 20 21  1  0
 21 14  1  0
 22 20  1  0
 23 22  1  0
 24 22  2  0
M  END
$$$$
