DVL.pdb
     RDKit          3D

 24 23  0  0  1  0  0  0  0  0999 V2000
   12.9158  -17.4092   19.7096 N   0  0  0  0  0  0  0  0  0  0  0  0
   12.0834  -17.7974   20.7964 C   0  0  1  0  0  0  0  0  0  0  0  0
   12.8452  -18.3194   21.9842 C   0  0  0  0  0  0  0  0  0  0  0  0
   13.6633  -19.4988   21.6017 C   0  0  0  0  0  0  0  0  0  0  0  0
   14.8651  -19.5702   21.9773 O   0  0  0  0  0  0  0  0  0  0  0  0
   11.1452  -16.6908   21.1553 C   0  0  0  0  0  0  0  0  0  0  0  0
   11.6330  -15.5152   21.2285 O   0  0  0  0  0  0  0  0  0  0  0  0
   13.1653  -20.5367   20.8438 O   0  0  0  0  0  0  0  0  0  0  0  0
    6.5753  -14.8804   21.5116 C   0  0  0  0  0  0  0  0  0  0  0  0
    7.5456  -15.9470   21.0136 C   0  0  1  0  0  0  0  0  0  0  0  0
    7.7580  -15.7012   19.5383 C   0  0  0  0  0  0  0  0  0  0  0  0
    8.8002  -15.9358   21.8057 C   0  0  2  0  0  0  0  0  0  0  0  0
    9.7664  -16.9079   21.4102 N   0  0  0  0  0  0  0  0  0  0  0  0
    8.6237  -15.7862   23.2781 C   0  0  0  0  0  0  0  0  0  0  0  0
    8.7148  -16.7821   24.0273 O   0  0  0  0  0  0  0  0  0  0  0  0
    7.9438  -11.1156   27.1742 C   0  0  0  0  0  0  0  0  0  0  0  0
    7.4442  -12.5959   27.0492 C   0  0  1  0  0  0  0  0  0  0  0  0
    5.9770  -12.4989   27.3012 C   0  0  0  0  0  0  0  0  0  0  0  0
    7.8939  -13.0193   25.7181 C   0  0  0  0  0  0  0  0  0  0  0  0
    8.0309  -14.4314   25.3441 C   0  0  2  0  0  0  0  0  0  0  0  0
    8.3508  -14.5407   23.8925 N   0  0  0  0  0  0  0  0  0  0  0  0
    6.9315  -15.3324   25.6704 C   0  0  0  0  0  0  0  0  0  0  0  0
    5.8290  -15.3989   24.7957 O   0  0  0  0  0  0  0  0  0  0  0  0
    6.8605  -16.0665   26.6620 O   0  0  0  0  0  0  0  0  0  0  0  0
  2  1  1  6
  2  6  1  0
  2  3  1  0
  3  4  1  0
  4  8  1  0
  4  5  2  0
  6 13  1  0
  6  7  2  0
 10  9  1  1
 10 11  1  0
 12 10  1  0
 12 13  1  1
 14 15  2  0
 14 12  1  0
 17 16  1  6
 17 19  1  0
 18 17  1  0
 20 19  1  6
 20 21  1  0
 21 14  1  0
 22 20  1  0
 23 22  1  0
 24 22  2  0
M  END
$$$$
