DVL.pdb
     RDKit          3D

 24 23  0  0  1  0  0  0  0  0999 V2000
   13.0230  -14.1701   18.4943 N   0  0  0  0  0  0  0  0  0  0  0  0
   12.5786  -15.0974   19.4778 C   0  0  1  0  0  0  0  0  0  0  0  0
   13.6987  -15.7661   20.2273 C   0  0  0  0  0  0  0  0  0  0  0  0
   14.4289  -16.7091   19.3418 C   0  0  0  0  0  0  0  0  0  0  0  0
   14.3432  -16.5796   18.0902 O   0  0  0  0  0  0  0  0  0  0  0  0
   11.5808  -14.4551   20.3864 C   0  0  0  0  0  0  0  0  0  0  0  0
   11.9203  -13.3586   20.9410 O   0  0  0  0  0  0  0  0  0  0  0  0
   15.2087  -17.7360   19.8286 O   0  0  0  0  0  0  0  0  0  0  0  0
    6.9735  -13.9299   22.0668 C   0  0  0  0  0  0  0  0  0  0  0  0
    7.9532  -14.4204   21.0053 C   0  0  1  0  0  0  0  0  0  0  0  0
    7.8586  -13.4665   19.8378 C   0  0  0  0  0  0  0  0  0  0  0  0
    9.3226  -14.5449   21.5629 C   0  0  2  0  0  0  0  0  0  0  0  0
   10.3034  -15.0175   20.6412 N   0  0  0  0  0  0  0  0  0  0  0  0
    9.4041  -15.1375   22.9281 C   0  0  0  0  0  0  0  0  0  0  0  0
    9.6511  -16.3539   23.0725 O   0  0  0  0  0  0  0  0  0  0  0  0
   10.8238  -14.5257   28.2386 C   0  0  0  0  0  0  0  0  0  0  0  0
    9.3282  -14.1866   27.9154 C   0  0  1  0  0  0  0  0  0  0  0  0
    9.0041  -13.0745   28.8555 C   0  0  0  0  0  0  0  0  0  0  0  0
    9.3237  -13.9026   26.4756 C   0  0  0  0  0  0  0  0  0  0  0  0
    9.3960  -14.9615   25.4627 C   0  0  2  0  0  0  0  0  0  0  0  0
    9.2116  -14.3751   24.1049 N   0  0  0  0  0  0  0  0  0  0  0  0
    8.5176  -16.1151   25.6190 C   0  0  0  0  0  0  0  0  0  0  0  0
    7.1910  -16.0233   25.1535 O   0  0  0  0  0  0  0  0  0  0  0  0
    8.8207  -17.1980   26.1317 O   0  0  0  0  0  0  0  0  0  0  0  0
  2  1  1  6
  2  6  1  0
  2  3  1  0
  3  4  1  0
  4  8  1  0
  4  5  2  0
  6 13  1  0
  6  7  2  0
 10  9  1  1
 10 11  1  0
 12 10  1  0
 12 13  1  6
 14 15  2  0
 14 12  1  0
 17 16  1  1
 17 19  1  0
 18 17  1  0
 20 19  1  1
 20 21  1  0
 21 14  1  0
 22 20  1  0
 23 22  1  0
 24 22  2  0
M  END
$$$$
