DVL.pdb
     RDKit          3D

 24 23  0  0  1  0  0  0  0  0999 V2000
   13.5717  -14.8717   19.8999 N   0  0  0  0  0  0  0  0  0  0  0  0
   13.7714  -15.4073   21.2029 C   0  0  1  0  0  0  0  0  0  0  0  0
   14.8384  -14.6971   21.9908 C   0  0  0  0  0  0  0  0  0  0  0  0
   16.1737  -14.9196   21.3791 C   0  0  0  0  0  0  0  0  0  0  0  0
   16.4977  -16.0771   20.9974 O   0  0  0  0  0  0  0  0  0  0  0  0
   12.4723  -15.4897   21.9372 C   0  0  0  0  0  0  0  0  0  0  0  0
   11.7303  -14.4531   21.9247 O   0  0  0  0  0  0  0  0  0  0  0  0
   17.0916  -13.9062   21.2051 O   0  0  0  0  0  0  0  0  0  0  0  0
    8.6295  -17.9758   23.5325 C   0  0  0  0  0  0  0  0  0  0  0  0
    9.9503  -17.9055   22.7725 C   0  0  1  0  0  0  0  0  0  0  0  0
    9.6140  -17.7042   21.3136 C   0  0  0  0  0  0  0  0  0  0  0  0
   10.8298  -16.8494   23.3319 C   0  0  2  0  0  0  0  0  0  0  0  0
   12.0556  -16.6567   22.6282 N   0  0  0  0  0  0  0  0  0  0  0  0
   10.9482  -16.8387   24.8176 C   0  0  0  0  0  0  0  0  0  0  0  0
   11.8243  -17.5262   25.3842 O   0  0  0  0  0  0  0  0  0  0  0  0
    8.1343  -13.0344   27.8748 C   0  0  0  0  0  0  0  0  0  0  0  0
    9.5042  -13.6928   27.4924 C   0  0  1  0  0  0  0  0  0  0  0  0
   10.4948  -12.9751   28.3464 C   0  0  0  0  0  0  0  0  0  0  0  0
    9.2954  -15.1264   27.7260 C   0  0  0  0  0  0  0  0  0  0  0  0
   10.1566  -16.1557   27.1333 C   0  0  2  0  0  0  0  0  0  0  0  0
   10.0973  -16.0692   25.6465 N   0  0  0  0  0  0  0  0  0  0  0  0
    9.9516  -17.5383   27.5498 C   0  0  0  0  0  0  0  0  0  0  0  0
    9.0578  -18.3411   26.8139 O   0  0  0  0  0  0  0  0  0  0  0  0
   10.4941  -18.0989   28.5083 O   0  0  0  0  0  0  0  0  0  0  0  0
  2  1  1  6
  2  6  1  0
  2  3  1  0
  3  4  1  0
  4  8  1  0
  4  5  2  0
  6 13  1  0
  6  7  2  0
 10  9  1  1
 10 11  1  0
 12 10  1  0
 12 13  1  6
 14 15  2  0
 14 12  1  0
 17 16  1  1
 17 19  1  0
 18 17  1  0
 20 19  1  1
 20 21  1  0
 21 14  1  0
 22 20  1  0
 23 22  1  0
 24 22  2  0
M  END
$$$$
