DVL.pdb
     RDKit          3D

 24 23  0  0  1  0  0  0  0  0999 V2000
   11.2697  -18.0448   19.8478 N   0  0  0  0  0  0  0  0  0  0  0  0
   10.0235  -18.0350   20.5346 C   0  0  1  0  0  0  0  0  0  0  0  0
    9.8181  -19.2265   21.4301 C   0  0  0  0  0  0  0  0  0  0  0  0
    9.6279  -20.4590   20.6230 C   0  0  0  0  0  0  0  0  0  0  0  0
   10.5416  -20.8365   19.8398 O   0  0  0  0  0  0  0  0  0  0  0  0
    9.8334  -16.7371   21.2507 C   0  0  0  0  0  0  0  0  0  0  0  0
   10.7919  -16.3336   21.9881 O   0  0  0  0  0  0  0  0  0  0  0  0
    8.4829  -21.2233   20.6888 O   0  0  0  0  0  0  0  0  0  0  0  0
    7.2788  -12.5164   21.8561 C   0  0  0  0  0  0  0  0  0  0  0  0
    7.4526  -13.8249   21.0913 C   0  0  1  0  0  0  0  0  0  0  0  0
    7.9643  -13.4711   19.7148 C   0  0  0  0  0  0  0  0  0  0  0  0
    8.3345  -14.7604   21.8321 C   0  0  2  0  0  0  0  0  0  0  0  0
    8.6486  -15.9651   21.1356 N   0  0  0  0  0  0  0  0  0  0  0  0
    8.0102  -14.9343   23.2764 C   0  0  0  0  0  0  0  0  0  0  0  0
    7.2880  -15.8833   23.6495 O   0  0  0  0  0  0  0  0  0  0  0  0
   10.9702  -14.2281   28.3402 C   0  0  0  0  0  0  0  0  0  0  0  0
    9.4584  -14.3866   27.9587 C   0  0  1  0  0  0  0  0  0  0  0  0
    8.7718  -13.3535   28.7876 C   0  0  0  0  0  0  0  0  0  0  0  0
    9.4347  -14.2346   26.4993 C   0  0  0  0  0  0  0  0  0  0  0  0
    8.1906  -14.2718   25.7226 C   0  0  2  0  0  0  0  0  0  0  0  0
    8.4901  -14.0574   24.2784 N   0  0  0  0  0  0  0  0  0  0  0  0
    7.1051  -13.3880   26.1319 C   0  0  0  0  0  0  0  0  0  0  0  0
    6.1661  -13.8596   27.0704 O   0  0  0  0  0  0  0  0  0  0  0  0
    6.9142  -12.2344   25.7319 O   0  0  0  0  0  0  0  0  0  0  0  0
  2  1  1  1
  2  6  1  0
  2  3  1  0
  3  4  1  0
  4  8  1  0
  4  5  2  0
  6 13  1  0
  6  7  2  0
 10  9  1  1
 10 11  1  0
 12 10  1  0
 12 13  1  6
 14 15  2  0
 14 12  1  0
 17 16  1  1
 17 19  1  0
 18 17  1  0
 20 19  1  1
 20 21  1  0
 21 14  1  0
 22 20  1  0
 23 22  1  0
 24 22  2  0
M  END
$$$$
