DVL.pdb
     RDKit          3D

 24 23  0  0  1  0  0  0  0  0999 V2000
    9.1971  -18.5448   20.4041 N   0  0  0  0  0  0  0  0  0  0  0  0
   10.4676  -17.9496   20.6422 C   0  0  1  0  0  0  0  0  0  0  0  0
   11.3821  -17.9801   19.4479 C   0  0  0  0  0  0  0  0  0  0  0  0
   11.7888  -19.3747   19.1379 C   0  0  0  0  0  0  0  0  0  0  0  0
   11.2332  -20.3331   19.7407 O   0  0  0  0  0  0  0  0  0  0  0  0
   10.3018  -16.5753   21.2054 C   0  0  0  0  0  0  0  0  0  0  0  0
   11.3490  -15.9968   21.6459 O   0  0  0  0  0  0  0  0  0  0  0  0
   12.7600  -19.6783   18.2082 O   0  0  0  0  0  0  0  0  0  0  0  0
    7.5337  -12.4580   21.4533 C   0  0  0  0  0  0  0  0  0  0  0  0
    7.6445  -13.9186   21.0271 C   0  0  1  0  0  0  0  0  0  0  0  0
    7.7260  -13.9370   19.5188 C   0  0  0  0  0  0  0  0  0  0  0  0
    8.7929  -14.5811   21.6935 C   0  0  2  0  0  0  0  0  0  0  0  0
    9.0463  -15.9168   21.2617 N   0  0  0  0  0  0  0  0  0  0  0  0
    8.8866  -14.3667   23.1656 C   0  0  0  0  0  0  0  0  0  0  0  0
    9.0265  -13.2135   23.6260 O   0  0  0  0  0  0  0  0  0  0  0  0
    5.8828  -12.6612   26.0772 C   0  0  0  0  0  0  0  0  0  0  0  0
    7.3854  -12.9841   25.7705 C   0  0  1  0  0  0  0  0  0  0  0  0
    8.1350  -12.1858   26.7837 C   0  0  0  0  0  0  0  0  0  0  0  0
    7.4640  -14.4477   25.8426 C   0  0  0  0  0  0  0  0  0  0  0  0
    8.7008  -15.1858   25.5634 C   0  0  2  0  0  0  0  0  0  0  0  0
    8.8239  -15.4294   24.0982 N   0  0  0  0  0  0  0  0  0  0  0  0
    8.9283  -16.4322   26.2857 C   0  0  0  0  0  0  0  0  0  0  0  0
    9.0946  -16.3831   27.6839 O   0  0  0  0  0  0  0  0  0  0  0  0
    8.9930  -17.5617   25.7883 O   0  0  0  0  0  0  0  0  0  0  0  0
  2  1  1  6
  2  6  1  0
  2  3  1  0
  3  4  1  0
  4  8  1  0
  4  5  2  0
  6 13  1  0
  6  7  2  0
 10  9  1  1
 10 11  1  0
 12 10  1  0
 12 13  1  1
 14 15  2  0
 14 12  1  0
 17 16  1  1
 17 19  1  0
 18 17  1  0
 20 19  1  6
 20 21  1  0
 21 14  1  0
 22 20  1  0
 23 22  1  0
 24 22  2  0
M  END
$$$$
