DVL.pdb
     RDKit          3D

 24 23  0  0  1  0  0  0  0  0999 V2000
   12.1282  -18.0087   19.3786 N   0  0  0  0  0  0  0  0  0  0  0  0
   11.1910  -18.1935   20.4333 C   0  0  1  0  0  0  0  0  0  0  0  0
   11.7280  -19.0004   21.5840 C   0  0  0  0  0  0  0  0  0  0  0  0
   11.9493  -20.4108   21.1736 C   0  0  0  0  0  0  0  0  0  0  0  0
   11.5838  -20.7895   20.0275 O   0  0  0  0  0  0  0  0  0  0  0  0
   10.6274  -16.8786   20.8658 C   0  0  0  0  0  0  0  0  0  0  0  0
   11.4504  -15.9194   21.0326 O   0  0  0  0  0  0  0  0  0  0  0  0
   12.5444  -21.3418   21.9974 O   0  0  0  0  0  0  0  0  0  0  0  0
    6.8801  -13.7529   21.5167 C   0  0  0  0  0  0  0  0  0  0  0  0
    7.4339  -15.0302   20.8929 C   0  0  1  0  0  0  0  0  0  0  0  0
    7.7175  -14.7292   19.4401 C   0  0  0  0  0  0  0  0  0  0  0  0
    8.6184  -15.5173   21.6422 C   0  0  2  0  0  0  0  0  0  0  0  0
    9.2412  -16.6758   21.0899 N   0  0  0  0  0  0  0  0  0  0  0  0
    8.4755  -15.5261   23.1258 C   0  0  0  0  0  0  0  0  0  0  0  0
    8.1541  -16.5768   23.7209 O   0  0  0  0  0  0  0  0  0  0  0  0
    8.2287  -12.2058   27.8291 C   0  0  0  0  0  0  0  0  0  0  0  0
    7.0443  -12.7340   26.9489 C   0  0  1  0  0  0  0  0  0  0  0  0
    6.0349  -11.6375   27.0153 C   0  0  0  0  0  0  0  0  0  0  0  0
    7.6616  -13.0324   25.6515 C   0  0  0  0  0  0  0  0  0  0  0  0
    8.2924  -14.3237   25.3565 C   0  0  2  0  0  0  0  0  0  0  0  0
    8.6905  -14.3753   23.9211 N   0  0  0  0  0  0  0  0  0  0  0  0
    7.5585  -15.5354   25.7028 C   0  0  0  0  0  0  0  0  0  0  0  0
    8.1116  -16.4119   26.6572 O   0  0  0  0  0  0  0  0  0  0  0  0
    6.4701  -15.8873   25.2350 O   0  0  0  0  0  0  0  0  0  0  0  0
  2  1  1  6
  2  6  1  0
  2  3  1  0
  3  4  1  0
  4  8  1  0
  4  5  2  0
  6 13  1  0
  6  7  2  0
 10  9  1  1
 10 11  1  0
 12 10  1  0
 12 13  1  6
 14 15  2  0
 14 12  1  0
 17 16  1  1
 17 19  1  0
 18 17  1  0
 20 19  1  6
 20 21  1  0
 21 14  1  0
 22 20  1  0
 23 22  1  0
 24 22  2  0
M  END
$$$$
