WHM.pdb
     RDKit          3D

 33 35  0  0  1  0  0  0  0  0999 V2000
    6.7714  -17.5001   25.1542 N   0  0  0  0  0  0  0  0  0  0  0  0
    7.4816  -16.5232   24.3326 C   0  0  1  0  0  0  0  0  0  0  0  0
    8.0668  -15.4584   25.2718 C   0  0  0  0  0  0  0  0  0  0  0  0
    6.9780  -14.5141   25.6276 C   0  0  0  0  0  0  0  0  0  0  0  0
    5.7683  -14.8208   26.2502 C   0  0  0  0  0  0  0  0  0  0  0  0
    5.0499  -13.6955   26.4008 N   0  0  0  0  0  0  0  0  0  0  0  0
    5.7266  -12.6517   25.9064 C   0  0  0  0  0  0  0  0  0  0  0  0
    5.4273  -11.3091   25.8230 C   0  0  0  0  0  0  0  0  0  0  0  0
    6.3468  -10.4584   25.2463 C   0  0  0  0  0  0  0  0  0  0  0  0
    7.5544  -10.9323   24.7553 C   0  0  0  0  0  0  0  0  0  0  0  0
    7.8256  -12.2829   24.8535 C   0  0  0  0  0  0  0  0  0  0  0  0
    6.9356  -13.1487   25.4189 C   0  0  0  0  0  0  0  0  0  0  0  0
    8.5283  -17.1459   23.5155 C   0  0  0  0  0  0  0  0  0  0  0  0
    9.0000  -18.2544   23.9162 O   0  0  0  0  0  0  0  0  0  0  0  0
    9.0611  -16.6185   22.3141 N   0  0  0  0  0  0  0  0  0  0  0  0
   10.3988  -16.9809   21.8735 C   0  0  1  0  0  0  0  0  0  0  0  0
   10.5667  -16.5087   20.4479 C   0  0  0  0  0  0  0  0  0  0  0  0
   11.8575  -16.9386   19.9254 C   0  0  0  0  0  0  0  0  0  0  0  0
   12.9861  -16.1870   19.7417 C   0  0  0  0  0  0  0  0  0  0  0  0
   13.9778  -16.9494   19.2196 N   0  0  0  0  0  0  0  0  0  0  0  0
   13.4558  -18.1823   19.0800 C   0  0  0  0  0  0  0  0  0  0  0  0
   12.1716  -18.1846   19.5053 N   0  0  0  0  0  0  0  0  0  0  0  0
   11.4362  -16.4886   22.7992 C   0  0  0  0  0  0  0  0  0  0  0  0
   12.1010  -15.4547   22.5380 O   0  0  0  0  0  0  0  0  0  0  0  0
    9.8696  -15.6578   29.2170 C   0  0  0  0  0  0  0  0  0  0  0  0
   11.2121  -15.1091   28.1588 S   0  0  0  0  0  0  0  0  0  0  0  0
   11.5434  -16.2995   26.8109 C   0  0  0  0  0  0  0  0  0  0  0  0
   12.5453  -15.7214   25.8474 C   0  0  0  0  0  0  0  0  0  0  0  0
   12.9292  -16.7487   24.8386 C   0  0  2  0  0  0  0  0  0  0  0  0
   11.7503  -17.1344   24.0262 N   0  0  0  0  0  0  0  0  0  0  0  0
   13.5584  -17.9630   25.3461 C   0  0  0  0  0  0  0  0  0  0  0  0
   14.7597  -18.2556   25.0060 O   0  0  0  0  0  0  0  0  0  0  0  0
   12.9687  -18.8747   26.1976 O   0  0  0  0  0  0  0  0  0  0  0  0
  2  1  1  1
  2 13  1  0
  2  3  1  0
  4  5  2  0
  4  3  1  0
  6  5  1  0
  7 12  2  0
  7  6  1  0
  8  7  1  0
  9 10  1  0
  9  8  2  0
 10 11  2  0
 11 12  1  0
 12  4  1  0
 13 14  2  0
 15 13  1  0
 15 16  1  0
 16 17  1  6
 18 17  1  0
 19 18  2  0
 20 21  1  0
 20 19  1  0
 21 22  2  0
 22 18  1  0
 23 24  2  0
 23 16  1  0
 25 26  1  0
 26 27  1  0
 27 28  1  0
 29 28  1  1
 29 30  1  0
 30 23  1  0
 31 29  1  0
 31 33  1  0
 32 31  2  0
M  END
$$$$
