WHM.pdb
     RDKit          3D

 33 35  0  0  1  0  0  0  0  0999 V2000
    6.3643  -17.4859   24.9891 N   0  0  0  0  0  0  0  0  0  0  0  0
    7.3289  -16.6349   24.2970 C   0  0  1  0  0  0  0  0  0  0  0  0
    7.9901  -15.7279   25.3451 C   0  0  0  0  0  0  0  0  0  0  0  0
    7.0385  -14.6359   25.6707 C   0  0  0  0  0  0  0  0  0  0  0  0
    5.7627  -14.7671   26.2188 C   0  0  0  0  0  0  0  0  0  0  0  0
    5.2159  -13.5487   26.3645 N   0  0  0  0  0  0  0  0  0  0  0  0
    6.0701  -12.6104   25.9381 C   0  0  0  0  0  0  0  0  0  0  0  0
    5.9831  -11.2363   25.8791 C   0  0  0  0  0  0  0  0  0  0  0  0
    7.0523  -10.5242   25.3776 C   0  0  0  0  0  0  0  0  0  0  0  0
    8.2001  -11.1667   24.9375 C   0  0  0  0  0  0  0  0  0  0  0  0
    8.2573  -12.5447   25.0096 C   0  0  0  0  0  0  0  0  0  0  0  0
    7.2156  -13.2760   25.5008 C   0  0  0  0  0  0  0  0  0  0  0  0
    8.3287  -17.4176   23.5631 C   0  0  0  0  0  0  0  0  0  0  0  0
    8.7282  -18.4995   24.0940 O   0  0  0  0  0  0  0  0  0  0  0  0
    8.8900  -17.0724   22.3096 N   0  0  0  0  0  0  0  0  0  0  0  0
   10.2764  -17.3888   22.0048 C   0  0  1  0  0  0  0  0  0  0  0  0
   10.5647  -16.9229   20.5965 C   0  0  0  0  0  0  0  0  0  0  0  0
   11.9222  -17.2905   20.2142 C   0  0  0  0  0  0  0  0  0  0  0  0
   13.0901  -16.6512   20.5300 C   0  0  0  0  0  0  0  0  0  0  0  0
   14.1438  -17.2965   19.9725 N   0  0  0  0  0  0  0  0  0  0  0  0
   13.6207  -18.3430   19.3068 C   0  0  0  0  0  0  0  0  0  0  0  0
   12.2753  -18.3470   19.4481 N   0  0  0  0  0  0  0  0  0  0  0  0
   11.2006  -16.8506   23.0204 C   0  0  0  0  0  0  0  0  0  0  0  0
   11.3159  -15.6125   23.2015 O   0  0  0  0  0  0  0  0  0  0  0  0
    9.6432  -14.8987   27.7713 C   0  0  0  0  0  0  0  0  0  0  0  0
   11.4089  -14.7726   28.0701 S   0  0  0  0  0  0  0  0  0  0  0  0
   12.3319  -16.1304   27.2650 C   0  0  0  0  0  0  0  0  0  0  0  0
   11.6871  -16.4839   25.9513 C   0  0  0  0  0  0  0  0  0  0  0  0
   12.6788  -17.1550   25.0645 C   0  0  2  0  0  0  0  0  0  0  0  0
   12.0085  -17.6764   23.8491 N   0  0  0  0  0  0  0  0  0  0  0  0
   13.4652  -18.2315   25.6568 C   0  0  0  0  0  0  0  0  0  0  0  0
   14.4977  -17.9585   26.3667 O   0  0  0  0  0  0  0  0  0  0  0  0
   13.2012  -19.5798   25.5291 O   0  0  0  0  0  0  0  0  0  0  0  0
  2  1  1  1
  2 13  1  0
  2  3  1  0
  4  5  2  0
  4  3  1  0
  6  5  1  0
  7 12  2  0
  7  6  1  0
  8  7  1  0
  9 10  1  0
  9  8  2  0
 10 11  2  0
 11 12  1  0
 12  4  1  0
 13 14  2  0
 15 13  1  0
 15 16  1  0
 16 17  1  6
 18 17  1  0
 19 18  2  0
 20 21  1  0
 20 19  1  0
 21 22  2  0
 22 18  1  0
 23 24  2  0
 23 16  1  0
 25 26  1  0
 26 27  1  0
 27 28  1  0
 29 28  1  1
 29 30  1  0
 30 23  1  0
 31 29  1  0
 31 33  1  0
 32 31  2  0
M  END
$$$$
