WHM.pdb
     RDKit          3D

 33 35  0  0  1  0  0  0  0  0999 V2000
    6.1601  -18.4461   23.5042 N   0  0  0  0  0  0  0  0  0  0  0  0
    7.0213  -17.2915   23.7472 C   0  0  1  0  0  0  0  0  0  0  0  0
    7.1186  -17.0913   25.2667 C   0  0  0  0  0  0  0  0  0  0  0  0
    6.5269  -15.7695   25.5928 C   0  0  0  0  0  0  0  0  0  0  0  0
    5.3902  -15.5232   26.3626 C   0  0  0  0  0  0  0  0  0  0  0  0
    5.1773  -14.1983   26.4268 N   0  0  0  0  0  0  0  0  0  0  0  0
    6.1213  -13.5496   25.7341 C   0  0  0  0  0  0  0  0  0  0  0  0
    6.3414  -12.2098   25.4985 C   0  0  0  0  0  0  0  0  0  0  0  0
    7.4235  -11.8401   24.7277 C   0  0  0  0  0  0  0  0  0  0  0  0
    8.2824  -12.7892   24.1934 C   0  0  0  0  0  0  0  0  0  0  0  0
    8.0357  -14.1241   24.4474 C   0  0  0  0  0  0  0  0  0  0  0  0
    6.9733  -14.5201   25.2062 C   0  0  0  0  0  0  0  0  0  0  0  0
    8.3486  -17.4565   23.1456 C   0  0  0  0  0  0  0  0  0  0  0  0
    8.8317  -18.6301   23.1095 O   0  0  0  0  0  0  0  0  0  0  0  0
    9.1421  -16.4188   22.5988 N   0  0  0  0  0  0  0  0  0  0  0  0
   10.4747  -16.6951   22.0861 C   0  0  1  0  0  0  0  0  0  0  0  0
   10.7669  -15.7052   20.9824 C   0  0  0  0  0  0  0  0  0  0  0  0
    9.9871  -16.0322   19.7954 C   0  0  0  0  0  0  0  0  0  0  0  0
    9.2454  -17.1569   19.5565 C   0  0  0  0  0  0  0  0  0  0  0  0
    8.6784  -17.0928   18.3269 N   0  0  0  0  0  0  0  0  0  0  0  0
    9.0743  -15.9178   17.8029 C   0  0  0  0  0  0  0  0  0  0  0  0
    9.8674  -15.2687   18.6861 N   0  0  0  0  0  0  0  0  0  0  0  0
   11.4848  -16.7176   23.1607 C   0  0  0  0  0  0  0  0  0  0  0  0
   12.7075  -16.8432   22.8992 O   0  0  0  0  0  0  0  0  0  0  0  0
   10.2855  -12.2871   28.0829 C   0  0  0  0  0  0  0  0  0  0  0  0
   11.0482  -13.9023   28.2636 S   0  0  0  0  0  0  0  0  0  0  0  0
   11.1164  -14.8021   26.6733 C   0  0  0  0  0  0  0  0  0  0  0  0
   11.6520  -16.1922   26.8901 C   0  0  0  0  0  0  0  0  0  0  0  0
   12.1731  -16.7405   25.6064 C   0  0  2  0  0  0  0  0  0  0  0  0
   11.1541  -16.6004   24.5384 N   0  0  0  0  0  0  0  0  0  0  0  0
   12.6370  -18.1235   25.6243 C   0  0  0  0  0  0  0  0  0  0  0  0
   11.8132  -19.0813   25.4045 O   0  0  0  0  0  0  0  0  0  0  0  0
   13.9338  -18.5301   25.8629 O   0  0  0  0  0  0  0  0  0  0  0  0
  2  1  1  1
  2 13  1  0
  2  3  1  0
  4  5  2  0
  4  3  1  0
  6  5  1  0
  7 12  2  0
  7  6  1  0
  8  7  1  0
  9 10  1  0
  9  8  2  0
 10 11  2  0
 11 12  1  0
 12  4  1  0
 13 14  2  0
 15 13  1  0
 15 16  1  0
 16 17  1  6
 18 17  1  0
 19 18  2  0
 20 21  1  0
 20 19  1  0
 21 22  2  0
 22 18  1  0
 23 24  2  0
 23 16  1  0
 25 26  1  0
 26 27  1  0
 27 28  1  0
 29 28  1  1
 29 30  1  0
 30 23  1  0
 31 29  1  0
 31 33  1  0
 32 31  2  0
M  END
$$$$
