WHM.pdb
     RDKit          3D

 33 35  0  0  1  0  0  0  0  0999 V2000
    6.2220  -18.7580   24.6726 N   0  0  0  0  0  0  0  0  0  0  0  0
    6.9080  -17.5015   24.3819 C   0  0  1  0  0  0  0  0  0  0  0  0
    7.4216  -16.9298   25.7114 C   0  0  0  0  0  0  0  0  0  0  0  0
    6.7775  -15.6087   25.9205 C   0  0  0  0  0  0  0  0  0  0  0  0
    5.5471  -15.3592   26.5280 C   0  0  0  0  0  0  0  0  0  0  0  0
    5.3128  -14.0363   26.5269 N   0  0  0  0  0  0  0  0  0  0  0  0
    6.3322  -13.3921   25.9458 C   0  0  0  0  0  0  0  0  0  0  0  0
    6.5664  -12.0558   25.7039 C   0  0  0  0  0  0  0  0  0  0  0  0
    7.7360  -11.6905   25.0713 C   0  0  0  0  0  0  0  0  0  0  0  0
    8.6681  -12.6405   24.6805 C   0  0  0  0  0  0  0  0  0  0  0  0
    8.4050  -13.9717   24.9369 C   0  0  0  0  0  0  0  0  0  0  0  0
    7.2568  -14.3634   25.5611 C   0  0  0  0  0  0  0  0  0  0  0  0
    8.0013  -17.6791   23.4206 C   0  0  0  0  0  0  0  0  0  0  0  0
    8.6450  -18.7726   23.4636 O   0  0  0  0  0  0  0  0  0  0  0  0
    8.4039  -16.7354   22.4446 N   0  0  0  0  0  0  0  0  0  0  0  0
    9.6549  -16.9027   21.7220 C   0  0  1  0  0  0  0  0  0  0  0  0
    9.5984  -16.0417   20.4815 C   0  0  0  0  0  0  0  0  0  0  0  0
   10.8212  -16.2000   19.7044 C   0  0  0  0  0  0  0  0  0  0  0  0
   11.8534  -15.3126   19.5654 C   0  0  0  0  0  0  0  0  0  0  0  0
   12.8046  -15.8238   18.7460 N   0  0  0  0  0  0  0  0  0  0  0  0
   12.3546  -17.0374   18.3764 C   0  0  0  0  0  0  0  0  0  0  0  0
   11.1536  -17.2734   18.9527 N   0  0  0  0  0  0  0  0  0  0  0  0
   10.8261  -16.6478   22.5816 C   0  0  0  0  0  0  0  0  0  0  0  0
   11.9954  -16.7781   22.1402 O   0  0  0  0  0  0  0  0  0  0  0  0
   10.0492  -12.7339   28.2591 C   0  0  0  0  0  0  0  0  0  0  0  0
    9.9737  -14.3759   27.5371 S   0  0  0  0  0  0  0  0  0  0  0  0
   11.6099  -14.9287   26.9364 C   0  0  0  0  0  0  0  0  0  0  0  0
   11.4843  -16.2653   26.2551 C   0  0  0  0  0  0  0  0  0  0  0  0
   11.9006  -16.1483   24.8292 C   0  0  2  0  0  0  0  0  0  0  0  0
   10.7175  -16.2447   23.9407 N   0  0  0  0  0  0  0  0  0  0  0  0
   12.9088  -17.0931   24.3609 C   0  0  0  0  0  0  0  0  0  0  0  0
   14.1498  -16.8846   24.6079 O   0  0  0  0  0  0  0  0  0  0  0  0
   12.6554  -18.2458   23.6462 O   0  0  0  0  0  0  0  0  0  0  0  0
  2  1  1  1
  2 13  1  0
  2  3  1  0
  4  5  2  0
  4  3  1  0
  6  5  1  0
  7 12  2  0
  7  6  1  0
  8  7  1  0
  9 10  1  0
  9  8  2  0
 10 11  2  0
 11 12  1  0
 12  4  1  0
 13 14  2  0
 15 13  1  0
 15 16  1  0
 16 17  1  6
 18 17  1  0
 19 18  2  0
 20 21  1  0
 20 19  1  0
 21 22  2  0
 22 18  1  0
 23 24  2  0
 23 16  1  0
 25 26  1  0
 26 27  1  0
 27 28  1  0
 29 28  1  1
 29 30  1  0
 30 23  1  0
 31 29  1  0
 31 33  1  0
 32 31  2  0
M  END
$$$$
