WHM.pdb
     RDKit          3D

 33 35  0  0  1  0  0  0  0  0999 V2000
    6.4122  -17.1171   23.7010 N   0  0  0  0  0  0  0  0  0  0  0  0
    7.3848  -16.0273   23.6846 C   0  0  1  0  0  0  0  0  0  0  0  0
    7.7564  -15.7093   25.1404 C   0  0  0  0  0  0  0  0  0  0  0  0
    6.7145  -14.8070   25.6919 C   0  0  0  0  0  0  0  0  0  0  0  0
    5.5786  -15.1749   26.4127 C   0  0  0  0  0  0  0  0  0  0  0  0
    4.8832  -14.0720   26.7365 N   0  0  0  0  0  0  0  0  0  0  0  0
    5.5047  -12.9847   26.2639 C   0  0  0  0  0  0  0  0  0  0  0  0
    5.2010  -11.6421   26.3296 C   0  0  0  0  0  0  0  0  0  0  0  0
    6.0544  -10.7383   25.7325 C   0  0  0  0  0  0  0  0  0  0  0  0
    7.2008  -11.1594   25.0749 C   0  0  0  0  0  0  0  0  0  0  0  0
    7.4781  -12.5115   25.0263 C   0  0  0  0  0  0  0  0  0  0  0  0
    6.6527  -13.4291   25.6076 C   0  0  0  0  0  0  0  0  0  0  0  0
    8.5730  -16.3598   22.8919 C   0  0  0  0  0  0  0  0  0  0  0  0
    9.0232  -17.5434   22.9826 O   0  0  0  0  0  0  0  0  0  0  0  0
    9.2651  -15.4742   22.0305 N   0  0  0  0  0  0  0  0  0  0  0  0
   10.4985  -15.8855   21.3787 C   0  0  1  0  0  0  0  0  0  0  0  0
   10.7717  -14.9254   20.2441 C   0  0  0  0  0  0  0  0  0  0  0  0
    9.5628  -14.7232   19.4555 C   0  0  0  0  0  0  0  0  0  0  0  0
    8.3480  -15.3359   19.6012 C   0  0  0  0  0  0  0  0  0  0  0  0
    7.4802  -14.8866   18.6619 N   0  0  0  0  0  0  0  0  0  0  0  0
    8.1663  -13.9888   17.9303 C   0  0  0  0  0  0  0  0  0  0  0  0
    9.4290  -13.8836   18.4044 N   0  0  0  0  0  0  0  0  0  0  0  0
   11.6108  -16.0192   22.3381 C   0  0  0  0  0  0  0  0  0  0  0  0
   12.3797  -15.0548   22.5785 O   0  0  0  0  0  0  0  0  0  0  0  0
   10.7403  -15.1152   29.2340 C   0  0  0  0  0  0  0  0  0  0  0  0
   11.3300  -14.8783   27.5549 S   0  0  0  0  0  0  0  0  0  0  0  0
   11.6865  -16.4708   26.7301 C   0  0  0  0  0  0  0  0  0  0  0  0
   11.3410  -16.3824   25.2675 C   0  0  0  0  0  0  0  0  0  0  0  0
   12.2808  -17.2226   24.4731 C   0  0  2  0  0  0  0  0  0  0  0  0
   11.8854  -17.2223   23.0441 N   0  0  0  0  0  0  0  0  0  0  0  0
   12.4498  -18.6056   24.9059 C   0  0  0  0  0  0  0  0  0  0  0  0
   13.0423  -18.8654   26.0131 O   0  0  0  0  0  0  0  0  0  0  0  0
   12.0161  -19.7191   24.2162 O   0  0  0  0  0  0  0  0  0  0  0  0
  2  1  1  1
  2 13  1  0
  2  3  1  0
  4  5  2  0
  4  3  1  0
  6  5  1  0
  7 12  2  0
  7  6  1  0
  8  7  1  0
  9 10  1  0
  9  8  2  0
 10 11  2  0
 11 12  1  0
 12  4  1  0
 13 14  2  0
 15 13  1  0
 15 16  1  0
 16 17  1  6
 18 17  1  0
 19 18  2  0
 20 21  1  0
 20 19  1  0
 21 22  2  0
 22 18  1  0
 23 24  2  0
 23 16  1  0
 25 26  1  0
 26 27  1  0
 27 28  1  0
 29 28  1  1
 29 30  1  0
 30 23  1  0
 31 29  1  0
 31 33  1  0
 32 31  2  0
M  END
$$$$
