WHM.pdb
     RDKit          3D

 33 35  0  0  1  0  0  0  0  0999 V2000
    6.6903  -17.1058   24.0034 N   0  0  0  0  0  0  0  0  0  0  0  0
    7.6878  -16.0468   23.8720 C   0  0  1  0  0  0  0  0  0  0  0  0
    8.0222  -15.5407   25.2828 C   0  0  0  0  0  0  0  0  0  0  0  0
    6.9287  -14.6342   25.7147 C   0  0  0  0  0  0  0  0  0  0  0  0
    5.8435  -14.9540   26.5304 C   0  0  0  0  0  0  0  0  0  0  0  0
    5.0740  -13.8645   26.6909 N   0  0  0  0  0  0  0  0  0  0  0  0
    5.5977  -12.8320   26.0189 C   0  0  0  0  0  0  0  0  0  0  0  0
    5.1936  -11.5230   25.8697 C   0  0  0  0  0  0  0  0  0  0  0  0
    5.9594  -10.6756   25.0969 C   0  0  0  0  0  0  0  0  0  0  0  0
    7.1172  -11.1198   24.4756 C   0  0  0  0  0  0  0  0  0  0  0  0
    7.4962  -12.4371   24.6441 C   0  0  0  0  0  0  0  0  0  0  0  0
    6.7591  -13.2988   25.4027 C   0  0  0  0  0  0  0  0  0  0  0  0
    8.8917  -16.5063   23.1717 C   0  0  0  0  0  0  0  0  0  0  0  0
    9.2546  -17.7081   23.3609 O   0  0  0  0  0  0  0  0  0  0  0  0
    9.6881  -15.7252   22.2993 N   0  0  0  0  0  0  0  0  0  0  0  0
   10.9288  -16.2532   21.7545 C   0  0  1  0  0  0  0  0  0  0  0  0
   11.2468  -15.4910   20.4890 C   0  0  0  0  0  0  0  0  0  0  0  0
   10.1438  -15.6056   19.5433 C   0  0  0  0  0  0  0  0  0  0  0  0
    9.8440  -16.6566   18.7200 C   0  0  0  0  0  0  0  0  0  0  0  0
    8.7454  -16.3731   17.9784 N   0  0  0  0  0  0  0  0  0  0  0  0
    8.3645  -15.1359   18.3476 C   0  0  0  0  0  0  0  0  0  0  0  0
    9.2063  -14.6636   19.2956 N   0  0  0  0  0  0  0  0  0  0  0  0
   12.0151  -16.2479   22.7521 C   0  0  0  0  0  0  0  0  0  0  0  0
   12.6248  -15.1880   23.0418 O   0  0  0  0  0  0  0  0  0  0  0  0
    9.5711  -15.1294   28.0290 C   0  0  0  0  0  0  0  0  0  0  0  0
    9.8866  -16.8925   27.9062 S   0  0  0  0  0  0  0  0  0  0  0  0
   11.4802  -17.2407   27.0801 C   0  0  0  0  0  0  0  0  0  0  0  0
   11.3328  -17.0868   25.5898 C   0  0  0  0  0  0  0  0  0  0  0  0
   12.6133  -17.4400   24.9147 C   0  0  2  0  0  0  0  0  0  0  0  0
   12.4398  -17.4160   23.4424 N   0  0  0  0  0  0  0  0  0  0  0  0
   13.2222  -18.7121   25.2880 C   0  0  0  0  0  0  0  0  0  0  0  0
   13.0572  -19.7461   24.5477 O   0  0  0  0  0  0  0  0  0  0  0  0
   13.9972  -18.9307   26.4085 O   0  0  0  0  0  0  0  0  0  0  0  0
  2  1  1  1
  2 13  1  0
  2  3  1  0
  4  5  2  0
  4  3  1  0
  6  5  1  0
  7 12  2  0
  7  6  1  0
  8  7  1  0
  9 10  1  0
  9  8  2  0
 10 11  2  0
 11 12  1  0
 12  4  1  0
 13 14  2  0
 15 13  1  0
 15 16  1  0
 16 17  1  6
 18 17  1  0
 19 18  2  0
 20 21  1  0
 20 19  1  0
 21 22  2  0
 22 18  1  0
 23 24  2  0
 23 16  1  0
 25 26  1  0
 26 27  1  0
 27 28  1  0
 29 28  1  1
 29 30  1  0
 30 23  1  0
 31 29  1  0
 31 33  1  0
 32 31  2  0
M  END
$$$$
