HRP.pdb
     RDKit          3D

 29 30  0  0  1  0  0  0  0  0999 V2000
    6.4362  -15.8630   19.5017 N   0  0  0  0  0  0  0  0  0  0  0  0
    7.5216  -15.4386   20.3642 C   0  0  1  0  0  0  0  0  0  0  0  0
    7.8518  -14.0050   20.0008 C   0  0  0  0  0  0  0  0  0  0  0  0
    8.3941  -13.8657   18.6468 C   0  0  0  0  0  0  0  0  0  0  0  0
    7.9250  -13.0310   17.6750 C   0  0  0  0  0  0  0  0  0  0  0  0
    8.7020  -13.2161   16.5984 N   0  0  0  0  0  0  0  0  0  0  0  0
    9.6277  -14.1351   16.8825 C   0  0  0  0  0  0  0  0  0  0  0  0
    9.4314  -14.5317   18.1490 N   0  0  0  0  0  0  0  0  0  0  0  0
    7.1114  -15.4316   21.7933 C   0  0  0  0  0  0  0  0  0  0  0  0
    6.1217  -14.7555   22.1731 O   0  0  0  0  0  0  0  0  0  0  0  0
    8.8574  -18.0729   29.0439 N   0  0  0  0  0  0  0  0  0  0  0  0
    9.4858  -18.8310   28.0457 C   0  0  0  0  0  0  0  0  0  0  0  0
   10.7509  -19.0884   28.1985 N   0  0  0  0  0  0  0  0  0  0  0  0
    8.7580  -19.2942   26.9159 N   0  0  0  0  0  0  0  0  0  0  0  0
    7.3715  -18.9028   26.8075 C   0  0  0  0  0  0  0  0  0  0  0  0
    7.2288  -17.4895   26.2858 C   0  0  0  0  0  0  0  0  0  0  0  0
    7.4276  -17.5283   24.8010 C   0  0  0  0  0  0  0  0  0  0  0  0
    7.4570  -16.1436   24.1844 C   0  0  2  0  0  0  0  0  0  0  0  0
    7.7970  -16.1734   22.8031 N   0  0  0  0  0  0  0  0  0  0  0  0
    8.1871  -15.1846   25.0342 C   0  0  0  0  0  0  0  0  0  0  0  0
    9.4607  -15.1589   24.7380 O   0  0  0  0  0  0  0  0  0  0  0  0
   11.2435  -19.6567   27.4820 N   0  0  0  0  0  0  0  0  0  0  0  0
    7.6916  -14.3689   26.0437 C   0  0  0  0  0  0  0  0  0  0  0  0
    6.3779  -14.1999   26.5526 C   0  0  0  0  0  0  0  0  0  0  0  0
    6.3254  -12.6996   26.8702 C   0  0  0  0  0  0  0  0  0  0  0  0
    7.7323  -12.2002   26.7949 C   0  0  2  0  0  0  0  0  0  0  0  0
    8.5382  -13.4613   26.8310 C   0  0  0  0  0  0  0  0  0  0  0  0
    8.7592  -13.9852   28.1950 O   0  0  0  0  0  0  0  0  0  0  0  0
    9.4167  -13.4143   29.0778 O   0  0  0  0  0  0  0  0  0  0  0  0
  2  1  1  6
  2  3  1  0
  4  3  1  0
  4  8  1  0
  5  6  1  0
  5  4  2  0
  6  7  1  0
  7  8  2  0
  9  2  1  0
 10  9  2  0
 12 11  1  0
 12 14  1  0
 13 12  2  0
 15 14  1  0
 16 15  1  0
 17 16  1  0
 18 17  1  1
 18 19  1  0
 19  9  1  0
 20 21  2  0
 20 18  1  0
 22 20  1  0
 23 22  1  0
 24 23  1  0
 25 24  1  0
 25 26  1  0
 26 22  1  0
 26 27  1  1
 28 27  2  0
 29 27  1  0
M  END
$$$$
