HRP.pdb
     RDKit          3D

 29 30  0  0  1  0  0  0  0  0999 V2000
    7.0719  -16.3577   19.3948 N   0  0  0  0  0  0  0  0  0  0  0  0
    7.7470  -15.3766   20.2215 C   0  0  1  0  0  0  0  0  0  0  0  0
    7.5987  -14.0324   19.5378 C   0  0  0  0  0  0  0  0  0  0  0  0
    8.2755  -13.9702   18.2398 C   0  0  0  0  0  0  0  0  0  0  0  0
    7.8144  -13.3381   17.1222 C   0  0  0  0  0  0  0  0  0  0  0  0
    8.7340  -13.5251   16.1650 N   0  0  0  0  0  0  0  0  0  0  0  0
    9.7389  -14.2496   16.6625 C   0  0  0  0  0  0  0  0  0  0  0  0
    9.4489  -14.5208   17.9440 N   0  0  0  0  0  0  0  0  0  0  0  0
    7.1007  -15.2494   21.5544 C   0  0  0  0  0  0  0  0  0  0  0  0
    5.8807  -14.9610   21.6507 O   0  0  0  0  0  0  0  0  0  0  0  0
    6.3502  -21.1206   27.2292 N   0  0  0  0  0  0  0  0  0  0  0  0
    7.6277  -20.5431   27.2121 C   0  0  0  0  0  0  0  0  0  0  0  0
    8.4519  -20.8883   28.1563 N   0  0  0  0  0  0  0  0  0  0  0  0
    7.9956  -19.6180   26.1974 N   0  0  0  0  0  0  0  0  0  0  0  0
    7.0337  -18.6013   25.8391 C   0  0  0  0  0  0  0  0  0  0  0  0
    7.5353  -17.7315   24.7069 C   0  0  0  0  0  0  0  0  0  0  0  0
    6.5486  -16.6203   24.5128 C   0  0  0  0  0  0  0  0  0  0  0  0
    7.2096  -15.3300   24.0695 C   0  0  2  0  0  0  0  0  0  0  0  0
    7.8050  -15.4415   22.7821 N   0  0  0  0  0  0  0  0  0  0  0  0
    8.0356  -14.7450   25.1421 C   0  0  0  0  0  0  0  0  0  0  0  0
    9.3073  -14.9782   24.9450 O   0  0  0  0  0  0  0  0  0  0  0  0
    9.4080  -20.4825   28.1690 N   0  0  0  0  0  0  0  0  0  0  0  0
    7.6255  -14.0264   26.2580 C   0  0  0  0  0  0  0  0  0  0  0  0
    6.3347  -13.7874   26.7969 C   0  0  0  0  0  0  0  0  0  0  0  0
    6.4433  -12.3479   27.3170 C   0  0  0  0  0  0  0  0  0  0  0  0
    7.8965  -11.9982   27.2982 C   0  0  2  0  0  0  0  0  0  0  0  0
    8.5607  -13.3321   27.1544 C   0  0  0  0  0  0  0  0  0  0  0  0
    8.7153  -14.0585   28.4319 O   0  0  0  0  0  0  0  0  0  0  0  0
    9.4231  -13.6869   29.3798 O   0  0  0  0  0  0  0  0  0  0  0  0
  2  1  1  6
  2  3  1  0
  4  3  1  0
  4  8  1  0
  5  6  1  0
  5  4  2  0
  6  7  1  0
  7  8  2  0
  9  2  1  0
 10  9  2  0
 12 11  1  0
 12 14  1  0
 13 12  2  0
 15 14  1  0
 16 15  1  0
 17 16  1  0
 18 17  1  1
 18 19  1  0
 19  9  1  0
 20 21  2  0
 20 18  1  0
 22 20  1  0
 23 22  1  0
 24 23  1  0
 25 24  1  0
 25 26  1  0
 26 22  1  0
 26 27  1  1
 28 27  2  0
 29 27  1  0
M  END
$$$$
