HRP.pdb
     RDKit          3D

 29 30  0  0  1  0  0  0  0  0999 V2000
    8.5471  -16.2533   19.9094 N   0  0  0  0  0  0  0  0  0  0  0  0
    8.3443  -14.9266   20.4579 C   0  0  1  0  0  0  0  0  0  0  0  0
    7.3736  -14.2051   19.5450 C   0  0  0  0  0  0  0  0  0  0  0  0
    7.8095  -14.1814   18.1464 C   0  0  0  0  0  0  0  0  0  0  0  0
    8.4695  -13.1605   17.5272 C   0  0  0  0  0  0  0  0  0  0  0  0
    8.6764  -13.5461   16.2601 N   0  0  0  0  0  0  0  0  0  0  0  0
    8.1646  -14.7670   16.0876 C   0  0  0  0  0  0  0  0  0  0  0  0
    7.6310  -15.1529   17.2565 N   0  0  0  0  0  0  0  0  0  0  0  0
    7.7051  -14.9830   21.7991 C   0  0  0  0  0  0  0  0  0  0  0  0
    6.5319  -14.5638   21.9685 O   0  0  0  0  0  0  0  0  0  0  0  0
   10.5301  -18.8798   23.0759 N   0  0  0  0  0  0  0  0  0  0  0  0
    9.6211  -19.1109   22.0337 C   0  0  0  0  0  0  0  0  0  0  0  0
   10.0787  -19.0537   20.8182 N   0  0  0  0  0  0  0  0  0  0  0  0
    8.2556  -19.3956   22.3077 N   0  0  0  0  0  0  0  0  0  0  0  0
    7.7664  -19.1083   23.6364 C   0  0  0  0  0  0  0  0  0  0  0  0
    6.9598  -17.8284   23.6706 C   0  0  0  0  0  0  0  0  0  0  0  0
    7.5393  -16.9516   24.7390 C   0  0  0  0  0  0  0  0  0  0  0  0
    7.7890  -15.5369   24.2547 C   0  0  2  0  0  0  0  0  0  0  0  0
    8.3647  -15.5038   22.9540 N   0  0  0  0  0  0  0  0  0  0  0  0
    8.4320  -14.7113   25.2939 C   0  0  0  0  0  0  0  0  0  0  0  0
    9.7307  -14.6817   25.1430 O   0  0  0  0  0  0  0  0  0  0  0  0
    9.4211  -19.1685   20.0223 N   0  0  0  0  0  0  0  0  0  0  0  0
    7.8377  -14.0162   26.3396 C   0  0  0  0  0  0  0  0  0  0  0  0
    6.4740  -13.7881   26.6585 C   0  0  0  0  0  0  0  0  0  0  0  0
    6.4890  -12.3599   27.2194 C   0  0  0  0  0  0  0  0  0  0  0  0
    7.9236  -12.0105   27.4526 C   0  0  1  0  0  0  0  0  0  0  0  0
    8.6066  -13.3414   27.3949 C   0  0  0  0  0  0  0  0  0  0  0  0
    8.5464  -14.0946   28.6648 O   0  0  0  0  0  0  0  0  0  0  0  0
    7.8542  -15.1048   28.8599 O   0  0  0  0  0  0  0  0  0  0  0  0
  2  1  1  6
  2  3  1  0
  4  3  1  0
  4  8  1  0
  5  6  1  0
  5  4  2  0
  6  7  1  0
  7  8  2  0
  9  2  1  0
 10  9  2  0
 12 11  1  0
 12 14  1  0
 13 12  2  0
 15 14  1  0
 16 15  1  0
 17 16  1  0
 18 17  1  1
 18 19  1  0
 19  9  1  0
 20 21  2  0
 20 18  1  0
 22 20  1  0
 23 22  1  0
 24 23  1  0
 25 24  1  0
 25 26  1  0
 26 22  1  0
 26 27  1  1
 28 27  2  0
 29 27  1  0
M  END
$$$$
