HRP.pdb
     RDKit          3D

 29 30  0  0  1  0  0  0  0  0999 V2000
    8.2095  -16.1076   19.7311 N   0  0  0  0  0  0  0  0  0  0  0  0
    8.1251  -14.8410   20.4315 C   0  0  1  0  0  0  0  0  0  0  0  0
    7.1954  -13.9471   19.6359 C   0  0  0  0  0  0  0  0  0  0  0  0
    7.6199  -13.7696   18.2449 C   0  0  0  0  0  0  0  0  0  0  0  0
    8.3532  -12.7288   17.7548 C   0  0  0  0  0  0  0  0  0  0  0  0
    8.5182  -12.9556   16.4439 N   0  0  0  0  0  0  0  0  0  0  0  0
    7.9100  -14.0991   16.1201 C   0  0  0  0  0  0  0  0  0  0  0  0
    7.3575  -14.5961   17.2371 N   0  0  0  0  0  0  0  0  0  0  0  0
    7.5127  -15.0017   21.7768 C   0  0  0  0  0  0  0  0  0  0  0  0
    6.4616  -14.3824   22.0811 O   0  0  0  0  0  0  0  0  0  0  0  0
    9.4004  -21.4640   27.1673 N   0  0  0  0  0  0  0  0  0  0  0  0
    8.1728  -20.8365   26.9125 C   0  0  0  0  0  0  0  0  0  0  0  0
    7.0957  -21.5494   27.0595 N   0  0  0  0  0  0  0  0  0  0  0  0
    8.1206  -19.4742   26.5099 N   0  0  0  0  0  0  0  0  0  0  0  0
    6.8191  -18.8543   26.4156 C   0  0  0  0  0  0  0  0  0  0  0  0
    6.9217  -17.3949   26.0288 C   0  0  0  0  0  0  0  0  0  0  0  0
    7.3991  -17.3309   24.6097 C   0  0  0  0  0  0  0  0  0  0  0  0
    7.5884  -15.9066   24.1262 C   0  0  2  0  0  0  0  0  0  0  0  0
    8.0638  -15.8485   22.7864 N   0  0  0  0  0  0  0  0  0  0  0  0
    8.2943  -15.0820   25.1246 C   0  0  0  0  0  0  0  0  0  0  0  0
    9.5900  -15.1329   24.9543 O   0  0  0  0  0  0  0  0  0  0  0  0
    7.1797  -22.5396   27.3620 N   0  0  0  0  0  0  0  0  0  0  0  0
    7.7578  -14.3161   26.1518 C   0  0  0  0  0  0  0  0  0  0  0  0
    6.4313  -14.2035   26.6430 C   0  0  0  0  0  0  0  0  0  0  0  0
    6.3281  -12.7170   27.0093 C   0  0  0  0  0  0  0  0  0  0  0  0
    7.7203  -12.1737   26.9753 C   0  0  2  0  0  0  0  0  0  0  0  0
    8.5634  -13.4108   26.9836 C   0  0  0  0  0  0  0  0  0  0  0  0
    8.7776  -13.9736   28.3330 O   0  0  0  0  0  0  0  0  0  0  0  0
    9.3899  -13.4071   29.2505 O   0  0  0  0  0  0  0  0  0  0  0  0
  2  1  1  6
  2  3  1  0
  4  3  1  0
  4  8  1  0
  5  6  1  0
  5  4  2  0
  6  7  1  0
  7  8  2  0
  9  2  1  0
 10  9  2  0
 12 11  1  0
 12 14  1  0
 13 12  2  0
 15 14  1  0
 16 15  1  0
 17 16  1  0
 18 17  1  1
 18 19  1  0
 19  9  1  0
 20 21  2  0
 20 18  1  0
 22 20  1  0
 23 22  1  0
 24 23  1  0
 25 24  1  0
 25 26  1  0
 26 22  1  0
 26 27  1  1
 28 27  2  0
 29 27  1  0
M  END
$$$$
