HRP.pdb
     RDKit          3D

 29 30  0  0  1  0  0  0  0  0999 V2000
    7.8565  -16.1354   19.5004 N   0  0  0  0  0  0  0  0  0  0  0  0
    8.3744  -15.0358   20.2908 C   0  0  1  0  0  0  0  0  0  0  0  0
    7.9383  -13.7510   19.6160 C   0  0  0  0  0  0  0  0  0  0  0  0
    8.2886  -13.7011   18.1942 C   0  0  0  0  0  0  0  0  0  0  0  0
    7.4588  -13.3382   17.1740 C   0  0  0  0  0  0  0  0  0  0  0  0
    8.1731  -13.4302   16.0434 N   0  0  0  0  0  0  0  0  0  0  0  0
    9.4093  -13.8367   16.3413 C   0  0  0  0  0  0  0  0  0  0  0  0
    9.4733  -14.0020   17.6712 N   0  0  0  0  0  0  0  0  0  0  0  0
    7.7851  -15.0206   21.6558 C   0  0  0  0  0  0  0  0  0  0  0  0
    7.0345  -14.0798   22.0199 O   0  0  0  0  0  0  0  0  0  0  0  0
    6.7259  -21.4694   27.3225 N   0  0  0  0  0  0  0  0  0  0  0  0
    7.4130  -20.4384   27.9790 C   0  0  0  0  0  0  0  0  0  0  0  0
    8.0200  -20.7376   29.0890 N   0  0  0  0  0  0  0  0  0  0  0  0
    7.4377  -19.1223   27.4424 N   0  0  0  0  0  0  0  0  0  0  0  0
    6.5569  -18.8358   26.3337 C   0  0  0  0  0  0  0  0  0  0  0  0
    6.6876  -17.4004   25.8725 C   0  0  0  0  0  0  0  0  0  0  0  0
    7.2090  -17.4176   24.4676 C   0  0  0  0  0  0  0  0  0  0  0  0
    7.5226  -16.0279   23.9494 C   0  0  2  0  0  0  0  0  0  0  0  0
    8.0265  -16.0473   22.6189 N   0  0  0  0  0  0  0  0  0  0  0  0
    8.2741  -15.2343   24.9396 C   0  0  0  0  0  0  0  0  0  0  0  0
    9.5616  -15.2907   24.7173 O   0  0  0  0  0  0  0  0  0  0  0  0
    8.5520  -20.0002   29.5913 N   0  0  0  0  0  0  0  0  0  0  0  0
    7.7847  -14.4906   26.0060 C   0  0  0  0  0  0  0  0  0  0  0  0
    6.4850  -14.4010   26.5685 C   0  0  0  0  0  0  0  0  0  0  0  0
    6.3856  -12.9216   26.9637 C   0  0  0  0  0  0  0  0  0  0  0  0
    7.7682  -12.3619   26.8648 C   0  0  2  0  0  0  0  0  0  0  0  0
    8.6236  -13.5891   26.8085 C   0  0  0  0  0  0  0  0  0  0  0  0
    8.9152  -14.1704   28.1354 O   0  0  0  0  0  0  0  0  0  0  0  0
    8.4870  -15.2601   28.5438 O   0  0  0  0  0  0  0  0  0  0  0  0
  2  1  1  6
  2  3  1  0
  4  3  1  0
  4  8  1  0
  5  6  1  0
  5  4  2  0
  6  7  1  0
  7  8  2  0
  9  2  1  0
 10  9  2  0
 12 11  1  0
 12 14  1  0
 13 12  2  0
 15 14  1  0
 16 15  1  0
 17 16  1  0
 18 17  1  1
 18 19  1  0
 19  9  1  0
 20 21  2  0
 20 18  1  0
 22 20  1  0
 23 22  1  0
 24 23  1  0
 25 24  1  0
 25 26  1  0
 26 22  1  0
 26 27  1  1
 28 27  2  0
 29 27  1  0
M  END
$$$$
