HRP.pdb
     RDKit          3D

 29 30  0  0  1  0  0  0  0  0999 V2000
    7.7840  -17.6463   19.4777 N   0  0  0  0  0  0  0  0  0  0  0  0
    8.2158  -16.3618   19.9931 C   0  0  1  0  0  0  0  0  0  0  0  0
    7.7104  -15.2998   19.0376 C   0  0  0  0  0  0  0  0  0  0  0  0
    8.1329  -13.9464   19.4071 C   0  0  0  0  0  0  0  0  0  0  0  0
    7.6268  -12.7819   18.9081 C   0  0  0  0  0  0  0  0  0  0  0  0
    8.2886  -11.7835   19.5099 N   0  0  0  0  0  0  0  0  0  0  0  0
    9.1802  -12.3013   20.3580 C   0  0  0  0  0  0  0  0  0  0  0  0
    9.0783  -13.6373   20.2892 N   0  0  0  0  0  0  0  0  0  0  0  0
    7.6020  -16.0708   21.3157 C   0  0  0  0  0  0  0  0  0  0  0  0
    6.5422  -15.3991   21.3971 O   0  0  0  0  0  0  0  0  0  0  0  0
    7.5955  -21.1378   27.7397 N   0  0  0  0  0  0  0  0  0  0  0  0
    8.1684  -19.9648   28.2512 C   0  0  0  0  0  0  0  0  0  0  0  0
    8.8088  -20.0553   29.3790 N   0  0  0  0  0  0  0  0  0  0  0  0
    8.0471  -18.7313   27.5552 N   0  0  0  0  0  0  0  0  0  0  0  0
    6.8374  -18.5072   26.7978 C   0  0  0  0  0  0  0  0  0  0  0  0
    6.8907  -17.2030   26.0322 C   0  0  0  0  0  0  0  0  0  0  0  0
    7.4174  -17.4995   24.6608 C   0  0  0  0  0  0  0  0  0  0  0  0
    7.6028  -16.2462   23.8284 C   0  0  2  0  0  0  0  0  0  0  0  0
    8.1614  -16.5236   22.5495 N   0  0  0  0  0  0  0  0  0  0  0  0
    8.2233  -15.1602   24.6099 C   0  0  0  0  0  0  0  0  0  0  0  0
    9.4935  -15.0341   24.3253 O   0  0  0  0  0  0  0  0  0  0  0  0
    9.2777  -19.2128   29.7655 N   0  0  0  0  0  0  0  0  0  0  0  0
    7.6350  -14.3230   25.5494 C   0  0  0  0  0  0  0  0  0  0  0  0
    6.2870  -14.1886   25.9720 C   0  0  0  0  0  0  0  0  0  0  0  0
    6.1547  -12.6794   26.2156 C   0  0  0  0  0  0  0  0  0  0  0  0
    7.5422  -12.1235   26.1997 C   0  0  2  0  0  0  0  0  0  0  0  0
    8.3948  -13.3458   26.3419 C   0  0  0  0  0  0  0  0  0  0  0  0
    8.5538  -13.7989   27.7394 O   0  0  0  0  0  0  0  0  0  0  0  0
    8.0388  -14.8201   28.2185 O   0  0  0  0  0  0  0  0  0  0  0  0
  2  1  1  6
  2  3  1  0
  4  3  1  0
  4  8  1  0
  5  6  1  0
  5  4  2  0
  6  7  1  0
  7  8  2  0
  9  2  1  0
 10  9  2  0
 12 11  1  0
 12 14  1  0
 13 12  2  0
 15 14  1  0
 16 15  1  0
 17 16  1  0
 18 17  1  1
 18 19  1  0
 19  9  1  0
 20 21  2  0
 20 18  1  0
 22 20  1  0
 23 22  1  0
 24 23  1  0
 25 24  1  0
 25 26  1  0
 26 22  1  0
 26 27  1  1
 28 27  2  0
 29 27  1  0
M  END
$$$$
