HRP.pdb
     RDKit          3D

 29 30  0  0  1  0  0  0  0  0999 V2000
    8.1368  -16.8048   19.6844 N   0  0  0  0  0  0  0  0  0  0  0  0
    8.5439  -15.6411   20.4474 C   0  0  1  0  0  0  0  0  0  0  0  0
    7.4899  -14.5729   20.2371 C   0  0  0  0  0  0  0  0  0  0  0  0
    7.7062  -13.7836   19.0218 C   0  0  0  0  0  0  0  0  0  0  0  0
    8.7405  -13.9267   18.1438 C   0  0  0  0  0  0  0  0  0  0  0  0
    8.5583  -13.0134   17.1796 N   0  0  0  0  0  0  0  0  0  0  0  0
    7.4482  -12.3196   17.4414 C   0  0  0  0  0  0  0  0  0  0  0  0
    6.9274  -12.8007   18.5804 N   0  0  0  0  0  0  0  0  0  0  0  0
    8.5732  -15.9285   21.9059 C   0  0  0  0  0  0  0  0  0  0  0  0
    7.7817  -16.7648   22.4108 O   0  0  0  0  0  0  0  0  0  0  0  0
   15.0076  -15.0753   21.5796 N   0  0  0  0  0  0  0  0  0  0  0  0
   14.4088  -16.1211   20.8629 C   0  0  0  0  0  0  0  0  0  0  0  0
   14.9379  -16.4411   19.7194 N   0  0  0  0  0  0  0  0  0  0  0  0
   13.2687  -16.7971   21.3766 N   0  0  0  0  0  0  0  0  0  0  0  0
   12.6477  -16.2542   22.5627 C   0  0  0  0  0  0  0  0  0  0  0  0
   11.4509  -17.0745   22.9925 C   0  0  0  0  0  0  0  0  0  0  0  0
   10.9658  -16.5248   24.2995 C   0  0  0  0  0  0  0  0  0  0  0  0
    9.6975  -15.7080   24.1490 C   0  0  2  0  0  0  0  0  0  0  0  0
    9.4792  -15.2898   22.8067 N   0  0  0  0  0  0  0  0  0  0  0  0
    9.5851  -14.6785   25.1989 C   0  0  0  0  0  0  0  0  0  0  0  0
   10.5791  -13.8304   25.1429 O   0  0  0  0  0  0  0  0  0  0  0  0
   14.5307  -17.2255   19.1734 N   0  0  0  0  0  0  0  0  0  0  0  0
    8.6019  -14.5338   26.1695 C   0  0  0  0  0  0  0  0  0  0  0  0
    7.4011  -15.2533   26.4022 C   0  0  0  0  0  0  0  0  0  0  0  0
    6.4354  -14.1603   26.8789 C   0  0  0  0  0  0  0  0  0  0  0  0
    7.2689  -12.9532   27.1666 C   0  0  1  0  0  0  0  0  0  0  0  0
    8.6574  -13.5101   27.2227 C   0  0  0  0  0  0  0  0  0  0  0  0
    9.0052  -14.1060   28.5294 O   0  0  0  0  0  0  0  0  0  0  0  0
    9.0890  -15.3222   28.7563 O   0  0  0  0  0  0  0  0  0  0  0  0
  2  1  1  6
  2  3  1  0
  4  3  1  0
  4  8  1  0
  5  6  1  0
  5  4  2  0
  6  7  1  0
  7  8  2  0
  9  2  1  0
 10  9  2  0
 12 11  1  0
 12 14  1  0
 13 12  2  0
 15 14  1  0
 16 15  1  0
 17 16  1  0
 18 17  1  6
 18 19  1  0
 19  9  1  0
 20 21  2  0
 20 18  1  0
 22 20  1  0
 23 22  1  0
 24 23  1  0
 25 24  1  0
 25 26  1  0
 26 22  1  0
 26 27  1  1
 28 27  2  0
 29 27  1  0
M  END
$$$$
