HRP.pdb
     RDKit          3D

 29 30  0  0  1  0  0  0  0  0999 V2000
    8.3691  -16.2291   19.4716 N   0  0  0  0  0  0  0  0  0  0  0  0
    8.1931  -14.9462   20.1236 C   0  0  1  0  0  0  0  0  0  0  0  0
    7.2164  -14.1453   19.2862 C   0  0  0  0  0  0  0  0  0  0  0  0
    7.6407  -13.9989   17.8915 C   0  0  0  0  0  0  0  0  0  0  0  0
    8.4199  -12.9981   17.3892 C   0  0  0  0  0  0  0  0  0  0  0  0
    8.5662  -13.2425   16.0792 N   0  0  0  0  0  0  0  0  0  0  0  0
    7.9023  -14.3581   15.7678 C   0  0  0  0  0  0  0  0  0  0  0  0
    7.3333  -14.8196   16.8918 N   0  0  0  0  0  0  0  0  0  0  0  0
    7.5762  -15.0979   21.4678 C   0  0  0  0  0  0  0  0  0  0  0  0
    6.3708  -14.7949   21.6582 O   0  0  0  0  0  0  0  0  0  0  0  0
    6.6602  -21.5335   26.7254 N   0  0  0  0  0  0  0  0  0  0  0  0
    6.9035  -20.5654   27.7101 C   0  0  0  0  0  0  0  0  0  0  0  0
    6.8571  -20.9508   28.9508 N   0  0  0  0  0  0  0  0  0  0  0  0
    7.1883  -19.2192   27.3537 N   0  0  0  0  0  0  0  0  0  0  0  0
    7.1266  -18.8711   25.9529 C   0  0  0  0  0  0  0  0  0  0  0  0
    7.3988  -17.3993   25.7300 C   0  0  0  0  0  0  0  0  0  0  0  0
    7.4113  -17.1557   24.2514 C   0  0  0  0  0  0  0  0  0  0  0  0
    7.7346  -15.7159   23.9044 C   0  0  2  0  0  0  0  0  0  0  0  0
    8.2938  -15.5853   22.6026 N   0  0  0  0  0  0  0  0  0  0  0  0
    8.4376  -15.0347   25.0076 C   0  0  0  0  0  0  0  0  0  0  0  0
    9.7299  -15.2226   24.9372 O   0  0  0  0  0  0  0  0  0  0  0  0
    6.9886  -20.2492   29.7055 N   0  0  0  0  0  0  0  0  0  0  0  0
    7.9011  -14.2722   26.0375 C   0  0  0  0  0  0  0  0  0  0  0  0
    6.5566  -14.0077   26.4060 C   0  0  0  0  0  0  0  0  0  0  0  0
    6.6136  -12.5497   26.8810 C   0  0  0  0  0  0  0  0  0  0  0  0
    8.0613  -12.2067   27.0260 C   0  0  2  0  0  0  0  0  0  0  0  0
    8.7265  -13.5478   27.0144 C   0  0  0  0  0  0  0  0  0  0  0  0
    8.7185  -14.2254   28.3276 O   0  0  0  0  0  0  0  0  0  0  0  0
    8.0536  -15.2352   28.6024 O   0  0  0  0  0  0  0  0  0  0  0  0
  2  1  1  6
  2  3  1  0
  4  3  1  0
  4  8  1  0
  5  6  1  0
  5  4  2  0
  6  7  1  0
  7  8  2  0
  9  2  1  0
 10  9  2  0
 12 11  1  0
 12 14  1  0
 13 12  2  0
 15 14  1  0
 16 15  1  0
 17 16  1  0
 18 17  1  1
 18 19  1  0
 19  9  1  0
 20 21  2  0
 20 18  1  0
 22 20  1  0
 23 22  1  0
 24 23  1  0
 25 24  1  0
 25 26  1  0
 26 22  1  0
 26 27  1  1
 28 27  2  0
 29 27  1  0
M  END
$$$$
