MTY.pdb
     RDKit          3D

 28 28  0  0  1  0  0  0  0  0999 V2000
   26.2257  -28.3161  -16.0334 C   0  0  0  0  0  0  0  0  0  0  0  0
   27.8139  -28.6115  -16.7701 S   0  0  0  0  0  0  0  0  0  0  0  0
   28.7506  -27.2201  -17.3018 C   0  0  0  0  0  0  0  0  0  0  0  0
   28.5881  -25.9191  -16.6264 C   0  0  0  0  0  0  0  0  0  0  0  0
   29.3529  -24.7525  -17.1580 C   0  0  2  0  0  0  0  0  0  0  0  0
   30.7761  -24.9553  -17.1298 N   0  0  0  0  0  0  0  0  0  0  0  0
   28.9537  -23.4958  -16.4256 C   0  0  0  0  0  0  0  0  0  0  0  0
   29.5628  -23.0952  -15.3941 O   0  0  0  0  0  0  0  0  0  0  0  0
   28.9364  -20.0210  -17.4429 C   0  0  0  0  0  0  0  0  0  0  0  0
   27.4760  -20.3398  -17.1707 C   0  0  1  0  0  0  0  0  0  0  0  0
   26.8237  -20.4673  -18.3705 O   0  0  0  0  0  0  0  0  0  0  0  0
   27.3618  -21.5722  -16.2925 C   0  0  2  0  0  0  0  0  0  0  0  0
   27.8495  -22.7521  -16.9333 N   0  0  0  0  0  0  0  0  0  0  0  0
   25.9272  -21.6913  -15.8976 C   0  0  0  0  0  0  0  0  0  0  0  0
   25.1458  -22.4877  -16.4855 O   0  0  0  0  0  0  0  0  0  0  0  0
   18.3059  -19.6704  -11.5990 O   0  0  0  0  0  0  0  0  0  0  0  0
   19.6209  -19.7404  -12.0588 C   0  0  0  0  0  0  0  0  0  0  0  0
   20.1018  -18.8758  -13.0187 C   0  0  0  0  0  0  0  0  0  0  0  0
   21.4235  -19.0032  -13.4297 C   0  0  0  0  0  0  0  0  0  0  0  0
   22.2714  -19.9592  -12.9161 C   0  0  0  0  0  0  0  0  0  0  0  0
   23.6348  -20.0700  -13.3652 C   0  0  0  0  0  0  0  0  0  0  0  0
   23.9184  -20.9572  -14.5294 C   0  0  2  0  0  0  0  0  0  0  0  0
   25.3556  -20.9239  -14.8457 N   0  0  0  0  0  0  0  0  0  0  0  0
   23.1204  -20.5483  -15.7075 C   0  0  0  0  0  0  0  0  0  0  0  0
   22.0159  -21.1355  -15.9218 O   0  0  0  0  0  0  0  0  0  0  0  0
   21.7540  -20.8085  -11.9552 C   0  0  0  0  0  0  0  0  0  0  0  0
   20.4562  -20.7033  -11.5336 C   0  0  0  0  0  0  0  0  0  0  0  0
   23.5323  -19.5537  -16.5781 O   0  0  0  0  0  0  0  0  0  0  0  0
  1  2  1  0
  2  3  1  0
  3  4  1  0
  4  5  1  0
  5  6  1  1
  7  5  1  0
  8  7  2  0
 10  9  1  6
 10 12  1  0
 11 10  1  0
 12 14  1  0
 12 13  1  6
 13  7  1  0
 14 23  1  0
 15 14  2  0
 16 17  1  0
 17 18  2  0
 17 27  1  0
 18 19  1  0
 19 20  2  0
 20 21  1  0
 22 21  1  1
 22 24  1  0
 23 22  1  0
 24 25  2  0
 24 28  1  0
 26 20  1  0
 27 26  2  0
M  END
$$$$
