MTY.pdb
     RDKit          3D

 28 28  0  0  1  0  0  0  0  0999 V2000
   27.9439  -25.4591  -20.5100 C   0  0  0  0  0  0  0  0  0  0  0  0
   27.8829  -24.0376  -19.4481 S   0  0  0  0  0  0  0  0  0  0  0  0
   29.0586  -23.9289  -18.1435 C   0  0  0  0  0  0  0  0  0  0  0  0
   29.0536  -22.7628  -17.2405 C   0  0  0  0  0  0  0  0  0  0  0  0
   28.1295  -21.6341  -17.5576 C   0  0  2  0  0  0  0  0  0  0  0  0
   28.5946  -20.8176  -18.6460 N   0  0  0  0  0  0  0  0  0  0  0  0
   27.8690  -20.8157  -16.3178 C   0  0  0  0  0  0  0  0  0  0  0  0
   28.6934  -19.9590  -15.8907 O   0  0  0  0  0  0  0  0  0  0  0  0
   25.3076  -18.3647  -15.6834 C   0  0  0  0  0  0  0  0  0  0  0  0
   25.0454  -19.4479  -14.6507 C   0  0  1  0  0  0  0  0  0  0  0  0
   23.9512  -20.1747  -15.0452 O   0  0  0  0  0  0  0  0  0  0  0  0
   26.2882  -20.2959  -14.4515 C   0  0  2  0  0  0  0  0  0  0  0  0
   26.6450  -21.0333  -15.6218 N   0  0  0  0  0  0  0  0  0  0  0  0
   26.0246  -21.1820  -13.2795 C   0  0  0  0  0  0  0  0  0  0  0  0
   25.6662  -22.3821  -13.4280 O   0  0  0  0  0  0  0  0  0  0  0  0
   28.5889  -18.1423   -6.1006 O   0  0  0  0  0  0  0  0  0  0  0  0
   28.1149  -19.0589   -7.0390 C   0  0  0  0  0  0  0  0  0  0  0  0
   26.7738  -19.1611   -7.3416 C   0  0  0  0  0  0  0  0  0  0  0  0
   26.3726  -20.0972   -8.2876 C   0  0  0  0  0  0  0  0  0  0  0  0
   27.2616  -20.9266   -8.9343 C   0  0  0  0  0  0  0  0  0  0  0  0
   26.8155  -21.8902   -9.9064 C   0  0  0  0  0  0  0  0  0  0  0  0
   25.6720  -21.5178  -10.7877 C   0  0  2  0  0  0  0  0  0  0  0  0
   26.1588  -20.7360  -11.9360 N   0  0  0  0  0  0  0  0  0  0  0  0
   24.6563  -20.7494  -10.0328 C   0  0  0  0  0  0  0  0  0  0  0  0
   24.5463  -19.5060  -10.2623 O   0  0  0  0  0  0  0  0  0  0  0  0
   28.5984  -20.7955   -8.6050 C   0  0  0  0  0  0  0  0  0  0  0  0
   29.0187  -19.8814   -7.6771 C   0  0  0  0  0  0  0  0  0  0  0  0
   23.8260  -21.3348   -9.0921 O   0  0  0  0  0  0  0  0  0  0  0  0
  1  2  1  0
  2  3  1  0
  3  4  1  0
  4  5  1  0
  5  6  1  6
  7  5  1  0
  8  7  2  0
 10  9  1  6
 10 12  1  0
 11 10  1  0
 12 14  1  0
 12 13  1  6
 13  7  1  0
 14 23  1  0
 15 14  2  0
 16 17  1  0
 17 18  2  0
 17 27  1  0
 18 19  1  0
 19 20  2  0
 20 21  1  0
 22 21  1  1
 22 24  1  0
 23 22  1  0
 24 25  2  0
 24 28  1  0
 26 20  1  0
 27 26  2  0
M  END
$$$$
