MTY.pdb
     RDKit          3D

 28 28  0  0  1  0  0  0  0  0999 V2000
   25.6350  -17.0492  -24.3239 C   0  0  0  0  0  0  0  0  0  0  0  0
   26.6207  -16.6479  -22.9028 S   0  0  0  0  0  0  0  0  0  0  0  0
   25.9166  -16.9002  -21.3101 C   0  0  0  0  0  0  0  0  0  0  0  0
   24.4678  -17.1398  -21.1729 C   0  0  0  0  0  0  0  0  0  0  0  0
   23.9152  -17.3292  -19.7991 C   0  0  2  0  0  0  0  0  0  0  0  0
   24.6778  -18.2596  -19.0115 N   0  0  0  0  0  0  0  0  0  0  0  0
   22.4616  -17.7240  -19.8768 C   0  0  0  0  0  0  0  0  0  0  0  0
   21.6362  -17.1134  -20.6128 O   0  0  0  0  0  0  0  0  0  0  0  0
   21.2057  -21.4814  -20.2368 C   0  0  0  0  0  0  0  0  0  0  0  0
   20.6102  -20.8256  -19.0024 C   0  0  1  0  0  0  0  0  0  0  0  0
   21.2518  -21.3145  -17.8930 O   0  0  0  0  0  0  0  0  0  0  0  0
   20.6863  -19.3146  -19.1215 C   0  0  2  0  0  0  0  0  0  0  0  0
   22.0282  -18.8262  -19.0847 N   0  0  0  0  0  0  0  0  0  0  0  0
   19.8458  -18.7508  -18.0243 C   0  0  0  0  0  0  0  0  0  0  0  0
   20.3568  -18.1113  -17.0648 O   0  0  0  0  0  0  0  0  0  0  0  0
   14.1677  -14.8320  -21.0601 O   0  0  0  0  0  0  0  0  0  0  0  0
   14.9659  -15.3760  -20.0540 C   0  0  0  0  0  0  0  0  0  0  0  0
   14.7146  -16.6224  -19.5215 C   0  0  0  0  0  0  0  0  0  0  0  0
   15.5521  -17.1020  -18.5211 C   0  0  0  0  0  0  0  0  0  0  0  0
   16.6226  -16.3810  -18.0406 C   0  0  0  0  0  0  0  0  0  0  0  0
   17.4698  -16.9021  -16.9998 C   0  0  0  0  0  0  0  0  0  0  0  0
   17.6073  -18.3822  -16.8844 C   0  0  2  0  0  0  0  0  0  0  0  0
   18.4317  -18.8963  -17.9901 N   0  0  0  0  0  0  0  0  0  0  0  0
   16.2781  -19.0343  -16.8844 C   0  0  0  0  0  0  0  0  0  0  0  0
   15.9601  -19.7569  -17.8781 O   0  0  0  0  0  0  0  0  0  0  0  0
   16.8436  -15.1351  -18.5986 C   0  0  0  0  0  0  0  0  0  0  0  0
   16.0336  -14.6407  -19.5849 C   0  0  0  0  0  0  0  0  0  0  0  0
   15.3752  -18.8864  -15.8452 O   0  0  0  0  0  0  0  0  0  0  0  0
  1  2  1  0
  2  3  1  0
  3  4  1  0
  4  5  1  0
  5  6  1  6
  7  5  1  0
  8  7  2  0
 10  9  1  6
 10 12  1  0
 11 10  1  0
 12 14  1  0
 12 13  1  1
 13  7  1  0
 14 23  1  0
 15 14  2  0
 16 17  1  0
 17 18  2  0
 17 27  1  0
 18 19  1  0
 19 20  2  0
 20 21  1  0
 22 21  1  6
 22 24  1  0
 23 22  1  0
 24 25  2  0
 24 28  1  0
 26 20  1  0
 27 26  2  0
M  END
$$$$
