MTY.pdb
     RDKit          3D

 28 28  0  0  1  0  0  0  0  0999 V2000
   27.4929  -21.1367  -22.4953 C   0  0  0  0  0  0  0  0  0  0  0  0
   29.0258  -22.0011  -22.2601 S   0  0  0  0  0  0  0  0  0  0  0  0
   29.4984  -22.4144  -20.6164 C   0  0  0  0  0  0  0  0  0  0  0  0
   28.5971  -22.1080  -19.4899 C   0  0  0  0  0  0  0  0  0  0  0  0
   29.1067  -22.3276  -18.1041 C   0  0  2  0  0  0  0  0  0  0  0  0
   29.7165  -23.6180  -17.9289 N   0  0  0  0  0  0  0  0  0  0  0  0
   28.0025  -22.0919  -17.1041 C   0  0  0  0  0  0  0  0  0  0  0  0
   27.4946  -23.0303  -16.4279 O   0  0  0  0  0  0  0  0  0  0  0  0
   28.0731  -19.7299  -14.1497 C   0  0  0  0  0  0  0  0  0  0  0  0
   26.9475  -19.2797  -15.0656 C   0  0  1  0  0  0  0  0  0  0  0  0
   27.3563  -18.1611  -15.7461 O   0  0  0  0  0  0  0  0  0  0  0  0
   26.5265  -20.4163  -15.9789 C   0  0  2  0  0  0  0  0  0  0  0  0
   27.5332  -20.7575  -16.9333 N   0  0  0  0  0  0  0  0  0  0  0  0
   25.2470  -20.0009  -16.6258 C   0  0  0  0  0  0  0  0  0  0  0  0
   25.2161  -19.5780  -17.8137 O   0  0  0  0  0  0  0  0  0  0  0  0
   20.2938  -19.5692  -10.5800 O   0  0  0  0  0  0  0  0  0  0  0  0
   20.6319  -19.7833  -11.9162 C   0  0  0  0  0  0  0  0  0  0  0  0
   21.4137  -20.8498  -12.3058 C   0  0  0  0  0  0  0  0  0  0  0  0
   21.7108  -21.0016  -13.6552 C   0  0  0  0  0  0  0  0  0  0  0  0
   21.2556  -20.1287  -14.6181 C   0  0  0  0  0  0  0  0  0  0  0  0
   21.5841  -20.3091  -16.0081 C   0  0  0  0  0  0  0  0  0  0  0  0
   22.7484  -19.5560  -16.5558 C   0  0  2  0  0  0  0  0  0  0  0  0
   23.9954  -20.0543  -15.9531 N   0  0  0  0  0  0  0  0  0  0  0  0
   22.5984  -18.1042  -16.3070 C   0  0  0  0  0  0  0  0  0  0  0  0
   23.3200  -17.5673  -15.4116 O   0  0  0  0  0  0  0  0  0  0  0  0
   20.4743  -19.0710  -14.1898 C   0  0  0  0  0  0  0  0  0  0  0  0
   20.1674  -18.8997  -12.8671 C   0  0  0  0  0  0  0  0  0  0  0  0
   21.7056  -17.3153  -17.0124 O   0  0  0  0  0  0  0  0  0  0  0  0
  1  2  1  0
  2  3  1  0
  3  4  1  0
  4  5  1  0
  5  6  1  6
  7  5  1  0
  8  7  2  0
 10  9  1  6
 10 12  1  0
 11 10  1  0
 12 14  1  0
 12 13  1  6
 13  7  1  0
 14 23  1  0
 15 14  2  0
 16 17  1  0
 17 18  2  0
 17 27  1  0
 18 19  1  0
 19 20  2  0
 20 21  1  0
 22 21  1  1
 22 24  1  0
 23 22  1  0
 24 25  2  0
 24 28  1  0
 26 20  1  0
 27 26  2  0
M  END
$$$$
