MTY.pdb
     RDKit          3D

 28 28  0  0  1  0  0  0  0  0999 V2000
   19.6537  -14.4998  -18.8042 C   0  0  0  0  0  0  0  0  0  0  0  0
   19.9227  -14.6385  -20.5537 S   0  0  0  0  0  0  0  0  0  0  0  0
   21.5787  -14.5653  -21.1441 C   0  0  0  0  0  0  0  0  0  0  0  0
   22.4647  -13.4641  -20.7227 C   0  0  0  0  0  0  0  0  0  0  0  0
   23.8521  -13.4306  -21.2727 C   0  0  2  0  0  0  0  0  0  0  0  0
   24.5551  -14.6725  -21.0966 N   0  0  0  0  0  0  0  0  0  0  0  0
   24.6137  -12.2698  -20.6833 C   0  0  0  0  0  0  0  0  0  0  0  0
   25.2342  -12.3587  -19.5866 O   0  0  0  0  0  0  0  0  0  0  0  0
   24.5673   -8.5452  -22.9064 C   0  0  0  0  0  0  0  0  0  0  0  0
   25.7618   -8.9765  -22.0723 C   0  0  1  0  0  0  0  0  0  0  0  0
   26.4220   -7.8552  -21.6386 O   0  0  0  0  0  0  0  0  0  0  0  0
   25.3130   -9.8830  -20.9409 C   0  0  2  0  0  0  0  0  0  0  0  0
   24.6194  -11.0420  -21.4061 N   0  0  0  0  0  0  0  0  0  0  0  0
   24.4789   -9.0511  -20.0242 C   0  0  0  0  0  0  0  0  0  0  0  0
   23.2303   -8.9551  -20.1741 O   0  0  0  0  0  0  0  0  0  0  0  0
   21.1513   -5.8553  -12.5802 O   0  0  0  0  0  0  0  0  0  0  0  0
   22.0071   -6.3037  -13.5861 C   0  0  0  0  0  0  0  0  0  0  0  0
   22.7838   -5.4333  -14.3207 C   0  0  0  0  0  0  0  0  0  0  0  0
   23.6143   -5.9507  -15.3079 C   0  0  0  0  0  0  0  0  0  0  0  0
   23.6918   -7.2982  -15.5814 C   0  0  0  0  0  0  0  0  0  0  0  0
   24.5582   -7.8042  -16.6139 C   0  0  0  0  0  0  0  0  0  0  0  0
   24.2093   -7.5012  -18.0314 C   0  0  2  0  0  0  0  0  0  0  0  0
   25.0313   -8.3217  -18.9357 N   0  0  0  0  0  0  0  0  0  0  0  0
   24.4000   -6.0621  -18.3227 C   0  0  0  0  0  0  0  0  0  0  0  0
   25.5187   -5.6832  -18.7870 O   0  0  0  0  0  0  0  0  0  0  0  0
   22.8983   -8.1406  -14.8244 C   0  0  0  0  0  0  0  0  0  0  0  0
   22.0724   -7.6560  -13.8466 C   0  0  0  0  0  0  0  0  0  0  0  0
   23.4076   -5.1205  -18.1094 O   0  0  0  0  0  0  0  0  0  0  0  0
  1  2  1  0
  2  3  1  0
  3  4  1  0
  4  5  1  0
  5  6  1  1
  7  5  1  0
  8  7  2  0
 10  9  1  1
 10 12  1  0
 11 10  1  0
 12 14  1  0
 12 13  1  6
 13  7  1  0
 14 23  1  0
 15 14  2  0
 16 17  1  0
 17 18  2  0
 17 27  1  0
 18 19  1  0
 19 20  2  0
 20 21  1  0
 22 21  1  1
 22 24  1  0
 23 22  1  0
 24 25  2  0
 24 28  1  0
 26 20  1  0
 27 26  2  0
M  END
$$$$
