MTY.pdb
     RDKit          3D

 28 28  0  0  1  0  0  0  0  0999 V2000
   26.3212  -17.4778  -15.1966 C   0  0  0  0  0  0  0  0  0  0  0  0
   26.2825  -15.7368  -15.5427 S   0  0  0  0  0  0  0  0  0  0  0  0
   27.7771  -14.8252  -15.3662 C   0  0  0  0  0  0  0  0  0  0  0  0
   27.7971  -13.3781  -15.6505 C   0  0  0  0  0  0  0  0  0  0  0  0
   26.7598  -12.8303  -16.5738 C   0  0  2  0  0  0  0  0  0  0  0  0
   26.7314  -13.5001  -17.8458 N   0  0  0  0  0  0  0  0  0  0  0  0
   26.9425  -11.3415  -16.7311 C   0  0  0  0  0  0  0  0  0  0  0  0
   27.0497  -10.5674  -15.7385 O   0  0  0  0  0  0  0  0  0  0  0  0
   27.6396   -7.5891  -19.9026 C   0  0  0  0  0  0  0  0  0  0  0  0
   27.4697   -9.0892  -19.7314 C   0  0  1  0  0  0  0  0  0  0  0  0
   28.6431   -9.7066  -20.0826 O   0  0  0  0  0  0  0  0  0  0  0  0
   27.0240   -9.4096  -18.3165 C   0  0  2  0  0  0  0  0  0  0  0  0
   26.9935  -10.8134  -18.0534 N   0  0  0  0  0  0  0  0  0  0  0  0
   25.6905   -8.7664  -18.1264 C   0  0  0  0  0  0  0  0  0  0  0  0
   24.6871   -9.1163  -18.8057 O   0  0  0  0  0  0  0  0  0  0  0  0
   19.1396   -4.2306  -14.0845 O   0  0  0  0  0  0  0  0  0  0  0  0
   20.2965   -4.9179  -14.4511 C   0  0  0  0  0  0  0  0  0  0  0  0
   20.2854   -6.2714  -14.7125 C   0  0  0  0  0  0  0  0  0  0  0  0
   21.4762   -6.8913  -15.0731 C   0  0  0  0  0  0  0  0  0  0  0  0
   22.6666   -6.2069  -15.1791 C   0  0  0  0  0  0  0  0  0  0  0  0
   23.8854   -6.8773  -15.5501 C   0  0  0  0  0  0  0  0  0  0  0  0
   24.1565   -7.0849  -17.0014 C   0  0  2  0  0  0  0  0  0  0  0  0
   25.4676   -7.7301  -17.1785 N   0  0  0  0  0  0  0  0  0  0  0  0
   24.1106   -5.7986  -17.7330 C   0  0  0  0  0  0  0  0  0  0  0  0
   25.1975   -5.1699  -17.9179 O   0  0  0  0  0  0  0  0  0  0  0  0
   22.6390   -4.8508  -14.9094 C   0  0  0  0  0  0  0  0  0  0  0  0
   21.4795   -4.2172  -14.5527 C   0  0  0  0  0  0  0  0  0  0  0  0
   22.9320   -5.2604  -18.2213 O   0  0  0  0  0  0  0  0  0  0  0  0
  1  2  1  0
  2  3  1  0
  3  4  1  0
  4  5  1  0
  5  6  1  6
  7  5  1  0
  8  7  2  0
 10  9  1  1
 10 12  1  0
 11 10  1  0
 12 14  1  0
 12 13  1  6
 13  7  1  0
 14 23  1  0
 15 14  2  0
 16 17  1  0
 17 18  2  0
 17 27  1  0
 18 19  1  0
 19 20  2  0
 20 21  1  0
 22 21  1  1
 22 24  1  0
 23 22  1  0
 24 25  2  0
 24 28  1  0
 26 20  1  0
 27 26  2  0
M  END
$$$$
