WSN.pdb
     RDKit          3D

 29 30  0  0  1  0  0  0  0  0999 V2000
   18.2125  -11.1217  -15.7366 N   0  0  0  0  0  0  0  0  0  0  0  0
   18.7474  -10.1045  -16.6216 C   0  0  1  0  0  0  0  0  0  0  0  0
   17.9500  -10.0365  -17.9046 C   0  0  0  0  0  0  0  0  0  0  0  0
   17.5270  -11.3380  -18.4209 C   0  0  0  0  0  0  0  0  0  0  0  0
   18.3586  -12.4030  -18.6950 C   0  0  0  0  0  0  0  0  0  0  0  0
   17.6354  -13.4269  -19.1479 N   0  0  0  0  0  0  0  0  0  0  0  0
   16.3405  -13.1123  -19.1974 C   0  0  0  0  0  0  0  0  0  0  0  0
   15.2257  -13.8278  -19.5890 C   0  0  0  0  0  0  0  0  0  0  0  0
   14.0098  -13.1833  -19.5113 C   0  0  0  0  0  0  0  0  0  0  0  0
   13.9155  -11.8641  -19.0555 C   0  0  0  0  0  0  0  0  0  0  0  0
   15.0442  -11.1702  -18.6697 C   0  0  0  0  0  0  0  0  0  0  0  0
   16.2514  -11.8026  -18.7443 C   0  0  0  0  0  0  0  0  0  0  0  0
   18.7850   -8.7889  -15.9396 C   0  0  0  0  0  0  0  0  0  0  0  0
   17.7192   -8.3372  -15.4666 O   0  0  0  0  0  0  0  0  0  0  0  0
   21.9362   -7.1950  -13.7191 O   0  0  0  0  0  0  0  0  0  0  0  0
   21.5417   -6.5413  -14.8571 C   0  0  0  0  0  0  0  0  0  0  0  0
   20.0557   -6.7396  -15.1575 C   0  0  2  0  0  0  0  0  0  0  0  0
   19.9635   -8.0327  -15.8052 N   0  0  0  0  0  0  0  0  0  0  0  0
   19.6401   -5.6557  -16.0608 C   0  0  0  0  0  0  0  0  0  0  0  0
   19.4553   -5.9398  -17.2934 O   0  0  0  0  0  0  0  0  0  0  0  0
   17.9495   -1.4530  -18.3044 N   0  0  0  0  0  0  0  0  0  0  0  0
   17.0413   -2.4862  -17.9176 C   0  0  0  0  0  0  0  0  0  0  0  0
   15.8569   -2.4999  -18.2905 O   0  0  0  0  0  0  0  0  0  0  0  0
   17.5368   -3.5732  -17.0418 C   0  0  0  0  0  0  0  0  0  0  0  0
   18.9636   -3.2929  -16.6042 C   0  0  2  0  0  0  0  0  0  0  0  0
   19.4240   -4.3147  -15.6848 N   0  0  0  0  0  0  0  0  0  0  0  0
   18.9633   -1.9954  -15.8941 C   0  0  0  0  0  0  0  0  0  0  0  0
   19.2990   -1.9349  -14.5366 O   0  0  0  0  0  0  0  0  0  0  0  0
   18.6634   -0.9056  -16.4804 O   0  0  0  0  0  0  0  0  0  0  0  0
  2  1  1  1
  2  3  1  0
  2 13  1  0
  3  4  1  0
  4 12  1  0
  5  4  2  0
  5  6  1  0
  6  7  1  0
  7  8  1  0
  8  9  2  0
 10  9  1  0
 11 10  2  0
 12  7  2  0
 12 11  1  0
 13 18  1  0
 13 14  2  0
 15 16  1  0
 17 16  1  6
 18 17  1  0
 19 17  1  0
 19 26  1  0
 20 19  2  0
 22 23  2  0
 22 21  1  0
 24 22  1  0
 25 27  1  0
 25 24  1  1
 25 26  1  0
 27 28  1  0
 29 27  2  0
M  END
$$$$
