WSN.pdb
     RDKit          3D

 29 30  0  0  1  0  0  0  0  0999 V2000
   27.4648  -19.6752  -11.5301 N   0  0  0  0  0  0  0  0  0  0  0  0
   26.7203  -20.9199  -11.5527 C   0  0  1  0  0  0  0  0  0  0  0  0
   26.0364  -21.1601  -10.2257 C   0  0  0  0  0  0  0  0  0  0  0  0
   26.6756  -20.4967   -9.0895 C   0  0  0  0  0  0  0  0  0  0  0  0
   26.0909  -19.5454   -8.2809 C   0  0  0  0  0  0  0  0  0  0  0  0
   26.9600  -19.1611   -7.3462 N   0  0  0  0  0  0  0  0  0  0  0  0
   28.1190  -19.8076   -7.4768 C   0  0  0  0  0  0  0  0  0  0  0  0
   29.2988  -19.7519   -6.7606 C   0  0  0  0  0  0  0  0  0  0  0  0
   30.3223  -20.5761   -7.1763 C   0  0  0  0  0  0  0  0  0  0  0  0
   30.1671  -21.4285   -8.2746 C   0  0  0  0  0  0  0  0  0  0  0  0
   28.9782  -21.4661   -8.9741 C   0  0  0  0  0  0  0  0  0  0  0  0
   27.9606  -20.6523   -8.5677 C   0  0  0  0  0  0  0  0  0  0  0  0
   25.7461  -20.9233  -12.6700 C   0  0  0  0  0  0  0  0  0  0  0  0
   25.2804  -19.8274  -13.0519 O   0  0  0  0  0  0  0  0  0  0  0  0
   23.8741  -24.4280  -13.6650 O   0  0  0  0  0  0  0  0  0  0  0  0
   24.2334  -23.6503  -14.7346 C   0  0  0  0  0  0  0  0  0  0  0  0
   24.3370  -22.1692  -14.3694 C   0  0  2  0  0  0  0  0  0  0  0  0
   25.3264  -22.1020  -13.3127 N   0  0  0  0  0  0  0  0  0  0  0  0
   23.0133  -21.7387  -13.8938 C   0  0  0  0  0  0  0  0  0  0  0  0
   22.7634  -21.8380  -12.6442 O   0  0  0  0  0  0  0  0  0  0  0  0
   19.2455  -18.2692  -12.5450 N   0  0  0  0  0  0  0  0  0  0  0  0
   19.3342  -18.6973  -13.9054 C   0  0  0  0  0  0  0  0  0  0  0  0
   18.3627  -18.6534  -14.6776 O   0  0  0  0  0  0  0  0  0  0  0  0
   20.6317  -19.2099  -14.4033 C   0  0  0  0  0  0  0  0  0  0  0  0
   20.7343  -20.7071  -14.1723 C   0  0  2  0  0  0  0  0  0  0  0  0
   21.9824  -21.2196  -14.7025 N   0  0  0  0  0  0  0  0  0  0  0  0
   19.6206  -21.3469  -14.9060 C   0  0  0  0  0  0  0  0  0  0  0  0
   18.4182  -21.6352  -14.2502 O   0  0  0  0  0  0  0  0  0  0  0  0
   19.7128  -21.6532  -16.1385 O   0  0  0  0  0  0  0  0  0  0  0  0
  2  1  1  1
  2  3  1  0
  2 13  1  0
  3  4  1  0
  4 12  1  0
  5  4  2  0
  5  6  1  0
  6  7  1  0
  7  8  1  0
  8  9  2  0
 10  9  1  0
 11 10  2  0
 12  7  2  0
 12 11  1  0
 13 18  1  0
 13 14  2  0
 15 16  1  0
 17 16  1  1
 18 17  1  0
 19 17  1  0
 19 26  1  0
 20 19  2  0
 22 23  2  0
 22 21  1  0
 24 22  1  0
 25 27  1  0
 25 24  1  6
 25 26  1  0
 27 28  1  0
 29 27  2  0
M  END
$$$$
