WSN.pdb
     RDKit          3D

 29 30  0  0  1  0  0  0  0  0999 V2000
   18.7261  -29.3637  -12.1952 N   0  0  0  0  0  0  0  0  0  0  0  0
   20.0947  -29.3762  -11.7146 C   0  0  1  0  0  0  0  0  0  0  0  0
   20.3091  -28.2964  -10.6781 C   0  0  0  0  0  0  0  0  0  0  0  0
   20.0527  -26.9393  -11.1597 C   0  0  0  0  0  0  0  0  0  0  0  0
   19.1385  -26.0560  -10.6259 C   0  0  0  0  0  0  0  0  0  0  0  0
   19.1722  -24.9130  -11.3107 N   0  0  0  0  0  0  0  0  0  0  0  0
   20.0711  -24.9716  -12.2940 C   0  0  0  0  0  0  0  0  0  0  0  0
   20.4604  -24.0553  -13.2516 C   0  0  0  0  0  0  0  0  0  0  0  0
   21.4410  -24.4524  -14.1350 C   0  0  0  0  0  0  0  0  0  0  0  0
   22.0126  -25.7270  -14.0601 C   0  0  0  0  0  0  0  0  0  0  0  0
   21.6066  -26.6248  -13.0939 C   0  0  0  0  0  0  0  0  0  0  0  0
   20.6358  -26.2379  -12.2160 C   0  0  0  0  0  0  0  0  0  0  0  0
   20.4466  -30.7137  -11.1809 C   0  0  0  0  0  0  0  0  0  0  0  0
   19.6959  -31.2233  -10.3204 O   0  0  0  0  0  0  0  0  0  0  0  0
   24.3019  -32.4477  -11.6829 O   0  0  0  0  0  0  0  0  0  0  0  0
   23.1639  -33.1519  -11.9782 C   0  0  0  0  0  0  0  0  0  0  0  0
   21.9775  -32.7328  -11.1095 C   0  0  2  0  0  0  0  0  0  0  0  0
   21.5840  -31.4272  -11.6000 N   0  0  0  0  0  0  0  0  0  0  0  0
   22.4519  -32.6635   -9.7190 C   0  0  0  0  0  0  0  0  0  0  0  0
   22.9865  -31.5726   -9.3213 O   0  0  0  0  0  0  0  0  0  0  0  0
   19.3353  -33.9343   -6.3588 N   0  0  0  0  0  0  0  0  0  0  0  0
   20.6347  -33.3456   -6.2753 C   0  0  0  0  0  0  0  0  0  0  0  0
   20.7996  -32.1336   -6.0615 O   0  0  0  0  0  0  0  0  0  0  0  0
   21.8194  -34.2170   -6.4517 C   0  0  0  0  0  0  0  0  0  0  0  0
   22.8150  -33.5730   -7.4002 C   0  0  2  0  0  0  0  0  0  0  0  0
   22.3688  -33.7050   -8.7731 N   0  0  0  0  0  0  0  0  0  0  0  0
   24.0969  -34.2972   -7.2571 C   0  0  0  0  0  0  0  0  0  0  0  0
   24.6826  -34.9190   -8.3658 O   0  0  0  0  0  0  0  0  0  0  0  0
   24.7037  -34.3800   -6.1407 O   0  0  0  0  0  0  0  0  0  0  0  0
  2  1  1  1
  2  3  1  0
  2 13  1  0
  3  4  1  0
  4 12  1  0
  5  4  2  0
  5  6  1  0
  6  7  1  0
  7  8  1  0
  8  9  2  0
 10  9  1  0
 11 10  2  0
 12  7  2  0
 12 11  1  0
 13 18  1  0
 13 14  2  0
 15 16  1  0
 17 16  1  6
 18 17  1  0
 19 17  1  0
 19 26  1  0
 20 19  2  0
 22 23  2  0
 22 21  1  0
 24 22  1  0
 25 27  1  0
 25 24  1  1
 25 26  1  0
 27 28  1  0
 29 27  2  0
M  END
$$$$
