WSN.pdb
     RDKit          3D

 29 30  0  0  1  0  0  0  0  0999 V2000
   12.1569  -13.2968  -16.8087 N   0  0  0  0  0  0  0  0  0  0  0  0
   12.4920  -14.1807  -15.7084 C   0  0  1  0  0  0  0  0  0  0  0  0
   13.7954  -13.7652  -15.0644 C   0  0  0  0  0  0  0  0  0  0  0  0
   14.9711  -13.9390  -15.9170 C   0  0  0  0  0  0  0  0  0  0  0  0
   15.6212  -12.9360  -16.6044 C   0  0  0  0  0  0  0  0  0  0  0  0
   16.6503  -13.4520  -17.2761 N   0  0  0  0  0  0  0  0  0  0  0  0
   16.7367  -14.7683  -17.0806 C   0  0  0  0  0  0  0  0  0  0  0  0
   17.6178  -15.7212  -17.5537 C   0  0  0  0  0  0  0  0  0  0  0  0
   17.4136  -17.0208  -17.1425 C   0  0  0  0  0  0  0  0  0  0  0  0
   16.3600  -17.3535  -16.2844 C   0  0  0  0  0  0  0  0  0  0  0  0
   15.4930  -16.3831  -15.8251 C   0  0  0  0  0  0  0  0  0  0  0  0
   15.6895  -15.0942  -16.2286 C   0  0  0  0  0  0  0  0  0  0  0  0
   11.3895  -14.2200  -14.7182 C   0  0  0  0  0  0  0  0  0  0  0  0
   10.5784  -13.2684  -14.6982 O   0  0  0  0  0  0  0  0  0  0  0  0
    8.6769  -16.8817  -14.0164 O   0  0  0  0  0  0  0  0  0  0  0  0
    8.8748  -15.5733  -13.6602 C   0  0  0  0  0  0  0  0  0  0  0  0
   10.1484  -15.3798  -12.8366 C   0  0  2  0  0  0  0  0  0  0  0  0
   11.2210  -15.2771  -13.8057 N   0  0  0  0  0  0  0  0  0  0  0  0
   10.3069  -16.5679  -11.9841 C   0  0  0  0  0  0  0  0  0  0  0  0
   10.9774  -17.5530  -12.4466 O   0  0  0  0  0  0  0  0  0  0  0  0
   10.7169  -20.0721   -8.4345 N   0  0  0  0  0  0  0  0  0  0  0  0
   11.7734  -19.1306   -8.6332 C   0  0  0  0  0  0  0  0  0  0  0  0
   12.9172  -19.3154   -8.1864 O   0  0  0  0  0  0  0  0  0  0  0  0
   11.4862  -17.8951   -9.3982 C   0  0  0  0  0  0  0  0  0  0  0  0
   10.0369  -17.8764   -9.8508 C   0  0  2  0  0  0  0  0  0  0  0  0
    9.7794  -16.7198  -10.6860 N   0  0  0  0  0  0  0  0  0  0  0  0
    9.1948  -17.7710   -8.6393 C   0  0  0  0  0  0  0  0  0  0  0  0
    8.8058  -18.9248   -7.9490 O   0  0  0  0  0  0  0  0  0  0  0  0
    8.8000  -16.6477   -8.1879 O   0  0  0  0  0  0  0  0  0  0  0  0
  2  1  1  6
  2  3  1  0
  2 13  1  0
  3  4  1  0
  4 12  1  0
  5  4  2  0
  5  6  1  0
  6  7  1  0
  7  8  1  0
  8  9  2  0
 10  9  1  0
 11 10  2  0
 12  7  2  0
 12 11  1  0
 13 18  1  0
 13 14  2  0
 15 16  1  0
 17 16  1  6
 18 17  1  0
 19 17  1  0
 19 26  1  0
 20 19  2  0
 22 23  2  0
 22 21  1  0
 24 22  1  0
 25 27  1  0
 25 24  1  1
 25 26  1  0
 27 28  1  0
 29 27  2  0
M  END
$$$$
