WSN.pdb
     RDKit          3D

 29 30  0  0  1  0  0  0  0  0999 V2000
   28.3456  -20.8299  -10.0881 N   0  0  0  0  0  0  0  0  0  0  0  0
   26.9247  -20.9875   -9.8429 C   0  0  1  0  0  0  0  0  0  0  0  0
   26.4659  -20.0659   -8.7354 C   0  0  0  0  0  0  0  0  0  0  0  0
   27.4844  -19.7862   -7.7235 C   0  0  0  0  0  0  0  0  0  0  0  0
   28.6401  -19.0619   -7.9248 C   0  0  0  0  0  0  0  0  0  0  0  0
   29.3327  -19.0043   -6.7874 N   0  0  0  0  0  0  0  0  0  0  0  0
   28.7028  -19.6585   -5.8109 C   0  0  0  0  0  0  0  0  0  0  0  0
   29.0188  -19.8734   -4.4835 C   0  0  0  0  0  0  0  0  0  0  0  0
   28.1232  -20.6104   -3.7389 C   0  0  0  0  0  0  0  0  0  0  0  0
   26.9488  -21.1151   -4.3074 C   0  0  0  0  0  0  0  0  0  0  0  0
   26.6554  -20.8866   -5.6363 C   0  0  0  0  0  0  0  0  0  0  0  0
   27.5382  -20.1576   -6.3794 C   0  0  0  0  0  0  0  0  0  0  0  0
   26.1534  -20.7599  -11.0882 C   0  0  0  0  0  0  0  0  0  0  0  0
   25.9844  -19.5819  -11.4722 O   0  0  0  0  0  0  0  0  0  0  0  0
   24.0612  -23.8948  -12.7592 O   0  0  0  0  0  0  0  0  0  0  0  0
   24.6917  -23.0582  -13.6427 C   0  0  0  0  0  0  0  0  0  0  0  0
   24.8662  -21.6456  -13.0844 C   0  0  2  0  0  0  0  0  0  0  0  0
   25.6067  -21.8089  -11.8495 N   0  0  0  0  0  0  0  0  0  0  0  0
   23.5227  -21.1003  -12.8367 C   0  0  0  0  0  0  0  0  0  0  0  0
   23.1592  -20.9290  -11.6233 O   0  0  0  0  0  0  0  0  0  0  0  0
   18.8150  -19.1306  -13.2414 N   0  0  0  0  0  0  0  0  0  0  0  0
   19.6737  -18.4165  -14.1329 C   0  0  0  0  0  0  0  0  0  0  0  0
   19.3147  -17.3741  -14.7044 O   0  0  0  0  0  0  0  0  0  0  0  0
   21.0357  -18.9443  -14.3788 C   0  0  0  0  0  0  0  0  0  0  0  0
   21.2856  -20.1812  -13.5341 C   0  0  2  0  0  0  0  0  0  0  0  0
   22.5880  -20.7448  -13.8299 N   0  0  0  0  0  0  0  0  0  0  0  0
   20.2551  -21.1797  -13.8933 C   0  0  0  0  0  0  0  0  0  0  0  0
   20.4539  -22.0373  -14.9815 O   0  0  0  0  0  0  0  0  0  0  0  0
   19.1694  -21.2941  -13.2380 O   0  0  0  0  0  0  0  0  0  0  0  0
  2  1  1  6
  2  3  1  0
  2 13  1  0
  3  4  1  0
  4 12  1  0
  5  4  2  0
  5  6  1  0
  6  7  1  0
  7  8  1  0
  8  9  2  0
 10  9  1  0
 11 10  2  0
 12  7  2  0
 12 11  1  0
 13 18  1  0
 13 14  2  0
 15 16  1  0
 17 16  1  1
 18 17  1  0
 19 17  1  0
 19 26  1  0
 20 19  2  0
 22 23  2  0
 22 21  1  0
 24 22  1  0
 25 27  1  0
 25 24  1  6
 25 26  1  0
 27 28  1  0
 29 27  2  0
M  END
$$$$
