WSN.pdb
     RDKit          3D

 29 30  0  0  1  0  0  0  0  0999 V2000
   28.2938  -20.9874  -15.5625 N   0  0  0  0  0  0  0  0  0  0  0  0
   27.3543  -20.2587  -14.7314 C   0  0  1  0  0  0  0  0  0  0  0  0
   26.3535  -19.5103  -15.5827 C   0  0  0  0  0  0  0  0  0  0  0  0
   26.9170  -18.3820  -16.3236 C   0  0  0  0  0  0  0  0  0  0  0  0
   27.2830  -18.3954  -17.6528 C   0  0  0  0  0  0  0  0  0  0  0  0
   27.7553  -17.1972  -17.9962 N   0  0  0  0  0  0  0  0  0  0  0  0
   27.7302  -16.3588  -16.9595 C   0  0  0  0  0  0  0  0  0  0  0  0
   28.1077  -15.0369  -16.8254 C   0  0  0  0  0  0  0  0  0  0  0  0
   27.9421  -14.4620  -15.5837 C   0  0  0  0  0  0  0  0  0  0  0  0
   27.4148  -15.1896  -14.5116 C   0  0  0  0  0  0  0  0  0  0  0  0
   27.0448  -16.5095  -14.6708 C   0  0  0  0  0  0  0  0  0  0  0  0
   27.2063  -17.0849  -15.8979 C   0  0  0  0  0  0  0  0  0  0  0  0
   26.6774  -21.1761  -13.7840 C   0  0  0  0  0  0  0  0  0  0  0  0
   26.3500  -22.3118  -14.1923 O   0  0  0  0  0  0  0  0  0  0  0  0
   26.2570  -19.7280  -10.1667 O   0  0  0  0  0  0  0  0  0  0  0  0
   25.5607  -20.9063  -10.2353 C   0  0  0  0  0  0  0  0  0  0  0  0
   25.2780  -21.3329  -11.6761 C   0  0  2  0  0  0  0  0  0  0  0  0
   26.3894  -20.8222  -12.4534 N   0  0  0  0  0  0  0  0  0  0  0  0
   24.0087  -20.7089  -12.0798 C   0  0  0  0  0  0  0  0  0  0  0  0
   24.0527  -19.7563  -12.9310 O   0  0  0  0  0  0  0  0  0  0  0  0
   20.7072  -19.3193  -14.4367 N   0  0  0  0  0  0  0  0  0  0  0  0
   21.1390  -20.6385  -14.7763 C   0  0  0  0  0  0  0  0  0  0  0  0
   21.1812  -21.0391  -15.9509 O   0  0  0  0  0  0  0  0  0  0  0  0
   21.5474  -21.5527  -13.6848 C   0  0  0  0  0  0  0  0  0  0  0  0
   21.5091  -20.8333  -12.3481 C   0  0  2  0  0  0  0  0  0  0  0  0
   22.7316  -21.0717  -11.6066 N   0  0  0  0  0  0  0  0  0  0  0  0
   20.3800  -21.3941  -11.5744 C   0  0  0  0  0  0  0  0  0  0  0  0
   20.5048  -22.6393  -10.9476 O   0  0  0  0  0  0  0  0  0  0  0  0
   19.2733  -20.7763  -11.4521 O   0  0  0  0  0  0  0  0  0  0  0  0
  2  1  1  6
  2  3  1  0
  2 13  1  0
  3  4  1  0
  4 12  1  0
  5  4  2  0
  5  6  1  0
  6  7  1  0
  7  8  1  0
  8  9  2  0
 10  9  1  0
 11 10  2  0
 12  7  2  0
 12 11  1  0
 13 18  1  0
 13 14  2  0
 15 16  1  0
 17 16  1  1
 18 17  1  0
 19 17  1  0
 19 26  1  0
 20 19  2  0
 22 23  2  0
 22 21  1  0
 24 22  1  0
 25 27  1  0
 25 24  1  6
 25 26  1  0
 27 28  1  0
 29 27  2  0
M  END
$$$$
