WSN.pdb
     RDKit          3D

 29 30  0  0  1  0  0  0  0  0999 V2000
   18.7656  -25.9141  -12.2597 N   0  0  0  0  0  0  0  0  0  0  0  0
   18.7500  -24.8821  -11.2405 C   0  0  1  0  0  0  0  0  0  0  0  0
   17.6996  -23.8391  -11.5492 C   0  0  0  0  0  0  0  0  0  0  0  0
   18.0337  -22.9606  -12.6699 C   0  0  0  0  0  0  0  0  0  0  0  0
   17.2466  -22.7385  -13.7798 C   0  0  0  0  0  0  0  0  0  0  0  0
   17.8599  -21.8814  -14.5957 N   0  0  0  0  0  0  0  0  0  0  0  0
   19.0366  -21.5036  -14.0948 C   0  0  0  0  0  0  0  0  0  0  0  0
   20.0131  -20.6467  -14.5639 C   0  0  0  0  0  0  0  0  0  0  0  0
   21.1305  -20.4797  -13.7743 C   0  0  0  0  0  0  0  0  0  0  0  0
   21.2636  -21.1503  -12.5539 C   0  0  0  0  0  0  0  0  0  0  0  0
   20.2737  -22.0014  -12.1067 C   0  0  0  0  0  0  0  0  0  0  0  0
   19.1646  -22.1713  -12.8838 C   0  0  0  0  0  0  0  0  0  0  0  0
   18.5405  -25.4782   -9.8995 C   0  0  0  0  0  0  0  0  0  0  0  0
   18.1374  -26.6602   -9.8342 O   0  0  0  0  0  0  0  0  0  0  0  0
   19.3350  -23.0732   -6.8443 O   0  0  0  0  0  0  0  0  0  0  0  0
   19.4770  -24.3856   -6.4762 C   0  0  0  0  0  0  0  0  0  0  0  0
   18.6776  -25.3318   -7.3725 C   0  0  2  0  0  0  0  0  0  0  0  0
   18.7742  -24.7720   -8.7057 N   0  0  0  0  0  0  0  0  0  0  0  0
   17.2886  -25.3294   -6.8885 C   0  0  0  0  0  0  0  0  0  0  0  0
   16.4119  -24.7122   -7.5844 O   0  0  0  0  0  0  0  0  0  0  0  0
   13.0458  -25.5314   -4.0705 N   0  0  0  0  0  0  0  0  0  0  0  0
   13.9183  -26.4535   -3.4143 C   0  0  0  0  0  0  0  0  0  0  0  0
   13.5624  -27.1094   -2.4218 O   0  0  0  0  0  0  0  0  0  0  0  0
   15.2917  -26.6264   -3.9415 C   0  0  0  0  0  0  0  0  0  0  0  0
   15.5064  -25.7472   -5.1608 C   0  0  2  0  0  0  0  0  0  0  0  0
   16.8313  -25.9548   -5.7111 N   0  0  0  0  0  0  0  0  0  0  0  0
   15.4033  -24.3399   -4.7170 C   0  0  0  0  0  0  0  0  0  0  0  0
   14.1481  -23.7413   -4.5581 O   0  0  0  0  0  0  0  0  0  0  0  0
   16.4334  -23.6341   -4.4677 O   0  0  0  0  0  0  0  0  0  0  0  0
  2  1  1  6
  2  3  1  0
  2 13  1  0
  3  4  1  0
  4 12  1  0
  5  4  2  0
  5  6  1  0
  6  7  1  0
  7  8  1  0
  8  9  2  0
 10  9  1  0
 11 10  2  0
 12  7  2  0
 12 11  1  0
 13 18  1  0
 13 14  2  0
 15 16  1  0
 17 16  1  1
 18 17  1  0
 19 17  1  0
 19 26  1  0
 20 19  2  0
 22 23  2  0
 22 21  1  0
 24 22  1  0
 25 27  1  0
 25 24  1  1
 25 26  1  0
 27 28  1  0
 29 27  2  0
M  END
$$$$
