WFD.pdb
     RDKit          3D

 34 36  0  0  1  0  0  0  0  0999 V2000
   10.8107  -17.6675   20.7388 N   0  0  0  0  0  0  0  0  0  0  0  0
    9.7593  -16.8160   21.1695 C   0  0  1  0  0  0  0  0  0  0  0  0
    8.3809  -17.1876   20.7780 C   0  0  0  0  0  0  0  0  0  0  0  0
    7.5324  -16.1168   20.2419 C   0  0  0  0  0  0  0  0  0  0  0  0
    6.2132  -16.2430   19.7936 C   0  0  0  0  0  0  0  0  0  0  0  0
    5.8192  -15.0271   19.4039 N   0  0  0  0  0  0  0  0  0  0  0  0
    6.8176  -14.1280   19.5790 C   0  0  0  0  0  0  0  0  0  0  0  0
    6.8999  -12.7757   19.3285 C   0  0  0  0  0  0  0  0  0  0  0  0
    8.0380  -12.0554   19.5856 C   0  0  0  0  0  0  0  0  0  0  0  0
    9.1199  -12.7349   20.1123 C   0  0  0  0  0  0  0  0  0  0  0  0
    9.0709  -14.0762   20.3720 C   0  0  0  0  0  0  0  0  0  0  0  0
    7.9249  -14.8026   20.1142 C   0  0  0  0  0  0  0  0  0  0  0  0
    9.7864  -16.7203   22.6580 C   0  0  0  0  0  0  0  0  0  0  0  0
   10.5964  -17.4490   23.2742 O   0  0  0  0  0  0  0  0  0  0  0  0
    8.9528  -15.8579   23.3842 N   0  0  0  0  0  0  0  0  0  0  0  0
    9.1943  -15.4513   24.7372 C   0  0  1  0  0  0  0  0  0  0  0  0
    8.3203  -14.3018   25.1685 C   0  0  0  0  0  0  0  0  0  0  0  0
    8.4686  -13.9147   26.5651 C   0  0  0  0  0  0  0  0  0  0  0  0
    9.6919  -13.9999   27.1870 C   0  0  0  0  0  0  0  0  0  0  0  0
    9.8480  -13.6320   28.5269 C   0  0  0  0  0  0  0  0  0  0  0  0
    8.7873  -13.1715   29.2742 C   0  0  0  0  0  0  0  0  0  0  0  0
    7.5539  -13.0857   28.6465 C   0  0  0  0  0  0  0  0  0  0  0  0
    7.4279  -13.4486   27.3465 C   0  0  0  0  0  0  0  0  0  0  0  0
    9.1032  -16.5440   25.7019 C   0  0  0  0  0  0  0  0  0  0  0  0
    8.0109  -17.1775   25.7808 O   0  0  0  0  0  0  0  0  0  0  0  0
   10.1376  -16.9767   26.5802 N   0  0  0  0  0  0  0  0  0  0  0  0
   10.2332  -18.3442   27.0488 C   0  0  1  0  0  0  0  0  0  0  0  0
   10.5701  -19.3144   25.9260 C   0  0  0  0  0  0  0  0  0  0  0  0
   10.7371  -20.6878   26.4412 C   0  0  0  0  0  0  0  0  0  0  0  0
   10.4321  -20.9278   27.6363 O   0  0  0  0  0  0  0  0  0  0  0  0
   11.3923  -18.3954   28.0063 C   0  0  0  0  0  0  0  0  0  0  0  0
   11.1994  -18.7192   29.2107 O   0  0  0  0  0  0  0  0  0  0  0  0
   11.2160  -21.7480   25.6813 O   0  0  0  0  0  0  0  0  0  0  0  0
   12.6631  -18.0876   27.5618 O   0  0  0  0  0  0  0  0  0  0  0  0
  2  1  1  1
  2  3  1  0
  4  5  2  0
  4  3  1  0
  6  5  1  0
  7 12  2  0
  7  6  1  0
  8  7  1  0
  9  8  2  0
  9 10  1  0
 10 11  2  0
 11 12  1  0
 12  4  1  0
 13 14  2  0
 13  2  1  0
 15 13  1  0
 16 24  1  0
 16 15  1  0
 16 17  1  1
 18 17  1  0
 19 18  2  0
 20 19  1  0
 21 22  1  0
 21 20  2  0
 22 23  2  0
 23 18  1  0
 24 26  1  0
 25 24  2  0
 26 27  1  0
 27 31  1  0
 27 28  1  6
 29 28  1  0
 30 29  2  0
 31 32  2  0
 31 34  1  0
 33 29  1  0
M  END
$$$$
