WFD.pdb
     RDKit          3D

 34 36  0  0  1  0  0  0  0  0999 V2000
    6.5594  -18.8447   25.9123 N   0  0  0  0  0  0  0  0  0  0  0  0
    7.4464  -17.7415   26.0235 C   0  0  1  0  0  0  0  0  0  0  0  0
    8.8207  -18.0203   26.4974 C   0  0  0  0  0  0  0  0  0  0  0  0
    9.1663  -17.5486   27.8436 C   0  0  0  0  0  0  0  0  0  0  0  0
    9.3589  -18.3399   28.9811 C   0  0  0  0  0  0  0  0  0  0  0  0
    9.6688  -17.5102   29.9814 N   0  0  0  0  0  0  0  0  0  0  0  0
    9.6848  -16.2278   29.5443 C   0  0  0  0  0  0  0  0  0  0  0  0
    9.9401  -15.0347   30.1843 C   0  0  0  0  0  0  0  0  0  0  0  0
    9.8932  -13.8317   29.5280 C   0  0  0  0  0  0  0  0  0  0  0  0
    9.5770  -13.8486   28.1830 C   0  0  0  0  0  0  0  0  0  0  0  0
    9.3179  -15.0150   27.5186 C   0  0  0  0  0  0  0  0  0  0  0  0
    9.3657  -16.2274   28.1783 C   0  0  0  0  0  0  0  0  0  0  0  0
    7.5631  -17.0723   24.6953 C   0  0  0  0  0  0  0  0  0  0  0  0
    7.2056  -17.7177   23.6841 O   0  0  0  0  0  0  0  0  0  0  0  0
    8.0497  -15.7669   24.5368 N   0  0  0  0  0  0  0  0  0  0  0  0
    8.1403  -15.0863   23.2787 C   0  0  1  0  0  0  0  0  0  0  0  0
    8.0638  -13.5874   23.4165 C   0  0  0  0  0  0  0  0  0  0  0  0
    7.3542  -13.1202   24.5999 C   0  0  0  0  0  0  0  0  0  0  0  0
    7.7787  -11.9975   25.2706 C   0  0  0  0  0  0  0  0  0  0  0  0
    7.1070  -11.5385   26.4078 C   0  0  0  0  0  0  0  0  0  0  0  0
    5.9981  -12.1898   26.8997 C   0  0  0  0  0  0  0  0  0  0  0  0
    5.5705  -13.3219   26.2229 C   0  0  0  0  0  0  0  0  0  0  0  0
    6.2387  -13.7472   25.1227 C   0  0  0  0  0  0  0  0  0  0  0  0
    9.3129  -15.4616   22.4933 C   0  0  0  0  0  0  0  0  0  0  0  0
    9.4137  -15.0019   21.3189 O   0  0  0  0  0  0  0  0  0  0  0  0
   10.3742  -16.3092   22.9221 N   0  0  0  0  0  0  0  0  0  0  0  0
   11.4749  -16.6714   22.0525 C   0  0  1  0  0  0  0  0  0  0  0  0
   12.7198  -17.0647   22.8341 C   0  0  0  0  0  0  0  0  0  0  0  0
   13.2514  -15.9201   23.6002 C   0  0  0  0  0  0  0  0  0  0  0  0
   13.3976  -14.8166   23.0172 O   0  0  0  0  0  0  0  0  0  0  0  0
   11.0479  -17.9025   21.3008 C   0  0  0  0  0  0  0  0  0  0  0  0
   11.7653  -18.3469   20.3625 O   0  0  0  0  0  0  0  0  0  0  0  0
   13.6058  -15.9829   24.9422 O   0  0  0  0  0  0  0  0  0  0  0  0
    9.8717  -18.5407   21.6420 O   0  0  0  0  0  0  0  0  0  0  0  0
  2  1  1  6
  2  3  1  0
  4  5  2  0
  4  3  1  0
  6  5  1  0
  7 12  2  0
  7  6  1  0
  8  7  1  0
  9  8  2  0
  9 10  1  0
 10 11  2  0
 11 12  1  0
 12  4  1  0
 13 14  2  0
 13  2  1  0
 15 13  1  0
 16 24  1  0
 16 15  1  0
 16 17  1  1
 18 17  1  0
 19 18  2  0
 20 19  1  0
 21 22  1  0
 21 20  2  0
 22 23  2  0
 23 18  1  0
 24 26  1  0
 25 24  2  0
 26 27  1  0
 27 31  1  0
 27 28  1  1
 29 28  1  0
 30 29  2  0
 31 32  2  0
 31 34  1  0
 33 29  1  0
M  END
$$$$
