WFD.pdb
     RDKit          3D

 34 36  0  0  1  0  0  0  0  0999 V2000
    6.9619  -18.6872   20.5734 N   0  0  0  0  0  0  0  0  0  0  0  0
    7.2536  -18.8581   21.9524 C   0  0  1  0  0  0  0  0  0  0  0  0
    8.2609  -19.8815   22.3119 C   0  0  0  0  0  0  0  0  0  0  0  0
    7.8903  -21.2839   22.0883 C   0  0  0  0  0  0  0  0  0  0  0  0
    6.9034  -21.7574   21.2172 C   0  0  0  0  0  0  0  0  0  0  0  0
    6.9072  -23.0899   21.3161 N   0  0  0  0  0  0  0  0  0  0  0  0
    7.8454  -23.4952   22.2056 C   0  0  0  0  0  0  0  0  0  0  0  0
    8.2239  -24.7441   22.6473 C   0  0  0  0  0  0  0  0  0  0  0  0
    9.2171  -24.9178   23.5766 C   0  0  0  0  0  0  0  0  0  0  0  0
    9.8394  -23.7858   24.0672 C   0  0  0  0  0  0  0  0  0  0  0  0
    9.4873  -22.5324   23.6500 C   0  0  0  0  0  0  0  0  0  0  0  0
    8.4876  -22.3562   22.7135 C   0  0  0  0  0  0  0  0  0  0  0  0
    7.7207  -17.5591   22.5180 C   0  0  0  0  0  0  0  0  0  0  0  0
    8.6136  -16.9402   21.8962 O   0  0  0  0  0  0  0  0  0  0  0  0
    7.2058  -17.0108   23.7013 N   0  0  0  0  0  0  0  0  0  0  0  0
    7.7272  -15.8394   24.3419 C   0  0  1  0  0  0  0  0  0  0  0  0
    6.6690  -15.0478   25.0665 C   0  0  0  0  0  0  0  0  0  0  0  0
    7.1588  -13.8557   25.7457 C   0  0  0  0  0  0  0  0  0  0  0  0
    7.4786  -12.7261   25.0299 C   0  0  0  0  0  0  0  0  0  0  0  0
    7.9500  -11.5754   25.6692 C   0  0  0  0  0  0  0  0  0  0  0  0
    8.1122  -11.5274   27.0356 C   0  0  0  0  0  0  0  0  0  0  0  0
    7.7896  -12.6668   27.7569 C   0  0  0  0  0  0  0  0  0  0  0  0
    7.3346  -13.7702   27.1141 C   0  0  0  0  0  0  0  0  0  0  0  0
    8.8524  -16.1111   25.2324 C   0  0  0  0  0  0  0  0  0  0  0  0
    8.6982  -16.9833   26.1359 O   0  0  0  0  0  0  0  0  0  0  0  0
   10.1293  -15.4818   25.1875 N   0  0  0  0  0  0  0  0  0  0  0  0
   11.2745  -16.0028   25.9059 C   0  0  1  0  0  0  0  0  0  0  0  0
   12.5887  -15.4595   25.3644 C   0  0  0  0  0  0  0  0  0  0  0  0
   13.1596  -16.3637   24.3465 C   0  0  0  0  0  0  0  0  0  0  0  0
   12.5865  -17.4585   24.1189 O   0  0  0  0  0  0  0  0  0  0  0  0
   11.1661  -15.5001   27.3196 C   0  0  0  0  0  0  0  0  0  0  0  0
   12.0587  -15.7941   28.1619 O   0  0  0  0  0  0  0  0  0  0  0  0
   14.3050  -16.0803   23.6129 O   0  0  0  0  0  0  0  0  0  0  0  0
   10.0892  -14.7183   27.6887 O   0  0  0  0  0  0  0  0  0  0  0  0
  2  1  1  6
  2  3  1  0
  4  5  2  0
  4  3  1  0
  6  5  1  0
  7 12  2  0
  7  6  1  0
  8  7  1  0
  9  8  2  0
  9 10  1  0
 10 11  2  0
 11 12  1  0
 12  4  1  0
 13 14  2  0
 13  2  1  0
 15 13  1  0
 16 24  1  0
 16 15  1  0
 16 17  1  1
 18 17  1  0
 19 18  2  0
 20 19  1  0
 21 22  1  0
 21 20  2  0
 22 23  2  0
 23 18  1  0
 24 26  1  0
 25 24  2  0
 26 27  1  0
 27 31  1  0
 27 28  1  6
 29 28  1  0
 30 29  2  0
 31 32  2  0
 31 34  1  0
 33 29  1  0
M  END
$$$$
