WFD.pdb
     RDKit          3D

 34 36  0  0  1  0  0  0  0  0999 V2000
   11.1292  -15.6401   21.1732 N   0  0  0  0  0  0  0  0  0  0  0  0
    9.8519  -15.5619   21.7884 C   0  0  1  0  0  0  0  0  0  0  0  0
    8.7632  -16.3730   21.1984 C   0  0  0  0  0  0  0  0  0  0  0  0
    7.9810  -15.7513   20.1235 C   0  0  0  0  0  0  0  0  0  0  0  0
    7.2294  -16.4146   19.1476 C   0  0  0  0  0  0  0  0  0  0  0  0
    6.6728  -15.4721   18.3813 N   0  0  0  0  0  0  0  0  0  0  0  0
    7.0287  -14.2389   18.8152 C   0  0  0  0  0  0  0  0  0  0  0  0
    6.7216  -12.9742   18.3632 C   0  0  0  0  0  0  0  0  0  0  0  0
    7.2105  -11.8455   18.9692 C   0  0  0  0  0  0  0  0  0  0  0  0
    8.0347  -12.0139   20.0654 C   0  0  0  0  0  0  0  0  0  0  0  0
    8.3591  -13.2548   20.5387 C   0  0  0  0  0  0  0  0  0  0  0  0
    7.8666  -14.3924   19.9296 C   0  0  0  0  0  0  0  0  0  0  0  0
    9.9742  -15.9598   23.2210 C   0  0  0  0  0  0  0  0  0  0  0  0
   11.1007  -16.3190   23.6320 O   0  0  0  0  0  0  0  0  0  0  0  0
    8.8927  -15.9466   24.1133 N   0  0  0  0  0  0  0  0  0  0  0  0
    9.0137  -16.1206   25.5309 C   0  0  1  0  0  0  0  0  0  0  0  0
    7.7421  -15.7956   26.2717 C   0  0  0  0  0  0  0  0  0  0  0  0
    7.4491  -14.3729   26.3832 C   0  0  0  0  0  0  0  0  0  0  0  0
    6.3189  -13.8454   25.8043 C   0  0  0  0  0  0  0  0  0  0  0  0
    6.0260  -12.4818   25.9035 C   0  0  0  0  0  0  0  0  0  0  0  0
    6.8542  -11.6160   26.5819 C   0  0  0  0  0  0  0  0  0  0  0  0
    7.9937  -12.1485   27.1654 C   0  0  0  0  0  0  0  0  0  0  0  0
    8.2560  -13.4740   27.0552 C   0  0  0  0  0  0  0  0  0  0  0  0
    9.5001  -17.4418   25.9190 C   0  0  0  0  0  0  0  0  0  0  0  0
    8.7782  -18.4445   25.6468 O   0  0  0  0  0  0  0  0  0  0  0  0
   10.7269  -17.7219   26.5863 N   0  0  0  0  0  0  0  0  0  0  0  0
   11.1617  -19.0743   26.8709 C   0  0  1  0  0  0  0  0  0  0  0  0
   12.6641  -19.2434   26.6985 C   0  0  0  0  0  0  0  0  0  0  0  0
   13.0909  -20.6101   27.0584 C   0  0  0  0  0  0  0  0  0  0  0  0
   13.2669  -21.4510   26.1415 O   0  0  0  0  0  0  0  0  0  0  0  0
   10.8781  -19.3245   28.3269 C   0  0  0  0  0  0  0  0  0  0  0  0
   10.4237  -18.3940   29.0481 O   0  0  0  0  0  0  0  0  0  0  0  0
   13.3143  -21.0343   28.3625 O   0  0  0  0  0  0  0  0  0  0  0  0
   11.1167  -20.5728   28.8673 O   0  0  0  0  0  0  0  0  0  0  0  0
  2  1  1  6
  2  3  1  0
  4  5  2  0
  4  3  1  0
  6  5  1  0
  7 12  2  0
  7  6  1  0
  8  7  1  0
  9  8  2  0
  9 10  1  0
 10 11  2  0
 11 12  1  0
 12  4  1  0
 13 14  2  0
 13  2  1  0
 15 13  1  0
 16 24  1  0
 16 15  1  0
 16 17  1  1
 18 17  1  0
 19 18  2  0
 20 19  1  0
 21 22  1  0
 21 20  2  0
 22 23  2  0
 23 18  1  0
 24 26  1  0
 25 24  2  0
 26 27  1  0
 27 31  1  0
 27 28  1  1
 29 28  1  0
 30 29  2  0
 31 32  2  0
 31 34  1  0
 33 29  1  0
M  END
$$$$
