WFD.pdb
     RDKit          3D

 34 36  0  0  1  0  0  0  0  0999 V2000
    8.0527  -17.0347   21.9905 N   0  0  0  0  0  0  0  0  0  0  0  0
    8.8682  -15.9794   22.4776 C   0  0  1  0  0  0  0  0  0  0  0  0
    8.3679  -14.5974   22.3011 C   0  0  0  0  0  0  0  0  0  0  0  0
    7.8665  -14.2388   20.9692 C   0  0  0  0  0  0  0  0  0  0  0  0
    6.5665  -14.4281   20.4882 C   0  0  0  0  0  0  0  0  0  0  0  0
    6.5426  -13.9511   19.2403 N   0  0  0  0  0  0  0  0  0  0  0  0
    7.7601  -13.4660   18.8962 C   0  0  0  0  0  0  0  0  0  0  0  0
    8.2320  -12.8853   17.7394 C   0  0  0  0  0  0  0  0  0  0  0  0
    9.5312  -12.4657   17.6127 C   0  0  0  0  0  0  0  0  0  0  0  0
   10.3698  -12.6444   18.6964 C   0  0  0  0  0  0  0  0  0  0  0  0
    9.9330  -13.2174   19.8582 C   0  0  0  0  0  0  0  0  0  0  0  0
    8.6244  -13.6397   19.9873 C   0  0  0  0  0  0  0  0  0  0  0  0
    9.1083  -16.1805   23.9362 C   0  0  0  0  0  0  0  0  0  0  0  0
   10.2463  -15.9102   24.3822 O   0  0  0  0  0  0  0  0  0  0  0  0
    8.1235  -16.6529   24.8154 N   0  0  0  0  0  0  0  0  0  0  0  0
    8.2906  -16.7544   26.2353 C   0  0  1  0  0  0  0  0  0  0  0  0
    7.1401  -16.1579   27.0048 C   0  0  0  0  0  0  0  0  0  0  0  0
    7.0522  -14.7052   26.9397 C   0  0  0  0  0  0  0  0  0  0  0  0
    8.0360  -13.9207   27.4940 C   0  0  0  0  0  0  0  0  0  0  0  0
    7.9637  -12.5255   27.4389 C   0  0  0  0  0  0  0  0  0  0  0  0
    6.9087  -11.8837   26.8298 C   0  0  0  0  0  0  0  0  0  0  0  0
    5.9170  -12.6753   26.2710 C   0  0  0  0  0  0  0  0  0  0  0  0
    6.0096  -14.0262   26.3375 C   0  0  0  0  0  0  0  0  0  0  0  0
    8.5559  -18.1141   26.6977 C   0  0  0  0  0  0  0  0  0  0  0  0
    7.8789  -19.0562   26.1930 O   0  0  0  0  0  0  0  0  0  0  0  0
    9.5164  -18.4948   27.6781 N   0  0  0  0  0  0  0  0  0  0  0  0
   10.3710  -19.6533   27.5151 C   0  0  1  0  0  0  0  0  0  0  0  0
   11.2276  -19.5639   26.2607 C   0  0  0  0  0  0  0  0  0  0  0  0
   12.1511  -20.7115   26.1635 C   0  0  0  0  0  0  0  0  0  0  0  0
   13.3301  -20.5770   26.5770 O   0  0  0  0  0  0  0  0  0  0  0  0
   11.3288  -19.6533   28.6751 C   0  0  0  0  0  0  0  0  0  0  0  0
   11.3474  -18.6777   29.4754 O   0  0  0  0  0  0  0  0  0  0  0  0
   11.7983  -21.9483   25.6379 O   0  0  0  0  0  0  0  0  0  0  0  0
   12.1836  -20.7224   28.8586 O   0  0  0  0  0  0  0  0  0  0  0  0
  2  1  1  1
  2  3  1  0
  4  5  2  0
  4  3  1  0
  6  5  1  0
  7 12  2  0
  7  6  1  0
  8  7  1  0
  9  8  2  0
  9 10  1  0
 10 11  2  0
 11 12  1  0
 12  4  1  0
 13 14  2  0
 13  2  1  0
 15 13  1  0
 16 24  1  0
 16 15  1  0
 16 17  1  1
 18 17  1  0
 19 18  2  0
 20 19  1  0
 21 22  1  0
 21 20  2  0
 22 23  2  0
 23 18  1  0
 24 26  1  0
 25 24  2  0
 26 27  1  0
 27 31  1  0
 27 28  1  6
 29 28  1  0
 30 29  2  0
 31 32  2  0
 31 34  1  0
 33 29  1  0
M  END
$$$$
