WFD.pdb
     RDKit          3D

 34 36  0  0  1  0  0  0  0  0999 V2000
   11.1238  -16.9074   20.3130 N   0  0  0  0  0  0  0  0  0  0  0  0
   10.0657  -16.3863   21.1036 C   0  0  1  0  0  0  0  0  0  0  0  0
    8.7053  -16.9112   20.8488 C   0  0  0  0  0  0  0  0  0  0  0  0
    7.7150  -15.9616   20.3278 C   0  0  0  0  0  0  0  0  0  0  0  0
    6.4019  -16.2527   19.9428 C   0  0  0  0  0  0  0  0  0  0  0  0
    5.8517  -15.1022   19.5441 N   0  0  0  0  0  0  0  0  0  0  0  0
    6.7441  -14.0886   19.6533 C   0  0  0  0  0  0  0  0  0  0  0  0
    6.6565  -12.7434   19.3688 C   0  0  0  0  0  0  0  0  0  0  0  0
    7.7120  -11.8888   19.5576 C   0  0  0  0  0  0  0  0  0  0  0  0
    8.8876  -12.4230   20.0497 C   0  0  0  0  0  0  0  0  0  0  0  0
    9.0074  -13.7532   20.3416 C   0  0  0  0  0  0  0  0  0  0  0  0
    7.9447  -14.6148   20.1527 C   0  0  0  0  0  0  0  0  0  0  0  0
   10.3694  -16.6240   22.5447 C   0  0  0  0  0  0  0  0  0  0  0  0
   11.3838  -17.3029   22.8223 O   0  0  0  0  0  0  0  0  0  0  0  0
    9.5753  -16.1234   23.5863 N   0  0  0  0  0  0  0  0  0  0  0  0
   10.0061  -16.0145   24.9490 C   0  0  1  0  0  0  0  0  0  0  0  0
    9.1028  -15.1408   25.7810 C   0  0  0  0  0  0  0  0  0  0  0  0
    9.5472  -14.9380   27.1535 C   0  0  0  0  0  0  0  0  0  0  0  0
    9.2949  -15.8867   28.1163 C   0  0  0  0  0  0  0  0  0  0  0  0
    9.7155  -15.7044   29.4373 C   0  0  0  0  0  0  0  0  0  0  0  0
   10.3963  -14.5723   29.8253 C   0  0  0  0  0  0  0  0  0  0  0  0
   10.6504  -13.6161   28.8539 C   0  0  0  0  0  0  0  0  0  0  0  0
   10.2322  -13.8157   27.5800 C   0  0  0  0  0  0  0  0  0  0  0  0
   10.2046  -17.3042   25.6050 C   0  0  0  0  0  0  0  0  0  0  0  0
    9.2433  -18.1267   25.6019 O   0  0  0  0  0  0  0  0  0  0  0  0
   11.3920  -17.7381   26.2611 N   0  0  0  0  0  0  0  0  0  0  0  0
   11.5377  -19.0789   26.7903 C   0  0  1  0  0  0  0  0  0  0  0  0
   12.8952  -19.6825   26.4611 C   0  0  0  0  0  0  0  0  0  0  0  0
   13.0416  -21.0233   27.0614 C   0  0  0  0  0  0  0  0  0  0  0  0
   12.1072  -21.8526   26.9267 O   0  0  0  0  0  0  0  0  0  0  0  0
   11.4853  -18.9626   28.2891 C   0  0  0  0  0  0  0  0  0  0  0  0
   10.7729  -19.7616   28.9575 O   0  0  0  0  0  0  0  0  0  0  0  0
   14.1601  -21.4351   27.7755 O   0  0  0  0  0  0  0  0  0  0  0  0
   12.2180  -17.9809   28.9268 O   0  0  0  0  0  0  0  0  0  0  0  0
  2  1  1  6
  2  3  1  0
  4  5  2  0
  4  3  1  0
  6  5  1  0
  7 12  2  0
  7  6  1  0
  8  7  1  0
  9  8  2  0
  9 10  1  0
 10 11  2  0
 11 12  1  0
 12  4  1  0
 13 14  2  0
 13  2  1  0
 15 13  1  0
 16 24  1  0
 16 15  1  0
 16 17  1  1
 18 17  1  0
 19 18  2  0
 20 19  1  0
 21 22  1  0
 21 20  2  0
 22 23  2  0
 23 18  1  0
 24 26  1  0
 25 24  2  0
 26 27  1  0
 27 31  1  0
 27 28  1  1
 29 28  1  0
 30 29  2  0
 31 32  2  0
 31 34  1  0
 33 29  1  0
M  END
$$$$
