MQH.pdb
     RDKit          3D

 28 28  0  0  1  0  0  0  0  0999 V2000
    8.8193  -11.6938   20.1628 C   0  0  0  0  0  0  0  0  0  0  0  0
    7.5435  -12.3812   19.0975 S   0  0  0  0  0  0  0  0  0  0  0  0
    7.8311  -14.0948   18.6739 C   0  0  0  0  0  0  0  0  0  0  0  0
    8.2871  -14.9656   19.7883 C   0  0  0  0  0  0  0  0  0  0  0  0
    8.5298  -16.4005   19.3808 C   0  0  2  0  0  0  0  0  0  0  0  0
    7.4433  -16.8465   18.5762 N   0  0  0  0  0  0  0  0  0  0  0  0
    8.8345  -17.2530   20.5605 C   0  0  0  0  0  0  0  0  0  0  0  0
    8.4133  -18.4598   20.4458 O   0  0  0  0  0  0  0  0  0  0  0  0
   14.4643  -17.6828   21.2903 N   0  0  0  0  0  0  0  0  0  0  0  0
   13.8498  -18.9659   21.3716 C   0  0  0  0  0  0  0  0  0  0  0  0
   14.4340  -19.9576   20.8983 O   0  0  0  0  0  0  0  0  0  0  0  0
   12.5144  -19.0334   22.0355 C   0  0  0  0  0  0  0  0  0  0  0  0
   11.6352  -18.0227   21.3753 C   0  0  0  0  0  0  0  0  0  0  0  0
   10.5158  -17.6536   22.3150 C   0  0  2  0  0  0  0  0  0  0  0  0
    9.5176  -16.8295   21.7231 N   0  0  0  0  0  0  0  0  0  0  0  0
   11.1136  -17.1036   23.5506 C   0  0  0  0  0  0  0  0  0  0  0  0
   11.8917  -16.1304   23.4358 O   0  0  0  0  0  0  0  0  0  0  0  0
   10.8552  -17.6152   24.8465 N   0  0  0  0  0  0  0  0  0  0  0  0
    9.7162  -17.2738   25.6716 C   0  0  1  0  0  0  0  0  0  0  0  0
    8.5141  -17.1677   24.7639 C   0  0  0  0  0  0  0  0  0  0  0  0
    7.9814  -15.8125   24.6181 C   0  0  0  0  0  0  0  0  0  0  0  0
    8.5180  -14.6778   25.1865 C   0  0  0  0  0  0  0  0  0  0  0  0
    7.7130  -13.6631   24.7909 N   0  0  0  0  0  0  0  0  0  0  0  0
    6.7228  -14.1387   24.0145 C   0  0  0  0  0  0  0  0  0  0  0  0
    6.8838  -15.4721   23.9034 N   0  0  0  0  0  0  0  0  0  0  0  0
    9.5114  -18.1733   26.8248 C   0  0  0  0  0  0  0  0  0  0  0  0
    9.7411  -19.5291   26.7810 O   0  0  0  0  0  0  0  0  0  0  0  0
    9.1076  -17.6710   27.9022 O   0  0  0  0  0  0  0  0  0  0  0  0
  1  2  1  0
  3  2  1  0
  4  5  1  0
  4  3  1  0
  5  6  1  1
  7  5  1  0
  8  7  2  0
 10  9  1  0
 10 12  1  0
 11 10  2  0
 13 12  1  0
 14 13  1  6
 14 15  1  0
 15  7  1  0
 16 14  1  0
 17 16  2  0
 18 16  1  0
 19 18  1  0
 19 20  1  6
 20 21  1  0
 21 22  2  0
 23 22  1  0
 24 23  1  0
 25 21  1  0
 25 24  2  0
 26 19  1  0
 26 27  1  0
 28 26  2  0
M  END
$$$$
