MQH.pdb
     RDKit          3D

 28 28  0  0  1  0  0  0  0  0999 V2000
    5.7417  -11.5986   26.1032 C   0  0  0  0  0  0  0  0  0  0  0  0
    7.4035  -12.2543   25.8941 S   0  0  0  0  0  0  0  0  0  0  0  0
    7.5504  -13.9657   26.3921 C   0  0  0  0  0  0  0  0  0  0  0  0
    8.3436  -14.8345   25.4843 C   0  0  0  0  0  0  0  0  0  0  0  0
    7.5526  -15.9753   24.8869 C   0  0  2  0  0  0  0  0  0  0  0  0
    7.1105  -16.8338   25.9329 N   0  0  0  0  0  0  0  0  0  0  0  0
    8.3102  -16.6454   23.7968 C   0  0  0  0  0  0  0  0  0  0  0  0
    8.8166  -17.7735   24.1403 O   0  0  0  0  0  0  0  0  0  0  0  0
    7.9777  -16.2154   17.5193 N   0  0  0  0  0  0  0  0  0  0  0  0
    9.2483  -16.8217   17.7391 C   0  0  0  0  0  0  0  0  0  0  0  0
   10.0684  -16.8846   16.8051 O   0  0  0  0  0  0  0  0  0  0  0  0
    9.5145  -17.3527   19.1086 C   0  0  0  0  0  0  0  0  0  0  0  0
    8.8884  -16.4101   20.0832 C   0  0  0  0  0  0  0  0  0  0  0  0
    9.0961  -16.9354   21.4808 C   0  0  2  0  0  0  0  0  0  0  0  0
    8.4891  -16.1366   22.4904 N   0  0  0  0  0  0  0  0  0  0  0  0
   10.5426  -17.1747   21.6732 C   0  0  0  0  0  0  0  0  0  0  0  0
   11.0961  -18.0149   20.9293 O   0  0  0  0  0  0  0  0  0  0  0  0
   11.3288  -16.5095   22.6465 N   0  0  0  0  0  0  0  0  0  0  0  0
   12.7505  -16.6934   22.8452 C   0  0  1  0  0  0  0  0  0  0  0  0
   13.4068  -15.3406   22.7055 C   0  0  0  0  0  0  0  0  0  0  0  0
   13.3174  -14.7581   21.3660 C   0  0  0  0  0  0  0  0  0  0  0  0
   12.7556  -15.3680   20.2655 C   0  0  0  0  0  0  0  0  0  0  0  0
   12.8896  -14.4773   19.2541 N   0  0  0  0  0  0  0  0  0  0  0  0
   13.5042  -13.3665   19.6990 C   0  0  0  0  0  0  0  0  0  0  0  0
   13.7724  -13.5346   21.0090 N   0  0  0  0  0  0  0  0  0  0  0  0
   13.1022  -17.3973   24.0949 C   0  0  0  0  0  0  0  0  0  0  0  0
   12.1730  -17.8080   25.0228 O   0  0  0  0  0  0  0  0  0  0  0  0
   14.3145  -17.6339   24.3194 O   0  0  0  0  0  0  0  0  0  0  0  0
  1  2  1  0
  3  2  1  0
  4  5  1  0
  4  3  1  0
  5  6  1  1
  7  5  1  0
  8  7  2  0
 10  9  1  0
 10 12  1  0
 11 10  2  0
 13 12  1  0
 14 13  1  6
 14 15  1  0
 15  7  1  0
 16 14  1  0
 17 16  2  0
 18 16  1  0
 19 18  1  0
 19 20  1  1
 20 21  1  0
 21 22  2  0
 23 22  1  0
 24 23  1  0
 25 21  1  0
 25 24  2  0
 26 19  1  0
 26 27  1  0
 28 26  2  0
M  END
$$$$
