MQH.pdb
     RDKit          3D

 28 28  0  0  1  0  0  0  0  0999 V2000
    5.4721  -11.6987   18.8247 C   0  0  0  0  0  0  0  0  0  0  0  0
    6.9870  -12.3352   19.5563 S   0  0  0  0  0  0  0  0  0  0  0  0
    7.9724  -13.2906   18.4097 C   0  0  0  0  0  0  0  0  0  0  0  0
    9.2374  -13.8468   18.9562 C   0  0  0  0  0  0  0  0  0  0  0  0
    9.9536  -14.7796   18.0072 C   0  0  2  0  0  0  0  0  0  0  0  0
    9.0550  -15.8035   17.5935 N   0  0  0  0  0  0  0  0  0  0  0  0
   11.2358  -15.2603   18.5869 C   0  0  0  0  0  0  0  0  0  0  0  0
   11.2567  -16.5233   18.8134 O   0  0  0  0  0  0  0  0  0  0  0  0
   18.0646  -13.5169   19.4457 N   0  0  0  0  0  0  0  0  0  0  0  0
   17.1834  -14.1192   18.5017 C   0  0  0  0  0  0  0  0  0  0  0  0
   17.3793  -13.9505   17.2844 O   0  0  0  0  0  0  0  0  0  0  0  0
   16.0580  -14.9311   19.0520 C   0  0  0  0  0  0  0  0  0  0  0  0
   14.7948  -14.1771   18.7943 C   0  0  0  0  0  0  0  0  0  0  0  0
   13.6187  -15.0418   19.1701 C   0  0  2  0  0  0  0  0  0  0  0  0
   12.3563  -14.4509   18.8817 N   0  0  0  0  0  0  0  0  0  0  0  0
   13.7907  -15.4689   20.5752 C   0  0  0  0  0  0  0  0  0  0  0  0
   14.8487  -16.0660   20.8752 O   0  0  0  0  0  0  0  0  0  0  0  0
   12.8301  -15.2407   21.5916 N   0  0  0  0  0  0  0  0  0  0  0  0
   12.8993  -15.7555   22.9424 C   0  0  1  0  0  0  0  0  0  0  0  0
   11.8806  -16.8642   23.0581 C   0  0  0  0  0  0  0  0  0  0  0  0
   10.5229  -16.4842   22.6661 C   0  0  0  0  0  0  0  0  0  0  0  0
    9.9358  -15.2604   22.9034 C   0  0  0  0  0  0  0  0  0  0  0  0
    8.6920  -15.3505   22.3751 N   0  0  0  0  0  0  0  0  0  0  0  0
    8.5099  -16.5689   21.8349 C   0  0  0  0  0  0  0  0  0  0  0  0
    9.6426  -17.2773   22.0122 N   0  0  0  0  0  0  0  0  0  0  0  0
   14.2561  -16.1491   23.3727 C   0  0  0  0  0  0  0  0  0  0  0  0
   15.1535  -16.7983   22.5565 O   0  0  0  0  0  0  0  0  0  0  0  0
   14.6076  -15.8737   24.5460 O   0  0  0  0  0  0  0  0  0  0  0  0
  1  2  1  0
  3  2  1  0
  4  5  1  0
  4  3  1  0
  5  6  1  1
  7  5  1  0
  8  7  2  0
 10  9  1  0
 10 12  1  0
 11 10  2  0
 13 12  1  0
 14 13  1  1
 14 15  1  0
 15  7  1  0
 16 14  1  0
 17 16  2  0
 18 16  1  0
 19 18  1  0
 19 20  1  6
 20 21  1  0
 21 22  2  0
 23 22  1  0
 24 23  1  0
 25 21  1  0
 25 24  2  0
 26 19  1  0
 26 27  1  0
 28 26  2  0
M  END
$$$$
