MQH.pdb
     RDKit          3D

 28 28  0  0  1  0  0  0  0  0999 V2000
    8.9690  -12.6243   19.4272 C   0  0  0  0  0  0  0  0  0  0  0  0
    7.7014  -13.1572   18.2677 S   0  0  0  0  0  0  0  0  0  0  0  0
    7.1830  -14.8496   18.5236 C   0  0  0  0  0  0  0  0  0  0  0  0
    6.6866  -15.1718   19.8866 C   0  0  0  0  0  0  0  0  0  0  0  0
    7.6653  -15.9663   20.7201 C   0  0  2  0  0  0  0  0  0  0  0  0
    8.0729  -17.1176   19.9886 N   0  0  0  0  0  0  0  0  0  0  0  0
    7.1222  -16.2392   22.0773 C   0  0  0  0  0  0  0  0  0  0  0  0
    6.7335  -15.1850   22.6974 O   0  0  0  0  0  0  0  0  0  0  0  0
    6.8357  -21.5090   25.4563 N   0  0  0  0  0  0  0  0  0  0  0  0
    7.0146  -20.5384   26.4840 C   0  0  0  0  0  0  0  0  0  0  0  0
    7.0427  -20.9020   27.6738 O   0  0  0  0  0  0  0  0  0  0  0  0
    7.1595  -19.1169   26.0515 C   0  0  0  0  0  0  0  0  0  0  0  0
    7.0249  -19.0860   24.5645 C   0  0  0  0  0  0  0  0  0  0  0  0
    7.1729  -17.6646   24.0851 C   0  0  2  0  0  0  0  0  0  0  0  0
    7.0202  -17.5144   22.6780 N   0  0  0  0  0  0  0  0  0  0  0  0
    8.4382  -17.1246   24.6271 C   0  0  0  0  0  0  0  0  0  0  0  0
    9.3743  -16.9203   23.8223 O   0  0  0  0  0  0  0  0  0  0  0  0
    8.6461  -16.8290   25.9973 N   0  0  0  0  0  0  0  0  0  0  0  0
    8.6182  -15.5062   26.5838 C   0  0  1  0  0  0  0  0  0  0  0  0
    7.2765  -14.8941   26.2588 C   0  0  0  0  0  0  0  0  0  0  0  0
    7.0374  -13.5909   26.8801 C   0  0  0  0  0  0  0  0  0  0  0  0
    8.0093  -12.7615   27.3962 C   0  0  0  0  0  0  0  0  0  0  0  0
    7.3452  -11.6772   27.8624 N   0  0  0  0  0  0  0  0  0  0  0  0
    6.0248  -11.8207   27.6491 C   0  0  0  0  0  0  0  0  0  0  0  0
    5.8273  -13.0065   27.0398 N   0  0  0  0  0  0  0  0  0  0  0  0
    8.9527  -15.4732   28.0218 C   0  0  0  0  0  0  0  0  0  0  0  0
    8.3679  -16.2956   28.9570 O   0  0  0  0  0  0  0  0  0  0  0  0
    9.8189  -14.6508   28.4088 O   0  0  0  0  0  0  0  0  0  0  0  0
  1  2  1  0
  3  2  1  0
  4  5  1  0
  4  3  1  0
  5  6  1  6
  7  5  1  0
  8  7  2  0
 10  9  1  0
 10 12  1  0
 11 10  2  0
 13 12  1  0
 14 13  1  6
 14 15  1  0
 15  7  1  0
 16 14  1  0
 17 16  2  0
 18 16  1  0
 19 18  1  0
 19 20  1  1
 20 21  1  0
 21 22  2  0
 23 22  1  0
 24 23  1  0
 25 21  1  0
 25 24  2  0
 26 19  1  0
 26 27  1  0
 28 26  2  0
M  END
$$$$
