MQH.pdb
     RDKit          3D

 28 28  0  0  1  0  0  0  0  0999 V2000
    6.2301  -10.9589   24.9207 C   0  0  0  0  0  0  0  0  0  0  0  0
    6.3024  -12.7498   24.7715 S   0  0  0  0  0  0  0  0  0  0  0  0
    6.6286  -13.5709   26.3265 C   0  0  0  0  0  0  0  0  0  0  0  0
    6.6677  -15.0555   26.2748 C   0  0  0  0  0  0  0  0  0  0  0  0
    6.6417  -15.6177   24.8723 C   0  0  2  0  0  0  0  0  0  0  0  0
    5.4875  -16.4372   24.7202 N   0  0  0  0  0  0  0  0  0  0  0  0
    7.9318  -16.2727   24.5289 C   0  0  0  0  0  0  0  0  0  0  0  0
    8.1256  -17.3819   25.1446 O   0  0  0  0  0  0  0  0  0  0  0  0
   11.1799  -18.5972   20.9568 N   0  0  0  0  0  0  0  0  0  0  0  0
    9.9645  -18.0139   20.4953 C   0  0  0  0  0  0  0  0  0  0  0  0
    9.2473  -18.6415   19.6949 O   0  0  0  0  0  0  0  0  0  0  0  0
    9.6272  -16.6563   21.0167 C   0  0  0  0  0  0  0  0  0  0  0  0
   10.6745  -16.2880   22.0156 C   0  0  0  0  0  0  0  0  0  0  0  0
   10.1147  -16.4619   23.4043 C   0  0  2  0  0  0  0  0  0  0  0  0
    8.8904  -15.7690   23.6206 N   0  0  0  0  0  0  0  0  0  0  0  0
   11.1826  -16.1407   24.3754 C   0  0  0  0  0  0  0  0  0  0  0  0
   11.1789  -14.9982   24.8857 O   0  0  0  0  0  0  0  0  0  0  0  0
   12.2014  -17.0492   24.7556 N   0  0  0  0  0  0  0  0  0  0  0  0
   12.6580  -17.2791   26.1096 C   0  0  1  0  0  0  0  0  0  0  0  0
   11.4542  -17.6673   26.9346 C   0  0  0  0  0  0  0  0  0  0  0  0
   10.8226  -16.5559   27.6469 C   0  0  0  0  0  0  0  0  0  0  0  0
   11.1201  -15.2220   27.4708 C   0  0  0  0  0  0  0  0  0  0  0  0
   10.3046  -14.5569   28.3233 N   0  0  0  0  0  0  0  0  0  0  0  0
    9.5361  -15.4301   28.9988 C   0  0  0  0  0  0  0  0  0  0  0  0
    9.8528  -16.6725   28.5836 N   0  0  0  0  0  0  0  0  0  0  0  0
   13.7828  -18.2300   26.2171 C   0  0  0  0  0  0  0  0  0  0  0  0
   14.7600  -18.1449   27.1819 O   0  0  0  0  0  0  0  0  0  0  0  0
   13.8473  -19.1662   25.3832 O   0  0  0  0  0  0  0  0  0  0  0  0
  1  2  1  0
  3  2  1  0
  4  5  1  0
  4  3  1  0
  5  6  1  1
  7  5  1  0
  8  7  2  0
 10  9  1  0
 10 12  1  0
 11 10  2  0
 13 12  1  0
 14 13  1  6
 14 15  1  0
 15  7  1  0
 16 14  1  0
 17 16  2  0
 18 16  1  0
 19 18  1  0
 19 20  1  1
 20 21  1  0
 21 22  2  0
 23 22  1  0
 24 23  1  0
 25 21  1  0
 25 24  2  0
 26 19  1  0
 26 27  1  0
 28 26  2  0
M  END
$$$$
