MQH.pdb
     RDKit          3D

 28 28  0  0  1  0  0  0  0  0999 V2000
    2.0822  -24.7099   25.1580 C   0  0  0  0  0  0  0  0  0  0  0  0
    3.8017  -24.6638   24.6325 S   0  0  0  0  0  0  0  0  0  0  0  0
    4.4201  -23.0019   24.4000 C   0  0  0  0  0  0  0  0  0  0  0  0
    5.8674  -22.8921   24.0816 C   0  0  0  0  0  0  0  0  0  0  0  0
    6.3699  -21.4687   24.0108 C   0  0  2  0  0  0  0  0  0  0  0  0
    5.5103  -20.7127   23.1644 N   0  0  0  0  0  0  0  0  0  0  0  0
    7.8121  -21.4222   23.6509 C   0  0  0  0  0  0  0  0  0  0  0  0
    8.1366  -22.2430   22.7193 O   0  0  0  0  0  0  0  0  0  0  0  0
   10.3446  -19.2728   19.8258 N   0  0  0  0  0  0  0  0  0  0  0  0
   11.5955  -19.6468   20.3966 C   0  0  0  0  0  0  0  0  0  0  0  0
   12.6303  -19.5742   19.7091 O   0  0  0  0  0  0  0  0  0  0  0  0
   11.5778  -20.1114   21.8152 C   0  0  0  0  0  0  0  0  0  0  0  0
   10.1684  -20.0149   22.2997 C   0  0  0  0  0  0  0  0  0  0  0  0
   10.1000  -20.5133   23.7207 C   0  0  2  0  0  0  0  0  0  0  0  0
    8.7777  -20.5773   24.2436 N   0  0  0  0  0  0  0  0  0  0  0  0
   11.0448  -19.7181   24.5341 C   0  0  0  0  0  0  0  0  0  0  0  0
   11.0494  -18.4774   24.3715 O   0  0  0  0  0  0  0  0  0  0  0  0
   11.9378  -20.2808   25.4796 N   0  0  0  0  0  0  0  0  0  0  0  0
   11.7666  -20.2510   26.9165 C   0  0  1  0  0  0  0  0  0  0  0  0
   10.4085  -20.8354   27.2237 C   0  0  0  0  0  0  0  0  0  0  0  0
    9.3748  -19.8438   27.5232 C   0  0  0  0  0  0  0  0  0  0  0  0
    9.5149  -18.4793   27.3925 C   0  0  0  0  0  0  0  0  0  0  0  0
    8.3244  -17.9582   27.7738 N   0  0  0  0  0  0  0  0  0  0  0  0
    7.4822  -18.9463   28.1255 C   0  0  0  0  0  0  0  0  0  0  0  0
    8.1282  -20.1192   27.9722 N   0  0  0  0  0  0  0  0  0  0  0  0
   12.8684  -20.8810   27.6716 C   0  0  0  0  0  0  0  0  0  0  0  0
   13.3736  -22.1272   27.3806 O   0  0  0  0  0  0  0  0  0  0  0  0
   13.3702  -20.2423   28.6289 O   0  0  0  0  0  0  0  0  0  0  0  0
  1  2  1  0
  3  2  1  0
  4  5  1  0
  4  3  1  0
  5  6  1  6
  7  5  1  0
  8  7  2  0
 10  9  1  0
 10 12  1  0
 11 10  2  0
 13 12  1  0
 14 13  1  6
 14 15  1  0
 15  7  1  0
 16 14  1  0
 17 16  2  0
 18 16  1  0
 19 18  1  0
 19 20  1  6
 20 21  1  0
 21 22  2  0
 23 22  1  0
 24 23  1  0
 25 21  1  0
 25 24  2  0
 26 19  1  0
 26 27  1  0
 28 26  2  0
M  END
$$$$
