IHV.pdb
     RDKit          3D

 26 26  0  0  1  0  0  0  0  0999 V2000
    7.5112  -11.7530   19.1672 C   0  0  0  0  0  0  0  0  0  0  0  0
    8.0330  -13.1579   19.0936 C   0  0  0  0  0  0  0  0  0  0  0  0
    7.6891  -13.9488   20.3601 C   0  0  2  0  0  0  0  0  0  0  0  0
    8.4459  -13.3001   21.4994 C   0  0  0  0  0  0  0  0  0  0  0  0
    8.2585  -15.3395   20.1727 C   0  0  2  0  0  0  0  0  0  0  0  0
    7.5507  -15.9621   19.0775 N   0  0  0  0  0  0  0  0  0  0  0  0
    8.1253  -16.1350   21.4452 C   0  0  0  0  0  0  0  0  0  0  0  0
    6.9956  -16.6301   21.6804 O   0  0  0  0  0  0  0  0  0  0  0  0
    9.2564  -16.2618   22.2612 N   0  0  0  0  0  0  0  0  0  0  0  0
    9.1717  -16.9911   23.5752 C   0  0  1  0  0  0  0  0  0  0  0  0
   10.1727  -18.0758   23.5498 C   0  0  0  0  0  0  0  0  0  0  0  0
   10.3938  -18.8062   24.7989 C   0  0  0  0  0  0  0  0  0  0  0  0
    9.8031  -18.7562   26.0267 C   0  0  0  0  0  0  0  0  0  0  0  0
   10.3038  -19.7149   26.8214 N   0  0  0  0  0  0  0  0  0  0  0  0
   11.2164  -20.3895   26.1178 C   0  0  0  0  0  0  0  0  0  0  0  0
   11.2817  -19.8562   24.9019 N   0  0  0  0  0  0  0  0  0  0  0  0
    9.4100  -15.8774   24.5202 C   0  0  0  0  0  0  0  0  0  0  0  0
   10.4565  -15.1439   24.2732 O   0  0  0  0  0  0  0  0  0  0  0  0
    6.7910  -13.9597   26.9530 C   0  0  0  0  0  0  0  0  0  0  0  0
    8.0797  -13.2703   26.5577 C   0  0  1  0  0  0  0  0  0  0  0  0
    8.4133  -12.1460   27.4888 C   0  0  0  0  0  0  0  0  0  0  0  0
    9.1448  -14.3237   26.4742 C   0  0  2  0  0  0  0  0  0  0  0  0
    8.7144  -15.4574   25.6446 N   0  0  0  0  0  0  0  0  0  0  0  0
    9.3797  -14.8649   27.8378 C   0  0  0  0  0  0  0  0  0  0  0  0
   10.0877  -14.1206   28.7808 O   0  0  0  0  0  0  0  0  0  0  0  0
    8.9677  -15.9897   28.2108 O   0  0  0  0  0  0  0  0  0  0  0  0
  2  3  1  0
  2  1  1  0
  3  4  1  1
  5  6  1  6
  5  3  1  0
  7  5  1  0
  8  7  2  0
  9  7  1  0
 10  9  1  0
 11 12  1  0
 10 11  1  6
 12 16  1  0
 13 14  1  0
 13 12  2  0
 14 15  1  0
 15 16  2  0
 17 10  1  0
 17 18  2  0
 20 19  1  1
 20 22  1  0
 20 21  1  0
 22 23  1  6
 23 17  1  0
 24 22  1  0
 25 24  1  0
 26 24  2  0
M  END
$$$$
