IHV.pdb
     RDKit          3D

 26 26  0  0  1  0  0  0  0  0999 V2000
    7.5526  -11.8462   19.1943 C   0  0  0  0  0  0  0  0  0  0  0  0
    7.9819  -13.2840   19.1853 C   0  0  0  0  0  0  0  0  0  0  0  0
    7.6081  -13.9870   20.4945 C   0  0  2  0  0  0  0  0  0  0  0  0
    8.3605  -13.2791   21.6009 C   0  0  0  0  0  0  0  0  0  0  0  0
    8.1565  -15.3957   20.4038 C   0  0  2  0  0  0  0  0  0  0  0  0
    7.3965  -16.1011   19.3974 N   0  0  0  0  0  0  0  0  0  0  0  0
    8.0714  -16.0772   21.7448 C   0  0  0  0  0  0  0  0  0  0  0  0
    6.9441  -16.5184   22.0782 O   0  0  0  0  0  0  0  0  0  0  0  0
    9.2406  -16.1672   22.5104 N   0  0  0  0  0  0  0  0  0  0  0  0
    9.2163  -16.8187   23.8671 C   0  0  1  0  0  0  0  0  0  0  0  0
   10.3019  -17.8184   23.9025 C   0  0  0  0  0  0  0  0  0  0  0  0
   10.6280  -18.4003   25.2054 C   0  0  0  0  0  0  0  0  0  0  0  0
   11.5975  -18.1399   26.1280 C   0  0  0  0  0  0  0  0  0  0  0  0
   11.4088  -18.8916   27.2236 N   0  0  0  0  0  0  0  0  0  0  0  0
   10.3215  -19.6395   27.0202 C   0  0  0  0  0  0  0  0  0  0  0  0
    9.8414  -19.3559   25.8135 N   0  0  0  0  0  0  0  0  0  0  0  0
    9.3641  -15.6335   24.7407 C   0  0  0  0  0  0  0  0  0  0  0  0
   10.3027  -14.7979   24.4015 O   0  0  0  0  0  0  0  0  0  0  0  0
    7.6676  -12.5504   25.4476 C   0  0  0  0  0  0  0  0  0  0  0  0
    7.9664  -13.0884   26.8309 C   0  0  1  0  0  0  0  0  0  0  0  0
    6.7392  -13.6436   27.4851 C   0  0  0  0  0  0  0  0  0  0  0  0
    9.0821  -14.0823   26.6945 C   0  0  2  0  0  0  0  0  0  0  0  0
    8.6770  -15.2349   25.8781 N   0  0  0  0  0  0  0  0  0  0  0  0
    9.4061  -14.6146   28.0432 C   0  0  0  0  0  0  0  0  0  0  0  0
   10.0169  -13.7999   28.9959 O   0  0  0  0  0  0  0  0  0  0  0  0
    9.1571  -15.7930   28.3947 O   0  0  0  0  0  0  0  0  0  0  0  0
  2  3  1  0
  2  1  1  0
  3  4  1  1
  5  6  1  6
  5  3  1  0
  7  5  1  0
  8  7  2  0
  9  7  1  0
 10  9  1  0
 11 12  1  0
 10 11  1  6
 12 16  1  0
 13 14  1  0
 13 12  2  0
 14 15  1  0
 15 16  2  0
 17 10  1  0
 17 18  2  0
 20 19  1  6
 20 22  1  0
 20 21  1  0
 22 23  1  6
 23 17  1  0
 24 22  1  0
 25 24  1  0
 26 24  2  0
M  END
$$$$
