IHV.pdb
     RDKit          3D

 26 26  0  0  1  0  0  0  0  0999 V2000
    7.7361  -12.3014   19.1980 C   0  0  0  0  0  0  0  0  0  0  0  0
    7.8042  -13.7853   19.4101 C   0  0  0  0  0  0  0  0  0  0  0  0
    7.4666  -14.1589   20.8573 C   0  0  2  0  0  0  0  0  0  0  0  0
    8.5853  -13.6166   21.7210 C   0  0  0  0  0  0  0  0  0  0  0  0
    7.5224  -15.6700   20.9409 C   0  0  2  0  0  0  0  0  0  0  0  0
    6.4995  -16.1982   20.0675 N   0  0  0  0  0  0  0  0  0  0  0  0
    7.3266  -16.1225   22.3646 C   0  0  0  0  0  0  0  0  0  0  0  0
    6.1731  -15.9868   22.8417 O   0  0  0  0  0  0  0  0  0  0  0  0
    8.4311  -16.6540   23.0419 N   0  0  0  0  0  0  0  0  0  0  0  0
    8.2544  -17.3396   24.3702 C   0  0  1  0  0  0  0  0  0  0  0  0
    8.6176  -18.7593   24.1924 C   0  0  0  0  0  0  0  0  0  0  0  0
    7.5217  -19.7295   24.1789 C   0  0  0  0  0  0  0  0  0  0  0  0
    6.1640  -19.6044   24.1755 C   0  0  0  0  0  0  0  0  0  0  0  0
    5.5876  -20.8105   24.0562 N   0  0  0  0  0  0  0  0  0  0  0  0
    6.5621  -21.7202   23.9811 C   0  0  0  0  0  0  0  0  0  0  0  0
    7.7287  -21.0870   24.0531 N   0  0  0  0  0  0  0  0  0  0  0  0
    9.1448  -16.5186   25.2206 C   0  0  0  0  0  0  0  0  0  0  0  0
    9.9077  -15.6754   24.5871 O   0  0  0  0  0  0  0  0  0  0  0  0
    7.9967  -14.3489   27.7695 C   0  0  0  0  0  0  0  0  0  0  0  0
    9.3992  -14.1127   27.2505 C   0  0  1  0  0  0  0  0  0  0  0  0
   10.1003  -13.0375   28.0217 C   0  0  0  0  0  0  0  0  0  0  0  0
   10.1121  -15.4327   27.2671 C   0  0  2  0  0  0  0  0  0  0  0  0
    9.3251  -16.4761   26.5954 N   0  0  0  0  0  0  0  0  0  0  0  0
   10.2676  -15.8663   28.6796 C   0  0  0  0  0  0  0  0  0  0  0  0
    9.6196  -17.0109   29.1424 O   0  0  0  0  0  0  0  0  0  0  0  0
   10.9698  -15.2472   29.5149 O   0  0  0  0  0  0  0  0  0  0  0  0
  2  3  1  0
  2  1  1  0
  3  4  1  1
  5  6  1  6
  5  3  1  0
  7  5  1  0
  8  7  2  0
  9  7  1  0
 10  9  1  0
 11 12  1  0
 10 11  1  6
 12 16  1  0
 13 14  1  0
 13 12  2  0
 14 15  1  0
 15 16  2  0
 17 10  1  0
 17 18  2  0
 20 19  1  1
 20 22  1  0
 20 21  1  0
 22 23  1  6
 23 17  1  0
 24 22  1  0
 25 24  1  0
 26 24  2  0
M  END
$$$$
