IHV.pdb
     RDKit          3D

 26 26  0  0  1  0  0  0  0  0999 V2000
    7.8163  -11.9965   19.7433 C   0  0  0  0  0  0  0  0  0  0  0  0
    7.8725  -13.4943   19.6718 C   0  0  0  0  0  0  0  0  0  0  0  0
    7.6946  -14.1268   21.0561 C   0  0  2  0  0  0  0  0  0  0  0  0
    8.8468  -13.6418   21.9096 C   0  0  0  0  0  0  0  0  0  0  0  0
    7.8623  -15.6212   20.8764 C   0  0  2  0  0  0  0  0  0  0  0  0
    6.7955  -16.0849   20.0191 N   0  0  0  0  0  0  0  0  0  0  0  0
    7.8423  -16.3141   22.2140 C   0  0  0  0  0  0  0  0  0  0  0  0
    6.7253  -16.4072   22.7799 O   0  0  0  0  0  0  0  0  0  0  0  0
    9.0553  -16.7969   22.7210 N   0  0  0  0  0  0  0  0  0  0  0  0
    9.0891  -17.5706   24.0117 C   0  0  1  0  0  0  0  0  0  0  0  0
    9.8764  -18.7971   23.7773 C   0  0  0  0  0  0  0  0  0  0  0  0
   10.1934  -19.6178   24.9471 C   0  0  0  0  0  0  0  0  0  0  0  0
    9.4527  -20.0699   25.9988 C   0  0  0  0  0  0  0  0  0  0  0  0
   10.1902  -20.8850   26.7688 N   0  0  0  0  0  0  0  0  0  0  0  0
   11.4066  -20.9670   26.2241 C   0  0  0  0  0  0  0  0  0  0  0  0
   11.4241  -20.2121   25.1301 N   0  0  0  0  0  0  0  0  0  0  0  0
    9.6737  -16.5590   24.9199 C   0  0  0  0  0  0  0  0  0  0  0  0
   10.7206  -15.9329   24.4657 O   0  0  0  0  0  0  0  0  0  0  0  0
   10.2017  -13.3267   28.5096 C   0  0  0  0  0  0  0  0  0  0  0  0
    9.3008  -14.1284   27.5942 C   0  0  1  0  0  0  0  0  0  0  0  0
    8.6316  -13.2580   26.5760 C   0  0  0  0  0  0  0  0  0  0  0  0
   10.1300  -15.2283   26.9994 C   0  0  2  0  0  0  0  0  0  0  0  0
    9.3098  -16.1419   26.1920 N   0  0  0  0  0  0  0  0  0  0  0  0
   10.6992  -16.0400   28.1059 C   0  0  0  0  0  0  0  0  0  0  0  0
   11.7998  -15.5780   28.8269 O   0  0  0  0  0  0  0  0  0  0  0  0
   10.2378  -17.1556   28.4474 O   0  0  0  0  0  0  0  0  0  0  0  0
  2  3  1  0
  2  1  1  0
  3  4  1  1
  5  6  1  6
  5  3  1  0
  7  5  1  0
  8  7  2  0
  9  7  1  0
 10  9  1  0
 11 12  1  0
 10 11  1  6
 12 16  1  0
 13 14  1  0
 13 12  2  0
 14 15  1  0
 15 16  2  0
 17 10  1  0
 17 18  2  0
 20 19  1  6
 20 22  1  0
 20 21  1  0
 22 23  1  6
 23 17  1  0
 24 22  1  0
 25 24  1  0
 26 24  2  0
M  END
$$$$
