IHV.pdb
     RDKit          3D

 26 26  0  0  1  0  0  0  0  0999 V2000
    5.9152  -10.8378   26.5457 C   0  0  0  0  0  0  0  0  0  0  0  0
    5.5241  -12.0778   25.7966 C   0  0  0  0  0  0  0  0  0  0  0  0
    6.6462  -13.1211   25.8186 C   0  0  2  0  0  0  0  0  0  0  0  0
    7.7957  -12.5434   25.0207 C   0  0  0  0  0  0  0  0  0  0  0  0
    6.1325  -14.3286   25.0626 C   0  0  2  0  0  0  0  0  0  0  0  0
    4.9145  -14.7661   25.7053 N   0  0  0  0  0  0  0  0  0  0  0  0
    7.1744  -15.4167   25.0452 C   0  0  0  0  0  0  0  0  0  0  0  0
    7.2005  -16.1829   26.0396 O   0  0  0  0  0  0  0  0  0  0  0  0
    8.0257  -15.4923   23.9358 N   0  0  0  0  0  0  0  0  0  0  0  0
    9.0920  -16.5522   23.8627 C   0  0  1  0  0  0  0  0  0  0  0  0
    9.6901  -16.4925   22.5144 C   0  0  0  0  0  0  0  0  0  0  0  0
   10.7284  -17.4762   22.2032 C   0  0  0  0  0  0  0  0  0  0  0  0
   11.2280  -18.5512   22.8768 C   0  0  0  0  0  0  0  0  0  0  0  0
   12.1151  -19.2061   22.1119 N   0  0  0  0  0  0  0  0  0  0  0  0
   12.1955  -18.5643   20.9437 C   0  0  0  0  0  0  0  0  0  0  0  0
   11.3690  -17.5239   20.9830 N   0  0  0  0  0  0  0  0  0  0  0  0
    9.9518  -16.1517   24.9986 C   0  0  0  0  0  0  0  0  0  0  0  0
   10.6637  -15.0777   24.8143 O   0  0  0  0  0  0  0  0  0  0  0  0
   11.3739  -15.2582   29.4549 C   0  0  0  0  0  0  0  0  0  0  0  0
   10.4299  -15.3597   28.2755 C   0  0  1  0  0  0  0  0  0  0  0  0
    9.9981  -14.0087   27.7952 C   0  0  0  0  0  0  0  0  0  0  0  0
   11.1114  -16.1863   27.2251 C   0  0  2  0  0  0  0  0  0  0  0  0
   10.1478  -16.7163   26.2506 N   0  0  0  0  0  0  0  0  0  0  0  0
   11.7351  -17.3632   27.8833 C   0  0  0  0  0  0  0  0  0  0  0  0
   12.9519  -17.2357   28.5524 O   0  0  0  0  0  0  0  0  0  0  0  0
   11.2200  -18.5072   27.8766 O   0  0  0  0  0  0  0  0  0  0  0  0
  2  3  1  0
  2  1  1  0
  3  4  1  6
  5  6  1  1
  5  3  1  0
  7  5  1  0
  8  7  2  0
  9  7  1  0
 10  9  1  0
 11 12  1  0
 10 11  1  6
 12 16  1  0
 13 14  1  0
 13 12  2  0
 14 15  1  0
 15 16  2  0
 17 10  1  0
 17 18  2  0
 20 19  1  1
 20 22  1  0
 20 21  1  0
 22 23  1  6
 23 17  1  0
 24 22  1  0
 25 24  1  0
 26 24  2  0
M  END
$$$$
