IHV.pdb
     RDKit          3D

 26 26  0  0  1  0  0  0  0  0999 V2000
    6.1192  -10.4883   26.6890 C   0  0  0  0  0  0  0  0  0  0  0  0
    5.6185  -11.7215   25.9960 C   0  0  0  0  0  0  0  0  0  0  0  0
    6.6731  -12.8331   26.0024 C   0  0  2  0  0  0  0  0  0  0  0  0
    7.8473  -12.3262   25.1925 C   0  0  0  0  0  0  0  0  0  0  0  0
    6.0760  -14.0036   25.2496 C   0  0  2  0  0  0  0  0  0  0  0  0
    4.8745  -14.4076   25.9432 N   0  0  0  0  0  0  0  0  0  0  0  0
    7.0721  -15.1303   25.1595 C   0  0  0  0  0  0  0  0  0  0  0  0
    7.0859  -15.9434   26.1163 O   0  0  0  0  0  0  0  0  0  0  0  0
    7.8984  -15.1870   24.0302 N   0  0  0  0  0  0  0  0  0  0  0  0
    8.8947  -16.3036   23.8685 C   0  0  1  0  0  0  0  0  0  0  0  0
    9.3774  -16.2737   22.4738 C   0  0  0  0  0  0  0  0  0  0  0  0
   10.3533  -17.2933   22.0857 C   0  0  0  0  0  0  0  0  0  0  0  0
   10.9050  -18.3546   22.7401 C   0  0  0  0  0  0  0  0  0  0  0  0
   11.6854  -19.0588   21.9058 N   0  0  0  0  0  0  0  0  0  0  0  0
   11.6444  -18.4628   20.7116 C   0  0  0  0  0  0  0  0  0  0  0  0
   10.8488  -17.4018   20.8035 N   0  0  0  0  0  0  0  0  0  0  0  0
    9.8692  -15.9537   24.9257 C   0  0  0  0  0  0  0  0  0  0  0  0
   10.5476  -14.8609   24.7264 O   0  0  0  0  0  0  0  0  0  0  0  0
   10.3001  -13.9698   27.4265 C   0  0  0  0  0  0  0  0  0  0  0  0
   10.8172  -15.2373   28.0734 C   0  0  1  0  0  0  0  0  0  0  0  0
    9.7839  -15.8702   28.9531 C   0  0  0  0  0  0  0  0  0  0  0  0
   11.3085  -16.1335   26.9749 C   0  0  2  0  0  0  0  0  0  0  0  0
   10.2048  -16.5834   26.1155 N   0  0  0  0  0  0  0  0  0  0  0  0
   11.8893  -17.3555   27.5886 C   0  0  0  0  0  0  0  0  0  0  0  0
   13.0465  -17.2755   28.3625 O   0  0  0  0  0  0  0  0  0  0  0  0
   11.3886  -18.4977   27.4512 O   0  0  0  0  0  0  0  0  0  0  0  0
  2  3  1  0
  2  1  1  0
  3  4  1  6
  5  6  1  1
  5  3  1  0
  7  5  1  0
  8  7  2  0
  9  7  1  0
 10  9  1  0
 11 12  1  0
 10 11  1  6
 12 16  1  0
 13 14  1  0
 13 12  2  0
 14 15  1  0
 15 16  2  0
 17 10  1  0
 17 18  2  0
 20 19  1  6
 20 22  1  0
 20 21  1  0
 22 23  1  6
 23 17  1  0
 24 22  1  0
 25 24  1  0
 26 24  2  0
M  END
$$$$
