IHV.pdb
     RDKit          3D

 26 26  0  0  1  0  0  0  0  0999 V2000
    7.8895  -12.0763   18.5979 C   0  0  0  0  0  0  0  0  0  0  0  0
    8.1324  -13.5443   18.7919 C   0  0  0  0  0  0  0  0  0  0  0  0
    7.5567  -14.0345   20.1246 C   0  0  2  0  0  0  0  0  0  0  0  0
    8.3463  -13.3501   21.2199 C   0  0  0  0  0  0  0  0  0  0  0  0
    7.8567  -15.5165   20.2092 C   0  0  2  0  0  0  0  0  0  0  0  0
    7.0859  -16.1819   19.1840 N   0  0  0  0  0  0  0  0  0  0  0  0
    7.5248  -16.0396   21.5825 C   0  0  0  0  0  0  0  0  0  0  0  0
    6.3082  -16.0684   21.8919 O   0  0  0  0  0  0  0  0  0  0  0  0
    8.5838  -16.4498   22.4021 N   0  0  0  0  0  0  0  0  0  0  0  0
    8.3155  -17.0058   23.7749 C   0  0  1  0  0  0  0  0  0  0  0  0
    9.2028  -18.1698   23.9671 C   0  0  0  0  0  0  0  0  0  0  0  0
    9.2423  -18.7622   25.3050 C   0  0  0  0  0  0  0  0  0  0  0  0
    8.2753  -19.1917   26.1648 C   0  0  0  0  0  0  0  0  0  0  0  0
    8.8340  -19.7594   27.2449 N   0  0  0  0  0  0  0  0  0  0  0  0
   10.1595  -19.7030   27.0929 C   0  0  0  0  0  0  0  0  0  0  0  0
   10.4202  -19.1075   25.9334 N   0  0  0  0  0  0  0  0  0  0  0  0
    8.5811  -15.8122   24.6083 C   0  0  0  0  0  0  0  0  0  0  0  0
    9.5971  -15.0853   24.2429 O   0  0  0  0  0  0  0  0  0  0  0  0
    7.7754  -12.1130   27.6866 C   0  0  0  0  0  0  0  0  0  0  0  0
    7.2385  -13.2129   26.7954 C   0  0  1  0  0  0  0  0  0  0  0  0
    6.5138  -12.6583   25.6083 C   0  0  0  0  0  0  0  0  0  0  0  0
    8.3914  -14.1045   26.4388 C   0  0  2  0  0  0  0  0  0  0  0  0
    7.9386  -15.3096   25.7305 N   0  0  0  0  0  0  0  0  0  0  0  0
    9.0325  -14.5706   27.6955 C   0  0  0  0  0  0  0  0  0  0  0  0
   10.0383  -13.8153   28.2974 O   0  0  0  0  0  0  0  0  0  0  0  0
    8.7168  -15.6389   28.2725 O   0  0  0  0  0  0  0  0  0  0  0  0
  2  3  1  0
  2  1  1  0
  3  4  1  1
  5  6  1  6
  5  3  1  0
  7  5  1  0
  8  7  2  0
  9  7  1  0
 10  9  1  0
 11 12  1  0
 10 11  1  1
 12 16  1  0
 13 14  1  0
 13 12  2  0
 14 15  1  0
 15 16  2  0
 17 10  1  0
 17 18  2  0
 20 19  1  6
 20 22  1  0
 20 21  1  0
 22 23  1  1
 23 17  1  0
 24 22  1  0
 25 24  1  0
 26 24  2  0
M  END
$$$$
