GWY.pdb
     RDKit          3D

 31 33  0  0  1  0  0  0  0  0999 V2000
    7.2055  -20.6444   22.4523 N   0  0  0  0  0  0  0  0  0  0  0  0
    8.1585  -19.9670   23.2987 C   0  0  0  0  0  0  0  0  0  0  0  0
    8.5375  -18.6403   22.7901 C   0  0  0  0  0  0  0  0  0  0  0  0
    9.1817  -18.5846   21.7142 O   0  0  0  0  0  0  0  0  0  0  0  0
    8.2280  -17.4210   23.4256 N   0  0  0  0  0  0  0  0  0  0  0  0
    8.6560  -16.1099   22.9419 C   0  0  1  0  0  0  0  0  0  0  0  0
    7.5368  -15.1387   22.9384 C   0  0  0  0  0  0  0  0  0  0  0  0
    6.9508  -14.8027   24.2485 C   0  0  0  0  0  0  0  0  0  0  0  0
    6.3493  -15.6883   25.1386 C   0  0  0  0  0  0  0  0  0  0  0  0
    5.9895  -15.0152   26.2302 N   0  0  0  0  0  0  0  0  0  0  0  0
    6.3189  -13.7187   26.1176 C   0  0  0  0  0  0  0  0  0  0  0  0
    6.1492  -12.6354   26.9603 C   0  0  0  0  0  0  0  0  0  0  0  0
    6.5812  -11.3968   26.5676 C   0  0  0  0  0  0  0  0  0  0  0  0
    7.1867  -11.1992   25.3420 C   0  0  0  0  0  0  0  0  0  0  0  0
    7.3452  -12.2984   24.5177 C   0  0  0  0  0  0  0  0  0  0  0  0
    6.9246  -13.5853   24.8677 C   0  0  0  0  0  0  0  0  0  0  0  0
    9.8453  -15.6733   23.6593 C   0  0  0  0  0  0  0  0  0  0  0  0
   10.0496  -14.4553   23.9852 O   0  0  0  0  0  0  0  0  0  0  0  0
    9.1568  -14.7542   29.8072 O   0  0  0  0  0  0  0  0  0  0  0  0
   10.0167  -15.1842   28.7972 C   0  0  0  0  0  0  0  0  0  0  0  0
   10.5617  -14.2974   27.9046 C   0  0  0  0  0  0  0  0  0  0  0  0
   11.4212  -14.7131   26.8918 C   0  0  0  0  0  0  0  0  0  0  0  0
   11.7602  -16.0491   26.7474 C   0  0  0  0  0  0  0  0  0  0  0  0
   12.6562  -16.5577   25.6985 C   0  0  0  0  0  0  0  0  0  0  0  0
   12.2627  -16.0528   24.2917 C   0  0  2  0  0  0  0  0  0  0  0  0
   10.9066  -16.5615   24.0840 N   0  0  0  0  0  0  0  0  0  0  0  0
   13.1911  -16.6194   23.3100 C   0  0  0  0  0  0  0  0  0  0  0  0
   12.8675  -17.6379   22.4400 O   0  0  0  0  0  0  0  0  0  0  0  0
   11.2038  -16.9304   27.6543 C   0  0  0  0  0  0  0  0  0  0  0  0
   10.3477  -16.5240   28.6648 C   0  0  0  0  0  0  0  0  0  0  0  0
   14.3615  -16.1613   23.2441 O   0  0  0  0  0  0  0  0  0  0  0  0
  2  1  1  0
  3  4  2  0
  3  2  1  0
  5  3  1  0
  6  5  1  0
  6  7  1  1
  8 16  1  0
  8  7  1  0
  9  8  2  0
 10  9  1  0
 10 11  1  0
 11 16  2  0
 12 11  1  0
 12 13  2  0
 13 14  1  0
 14 15  2  0
 16 15  1  0
 17 26  1  0
 17  6  1  0
 18 17  2  0
 19 20  1  0
 20 21  2  0
 21 22  1  0
 23 22  2  0
 23 24  1  0
 25 24  1  1
 25 27  1  0
 25 26  1  0
 27 28  1  0
 29 23  1  0
 30 20  1  0
 30 29  2  0
 31 27  2  0
M  END
$$$$
