GWY.pdb
     RDKit          3D

 31 33  0  0  1  0  0  0  0  0999 V2000
    7.3954  -18.5408   19.1017 N   0  0  0  0  0  0  0  0  0  0  0  0
    6.6552  -17.9943   20.2138 C   0  0  0  0  0  0  0  0  0  0  0  0
    7.5007  -17.2415   21.1524 C   0  0  0  0  0  0  0  0  0  0  0  0
    8.7087  -17.5685   21.2482 O   0  0  0  0  0  0  0  0  0  0  0  0
    7.0512  -16.1742   21.9556 N   0  0  0  0  0  0  0  0  0  0  0  0
    7.8726  -15.4951   22.9556 C   0  0  1  0  0  0  0  0  0  0  0  0
    7.1765  -14.3164   23.5230 C   0  0  0  0  0  0  0  0  0  0  0  0
    7.7084  -13.7826   24.7898 C   0  0  0  0  0  0  0  0  0  0  0  0
    8.9463  -14.0738   25.3566 C   0  0  0  0  0  0  0  0  0  0  0  0
    9.0809  -13.3606   26.4734 N   0  0  0  0  0  0  0  0  0  0  0  0
    7.9927  -12.6038   26.6865 C   0  0  0  0  0  0  0  0  0  0  0  0
    7.6533  -11.7189   27.6935 C   0  0  0  0  0  0  0  0  0  0  0  0
    6.4402  -11.0848   27.6583 C   0  0  0  0  0  0  0  0  0  0  0  0
    5.5392  -11.3077   26.6353 C   0  0  0  0  0  0  0  0  0  0  0  0
    5.9025  -12.1966   25.6400 C   0  0  0  0  0  0  0  0  0  0  0  0
    7.1276  -12.8707   25.6248 C   0  0  0  0  0  0  0  0  0  0  0  0
    8.3607  -16.4516   23.9387 C   0  0  0  0  0  0  0  0  0  0  0  0
    7.6290  -17.3775   24.4270 O   0  0  0  0  0  0  0  0  0  0  0  0
   12.1266  -23.2655   27.5025 O   0  0  0  0  0  0  0  0  0  0  0  0
   11.6428  -22.1688   26.7901 C   0  0  0  0  0  0  0  0  0  0  0  0
   10.3932  -21.6597   27.0342 C   0  0  0  0  0  0  0  0  0  0  0  0
    9.8981  -20.5658   26.3304 C   0  0  0  0  0  0  0  0  0  0  0  0
   10.6559  -19.9462   25.3493 C   0  0  0  0  0  0  0  0  0  0  0  0
   10.1937  -18.7920   24.5646 C   0  0  0  0  0  0  0  0  0  0  0  0
   10.1378  -17.4944   25.4024 C   0  0  2  0  0  0  0  0  0  0  0  0
    9.7129  -16.4629   24.4557 N   0  0  0  0  0  0  0  0  0  0  0  0
   11.4781  -17.2095   25.9213 C   0  0  0  0  0  0  0  0  0  0  0  0
   11.9024  -17.5454   27.1886 O   0  0  0  0  0  0  0  0  0  0  0  0
   11.9126  -20.4700   25.1151 C   0  0  0  0  0  0  0  0  0  0  0  0
   12.4122  -21.5583   25.8115 C   0  0  0  0  0  0  0  0  0  0  0  0
   12.3060  -16.6206   25.1784 O   0  0  0  0  0  0  0  0  0  0  0  0
  2  1  1  0
  3  4  2  0
  3  2  1  0
  5  3  1  0
  6  5  1  0
  6  7  1  1
  8 16  1  0
  8  7  1  0
  9  8  2  0
 10  9  1  0
 10 11  1  0
 11 16  2  0
 12 11  1  0
 12 13  2  0
 13 14  1  0
 14 15  2  0
 16 15  1  0
 17 26  1  0
 17  6  1  0
 18 17  2  0
 19 20  1  0
 20 21  2  0
 21 22  1  0
 23 22  2  0
 23 24  1  0
 25 24  1  6
 25 27  1  0
 25 26  1  0
 27 28  1  0
 29 23  1  0
 30 20  1  0
 30 29  2  0
 31 27  2  0
M  END
$$$$
