GWY.pdb
     RDKit          3D

 31 33  0  0  1  0  0  0  0  0999 V2000
    7.3749  -20.3933   21.1022 N   0  0  0  0  0  0  0  0  0  0  0  0
    7.1497  -19.4431   22.1652 C   0  0  0  0  0  0  0  0  0  0  0  0
    7.9321  -18.2081   22.0072 C   0  0  0  0  0  0  0  0  0  0  0  0
    8.8117  -18.1792   21.1122 O   0  0  0  0  0  0  0  0  0  0  0  0
    7.7650  -17.0488   22.7910 N   0  0  0  0  0  0  0  0  0  0  0  0
    8.6284  -15.8721   22.7131 C   0  0  1  0  0  0  0  0  0  0  0  0
    7.8588  -14.6189   22.8951 C   0  0  0  0  0  0  0  0  0  0  0  0
    7.0760  -14.5000   24.1383 C   0  0  0  0  0  0  0  0  0  0  0  0
    6.3845  -15.5222   24.7828 C   0  0  0  0  0  0  0  0  0  0  0  0
    5.8446  -15.0331   25.8978 N   0  0  0  0  0  0  0  0  0  0  0  0
    6.1385  -13.7303   26.0348 C   0  0  0  0  0  0  0  0  0  0  0  0
    5.8076  -12.7946   26.9977 C   0  0  0  0  0  0  0  0  0  0  0  0
    6.2459  -11.5039   26.8676 C   0  0  0  0  0  0  0  0  0  0  0  0
    7.0159  -11.1086   25.7911 C   0  0  0  0  0  0  0  0  0  0  0  0
    7.3336  -12.0632   24.8421 C   0  0  0  0  0  0  0  0  0  0  0  0
    6.9145  -13.3948   24.9248 C   0  0  0  0  0  0  0  0  0  0  0  0
    9.7697  -16.0262   23.6039 C   0  0  0  0  0  0  0  0  0  0  0  0
    9.7745  -16.8388   24.5892 O   0  0  0  0  0  0  0  0  0  0  0  0
   10.2732  -14.5617   30.2384 O   0  0  0  0  0  0  0  0  0  0  0  0
   10.6278  -15.0915   28.9983 C   0  0  0  0  0  0  0  0  0  0  0  0
   10.9068  -14.2756   27.9321 C   0  0  0  0  0  0  0  0  0  0  0  0
   11.2618  -14.7912   26.6890 C   0  0  0  0  0  0  0  0  0  0  0  0
   11.3469  -16.1588   26.4816 C   0  0  0  0  0  0  0  0  0  0  0  0
   11.7099  -16.7709   25.1951 C   0  0  0  0  0  0  0  0  0  0  0  0
   12.2152  -15.7307   24.1696 C   0  0  2  0  0  0  0  0  0  0  0  0
   11.0098  -15.2921   23.4657 N   0  0  0  0  0  0  0  0  0  0  0  0
   13.1485  -16.3882   23.2511 C   0  0  0  0  0  0  0  0  0  0  0  0
   14.4571  -16.6866   23.5634 O   0  0  0  0  0  0  0  0  0  0  0  0
   11.0635  -16.9678   27.5651 C   0  0  0  0  0  0  0  0  0  0  0  0
   10.7096  -16.4620   28.8052 C   0  0  0  0  0  0  0  0  0  0  0  0
   12.7484  -16.7059   22.1009 O   0  0  0  0  0  0  0  0  0  0  0  0
  2  1  1  0
  3  4  2  0
  3  2  1  0
  5  3  1  0
  6  5  1  0
  6  7  1  1
  8 16  1  0
  8  7  1  0
  9  8  2  0
 10  9  1  0
 10 11  1  0
 11 16  2  0
 12 11  1  0
 12 13  2  0
 13 14  1  0
 14 15  2  0
 16 15  1  0
 17 26  1  0
 17  6  1  0
 18 17  2  0
 19 20  1  0
 20 21  2  0
 21 22  1  0
 23 22  2  0
 23 24  1  0
 25 24  1  1
 25 27  1  0
 25 26  1  0
 27 28  1  0
 29 23  1  0
 30 20  1  0
 30 29  2  0
 31 27  2  0
M  END
$$$$
