GWY.pdb
     RDKit          3D

 31 33  0  0  1  0  0  0  0  0999 V2000
    6.4709  -15.3481   19.1371 N   0  0  0  0  0  0  0  0  0  0  0  0
    6.8707  -16.2891   20.1560 C   0  0  0  0  0  0  0  0  0  0  0  0
    7.7717  -15.7019   21.1588 C   0  0  0  0  0  0  0  0  0  0  0  0
    8.1715  -14.5265   20.9741 O   0  0  0  0  0  0  0  0  0  0  0  0
    8.2208  -16.3659   22.3180 N   0  0  0  0  0  0  0  0  0  0  0  0
    9.0339  -15.7421   23.3600 C   0  0  1  0  0  0  0  0  0  0  0  0
    8.5044  -16.0353   24.7126 C   0  0  0  0  0  0  0  0  0  0  0  0
    7.3917  -15.1907   25.1830 C   0  0  0  0  0  0  0  0  0  0  0  0
    6.1674  -15.6330   25.6768 C   0  0  0  0  0  0  0  0  0  0  0  0
    5.4490  -14.5731   26.0436 N   0  0  0  0  0  0  0  0  0  0  0  0
    6.1303  -13.4382   25.8197 C   0  0  0  0  0  0  0  0  0  0  0  0
    5.8166  -12.1060   26.0180 C   0  0  0  0  0  0  0  0  0  0  0  0
    6.7222  -11.1380   25.6751 C   0  0  0  0  0  0  0  0  0  0  0  0
    7.9508  -11.4596   25.1317 C   0  0  0  0  0  0  0  0  0  0  0  0
    8.2407  -12.7988   24.9438 C   0  0  0  0  0  0  0  0  0  0  0  0
    7.3549  -13.8284   25.2766 C   0  0  0  0  0  0  0  0  0  0  0  0
   10.4387  -16.0718   23.1661 C   0  0  0  0  0  0  0  0  0  0  0  0
   10.8253  -17.1028   22.5190 O   0  0  0  0  0  0  0  0  0  0  0  0
   11.2318  -17.6004   30.9848 O   0  0  0  0  0  0  0  0  0  0  0  0
   11.3180  -16.9301   29.7652 C   0  0  0  0  0  0  0  0  0  0  0  0
   12.5051  -16.8474   29.0838 C   0  0  0  0  0  0  0  0  0  0  0  0
   12.6051  -16.1814   27.8657 C   0  0  0  0  0  0  0  0  0  0  0  0
   11.4999  -15.5727   27.2925 C   0  0  0  0  0  0  0  0  0  0  0  0
   11.5354  -14.8487   26.0133 C   0  0  0  0  0  0  0  0  0  0  0  0
   12.2332  -15.6586   24.8972 C   0  0  2  0  0  0  0  0  0  0  0  0
   11.5352  -15.2724   23.6707 N   0  0  0  0  0  0  0  0  0  0  0  0
   12.0593  -17.0874   25.1716 C   0  0  0  0  0  0  0  0  0  0  0  0
   10.8455  -17.7386   25.1315 O   0  0  0  0  0  0  0  0  0  0  0  0
   10.3111  -15.6649   27.9903 C   0  0  0  0  0  0  0  0  0  0  0  0
   10.2039  -16.3260   29.2030 C   0  0  0  0  0  0  0  0  0  0  0  0
   13.0694  -17.7782   25.4655 O   0  0  0  0  0  0  0  0  0  0  0  0
  2  1  1  0
  3  4  2  0
  3  2  1  0
  5  3  1  0
  6  5  1  0
  6  7  1  1
  8 16  1  0
  8  7  1  0
  9  8  2  0
 10  9  1  0
 10 11  1  0
 11 16  2  0
 12 11  1  0
 12 13  2  0
 13 14  1  0
 14 15  2  0
 16 15  1  0
 17 26  1  0
 17  6  1  0
 18 17  2  0
 19 20  1  0
 20 21  2  0
 21 22  1  0
 23 22  2  0
 23 24  1  0
 25 24  1  1
 25 27  1  0
 25 26  1  0
 27 28  1  0
 29 23  1  0
 30 20  1  0
 30 29  2  0
 31 27  2  0
M  END
$$$$
