GWY.pdb
     RDKit          3D

 31 33  0  0  1  0  0  0  0  0999 V2000
   10.0380  -16.4189   17.4502 N   0  0  0  0  0  0  0  0  0  0  0  0
    9.5577  -17.2245   18.5474 C   0  0  0  0  0  0  0  0  0  0  0  0
    9.3516  -16.4511   19.7810 C   0  0  0  0  0  0  0  0  0  0  0  0
    9.9262  -15.3396   19.8815 O   0  0  0  0  0  0  0  0  0  0  0  0
    8.5516  -16.8688   20.8635 N   0  0  0  0  0  0  0  0  0  0  0  0
    8.4838  -16.1788   22.1501 C   0  0  1  0  0  0  0  0  0  0  0  0
    7.2272  -16.4918   22.8705 C   0  0  0  0  0  0  0  0  0  0  0  0
    6.9008  -15.6402   24.0285 C   0  0  0  0  0  0  0  0  0  0  0  0
    6.5832  -16.0743   25.3126 C   0  0  0  0  0  0  0  0  0  0  0  0
    6.4003  -15.0076   26.0889 N   0  0  0  0  0  0  0  0  0  0  0  0
    6.5786  -13.8760   25.3891 C   0  0  0  0  0  0  0  0  0  0  0  0
    6.4910  -12.5400   25.7356 C   0  0  0  0  0  0  0  0  0  0  0  0
    6.7157  -11.5777   24.7878 C   0  0  0  0  0  0  0  0  0  0  0  0
    7.0300  -11.9088   23.4841 C   0  0  0  0  0  0  0  0  0  0  0  0
    7.1120  -13.2516   23.1630 C   0  0  0  0  0  0  0  0  0  0  0  0
    6.8937  -14.2756   24.0899 C   0  0  0  0  0  0  0  0  0  0  0  0
    9.7024  -16.4137   22.9113 C   0  0  0  0  0  0  0  0  0  0  0  0
   10.2185  -17.5735   23.0520 O   0  0  0  0  0  0  0  0  0  0  0  0
   11.1095  -16.1046   31.3346 O   0  0  0  0  0  0  0  0  0  0  0  0
   10.7986  -15.8728   29.9952 C   0  0  0  0  0  0  0  0  0  0  0  0
   10.8568  -14.6110   29.4618 C   0  0  0  0  0  0  0  0  0  0  0  0
   10.5489  -14.3658   28.1267 C   0  0  0  0  0  0  0  0  0  0  0  0
   10.1693  -15.3960   27.2811 C   0  0  0  0  0  0  0  0  0  0  0  0
    9.8253  -15.2077   25.8641 C   0  0  0  0  0  0  0  0  0  0  0  0
   10.9907  -15.5819   24.9203 C   0  0  2  0  0  0  0  0  0  0  0  0
   10.4567  -15.3711   23.5745 N   0  0  0  0  0  0  0  0  0  0  0  0
   11.3364  -16.9898   25.1324 C   0  0  0  0  0  0  0  0  0  0  0  0
   12.4487  -17.4153   25.8257 O   0  0  0  0  0  0  0  0  0  0  0  0
   10.1158  -16.6615   27.8327 C   0  0  0  0  0  0  0  0  0  0  0  0
   10.4207  -16.9133   29.1604 C   0  0  0  0  0  0  0  0  0  0  0  0
   10.5835  -17.8796   24.6577 O   0  0  0  0  0  0  0  0  0  0  0  0
  2  1  1  0
  3  4  2  0
  3  2  1  0
  5  3  1  0
  6  5  1  0
  6  7  1  1
  8 16  1  0
  8  7  1  0
  9  8  2  0
 10  9  1  0
 10 11  1  0
 11 16  2  0
 12 11  1  0
 12 13  2  0
 13 14  1  0
 14 15  2  0
 16 15  1  0
 17 26  1  0
 17  6  1  0
 18 17  2  0
 19 20  1  0
 20 21  2  0
 21 22  1  0
 23 22  2  0
 23 24  1  0
 25 24  1  1
 25 27  1  0
 25 26  1  0
 27 28  1  0
 29 23  1  0
 30 20  1  0
 30 29  2  0
 31 27  2  0
M  END
$$$$
