GWY.pdb
     RDKit          3D

 31 33  0  0  1  0  0  0  0  0999 V2000
    4.0220  -19.7715   21.8764 N   0  0  0  0  0  0  0  0  0  0  0  0
    5.1138  -19.8263   22.8189 C   0  0  0  0  0  0  0  0  0  0  0  0
    5.6794  -18.5029   23.1207 C   0  0  0  0  0  0  0  0  0  0  0  0
    5.3667  -17.5448   22.3725 O   0  0  0  0  0  0  0  0  0  0  0  0
    6.5508  -18.2307   24.1945 N   0  0  0  0  0  0  0  0  0  0  0  0
    7.2216  -16.9493   24.4044 C   0  0  1  0  0  0  0  0  0  0  0  0
    7.2283  -16.5660   25.8358 C   0  0  0  0  0  0  0  0  0  0  0  0
    6.7797  -15.1986   26.1548 C   0  0  0  0  0  0  0  0  0  0  0  0
    5.4617  -14.7634   26.2633 C   0  0  0  0  0  0  0  0  0  0  0  0
    5.4658  -13.4780   26.6121 N   0  0  0  0  0  0  0  0  0  0  0  0
    6.7232  -13.0264   26.7428 C   0  0  0  0  0  0  0  0  0  0  0  0
    7.2409  -11.7867   27.0710 C   0  0  0  0  0  0  0  0  0  0  0  0
    8.5978  -11.6088   27.1148 C   0  0  0  0  0  0  0  0  0  0  0  0
    9.4703  -12.6431   26.8375 C   0  0  0  0  0  0  0  0  0  0  0  0
    8.9277  -13.8731   26.5125 C   0  0  0  0  0  0  0  0  0  0  0  0
    7.5511  -14.1117   26.4538 C   0  0  0  0  0  0  0  0  0  0  0  0
    8.5295  -16.9560   23.7648 C   0  0  0  0  0  0  0  0  0  0  0  0
    9.2470  -18.0081   23.6661 O   0  0  0  0  0  0  0  0  0  0  0  0
    6.7643  -14.4174   17.4837 O   0  0  0  0  0  0  0  0  0  0  0  0
    7.6934  -14.4523   18.5229 C   0  0  0  0  0  0  0  0  0  0  0  0
    7.5827  -13.6130   19.6016 C   0  0  0  0  0  0  0  0  0  0  0  0
    8.5030  -13.6373   20.6455 C   0  0  0  0  0  0  0  0  0  0  0  0
    9.5733  -14.5177   20.6327 C   0  0  0  0  0  0  0  0  0  0  0  0
   10.5843  -14.5929   21.6976 C   0  0  0  0  0  0  0  0  0  0  0  0
   10.4614  -15.8854   22.5363 C   0  0  2  0  0  0  0  0  0  0  0  0
    9.1465  -15.7889   23.1707 N   0  0  0  0  0  0  0  0  0  0  0  0
   11.5282  -15.8995   23.5406 C   0  0  0  0  0  0  0  0  0  0  0  0
   12.8503  -16.1667   23.2583 O   0  0  0  0  0  0  0  0  0  0  0  0
    9.6711  -15.3572   19.5399 C   0  0  0  0  0  0  0  0  0  0  0  0
    8.7591  -15.3388   18.4973 C   0  0  0  0  0  0  0  0  0  0  0  0
   11.2375  -15.6567   24.7408 O   0  0  0  0  0  0  0  0  0  0  0  0
  2  1  1  0
  3  4  2  0
  3  2  1  0
  5  3  1  0
  6  5  1  0
  6  7  1  1
  8 16  1  0
  8  7  1  0
  9  8  2  0
 10  9  1  0
 10 11  1  0
 11 16  2  0
 12 11  1  0
 12 13  2  0
 13 14  1  0
 14 15  2  0
 16 15  1  0
 17 26  1  0
 17  6  1  0
 18 17  2  0
 19 20  1  0
 20 21  2  0
 21 22  1  0
 23 22  2  0
 23 24  1  0
 25 24  1  6
 25 27  1  0
 25 26  1  0
 27 28  1  0
 29 23  1  0
 30 20  1  0
 30 29  2  0
 31 27  2  0
M  END
$$$$
