GWY.pdb
     RDKit          3D

 31 33  0  0  1  0  0  0  0  0999 V2000
    9.9724  -16.5358   17.4669 N   0  0  0  0  0  0  0  0  0  0  0  0
    9.6804  -17.2811   18.6680 C   0  0  0  0  0  0  0  0  0  0  0  0
    9.4512  -16.4195   19.8375 C   0  0  0  0  0  0  0  0  0  0  0  0
   10.0011  -15.2912   19.8538 O   0  0  0  0  0  0  0  0  0  0  0  0
    8.6548  -16.7699   20.9462 N   0  0  0  0  0  0  0  0  0  0  0  0
    8.4961  -15.9408   22.1394 C   0  0  1  0  0  0  0  0  0  0  0  0
    7.1283  -16.0480   22.6991 C   0  0  0  0  0  0  0  0  0  0  0  0
    6.8797  -15.3483   23.9724 C   0  0  0  0  0  0  0  0  0  0  0  0
    6.6598  -15.9398   25.2134 C   0  0  0  0  0  0  0  0  0  0  0  0
    6.5249  -14.9780   26.1249 N   0  0  0  0  0  0  0  0  0  0  0  0
    6.6424  -13.7672   25.5571 C   0  0  0  0  0  0  0  0  0  0  0  0
    6.5690  -12.4846   26.0691 C   0  0  0  0  0  0  0  0  0  0  0  0
    6.7162  -11.4111   25.2319 C   0  0  0  0  0  0  0  0  0  0  0  0
    6.9377  -11.5768   23.8786 C   0  0  0  0  0  0  0  0  0  0  0  0
    7.0074  -12.8693   23.3914 C   0  0  0  0  0  0  0  0  0  0  0  0
    6.8657  -14.0015   24.1999 C   0  0  0  0  0  0  0  0  0  0  0  0
    9.5693  -16.2110   23.0854 C   0  0  0  0  0  0  0  0  0  0  0  0
    9.8785  -17.3911   23.4638 O   0  0  0  0  0  0  0  0  0  0  0  0
   10.9067  -17.1053   31.0192 O   0  0  0  0  0  0  0  0  0  0  0  0
   10.8671  -16.4677   29.7798 C   0  0  0  0  0  0  0  0  0  0  0  0
    9.9560  -15.4761   29.5211 C   0  0  0  0  0  0  0  0  0  0  0  0
    9.9055  -14.8317   28.2885 C   0  0  0  0  0  0  0  0  0  0  0  0
   10.7811  -15.1714   27.2694 C   0  0  0  0  0  0  0  0  0  0  0  0
   10.7797  -14.5368   25.9431 C   0  0  0  0  0  0  0  0  0  0  0  0
   11.2538  -15.4981   24.8296 C   0  0  2  0  0  0  0  0  0  0  0  0
   10.3976  -15.1861   23.6848 N   0  0  0  0  0  0  0  0  0  0  0  0
   11.0476  -16.8778   25.2777 C   0  0  0  0  0  0  0  0  0  0  0  0
    9.8185  -17.4994   25.3213 O   0  0  0  0  0  0  0  0  0  0  0  0
   11.6935  -16.1716   27.5450 C   0  0  0  0  0  0  0  0  0  0  0  0
   11.7497  -16.8174   28.7693 C   0  0  0  0  0  0  0  0  0  0  0  0
   12.0428  -17.5516   25.6511 O   0  0  0  0  0  0  0  0  0  0  0  0
  2  1  1  0
  3  4  2  0
  3  2  1  0
  5  3  1  0
  6  5  1  0
  6  7  1  1
  8 16  1  0
  8  7  1  0
  9  8  2  0
 10  9  1  0
 10 11  1  0
 11 16  2  0
 12 11  1  0
 12 13  2  0
 13 14  1  0
 14 15  2  0
 16 15  1  0
 17 26  1  0
 17  6  1  0
 18 17  2  0
 19 20  1  0
 20 21  2  0
 21 22  1  0
 23 22  2  0
 23 24  1  0
 25 24  1  1
 25 27  1  0
 25 26  1  0
 27 28  1  0
 29 23  1  0
 30 20  1  0
 30 29  2  0
 31 27  2  0
M  END
$$$$
