YNA.pdb
     RDKit          3D

 26 26  0  0  1  0  0  0  0  0999 V2000
    9.0196  -12.0160   20.9629 O   0  0  0  0  0  0  0  0  0  0  0  0
    8.1239  -13.0954   20.9359 C   0  0  0  0  0  0  0  0  0  0  0  0
    7.8124  -13.8302   22.0581 C   0  0  0  0  0  0  0  0  0  0  0  0
    6.9258  -14.8837   21.9830 C   0  0  0  0  0  0  0  0  0  0  0  0
    6.3096  -15.2603   20.8117 C   0  0  0  0  0  0  0  0  0  0  0  0
    5.3556  -16.3989   20.7509 C   0  0  0  0  0  0  0  0  0  0  0  0
    6.0030  -17.6590   20.1735 C   0  0  2  0  0  0  0  0  0  0  0  0
    4.9627  -18.6306   20.0274 N   0  0  0  0  0  0  0  0  0  0  0  0
    7.0366  -18.0695   21.1592 C   0  0  0  0  0  0  0  0  0  0  0  0
    6.6823  -18.7640   22.1452 O   0  0  0  0  0  0  0  0  0  0  0  0
    6.6169  -14.5269   19.6748 C   0  0  0  0  0  0  0  0  0  0  0  0
    7.5040  -13.4734   19.7521 C   0  0  0  0  0  0  0  0  0  0  0  0
   11.9454  -19.8982   22.3074 N   0  0  0  0  0  0  0  0  0  0  0  0
   11.8744  -18.5380   21.9826 C   0  0  0  0  0  0  0  0  0  0  0  0
   12.8057  -17.7653   22.3539 O   0  0  0  0  0  0  0  0  0  0  0  0
   10.7604  -17.9554   21.2262 C   0  0  0  0  0  0  0  0  0  0  0  0
    9.4474  -18.3149   21.8984 C   0  0  2  0  0  0  0  0  0  0  0  0
    8.3942  -17.7227   21.0496 N   0  0  0  0  0  0  0  0  0  0  0  0
    9.3160  -17.7804   23.2734 C   0  0  0  0  0  0  0  0  0  0  0  0
    9.4930  -18.5956   24.2348 O   0  0  0  0  0  0  0  0  0  0  0  0
    7.3736  -16.5605   25.4157 C   0  0  0  0  0  0  0  0  0  0  0  0
    8.7314  -16.0852   25.0292 C   0  0  2  0  0  0  0  0  0  0  0  0
    9.0146  -16.4486   23.6216 N   0  0  0  0  0  0  0  0  0  0  0  0
    9.7249  -16.6485   25.9494 C   0  0  0  0  0  0  0  0  0  0  0  0
    9.6815  -16.4451   27.3109 O   0  0  0  0  0  0  0  0  0  0  0  0
   10.6501  -17.3428   25.4720 O   0  0  0  0  0  0  0  0  0  0  0  0
  2 12  2  0
  2  1  1  0
  3  2  1  0
  4  5  1  0
  4  3  2  0
  5 11  2  0
  6  5  1  0
  7  6  1  0
  7  9  1  0
  7  8  1  1
  9 18  1  0
  9 10  2  0
 11 12  1  0
 14 13  1  0
 14 15  2  0
 16 14  1  0
 17 16  1  6
 18 17  1  0
 19 23  1  0
 19 17  1  0
 20 19  2  0
 22 21  1  1
 22 24  1  0
 22 23  1  0
 24 25  1  0
 26 24  2  0
M  END
$$$$
