YNA.pdb
     RDKit          3D

 26 26  0  0  1  0  0  0  0  0999 V2000
    7.8567  -13.1291   16.6033 O   0  0  0  0  0  0  0  0  0  0  0  0
    7.6716  -13.5255   17.9362 C   0  0  0  0  0  0  0  0  0  0  0  0
    7.9214  -12.6890   19.0013 C   0  0  0  0  0  0  0  0  0  0  0  0
    7.7249  -13.1232   20.2953 C   0  0  0  0  0  0  0  0  0  0  0  0
    7.2775  -14.3883   20.5997 C   0  0  0  0  0  0  0  0  0  0  0  0
    7.0710  -14.8378   22.0017 C   0  0  0  0  0  0  0  0  0  0  0  0
    8.1917  -14.3612   22.9275 C   0  0  2  0  0  0  0  0  0  0  0  0
    9.2761  -13.9498   22.0893 N   0  0  0  0  0  0  0  0  0  0  0  0
    8.5363  -15.5297   23.7786 C   0  0  0  0  0  0  0  0  0  0  0  0
    7.6182  -16.0869   24.4319 O   0  0  0  0  0  0  0  0  0  0  0  0
    7.0233  -15.2395   19.5339 C   0  0  0  0  0  0  0  0  0  0  0  0
    7.2204  -14.8032   18.2403 C   0  0  0  0  0  0  0  0  0  0  0  0
   13.0049  -19.3553   25.3345 N   0  0  0  0  0  0  0  0  0  0  0  0
   11.6677  -19.0333   25.0717 C   0  0  0  0  0  0  0  0  0  0  0  0
   10.7503  -19.7179   25.6120 O   0  0  0  0  0  0  0  0  0  0  0  0
   11.2713  -17.9302   24.1893 C   0  0  0  0  0  0  0  0  0  0  0  0
   10.2036  -17.0934   24.8710 C   0  0  2  0  0  0  0  0  0  0  0  0
    9.8374  -16.0486   23.8940 N   0  0  0  0  0  0  0  0  0  0  0  0
   10.6625  -16.4451   26.1211 C   0  0  0  0  0  0  0  0  0  0  0  0
   11.7917  -16.8064   26.5842 O   0  0  0  0  0  0  0  0  0  0  0  0
    9.7601  -13.7217   28.5409 C   0  0  0  0  0  0  0  0  0  0  0  0
   10.5213  -14.9298   28.1167 C   0  0  2  0  0  0  0  0  0  0  0  0
    9.9667  -15.4598   26.8496 N   0  0  0  0  0  0  0  0  0  0  0  0
   10.4855  -15.9295   29.1892 C   0  0  0  0  0  0  0  0  0  0  0  0
   11.1380  -15.7599   30.3901 O   0  0  0  0  0  0  0  0  0  0  0  0
    9.8331  -16.9804   28.9999 O   0  0  0  0  0  0  0  0  0  0  0  0
  2 12  2  0
  2  1  1  0
  3  2  1  0
  4  5  1  0
  4  3  2  0
  5 11  2  0
  6  5  1  0
  7  6  1  0
  7  9  1  0
  7  8  1  6
  9 18  1  0
  9 10  2  0
 11 12  1  0
 14 13  1  0
 14 15  2  0
 16 14  1  0
 17 16  1  6
 18 17  1  0
 19 23  1  0
 19 17  1  0
 20 19  2  0
 22 21  1  1
 22 24  1  0
 22 23  1  0
 24 25  1  0
 26 24  2  0
M  END
$$$$
