YNA.pdb
     RDKit          3D

 26 26  0  0  1  0  0  0  0  0999 V2000
    5.3392  -10.2325   26.0879 O   0  0  0  0  0  0  0  0  0  0  0  0
    5.9251  -11.4862   25.8578 C   0  0  0  0  0  0  0  0  0  0  0  0
    6.9258  -11.6796   24.9317 C   0  0  0  0  0  0  0  0  0  0  0  0
    7.4717  -12.9313   24.7398 C   0  0  0  0  0  0  0  0  0  0  0  0
    7.0629  -14.0411   25.4432 C   0  0  0  0  0  0  0  0  0  0  0  0
    7.6644  -15.3826   25.2225 C   0  0  0  0  0  0  0  0  0  0  0  0
    8.0240  -15.6151   23.7539 C   0  0  2  0  0  0  0  0  0  0  0  0
    6.9376  -16.3409   23.1702 N   0  0  0  0  0  0  0  0  0  0  0  0
    9.2910  -16.3917   23.7668 C   0  0  0  0  0  0  0  0  0  0  0  0
    9.2246  -17.6467   23.7928 O   0  0  0  0  0  0  0  0  0  0  0  0
    6.0546  -13.8575   26.3783 C   0  0  0  0  0  0  0  0  0  0  0  0
    5.5100  -12.6046   26.5688 C   0  0  0  0  0  0  0  0  0  0  0  0
   12.1622  -15.2935   20.9766 N   0  0  0  0  0  0  0  0  0  0  0  0
   12.7114  -16.2023   21.8895 C   0  0  0  0  0  0  0  0  0  0  0  0
   13.0579  -17.3505   21.4848 O   0  0  0  0  0  0  0  0  0  0  0  0
   12.9059  -15.8879   23.3093 C   0  0  0  0  0  0  0  0  0  0  0  0
   11.7954  -16.5230   24.1267 C   0  0  2  0  0  0  0  0  0  0  0  0
   10.5649  -15.7981   23.7515 N   0  0  0  0  0  0  0  0  0  0  0  0
   11.9938  -16.4110   25.5902 C   0  0  0  0  0  0  0  0  0  0  0  0
   13.0392  -16.9478   26.0792 O   0  0  0  0  0  0  0  0  0  0  0  0
   10.8946  -14.5603   28.6010 C   0  0  0  0  0  0  0  0  0  0  0  0
   11.4086  -15.7990   27.9526 C   0  0  2  0  0  0  0  0  0  0  0  0
   11.1333  -15.7617   26.4977 N   0  0  0  0  0  0  0  0  0  0  0  0
   10.8034  -16.9713   28.5934 C   0  0  0  0  0  0  0  0  0  0  0  0
   11.0652  -17.3277   29.8977 O   0  0  0  0  0  0  0  0  0  0  0  0
   10.0163  -17.6750   27.9217 O   0  0  0  0  0  0  0  0  0  0  0  0
  2 12  2  0
  2  1  1  0
  3  2  1  0
  4  5  1  0
  4  3  2  0
  5 11  2  0
  6  5  1  0
  7  6  1  0
  7  9  1  0
  7  8  1  1
  9 18  1  0
  9 10  2  0
 11 12  1  0
 14 13  1  0
 14 15  2  0
 16 14  1  0
 17 16  1  6
 18 17  1  0
 19 23  1  0
 19 17  1  0
 20 19  2  0
 22 21  1  1
 22 24  1  0
 22 23  1  0
 24 25  1  0
 26 24  2  0
M  END
$$$$
