YNA.pdb
     RDKit          3D

 26 26  0  0  1  0  0  0  0  0999 V2000
    9.3989  -11.9566   18.8138 O   0  0  0  0  0  0  0  0  0  0  0  0
    8.5729  -12.7881   19.5848 C   0  0  0  0  0  0  0  0  0  0  0  0
    7.7846  -13.7719   19.0306 C   0  0  0  0  0  0  0  0  0  0  0  0
    6.9880  -14.5653   19.8291 C   0  0  0  0  0  0  0  0  0  0  0  0
    6.9299  -14.4297   21.1972 C   0  0  0  0  0  0  0  0  0  0  0  0
    6.0652  -15.2955   22.0414 C   0  0  0  0  0  0  0  0  0  0  0  0
    6.5008  -16.7612   21.9939 C   0  0  2  0  0  0  0  0  0  0  0  0
    5.3399  -17.5289   21.6616 N   0  0  0  0  0  0  0  0  0  0  0  0
    7.0239  -17.0707   23.3501 C   0  0  0  0  0  0  0  0  0  0  0  0
    6.2062  -17.1708   24.2995 O   0  0  0  0  0  0  0  0  0  0  0  0
    7.7198  -13.4409   21.7658 C   0  0  0  0  0  0  0  0  0  0  0  0
    8.5160  -12.6485   20.9653 C   0  0  0  0  0  0  0  0  0  0  0  0
   11.9821  -18.8993   26.3235 N   0  0  0  0  0  0  0  0  0  0  0  0
   10.5953  -18.7785   26.1721 C   0  0  0  0  0  0  0  0  0  0  0  0
    9.8536  -18.8582   27.1947 O   0  0  0  0  0  0  0  0  0  0  0  0
    9.9503  -18.5639   24.8719 C   0  0  0  0  0  0  0  0  0  0  0  0
    8.9072  -17.4679   24.9974 C   0  0  2  0  0  0  0  0  0  0  0  0
    8.3882  -17.2586   23.6310 N   0  0  0  0  0  0  0  0  0  0  0  0
    9.4471  -16.1874   25.5097 C   0  0  0  0  0  0  0  0  0  0  0  0
   10.4440  -15.6881   24.8957 O   0  0  0  0  0  0  0  0  0  0  0  0
    8.8220  -13.0936   27.1537 C   0  0  0  0  0  0  0  0  0  0  0  0
    9.7038  -14.2940   27.1369 C   0  0  2  0  0  0  0  0  0  0  0  0
    8.9590  -15.4635   26.6158 N   0  0  0  0  0  0  0  0  0  0  0  0
   10.2243  -14.5350   28.4867 C   0  0  0  0  0  0  0  0  0  0  0  0
   11.0382  -13.6393   29.1441 O   0  0  0  0  0  0  0  0  0  0  0  0
    9.9131  -15.6021   29.0614 O   0  0  0  0  0  0  0  0  0  0  0  0
  2 12  2  0
  2  1  1  0
  3  2  1  0
  4  5  1  0
  4  3  2  0
  5 11  2  0
  6  5  1  0
  7  6  1  0
  7  9  1  0
  7  8  1  1
  9 18  1  0
  9 10  2  0
 11 12  1  0
 14 13  1  0
 14 15  2  0
 16 14  1  0
 17 16  1  6
 18 17  1  0
 19 23  1  0
 19 17  1  0
 20 19  2  0
 22 21  1  1
 22 24  1  0
 22 23  1  0
 24 25  1  0
 26 24  2  0
M  END
$$$$
