YNA.pdb
     RDKit          3D

 26 26  0  0  1  0  0  0  0  0999 V2000
    8.1027  -12.2565   17.2412 O   0  0  0  0  0  0  0  0  0  0  0  0
    8.1235  -12.8966   18.4893 C   0  0  0  0  0  0  0  0  0  0  0  0
    9.2923  -13.2846   19.1057 C   0  0  0  0  0  0  0  0  0  0  0  0
    9.2632  -13.9115   20.3336 C   0  0  0  0  0  0  0  0  0  0  0  0
    8.0943  -14.1835   21.0067 C   0  0  0  0  0  0  0  0  0  0  0  0
    8.0834  -14.8597   22.3306 C   0  0  0  0  0  0  0  0  0  0  0  0
    8.3241  -16.3654   22.2072 C   0  0  2  0  0  0  0  0  0  0  0  0
    7.1525  -16.9254   21.6061 N   0  0  0  0  0  0  0  0  0  0  0  0
    8.5464  -16.8534   23.5932 C   0  0  0  0  0  0  0  0  0  0  0  0
    7.5436  -17.0989   24.3103 O   0  0  0  0  0  0  0  0  0  0  0  0
    6.9107  -13.7973   20.3943 C   0  0  0  0  0  0  0  0  0  0  0  0
    6.9421  -13.1703   19.1661 C   0  0  0  0  0  0  0  0  0  0  0  0
   12.6015  -19.7628   27.0832 N   0  0  0  0  0  0  0  0  0  0  0  0
   11.3635  -19.2238   26.7123 C   0  0  0  0  0  0  0  0  0  0  0  0
   10.4045  -19.2549   27.5379 O   0  0  0  0  0  0  0  0  0  0  0  0
   11.1180  -18.6193   25.3983 C   0  0  0  0  0  0  0  0  0  0  0  0
   10.0303  -17.5670   25.5188 C   0  0  2  0  0  0  0  0  0  0  0  0
    9.8213  -17.0566   24.1490 N   0  0  0  0  0  0  0  0  0  0  0  0
   10.3905  -16.4363   26.4051 C   0  0  0  0  0  0  0  0  0  0  0  0
   11.6189  -16.1074   26.4598 O   0  0  0  0  0  0  0  0  0  0  0  0
    8.9880  -13.5732   28.2943 C   0  0  0  0  0  0  0  0  0  0  0  0
   10.0078  -14.6450   28.1205 C   0  0  2  0  0  0  0  0  0  0  0  0
    9.4991  -15.6842   27.1958 N   0  0  0  0  0  0  0  0  0  0  0  0
   10.3561  -15.2031   29.4313 C   0  0  0  0  0  0  0  0  0  0  0  0
   10.2332  -16.5421   29.7293 O   0  0  0  0  0  0  0  0  0  0  0  0
   10.7824  -14.4250   30.3137 O   0  0  0  0  0  0  0  0  0  0  0  0
  2 12  2  0
  2  1  1  0
  3  2  1  0
  4  5  1  0
  4  3  2  0
  5 11  2  0
  6  5  1  0
  7  6  1  0
  7  9  1  0
  7  8  1  1
  9 18  1  0
  9 10  2  0
 11 12  1  0
 14 13  1  0
 14 15  2  0
 16 14  1  0
 17 16  1  6
 18 17  1  0
 19 23  1  0
 19 17  1  0
 20 19  2  0
 22 21  1  1
 22 24  1  0
 22 23  1  0
 24 25  1  0
 26 24  2  0
M  END
$$$$
