YNA.pdb
     RDKit          3D

 26 26  0  0  1  0  0  0  0  0999 V2000
    6.3987  -10.7316   27.4013 O   0  0  0  0  0  0  0  0  0  0  0  0
    6.4979  -11.7849   26.4800 C   0  0  0  0  0  0  0  0  0  0  0  0
    5.7077  -12.9105   26.5510 C   0  0  0  0  0  0  0  0  0  0  0  0
    5.8414  -13.9211   25.6223 C   0  0  0  0  0  0  0  0  0  0  0  0
    6.7498  -13.8725   24.5898 C   0  0  0  0  0  0  0  0  0  0  0  0
    6.8785  -14.9721   23.5976 C   0  0  0  0  0  0  0  0  0  0  0  0
    7.1846  -16.3139   24.2655 C   0  0  2  0  0  0  0  0  0  0  0  0
    6.9609  -16.1403   25.6681 N   0  0  0  0  0  0  0  0  0  0  0  0
    8.6051  -16.6099   23.9438 C   0  0  0  0  0  0  0  0  0  0  0  0
    8.8954  -16.9490   22.7687 O   0  0  0  0  0  0  0  0  0  0  0  0
    7.5514  -12.7429   24.5095 C   0  0  0  0  0  0  0  0  0  0  0  0
    7.4160  -11.7332   25.4394 C   0  0  0  0  0  0  0  0  0  0  0  0
   13.6767  -16.8978   23.7289 N   0  0  0  0  0  0  0  0  0  0  0  0
   12.7862  -16.1123   22.9868 C   0  0  0  0  0  0  0  0  0  0  0  0
   13.2113  -15.4925   21.9683 O   0  0  0  0  0  0  0  0  0  0  0  0
   11.3684  -15.9679   23.3355 C   0  0  0  0  0  0  0  0  0  0  0  0
   11.0554  -16.8204   24.5520 C   0  0  2  0  0  0  0  0  0  0  0  0
    9.6462  -16.5313   24.8848 N   0  0  0  0  0  0  0  0  0  0  0  0
   11.9014  -16.5137   25.7284 C   0  0  0  0  0  0  0  0  0  0  0  0
   12.6957  -17.4244   26.1283 O   0  0  0  0  0  0  0  0  0  0  0  0
    9.7301  -14.8061   27.4034 C   0  0  0  0  0  0  0  0  0  0  0  0
   11.1423  -15.1696   27.7072 C   0  0  2  0  0  0  0  0  0  0  0  0
   11.9135  -15.3032   26.4497 N   0  0  0  0  0  0  0  0  0  0  0  0
   11.1682  -16.4046   28.4978 C   0  0  0  0  0  0  0  0  0  0  0  0
   11.4443  -17.6371   27.9487 O   0  0  0  0  0  0  0  0  0  0  0  0
   10.9278  -16.3301   29.7236 O   0  0  0  0  0  0  0  0  0  0  0  0
  2 12  2  0
  2  1  1  0
  3  2  1  0
  4  5  1  0
  4  3  2  0
  5 11  2  0
  6  5  1  0
  7  6  1  0
  7  9  1  0
  7  8  1  1
  9 18  1  0
  9 10  2  0
 11 12  1  0
 14 13  1  0
 14 15  2  0
 16 14  1  0
 17 16  1  6
 18 17  1  0
 19 23  1  0
 19 17  1  0
 20 19  2  0
 22 21  1  6
 22 24  1  0
 22 23  1  0
 24 25  1  0
 26 24  2  0
M  END
$$$$
