YNA.pdb
     RDKit          3D

 26 26  0  0  1  0  0  0  0  0999 V2000
    8.1117  -13.2312   16.1301 O   0  0  0  0  0  0  0  0  0  0  0  0
    8.0261  -13.4647   17.5108 C   0  0  0  0  0  0  0  0  0  0  0  0
    8.9558  -14.2145   18.1963 C   0  0  0  0  0  0  0  0  0  0  0  0
    8.8298  -14.4173   19.5545 C   0  0  0  0  0  0  0  0  0  0  0  0
    7.7935  -13.8969   20.2953 C   0  0  0  0  0  0  0  0  0  0  0  0
    7.6754  -14.1260   21.7594 C   0  0  0  0  0  0  0  0  0  0  0  0
    8.0193  -15.5662   22.1439 C   0  0  2  0  0  0  0  0  0  0  0  0
    7.0020  -16.4004   21.5811 N   0  0  0  0  0  0  0  0  0  0  0  0
    8.0282  -15.5960   23.6297 C   0  0  0  0  0  0  0  0  0  0  0  0
    7.3829  -14.7139   24.2508 O   0  0  0  0  0  0  0  0  0  0  0  0
    6.8508  -13.1403   19.6142 C   0  0  0  0  0  0  0  0  0  0  0  0
    6.9787  -12.9386   18.2557 C   0  0  0  0  0  0  0  0  0  0  0  0
    6.6072  -19.3087   26.2695 N   0  0  0  0  0  0  0  0  0  0  0  0
    6.5948  -18.1179   25.5330 C   0  0  0  0  0  0  0  0  0  0  0  0
    6.1615  -18.1322   24.3437 O   0  0  0  0  0  0  0  0  0  0  0  0
    7.0665  -16.8391   26.0758 C   0  0  0  0  0  0  0  0  0  0  0  0
    8.5609  -16.7088   25.8425 C   0  0  2  0  0  0  0  0  0  0  0  0
    8.7210  -16.5600   24.3821 N   0  0  0  0  0  0  0  0  0  0  0  0
    9.3395  -17.8844   26.2956 C   0  0  0  0  0  0  0  0  0  0  0  0
    9.3785  -18.1100   27.5477 O   0  0  0  0  0  0  0  0  0  0  0  0
   11.1118  -20.9557   25.2185 C   0  0  0  0  0  0  0  0  0  0  0  0
   11.0308  -19.7222   26.0496 C   0  0  2  0  0  0  0  0  0  0  0  0
   10.0429  -18.7835   25.4694 N   0  0  0  0  0  0  0  0  0  0  0  0
   12.3627  -19.1175   26.1551 C   0  0  0  0  0  0  0  0  0  0  0  0
   13.2217  -19.3806   27.1991 O   0  0  0  0  0  0  0  0  0  0  0  0
   12.7297  -18.3289   25.2556 O   0  0  0  0  0  0  0  0  0  0  0  0
  2 12  2  0
  2  1  1  0
  3  2  1  0
  4  5  1  0
  4  3  2  0
  5 11  2  0
  6  5  1  0
  7  6  1  0
  7  9  1  0
  7  8  1  1
  9 18  1  0
  9 10  2  0
 11 12  1  0
 14 13  1  0
 14 15  2  0
 16 14  1  0
 17 16  1  6
 18 17  1  0
 19 23  1  0
 19 17  1  0
 20 19  2  0
 22 21  1  6
 22 24  1  0
 22 23  1  0
 24 25  1  0
 26 24  2  0
M  END
$$$$
