ELF.pdb
     RDKit          3D

 29 29  0  0  1  0  0  0  0  0999 V2000
   25.0089  -17.9393  -15.1545 N   0  0  0  0  0  0  0  0  0  0  0  0
   24.7199  -19.1489  -15.9255 C   0  0  1  0  0  0  0  0  0  0  0  0
   25.1257  -19.0042  -17.3461 C   0  0  0  0  0  0  0  0  0  0  0  0
   24.5005  -17.8032  -18.0002 C   0  0  0  0  0  0  0  0  0  0  0  0
   23.0340  -18.0425  -18.2274 C   0  0  0  0  0  0  0  0  0  0  0  0
   22.6830  -19.1312  -18.7356 O   0  0  0  0  0  0  0  0  0  0  0  0
   25.2657  -20.2982  -15.1964 C   0  0  0  0  0  0  0  0  0  0  0  0
   25.2276  -21.4710  -15.6543 O   0  0  0  0  0  0  0  0  0  0  0  0
   22.0660  -17.1201  -17.9021 O   0  0  0  0  0  0  0  0  0  0  0  0
   28.7597  -20.5320  -15.1178 C   0  0  0  0  0  0  0  0  0  0  0  0
   28.6700  -20.0448  -13.6602 C   0  0  2  0  0  0  0  0  0  0  0  0
   30.0641  -19.8169  -13.1430 C   0  0  0  0  0  0  0  0  0  0  0  0
   27.9401  -21.1033  -12.8818 C   0  0  0  0  0  0  0  0  0  0  0  0
   26.4987  -21.1813  -13.1562 C   0  0  2  0  0  0  0  0  0  0  0  0
   25.8829  -20.1413  -13.8982 N   0  0  0  0  0  0  0  0  0  0  0  0
   25.7396  -21.4421  -11.8944 C   0  0  0  0  0  0  0  0  0  0  0  0
   26.0471  -22.4746  -11.2153 O   0  0  0  0  0  0  0  0  0  0  0  0
   24.7154  -20.5843  -11.4552 N   0  0  0  0  0  0  0  0  0  0  0  0
   23.9019  -20.9897  -10.3108 C   0  0  1  0  0  0  0  0  0  0  0  0
   23.8616  -19.9065   -9.2739 C   0  0  0  0  0  0  0  0  0  0  0  0
   25.0910  -19.8665   -8.4946 C   0  0  0  0  0  0  0  0  0  0  0  0
   25.7226  -18.6336   -8.2828 C   0  0  0  0  0  0  0  0  0  0  0  0
   26.8756  -18.5435   -7.5341 C   0  0  0  0  0  0  0  0  0  0  0  0
   27.4453  -19.6588   -6.9697 C   0  0  0  0  0  0  0  0  0  0  0  0
   26.8354  -20.9023   -7.1651 C   0  0  0  0  0  0  0  0  0  0  0  0
   25.6818  -20.9908   -7.9143 C   0  0  0  0  0  0  0  0  0  0  0  0
   22.5378  -21.2486  -10.8273 C   0  0  0  0  0  0  0  0  0  0  0  0
   22.1802  -21.0833  -12.1613 O   0  0  0  0  0  0  0  0  0  0  0  0
   21.6147  -21.6385  -10.0602 O   0  0  0  0  0  0  0  0  0  0  0  0
  2  1  1  1
  2  3  1  0
  3  4  1  0
  4  5  1  0
  5  6  2  0
  5  9  1  0
  7  2  1  0
  8  7  2  0
 11 10  1  6
 11 13  1  0
 12 11  1  0
 14 13  1  1
 14 15  1  0
 15  7  1  0
 16 14  1  0
 16 17  2  0
 18 16  1  0
 19 18  1  0
 20 21  1  0
 19 20  1  1
 21 26  2  0
 22 21  1  0
 22 23  2  0
 23 24  1  0
 24 25  2  0
 26 25  1  0
 27 19  1  0
 28 27  1  0
 29 27  2  0
M  END
$$$$
