ELF.pdb
     RDKit          3D

 29 29  0  0  1  0  0  0  0  0999 V2000
   26.6462  -18.1828  -12.7266 N   0  0  0  0  0  0  0  0  0  0  0  0
   26.7666  -19.3934  -13.5395 C   0  0  1  0  0  0  0  0  0  0  0  0
   27.6111  -19.1672  -14.7392 C   0  0  0  0  0  0  0  0  0  0  0  0
   26.8042  -19.1260  -16.0074 C   0  0  0  0  0  0  0  0  0  0  0  0
   26.6448  -17.7059  -16.4734 C   0  0  0  0  0  0  0  0  0  0  0  0
   25.4995  -17.2012  -16.4550 O   0  0  0  0  0  0  0  0  0  0  0  0
   27.1533  -20.5002  -12.6585 C   0  0  0  0  0  0  0  0  0  0  0  0
   26.6110  -21.6354  -12.7192 O   0  0  0  0  0  0  0  0  0  0  0  0
   27.6992  -16.9410  -16.9171 O   0  0  0  0  0  0  0  0  0  0  0  0
   30.9037  -22.9866  -11.9520 C   0  0  0  0  0  0  0  0  0  0  0  0
   31.0379  -21.5384  -11.4471 C   0  0  2  0  0  0  0  0  0  0  0  0
   32.4505  -21.3222  -10.9775 C   0  0  0  0  0  0  0  0  0  0  0  0
   30.0365  -21.3586  -10.3409 C   0  0  0  0  0  0  0  0  0  0  0  0
   28.6337  -21.3579  -10.7783 C   0  0  2  0  0  0  0  0  0  0  0  0
   28.1900  -20.3421  -11.6629 N   0  0  0  0  0  0  0  0  0  0  0  0
   27.7186  -21.4601   -9.6000 C   0  0  0  0  0  0  0  0  0  0  0  0
   27.9084  -22.4137   -8.7775 O   0  0  0  0  0  0  0  0  0  0  0  0
   26.6758  -20.5402   -9.3899 N   0  0  0  0  0  0  0  0  0  0  0  0
   25.8458  -20.6798   -8.1951 C   0  0  1  0  0  0  0  0  0  0  0  0
   25.8476  -19.4125   -7.3926 C   0  0  0  0  0  0  0  0  0  0  0  0
   26.9394  -19.3914   -6.4292 C   0  0  0  0  0  0  0  0  0  0  0  0
   27.0339  -20.4230   -5.4854 C   0  0  0  0  0  0  0  0  0  0  0  0
   28.0615  -20.4571   -4.5683 C   0  0  0  0  0  0  0  0  0  0  0  0
   29.0282  -19.4813   -4.5477 C   0  0  0  0  0  0  0  0  0  0  0  0
   28.9580  -18.4400   -5.4789 C   0  0  0  0  0  0  0  0  0  0  0  0
   27.9294  -18.4074   -6.3959 C   0  0  0  0  0  0  0  0  0  0  0  0
   24.4730  -20.9825   -8.6622 C   0  0  0  0  0  0  0  0  0  0  0  0
   23.4468  -21.3842   -7.8135 O   0  0  0  0  0  0  0  0  0  0  0  0
   24.1656  -20.8894   -9.8826 O   0  0  0  0  0  0  0  0  0  0  0  0
  2  1  1  1
  2  3  1  0
  3  4  1  0
  4  5  1  0
  5  6  2  0
  5  9  1  0
  7  2  1  0
  8  7  2  0
 11 10  1  1
 11 13  1  0
 12 11  1  0
 14 13  1  1
 14 15  1  0
 15  7  1  0
 16 14  1  0
 16 17  2  0
 18 16  1  0
 19 18  1  0
 20 21  1  0
 19 20  1  6
 21 26  2  0
 22 21  1  0
 22 23  2  0
 23 24  1  0
 24 25  2  0
 26 25  1  0
 27 19  1  0
 28 27  1  0
 29 27  2  0
M  END
$$$$
