ELF.pdb
     RDKit          3D

 29 29  0  0  1  0  0  0  0  0999 V2000
   23.6082  -10.0102  -19.8701 N   0  0  0  0  0  0  0  0  0  0  0  0
   23.5166   -9.9203  -18.4125 C   0  0  1  0  0  0  0  0  0  0  0  0
   24.4918   -8.9467  -17.8604 C   0  0  0  0  0  0  0  0  0  0  0  0
   24.3393   -7.5786  -18.4655 C   0  0  0  0  0  0  0  0  0  0  0  0
   25.2748   -6.6101  -17.7975 C   0  0  0  0  0  0  0  0  0  0  0  0
   26.3498   -7.0502  -17.3313 O   0  0  0  0  0  0  0  0  0  0  0  0
   22.1088   -9.7211  -18.0534 C   0  0  0  0  0  0  0  0  0  0  0  0
   21.2758   -9.2006  -18.8418 O   0  0  0  0  0  0  0  0  0  0  0  0
   25.0008   -5.2669  -17.6772 O   0  0  0  0  0  0  0  0  0  0  0  0
   17.7069  -11.9955  -14.3741 C   0  0  0  0  0  0  0  0  0  0  0  0
   18.1542  -10.8550  -15.3064 C   0  0  2  0  0  0  0  0  0  0  0  0
   17.3173  -10.8992  -16.5556 C   0  0  0  0  0  0  0  0  0  0  0  0
   19.6152  -11.0618  -15.5925 C   0  0  0  0  0  0  0  0  0  0  0  0
   20.2567   -9.9640  -16.3291 C   0  0  2  0  0  0  0  0  0  0  0  0
   21.5993  -10.1173  -16.7594 N   0  0  0  0  0  0  0  0  0  0  0  0
   20.0884   -8.6727  -15.5941 C   0  0  0  0  0  0  0  0  0  0  0  0
   20.7482   -8.5080  -14.5174 O   0  0  0  0  0  0  0  0  0  0  0  0
   19.2329   -7.6596  -16.0628 N   0  0  0  0  0  0  0  0  0  0  0  0
   19.0915   -6.4382  -15.2728 C   0  0  1  0  0  0  0  0  0  0  0  0
   19.6205   -5.2523  -16.0237 C   0  0  0  0  0  0  0  0  0  0  0  0
   21.0763   -5.2201  -16.0147 C   0  0  0  0  0  0  0  0  0  0  0  0
   21.7726   -5.6077  -17.1675 C   0  0  0  0  0  0  0  0  0  0  0  0
   23.1491   -5.5730  -17.2134 C   0  0  0  0  0  0  0  0  0  0  0  0
   23.8859   -5.1574  -16.1311 C   0  0  0  0  0  0  0  0  0  0  0  0
   23.2162   -4.7646  -14.9676 C   0  0  0  0  0  0  0  0  0  0  0  0
   21.8390   -4.7997  -14.9233 C   0  0  0  0  0  0  0  0  0  0  0  0
   17.6441   -6.2665  -15.0080 C   0  0  0  0  0  0  0  0  0  0  0  0
   17.1321   -5.2959  -14.1534 O   0  0  0  0  0  0  0  0  0  0  0  0
   16.7888   -7.0137  -15.5584 O   0  0  0  0  0  0  0  0  0  0  0  0
  2  1  1  6
  2  3  1  0
  3  4  1  0
  4  5  1  0
  5  6  2  0
  5  9  1  0
  7  2  1  0
  8  7  2  0
 11 10  1  1
 11 13  1  0
 12 11  1  0
 14 13  1  1
 14 15  1  0
 15  7  1  0
 16 14  1  0
 16 17  2  0
 18 16  1  0
 19 18  1  0
 20 21  1  0
 19 20  1  6
 21 26  2  0
 22 21  1  0
 22 23  2  0
 23 24  1  0
 24 25  2  0
 26 25  1  0
 27 19  1  0
 28 27  1  0
 29 27  2  0
M  END
$$$$
