ELF.pdb
     RDKit          3D

 29 29  0  0  1  0  0  0  0  0999 V2000
   27.6302  -21.7364  -16.2332 N   0  0  0  0  0  0  0  0  0  0  0  0
   26.8374  -20.5492  -15.9121 C   0  0  1  0  0  0  0  0  0  0  0  0
   26.5116  -19.7617  -17.1276 C   0  0  0  0  0  0  0  0  0  0  0  0
   27.7419  -19.2509  -17.8251 C   0  0  0  0  0  0  0  0  0  0  0  0
   27.3560  -18.4755  -19.0536 C   0  0  0  0  0  0  0  0  0  0  0  0
   27.1439  -17.2474  -18.9369 O   0  0  0  0  0  0  0  0  0  0  0  0
   25.7093  -20.9650  -15.0724 C   0  0  0  0  0  0  0  0  0  0  0  0
   24.9079  -21.8739  -15.4162 O   0  0  0  0  0  0  0  0  0  0  0  0
   27.2266  -19.0555  -20.2948 O   0  0  0  0  0  0  0  0  0  0  0  0
   25.9809  -22.4197  -11.0290 C   0  0  0  0  0  0  0  0  0  0  0  0
   25.9143  -20.8876  -10.8942 C   0  0  2  0  0  0  0  0  0  0  0  0
   26.0603  -20.5262   -9.4413 C   0  0  0  0  0  0  0  0  0  0  0  0
   24.5929  -20.4485  -11.4599 C   0  0  0  0  0  0  0  0  0  0  0  0
   24.4217  -20.7148  -12.8948 C   0  0  2  0  0  0  0  0  0  0  0  0
   25.4567  -20.3447  -13.7909 N   0  0  0  0  0  0  0  0  0  0  0  0
   23.1058  -20.1877  -13.3710 C   0  0  0  0  0  0  0  0  0  0  0  0
   22.9414  -18.9251  -13.3942 O   0  0  0  0  0  0  0  0  0  0  0  0
   22.0706  -21.0447  -13.7853 N   0  0  0  0  0  0  0  0  0  0  0  0
   20.8065  -20.4580  -14.2256 C   0  0  1  0  0  0  0  0  0  0  0  0
   20.5404  -20.7822  -15.6658 C   0  0  0  0  0  0  0  0  0  0  0  0
   19.2500  -20.2658  -16.1003 C   0  0  0  0  0  0  0  0  0  0  0  0
   18.1483  -21.1310  -16.1367 C   0  0  0  0  0  0  0  0  0  0  0  0
   16.9031  -20.6827  -16.5200 C   0  0  0  0  0  0  0  0  0  0  0  0
   16.6992  -19.3727  -16.8794 C   0  0  0  0  0  0  0  0  0  0  0  0
   17.7819  -18.4874  -16.8518 C   0  0  0  0  0  0  0  0  0  0  0  0
   19.0268  -18.9374  -16.4679 C   0  0  0  0  0  0  0  0  0  0  0  0
   19.7456  -21.0390  -13.3704 C   0  0  0  0  0  0  0  0  0  0  0  0
   19.7114  -22.3784  -12.9970 O   0  0  0  0  0  0  0  0  0  0  0  0
   18.7999  -20.3272  -12.9329 O   0  0  0  0  0  0  0  0  0  0  0  0
  2  1  1  6
  2  3  1  0
  3  4  1  0
  4  5  1  0
  5  6  2  0
  5  9  1  0
  7  2  1  0
  8  7  2  0
 11 10  1  1
 11 13  1  0
 12 11  1  0
 14 13  1  1
 14 15  1  0
 15  7  1  0
 16 14  1  0
 16 17  2  0
 18 16  1  0
 19 18  1  0
 20 21  1  0
 19 20  1  6
 21 26  2  0
 22 21  1  0
 22 23  2  0
 23 24  1  0
 24 25  2  0
 26 25  1  0
 27 19  1  0
 28 27  1  0
 29 27  2  0
M  END
$$$$
