ELF.pdb
     RDKit          3D

 29 29  0  0  1  0  0  0  0  0999 V2000
   23.9368  -23.6682  -15.4496 N   0  0  0  0  0  0  0  0  0  0  0  0
   23.8252  -22.3720  -14.7801 C   0  0  1  0  0  0  0  0  0  0  0  0
   22.4291  -22.0883  -14.3628 C   0  0  0  0  0  0  0  0  0  0  0  0
   21.5126  -21.8789  -15.5365 C   0  0  0  0  0  0  0  0  0  0  0  0
   21.8317  -20.5769  -16.2164 C   0  0  0  0  0  0  0  0  0  0  0  0
   21.9949  -19.5608  -15.5039 O   0  0  0  0  0  0  0  0  0  0  0  0
   24.8531  -22.3055  -13.7363 C   0  0  0  0  0  0  0  0  0  0  0  0
   25.1050  -23.2738  -12.9711 O   0  0  0  0  0  0  0  0  0  0  0  0
   21.9513  -20.4553  -17.5819 O   0  0  0  0  0  0  0  0  0  0  0  0
   29.0687  -21.1254  -14.1432 C   0  0  0  0  0  0  0  0  0  0  0  0
   28.2677  -19.8209  -13.9797 C   0  0  2  0  0  0  0  0  0  0  0  0
   29.2135  -18.6576  -14.1035 C   0  0  0  0  0  0  0  0  0  0  0  0
   27.6032  -19.8731  -12.6326 C   0  0  0  0  0  0  0  0  0  0  0  0
   26.5870  -20.9250  -12.4911 C   0  0  2  0  0  0  0  0  0  0  0  0
   25.6394  -21.1096  -13.5300 N   0  0  0  0  0  0  0  0  0  0  0  0
   25.8968  -20.8108  -11.1694 C   0  0  0  0  0  0  0  0  0  0  0  0
   24.7516  -20.2547  -11.1399 O   0  0  0  0  0  0  0  0  0  0  0  0
   26.4789  -21.2976   -9.9853 N   0  0  0  0  0  0  0  0  0  0  0  0
   25.7664  -21.1092   -8.7232 C   0  0  1  0  0  0  0  0  0  0  0  0
   26.5230  -21.7281   -7.5854 C   0  0  0  0  0  0  0  0  0  0  0  0
   27.4575  -20.7841   -6.9887 C   0  0  0  0  0  0  0  0  0  0  0  0
   28.7725  -21.1968   -6.7349 C   0  0  0  0  0  0  0  0  0  0  0  0
   29.6978  -20.3324   -6.1918 C   0  0  0  0  0  0  0  0  0  0  0  0
   29.3630  -19.0370   -5.8804 C   0  0  0  0  0  0  0  0  0  0  0  0
   28.0571  -18.5989   -6.1237 C   0  0  0  0  0  0  0  0  0  0  0  0
   27.1327  -19.4647   -6.6673 C   0  0  0  0  0  0  0  0  0  0  0  0
   25.6449  -19.6474   -8.5160 C   0  0  0  0  0  0  0  0  0  0  0  0
   26.5283  -18.7211   -9.0603 O   0  0  0  0  0  0  0  0  0  0  0  0
   24.7119  -19.1647   -7.8166 O   0  0  0  0  0  0  0  0  0  0  0  0
  2  1  1  1
  2  3  1  0
  3  4  1  0
  4  5  1  0
  5  6  2  0
  5  9  1  0
  7  2  1  0
  8  7  2  0
 11 10  1  1
 11 13  1  0
 12 11  1  0
 14 13  1  6
 14 15  1  0
 15  7  1  0
 16 14  1  0
 16 17  2  0
 18 16  1  0
 19 18  1  0
 20 21  1  0
 19 20  1  1
 21 26  2  0
 22 21  1  0
 22 23  2  0
 23 24  1  0
 24 25  2  0
 26 25  1  0
 27 19  1  0
 28 27  1  0
 29 27  2  0
M  END
$$$$
