ELF.pdb
     RDKit          3D

 29 29  0  0  1  0  0  0  0  0999 V2000
   27.0946  -18.6651  -14.7027 N   0  0  0  0  0  0  0  0  0  0  0  0
   26.6445  -19.7982  -15.5116 C   0  0  1  0  0  0  0  0  0  0  0  0
   27.7440  -20.3511  -16.3417 C   0  0  0  0  0  0  0  0  0  0  0  0
   28.4825  -19.2820  -17.0986 C   0  0  0  0  0  0  0  0  0  0  0  0
   28.6301  -19.6775  -18.5412 C   0  0  0  0  0  0  0  0  0  0  0  0
   29.2825  -20.7117  -18.8085 O   0  0  0  0  0  0  0  0  0  0  0  0
   25.9435  -20.7392  -14.6321 C   0  0  0  0  0  0  0  0  0  0  0  0
   25.4721  -21.8312  -15.0468 O   0  0  0  0  0  0  0  0  0  0  0  0
   28.0811  -18.9543  -19.5754 O   0  0  0  0  0  0  0  0  0  0  0  0
   27.4141  -21.0713   -9.5891 C   0  0  0  0  0  0  0  0  0  0  0  0
   26.1256  -20.5310  -10.2357 C   0  0  2  0  0  0  0  0  0  0  0  0
   25.1972  -20.0710   -9.1452 C   0  0  0  0  0  0  0  0  0  0  0  0
   25.5362  -21.6469  -11.0520 C   0  0  0  0  0  0  0  0  0  0  0  0
   24.9626  -21.2282  -12.3384 C   0  0  2  0  0  0  0  0  0  0  0  0
   25.7556  -20.4575  -13.2263 N   0  0  0  0  0  0  0  0  0  0  0  0
   23.6312  -20.5796  -12.1308 C   0  0  0  0  0  0  0  0  0  0  0  0
   23.6102  -19.3423  -11.8301 O   0  0  0  0  0  0  0  0  0  0  0  0
   22.4290  -21.2978  -12.2604 N   0  0  0  0  0  0  0  0  0  0  0  0
   21.2439  -20.6004  -12.7555 C   0  0  1  0  0  0  0  0  0  0  0  0
   21.4851  -20.0465  -14.1286 C   0  0  0  0  0  0  0  0  0  0  0  0
   20.3112  -19.3518  -14.6384 C   0  0  0  0  0  0  0  0  0  0  0  0
   19.5416  -19.9603  -15.6390 C   0  0  0  0  0  0  0  0  0  0  0  0
   18.4105  -19.3511  -16.1367 C   0  0  0  0  0  0  0  0  0  0  0  0
   17.9987  -18.1268  -15.6693 C   0  0  0  0  0  0  0  0  0  0  0  0
   18.7484  -17.4971  -14.6704 C   0  0  0  0  0  0  0  0  0  0  0  0
   19.8796  -18.1080  -14.1733 C   0  0  0  0  0  0  0  0  0  0  0  0
   20.1483  -21.5967  -12.7956 C   0  0  0  0  0  0  0  0  0  0  0  0
   18.8574  -21.3332  -12.3496 O   0  0  0  0  0  0  0  0  0  0  0  0
   20.3424  -22.7596  -13.2457 O   0  0  0  0  0  0  0  0  0  0  0  0
  2  1  1  1
  2  3  1  0
  3  4  1  0
  4  5  1  0
  5  6  2  0
  5  9  1  0
  7  2  1  0
  8  7  2  0
 11 10  1  1
 11 13  1  0
 12 11  1  0
 14 13  1  1
 14 15  1  0
 15  7  1  0
 16 14  1  0
 16 17  2  0
 18 16  1  0
 19 18  1  0
 20 21  1  0
 19 20  1  6
 21 26  2  0
 22 21  1  0
 22 23  2  0
 23 24  1  0
 24 25  2  0
 26 25  1  0
 27 19  1  0
 28 27  1  0
 29 27  2  0
M  END
$$$$
