ELF.pdb
     RDKit          3D

 29 29  0  0  1  0  0  0  0  0999 V2000
   25.4059  -19.0715  -16.7667 N   0  0  0  0  0  0  0  0  0  0  0  0
   25.9221  -20.3588  -17.2328 C   0  0  1  0  0  0  0  0  0  0  0  0
   26.6515  -20.2244  -18.5188 C   0  0  0  0  0  0  0  0  0  0  0  0
   27.5810  -19.0425  -18.5284 C   0  0  0  0  0  0  0  0  0  0  0  0
   26.8762  -17.8343  -19.0789 C   0  0  0  0  0  0  0  0  0  0  0  0
   26.6738  -16.8658  -18.3123 O   0  0  0  0  0  0  0  0  0  0  0  0
   26.6469  -20.9900  -16.1252 C   0  0  0  0  0  0  0  0  0  0  0  0
   27.0975  -22.1643  -16.1925 O   0  0  0  0  0  0  0  0  0  0  0  0
   26.4462  -17.7484  -20.3833 O   0  0  0  0  0  0  0  0  0  0  0  0
   30.1934  -20.0373  -11.2301 C   0  0  0  0  0  0  0  0  0  0  0  0
   29.1719  -20.9651  -11.9125 C   0  0  2  0  0  0  0  0  0  0  0  0
   29.8823  -22.2111  -12.3660 C   0  0  0  0  0  0  0  0  0  0  0  0
   28.5745  -20.2008  -13.0605 C   0  0  0  0  0  0  0  0  0  0  0  0
   27.4366  -20.8640  -13.7121 C   0  0  2  0  0  0  0  0  0  0  0  0
   26.8838  -20.2872  -14.8839 N   0  0  0  0  0  0  0  0  0  0  0  0
   26.3601  -21.1546  -12.7156 C   0  0  0  0  0  0  0  0  0  0  0  0
   26.6129  -21.9930  -11.7911 O   0  0  0  0  0  0  0  0  0  0  0  0
   25.1017  -20.5301  -12.7813 N   0  0  0  0  0  0  0  0  0  0  0  0
   24.0712  -20.9237  -11.8227 C   0  0  1  0  0  0  0  0  0  0  0  0
   23.8943  -19.8726  -10.7672 C   0  0  0  0  0  0  0  0  0  0  0  0
   24.7951  -20.0868   -9.6433 C   0  0  0  0  0  0  0  0  0  0  0  0
   24.5190  -21.1199   -8.7375 C   0  0  0  0  0  0  0  0  0  0  0  0
   25.3541  -21.3743   -7.6715 C   0  0  0  0  0  0  0  0  0  0  0  0
   26.4853  -20.6242   -7.4603 C   0  0  0  0  0  0  0  0  0  0  0  0
   26.7848  -19.5869   -8.3495 C   0  0  0  0  0  0  0  0  0  0  0  0
   25.9486  -19.3337   -9.4155 C   0  0  0  0  0  0  0  0  0  0  0  0
   22.8149  -21.0883  -12.5903 C   0  0  0  0  0  0  0  0  0  0  0  0
   21.6272  -21.5422  -12.0264 O   0  0  0  0  0  0  0  0  0  0  0  0
   22.7652  -20.8193  -13.8222 O   0  0  0  0  0  0  0  0  0  0  0  0
  2  1  1  1
  2  3  1  0
  3  4  1  0
  4  5  1  0
  5  6  2  0
  5  9  1  0
  7  2  1  0
  8  7  2  0
 11 10  1  6
 11 13  1  0
 12 11  1  0
 14 13  1  1
 14 15  1  0
 15  7  1  0
 16 14  1  0
 16 17  2  0
 18 16  1  0
 19 18  1  0
 20 21  1  0
 19 20  1  1
 21 26  2  0
 22 21  1  0
 22 23  2  0
 23 24  1  0
 24 25  2  0
 26 25  1  0
 27 19  1  0
 28 27  1  0
 29 27  2  0
M  END
$$$$
