ELF.pdb
     RDKit          3D

 29 29  0  0  1  0  0  0  0  0999 V2000
   23.0293  -18.4691  -12.3687 N   0  0  0  0  0  0  0  0  0  0  0  0
   22.6979  -19.8353  -11.9629 C   0  0  1  0  0  0  0  0  0  0  0  0
   21.5204  -20.3567  -12.7014 C   0  0  0  0  0  0  0  0  0  0  0  0
   21.7098  -20.3018  -14.1921 C   0  0  0  0  0  0  0  0  0  0  0  0
   20.4895  -20.8356  -14.8888 C   0  0  0  0  0  0  0  0  0  0  0  0
   19.4365  -20.1606  -14.8401 O   0  0  0  0  0  0  0  0  0  0  0  0
   23.9226  -20.6399  -12.0197 C   0  0  0  0  0  0  0  0  0  0  0  0
   23.9148  -21.8943  -11.9057 O   0  0  0  0  0  0  0  0  0  0  0  0
   20.4809  -22.0288  -15.5742 O   0  0  0  0  0  0  0  0  0  0  0  0
   26.8073  -20.7340  -15.2987 C   0  0  0  0  0  0  0  0  0  0  0  0
   27.1997  -19.5403  -14.4093 C   0  0  2  0  0  0  0  0  0  0  0  0
   28.3526  -18.8198  -15.0533 C   0  0  0  0  0  0  0  0  0  0  0  0
   27.5567  -20.0915  -13.0574 C   0  0  0  0  0  0  0  0  0  0  0  0
   26.4427  -20.7286  -12.3418 C   0  0  2  0  0  0  0  0  0  0  0  0
   25.2176  -20.0260  -12.2119 N   0  0  0  0  0  0  0  0  0  0  0  0
   26.8979  -21.2346  -11.0102 C   0  0  0  0  0  0  0  0  0  0  0  0
   27.6457  -22.2651  -10.9869 O   0  0  0  0  0  0  0  0  0  0  0  0
   26.5225  -20.6043   -9.8104 N   0  0  0  0  0  0  0  0  0  0  0  0
   26.9673  -21.1824   -8.5440 C   0  0  1  0  0  0  0  0  0  0  0  0
   28.3290  -20.6735   -8.1738 C   0  0  0  0  0  0  0  0  0  0  0  0
   28.3442  -20.1179   -6.8278 C   0  0  0  0  0  0  0  0  0  0  0  0
   28.7663  -20.9254   -5.7631 C   0  0  0  0  0  0  0  0  0  0  0  0
   28.8181  -20.4368   -4.4759 C   0  0  0  0  0  0  0  0  0  0  0  0
   28.4579  -19.1419   -4.1923 C   0  0  0  0  0  0  0  0  0  0  0  0
   28.0329  -18.3140   -5.2365 C   0  0  0  0  0  0  0  0  0  0  0  0
   27.9817  -18.8042   -6.5238 C   0  0  0  0  0  0  0  0  0  0  0  0
   25.9780  -20.7765   -7.5188 C   0  0  0  0  0  0  0  0  0  0  0  0
   25.8631  -21.3954   -6.2785 O   0  0  0  0  0  0  0  0  0  0  0  0
   25.1729  -19.8281   -7.7310 O   0  0  0  0  0  0  0  0  0  0  0  0
  2  1  1  6
  2  3  1  0
  3  4  1  0
  4  5  1  0
  5  6  2  0
  5  9  1  0
  7  2  1  0
  8  7  2  0
 11 10  1  6
 11 13  1  0
 12 11  1  0
 14 13  1  1
 14 15  1  0
 15  7  1  0
 16 14  1  0
 16 17  2  0
 18 16  1  0
 19 18  1  0
 20 21  1  0
 19 20  1  1
 21 26  2  0
 22 21  1  0
 22 23  2  0
 23 24  1  0
 24 25  2  0
 26 25  1  0
 27 19  1  0
 28 27  1  0
 29 27  2  0
M  END
$$$$
