ELF.pdb
     RDKit          3D

 29 29  0  0  1  0  0  0  0  0999 V2000
   23.1595  -12.2034  -19.8757 N   0  0  0  0  0  0  0  0  0  0  0  0
   21.9986  -12.1105  -18.9898 C   0  0  1  0  0  0  0  0  0  0  0  0
   21.4775  -13.4520  -18.6257 C   0  0  0  0  0  0  0  0  0  0  0  0
   22.5695  -14.3933  -18.1985 C   0  0  0  0  0  0  0  0  0  0  0  0
   22.0009  -15.7592  -17.9332 C   0  0  0  0  0  0  0  0  0  0  0  0
   22.7862  -16.6717  -17.5907 O   0  0  0  0  0  0  0  0  0  0  0  0
   22.3381  -11.2109  -17.8826 C   0  0  0  0  0  0  0  0  0  0  0  0
   21.5128  -10.9039  -16.9819 O   0  0  0  0  0  0  0  0  0  0  0  0
   20.6604  -16.0474  -18.0502 O   0  0  0  0  0  0  0  0  0  0  0  0
   25.8464  -11.4438  -15.1424 C   0  0  0  0  0  0  0  0  0  0  0  0
   26.3141  -10.7147  -16.4152 C   0  0  2  0  0  0  0  0  0  0  0  0
   27.7820  -10.4129  -16.2841 C   0  0  0  0  0  0  0  0  0  0  0  0
   25.4857   -9.4672  -16.5427 C   0  0  0  0  0  0  0  0  0  0  0  0
   24.0524   -9.7033  -16.7641 C   0  0  2  0  0  0  0  0  0  0  0  0
   23.6542  -10.6231  -17.7675 N   0  0  0  0  0  0  0  0  0  0  0  0
   23.3280   -8.4055  -16.9287 C   0  0  0  0  0  0  0  0  0  0  0  0
   23.7341   -7.6054  -17.8323 O   0  0  0  0  0  0  0  0  0  0  0  0
   22.2295   -8.0626  -16.1202 N   0  0  0  0  0  0  0  0  0  0  0  0
   21.5487   -6.7921  -16.3620 C   0  0  1  0  0  0  0  0  0  0  0  0
   20.4311   -6.9644  -17.3477 C   0  0  0  0  0  0  0  0  0  0  0  0
   19.7382   -5.7077  -17.5950 C   0  0  0  0  0  0  0  0  0  0  0  0
   18.4299   -5.5471  -17.1193 C   0  0  0  0  0  0  0  0  0  0  0  0
   17.7425   -4.3684  -17.3102 C   0  0  0  0  0  0  0  0  0  0  0  0
   18.3159   -3.3108  -17.9732 C   0  0  0  0  0  0  0  0  0  0  0  0
   19.6210   -3.4441  -18.4584 C   0  0  0  0  0  0  0  0  0  0  0  0
   20.3075   -4.6238  -18.2664 C   0  0  0  0  0  0  0  0  0  0  0  0
   21.0098   -6.3419  -15.0576 C   0  0  0  0  0  0  0  0  0  0  0  0
   20.9040   -5.0035  -14.6940 O   0  0  0  0  0  0  0  0  0  0  0  0
   20.6144   -7.1737  -14.1949 O   0  0  0  0  0  0  0  0  0  0  0  0
  2  1  1  1
  2  3  1  0
  3  4  1  0
  4  5  1  0
  5  6  2  0
  5  9  1  0
  7  2  1  0
  8  7  2  0
 11 10  1  1
 11 13  1  0
 12 11  1  0
 14 13  1  6
 14 15  1  0
 15  7  1  0
 16 14  1  0
 16 17  2  0
 18 16  1  0
 19 18  1  0
 20 21  1  0
 19 20  1  6
 21 26  2  0
 22 21  1  0
 22 23  2  0
 23 24  1  0
 24 25  2  0
 26 25  1  0
 27 19  1  0
 28 27  1  0
 29 27  2  0
M  END
$$$$
