ELF.pdb
     RDKit          3D

 29 29  0  0  1  0  0  0  0  0999 V2000
   23.9382  -18.8818  -17.3977 N   0  0  0  0  0  0  0  0  0  0  0  0
   23.7684  -20.2897  -17.7582 C   0  0  1  0  0  0  0  0  0  0  0  0
   24.2508  -20.5657  -19.1347 C   0  0  0  0  0  0  0  0  0  0  0  0
   23.6415  -19.6396  -20.1508 C   0  0  0  0  0  0  0  0  0  0  0  0
   22.1865  -19.9653  -20.3409 C   0  0  0  0  0  0  0  0  0  0  0  0
   21.3397  -19.0961  -20.0337 O   0  0  0  0  0  0  0  0  0  0  0  0
   24.3356  -21.1096  -16.6827 C   0  0  0  0  0  0  0  0  0  0  0  0
   24.3931  -22.3662  -16.7474 O   0  0  0  0  0  0  0  0  0  0  0  0
   21.7481  -21.1722  -20.8357 O   0  0  0  0  0  0  0  0  0  0  0  0
   28.1541  -21.0905  -15.9439 C   0  0  0  0  0  0  0  0  0  0  0  0
   27.6516  -20.0120  -14.9669 C   0  0  2  0  0  0  0  0  0  0  0  0
   28.8421  -19.3229  -14.3581 C   0  0  0  0  0  0  0  0  0  0  0  0
   26.8065  -20.7055  -13.9356 C   0  0  0  0  0  0  0  0  0  0  0  0
   25.5213  -21.2122  -14.4364 C   0  0  2  0  0  0  0  0  0  0  0  0
   24.8641  -20.5092  -15.4781 N   0  0  0  0  0  0  0  0  0  0  0  0
   24.5802  -21.4631  -13.3016 C   0  0  0  0  0  0  0  0  0  0  0  0
   24.8802  -22.3782  -12.4683 O   0  0  0  0  0  0  0  0  0  0  0  0
   23.3964  -20.7207  -13.1430 N   0  0  0  0  0  0  0  0  0  0  0  0
   22.4803  -21.0815  -12.0629 C   0  0  1  0  0  0  0  0  0  0  0  0
   22.4918  -20.0405  -10.9829 C   0  0  0  0  0  0  0  0  0  0  0  0
   23.5412  -20.2953  -10.0061 C   0  0  0  0  0  0  0  0  0  0  0  0
   23.2960  -21.2001   -8.9644 C   0  0  0  0  0  0  0  0  0  0  0  0
   24.2657  -21.4894   -8.0294 C   0  0  0  0  0  0  0  0  0  0  0  0
   25.5057  -20.9011   -8.0864 C   0  0  0  0  0  0  0  0  0  0  0  0
   25.7774  -19.9942   -9.1161 C   0  0  0  0  0  0  0  0  0  0  0  0
   24.8063  -19.7060  -10.0508 C   0  0  0  0  0  0  0  0  0  0  0  0
   21.1291  -21.1750  -12.6628 C   0  0  0  0  0  0  0  0  0  0  0  0
   20.8666  -20.9107  -14.0030 O   0  0  0  0  0  0  0  0  0  0  0  0
   20.1295  -21.5050  -11.9668 O   0  0  0  0  0  0  0  0  0  0  0  0
  2  1  1  1
  2  3  1  0
  3  4  1  0
  4  5  1  0
  5  6  2  0
  5  9  1  0
  7  2  1  0
  8  7  2  0
 11 10  1  6
 11 13  1  0
 12 11  1  0
 14 13  1  1
 14 15  1  0
 15  7  1  0
 16 14  1  0
 16 17  2  0
 18 16  1  0
 19 18  1  0
 20 21  1  0
 19 20  1  1
 21 26  2  0
 22 21  1  0
 22 23  2  0
 23 24  1  0
 24 25  2  0
 26 25  1  0
 27 19  1  0
 28 27  1  0
 29 27  2  0
M  END
$$$$
