ELF.pdb
     RDKit          3D

 29 29  0  0  1  0  0  0  0  0999 V2000
   14.2040   -9.7622  -15.0475 N   0  0  0  0  0  0  0  0  0  0  0  0
   15.4267  -10.0477  -14.2962 C   0  0  1  0  0  0  0  0  0  0  0  0
   16.3660  -10.8916  -15.0769 C   0  0  0  0  0  0  0  0  0  0  0  0
   15.8808  -12.3078  -15.2176 C   0  0  0  0  0  0  0  0  0  0  0  0
   16.1878  -13.0865  -13.9691 C   0  0  0  0  0  0  0  0  0  0  0  0
   17.3784  -13.4009  -13.7445 O   0  0  0  0  0  0  0  0  0  0  0  0
   15.9521   -8.7807  -13.7776 C   0  0  0  0  0  0  0  0  0  0  0  0
   16.0180   -7.7368  -14.4794 O   0  0  0  0  0  0  0  0  0  0  0  0
   15.2204  -13.4665  -13.0672 O   0  0  0  0  0  0  0  0  0  0  0  0
   14.8759   -5.9331  -10.4915 C   0  0  0  0  0  0  0  0  0  0  0  0
   15.5127   -7.1976   -9.8868 C   0  0  2  0  0  0  0  0  0  0  0  0
   15.4669   -7.0884   -8.3871 C   0  0  0  0  0  0  0  0  0  0  0  0
   16.9197   -7.2800  -10.4088 C   0  0  0  0  0  0  0  0  0  0  0  0
   17.0237   -7.5056  -11.8570 C   0  0  2  0  0  0  0  0  0  0  0  0
   16.4272   -8.6641  -12.4168 N   0  0  0  0  0  0  0  0  0  0  0  0
   18.4452   -7.3823  -12.3046 C   0  0  0  0  0  0  0  0  0  0  0  0
   19.2613   -8.2970  -11.9595 O   0  0  0  0  0  0  0  0  0  0  0  0
   18.8851   -6.2973  -13.0837 N   0  0  0  0  0  0  0  0  0  0  0  0
   20.2769   -6.2705  -13.5287 C   0  0  1  0  0  0  0  0  0  0  0  0
   20.3596   -6.0536  -15.0107 C   0  0  0  0  0  0  0  0  0  0  0  0
   21.7384   -5.8969  -15.4519 C   0  0  0  0  0  0  0  0  0  0  0  0
   22.2160   -4.6134  -15.7491 C   0  0  0  0  0  0  0  0  0  0  0  0
   23.5192   -4.4134  -16.1491 C   0  0  0  0  0  0  0  0  0  0  0  0
   24.3946   -5.4651  -16.2702 C   0  0  0  0  0  0  0  0  0  0  0  0
   23.9441   -6.7570  -15.9795 C   0  0  0  0  0  0  0  0  0  0  0  0
   22.6401   -6.9554  -15.5793 C   0  0  0  0  0  0  0  0  0  0  0  0
   20.9316   -5.1498  -12.8148 C   0  0  0  0  0  0  0  0  0  0  0  0
   22.2759   -5.1509  -12.4574 O   0  0  0  0  0  0  0  0  0  0  0  0
   20.2820   -4.1182  -12.4883 O   0  0  0  0  0  0  0  0  0  0  0  0
  2  1  1  6
  2  3  1  0
  3  4  1  0
  4  5  1  0
  5  6  2  0
  5  9  1  0
  7  2  1  0
  8  7  2  0
 11 10  1  6
 11 13  1  0
 12 11  1  0
 14 13  1  1
 14 15  1  0
 15  7  1  0
 16 14  1  0
 16 17  2  0
 18 16  1  0
 19 18  1  0
 20 21  1  0
 19 20  1  6
 21 26  2  0
 22 21  1  0
 22 23  2  0
 23 24  1  0
 24 25  2  0
 26 25  1  0
 27 19  1  0
 28 27  1  0
 29 27  2  0
M  END
$$$$
