ELF.pdb
     RDKit          3D

 29 29  0  0  1  0  0  0  0  0999 V2000
   20.8277  -12.9539  -18.4849 N   0  0  0  0  0  0  0  0  0  0  0  0
   21.4720  -11.6403  -18.4704 C   0  0  1  0  0  0  0  0  0  0  0  0
   20.7252  -10.6537  -19.2906 C   0  0  0  0  0  0  0  0  0  0  0  0
   19.3745  -10.3343  -18.7119 C   0  0  0  0  0  0  0  0  0  0  0  0
   18.7104   -9.2512  -19.5151 C   0  0  0  0  0  0  0  0  0  0  0  0
   17.5174   -9.4140  -19.8573 O   0  0  0  0  0  0  0  0  0  0  0  0
   21.7355  -11.2746  -17.0749 C   0  0  0  0  0  0  0  0  0  0  0  0
   20.9431  -11.5606  -16.1385 O   0  0  0  0  0  0  0  0  0  0  0  0
   19.3551   -8.0942  -19.8884 O   0  0  0  0  0  0  0  0  0  0  0  0
   25.5238  -12.0952  -15.8410 C   0  0  0  0  0  0  0  0  0  0  0  0
   25.6493  -10.5671  -15.9799 C   0  0  2  0  0  0  0  0  0  0  0  0
   27.0685  -10.1719  -15.6752 C   0  0  0  0  0  0  0  0  0  0  0  0
   24.6688   -9.9515  -15.0216 C   0  0  0  0  0  0  0  0  0  0  0  0
   23.2572  -10.1439  -15.3812 C   0  0  2  0  0  0  0  0  0  0  0  0
   22.9337  -10.5580  -16.6985 N   0  0  0  0  0  0  0  0  0  0  0  0
   22.4519   -8.9432  -14.9990 C   0  0  0  0  0  0  0  0  0  0  0  0
   22.5844   -8.4868  -13.8176 O   0  0  0  0  0  0  0  0  0  0  0  0
   21.5711   -8.3235  -15.9034 N   0  0  0  0  0  0  0  0  0  0  0  0
   20.8648   -7.1159  -15.4805 C   0  0  1  0  0  0  0  0  0  0  0  0
   21.0158   -6.0248  -16.4988 C   0  0  0  0  0  0  0  0  0  0  0  0
   22.3730   -5.4974  -16.5198 C   0  0  0  0  0  0  0  0  0  0  0  0
   23.2077   -5.8097  -17.6013 C   0  0  0  0  0  0  0  0  0  0  0  0
   24.4919   -5.3161  -17.6754 C   0  0  0  0  0  0  0  0  0  0  0  0
   24.9978   -4.5013  -16.6920 C   0  0  0  0  0  0  0  0  0  0  0  0
   24.1859   -4.1735  -15.6012 C   0  0  0  0  0  0  0  0  0  0  0  0
   22.9013   -4.6679  -15.5286 C   0  0  0  0  0  0  0  0  0  0  0  0
   19.4369   -7.4840  -15.3395 C   0  0  0  0  0  0  0  0  0  0  0  0
   18.4649   -6.6112  -14.8619 O   0  0  0  0  0  0  0  0  0  0  0  0
   19.0280   -8.6362  -15.6523 O   0  0  0  0  0  0  0  0  0  0  0  0
  2  1  1  1
  2  3  1  0
  3  4  1  0
  4  5  1  0
  5  6  2  0
  5  9  1  0
  7  2  1  0
  8  7  2  0
 11 10  1  1
 11 13  1  0
 12 11  1  0
 14 13  1  6
 14 15  1  0
 15  7  1  0
 16 14  1  0
 16 17  2  0
 18 16  1  0
 19 18  1  0
 20 21  1  0
 19 20  1  6
 21 26  2  0
 22 21  1  0
 22 23  2  0
 23 24  1  0
 24 25  2  0
 26 25  1  0
 27 19  1  0
 28 27  1  0
 29 27  2  0
M  END
$$$$
