WKW.pdb
     RDKit          3D

 38 41  0  0  1  0  0  0  0  0999 V2000
   28.3936  -21.4627  -15.1552 N   0  0  0  0  0  0  0  0  0  0  0  0
   27.1540  -21.4840  -14.3998 C   0  0  1  0  0  0  0  0  0  0  0  0
   27.0879  -20.1545  -13.6625 C   0  0  0  0  0  0  0  0  0  0  0  0
   28.0741  -20.2014  -12.5547 C   0  0  0  0  0  0  0  0  0  0  0  0
   29.4413  -20.0451  -12.6087 C   0  0  0  0  0  0  0  0  0  0  0  0
   29.9677  -20.1592  -11.3598 N   0  0  0  0  0  0  0  0  0  0  0  0
   28.9741  -20.3867  -10.4914 C   0  0  0  0  0  0  0  0  0  0  0  0
   28.9801  -20.5736   -9.1320 C   0  0  0  0  0  0  0  0  0  0  0  0
   27.7665  -20.7986   -8.4743 C   0  0  0  0  0  0  0  0  0  0  0  0
   26.5791  -20.8345   -9.1589 C   0  0  0  0  0  0  0  0  0  0  0  0
   26.6101  -20.6416  -10.5248 C   0  0  0  0  0  0  0  0  0  0  0  0
   27.7970  -20.4176  -11.2038 C   0  0  0  0  0  0  0  0  0  0  0  0
   26.0340  -21.6812  -15.3271 C   0  0  0  0  0  0  0  0  0  0  0  0
   25.8890  -20.9121  -16.3011 O   0  0  0  0  0  0  0  0  0  0  0  0
   25.1180  -22.7318  -15.1320 N   0  0  0  0  0  0  0  0  0  0  0  0
   23.9006  -22.8332  -15.9957 C   0  0  1  0  0  0  0  0  0  0  0  0
   24.1965  -23.9193  -17.0200 C   0  0  0  0  0  0  0  0  0  0  0  0
   24.0272  -25.2897  -16.4593 C   0  0  0  0  0  0  0  0  0  0  0  0
   25.1474  -26.2349  -16.7814 C   0  0  0  0  0  0  0  0  0  0  0  0
   24.8063  -27.5936  -16.1709 C   0  0  0  0  0  0  0  0  0  0  0  0
   25.8239  -28.5457  -16.5199 N   0  0  0  0  0  0  0  0  0  0  0  0
   22.7831  -23.1426  -15.1005 C   0  0  0  0  0  0  0  0  0  0  0  0
   23.0015  -23.8326  -14.0302 O   0  0  0  0  0  0  0  0  0  0  0  0
   21.4497  -22.7510  -15.2886 N   0  0  0  0  0  0  0  0  0  0  0  0
   20.4120  -23.0104  -14.2728 C   0  0  1  0  0  0  0  0  0  0  0  0
   20.7049  -22.2616  -13.0231 C   0  0  0  0  0  0  0  0  0  0  0  0
   20.7407  -20.8135  -13.2528 C   0  0  0  0  0  0  0  0  0  0  0  0
   21.2534  -20.1902  -14.4008 C   0  0  0  0  0  0  0  0  0  0  0  0
   21.1842  -18.8702  -14.2550 N   0  0  0  0  0  0  0  0  0  0  0  0
   20.6472  -18.5770  -13.0625 C   0  0  0  0  0  0  0  0  0  0  0  0
   20.3443  -17.3830  -12.4448 C   0  0  0  0  0  0  0  0  0  0  0  0
   19.7600  -17.3389  -11.1995 C   0  0  0  0  0  0  0  0  0  0  0  0
   19.4801  -18.5396  -10.5733 C   0  0  0  0  0  0  0  0  0  0  0  0
   19.7727  -19.7434  -11.1653 C   0  0  0  0  0  0  0  0  0  0  0  0
   20.3650  -19.7846  -12.4251 C   0  0  0  0  0  0  0  0  0  0  0  0
   19.1204  -22.6629  -14.8348 C   0  0  0  0  0  0  0  0  0  0  0  0
   18.9837  -22.1462  -15.9670 O   0  0  0  0  0  0  0  0  0  0  0  0
   17.9637  -22.8973  -14.1173 O   0  0  0  0  0  0  0  0  0  0  0  0
  2  1  1  6
  3  2  1  0
  4  3  1  0
  4  5  2  0
  6  5  1  0
  7  6  1  0
  8  7  2  0
  9  8  1  0
 10  9  2  0
 10 11  1  0
 11 12  2  0
 12  7  1  0
 12  4  1  0
 13  2  1  0
 13 15  1  0
 14 13  2  0
 16 15  1  0
 16 17  1  6
 18 17  1  0
 19 20  1  0
 19 18  1  0
 21 20  1  0
 22 23  2  0
 22 16  1  0
 24 22  1  0
 25 24  1  0
 25 36  1  0
 25 26  1  1
 27 26  1  0
 28 27  2  0
 29 28  1  0
 30 29  1  0
 30 35  2  0
 31 32  2  0
 31 30  1  0
 32 33  1  0
 33 34  2  0
 35 34  1  0
 35 27  1  0
 36 38  1  0
 37 36  2  0
M  END
$$$$
