WKW.pdb
     RDKit          3D

 38 41  0  0  1  0  0  0  0  0999 V2000
   26.2825  -18.1601  -15.9344 N   0  0  0  0  0  0  0  0  0  0  0  0
   26.8275  -19.1532  -15.0265 C   0  0  1  0  0  0  0  0  0  0  0  0
   28.2843  -18.7705  -14.8099 C   0  0  0  0  0  0  0  0  0  0  0  0
   28.9906  -18.9246  -16.1059 C   0  0  0  0  0  0  0  0  0  0  0  0
   29.6046  -17.9609  -16.8744 C   0  0  0  0  0  0  0  0  0  0  0  0
   30.1346  -18.5302  -17.9902 N   0  0  0  0  0  0  0  0  0  0  0  0
   29.8800  -19.8445  -17.9671 C   0  0  0  0  0  0  0  0  0  0  0  0
   30.1963  -20.8472  -18.8488 C   0  0  0  0  0  0  0  0  0  0  0  0
   29.7900  -22.1543  -18.5617 C   0  0  0  0  0  0  0  0  0  0  0  0
   29.0870  -22.4496  -17.4221 C   0  0  0  0  0  0  0  0  0  0  0  0
   28.7871  -21.4170  -16.5574 C   0  0  0  0  0  0  0  0  0  0  0  0
   29.1754  -20.1122  -16.8156 C   0  0  0  0  0  0  0  0  0  0  0  0
   26.0430  -19.1468  -13.7863 C   0  0  0  0  0  0  0  0  0  0  0  0
   25.8158  -18.0678  -13.1986 O   0  0  0  0  0  0  0  0  0  0  0  0
   25.5405  -20.3468  -13.2496 N   0  0  0  0  0  0  0  0  0  0  0  0
   24.6932  -20.3183  -12.0168 C   0  0  1  0  0  0  0  0  0  0  0  0
   23.3697  -20.9666  -12.3968 C   0  0  0  0  0  0  0  0  0  0  0  0
   22.6477  -20.2052  -13.4552 C   0  0  0  0  0  0  0  0  0  0  0  0
   21.3466  -20.8185  -13.8828 C   0  0  0  0  0  0  0  0  0  0  0  0
   20.7979  -19.9935  -15.0462 C   0  0  0  0  0  0  0  0  0  0  0  0
   19.5476  -20.5508  -15.4822 N   0  0  0  0  0  0  0  0  0  0  0  0
   25.4400  -21.0416  -10.9849 C   0  0  0  0  0  0  0  0  0  0  0  0
   26.1643  -22.0570  -11.3220 O   0  0  0  0  0  0  0  0  0  0  0  0
   25.4545  -20.7342   -9.6167 N   0  0  0  0  0  0  0  0  0  0  0  0
   26.0912  -21.6230   -8.6264 C   0  0  1  0  0  0  0  0  0  0  0  0
   27.4700  -21.1613   -8.3197 C   0  0  0  0  0  0  0  0  0  0  0  0
   27.4854  -20.1836   -7.2265 C   0  0  0  0  0  0  0  0  0  0  0  0
   26.7506  -18.9883   -7.2017 C   0  0  0  0  0  0  0  0  0  0  0  0
   27.0428  -18.3131   -6.0939 N   0  0  0  0  0  0  0  0  0  0  0  0
   27.9391  -18.9999   -5.3719 C   0  0  0  0  0  0  0  0  0  0  0  0
   28.5427  -18.7548   -4.1575 C   0  0  0  0  0  0  0  0  0  0  0  0
   29.4314  -19.6438   -3.5973 C   0  0  0  0  0  0  0  0  0  0  0  0
   29.7087  -20.8065   -4.2926 C   0  0  0  0  0  0  0  0  0  0  0  0
   29.1227  -21.0750   -5.5049 C   0  0  0  0  0  0  0  0  0  0  0  0
   28.2246  -20.1729   -6.0697 C   0  0  0  0  0  0  0  0  0  0  0  0
   25.2504  -21.6735   -7.4451 C   0  0  0  0  0  0  0  0  0  0  0  0
   25.5662  -22.2981   -6.4070 O   0  0  0  0  0  0  0  0  0  0  0  0
   24.0368  -21.0145   -7.4262 O   0  0  0  0  0  0  0  0  0  0  0  0
  2  1  1  6
  3  2  1  0
  4  3  1  0
  4  5  2  0
  6  5  1  0
  7  6  1  0
  8  7  2  0
  9  8  1  0
 10  9  2  0
 10 11  1  0
 11 12  2  0
 12  7  1  0
 12  4  1  0
 13  2  1  0
 13 15  1  0
 14 13  2  0
 16 15  1  0
 16 17  1  6
 18 17  1  0
 19 20  1  0
 19 18  1  0
 21 20  1  0
 22 23  2  0
 22 16  1  0
 24 22  1  0
 25 24  1  0
 25 36  1  0
 25 26  1  1
 27 26  1  0
 28 27  2  0
 29 28  1  0
 30 29  1  0
 30 35  2  0
 31 32  2  0
 31 30  1  0
 32 33  1  0
 33 34  2  0
 35 34  1  0
 35 27  1  0
 36 38  1  0
 37 36  2  0
M  END
$$$$
