WKW.pdb
     RDKit          3D

 38 41  0  0  1  0  0  0  0  0999 V2000
   27.8052  -21.7851  -14.4865 N   0  0  0  0  0  0  0  0  0  0  0  0
   26.6293  -21.6139  -13.6525 C   0  0  1  0  0  0  0  0  0  0  0  0
   26.6939  -20.1892  -13.1217 C   0  0  0  0  0  0  0  0  0  0  0  0
   27.6965  -20.1583  -12.0281 C   0  0  0  0  0  0  0  0  0  0  0  0
   29.0574  -19.9638  -12.1096 C   0  0  0  0  0  0  0  0  0  0  0  0
   29.6043  -20.0077  -10.8651 N   0  0  0  0  0  0  0  0  0  0  0  0
   28.6303  -20.2267   -9.9727 C   0  0  0  0  0  0  0  0  0  0  0  0
   28.6609  -20.3541   -8.6068 C   0  0  0  0  0  0  0  0  0  0  0  0
   27.4641  -20.5864   -7.9216 C   0  0  0  0  0  0  0  0  0  0  0  0
   26.2689  -20.6874   -8.5858 C   0  0  0  0  0  0  0  0  0  0  0  0
   26.2750  -20.5533   -9.9591 C   0  0  0  0  0  0  0  0  0  0  0  0
   27.4449  -20.3237  -10.6651 C   0  0  0  0  0  0  0  0  0  0  0  0
   25.4309  -21.8707  -14.4596 C   0  0  0  0  0  0  0  0  0  0  0  0
   25.2541  -21.2473  -15.5279 O   0  0  0  0  0  0  0  0  0  0  0  0
   24.4750  -22.8159  -14.0430 N   0  0  0  0  0  0  0  0  0  0  0  0
   23.2856  -23.1062  -14.9030 C   0  0  1  0  0  0  0  0  0  0  0  0
   23.2369  -24.6190  -15.0628 C   0  0  0  0  0  0  0  0  0  0  0  0
   24.3419  -25.1352  -15.9193 C   0  0  0  0  0  0  0  0  0  0  0  0
   24.3892  -26.6304  -16.0371 C   0  0  0  0  0  0  0  0  0  0  0  0
   25.5234  -26.9908  -16.9956 C   0  0  0  0  0  0  0  0  0  0  0  0
   25.6660  -28.4192  -17.0552 N   0  0  0  0  0  0  0  0  0  0  0  0
   22.1260  -22.5395  -14.2100 C   0  0  0  0  0  0  0  0  0  0  0  0
   21.8140  -22.9778  -13.0353 O   0  0  0  0  0  0  0  0  0  0  0  0
   21.2881  -21.5300  -14.7053 N   0  0  0  0  0  0  0  0  0  0  0  0
   20.1060  -21.0632  -13.9566 C   0  0  1  0  0  0  0  0  0  0  0  0
   20.1309  -19.5847  -13.8091 C   0  0  0  0  0  0  0  0  0  0  0  0
   20.3011  -18.9122  -15.1014 C   0  0  0  0  0  0  0  0  0  0  0  0
   19.2608  -18.5838  -15.9841 C   0  0  0  0  0  0  0  0  0  0  0  0
   19.7709  -18.0375  -17.0841 N   0  0  0  0  0  0  0  0  0  0  0  0
   21.1061  -17.9821  -16.9812 C   0  0  0  0  0  0  0  0  0  0  0  0
   22.0864  -17.4980  -17.8200 C   0  0  0  0  0  0  0  0  0  0  0  0
   23.4179  -17.5306  -17.4735 C   0  0  0  0  0  0  0  0  0  0  0  0
   23.7538  -18.0692  -16.2449 C   0  0  0  0  0  0  0  0  0  0  0  0
   22.7975  -18.5599  -15.3906 C   0  0  0  0  0  0  0  0  0  0  0  0
   21.4510  -18.5264  -15.7446 C   0  0  0  0  0  0  0  0  0  0  0  0
   18.9142  -21.5298  -14.6398 C   0  0  0  0  0  0  0  0  0  0  0  0
   18.9331  -22.0146  -15.7940 O   0  0  0  0  0  0  0  0  0  0  0  0
   17.6819  -21.4519  -14.0210 O   0  0  0  0  0  0  0  0  0  0  0  0
  2  1  1  6
  3  2  1  0
  4  3  1  0
  4  5  2  0
  6  5  1  0
  7  6  1  0
  8  7  2  0
  9  8  1  0
 10  9  2  0
 10 11  1  0
 11 12  2  0
 12  7  1  0
 12  4  1  0
 13  2  1  0
 13 15  1  0
 14 13  2  0
 16 15  1  0
 16 17  1  1
 18 17  1  0
 19 20  1  0
 19 18  1  0
 21 20  1  0
 22 23  2  0
 22 16  1  0
 24 22  1  0
 25 24  1  0
 25 36  1  0
 25 26  1  6
 27 26  1  0
 28 27  2  0
 29 28  1  0
 30 29  1  0
 30 35  2  0
 31 32  2  0
 31 30  1  0
 32 33  1  0
 33 34  2  0
 35 34  1  0
 35 27  1  0
 36 38  1  0
 37 36  2  0
M  END
$$$$
