WKW.pdb
     RDKit          3D

 38 41  0  0  1  0  0  0  0  0999 V2000
   28.3505  -20.4918  -10.6420 N   0  0  0  0  0  0  0  0  0  0  0  0
   26.9875  -20.7848  -10.2370 C   0  0  1  0  0  0  0  0  0  0  0  0
   26.5824  -19.6685   -9.2854 C   0  0  0  0  0  0  0  0  0  0  0  0
   27.6266  -19.5669   -8.2358 C   0  0  0  0  0  0  0  0  0  0  0  0
   28.7931  -18.8351   -8.2465 C   0  0  0  0  0  0  0  0  0  0  0  0
   29.4656  -19.0232   -7.0794 N   0  0  0  0  0  0  0  0  0  0  0  0
   28.7638  -19.8620   -6.3069 C   0  0  0  0  0  0  0  0  0  0  0  0
   29.0085  -20.3629   -5.0530 C   0  0  0  0  0  0  0  0  0  0  0  0
   28.0814  -21.2404   -4.4817 C   0  0  0  0  0  0  0  0  0  0  0  0
   26.9398  -21.6058   -5.1474 C   0  0  0  0  0  0  0  0  0  0  0  0
   26.7253  -21.0823   -6.4060 C   0  0  0  0  0  0  0  0  0  0  0  0
   27.6261  -20.2117   -6.9979 C   0  0  0  0  0  0  0  0  0  0  0  0
   26.1394  -20.8542  -11.4326 C   0  0  0  0  0  0  0  0  0  0  0  0
   26.1245  -19.9023  -12.2418 O   0  0  0  0  0  0  0  0  0  0  0  0
   25.3403  -21.9860  -11.6800 N   0  0  0  0  0  0  0  0  0  0  0  0
   24.3552  -21.9749  -12.8061 C   0  0  1  0  0  0  0  0  0  0  0  0
   24.4849  -23.3250  -13.4964 C   0  0  0  0  0  0  0  0  0  0  0  0
   25.6620  -23.3855  -14.4085 C   0  0  0  0  0  0  0  0  0  0  0  0
   25.9056  -24.7347  -15.0188 C   0  0  0  0  0  0  0  0  0  0  0  0
   27.0721  -24.6043  -15.9972 C   0  0  0  0  0  0  0  0  0  0  0  0
   27.4966  -25.9117  -16.4150 N   0  0  0  0  0  0  0  0  0  0  0  0
   23.0417  -21.7337  -12.2041 C   0  0  0  0  0  0  0  0  0  0  0  0
   22.9356  -21.6768  -10.9177 O   0  0  0  0  0  0  0  0  0  0  0  0
   21.8410  -21.5478  -12.9043 N   0  0  0  0  0  0  0  0  0  0  0  0
   20.7495  -20.7123  -12.3689 C   0  0  1  0  0  0  0  0  0  0  0  0
   21.2318  -19.3333  -12.0970 C   0  0  0  0  0  0  0  0  0  0  0  0
   21.3115  -18.5334  -13.3238 C   0  0  0  0  0  0  0  0  0  0  0  0
   20.2147  -17.9667  -13.9910 C   0  0  0  0  0  0  0  0  0  0  0  0
   20.6360  -17.3587  -15.0961 N   0  0  0  0  0  0  0  0  0  0  0  0
   21.9658  -17.4890  -15.2021 C   0  0  0  0  0  0  0  0  0  0  0  0
   22.8758  -17.0352  -16.1320 C   0  0  0  0  0  0  0  0  0  0  0  0
   24.2239  -17.2819  -16.0073 C   0  0  0  0  0  0  0  0  0  0  0  0
   24.6501  -18.0074  -14.9099 C   0  0  0  0  0  0  0  0  0  0  0  0
   23.7649  -18.4728  -13.9692 C   0  0  0  0  0  0  0  0  0  0  0  0
   22.4011  -18.2224  -14.0988 C   0  0  0  0  0  0  0  0  0  0  0  0
   19.6468  -20.7357  -13.3115 C   0  0  0  0  0  0  0  0  0  0  0  0
   19.7935  -20.9845  -14.5297 O   0  0  0  0  0  0  0  0  0  0  0  0
   18.3597  -20.4759  -12.8831 O   0  0  0  0  0  0  0  0  0  0  0  0
  2  1  1  6
  3  2  1  0
  4  3  1  0
  4  5  2  0
  6  5  1  0
  7  6  1  0
  8  7  2  0
  9  8  1  0
 10  9  2  0
 10 11  1  0
 11 12  2  0
 12  7  1  0
 12  4  1  0
 13  2  1  0
 13 15  1  0
 14 13  2  0
 16 15  1  0
 16 17  1  1
 18 17  1  0
 19 20  1  0
 19 18  1  0
 21 20  1  0
 22 23  2  0
 22 16  1  0
 24 22  1  0
 25 24  1  0
 25 36  1  0
 25 26  1  6
 27 26  1  0
 28 27  2  0
 29 28  1  0
 30 29  1  0
 30 35  2  0
 31 32  2  0
 31 30  1  0
 32 33  1  0
 33 34  2  0
 35 34  1  0
 35 27  1  0
 36 38  1  0
 37 36  2  0
M  END
$$$$
