WKW.pdb
     RDKit          3D

 38 41  0  0  1  0  0  0  0  0999 V2000
   25.2656  -19.7717  -21.8887 N   0  0  0  0  0  0  0  0  0  0  0  0
   25.1467  -18.9684  -20.6853 C   0  0  1  0  0  0  0  0  0  0  0  0
   23.9545  -18.0496  -20.9090 C   0  0  0  0  0  0  0  0  0  0  0  0
   24.3207  -17.0836  -21.9743 C   0  0  0  0  0  0  0  0  0  0  0  0
   24.3493  -17.2723  -23.3382 C   0  0  0  0  0  0  0  0  0  0  0  0
   24.7405  -16.1243  -23.9539 N   0  0  0  0  0  0  0  0  0  0  0  0
   24.9683  -15.1903  -23.0218 C   0  0  0  0  0  0  0  0  0  0  0  0
   25.3766  -13.8843  -23.1246 C   0  0  0  0  0  0  0  0  0  0  0  0
   25.5364  -13.1311  -21.9572 C   0  0  0  0  0  0  0  0  0  0  0  0
   25.2930  -13.6706  -20.7203 C   0  0  0  0  0  0  0  0  0  0  0  0
   24.8829  -14.9864  -20.6542 C   0  0  0  0  0  0  0  0  0  0  0  0
   24.7168  -15.7575  -21.7934 C   0  0  0  0  0  0  0  0  0  0  0  0
   24.9746  -19.8597  -19.5323 C   0  0  0  0  0  0  0  0  0  0  0  0
   24.1801  -20.8215  -19.6016 O   0  0  0  0  0  0  0  0  0  0  0  0
   25.6983  -19.6435  -18.3447 N   0  0  0  0  0  0  0  0  0  0  0  0
   25.4393  -20.4983  -17.1444 C   0  0  1  0  0  0  0  0  0  0  0  0
   26.7698  -20.6206  -16.4157 C   0  0  0  0  0  0  0  0  0  0  0  0
   27.7085  -21.5539  -17.1006 C   0  0  0  0  0  0  0  0  0  0  0  0
   28.1909  -22.6881  -16.2445 C   0  0  0  0  0  0  0  0  0  0  0  0
   29.2292  -23.4727  -17.0453 C   0  0  0  0  0  0  0  0  0  0  0  0
   29.5719  -24.6756  -16.3383 N   0  0  0  0  0  0  0  0  0  0  0  0
   24.3938  -19.8218  -16.3729 C   0  0  0  0  0  0  0  0  0  0  0  0
   24.5828  -18.6052  -15.9813 O   0  0  0  0  0  0  0  0  0  0  0  0
   23.1600  -20.3763  -16.0027 N   0  0  0  0  0  0  0  0  0  0  0  0
   22.1075  -19.5701  -15.3560 C   0  0  1  0  0  0  0  0  0  0  0  0
   21.6766  -18.4615  -16.2467 C   0  0  0  0  0  0  0  0  0  0  0  0
   20.9592  -18.9587  -17.4255 C   0  0  0  0  0  0  0  0  0  0  0  0
   19.9301  -19.9124  -17.4017 C   0  0  0  0  0  0  0  0  0  0  0  0
   19.5439  -20.1765  -18.6466 N   0  0  0  0  0  0  0  0  0  0  0  0
   20.2648  -19.4433  -19.5063 C   0  0  0  0  0  0  0  0  0  0  0  0
   20.2455  -19.3304  -20.8795 C   0  0  0  0  0  0  0  0  0  0  0  0
   21.0864  -18.4701  -21.5480 C   0  0  0  0  0  0  0  0  0  0  0  0
   21.9647  -17.7103  -20.7974 C   0  0  0  0  0  0  0  0  0  0  0  0
   22.0059  -17.8041  -19.4282 C   0  0  0  0  0  0  0  0  0  0  0  0
   21.1545  -18.6764  -18.7548 C   0  0  0  0  0  0  0  0  0  0  0  0
   21.0099  -20.4483  -14.9970 C   0  0  0  0  0  0  0  0  0  0  0  0
   20.0069  -20.0621  -14.3547 O   0  0  0  0  0  0  0  0  0  0  0  0
   21.0360  -21.7799  -15.3627 O   0  0  0  0  0  0  0  0  0  0  0  0
  2  1  1  6
  3  2  1  0
  4  3  1  0
  4  5  2  0
  6  5  1  0
  7  6  1  0
  8  7  2  0
  9  8  1  0
 10  9  2  0
 10 11  1  0
 11 12  2  0
 12  7  1  0
 12  4  1  0
 13  2  1  0
 13 15  1  0
 14 13  2  0
 16 15  1  0
 16 17  1  1
 18 17  1  0
 19 20  1  0
 19 18  1  0
 21 20  1  0
 22 23  2  0
 22 16  1  0
 24 22  1  0
 25 24  1  0
 25 36  1  0
 25 26  1  6
 27 26  1  0
 28 27  2  0
 29 28  1  0
 30 29  1  0
 30 35  2  0
 31 32  2  0
 31 30  1  0
 32 33  1  0
 33 34  2  0
 35 34  1  0
 35 27  1  0
 36 38  1  0
 37 36  2  0
M  END
$$$$
