ERV.pdb
     RDKit          3D

 28 27  0  0  1  0  0  0  0  0999 V2000
   28.1062  -22.3002  -17.1036 N   0  0  0  0  0  0  0  0  0  0  0  0
   27.9644  -21.0759  -16.2871 C   0  0  1  0  0  0  0  0  0  0  0  0
   27.4417  -20.0398  -17.2283 C   0  0  0  0  0  0  0  0  0  0  0  0
   26.0235  -20.2276  -17.6629 C   0  0  0  0  0  0  0  0  0  0  0  0
   25.5987  -19.1292  -18.6039 C   0  0  0  0  0  0  0  0  0  0  0  0
   26.3867  -18.1994  -18.8317 O   0  0  0  0  0  0  0  0  0  0  0  0
   27.1029  -21.3705  -15.1341 C   0  0  0  0  0  0  0  0  0  0  0  0
   26.1498  -22.1867  -15.2490 O   0  0  0  0  0  0  0  0  0  0  0  0
   24.3619  -19.1763  -19.1854 O   0  0  0  0  0  0  0  0  0  0  0  0
   31.1775  -21.8284   -7.9277 N   0  0  0  0  0  0  0  0  0  0  0  0
   31.4802  -22.1791   -9.2655 C   0  0  0  0  0  0  0  0  0  0  0  0
   32.3819  -23.0915   -9.5335 N   0  0  0  0  0  0  0  0  0  0  0  0
   30.7885  -21.5244  -10.3332 N   0  0  0  0  0  0  0  0  0  0  0  0
   29.4120  -21.1612  -10.2007 C   0  0  0  0  0  0  0  0  0  0  0  0
   28.6072  -21.6107  -11.4365 C   0  0  0  0  0  0  0  0  0  0  0  0
   27.3746  -20.8077  -11.5362 C   0  0  0  0  0  0  0  0  0  0  0  0
   26.4626  -21.0842  -12.7028 C   0  0  2  0  0  0  0  0  0  0  0  0
   27.2903  -20.7800  -13.8839 N   0  0  0  0  0  0  0  0  0  0  0  0
   25.1972  -20.3875  -12.7252 C   0  0  0  0  0  0  0  0  0  0  0  0
   25.0692  -19.1170  -12.7943 O   0  0  0  0  0  0  0  0  0  0  0  0
   32.5783  -23.3128  -10.5320 C   0  0  0  0  0  0  0  0  0  0  0  0
   22.8357  -20.7140  -15.1910 C   0  0  2  0  0  0  0  0  0  0  0  0
   21.9822  -20.9665  -13.9844 C   0  0  0  0  0  0  0  0  0  0  0  0
   21.6547  -22.4326  -13.9246 C   0  0  2  0  0  0  0  0  0  0  0  0
   22.6781  -20.4824  -12.7325 N   0  0  0  0  0  0  0  0  0  0  0  0
   23.9786  -21.1084  -12.6739 C   0  0  0  0  0  0  0  0  0  0  0  0
   21.8840  -20.6449  -11.5235 O   0  0  0  0  0  0  0  0  0  0  0  0
   22.1802  -21.4355  -10.5926 O   0  0  0  0  0  0  0  0  0  0  0  0
  2  7  1  0
  2  1  1  6
  3  2  1  0
  4  5  1  0
  4  3  1  0
  5  6  2  0
  7  8  2  0
  9  5  1  0
 11 10  1  0
 11 12  2  0
 13 11  1  0
 14 15  1  0
 14 13  1  0
 17 16  1  1
 16 15  1  0
 18  7  1  0
 18 17  1  0
 19 17  1  0
 19 20  2  0
 22 21  1  6
 22 24  1  0
 23 22  1  0
 24 26  1  0
 24 25  1  1
 25 19  1  0
 26 28  1  0
 27 26  2  0
M  END
$$$$
