ERV.pdb
     RDKit          3D

 28 27  0  0  1  0  0  0  0  0999 V2000
   27.5110  -24.6947  -17.1536 N   0  0  0  0  0  0  0  0  0  0  0  0
   26.4613  -25.6549  -16.7515 C   0  0  1  0  0  0  0  0  0  0  0  0
   27.1764  -26.7064  -15.9672 C   0  0  0  0  0  0  0  0  0  0  0  0
   28.0198  -27.6424  -16.7724 C   0  0  0  0  0  0  0  0  0  0  0  0
   27.2652  -28.9074  -17.0923 C   0  0  0  0  0  0  0  0  0  0  0  0
   26.1169  -29.0474  -16.6462 O   0  0  0  0  0  0  0  0  0  0  0  0
   25.4099  -24.9323  -16.0228 C   0  0  0  0  0  0  0  0  0  0  0  0
   25.5959  -23.7391  -15.6629 O   0  0  0  0  0  0  0  0  0  0  0  0
   27.8549  -29.8713  -17.8626 O   0  0  0  0  0  0  0  0  0  0  0  0
   21.1726  -20.1508  -19.8289 N   0  0  0  0  0  0  0  0  0  0  0  0
   20.3169  -20.1315  -18.7011 C   0  0  0  0  0  0  0  0  0  0  0  0
   19.3579  -19.2441  -18.6002 N   0  0  0  0  0  0  0  0  0  0  0  0
   20.5079  -21.0968  -17.6624 N   0  0  0  0  0  0  0  0  0  0  0  0
   21.6501  -21.9568  -17.6622 C   0  0  0  0  0  0  0  0  0  0  0  0
   21.6077  -22.9207  -16.4597 C   0  0  0  0  0  0  0  0  0  0  0  0
   22.8394  -23.7309  -16.4384 C   0  0  0  0  0  0  0  0  0  0  0  0
   22.9845  -24.7383  -15.3280 C   0  0  2  0  0  0  0  0  0  0  0  0
   24.1823  -25.5121  -15.7012 N   0  0  0  0  0  0  0  0  0  0  0  0
   21.8458  -25.5855  -15.0583 C   0  0  0  0  0  0  0  0  0  0  0  0
   21.3278  -26.3954  -15.9016 O   0  0  0  0  0  0  0  0  0  0  0  0
   18.8140  -19.2041  -17.7130 C   0  0  0  0  0  0  0  0  0  0  0  0
   19.9042  -25.3553  -11.2045 C   0  0  2  0  0  0  0  0  0  0  0  0
   20.1288  -26.6376  -11.9484 C   0  0  0  0  0  0  0  0  0  0  0  0
   19.0979  -27.6382  -11.5050 C   0  0  1  0  0  0  0  0  0  0  0  0
   20.0913  -26.3980  -13.4408 N   0  0  0  0  0  0  0  0  0  0  0  0
   21.2192  -25.5650  -13.7878 C   0  0  0  0  0  0  0  0  0  0  0  0
   18.8112  -25.8967  -13.9193 O   0  0  0  0  0  0  0  0  0  0  0  0
   18.5052  -24.6783  -13.9531 O   0  0  0  0  0  0  0  0  0  0  0  0
  2  7  1  0
  2  1  1  1
  3  2  1  0
  4  5  1  0
  4  3  1  0
  5  6  2  0
  7  8  2  0
  9  5  1  0
 11 10  1  0
 11 12  2  0
 13 11  1  0
 14 15  1  0
 14 13  1  0
 17 16  1  6
 16 15  1  0
 18  7  1  0
 18 17  1  0
 19 17  1  0
 19 20  2  0
 22 21  1  1
 22 24  1  0
 23 22  1  0
 24 26  1  0
 24 25  1  1
 25 19  1  0
 26 28  1  0
 27 26  2  0
M  END
$$$$
