ERV.pdb
     RDKit          3D

 28 27  0  0  1  0  0  0  0  0999 V2000
   27.3265  -23.1077  -17.3489 N   0  0  0  0  0  0  0  0  0  0  0  0
   27.2680  -21.7642  -16.7350 C   0  0  1  0  0  0  0  0  0  0  0  0
   26.6147  -20.8964  -17.7609 C   0  0  0  0  0  0  0  0  0  0  0  0
   27.4727  -20.5304  -18.9294 C   0  0  0  0  0  0  0  0  0  0  0  0
   28.2671  -19.2815  -18.6440 C   0  0  0  0  0  0  0  0  0  0  0  0
   27.7747  -18.4156  -17.9058 O   0  0  0  0  0  0  0  0  0  0  0  0
   26.5628  -21.8590  -15.4497 C   0  0  0  0  0  0  0  0  0  0  0  0
   25.5997  -22.6603  -15.3145 O   0  0  0  0  0  0  0  0  0  0  0  0
   29.5071  -19.1260  -19.1993 O   0  0  0  0  0  0  0  0  0  0  0  0
   29.9142  -22.3984   -8.8088 N   0  0  0  0  0  0  0  0  0  0  0  0
   30.8226  -22.1958   -9.8756 C   0  0  0  0  0  0  0  0  0  0  0  0
   31.8618  -22.9789  -10.0313 N   0  0  0  0  0  0  0  0  0  0  0  0
   30.5964  -21.1199  -10.7913 N   0  0  0  0  0  0  0  0  0  0  0  0
   29.3103  -20.5040  -10.8951 C   0  0  0  0  0  0  0  0  0  0  0  0
   28.4146  -21.2736  -11.8862 C   0  0  0  0  0  0  0  0  0  0  0  0
   27.1457  -20.5448  -12.0663 C   0  0  0  0  0  0  0  0  0  0  0  0
   26.1672  -21.0987  -13.0688 C   0  0  2  0  0  0  0  0  0  0  0  0
   26.9135  -21.0896  -14.3399 N   0  0  0  0  0  0  0  0  0  0  0  0
   24.8906  -20.4310  -13.1770 C   0  0  0  0  0  0  0  0  0  0  0  0
   24.7404  -19.1955  -13.4713 O   0  0  0  0  0  0  0  0  0  0  0  0
   32.5177  -22.7783  -10.8150 C   0  0  0  0  0  0  0  0  0  0  0  0
   22.3175  -20.8535  -15.3631 C   0  0  2  0  0  0  0  0  0  0  0  0
   21.5732  -21.0411  -14.0751 C   0  0  0  0  0  0  0  0  0  0  0  0
   21.2342  -22.4979  -13.9229 C   0  0  2  0  0  0  0  0  0  0  0  0
   22.3851  -20.5163  -12.9127 N   0  0  0  0  0  0  0  0  0  0  0  0
   23.6858  -21.1431  -12.9573 C   0  0  0  0  0  0  0  0  0  0  0  0
   21.7103  -20.6356  -11.6285 O   0  0  0  0  0  0  0  0  0  0  0  0
   22.0925  -21.3976  -10.7052 O   0  0  0  0  0  0  0  0  0  0  0  0
  2  7  1  0
  2  1  1  6
  3  2  1  0
  4  5  1  0
  4  3  1  0
  5  6  2  0
  7  8  2  0
  9  5  1  0
 11 10  1  0
 11 12  2  0
 13 11  1  0
 14 15  1  0
 14 13  1  0
 17 16  1  1
 16 15  1  0
 18  7  1  0
 18 17  1  0
 19 17  1  0
 19 20  2  0
 22 21  1  6
 22 24  1  0
 23 22  1  0
 24 26  1  0
 24 25  1  1
 25 19  1  0
 26 28  1  0
 27 26  2  0
M  END
$$$$
