ERV.pdb
     RDKit          3D

 28 27  0  0  1  0  0  0  0  0999 V2000
   19.6426  -26.1518  -15.5997 N   0  0  0  0  0  0  0  0  0  0  0  0
   19.7518  -25.7046  -14.1948 C   0  0  1  0  0  0  0  0  0  0  0  0
   18.7795  -24.5771  -14.0695 C   0  0  0  0  0  0  0  0  0  0  0  0
   19.2553  -23.2607  -14.5952 C   0  0  0  0  0  0  0  0  0  0  0  0
   19.7767  -22.3918  -13.4793 C   0  0  0  0  0  0  0  0  0  0  0  0
   20.8981  -22.6325  -13.0085 O   0  0  0  0  0  0  0  0  0  0  0  0
   19.5034  -26.8510  -13.3102 C   0  0  0  0  0  0  0  0  0  0  0  0
   18.5891  -27.6740  -13.5834 O   0  0  0  0  0  0  0  0  0  0  0  0
   19.0105  -21.3614  -13.0089 O   0  0  0  0  0  0  0  0  0  0  0  0
   23.1432  -32.3460   -8.0572 N   0  0  0  0  0  0  0  0  0  0  0  0
   23.6080  -32.0791   -9.3675 C   0  0  0  0  0  0  0  0  0  0  0  0
   24.1442  -33.0269  -10.0965 N   0  0  0  0  0  0  0  0  0  0  0  0
   23.4872  -30.7548   -9.8957 N   0  0  0  0  0  0  0  0  0  0  0  0
   22.8716  -29.7146   -9.1321 C   0  0  0  0  0  0  0  0  0  0  0  0
   21.4048  -29.5156   -9.5631 C   0  0  0  0  0  0  0  0  0  0  0  0
   21.3358  -28.4603  -10.5905 C   0  0  0  0  0  0  0  0  0  0  0  0
   19.9962  -28.2063  -11.2309 C   0  0  2  0  0  0  0  0  0  0  0  0
   20.2476  -27.0844  -12.1534 N   0  0  0  0  0  0  0  0  0  0  0  0
   18.8840  -27.9499  -10.3452 C   0  0  0  0  0  0  0  0  0  0  0  0
   18.7521  -26.8967   -9.6318 O   0  0  0  0  0  0  0  0  0  0  0  0
   24.4621  -32.7889  -11.0593 C   0  0  0  0  0  0  0  0  0  0  0  0
   15.3765  -27.8503  -11.2357 C   0  0  2  0  0  0  0  0  0  0  0  0
   15.4422  -28.8824  -10.1501 C   0  0  0  0  0  0  0  0  0  0  0  0
   15.3438  -30.2460  -10.7757 C   0  0  2  0  0  0  0  0  0  0  0  0
   16.7046  -28.7146   -9.3352 N   0  0  0  0  0  0  0  0  0  0  0  0
   17.8335  -28.8920  -10.2188 C   0  0  0  0  0  0  0  0  0  0  0  0
   16.7447  -29.5488   -8.1430 O   0  0  0  0  0  0  0  0  0  0  0  0
   17.5552  -30.4949   -7.9778 O   0  0  0  0  0  0  0  0  0  0  0  0
  2  7  1  0
  2  1  1  6
  3  2  1  0
  4  5  1  0
  4  3  1  0
  5  6  2  0
  7  8  2  0
  9  5  1  0
 11 10  1  0
 11 12  2  0
 13 11  1  0
 14 15  1  0
 14 13  1  0
 17 16  1  1
 16 15  1  0
 18  7  1  0
 18 17  1  0
 19 17  1  0
 19 20  2  0
 22 21  1  1
 22 24  1  0
 23 22  1  0
 24 26  1  0
 24 25  1  1
 25 19  1  0
 26 28  1  0
 27 26  2  0
M  END
$$$$
