ERV.pdb
     RDKit          3D

 28 27  0  0  1  0  0  0  0  0999 V2000
   19.3473   -7.9597  -15.2070 N   0  0  0  0  0  0  0  0  0  0  0  0
   19.2510   -7.6213  -13.7711 C   0  0  1  0  0  0  0  0  0  0  0  0
   19.8741   -6.2689  -13.6482 C   0  0  0  0  0  0  0  0  0  0  0  0
   21.3047   -6.2607  -13.2134 C   0  0  0  0  0  0  0  0  0  0  0  0
   21.4105   -6.2439  -11.7098 C   0  0  0  0  0  0  0  0  0  0  0  0
   20.3689   -6.2482  -11.0373 O   0  0  0  0  0  0  0  0  0  0  0  0
   17.8443   -7.7061  -13.3559 C   0  0  0  0  0  0  0  0  0  0  0  0
   16.9469   -7.1523  -14.0458 O   0  0  0  0  0  0  0  0  0  0  0  0
   22.6431   -6.2243  -11.1180 O   0  0  0  0  0  0  0  0  0  0  0  0
   13.0980  -12.9158   -9.2666 N   0  0  0  0  0  0  0  0  0  0  0  0
   12.2642  -12.0918  -10.0605 C   0  0  0  0  0  0  0  0  0  0  0  0
   11.2288  -11.4815   -9.5381 N   0  0  0  0  0  0  0  0  0  0  0  0
   12.5624  -11.9283  -11.4503 N   0  0  0  0  0  0  0  0  0  0  0  0
   13.8788  -11.5730  -11.8805 C   0  0  0  0  0  0  0  0  0  0  0  0
   14.2041  -10.1157  -11.4966 C   0  0  0  0  0  0  0  0  0  0  0  0
   15.5508   -9.7695  -11.9869 C   0  0  0  0  0  0  0  0  0  0  0  0
   16.0548   -8.3796  -11.6984 C   0  0  2  0  0  0  0  0  0  0  0  0
   17.4378   -8.3876  -12.2084 N   0  0  0  0  0  0  0  0  0  0  0  0
   15.9773   -7.9250  -10.3293 C   0  0  0  0  0  0  0  0  0  0  0  0
   16.6021   -8.4603   -9.3503 O   0  0  0  0  0  0  0  0  0  0  0  0
   10.6449  -10.8820  -10.1580 C   0  0  0  0  0  0  0  0  0  0  0  0
   16.8653   -4.7096   -8.9944 C   0  0  2  0  0  0  0  0  0  0  0  0
   15.4215   -4.8627   -8.6199 C   0  0  0  0  0  0  0  0  0  0  0  0
   14.5902   -4.0328   -9.5582 C   0  0  2  0  0  0  0  0  0  0  0  0
   15.0218   -6.3208   -8.6357 N   0  0  0  0  0  0  0  0  0  0  0  0
   15.1727   -6.8105   -9.9863 C   0  0  0  0  0  0  0  0  0  0  0  0
   13.7118   -6.5730   -8.0537 O   0  0  0  0  0  0  0  0  0  0  0  0
   13.4400   -6.3977   -6.8393 O   0  0  0  0  0  0  0  0  0  0  0  0
  2  7  1  0
  2  1  1  6
  3  2  1  0
  4  5  1  0
  4  3  1  0
  5  6  2  0
  7  8  2  0
  9  5  1  0
 11 10  1  0
 11 12  2  0
 13 11  1  0
 14 15  1  0
 14 13  1  0
 17 16  1  1
 16 15  1  0
 18  7  1  0
 18 17  1  0
 19 17  1  0
 19 20  2  0
 22 21  1  1
 22 24  1  0
 23 22  1  0
 24 26  1  0
 24 25  1  1
 25 19  1  0
 26 28  1  0
 27 26  2  0
M  END
$$$$
