YEE.pdb
     RDKit          3D

 31 31  0  0  1  0  0  0  0  0999 V2000
   21.1803   -4.0950  -14.9694 O   0  0  0  0  0  0  0  0  0  0  0  0
   21.0265   -5.1877  -14.1052 C   0  0  0  0  0  0  0  0  0  0  0  0
   20.1562   -5.1310  -13.0469 C   0  0  0  0  0  0  0  0  0  0  0  0
   19.9922   -6.1999  -12.1846 C   0  0  0  0  0  0  0  0  0  0  0  0
   20.7142   -7.3400  -12.3913 C   0  0  0  0  0  0  0  0  0  0  0  0
   20.5609   -8.5091  -11.4811 C   0  0  0  0  0  0  0  0  0  0  0  0
   19.5054   -9.4176  -12.1101 C   0  0  2  0  0  0  0  0  0  0  0  0
   19.7781   -9.4932  -13.5149 N   0  0  0  0  0  0  0  0  0  0  0  0
   18.1908   -8.7726  -11.8260 C   0  0  0  0  0  0  0  0  0  0  0  0
   17.5463   -8.1963  -12.7387 O   0  0  0  0  0  0  0  0  0  0  0  0
   21.6086   -7.4232  -13.4634 C   0  0  0  0  0  0  0  0  0  0  0  0
   21.7474   -6.3364  -14.3050 C   0  0  0  0  0  0  0  0  0  0  0  0
   17.6398   -8.7935  -10.5301 N   0  0  0  0  0  0  0  0  0  0  0  0
   16.3630   -8.1358  -10.2411 C   0  0  1  0  0  0  0  0  0  0  0  0
   15.7521   -8.7942   -9.0459 C   0  0  0  0  0  0  0  0  0  0  0  0
   14.4056   -8.2921   -8.6610 C   0  0  0  0  0  0  0  0  0  0  0  0
   13.3347   -8.9899   -9.3813 C   0  0  0  0  0  0  0  0  0  0  0  0
   13.5936   -9.8532  -10.2331 O   0  0  0  0  0  0  0  0  0  0  0  0
   16.6292   -6.6849   -9.9624 C   0  0  0  0  0  0  0  0  0  0  0  0
   17.5142   -6.2744   -9.1842 O   0  0  0  0  0  0  0  0  0  0  0  0
   12.0179   -8.6787   -9.1046 O   0  0  0  0  0  0  0  0  0  0  0  0
   15.8380   -5.6825  -10.6117 N   0  0  0  0  0  0  0  0  0  0  0  0
   16.0344   -4.2506  -10.3341 C   0  0  1  0  0  0  0  0  0  0  0  0
   15.8879   -3.5115  -11.6254 C   0  0  0  0  0  0  0  0  0  0  0  0
   15.9027   -2.0369  -11.5586 C   0  0  0  0  0  0  0  0  0  0  0  0
   17.1795   -1.4611  -12.0015 C   0  0  0  0  0  0  0  0  0  0  0  0
   18.0684   -2.0835  -12.5858 O   0  0  0  0  0  0  0  0  0  0  0  0
   15.0929   -3.8550   -9.2952 C   0  0  0  0  0  0  0  0  0  0  0  0
   15.4047   -2.8079   -8.4555 O   0  0  0  0  0  0  0  0  0  0  0  0
   17.3752   -0.0955  -11.7249 O   0  0  0  0  0  0  0  0  0  0  0  0
   14.0072   -4.4428   -9.1460 O   0  0  0  0  0  0  0  0  0  0  0  0
  2  1  1  0
  3  2  2  0
  4  3  1  0
  5 11  1  0
  5  4  2  0
  6  5  1  0
  7  6  1  0
  7  8  1  6
  9 10  2  0
  9  7  1  0
 11 12  2  0
 12  2  1  0
 13  9  1  0
 14 13  1  0
 14 15  1  1
 15 16  1  0
 16 17  1  0
 17 21  1  0
 18 17  2  0
 19 14  1  0
 20 19  2  0
 22 19  1  0
 23 22  1  0
 23 24  1  6
 24 25  1  0
 26 30  1  0
 26 25  1  0
 27 26  2  0
 28 23  1  0
 28 29  1  0
 31 28  2  0
M  END
$$$$
