YEE.pdb
     RDKit          3D

 31 31  0  0  1  0  0  0  0  0999 V2000
   30.1791  -20.1262   -3.9676 O   0  0  0  0  0  0  0  0  0  0  0  0
   29.3058  -20.0380   -5.0604 C   0  0  0  0  0  0  0  0  0  0  0  0
   28.3077  -19.0981   -5.0898 C   0  0  0  0  0  0  0  0  0  0  0  0
   27.4375  -18.9973   -6.1600 C   0  0  0  0  0  0  0  0  0  0  0  0
   27.5748  -19.8543   -7.2138 C   0  0  0  0  0  0  0  0  0  0  0  0
   26.6542  -19.7720   -8.3819 C   0  0  0  0  0  0  0  0  0  0  0  0
   27.1554  -20.7891   -9.4063 C   0  0  2  0  0  0  0  0  0  0  0  0
   28.5630  -20.5793   -9.5745 N   0  0  0  0  0  0  0  0  0  0  0  0
   26.3923  -20.5164  -10.6585 C   0  0  0  0  0  0  0  0  0  0  0  0
   26.5451  -19.4359  -11.2828 O   0  0  0  0  0  0  0  0  0  0  0  0
   28.5846  -20.8219   -7.2084 C   0  0  0  0  0  0  0  0  0  0  0  0
   29.4362  -20.8944   -6.1228 C   0  0  0  0  0  0  0  0  0  0  0  0
   25.4830  -21.4614  -11.1718 N   0  0  0  0  0  0  0  0  0  0  0  0
   24.7602  -21.2132  -12.4218 C   0  0  1  0  0  0  0  0  0  0  0  0
   25.0707  -22.3221  -13.3753 C   0  0  0  0  0  0  0  0  0  0  0  0
   24.4947  -22.1697  -14.7385 C   0  0  0  0  0  0  0  0  0  0  0  0
   25.5375  -22.0823  -15.7668 C   0  0  0  0  0  0  0  0  0  0  0  0
   26.6886  -22.4877  -15.5468 O   0  0  0  0  0  0  0  0  0  0  0  0
   23.2901  -21.1764  -12.1204 C   0  0  0  0  0  0  0  0  0  0  0  0
   22.7358  -21.8898  -11.2594 O   0  0  0  0  0  0  0  0  0  0  0  0
   25.2300  -21.5395  -16.9990 O   0  0  0  0  0  0  0  0  0  0  0  0
   22.4409  -20.2796  -12.8463 N   0  0  0  0  0  0  0  0  0  0  0  0
   21.0038  -20.1723  -12.5474 C   0  0  1  0  0  0  0  0  0  0  0  0
   20.4569  -19.0299  -13.3418 C   0  0  0  0  0  0  0  0  0  0  0  0
   20.3057  -19.2366  -14.7956 C   0  0  0  0  0  0  0  0  0  0  0  0
   19.0826  -18.6252  -15.3321 C   0  0  0  0  0  0  0  0  0  0  0  0
   18.2245  -18.0549  -14.6558 O   0  0  0  0  0  0  0  0  0  0  0  0
   20.3835  -21.4606  -12.8261 C   0  0  0  0  0  0  0  0  0  0  0  0
   19.2375  -21.8251  -12.1533 O   0  0  0  0  0  0  0  0  0  0  0  0
   18.9032  -18.7118  -16.7250 O   0  0  0  0  0  0  0  0  0  0  0  0
   20.8656  -22.2453  -13.6617 O   0  0  0  0  0  0  0  0  0  0  0  0
  2  1  1  0
  3  2  2  0
  4  3  1  0
  5 11  1  0
  5  4  2  0
  6  5  1  0
  7  6  1  0
  7  8  1  6
  9 10  2  0
  9  7  1  0
 11 12  2  0
 12  2  1  0
 13  9  1  0
 14 13  1  0
 14 15  1  6
 15 16  1  0
 16 17  1  0
 17 21  1  0
 18 17  2  0
 19 14  1  0
 20 19  2  0
 22 19  1  0
 23 22  1  0
 23 24  1  6
 24 25  1  0
 26 30  1  0
 26 25  1  0
 27 26  2  0
 28 23  1  0
 28 29  1  0
 31 28  2  0
M  END
$$$$
