YEE.pdb
     RDKit          3D

 31 31  0  0  1  0  0  0  0  0999 V2000
   22.4755  -21.5957   -5.8026 O   0  0  0  0  0  0  0  0  0  0  0  0
   22.7080  -21.2666   -7.1451 C   0  0  0  0  0  0  0  0  0  0  0  0
   21.6640  -21.0535   -8.0084 C   0  0  0  0  0  0  0  0  0  0  0  0
   21.8755  -20.7280   -9.3359 C   0  0  0  0  0  0  0  0  0  0  0  0
   23.1549  -20.6158   -9.7991 C   0  0  0  0  0  0  0  0  0  0  0  0
   23.4168  -20.2665  -11.2232 C   0  0  0  0  0  0  0  0  0  0  0  0
   24.8922  -20.5675  -11.4831 C   0  0  2  0  0  0  0  0  0  0  0  0
   25.6646  -19.5502  -10.8334 N   0  0  0  0  0  0  0  0  0  0  0  0
   25.0589  -20.5403  -12.9650 C   0  0  0  0  0  0  0  0  0  0  0  0
   25.1028  -19.4489  -13.5877 O   0  0  0  0  0  0  0  0  0  0  0  0
   24.2370  -20.8282   -8.9389 C   0  0  0  0  0  0  0  0  0  0  0  0
   23.9892  -21.1519   -7.6188 C   0  0  0  0  0  0  0  0  0  0  0  0
   25.1713  -21.7348  -13.7025 N   0  0  0  0  0  0  0  0  0  0  0  0
   25.3119  -21.7124  -15.1606 C   0  0  1  0  0  0  0  0  0  0  0  0
   26.2037  -22.8416  -15.5668 C   0  0  0  0  0  0  0  0  0  0  0  0
   26.4489  -22.9650  -17.0289 C   0  0  0  0  0  0  0  0  0  0  0  0
   27.3888  -24.0487  -17.3368 C   0  0  0  0  0  0  0  0  0  0  0  0
   27.6975  -24.3144  -18.5081 O   0  0  0  0  0  0  0  0  0  0  0  0
   23.9499  -21.8736  -15.7710 C   0  0  0  0  0  0  0  0  0  0  0  0
   23.0198  -22.5164  -15.2428 O   0  0  0  0  0  0  0  0  0  0  0  0
   27.9374  -24.7833  -16.3040 O   0  0  0  0  0  0  0  0  0  0  0  0
   23.6650  -21.2660  -17.0367 N   0  0  0  0  0  0  0  0  0  0  0  0
   22.2875  -20.9382  -17.4380 C   0  0  1  0  0  0  0  0  0  0  0  0
   21.8341  -19.7802  -16.6081 C   0  0  0  0  0  0  0  0  0  0  0  0
   20.7064  -20.0181  -15.6857 C   0  0  0  0  0  0  0  0  0  0  0  0
   20.1846  -18.7785  -15.0949 C   0  0  0  0  0  0  0  0  0  0  0  0
   20.6317  -17.6509  -15.3133 O   0  0  0  0  0  0  0  0  0  0  0  0
   22.2767  -20.6992  -18.8750 C   0  0  0  0  0  0  0  0  0  0  0  0
   23.3626  -20.0990  -19.4744 O   0  0  0  0  0  0  0  0  0  0  0  0
   19.0930  -18.9186  -14.2183 O   0  0  0  0  0  0  0  0  0  0  0  0
   21.3053  -21.0257  -19.5794 O   0  0  0  0  0  0  0  0  0  0  0  0
  2  1  1  0
  3  2  2  0
  4  3  1  0
  5 11  1  0
  5  4  2  0
  6  5  1  0
  7  6  1  0
  7  8  1  1
  9 10  2  0
  9  7  1  0
 11 12  2  0
 12  2  1  0
 13  9  1  0
 14 13  1  0
 14 15  1  6
 15 16  1  0
 16 17  1  0
 17 21  1  0
 18 17  2  0
 19 14  1  0
 20 19  2  0
 22 19  1  0
 23 22  1  0
 23 24  1  1
 24 25  1  0
 26 30  1  0
 26 25  1  0
 27 26  2  0
 28 23  1  0
 28 29  1  0
 31 28  2  0
M  END
$$$$
