YEE.pdb
     RDKit          3D

 31 31  0  0  1  0  0  0  0  0999 V2000
   28.6528  -15.4370  -18.2217 O   0  0  0  0  0  0  0  0  0  0  0  0
   27.4188  -15.9860  -17.8469 C   0  0  0  0  0  0  0  0  0  0  0  0
   27.1057  -16.1770  -16.5255 C   0  0  0  0  0  0  0  0  0  0  0  0
   25.8929  -16.7173  -16.1383 C   0  0  0  0  0  0  0  0  0  0  0  0
   24.9843  -17.0695  -17.0945 C   0  0  0  0  0  0  0  0  0  0  0  0
   23.6689  -17.6537  -16.7109 C   0  0  0  0  0  0  0  0  0  0  0  0
   23.9648  -18.9935  -16.0384 C   0  0  2  0  0  0  0  0  0  0  0  0
   24.5416  -19.8575  -17.0254 N   0  0  0  0  0  0  0  0  0  0  0  0
   22.6519  -19.5006  -15.5447 C   0  0  0  0  0  0  0  0  0  0  0  0
   21.8852  -20.1466  -16.3033 O   0  0  0  0  0  0  0  0  0  0  0  0
   25.2793  -16.8848  -18.4491 C   0  0  0  0  0  0  0  0  0  0  0  0
   26.5006  -16.3425  -18.8002 C   0  0  0  0  0  0  0  0  0  0  0  0
   22.2392  -19.2688  -14.2183 N   0  0  0  0  0  0  0  0  0  0  0  0
   20.9582  -19.7805  -13.7250 C   0  0  1  0  0  0  0  0  0  0  0  0
   21.0394  -19.9026  -12.2371 C   0  0  0  0  0  0  0  0  0  0  0  0
   20.3849  -21.1077  -11.6604 C   0  0  0  0  0  0  0  0  0  0  0  0
   18.9506  -20.8969  -11.4354 C   0  0  0  0  0  0  0  0  0  0  0  0
   18.1138  -21.7280  -11.8188 O   0  0  0  0  0  0  0  0  0  0  0  0
   19.8791  -18.8121  -14.1139 C   0  0  0  0  0  0  0  0  0  0  0  0
   19.9747  -17.5739  -13.9911 O   0  0  0  0  0  0  0  0  0  0  0  0
   18.5277  -19.7538  -10.7859 O   0  0  0  0  0  0  0  0  0  0  0  0
   18.6507  -19.3040  -14.6630 N   0  0  0  0  0  0  0  0  0  0  0  0
   17.6055  -18.3883  -15.1478 C   0  0  1  0  0  0  0  0  0  0  0  0
   16.9908  -19.0015  -16.3649 C   0  0  0  0  0  0  0  0  0  0  0  0
   16.1152  -20.1715  -16.1561 C   0  0  0  0  0  0  0  0  0  0  0  0
   15.5785  -20.7108  -17.4126 C   0  0  0  0  0  0  0  0  0  0  0  0
   14.4620  -20.4569  -17.8687 O   0  0  0  0  0  0  0  0  0  0  0  0
   16.6752  -18.1397  -14.0546 C   0  0  0  0  0  0  0  0  0  0  0  0
   15.8331  -17.0506  -14.1106 O   0  0  0  0  0  0  0  0  0  0  0  0
   16.4234  -21.5791  -18.1280 O   0  0  0  0  0  0  0  0  0  0  0  0
   16.6218  -18.8911  -13.0651 O   0  0  0  0  0  0  0  0  0  0  0  0
  2  1  1  0
  3  2  2  0
  4  3  1  0
  5 11  1  0
  5  4  2  0
  6  5  1  0
  7  6  1  0
  7  8  1  6
  9 10  2  0
  9  7  1  0
 11 12  2  0
 12  2  1  0
 13  9  1  0
 14 13  1  0
 14 15  1  1
 15 16  1  0
 16 17  1  0
 17 21  1  0
 18 17  2  0
 19 14  1  0
 20 19  2  0
 22 19  1  0
 23 22  1  0
 23 24  1  6
 24 25  1  0
 26 30  1  0
 26 25  1  0
 27 26  2  0
 28 23  1  0
 28 29  1  0
 31 28  2  0
M  END
$$$$
