YEE.pdb
     RDKit          3D

 31 31  0  0  1  0  0  0  0  0999 V2000
   20.2474   -0.2300  -22.7143 O   0  0  0  0  0  0  0  0  0  0  0  0
   20.3502   -1.5193  -22.1742 C   0  0  0  0  0  0  0  0  0  0  0  0
   19.6331   -1.8753  -21.0609 C   0  0  0  0  0  0  0  0  0  0  0  0
   19.7227   -3.1429  -20.5151 C   0  0  0  0  0  0  0  0  0  0  0  0
   20.5452   -4.0633  -21.0985 C   0  0  0  0  0  0  0  0  0  0  0  0
   20.6642   -5.4373  -20.5357 C   0  0  0  0  0  0  0  0  0  0  0  0
   21.9743   -5.4762  -19.7503 C   0  0  2  0  0  0  0  0  0  0  0  0
   23.0225   -5.8084  -20.6692 N   0  0  0  0  0  0  0  0  0  0  0  0
   21.7911   -6.5227  -18.7034 C   0  0  0  0  0  0  0  0  0  0  0  0
   22.1986   -7.6974  -18.8897 O   0  0  0  0  0  0  0  0  0  0  0  0
   21.2873   -3.7253  -22.2348 C   0  0  0  0  0  0  0  0  0  0  0  0
   21.1736   -2.4497  -22.7534 C   0  0  0  0  0  0  0  0  0  0  0  0
   21.1581   -6.2212  -17.4820 N   0  0  0  0  0  0  0  0  0  0  0  0
   20.9832   -7.2447  -16.4485 C   0  0  1  0  0  0  0  0  0  0  0  0
   21.2873   -6.6312  -15.1195 C   0  0  0  0  0  0  0  0  0  0  0  0
   22.4179   -5.6643  -15.1082 C   0  0  0  0  0  0  0  0  0  0  0  0
   22.7056   -5.1742  -13.7556 C   0  0  0  0  0  0  0  0  0  0  0  0
   22.8789   -5.9615  -12.8131 O   0  0  0  0  0  0  0  0  0  0  0  0
   19.5615   -7.7247  -16.4921 C   0  0  0  0  0  0  0  0  0  0  0  0
   18.5946   -7.0134  -16.8336 O   0  0  0  0  0  0  0  0  0  0  0  0
   22.7844   -3.8139  -13.5305 O   0  0  0  0  0  0  0  0  0  0  0  0
   19.2591   -9.0762  -16.1256 N   0  0  0  0  0  0  0  0  0  0  0  0
   17.8703   -9.5555  -16.0385 C   0  0  1  0  0  0  0  0  0  0  0  0
   17.9112  -11.0223  -15.7522 C   0  0  0  0  0  0  0  0  0  0  0  0
   16.6160  -11.7030  -15.5566 C   0  0  0  0  0  0  0  0  0  0  0  0
   16.7654  -13.1342  -15.2613 C   0  0  0  0  0  0  0  0  0  0  0  0
   17.8428  -13.7208  -15.1433 O   0  0  0  0  0  0  0  0  0  0  0  0
   17.1756   -8.7581  -15.0366 C   0  0  0  0  0  0  0  0  0  0  0  0
   15.8624   -8.3959  -15.2442 O   0  0  0  0  0  0  0  0  0  0  0  0
   15.5731  -13.8651  -15.1067 O   0  0  0  0  0  0  0  0  0  0  0  0
   17.7419   -8.3936  -13.9912 O   0  0  0  0  0  0  0  0  0  0  0  0
  2  1  1  0
  3  2  2  0
  4  3  1  0
  5 11  1  0
  5  4  2  0
  6  5  1  0
  7  6  1  0
  7  8  1  6
  9 10  2  0
  9  7  1  0
 11 12  2  0
 12  2  1  0
 13  9  1  0
 14 13  1  0
 14 15  1  1
 15 16  1  0
 16 17  1  0
 17 21  1  0
 18 17  2  0
 19 14  1  0
 20 19  2  0
 22 19  1  0
 23 22  1  0
 23 24  1  1
 24 25  1  0
 26 30  1  0
 26 25  1  0
 27 26  2  0
 28 23  1  0
 28 29  1  0
 31 28  2  0
M  END
$$$$
