YEE.pdb
     RDKit          3D

 31 31  0  0  1  0  0  0  0  0999 V2000
   45.5403  -10.9475  -10.1246 O   0  0  0  0  0  0  0  0  0  0  0  0
   45.1738  -10.5465   -8.8325 C   0  0  0  0  0  0  0  0  0  0  0  0
   44.7555  -11.4639   -7.9030 C   0  0  0  0  0  0  0  0  0  0  0  0
   44.3903  -11.0855   -6.6238 C   0  0  0  0  0  0  0  0  0  0  0  0
   44.4474   -9.7662   -6.2770 C   0  0  0  0  0  0  0  0  0  0  0  0
   44.0613   -9.3257   -4.9075 C   0  0  0  0  0  0  0  0  0  0  0  0
   42.5543   -9.0744   -4.9376 C   0  0  2  0  0  0  0  0  0  0  0  0
   41.9286  -10.2466   -5.4743 N   0  0  0  0  0  0  0  0  0  0  0  0
   42.3573   -7.8814   -5.8109 C   0  0  0  0  0  0  0  0  0  0  0  0
   43.1064   -6.8771   -5.7067 O   0  0  0  0  0  0  0  0  0  0  0  0
   44.8707   -8.8108   -7.2066 C   0  0  0  0  0  0  0  0  0  0  0  0
   45.2280   -9.2241   -8.4756 C   0  0  0  0  0  0  0  0  0  0  0  0
   41.3290   -7.8507   -6.7726 N   0  0  0  0  0  0  0  0  0  0  0  0
   41.1502   -6.6920   -7.6511 C   0  0  1  0  0  0  0  0  0  0  0  0
   40.3074   -7.1065   -8.8144 C   0  0  0  0  0  0  0  0  0  0  0  0
   40.0744   -6.0535   -9.8391 C   0  0  0  0  0  0  0  0  0  0  0  0
   39.2418   -6.5402  -10.9447 C   0  0  0  0  0  0  0  0  0  0  0  0
   38.0551   -6.8511  -10.7632 O   0  0  0  0  0  0  0  0  0  0  0  0
   40.4694   -5.6054   -6.8705 C   0  0  0  0  0  0  0  0  0  0  0  0
   39.5241   -5.8013   -6.0796 O   0  0  0  0  0  0  0  0  0  0  0  0
   39.7905   -6.6532  -12.2071 O   0  0  0  0  0  0  0  0  0  0  0  0
   40.9052   -4.2487   -7.0176 N   0  0  0  0  0  0  0  0  0  0  0  0
   40.2338   -3.1459   -6.3110 C   0  0  1  0  0  0  0  0  0  0  0  0
   41.2586   -2.4498   -5.4740 C   0  0  0  0  0  0  0  0  0  0  0  0
   40.8288   -1.2264   -4.7686 C   0  0  0  0  0  0  0  0  0  0  0  0
   41.8966   -0.6385   -3.9489 C   0  0  0  0  0  0  0  0  0  0  0  0
   43.0851   -0.5869   -4.2710 O   0  0  0  0  0  0  0  0  0  0  0  0
   39.5803   -2.3013   -7.3018 C   0  0  0  0  0  0  0  0  0  0  0  0
   40.0079   -2.3311   -8.6114 O   0  0  0  0  0  0  0  0  0  0  0  0
   41.5048   -0.1019   -2.7086 O   0  0  0  0  0  0  0  0  0  0  0  0
   38.6395   -1.5489   -6.9933 O   0  0  0  0  0  0  0  0  0  0  0  0
  2  1  1  0
  3  2  2  0
  4  3  1  0
  5 11  1  0
  5  4  2  0
  6  5  1  0
  7  6  1  0
  7  8  1  6
  9 10  2  0
  9  7  1  0
 11 12  2  0
 12  2  1  0
 13  9  1  0
 14 13  1  0
 14 15  1  6
 15 16  1  0
 16 17  1  0
 17 21  1  0
 18 17  2  0
 19 14  1  0
 20 19  2  0
 22 19  1  0
 23 22  1  0
 23 24  1  6
 24 25  1  0
 26 30  1  0
 26 25  1  0
 27 26  2  0
 28 23  1  0
 28 29  1  0
 31 28  2  0
M  END
$$$$
