YEE.pdb
     RDKit          3D

 31 31  0  0  1  0  0  0  0  0999 V2000
   27.8007  -11.2644  -15.7438 O   0  0  0  0  0  0  0  0  0  0  0  0
   26.6094  -10.5599  -15.5222 C   0  0  0  0  0  0  0  0  0  0  0  0
   25.6076  -11.0952  -14.7538 C   0  0  0  0  0  0  0  0  0  0  0  0
   24.4261  -10.4137  -14.5249 C   0  0  0  0  0  0  0  0  0  0  0  0
   24.2519   -9.1774  -15.0773 C   0  0  0  0  0  0  0  0  0  0  0  0
   22.9913   -8.4171  -14.8500 C   0  0  0  0  0  0  0  0  0  0  0  0
   21.8781   -9.1975  -15.5476 C   0  0  2  0  0  0  0  0  0  0  0  0
   22.1341   -9.1543  -16.9568 N   0  0  0  0  0  0  0  0  0  0  0  0
   20.6070   -8.5064  -15.1851 C   0  0  0  0  0  0  0  0  0  0  0  0
   20.2684   -7.4398  -15.7582 O   0  0  0  0  0  0  0  0  0  0  0  0
   25.2583   -8.6092  -15.8649 C   0  0  0  0  0  0  0  0  0  0  0  0
   26.4259   -9.3180  -16.0728 C   0  0  0  0  0  0  0  0  0  0  0  0
   19.7557   -9.0309  -14.1933 N   0  0  0  0  0  0  0  0  0  0  0  0
   18.4638   -8.4062  -13.8987 C   0  0  1  0  0  0  0  0  0  0  0  0
   17.4346   -9.4837  -13.7766 C   0  0  0  0  0  0  0  0  0  0  0  0
   16.0555   -9.0157  -13.4726 C   0  0  0  0  0  0  0  0  0  0  0  0
   15.1041  -10.1297  -13.3945 C   0  0  0  0  0  0  0  0  0  0  0  0
   14.1197  -10.1843  -14.1467 O   0  0  0  0  0  0  0  0  0  0  0  0
   18.5864   -7.6489  -12.6083 C   0  0  0  0  0  0  0  0  0  0  0  0
   19.3702   -7.9596  -11.6882 O   0  0  0  0  0  0  0  0  0  0  0  0
   15.3100  -11.1326  -12.4676 O   0  0  0  0  0  0  0  0  0  0  0  0
   17.7690   -6.4938  -12.3849 N   0  0  0  0  0  0  0  0  0  0  0  0
   17.9431   -5.6492  -11.1923 C   0  0  1  0  0  0  0  0  0  0  0  0
   17.2259   -4.3605  -11.4375 C   0  0  0  0  0  0  0  0  0  0  0  0
   17.2023   -3.3857  -10.3292 C   0  0  0  0  0  0  0  0  0  0  0  0
   16.4696   -2.1584  -10.6678 C   0  0  0  0  0  0  0  0  0  0  0  0
   16.3430   -1.1848   -9.9228 O   0  0  0  0  0  0  0  0  0  0  0  0
   17.4745   -6.3965  -10.0329 C   0  0  0  0  0  0  0  0  0  0  0  0
   17.7497   -5.9315   -8.7654 O   0  0  0  0  0  0  0  0  0  0  0  0
   15.8784   -2.1189  -11.9440 O   0  0  0  0  0  0  0  0  0  0  0  0
   16.8277   -7.4510  -10.1593 O   0  0  0  0  0  0  0  0  0  0  0  0
  2  1  1  0
  3  2  2  0
  4  3  1  0
  5 11  1  0
  5  4  2  0
  6  5  1  0
  7  6  1  0
  7  8  1  6
  9 10  2  0
  9  7  1  0
 11 12  2  0
 12  2  1  0
 13  9  1  0
 14 13  1  0
 14 15  1  1
 15 16  1  0
 16 17  1  0
 17 21  1  0
 18 17  2  0
 19 14  1  0
 20 19  2  0
 22 19  1  0
 23 22  1  0
 23 24  1  6
 24 25  1  0
 26 30  1  0
 26 25  1  0
 27 26  2  0
 28 23  1  0
 28 29  1  0
 31 28  2  0
M  END
$$$$
