CIT.pdb
     RDKit          3D

 22 21  0  0  1  0  0  0  0  0999 V2000
    7.5650  -14.5370   20.0540 N   0  0  0  0  0  0  0  0  0  0  0  0
    6.9115  -14.9785   21.2512 C   0  0  1  0  0  0  0  0  0  0  0  0
    6.5537  -16.4338   21.1094 C   0  0  0  0  0  0  0  0  0  0  0  0
    6.4258  -16.8080   19.3377 S   0  0  0  0  0  0  0  0  0  0  0  0
    7.7938  -14.7583   22.4191 C   0  0  0  0  0  0  0  0  0  0  0  0
    9.0325  -14.8007   22.2935 O   0  0  0  0  0  0  0  0  0  0  0  0
    5.9967  -11.4072   26.1141 C   0  0  0  0  0  0  0  0  0  0  0  0
    6.9117  -12.2051   25.2415 C   0  0  0  0  0  0  0  0  0  0  0  0
    7.2463  -13.5326   25.9167 C   0  0  2  0  0  0  0  0  0  0  0  0
    8.1019  -13.2079   27.1211 C   0  0  0  0  0  0  0  0  0  0  0  0
    8.0288  -14.3406   24.8983 C   0  0  2  0  0  0  0  0  0  0  0  0
    7.2543  -14.4965   23.6957 N   0  0  0  0  0  0  0  0  0  0  0  0
    8.5044  -15.6282   25.4421 C   0  0  0  0  0  0  0  0  0  0  0  0
    7.6618  -16.4369   25.9086 O   0  0  0  0  0  0  0  0  0  0  0  0
   12.0933  -19.0816   25.4833 C   0  0  0  0  0  0  0  0  0  0  0  0
   11.6443  -17.6745   25.1608 C   0  0  1  0  0  0  0  0  0  0  0  0
   11.5119  -17.5743   23.7859 O   0  0  0  0  0  0  0  0  0  0  0  0
   10.3185  -17.3362   25.8141 C   0  0  2  0  0  0  0  0  0  0  0  0
    9.8674  -16.0125   25.4708 N   0  0  0  0  0  0  0  0  0  0  0  0
   10.5008  -17.4683   27.2732 C   0  0  0  0  0  0  0  0  0  0  0  0
   10.9142  -16.4890   27.9283 O   0  0  0  0  0  0  0  0  0  0  0  0
   10.2260  -18.6473   27.9324 O   0  0  0  0  0  0  0  0  0  0  0  0
  2  1  1  6
  2  5  1  0
  3  2  1  0
  4  3  1  0
  5 12  1  0
  5  6  2  0
  7  8  1  0
  8  9  1  0
  9 11  1  0
  9 10  1  1
 11 13  1  0
 11 12  1  6
 13 14  2  0
 16 18  1  0
 16 15  1  6
 17 16  1  0
 18 20  1  0
 19 13  1  0
 18 19  1  1
 20 22  1  0
 21 20  2  0
M  END
$$$$
