CIT.pdb
     RDKit          3D

 22 21  0  0  1  0  0  0  0  0999 V2000
    7.6680  -14.2434   19.9220 N   0  0  0  0  0  0  0  0  0  0  0  0
    7.0098  -14.7848   21.0748 C   0  0  1  0  0  0  0  0  0  0  0  0
    6.7707  -16.2555   20.8606 C   0  0  0  0  0  0  0  0  0  0  0  0
    5.7873  -16.4473   19.3469 S   0  0  0  0  0  0  0  0  0  0  0  0
    7.8317  -14.5493   22.2831 C   0  0  0  0  0  0  0  0  0  0  0  0
    9.0727  -14.4785   22.2005 O   0  0  0  0  0  0  0  0  0  0  0  0
    5.8376  -11.4650   26.1334 C   0  0  0  0  0  0  0  0  0  0  0  0
    6.7807  -12.1984   25.2344 C   0  0  0  0  0  0  0  0  0  0  0  0
    7.0950  -13.5719   25.8214 C   0  0  2  0  0  0  0  0  0  0  0  0
    7.8718  -13.3354   27.0976 C   0  0  0  0  0  0  0  0  0  0  0  0
    7.9498  -14.2873   24.7917 C   0  0  2  0  0  0  0  0  0  0  0  0
    7.2310  -14.4003   23.5504 N   0  0  0  0  0  0  0  0  0  0  0  0
    8.4551  -15.5859   25.2794 C   0  0  0  0  0  0  0  0  0  0  0  0
    7.6293  -16.4435   25.6846 O   0  0  0  0  0  0  0  0  0  0  0  0
   12.1951  -18.8883   25.4533 C   0  0  0  0  0  0  0  0  0  0  0  0
   11.6783  -17.5203   25.0699 C   0  0  1  0  0  0  0  0  0  0  0  0
   11.5804  -17.4737   23.6892 O   0  0  0  0  0  0  0  0  0  0  0  0
   10.3174  -17.2358   25.6748 C   0  0  2  0  0  0  0  0  0  0  0  0
    9.8288  -15.9288   25.3191 N   0  0  0  0  0  0  0  0  0  0  0  0
   10.4510  -17.3672   27.1392 C   0  0  0  0  0  0  0  0  0  0  0  0
   10.2946  -18.4871   27.6690 O   0  0  0  0  0  0  0  0  0  0  0  0
   10.7445  -16.2832   27.9386 O   0  0  0  0  0  0  0  0  0  0  0  0
  2  1  1  6
  2  5  1  0
  3  2  1  0
  4  3  1  0
  5 12  1  0
  5  6  2  0
  7  8  1  0
  8  9  1  0
  9 11  1  0
  9 10  1  1
 11 13  1  0
 11 12  1  6
 13 14  2  0
 16 18  1  0
 16 15  1  6
 17 16  1  0
 18 20  1  0
 19 13  1  0
 18 19  1  1
 20 22  1  0
 21 20  2  0
M  END
$$$$
