CIT.pdb
     RDKit          3D

 22 21  0  0  1  0  0  0  0  0999 V2000
    7.8061  -14.0041   19.9757 N   0  0  0  0  0  0  0  0  0  0  0  0
    7.1186  -14.6611   21.0485 C   0  0  1  0  0  0  0  0  0  0  0  0
    6.9038  -16.1059   20.6846 C   0  0  0  0  0  0  0  0  0  0  0  0
    5.9213  -16.8744   22.0034 S   0  0  0  0  0  0  0  0  0  0  0  0
    7.8995  -14.5374   22.2999 C   0  0  0  0  0  0  0  0  0  0  0  0
    9.1448  -14.5545   22.2731 O   0  0  0  0  0  0  0  0  0  0  0  0
    5.8997  -11.3874   26.0964 C   0  0  0  0  0  0  0  0  0  0  0  0
    6.8302  -12.1640   25.2210 C   0  0  0  0  0  0  0  0  0  0  0  0
    7.0541  -13.5555   25.8071 C   0  0  2  0  0  0  0  0  0  0  0  0
    7.7749  -13.3656   27.1233 C   0  0  0  0  0  0  0  0  0  0  0  0
    7.9278  -14.2983   24.8134 C   0  0  2  0  0  0  0  0  0  0  0  0
    7.2539  -14.3979   23.5460 N   0  0  0  0  0  0  0  0  0  0  0  0
    8.3791  -15.6077   25.3247 C   0  0  0  0  0  0  0  0  0  0  0  0
    7.5162  -16.4371   25.7109 O   0  0  0  0  0  0  0  0  0  0  0  0
   11.9802  -19.0326   25.7303 C   0  0  0  0  0  0  0  0  0  0  0  0
   11.4888  -17.6998   25.2129 C   0  0  1  0  0  0  0  0  0  0  0  0
   11.3042  -17.8159   23.8452 O   0  0  0  0  0  0  0  0  0  0  0  0
   10.1805  -17.2861   25.8580 C   0  0  2  0  0  0  0  0  0  0  0  0
    9.7401  -15.9912   25.4077 N   0  0  0  0  0  0  0  0  0  0  0  0
   10.3897  -17.2921   27.3194 C   0  0  0  0  0  0  0  0  0  0  0  0
   10.6683  -16.2229   27.9011 O   0  0  0  0  0  0  0  0  0  0  0  0
   10.2852  -18.4500   28.0601 O   0  0  0  0  0  0  0  0  0  0  0  0
  2  1  1  6
  2  5  1  0
  3  2  1  0
  4  3  1  0
  5 12  1  0
  5  6  2  0
  7  8  1  0
  8  9  1  0
  9 11  1  0
  9 10  1  1
 11 13  1  0
 11 12  1  6
 13 14  2  0
 16 18  1  0
 16 15  1  1
 17 16  1  0
 18 20  1  0
 19 13  1  0
 18 19  1  6
 20 22  1  0
 21 20  2  0
M  END
$$$$
