CIT.pdb
     RDKit          3D

 22 21  0  0  1  0  0  0  0  0999 V2000
    7.8772  -14.5465   20.2337 N   0  0  0  0  0  0  0  0  0  0  0  0
    7.1123  -14.9814   21.3655 C   0  0  1  0  0  0  0  0  0  0  0  0
    6.7818  -16.4413   21.2055 C   0  0  0  0  0  0  0  0  0  0  0  0
    5.5388  -16.5923   19.8913 S   0  0  0  0  0  0  0  0  0  0  0  0
    7.8734  -14.7412   22.6122 C   0  0  0  0  0  0  0  0  0  0  0  0
    9.1187  -14.7716   22.6093 O   0  0  0  0  0  0  0  0  0  0  0  0
    5.9485  -11.2659   26.0372 C   0  0  0  0  0  0  0  0  0  0  0  0
    6.8783  -12.1608   25.2823 C   0  0  0  0  0  0  0  0  0  0  0  0
    7.0491  -13.4808   26.0294 C   0  0  2  0  0  0  0  0  0  0  0  0
    7.8220  -13.1723   27.2925 C   0  0  0  0  0  0  0  0  0  0  0  0
    7.8496  -14.3865   25.1121 C   0  0  2  0  0  0  0  0  0  0  0  0
    7.2084  -14.4735   23.8268 N   0  0  0  0  0  0  0  0  0  0  0  0
    8.1106  -15.7105   25.7108 C   0  0  0  0  0  0  0  0  0  0  0  0
    7.1339  -16.4102   26.0825 O   0  0  0  0  0  0  0  0  0  0  0  0
   10.0727  -18.4439   23.9718 C   0  0  0  0  0  0  0  0  0  0  0  0
   10.6299  -18.3084   25.3706 C   0  0  1  0  0  0  0  0  0  0  0  0
   11.8021  -17.5749   25.2928 O   0  0  0  0  0  0  0  0  0  0  0  0
    9.6633  -17.6040   26.3026 C   0  0  2  0  0  0  0  0  0  0  0  0
    9.4086  -16.2469   25.8942 N   0  0  0  0  0  0  0  0  0  0  0  0
   10.2496  -17.6449   27.6569 C   0  0  0  0  0  0  0  0  0  0  0  0
   10.6124  -16.5796   28.1980 O   0  0  0  0  0  0  0  0  0  0  0  0
   10.4071  -18.8312   28.3411 O   0  0  0  0  0  0  0  0  0  0  0  0
  2  1  1  6
  2  5  1  0
  3  2  1  0
  4  3  1  0
  5 12  1  0
  5  6  2  0
  7  8  1  0
  8  9  1  0
  9 11  1  0
  9 10  1  1
 11 13  1  0
 11 12  1  6
 13 14  2  0
 16 18  1  0
 16 15  1  6
 17 16  1  0
 18 20  1  0
 19 13  1  0
 18 19  1  6
 20 22  1  0
 21 20  2  0
M  END
$$$$
