CIT.pdb
     RDKit          3D

 22 21  0  0  1  0  0  0  0  0999 V2000
    7.8426  -14.3683   20.0423 N   0  0  0  0  0  0  0  0  0  0  0  0
    7.1220  -14.8419   21.1876 C   0  0  1  0  0  0  0  0  0  0  0  0
    6.8571  -16.3151   21.0287 C   0  0  0  0  0  0  0  0  0  0  0  0
    5.6443  -16.5243   19.6943 S   0  0  0  0  0  0  0  0  0  0  0  0
    7.8961  -14.5698   22.4197 C   0  0  0  0  0  0  0  0  0  0  0  0
    9.1396  -14.5048   22.3844 O   0  0  0  0  0  0  0  0  0  0  0  0
    5.7660  -11.3681   26.0018 C   0  0  0  0  0  0  0  0  0  0  0  0
    6.7291  -12.1638   25.1803 C   0  0  0  0  0  0  0  0  0  0  0  0
    7.0633  -13.4711   25.8937 C   0  0  2  0  0  0  0  0  0  0  0  0
    7.8529  -13.1054   27.1310 C   0  0  0  0  0  0  0  0  0  0  0  0
    7.9126  -14.2760   24.9275 C   0  0  2  0  0  0  0  0  0  0  0  0
    7.2458  -14.3788   23.6565 N   0  0  0  0  0  0  0  0  0  0  0  0
    8.3023  -15.5901   25.4759 C   0  0  0  0  0  0  0  0  0  0  0  0
    7.3991  -16.3931   25.8240 O   0  0  0  0  0  0  0  0  0  0  0  0
   10.6861  -17.9435   23.6224 C   0  0  0  0  0  0  0  0  0  0  0  0
   11.1288  -17.8759   25.0664 C   0  0  1  0  0  0  0  0  0  0  0  0
   12.2217  -17.0282   25.1375 O   0  0  0  0  0  0  0  0  0  0  0  0
   10.0329  -17.3519   25.9738 C   0  0  2  0  0  0  0  0  0  0  0  0
    9.6467  -16.0065   25.6357 N   0  0  0  0  0  0  0  0  0  0  0  0
   10.5381  -17.4220   27.3592 C   0  0  0  0  0  0  0  0  0  0  0  0
   10.7113  -16.3648   28.0006 O   0  0  0  0  0  0  0  0  0  0  0  0
   10.8243  -18.6270   27.9644 O   0  0  0  0  0  0  0  0  0  0  0  0
  2  1  1  6
  2  5  1  0
  3  2  1  0
  4  3  1  0
  5 12  1  0
  5  6  2  0
  7  8  1  0
  8  9  1  0
  9 11  1  0
  9 10  1  1
 11 13  1  0
 11 12  1  6
 13 14  2  0
 16 18  1  0
 16 15  1  6
 17 16  1  0
 18 20  1  0
 19 13  1  0
 18 19  1  6
 20 22  1  0
 21 20  2  0
M  END
$$$$
