CIT.pdb
     RDKit          3D

 22 21  0  0  1  0  0  0  0  0999 V2000
    7.9581  -14.4189   19.9763 N   0  0  0  0  0  0  0  0  0  0  0  0
    7.2135  -14.8782   21.1121 C   0  0  1  0  0  0  0  0  0  0  0  0
    6.8997  -16.3400   20.9373 C   0  0  0  0  0  0  0  0  0  0  0  0
    5.9276  -16.5250   19.4154 S   0  0  0  0  0  0  0  0  0  0  0  0
    7.9876  -14.6442   22.3519 C   0  0  0  0  0  0  0  0  0  0  0  0
    9.2325  -14.6073   22.3234 O   0  0  0  0  0  0  0  0  0  0  0  0
    5.9368  -11.5246   26.1582 C   0  0  0  0  0  0  0  0  0  0  0  0
    6.8626  -12.2934   25.2710 C   0  0  0  0  0  0  0  0  0  0  0  0
    7.1293  -13.6721   25.8694 C   0  0  2  0  0  0  0  0  0  0  0  0
    7.8745  -13.4497   27.1668 C   0  0  0  0  0  0  0  0  0  0  0  0
    7.9969  -14.4090   24.8659 C   0  0  2  0  0  0  0  0  0  0  0  0
    7.3359  -14.4584   23.5888 N   0  0  0  0  0  0  0  0  0  0  0  0
    8.4107  -15.7421   25.3468 C   0  0  0  0  0  0  0  0  0  0  0  0
    7.5249  -16.5529   25.7205 O   0  0  0  0  0  0  0  0  0  0  0  0
   10.7038  -18.1608   23.3798 C   0  0  0  0  0  0  0  0  0  0  0  0
   11.2179  -18.0415   24.7964 C   0  0  1  0  0  0  0  0  0  0  0  0
   12.2949  -17.1709   24.7867 O   0  0  0  0  0  0  0  0  0  0  0  0
   10.1589  -17.5121   25.7436 C   0  0  2  0  0  0  0  0  0  0  0  0
    9.7597  -16.1685   25.4135 N   0  0  0  0  0  0  0  0  0  0  0  0
   10.7186  -17.5746   27.1083 C   0  0  0  0  0  0  0  0  0  0  0  0
   10.9248  -16.5135   27.7333 O   0  0  0  0  0  0  0  0  0  0  0  0
   11.0201  -18.7768   27.7117 O   0  0  0  0  0  0  0  0  0  0  0  0
  2  1  1  6
  2  5  1  0
  3  2  1  0
  4  3  1  0
  5 12  1  0
  5  6  2  0
  7  8  1  0
  8  9  1  0
  9 11  1  0
  9 10  1  1
 11 13  1  0
 11 12  1  6
 13 14  2  0
 16 18  1  0
 16 15  1  6
 17 16  1  0
 18 20  1  0
 19 13  1  0
 18 19  1  6
 20 22  1  0
 21 20  2  0
M  END
$$$$
