CIT.pdb
     RDKit          3D

 22 21  0  0  1  0  0  0  0  0999 V2000
    7.4329  -13.8442   19.9259 N   0  0  0  0  0  0  0  0  0  0  0  0
    6.9274  -14.6328   21.0112 C   0  0  1  0  0  0  0  0  0  0  0  0
    6.8479  -16.0725   20.5790 C   0  0  0  0  0  0  0  0  0  0  0  0
    5.2225  -16.7147   21.0702 S   0  0  0  0  0  0  0  0  0  0  0  0
    7.8008  -14.4801   22.1965 C   0  0  0  0  0  0  0  0  0  0  0  0
    9.0366  -14.3935   22.0651 O   0  0  0  0  0  0  0  0  0  0  0  0
    5.9606  -11.5150   26.1588 C   0  0  0  0  0  0  0  0  0  0  0  0
    6.8805  -12.2310   25.2226 C   0  0  0  0  0  0  0  0  0  0  0  0
    7.2103  -13.6148   25.7760 C   0  0  2  0  0  0  0  0  0  0  0  0
    8.0312  -13.4014   27.0284 C   0  0  0  0  0  0  0  0  0  0  0  0
    8.0268  -14.3155   24.7060 C   0  0  2  0  0  0  0  0  0  0  0  0
    7.2559  -14.4292   23.4963 N   0  0  0  0  0  0  0  0  0  0  0  0
    8.5659  -15.6115   25.1635 C   0  0  0  0  0  0  0  0  0  0  0  0
    7.7640  -16.4937   25.5639 O   0  0  0  0  0  0  0  0  0  0  0  0
   12.3708  -18.8402   25.2573 C   0  0  0  0  0  0  0  0  0  0  0  0
   11.8180  -17.4836   24.8835 C   0  0  1  0  0  0  0  0  0  0  0  0
   11.6818  -17.4442   23.5059 O   0  0  0  0  0  0  0  0  0  0  0  0
   10.4689  -17.2225   25.5244 C   0  0  2  0  0  0  0  0  0  0  0  0
    9.9470  -15.9256   25.1791 N   0  0  0  0  0  0  0  0  0  0  0  0
   10.6443  -17.3475   26.9849 C   0  0  0  0  0  0  0  0  0  0  0  0
   10.7523  -16.3144   27.6779 O   0  0  0  0  0  0  0  0  0  0  0  0
   10.6919  -18.5779   27.6047 O   0  0  0  0  0  0  0  0  0  0  0  0
  2  1  1  6
  2  5  1  0
  3  2  1  0
  4  3  1  0
  5 12  1  0
  5  6  2  0
  7  8  1  0
  8  9  1  0
  9 11  1  0
  9 10  1  1
 11 13  1  0
 11 12  1  6
 13 14  2  0
 16 18  1  0
 16 15  1  6
 17 16  1  0
 18 20  1  0
 19 13  1  0
 18 19  1  1
 20 22  1  0
 21 20  2  0
M  END
$$$$
