CIT.pdb
     RDKit          3D

 22 21  0  0  1  0  0  0  0  0999 V2000
    9.4320  -17.3766   15.7616 N   0  0  0  0  0  0  0  0  0  0  0  0
    8.4967  -17.3461   16.8476 C   0  0  1  0  0  0  0  0  0  0  0  0
    8.0805  -18.7542   17.1793 C   0  0  0  0  0  0  0  0  0  0  0  0
    6.8759  -19.2897   15.9313 S   0  0  0  0  0  0  0  0  0  0  0  0
    9.1063  -16.6807   18.0210 C   0  0  0  0  0  0  0  0  0  0  0  0
   10.3407  -16.6980   18.1880 O   0  0  0  0  0  0  0  0  0  0  0  0
    6.8328  -12.1580   19.8406 C   0  0  0  0  0  0  0  0  0  0  0  0
    7.8578  -13.2021   19.5327 C   0  0  0  0  0  0  0  0  0  0  0  0
    7.8286  -14.2897   20.6033 C   0  0  2  0  0  0  0  0  0  0  0  0
    8.2887  -13.6472   21.8930 C   0  0  0  0  0  0  0  0  0  0  0  0
    8.8078  -15.3566   20.1502 C   0  0  2  0  0  0  0  0  0  0  0  0
    8.3066  -16.0145   18.9727 N   0  0  0  0  0  0  0  0  0  0  0  0
    9.1534  -16.3028   21.2295 C   0  0  0  0  0  0  0  0  0  0  0  0
    8.2404  -17.0048   21.7348 O   0  0  0  0  0  0  0  0  0  0  0  0
   12.3180  -18.7792   21.2264 C   0  0  0  0  0  0  0  0  0  0  0  0
   12.2119  -18.0035   22.5197 C   0  0  1  0  0  0  0  0  0  0  0  0
   13.1175  -16.9572   22.4643 O   0  0  0  0  0  0  0  0  0  0  0  0
   10.8189  -17.4448   22.7356 C   0  0  2  0  0  0  0  0  0  0  0  0
   10.4653  -16.4700   21.7365 N   0  0  0  0  0  0  0  0  0  0  0  0
   10.7885  -16.8492   24.0861 C   0  0  0  0  0  0  0  0  0  0  0  0
   10.7181  -15.6082   24.2051 O   0  0  0  0  0  0  0  0  0  0  0  0
   10.8359  -17.6293   25.2217 O   0  0  0  0  0  0  0  0  0  0  0  0
  2  1  1  6
  2  5  1  0
  3  2  1  0
  4  3  1  0
  5 12  1  0
  5  6  2  0
  7  8  1  0
  8  9  1  0
  9 11  1  0
  9 10  1  1
 11 13  1  0
 11 12  1  6
 13 14  2  0
 16 18  1  0
 16 15  1  6
 17 16  1  0
 18 20  1  0
 19 13  1  0
 18 19  1  6
 20 22  1  0
 21 20  2  0
M  END
$$$$
