CIT.pdb
     RDKit          3D

 22 21  0  0  1  0  0  0  0  0999 V2000
    9.0806  -15.3989   20.3386 N   0  0  0  0  0  0  0  0  0  0  0  0
    8.1321  -15.6469   21.3846 C   0  0  1  0  0  0  0  0  0  0  0  0
    7.8459  -17.1233   21.4506 C   0  0  0  0  0  0  0  0  0  0  0  0
    6.9707  -17.5915   19.9307 S   0  0  0  0  0  0  0  0  0  0  0  0
    8.6605  -15.1487   22.6745 C   0  0  0  0  0  0  0  0  0  0  0  0
    9.8788  -15.2133   22.9266 O   0  0  0  0  0  0  0  0  0  0  0  0
    6.8571  -11.4771   27.2866 C   0  0  0  0  0  0  0  0  0  0  0  0
    7.7907  -12.4979   26.7193 C   0  0  0  0  0  0  0  0  0  0  0  0
    7.1909  -13.1030   25.4529 C   0  0  2  0  0  0  0  0  0  0  0  0
    5.9287  -13.8257   25.8682 C   0  0  0  0  0  0  0  0  0  0  0  0
    8.2232  -14.0788   24.9194 C   0  0  2  0  0  0  0  0  0  0  0  0
    7.8002  -14.5918   23.6434 N   0  0  0  0  0  0  0  0  0  0  0  0
    8.5449  -15.1471   25.8863 C   0  0  0  0  0  0  0  0  0  0  0  0
    7.6618  -15.9983   26.1642 O   0  0  0  0  0  0  0  0  0  0  0  0
   10.9469  -17.7664   25.3696 C   0  0  0  0  0  0  0  0  0  0  0  0
   11.3183  -17.1914   26.7176 C   0  0  1  0  0  0  0  0  0  0  0  0
   12.4047  -16.3516   26.5376 O   0  0  0  0  0  0  0  0  0  0  0  0
   10.1783  -16.4046   27.3345 C   0  0  2  0  0  0  0  0  0  0  0  0
    9.8017  -15.2733   26.5272 N   0  0  0  0  0  0  0  0  0  0  0  0
   10.6181  -15.9713   28.6755 C   0  0  0  0  0  0  0  0  0  0  0  0
   10.8405  -16.8313   29.5531 O   0  0  0  0  0  0  0  0  0  0  0  0
   10.7902  -14.6390   28.9846 O   0  0  0  0  0  0  0  0  0  0  0  0
  2  1  1  6
  2  5  1  0
  3  2  1  0
  4  3  1  0
  5 12  1  0
  5  6  2  0
  7  8  1  0
  8  9  1  0
  9 11  1  0
  9 10  1  1
 11 13  1  0
 11 12  1  6
 13 14  2  0
 16 18  1  0
 16 15  1  6
 17 16  1  0
 18 20  1  0
 19 13  1  0
 18 19  1  6
 20 22  1  0
 21 20  2  0
M  END
$$$$
