CIT.pdb
     RDKit          3D

 22 21  0  0  1  0  0  0  0  0999 V2000
    8.0927  -14.5162   20.1428 N   0  0  0  0  0  0  0  0  0  0  0  0
    7.2760  -14.9393   21.2425 C   0  0  1  0  0  0  0  0  0  0  0  0
    6.9293  -16.3937   21.0679 C   0  0  0  0  0  0  0  0  0  0  0  0
    5.9076  -16.5496   19.5755 S   0  0  0  0  0  0  0  0  0  0  0  0
    7.9898  -14.7115   22.5191 C   0  0  0  0  0  0  0  0  0  0  0  0
    9.2348  -14.7295   22.5600 O   0  0  0  0  0  0  0  0  0  0  0  0
    5.8537  -11.3575   25.9590 C   0  0  0  0  0  0  0  0  0  0  0  0
    6.8502  -12.1983   25.2273 C   0  0  0  0  0  0  0  0  0  0  0  0
    7.0144  -13.5414   25.9336 C   0  0  2  0  0  0  0  0  0  0  0  0
    7.7236  -13.2650   27.2408 C   0  0  0  0  0  0  0  0  0  0  0  0
    7.8736  -14.3975   25.0218 C   0  0  2  0  0  0  0  0  0  0  0  0
    7.2795  -14.4698   23.7133 N   0  0  0  0  0  0  0  0  0  0  0  0
    8.1557  -15.7284   25.5952 C   0  0  0  0  0  0  0  0  0  0  0  0
    7.1900  -16.4538   25.9458 O   0  0  0  0  0  0  0  0  0  0  0  0
   10.0592  -18.5684   23.9498 C   0  0  0  0  0  0  0  0  0  0  0  0
   10.6801  -18.3203   25.3057 C   0  0  1  0  0  0  0  0  0  0  0  0
   11.8230  -17.5610   25.1181 O   0  0  0  0  0  0  0  0  0  0  0  0
    9.7387  -17.5805   26.2360 C   0  0  2  0  0  0  0  0  0  0  0  0
    9.4624  -16.2440   25.7767 N   0  0  0  0  0  0  0  0  0  0  0  0
   10.3675  -17.5586   27.5715 C   0  0  0  0  0  0  0  0  0  0  0  0
   10.7467  -16.4696   28.0505 O   0  0  0  0  0  0  0  0  0  0  0  0
   10.5471  -18.7117   28.3051 O   0  0  0  0  0  0  0  0  0  0  0  0
  2  1  1  6
  2  5  1  0
  3  2  1  0
  4  3  1  0
  5 12  1  0
  5  6  2  0
  7  8  1  0
  8  9  1  0
  9 11  1  0
  9 10  1  1
 11 13  1  0
 11 12  1  6
 13 14  2  0
 16 18  1  0
 16 15  1  6
 17 16  1  0
 18 20  1  0
 19 13  1  0
 18 19  1  6
 20 22  1  0
 21 20  2  0
M  END
$$$$
