CIT.pdb
     RDKit          3D

 22 21  0  0  1  0  0  0  0  0999 V2000
    5.5316  -15.6817   20.7395 N   0  0  0  0  0  0  0  0  0  0  0  0
    5.4814  -16.1378   22.0977 C   0  0  1  0  0  0  0  0  0  0  0  0
    5.4464  -17.6426   22.1113 C   0  0  0  0  0  0  0  0  0  0  0  0
    3.7081  -18.1608   22.1828 S   0  0  0  0  0  0  0  0  0  0  0  0
    6.6511  -15.6255   22.8463 C   0  0  0  0  0  0  0  0  0  0  0  0
    7.7727  -15.5696   22.3071 O   0  0  0  0  0  0  0  0  0  0  0  0
    5.6959  -11.8564   26.4560 C   0  0  0  0  0  0  0  0  0  0  0  0
    6.3629  -12.7200   25.4337 C   0  0  0  0  0  0  0  0  0  0  0  0
    7.1013  -13.8643   26.1231 C   0  0  2  0  0  0  0  0  0  0  0  0
    8.2476  -13.2455   26.8920 C   0  0  0  0  0  0  0  0  0  0  0  0
    7.6157  -14.7648   25.0153 C   0  0  2  0  0  0  0  0  0  0  0  0
    6.5228  -15.1907   24.1819 N   0  0  0  0  0  0  0  0  0  0  0  0
    8.4155  -15.8942   25.5296 C   0  0  0  0  0  0  0  0  0  0  0  0
    7.9230  -16.6266   26.4256 O   0  0  0  0  0  0  0  0  0  0  0  0
   10.8183  -18.0602   23.0285 C   0  0  0  0  0  0  0  0  0  0  0  0
   11.4510  -17.7979   24.3763 C   0  0  1  0  0  0  0  0  0  0  0  0
   12.3579  -16.7619   24.2265 O   0  0  0  0  0  0  0  0  0  0  0  0
   10.4232  -17.4120   25.4221 C   0  0  2  0  0  0  0  0  0  0  0  0
    9.7184  -16.2067   25.0703 N   0  0  0  0  0  0  0  0  0  0  0  0
   11.1392  -17.2483   26.7028 C   0  0  0  0  0  0  0  0  0  0  0  0
   11.2164  -16.1138   27.2189 O   0  0  0  0  0  0  0  0  0  0  0  0
   11.7261  -18.3176   27.3450 O   0  0  0  0  0  0  0  0  0  0  0  0
  2  1  1  6
  2  5  1  0
  3  2  1  0
  4  3  1  0
  5 12  1  0
  5  6  2  0
  7  8  1  0
  8  9  1  0
  9 11  1  0
  9 10  1  6
 11 13  1  0
 11 12  1  1
 13 14  2  0
 16 18  1  0
 16 15  1  6
 17 16  1  0
 18 20  1  0
 19 13  1  0
 18 19  1  6
 20 22  1  0
 21 20  2  0
M  END
$$$$
