CIT.pdb
     RDKit          3D

 22 21  0  0  1  0  0  0  0  0999 V2000
   10.2438  -17.7160   16.5229 N   0  0  0  0  0  0  0  0  0  0  0  0
    9.1778  -17.6746   17.4806 C   0  0  1  0  0  0  0  0  0  0  0  0
    8.8056  -19.0816   17.8649 C   0  0  0  0  0  0  0  0  0  0  0  0
    7.9015  -19.8202   16.4749 S   0  0  0  0  0  0  0  0  0  0  0  0
    9.5935  -16.8911   18.6657 C   0  0  0  0  0  0  0  0  0  0  0  0
   10.7981  -16.7899   18.9669 O   0  0  0  0  0  0  0  0  0  0  0  0
    6.9221  -12.4013   19.8104 C   0  0  0  0  0  0  0  0  0  0  0  0
    7.9752  -13.4563   19.6939 C   0  0  0  0  0  0  0  0  0  0  0  0
    7.8787  -14.4186   20.8749 C   0  0  2  0  0  0  0  0  0  0  0  0
    8.1668  -13.6121   22.1217 C   0  0  0  0  0  0  0  0  0  0  0  0
    8.9481  -15.4717   20.6518 C   0  0  2  0  0  0  0  0  0  0  0  0
    8.6390  -16.2439   19.4776 N   0  0  0  0  0  0  0  0  0  0  0  0
    9.1728  -16.3118   21.8449 C   0  0  0  0  0  0  0  0  0  0  0  0
    8.1816  -16.8477   22.4035 O   0  0  0  0  0  0  0  0  0  0  0  0
   11.0766  -19.4928   22.1055 C   0  0  0  0  0  0  0  0  0  0  0  0
   11.6498  -18.5602   23.1482 C   0  0  1  0  0  0  0  0  0  0  0  0
   12.8093  -18.0058   22.6324 O   0  0  0  0  0  0  0  0  0  0  0  0
   10.6845  -17.4480   23.5093 C   0  0  2  0  0  0  0  0  0  0  0  0
   10.4509  -16.5537   22.4051 N   0  0  0  0  0  0  0  0  0  0  0  0
   11.2586  -16.7240   24.6607 C   0  0  0  0  0  0  0  0  0  0  0  0
   11.7017  -15.5682   24.4964 O   0  0  0  0  0  0  0  0  0  0  0  0
   11.3183  -17.2922   25.9152 O   0  0  0  0  0  0  0  0  0  0  0  0
  2  1  1  6
  2  5  1  0
  3  2  1  0
  4  3  1  0
  5 12  1  0
  5  6  2  0
  7  8  1  0
  8  9  1  0
  9 11  1  0
  9 10  1  1
 11 13  1  0
 11 12  1  6
 13 14  2  0
 16 18  1  0
 16 15  1  6
 17 16  1  0
 18 20  1  0
 19 13  1  0
 18 19  1  6
 20 22  1  0
 21 20  2  0
M  END
$$$$
