CIT.pdb
     RDKit          3D

 22 21  0  0  1  0  0  0  0  0999 V2000
    5.0465  -17.0665   21.3472 N   0  0  0  0  0  0  0  0  0  0  0  0
    5.3668  -17.2329   22.7347 C   0  0  1  0  0  0  0  0  0  0  0  0
    5.6840  -18.6808   22.9971 C   0  0  0  0  0  0  0  0  0  0  0  0
    4.2234  -19.4439   23.7585 S   0  0  0  0  0  0  0  0  0  0  0  0
    6.5085  -16.3634   23.0975 C   0  0  0  0  0  0  0  0  0  0  0  0
    7.4240  -16.1471   22.2807 O   0  0  0  0  0  0  0  0  0  0  0  0
    5.7776  -12.3379   26.5632 C   0  0  0  0  0  0  0  0  0  0  0  0
    6.3382  -13.1845   25.4658 C   0  0  0  0  0  0  0  0  0  0  0  0
    7.3427  -14.1802   26.0400 C   0  0  2  0  0  0  0  0  0  0  0  0
    8.5252  -13.3751   26.5315 C   0  0  0  0  0  0  0  0  0  0  0  0
    7.7445  -15.0868   24.8914 C   0  0  2  0  0  0  0  0  0  0  0  0
    6.5856  -15.7624   24.3711 N   0  0  0  0  0  0  0  0  0  0  0  0
    8.8311  -16.0167   25.2579 C   0  0  0  0  0  0  0  0  0  0  0  0
    8.6965  -16.7310   26.2842 O   0  0  0  0  0  0  0  0  0  0  0  0
   10.7266  -18.1733   22.4236 C   0  0  0  0  0  0  0  0  0  0  0  0
   11.6881  -17.6112   23.4460 C   0  0  1  0  0  0  0  0  0  0  0  0
   12.2939  -16.4955   22.8926 O   0  0  0  0  0  0  0  0  0  0  0  0
   10.9853  -17.2108   24.7285 C   0  0  2  0  0  0  0  0  0  0  0  0
   10.0295  -16.1550   24.5157 N   0  0  0  0  0  0  0  0  0  0  0  0
   12.0262  -16.7929   25.6883 C   0  0  0  0  0  0  0  0  0  0  0  0
   12.0848  -15.5974   26.0440 O   0  0  0  0  0  0  0  0  0  0  0  0
   12.9372  -17.6902   26.2032 O   0  0  0  0  0  0  0  0  0  0  0  0
  2  1  1  6
  2  5  1  0
  3  2  1  0
  4  3  1  0
  5 12  1  0
  5  6  2  0
  7  8  1  0
  8  9  1  0
  9 11  1  0
  9 10  1  6
 11 13  1  0
 11 12  1  1
 13 14  2  0
 16 18  1  0
 16 15  1  6
 17 16  1  0
 18 20  1  0
 19 13  1  0
 18 19  1  6
 20 22  1  0
 21 20  2  0
M  END
$$$$
