WEF.pdb
     RDKit          3D

 35 37  0  0  1  0  0  0  0  0999 V2000
    6.4347  -17.7124   24.5534 N   0  0  0  0  0  0  0  0  0  0  0  0
    7.6221  -16.9327   24.3253 C   0  0  1  0  0  0  0  0  0  0  0  0
    7.7711  -15.8456   25.3366 C   0  0  0  0  0  0  0  0  0  0  0  0
    7.0896  -14.6056   24.9054 C   0  0  0  0  0  0  0  0  0  0  0  0
    6.0275  -13.9935   25.5870 C   0  0  0  0  0  0  0  0  0  0  0  0
    5.6602  -12.8842   24.9622 N   0  0  0  0  0  0  0  0  0  0  0  0
    6.4456  -12.7437   23.8885 C   0  0  0  0  0  0  0  0  0  0  0  0
    6.4919  -11.7774   22.8947 C   0  0  0  0  0  0  0  0  0  0  0  0
    7.3813  -11.8217   21.8604 C   0  0  0  0  0  0  0  0  0  0  0  0
    8.2568  -12.8756   21.8223 C   0  0  0  0  0  0  0  0  0  0  0  0
    8.2411  -13.8651   22.8021 C   0  0  0  0  0  0  0  0  0  0  0  0
    7.3426  -13.7972   23.8264 C   0  0  0  0  0  0  0  0  0  0  0  0
    8.7891  -17.8655   24.3220 C   0  0  0  0  0  0  0  0  0  0  0  0
    8.7697  -18.8830   25.0574 O   0  0  0  0  0  0  0  0  0  0  0  0
    9.9299  -17.6719   23.5322 N   0  0  0  0  0  0  0  0  0  0  0  0
   11.2769  -18.1493   23.8889 C   0  0  1  0  0  0  0  0  0  0  0  0
   12.1629  -17.6435   22.7748 C   0  0  0  0  0  0  0  0  0  0  0  0
   11.5637  -17.7392   21.4103 C   0  0  0  0  0  0  0  0  0  0  0  0
   12.7166  -17.7488   20.4399 C   0  0  0  0  0  0  0  0  0  0  0  0
   13.5878  -18.6532   20.4358 O   0  0  0  0  0  0  0  0  0  0  0  0
   11.6764  -17.6013   25.2092 C   0  0  0  0  0  0  0  0  0  0  0  0
   12.2854  -16.5124   25.2925 O   0  0  0  0  0  0  0  0  0  0  0  0
   12.8296  -16.7175   19.5060 O   0  0  0  0  0  0  0  0  0  0  0  0
   11.3786  -18.2961   26.3950 N   0  0  0  0  0  0  0  0  0  0  0  0
   11.8278  -17.8929   27.7211 C   0  0  1  0  0  0  0  0  0  0  0  0
   10.7036  -17.3340   28.5324 C   0  0  0  0  0  0  0  0  0  0  0  0
   10.0992  -16.0985   28.0040 C   0  0  0  0  0  0  0  0  0  0  0  0
   10.5875  -14.8761   28.4154 C   0  0  0  0  0  0  0  0  0  0  0  0
   10.0922  -13.6803   27.9636 C   0  0  0  0  0  0  0  0  0  0  0  0
    9.0572  -13.6627   27.0549 C   0  0  0  0  0  0  0  0  0  0  0  0
    8.5498  -14.8645   26.6266 C   0  0  0  0  0  0  0  0  0  0  0  0
    9.0663  -16.0795   27.0970 C   0  0  0  0  0  0  0  0  0  0  0  0
   12.4964  -18.9913   28.4288 C   0  0  0  0  0  0  0  0  0  0  0  0
   12.4688  -20.1529   27.9473 O   0  0  0  0  0  0  0  0  0  0  0  0
   13.1675  -18.8000   29.6199 O   0  0  0  0  0  0  0  0  0  0  0  0
  2  1  1  1
  2 13  1  0
  3  4  1  0
  3  2  1  0
  4  5  2  0
  5  6  1  0
  7  6  1  0
  8  7  2  0
  9  8  1  0
 10 11  1  0
 10  9  2  0
 11 12  2  0
 12  4  1  0
 12  7  1  0
 13 14  2  0
 15 16  1  0
 15 13  1  0
 16 17  1  6
 18 17  1  0
 19 18  1  0
 20 19  2  0
 21 22  2  0
 21 16  1  0
 23 19  1  0
 24 21  1  0
 25 24  1  0
 25 26  1  1
 27 26  1  0
 28 27  2  0
 29 28  1  0
 30 31  1  0
 30 29  2  0
 31 32  2  0
 32 27  1  0
 33 25  1  0
 33 35  1  0
 34 33  2  0
M  END
$$$$
