WEF.pdb
     RDKit          3D

 35 37  0  0  1  0  0  0  0  0999 V2000
    6.0586  -18.9494   23.0880 N   0  0  0  0  0  0  0  0  0  0  0  0
    6.8558  -17.8302   22.6616 C   0  0  1  0  0  0  0  0  0  0  0  0
    6.0772  -16.5574   22.6849 C   0  0  0  0  0  0  0  0  0  0  0  0
    6.5802  -15.5946   21.6810 C   0  0  0  0  0  0  0  0  0  0  0  0
    6.5685  -15.8003   20.2935 C   0  0  0  0  0  0  0  0  0  0  0  0
    7.0590  -14.7398   19.6685 N   0  0  0  0  0  0  0  0  0  0  0  0
    7.3954  -13.8395   20.5989 C   0  0  0  0  0  0  0  0  0  0  0  0
    7.9525  -12.5729   20.5038 C   0  0  0  0  0  0  0  0  0  0  0  0
    8.2317  -11.8035   21.5959 C   0  0  0  0  0  0  0  0  0  0  0  0
    7.9410  -12.3251   22.8296 C   0  0  0  0  0  0  0  0  0  0  0  0
    7.3809  -13.5929   22.9655 C   0  0  0  0  0  0  0  0  0  0  0  0
    7.1103  -14.3418   21.8578 C   0  0  0  0  0  0  0  0  0  0  0  0
    8.0650  -17.7692   23.5368 C   0  0  0  0  0  0  0  0  0  0  0  0
    7.9784  -18.1268   24.7373 O   0  0  0  0  0  0  0  0  0  0  0  0
    9.3182  -17.3278   23.0923 N   0  0  0  0  0  0  0  0  0  0  0  0
   10.5136  -17.2273   23.9470 C   0  0  1  0  0  0  0  0  0  0  0  0
   11.6486  -16.9857   22.9799 C   0  0  0  0  0  0  0  0  0  0  0  0
   13.0067  -16.9868   23.6007 C   0  0  0  0  0  0  0  0  0  0  0  0
   13.9923  -17.0971   22.4661 C   0  0  0  0  0  0  0  0  0  0  0  0
   14.0129  -16.2849   21.5086 O   0  0  0  0  0  0  0  0  0  0  0  0
   10.3563  -16.1088   24.9101 C   0  0  0  0  0  0  0  0  0  0  0  0
   10.6916  -14.9449   24.5996 O   0  0  0  0  0  0  0  0  0  0  0  0
   14.9220  -18.1385   22.4701 O   0  0  0  0  0  0  0  0  0  0  0  0
    9.8269  -16.3350   26.1932 N   0  0  0  0  0  0  0  0  0  0  0  0
   10.3463  -15.7368   27.4159 C   0  0  1  0  0  0  0  0  0  0  0  0
    9.5113  -14.5772   27.8545 C   0  0  0  0  0  0  0  0  0  0  0  0
    8.5909  -14.0427   26.8355 C   0  0  0  0  0  0  0  0  0  0  0  0
    8.8730  -12.8333   26.2359 C   0  0  0  0  0  0  0  0  0  0  0  0
    8.0781  -12.2716   25.2706 C   0  0  0  0  0  0  0  0  0  0  0  0
    6.9352  -12.9194   24.8565 C   0  0  0  0  0  0  0  0  0  0  0  0
    6.6277  -14.1258   25.4356 C   0  0  0  0  0  0  0  0  0  0  0  0
    7.4500  -14.6884   26.4213 C   0  0  0  0  0  0  0  0  0  0  0  0
   10.4857  -16.7257   28.4915 C   0  0  0  0  0  0  0  0  0  0  0  0
   10.0240  -17.8855   28.3372 O   0  0  0  0  0  0  0  0  0  0  0  0
   11.1144  -16.4326   29.6851 O   0  0  0  0  0  0  0  0  0  0  0  0
  2  1  1  1
  2 13  1  0
  3  4  1  0
  3  2  1  0
  4  5  2  0
  5  6  1  0
  7  6  1  0
  8  7  2  0
  9  8  1  0
 10 11  1  0
 10  9  2  0
 11 12  2  0
 12  4  1  0
 12  7  1  0
 13 14  2  0
 15 16  1  0
 15 13  1  0
 16 17  1  6
 18 17  1  0
 19 18  1  0
 20 19  2  0
 21 22  2  0
 21 16  1  0
 23 19  1  0
 24 21  1  0
 25 24  1  0
 25 26  1  1
 27 26  1  0
 28 27  2  0
 29 28  1  0
 30 31  1  0
 30 29  2  0
 31 32  2  0
 32 27  1  0
 33 25  1  0
 33 35  1  0
 34 33  2  0
M  END
$$$$
