WEF.pdb
     RDKit          3D

 35 37  0  0  1  0  0  0  0  0999 V2000
    6.9001  -17.2863   23.7269 N   0  0  0  0  0  0  0  0  0  0  0  0
    8.1208  -16.5277   23.7935 C   0  0  1  0  0  0  0  0  0  0  0  0
    8.3587  -15.9845   25.1628 C   0  0  0  0  0  0  0  0  0  0  0  0
    7.3912  -14.9176   25.4995 C   0  0  0  0  0  0  0  0  0  0  0  0
    6.1587  -15.1221   26.1372 C   0  0  0  0  0  0  0  0  0  0  0  0
    5.5413  -13.9646   26.3239 N   0  0  0  0  0  0  0  0  0  0  0  0
    6.3263  -13.0011   25.8292 C   0  0  0  0  0  0  0  0  0  0  0  0
    6.1693  -11.6250   25.7553 C   0  0  0  0  0  0  0  0  0  0  0  0
    7.1025  -10.8029   25.1932 C   0  0  0  0  0  0  0  0  0  0  0  0
    8.2356  -11.3840   24.6861 C   0  0  0  0  0  0  0  0  0  0  0  0
    8.4293  -12.7619   24.7422 C   0  0  0  0  0  0  0  0  0  0  0  0
    7.4816  -13.5619   25.3103 C   0  0  0  0  0  0  0  0  0  0  0  0
    9.2347  -17.4109   23.3344 C   0  0  0  0  0  0  0  0  0  0  0  0
    9.1282  -18.6559   23.4581 O   0  0  0  0  0  0  0  0  0  0  0  0
   10.4180  -16.9266   22.7615 N   0  0  0  0  0  0  0  0  0  0  0  0
   11.7453  -17.5331   22.9610 C   0  0  1  0  0  0  0  0  0  0  0  0
   12.6358  -16.8256   21.9668 C   0  0  0  0  0  0  0  0  0  0  0  0
   11.9298  -16.3057   20.7581 C   0  0  0  0  0  0  0  0  0  0  0  0
   12.9579  -16.2473   19.6579 C   0  0  0  0  0  0  0  0  0  0  0  0
   13.6791  -15.2383   19.4610 O   0  0  0  0  0  0  0  0  0  0  0  0
   12.1952  -17.3210   24.3595 C   0  0  0  0  0  0  0  0  0  0  0  0
   13.0137  -16.4178   24.6385 O   0  0  0  0  0  0  0  0  0  0  0  0
   13.1229  -17.3517   18.8202 O   0  0  0  0  0  0  0  0  0  0  0  0
   11.7103  -18.1323   25.4008 N   0  0  0  0  0  0  0  0  0  0  0  0
   12.0398  -17.9508   26.8084 C   0  0  1  0  0  0  0  0  0  0  0  0
   10.8110  -17.7531   27.6363 C   0  0  0  0  0  0  0  0  0  0  0  0
   10.1614  -16.4381   27.4953 C   0  0  0  0  0  0  0  0  0  0  0  0
    9.2700  -16.2304   26.4638 C   0  0  0  0  0  0  0  0  0  0  0  0
    8.6127  -15.0433   26.2685 C   0  0  0  0  0  0  0  0  0  0  0  0
    8.8300  -13.9866   27.1250 C   0  0  0  0  0  0  0  0  0  0  0  0
    9.7126  -14.1633   28.1618 C   0  0  0  0  0  0  0  0  0  0  0  0
   10.3774  -15.3828   28.3494 C   0  0  0  0  0  0  0  0  0  0  0  0
   12.8546  -19.0566   27.3257 C   0  0  0  0  0  0  0  0  0  0  0  0
   13.0428  -20.0784   26.6169 O   0  0  0  0  0  0  0  0  0  0  0  0
   13.4346  -19.0215   28.5780 O   0  0  0  0  0  0  0  0  0  0  0  0
  2  1  1  1
  2 13  1  0
  3  4  1  0
  3  2  1  0
  4  5  2  0
  5  6  1  0
  7  6  1  0
  8  7  2  0
  9  8  1  0
 10 11  1  0
 10  9  2  0
 11 12  2  0
 12  4  1  0
 12  7  1  0
 13 14  2  0
 15 16  1  0
 15 13  1  0
 16 17  1  6
 18 17  1  0
 19 18  1  0
 20 19  2  0
 21 22  2  0
 21 16  1  0
 23 19  1  0
 24 21  1  0
 25 24  1  0
 25 26  1  1
 27 26  1  0
 28 27  2  0
 29 28  1  0
 30 31  1  0
 30 29  2  0
 31 32  2  0
 32 27  1  0
 33 25  1  0
 33 35  1  0
 34 33  2  0
M  END
$$$$
