WEF.pdb
     RDKit          3D

 35 37  0  0  1  0  0  0  0  0999 V2000
    7.2121  -18.7065   21.2792 N   0  0  0  0  0  0  0  0  0  0  0  0
    7.8143  -17.4694   21.6997 C   0  0  1  0  0  0  0  0  0  0  0  0
    6.7874  -16.4255   21.9870 C   0  0  0  0  0  0  0  0  0  0  0  0
    6.7852  -15.3669   20.9540 C   0  0  0  0  0  0  0  0  0  0  0  0
    6.1191  -15.4472   19.7222 C   0  0  0  0  0  0  0  0  0  0  0  0
    6.2861  -14.3256   19.0366 N   0  0  0  0  0  0  0  0  0  0  0  0
    7.0421  -13.5064   19.7759 C   0  0  0  0  0  0  0  0  0  0  0  0
    7.5215  -12.2259   19.5428 C   0  0  0  0  0  0  0  0  0  0  0  0
    8.2996  -11.5526   20.4395 C   0  0  0  0  0  0  0  0  0  0  0  0
    8.6081  -12.1885   21.6138 C   0  0  0  0  0  0  0  0  0  0  0  0
    8.1452  -13.4738   21.8840 C   0  0  0  0  0  0  0  0  0  0  0  0
    7.3679  -14.1252   20.9714 C   0  0  0  0  0  0  0  0  0  0  0  0
    8.6739  -17.7584   22.8868 C   0  0  0  0  0  0  0  0  0  0  0  0
    8.2375  -18.5010   23.8004 O   0  0  0  0  0  0  0  0  0  0  0  0
    9.9658  -17.2412   23.0488 N   0  0  0  0  0  0  0  0  0  0  0  0
   10.8587  -17.5754   24.1715 C   0  0  1  0  0  0  0  0  0  0  0  0
   12.2402  -17.5962   23.5606 C   0  0  0  0  0  0  0  0  0  0  0  0
   13.3320  -17.9843   24.5026 C   0  0  0  0  0  0  0  0  0  0  0  0
   14.6058  -17.9892   23.6974 C   0  0  0  0  0  0  0  0  0  0  0  0
   14.6433  -17.6411   22.4915 O   0  0  0  0  0  0  0  0  0  0  0  0
   10.7381  -16.5504   25.2383 C   0  0  0  0  0  0  0  0  0  0  0  0
   11.1188  -15.3755   25.0430 O   0  0  0  0  0  0  0  0  0  0  0  0
   15.7949  -18.3946   24.3060 O   0  0  0  0  0  0  0  0  0  0  0  0
   10.1931  -16.8796   26.4922 N   0  0  0  0  0  0  0  0  0  0  0  0
   10.2162  -16.0036   27.6562 C   0  0  1  0  0  0  0  0  0  0  0  0
    8.8600  -15.4469   27.9482 C   0  0  0  0  0  0  0  0  0  0  0  0
    8.4113  -14.3741   27.0433 C   0  0  0  0  0  0  0  0  0  0  0  0
    7.4125  -14.6335   26.1285 C   0  0  0  0  0  0  0  0  0  0  0  0
    6.9276  -13.6901   25.2601 C   0  0  0  0  0  0  0  0  0  0  0  0
    7.4406  -12.4118   25.2751 C   0  0  0  0  0  0  0  0  0  0  0  0
    8.4366  -12.1233   26.1751 C   0  0  0  0  0  0  0  0  0  0  0  0
    8.9224  -13.0980   27.0573 C   0  0  0  0  0  0  0  0  0  0  0  0
   10.7777  -16.6752   28.8343 C   0  0  0  0  0  0  0  0  0  0  0  0
   10.9318  -16.0332   29.9049 O   0  0  0  0  0  0  0  0  0  0  0  0
   11.1487  -18.0048   28.8176 O   0  0  0  0  0  0  0  0  0  0  0  0
  2  1  1  1
  2 13  1  0
  3  4  1  0
  3  2  1  0
  4  5  2  0
  5  6  1  0
  7  6  1  0
  8  7  2  0
  9  8  1  0
 10 11  1  0
 10  9  2  0
 11 12  2  0
 12  4  1  0
 12  7  1  0
 13 14  2  0
 15 16  1  0
 15 13  1  0
 16 17  1  6
 18 17  1  0
 19 18  1  0
 20 19  2  0
 21 22  2  0
 21 16  1  0
 23 19  1  0
 24 21  1  0
 25 24  1  0
 25 26  1  1
 27 26  1  0
 28 27  2  0
 29 28  1  0
 30 31  1  0
 30 29  2  0
 31 32  2  0
 32 27  1  0
 33 25  1  0
 33 35  1  0
 34 33  2  0
M  END
$$$$
