PLL.pdb
     RDKit          3D

 24 24  0  0  1  0  0  0  0  0999 V2000
    7.3215  -17.8658   21.3154 N   0  0  0  0  0  0  0  0  0  0  0  0
    6.4252  -18.1689   20.2274 C   0  0  0  0  0  0  0  0  0  0  0  0
    6.5873  -17.1019   19.1942 C   0  0  0  0  0  0  0  0  0  0  0  0
    7.8127  -16.3153   19.5921 C   0  0  0  0  0  0  0  0  0  0  0  0
    8.3383  -16.9978   20.8336 C   0  0  1  0  0  0  0  0  0  0  0  0
    8.7339  -15.9600   21.8411 C   0  0  0  0  0  0  0  0  0  0  0  0
    9.7627  -15.2661   21.6356 O   0  0  0  0  0  0  0  0  0  0  0  0
    5.7918  -12.9377   26.3180 C   0  0  0  0  0  0  0  0  0  0  0  0
    7.1039  -13.0219   25.5159 C   0  0  2  0  0  0  0  0  0  0  0  0
    7.1913  -11.7269   24.7384 C   0  0  0  0  0  0  0  0  0  0  0  0
    6.9899  -14.2185   24.6438 C   0  0  0  0  0  0  0  0  0  0  0  0
    8.2429  -14.6586   23.9619 C   0  0  2  0  0  0  0  0  0  0  0  0
    7.9677  -15.7481   23.0208 N   0  0  0  0  0  0  0  0  0  0  0  0
    9.3627  -14.9966   24.8499 C   0  0  0  0  0  0  0  0  0  0  0  0
   10.4468  -14.4135   24.7474 O   0  0  0  0  0  0  0  0  0  0  0  0
    9.4808  -14.1736   29.7191 C   0  0  0  0  0  0  0  0  0  0  0  0
    9.8005  -14.4591   28.2598 C   0  0  1  0  0  0  0  0  0  0  0  0
   10.9983  -13.6029   27.9008 C   0  0  0  0  0  0  0  0  0  0  0  0
   10.1176  -15.9311   28.1627 C   0  0  0  0  0  0  0  0  0  0  0  0
   10.3732  -16.3655   26.7330 C   0  0  2  0  0  0  0  0  0  0  0  0
    9.2753  -15.9992   25.8682 N   0  0  0  0  0  0  0  0  0  0  0  0
   10.5199  -17.8297   26.7099 C   0  0  0  0  0  0  0  0  0  0  0  0
    9.6066  -18.6061   26.0358 O   0  0  0  0  0  0  0  0  0  0  0  0
   11.4760  -18.3720   27.3035 O   0  0  0  0  0  0  0  0  0  0  0  0
  1  2  1  0
  3  2  1  0
  4  3  1  0
  5  4  1  0
  5  1  1  0
  6  7  2  0
  5  6  1  1
  9  8  1  1
  9 11  1  0
  9 10  1  0
 12 11  1  1
 12 13  1  0
 13  6  1  0
 14 12  1  0
 14 15  2  0
 17 16  1  1
 17 18  1  0
 17 19  1  0
 20 21  1  0
 20 19  1  1
 21 14  1  0
 22 20  1  0
 23 22  1  0
 24 22  2  0
M  END
$$$$
