PLL.pdb
     RDKit          3D

 24 24  0  0  1  0  0  0  0  0999 V2000
    7.0889  -15.2598   20.3317 N   0  0  0  0  0  0  0  0  0  0  0  0
    6.4583  -14.5607   19.2397 C   0  0  0  0  0  0  0  0  0  0  0  0
    7.1772  -13.2642   19.0542 C   0  0  0  0  0  0  0  0  0  0  0  0
    8.4274  -13.3537   19.8955 C   0  0  0  0  0  0  0  0  0  0  0  0
    8.3979  -14.7351   20.5070 C   0  0  1  0  0  0  0  0  0  0  0  0
    8.7942  -14.6478   21.9506 C   0  0  0  0  0  0  0  0  0  0  0  0
    9.9685  -14.3063   22.2449 O   0  0  0  0  0  0  0  0  0  0  0  0
    7.3009  -12.0697   25.4757 C   0  0  0  0  0  0  0  0  0  0  0  0
    6.2625  -13.0967   24.9870 C   0  0  2  0  0  0  0  0  0  0  0  0
    5.0431  -12.8914   25.8588 C   0  0  0  0  0  0  0  0  0  0  0  0
    6.8810  -14.4362   25.1564 C   0  0  0  0  0  0  0  0  0  0  0  0
    8.1469  -14.6775   24.4027 C   0  0  2  0  0  0  0  0  0  0  0  0
    7.8675  -14.9436   22.9886 N   0  0  0  0  0  0  0  0  0  0  0  0
    9.0361  -15.7005   24.9680 C   0  0  0  0  0  0  0  0  0  0  0  0
    9.1100  -16.8231   24.4580 O   0  0  0  0  0  0  0  0  0  0  0  0
   11.5710  -14.6976   29.9422 C   0  0  0  0  0  0  0  0  0  0  0  0
   10.7729  -14.9194   28.6666 C   0  0  1  0  0  0  0  0  0  0  0  0
   10.6343  -13.5661   27.9988 C   0  0  0  0  0  0  0  0  0  0  0  0
   11.5663  -15.8819   27.8176 C   0  0  0  0  0  0  0  0  0  0  0  0
   10.7368  -16.4640   26.6902 C   0  0  2  0  0  0  0  0  0  0  0  0
    9.8563  -15.4711   26.1189 N   0  0  0  0  0  0  0  0  0  0  0  0
    9.9181  -17.5604   27.2319 C   0  0  0  0  0  0  0  0  0  0  0  0
    8.5458  -17.4720   27.2171 O   0  0  0  0  0  0  0  0  0  0  0  0
   10.4686  -18.5761   27.7073 O   0  0  0  0  0  0  0  0  0  0  0  0
  1  2  1  0
  3  2  1  0
  4  3  1  0
  5  4  1  0
  5  1  1  0
  6  7  2  0
  5  6  1  1
  9  8  1  1
  9 11  1  0
  9 10  1  0
 12 11  1  1
 12 13  1  0
 13  6  1  0
 14 12  1  0
 14 15  2  0
 17 16  1  1
 17 18  1  0
 17 19  1  0
 20 21  1  0
 20 19  1  1
 21 14  1  0
 22 20  1  0
 23 22  1  0
 24 22  2  0
M  END
$$$$
