PLL.pdb
     RDKit          3D

 24 24  0  0  1  0  0  0  0  0999 V2000
    7.5125  -18.7936   21.2471 N   0  0  0  0  0  0  0  0  0  0  0  0
    6.8554  -19.5728   20.2273 C   0  0  0  0  0  0  0  0  0  0  0  0
    7.6635  -19.4578   18.9759 C   0  0  0  0  0  0  0  0  0  0  0  0
    8.9667  -18.8095   19.3761 C   0  0  0  0  0  0  0  0  0  0  0  0
    8.8711  -18.6131   20.8713 C   0  0  1  0  0  0  0  0  0  0  0  0
    9.3907  -17.2524   21.2277 C   0  0  0  0  0  0  0  0  0  0  0  0
   10.6273  -17.0313   21.1621 O   0  0  0  0  0  0  0  0  0  0  0  0
    8.9115  -13.3756   19.2386 C   0  0  0  0  0  0  0  0  0  0  0  0
    7.6792  -13.9070   19.9943 C   0  0  2  0  0  0  0  0  0  0  0  0
    6.5354  -12.9979   19.6011 C   0  0  0  0  0  0  0  0  0  0  0  0
    8.0081  -13.8372   21.4408 C   0  0  0  0  0  0  0  0  0  0  0  0
    8.9752  -14.8559   21.9465 C   0  0  2  0  0  0  0  0  0  0  0  0
    8.5117  -16.2116   21.6372 N   0  0  0  0  0  0  0  0  0  0  0  0
    9.3429  -14.7327   23.3630 C   0  0  0  0  0  0  0  0  0  0  0  0
   10.1714  -13.8926   23.7285 O   0  0  0  0  0  0  0  0  0  0  0  0
    6.1434  -12.6869   26.3437 C   0  0  0  0  0  0  0  0  0  0  0  0
    7.5165  -13.1715   25.9042 C   0  0  1  0  0  0  0  0  0  0  0  0
    8.5334  -12.3005   26.6140 C   0  0  0  0  0  0  0  0  0  0  0  0
    7.6257  -14.6155   26.3282 C   0  0  0  0  0  0  0  0  0  0  0  0
    8.8874  -15.2699   25.8012 C   0  0  2  0  0  0  0  0  0  0  0  0
    8.7801  -15.5571   24.3893 N   0  0  0  0  0  0  0  0  0  0  0  0
    9.0921  -16.5361   26.5229 C   0  0  0  0  0  0  0  0  0  0  0  0
    9.1856  -17.7203   25.8299 O   0  0  0  0  0  0  0  0  0  0  0  0
    9.1817  -16.5384   27.7690 O   0  0  0  0  0  0  0  0  0  0  0  0
  1  2  1  0
  3  2  1  0
  4  3  1  0
  5  4  1  0
  5  1  1  0
  6  7  2  0
  5  6  1  6
  9  8  1  6
  9 11  1  0
  9 10  1  0
 12 11  1  1
 12 13  1  0
 13  6  1  0
 14 12  1  0
 14 15  2  0
 17 16  1  1
 17 18  1  0
 17 19  1  0
 20 21  1  0
 20 19  1  1
 21 14  1  0
 22 20  1  0
 23 22  1  0
 24 22  2  0
M  END
$$$$
