PLL.pdb
     RDKit          3D

 24 24  0  0  1  0  0  0  0  0999 V2000
    7.2870  -16.2028   20.8032 N   0  0  0  0  0  0  0  0  0  0  0  0
    6.5577  -15.7519   19.6440 C   0  0  0  0  0  0  0  0  0  0  0  0
    7.1735  -14.4685   19.1903 C   0  0  0  0  0  0  0  0  0  0  0  0
    8.4652  -14.3282   19.9589 C   0  0  0  0  0  0  0  0  0  0  0  0
    8.5623  -15.5759   20.8055 C   0  0  1  0  0  0  0  0  0  0  0  0
    9.0189  -15.2057   22.1850 C   0  0  0  0  0  0  0  0  0  0  0  0
   10.1868  -14.7676   22.3479 O   0  0  0  0  0  0  0  0  0  0  0  0
    7.8741  -12.0822   25.2900 C   0  0  0  0  0  0  0  0  0  0  0  0
    6.7669  -13.1199   25.0264 C   0  0  2  0  0  0  0  0  0  0  0  0
    5.5964  -12.6960   25.8864 C   0  0  0  0  0  0  0  0  0  0  0  0
    7.3253  -14.4407   25.4125 C   0  0  0  0  0  0  0  0  0  0  0  0
    8.5282  -14.8947   24.6539 C   0  0  2  0  0  0  0  0  0  0  0  0
    8.1565  -15.3412   23.3082 N   0  0  0  0  0  0  0  0  0  0  0  0
    9.3646  -15.8943   25.3308 C   0  0  0  0  0  0  0  0  0  0  0  0
    9.5155  -17.0213   24.8480 O   0  0  0  0  0  0  0  0  0  0  0  0
   10.9807  -14.6365   30.4809 C   0  0  0  0  0  0  0  0  0  0  0  0
   10.5630  -14.9047   29.0432 C   0  0  1  0  0  0  0  0  0  0  0  0
   10.8527  -13.6387   28.2622 C   0  0  0  0  0  0  0  0  0  0  0  0
   11.3966  -16.0641   28.5558 C   0  0  0  0  0  0  0  0  0  0  0  0
   10.9198  -16.5841   27.2141 C   0  0  2  0  0  0  0  0  0  0  0  0
   10.0440  -15.6363   26.5643 N   0  0  0  0  0  0  0  0  0  0  0  0
   10.1755  -17.8340   27.4363 C   0  0  0  0  0  0  0  0  0  0  0  0
   10.8363  -18.9705   27.8400 O   0  0  0  0  0  0  0  0  0  0  0  0
    8.9393  -17.8660   27.2585 O   0  0  0  0  0  0  0  0  0  0  0  0
  1  2  1  0
  3  2  1  0
  4  3  1  0
  5  4  1  0
  5  1  1  0
  6  7  2  0
  5  6  1  1
  9  8  1  1
  9 11  1  0
  9 10  1  0
 12 11  1  1
 12 13  1  0
 13  6  1  0
 14 12  1  0
 14 15  2  0
 17 16  1  1
 17 18  1  0
 17 19  1  0
 20 21  1  0
 20 19  1  1
 21 14  1  0
 22 20  1  0
 23 22  1  0
 24 22  2  0
M  END
$$$$
