PLL.pdb
     RDKit          3D

 24 24  0  0  1  0  0  0  0  0999 V2000
    8.9229  -19.0504   19.5171 N   0  0  0  0  0  0  0  0  0  0  0  0
    8.6387  -20.4365   19.7942 C   0  0  0  0  0  0  0  0  0  0  0  0
    8.1349  -20.5255   21.1979 C   0  0  0  0  0  0  0  0  0  0  0  0
    7.8708  -19.1064   21.6396 C   0  0  0  0  0  0  0  0  0  0  0  0
    8.1983  -18.2484   20.4398 C   0  0  1  0  0  0  0  0  0  0  0  0
    8.9721  -17.0441   20.8867 C   0  0  0  0  0  0  0  0  0  0  0  0
   10.2275  -17.1049   20.9359 O   0  0  0  0  0  0  0  0  0  0  0  0
    9.1950  -13.0626   19.0261 C   0  0  0  0  0  0  0  0  0  0  0  0
    7.9319  -13.3717   19.8513 C   0  0  2  0  0  0  0  0  0  0  0  0
    6.9604  -12.2527   19.5460 C   0  0  0  0  0  0  0  0  0  0  0  0
    8.3546  -13.4041   21.2746 C   0  0  0  0  0  0  0  0  0  0  0  0
    9.0304  -14.6539   21.7329 C   0  0  2  0  0  0  0  0  0  0  0  0
    8.3122  -15.8388   21.2547 N   0  0  0  0  0  0  0  0  0  0  0  0
    9.2926  -14.7405   23.1754 C   0  0  0  0  0  0  0  0  0  0  0  0
   10.3370  -14.2873   23.6546 O   0  0  0  0  0  0  0  0  0  0  0  0
    6.1445  -12.6058   26.5021 C   0  0  0  0  0  0  0  0  0  0  0  0
    7.4121  -13.1713   25.8800 C   0  0  1  0  0  0  0  0  0  0  0  0
    8.5713  -12.3956   26.4724 C   0  0  0  0  0  0  0  0  0  0  0  0
    7.4680  -14.6317   26.2552 C   0  0  0  0  0  0  0  0  0  0  0  0
    8.5798  -15.3638   25.5300 C   0  0  2  0  0  0  0  0  0  0  0  0
    8.3785  -15.3406   24.0995 N   0  0  0  0  0  0  0  0  0  0  0  0
    8.5861  -16.7650   25.9799 C   0  0  0  0  0  0  0  0  0  0  0  0
    8.4695  -17.7858   25.0658 O   0  0  0  0  0  0  0  0  0  0  0  0
    8.6974  -17.0313   27.1954 O   0  0  0  0  0  0  0  0  0  0  0  0
  1  2  1  0
  3  2  1  0
  4  3  1  0
  5  4  1  0
  5  1  1  0
  6  7  2  0
  5  6  1  1
  9  8  1  6
  9 11  1  0
  9 10  1  0
 12 11  1  1
 12 13  1  0
 13  6  1  0
 14 12  1  0
 14 15  2  0
 17 16  1  1
 17 18  1  0
 17 19  1  0
 20 21  1  0
 20 19  1  1
 21 14  1  0
 22 20  1  0
 23 22  1  0
 24 22  2  0
M  END
$$$$
