PLL.pdb
     RDKit          3D

 24 24  0  0  1  0  0  0  0  0999 V2000
    7.3015  -15.2239   20.6702 N   0  0  0  0  0  0  0  0  0  0  0  0
    6.7984  -14.7219   19.4156 C   0  0  0  0  0  0  0  0  0  0  0  0
    7.5650  -13.4840   19.0810 C   0  0  0  0  0  0  0  0  0  0  0  0
    8.7247  -13.4349   20.0462 C   0  0  0  0  0  0  0  0  0  0  0  0
    8.6003  -14.6874   20.8822 C   0  0  1  0  0  0  0  0  0  0  0  0
    8.8562  -14.3515   22.3211 C   0  0  0  0  0  0  0  0  0  0  0  0
   10.0248  -14.0615   22.6851 O   0  0  0  0  0  0  0  0  0  0  0  0
    5.6566  -12.1059   26.9976 C   0  0  0  0  0  0  0  0  0  0  0  0
    7.0193  -12.7072   26.6062 C   0  0  2  0  0  0  0  0  0  0  0  0
    8.0149  -11.5739   26.7231 C   0  0  0  0  0  0  0  0  0  0  0  0
    6.8742  -13.2143   25.2179 C   0  0  0  0  0  0  0  0  0  0  0  0
    8.0116  -14.0246   24.6901 C   0  0  2  0  0  0  0  0  0  0  0  0
    7.8031  -14.3554   23.2775 N   0  0  0  0  0  0  0  0  0  0  0  0
    8.3522  -15.2220   25.4693 C   0  0  0  0  0  0  0  0  0  0  0  0
    8.6916  -15.1283   26.6533 O   0  0  0  0  0  0  0  0  0  0  0  0
    6.9398  -19.6821   22.9434 C   0  0  0  0  0  0  0  0  0  0  0  0
    6.8899  -18.7050   24.1079 C   0  0  1  0  0  0  0  0  0  0  0  0
    5.6031  -18.9861   24.8573 C   0  0  0  0  0  0  0  0  0  0  0  0
    8.1038  -18.9805   24.9607 C   0  0  0  0  0  0  0  0  0  0  0  0
    8.5812  -17.7400   25.6894 C   0  0  2  0  0  0  0  0  0  0  0  0
    8.3145  -16.5447   24.9227 N   0  0  0  0  0  0  0  0  0  0  0  0
   10.0343  -17.8504   25.8952 C   0  0  0  0  0  0  0  0  0  0  0  0
   10.8868  -16.9425   25.3120 O   0  0  0  0  0  0  0  0  0  0  0  0
   10.4978  -18.7708   26.6015 O   0  0  0  0  0  0  0  0  0  0  0  0
  1  2  1  0
  3  2  1  0
  4  3  1  0
  5  4  1  0
  5  1  1  0
  6  7  2  0
  5  6  1  1
  9  8  1  6
  9 11  1  0
  9 10  1  0
 12 11  1  1
 12 13  1  0
 13  6  1  0
 14 12  1  0
 14 15  2  0
 17 16  1  6
 17 18  1  0
 17 19  1  0
 20 21  1  0
 20 19  1  6
 21 14  1  0
 22 20  1  0
 23 22  1  0
 24 22  2  0
M  END
$$$$
