PLL.pdb
     RDKit          3D

 24 24  0  0  1  0  0  0  0  0999 V2000
    7.4006  -17.8895   21.2258 N   0  0  0  0  0  0  0  0  0  0  0  0
    6.6342  -18.1453   20.0316 C   0  0  0  0  0  0  0  0  0  0  0  0
    7.0140  -17.1154   19.0182 C   0  0  0  0  0  0  0  0  0  0  0  0
    8.2345  -16.4169   19.5671 C   0  0  0  0  0  0  0  0  0  0  0  0
    8.5370  -17.1119   20.8742 C   0  0  1  0  0  0  0  0  0  0  0  0
    8.8770  -16.0869   21.9146 C   0  0  0  0  0  0  0  0  0  0  0  0
    9.9525  -15.4425   21.8127 O   0  0  0  0  0  0  0  0  0  0  0  0
    7.8748  -12.7866   26.2197 C   0  0  0  0  0  0  0  0  0  0  0  0
    6.8486  -12.9325   25.0806 C   0  0  2  0  0  0  0  0  0  0  0  0
    5.5068  -12.5964   25.6938 C   0  0  0  0  0  0  0  0  0  0  0  0
    6.9379  -14.3379   24.6089 C   0  0  0  0  0  0  0  0  0  0  0  0
    8.2213  -14.7338   23.9571 C   0  0  2  0  0  0  0  0  0  0  0  0
    8.0067  -15.8323   23.0107 N   0  0  0  0  0  0  0  0  0  0  0  0
    9.3311  -15.0323   24.8715 C   0  0  0  0  0  0  0  0  0  0  0  0
   10.3237  -14.2987   24.9188 O   0  0  0  0  0  0  0  0  0  0  0  0
   10.1990  -14.2481   29.6008 C   0  0  0  0  0  0  0  0  0  0  0  0
   10.3621  -14.5763   28.1246 C   0  0  1  0  0  0  0  0  0  0  0  0
   11.7214  -14.0507   27.7093 C   0  0  0  0  0  0  0  0  0  0  0  0
   10.2827  -16.0780   28.0003 C   0  0  0  0  0  0  0  0  0  0  0  0
   10.4644  -16.5413   26.5685 C   0  0  2  0  0  0  0  0  0  0  0  0
    9.3369  -16.1650   25.7472 N   0  0  0  0  0  0  0  0  0  0  0  0
   10.5785  -18.0086   26.5642 C   0  0  0  0  0  0  0  0  0  0  0  0
   11.6447  -18.6216   27.1795 O   0  0  0  0  0  0  0  0  0  0  0  0
    9.7055  -18.7022   26.0007 O   0  0  0  0  0  0  0  0  0  0  0  0
  1  2  1  0
  3  2  1  0
  4  3  1  0
  5  4  1  0
  5  1  1  0
  6  7  2  0
  5  6  1  1
  9  8  1  1
  9 11  1  0
  9 10  1  0
 12 11  1  1
 12 13  1  0
 13  6  1  0
 14 12  1  0
 14 15  2  0
 17 16  1  1
 17 18  1  0
 17 19  1  0
 20 21  1  0
 20 19  1  1
 21 14  1  0
 22 20  1  0
 23 22  1  0
 24 22  2  0
M  END
$$$$
