AEI.pdb
     RDKit          3D

 23 22  0  0  1  0  0  0  0  0999 V2000
   18.2724  -12.8757  -18.5617 C   0  0  0  0  0  0  0  0  0  0  0  0
   17.9246  -12.0459  -17.3530 C   0  0  2  0  0  0  0  0  0  0  0  0
   16.5228  -11.7832  -17.3521 N   0  0  0  0  0  0  0  0  0  0  0  0
   18.7470  -10.8063  -17.3718 C   0  0  0  0  0  0  0  0  0  0  0  0
   19.9948  -10.8856  -17.2363 O   0  0  0  0  0  0  0  0  0  0  0  0
   18.1933   -9.5080  -17.5376 N   0  0  0  0  0  0  0  0  0  0  0  0
   19.0086   -8.3070  -17.6138 C   0  0  1  0  0  0  0  0  0  0  0  0
   18.2883   -7.1598  -18.2393 C   0  0  0  0  0  0  0  0  0  0  0  0
   19.0865   -5.9032  -18.3466 C   0  0  0  0  0  0  0  0  0  0  0  0
   18.2168   -4.8164  -18.8541 C   0  0  0  0  0  0  0  0  0  0  0  0
   17.0056   -5.0395  -19.1069 O   0  0  0  0  0  0  0  0  0  0  0  0
   19.5720   -8.0034  -16.2734 C   0  0  0  0  0  0  0  0  0  0  0  0
   18.8291   -8.2240  -15.2847 O   0  0  0  0  0  0  0  0  0  0  0  0
   18.6789   -3.5248  -19.0732 O   0  0  0  0  0  0  0  0  0  0  0  0
   23.3543  -10.6719  -14.2149 C   0  0  0  0  0  0  0  0  0  0  0  0
   22.2083   -9.7222  -14.4458 C   0  0  0  0  0  0  0  0  0  0  0  0
   22.5810   -8.2838  -14.4621 C   0  0  2  0  0  0  0  0  0  0  0  0
   23.0392   -7.9172  -13.0407 C   0  0  0  0  0  0  0  0  0  0  0  0
   21.4960   -7.3230  -14.7935 C   0  0  2  0  0  0  0  0  0  0  0  0
   20.8821   -7.4881  -16.0882 N   0  0  0  0  0  0  0  0  0  0  0  0
   22.0573   -5.9385  -14.7127 C   0  0  0  0  0  0  0  0  0  0  0  0
   22.2397   -5.1345  -15.8244 O   0  0  0  0  0  0  0  0  0  0  0  0
   22.3869   -5.4565  -13.6062 O   0  0  0  0  0  0  0  0  0  0  0  0
  2  1  1  6
  2  3  1  0
  4  2  1  0
  4  5  2  0
  6  4  1  0
  7  6  1  0
  7 12  1  0
  7  8  1  1
  9  8  1  0
  9 10  1  0
 10 14  1  0
 11 10  2  0
 12 13  2  0
 12 20  1  0
 16 15  1  0
 17 18  1  1
 17 16  1  0
 19 17  1  0
 19 20  1  6
 21 22  1  0
 21 19  1  0
 23 21  2  0
M  END
$$$$
