AEI.pdb
     RDKit          3D

 23 22  0  0  1  0  0  0  0  0999 V2000
   16.2807  -12.5213  -19.7156 C   0  0  0  0  0  0  0  0  0  0  0  0
   16.6215  -12.4332  -18.2505 C   0  0  2  0  0  0  0  0  0  0  0  0
   15.4193  -12.2870  -17.4973 N   0  0  0  0  0  0  0  0  0  0  0  0
   17.5732  -11.3076  -18.0483 C   0  0  0  0  0  0  0  0  0  0  0  0
   18.7392  -11.3879  -18.5128 O   0  0  0  0  0  0  0  0  0  0  0  0
   17.2349  -10.1199  -17.3451 N   0  0  0  0  0  0  0  0  0  0  0  0
   18.1489   -8.9980  -17.2069 C   0  0  1  0  0  0  0  0  0  0  0  0
   17.4450   -7.6835  -17.1581 C   0  0  0  0  0  0  0  0  0  0  0  0
   18.3372   -6.5026  -16.9655 C   0  0  0  0  0  0  0  0  0  0  0  0
   17.5111   -5.2744  -16.8998 C   0  0  0  0  0  0  0  0  0  0  0  0
   18.0581   -4.1480  -16.7869 O   0  0  0  0  0  0  0  0  0  0  0  0
   19.0568   -9.2362  -16.0557 C   0  0  0  0  0  0  0  0  0  0  0  0
   18.5205   -9.5909  -14.9765 O   0  0  0  0  0  0  0  0  0  0  0  0
   16.1234   -5.2983  -16.9576 O   0  0  0  0  0  0  0  0  0  0  0  0
   21.9918  -12.3706  -15.1335 C   0  0  0  0  0  0  0  0  0  0  0  0
   22.5771  -11.2844  -15.9973 C   0  0  0  0  0  0  0  0  0  0  0  0
   22.6540   -9.9468  -15.3545 C   0  0  2  0  0  0  0  0  0  0  0  0
   23.3746  -10.1305  -14.0086 C   0  0  0  0  0  0  0  0  0  0  0  0
   21.3587   -9.2936  -15.0295 C   0  0  2  0  0  0  0  0  0  0  0  0
   20.4654   -9.0782  -16.1413 N   0  0  0  0  0  0  0  0  0  0  0  0
   21.6491   -7.9694  -14.3966 C   0  0  0  0  0  0  0  0  0  0  0  0
   21.7188   -7.7896  -13.0260 O   0  0  0  0  0  0  0  0  0  0  0  0
   21.8419   -6.9598  -15.1097 O   0  0  0  0  0  0  0  0  0  0  0  0
  2  1  1  6
  2  3  1  0
  4  2  1  0
  4  5  2  0
  6  4  1  0
  7  6  1  0
  7 12  1  0
  7  8  1  1
  9  8  1  0
  9 10  1  0
 10 14  1  0
 11 10  2  0
 12 13  2  0
 12 20  1  0
 16 15  1  0
 17 18  1  1
 17 16  1  0
 19 17  1  0
 19 20  1  6
 21 22  1  0
 21 19  1  0
 23 21  2  0
M  END
$$$$
