AEI.pdb
     RDKit          3D

 23 22  0  0  1  0  0  0  0  0999 V2000
   16.9436  -11.8919  -15.0514 C   0  0  0  0  0  0  0  0  0  0  0  0
   16.0522  -10.7966  -15.5767 C   0  0  2  0  0  0  0  0  0  0  0  0
   15.4031  -11.2488  -16.7634 N   0  0  0  0  0  0  0  0  0  0  0  0
   16.8736   -9.5754  -15.7943 C   0  0  0  0  0  0  0  0  0  0  0  0
   17.8083   -9.5963  -16.6356 O   0  0  0  0  0  0  0  0  0  0  0  0
   16.6597   -8.3587  -15.0919 N   0  0  0  0  0  0  0  0  0  0  0  0
   17.3960   -7.1398  -15.3836 C   0  0  1  0  0  0  0  0  0  0  0  0
   16.5383   -5.9204  -15.3268 C   0  0  0  0  0  0  0  0  0  0  0  0
   17.2640   -4.6342  -15.5423 C   0  0  0  0  0  0  0  0  0  0  0  0
   16.3520   -3.5051  -15.2442 C   0  0  0  0  0  0  0  0  0  0  0  0
   16.7708   -2.3210  -15.2977 O   0  0  0  0  0  0  0  0  0  0  0  0
   18.6003   -7.0678  -14.5172 C   0  0  0  0  0  0  0  0  0  0  0  0
   18.4652   -7.4503  -13.3283 O   0  0  0  0  0  0  0  0  0  0  0  0
   15.0191   -3.6873  -14.8983 O   0  0  0  0  0  0  0  0  0  0  0  0
   22.6416  -10.1059  -15.0225 C   0  0  0  0  0  0  0  0  0  0  0  0
   21.6529   -9.1035  -14.4873 C   0  0  0  0  0  0  0  0  0  0  0  0
   22.0600   -7.6821  -14.6362 C   0  0  2  0  0  0  0  0  0  0  0  0
   23.2922   -7.4665  -13.7419 C   0  0  0  0  0  0  0  0  0  0  0  0
   21.0687   -6.6616  -14.2050 C   0  0  2  0  0  0  0  0  0  0  0  0
   19.8555   -6.5940  -14.9823 N   0  0  0  0  0  0  0  0  0  0  0  0
   21.7301   -5.3203  -14.2487 C   0  0  0  0  0  0  0  0  0  0  0  0
   22.4643   -4.8087  -13.1928 O   0  0  0  0  0  0  0  0  0  0  0  0
   21.6341   -4.6041  -15.2700 O   0  0  0  0  0  0  0  0  0  0  0  0
  2  1  1  6
  2  3  1  0
  4  2  1  0
  4  5  2  0
  6  4  1  0
  7  6  1  0
  7 12  1  0
  7  8  1  1
  9  8  1  0
  9 10  1  0
 10 14  1  0
 11 10  2  0
 12 13  2  0
 12 20  1  0
 16 15  1  0
 17 18  1  1
 17 16  1  0
 19 17  1  0
 19 20  1  6
 21 22  1  0
 21 19  1  0
 23 21  2  0
M  END
$$$$
