AEI.pdb
     RDKit          3D

 23 22  0  0  1  0  0  0  0  0999 V2000
   28.2823  -18.1048  -17.1283 C   0  0  0  0  0  0  0  0  0  0  0  0
   28.5151  -19.3109  -16.2557 C   0  0  2  0  0  0  0  0  0  0  0  0
   28.5037  -20.4848  -17.0656 N   0  0  0  0  0  0  0  0  0  0  0  0
   27.4808  -19.3339  -15.1866 C   0  0  0  0  0  0  0  0  0  0  0  0
   27.4032  -18.3757  -14.3756 O   0  0  0  0  0  0  0  0  0  0  0  0
   26.5540  -20.3988  -15.0236 N   0  0  0  0  0  0  0  0  0  0  0  0
   25.4779  -20.3650  -14.0469 C   0  0  1  0  0  0  0  0  0  0  0  0
   24.2351  -21.0307  -14.5351 C   0  0  0  0  0  0  0  0  0  0  0  0
   23.1249  -21.0906  -13.5395 C   0  0  0  0  0  0  0  0  0  0  0  0
   22.0197  -21.9084  -14.0918 C   0  0  0  0  0  0  0  0  0  0  0  0
   22.1838  -22.5615  -15.1535 O   0  0  0  0  0  0  0  0  0  0  0  0
   25.9699  -20.8904  -12.7477 C   0  0  0  0  0  0  0  0  0  0  0  0
   26.8004  -21.8317  -12.7963 O   0  0  0  0  0  0  0  0  0  0  0  0
   20.7740  -21.9969  -13.4835 O   0  0  0  0  0  0  0  0  0  0  0  0
   28.3459  -19.6768   -7.4115 C   0  0  0  0  0  0  0  0  0  0  0  0
   27.3372  -20.5381   -8.1251 C   0  0  0  0  0  0  0  0  0  0  0  0
   26.9061  -20.0279   -9.4525 C   0  0  2  0  0  0  0  0  0  0  0  0
   26.1372  -18.7188   -9.2081 C   0  0  0  0  0  0  0  0  0  0  0  0
   25.9812  -20.8970  -10.2267 C   0  0  2  0  0  0  0  0  0  0  0  0
   25.5402  -20.3741  -11.4966 N   0  0  0  0  0  0  0  0  0  0  0  0
   24.7743  -21.1629   -9.3834 C   0  0  0  0  0  0  0  0  0  0  0  0
   23.5139  -20.6884   -9.7027 O   0  0  0  0  0  0  0  0  0  0  0  0
   24.8748  -21.8404   -8.3365 O   0  0  0  0  0  0  0  0  0  0  0  0
  2  1  1  6
  2  3  1  0
  4  2  1  0
  4  5  2  0
  6  4  1  0
  7  6  1  0
  7 12  1  0
  7  8  1  6
  9  8  1  0
  9 10  1  0
 10 14  1  0
 11 10  2  0
 12 13  2  0
 12 20  1  0
 16 15  1  0
 17 18  1  1
 17 16  1  0
 19 17  1  0
 19 20  1  6
 21 22  1  0
 21 19  1  0
 23 21  2  0
M  END
$$$$
