AEI.pdb
     RDKit          3D

 23 22  0  0  1  0  0  0  0  0999 V2000
   17.0933  -12.0541  -16.2645 C   0  0  0  0  0  0  0  0  0  0  0  0
   16.2354  -10.8157  -16.2397 C   0  0  2  0  0  0  0  0  0  0  0  0
   15.4067  -10.7960  -17.4003 N   0  0  0  0  0  0  0  0  0  0  0  0
   17.1200   -9.6238  -16.1383 C   0  0  0  0  0  0  0  0  0  0  0  0
   18.2348   -9.6252  -16.7206 O   0  0  0  0  0  0  0  0  0  0  0  0
   16.7719   -8.4569  -15.4058 N   0  0  0  0  0  0  0  0  0  0  0  0
   17.5445   -7.2271  -15.4679 C   0  0  1  0  0  0  0  0  0  0  0  0
   16.6992   -6.0069  -15.3178 C   0  0  0  0  0  0  0  0  0  0  0  0
   17.4554   -4.7203  -15.2985 C   0  0  0  0  0  0  0  0  0  0  0  0
   16.5047   -3.6001  -15.1069 C   0  0  0  0  0  0  0  0  0  0  0  0
   15.2774   -3.8288  -14.9584 O   0  0  0  0  0  0  0  0  0  0  0  0
   18.6714   -7.2995  -14.5030 C   0  0  0  0  0  0  0  0  0  0  0  0
   18.4270   -7.8203  -13.3862 O   0  0  0  0  0  0  0  0  0  0  0  0
   16.9058   -2.2704  -15.0814 O   0  0  0  0  0  0  0  0  0  0  0  0
   23.9471   -9.7376  -13.9744 C   0  0  0  0  0  0  0  0  0  0  0  0
   23.1705   -8.5104  -13.5751 C   0  0  0  0  0  0  0  0  0  0  0  0
   21.9437   -8.2583  -14.3749 C   0  0  2  0  0  0  0  0  0  0  0  0
   22.3918   -7.9875  -15.8208 C   0  0  0  0  0  0  0  0  0  0  0  0
   21.1279   -7.0796  -13.9810 C   0  0  2  0  0  0  0  0  0  0  0  0
   19.9714   -6.8117  -14.8003 N   0  0  0  0  0  0  0  0  0  0  0  0
   22.0105   -5.8717  -14.0047 C   0  0  0  0  0  0  0  0  0  0  0  0
   22.9043   -5.5730  -12.9910 O   0  0  0  0  0  0  0  0  0  0  0  0
   21.9626   -5.0760  -14.9689 O   0  0  0  0  0  0  0  0  0  0  0  0
  2  1  1  6
  2  3  1  0
  4  2  1  0
  4  5  2  0
  6  4  1  0
  7  6  1  0
  7 12  1  0
  7  8  1  1
  9  8  1  0
  9 10  1  0
 10 14  1  0
 11 10  2  0
 12 13  2  0
 12 20  1  0
 16 15  1  0
 17 18  1  6
 17 16  1  0
 19 17  1  0
 19 20  1  6
 21 22  1  0
 21 19  1  0
 23 21  2  0
M  END
$$$$
