MPF.pdb
     RDKit          3D

 27 28  0  0  1  0  0  0  0  0999 V2000
    6.9473  -11.2106   21.1191 C   0  0  0  0  0  0  0  0  0  0  0  0
    7.9368  -12.0737   19.8841 S   0  0  0  0  0  0  0  0  0  0  0  0
    7.6555  -13.8405   19.9285 C   0  0  0  0  0  0  0  0  0  0  0  0
    7.7671  -14.4016   21.3039 C   0  0  0  0  0  0  0  0  0  0  0  0
    7.4099  -15.8410   21.3639 C   0  0  2  0  0  0  0  0  0  0  0  0
    6.0603  -16.0925   20.9981 N   0  0  0  0  0  0  0  0  0  0  0  0
    7.8679  -16.4779   22.6157 C   0  0  0  0  0  0  0  0  0  0  0  0
    6.9695  -16.6207   23.5170 O   0  0  0  0  0  0  0  0  0  0  0  0
    9.1603  -16.9305   22.9099 N   0  0  0  0  0  0  0  0  0  0  0  0
   10.3625  -16.8721   22.1220 C   0  0  0  0  0  0  0  0  0  0  0  0
   10.8659  -18.3148   22.3335 C   0  0  0  0  0  0  0  0  0  0  0  0
   10.7700  -18.4229   23.8257 C   0  0  0  0  0  0  0  0  0  0  0  0
    9.5835  -17.5652   24.1891 C   0  0  1  0  0  0  0  0  0  0  0  0
   10.0222  -16.4714   25.1067 C   0  0  0  0  0  0  0  0  0  0  0  0
   10.7398  -15.5079   24.6868 O   0  0  0  0  0  0  0  0  0  0  0  0
    9.6586  -16.4695   26.4599 N   0  0  0  0  0  0  0  0  0  0  0  0
   10.2791  -15.5539   27.4417 C   0  0  1  0  0  0  0  0  0  0  0  0
    9.1592  -14.8155   28.1298 C   0  0  0  0  0  0  0  0  0  0  0  0
    8.4355  -13.9452   27.1854 C   0  0  0  0  0  0  0  0  0  0  0  0
    8.8779  -12.6618   26.8514 C   0  0  0  0  0  0  0  0  0  0  0  0
    8.1999  -11.8575   25.9597 C   0  0  0  0  0  0  0  0  0  0  0  0
    7.0432  -12.3184   25.3675 C   0  0  0  0  0  0  0  0  0  0  0  0
    6.5974  -13.5680   25.6825 C   0  0  0  0  0  0  0  0  0  0  0  0
    7.2639  -14.3700   26.5645 C   0  0  0  0  0  0  0  0  0  0  0  0
   11.0140  -16.3482   28.4374 C   0  0  0  0  0  0  0  0  0  0  0  0
   11.7250  -15.8285   29.3227 O   0  0  0  0  0  0  0  0  0  0  0  0
   10.9198  -17.7291   28.3996 O   0  0  0  0  0  0  0  0  0  0  0  0
  2  1  1  0
  3  2  1  0
  4  3  1  0
  4  5  1  0
  5  7  1  0
  5  6  1  1
  7  8  2  0
  9 13  1  0
  9  7  1  0
 10  9  1  0
 11 10  1  0
 11 12  1  0
 12 13  1  0
 14 15  2  0
 13 14  1  1
 16 14  1  0
 17 16  1  0
 17 25  1  0
 17 18  1  1
 19 18  1  0
 20 19  2  0
 21 20  1  0
 22 21  2  0
 22 23  1  0
 23 24  2  0
 24 19  1  0
 25 27  1  0
 26 25  2  0
M  END
$$$$
