MPF.pdb
     RDKit          3D

 27 28  0  0  1  0  0  0  0  0999 V2000
    5.8885  -17.2911   26.7911 C   0  0  0  0  0  0  0  0  0  0  0  0
    7.1111  -18.5138   26.2819 S   0  0  0  0  0  0  0  0  0  0  0  0
    6.7802  -19.1340   24.6361 C   0  0  0  0  0  0  0  0  0  0  0  0
    5.8522  -18.2550   23.8711 C   0  0  0  0  0  0  0  0  0  0  0  0
    6.0443  -18.3626   22.4032 C   0  0  2  0  0  0  0  0  0  0  0  0
    5.9374  -19.6968   21.9269 N   0  0  0  0  0  0  0  0  0  0  0  0
    7.2237  -17.6045   21.9377 C   0  0  0  0  0  0  0  0  0  0  0  0
    8.1864  -18.3160   21.4831 O   0  0  0  0  0  0  0  0  0  0  0  0
    7.3915  -16.2140   21.9454 N   0  0  0  0  0  0  0  0  0  0  0  0
    6.5842  -15.1882   22.5499 C   0  0  0  0  0  0  0  0  0  0  0  0
    6.5285  -14.1929   21.3729 C   0  0  0  0  0  0  0  0  0  0  0  0
    7.9827  -14.1046   21.0191 C   0  0  0  0  0  0  0  0  0  0  0  0
    8.5280  -15.4772   21.3260 C   0  0  1  0  0  0  0  0  0  0  0  0
    9.6033  -15.3666   22.3567 C   0  0  0  0  0  0  0  0  0  0  0  0
   10.7154  -14.8079   22.0907 O   0  0  0  0  0  0  0  0  0  0  0  0
    9.4238  -15.8741   23.6503 N   0  0  0  0  0  0  0  0  0  0  0  0
   10.4870  -15.8109   24.6766 C   0  0  1  0  0  0  0  0  0  0  0  0
   10.7661  -14.3525   24.9375 C   0  0  0  0  0  0  0  0  0  0  0  0
    9.5976  -13.6858   25.5399 C   0  0  0  0  0  0  0  0  0  0  0  0
    9.3754  -13.6539   26.9198 C   0  0  0  0  0  0  0  0  0  0  0  0
    8.2843  -13.0199   27.4760 C   0  0  0  0  0  0  0  0  0  0  0  0
    7.3701  -12.3904   26.6581 C   0  0  0  0  0  0  0  0  0  0  0  0
    7.5716  -12.4122   25.3096 C   0  0  0  0  0  0  0  0  0  0  0  0
    8.6499  -13.0381   24.7519 C   0  0  0  0  0  0  0  0  0  0  0  0
    9.9943  -16.4347   25.9137 C   0  0  0  0  0  0  0  0  0  0  0  0
   10.6980  -16.5455   26.9393 O   0  0  0  0  0  0  0  0  0  0  0  0
    8.6987  -16.9218   25.9525 O   0  0  0  0  0  0  0  0  0  0  0  0
  2  1  1  0
  3  2  1  0
  4  3  1  0
  4  5  1  0
  5  7  1  0
  5  6  1  1
  7  8  2  0
  9 13  1  0
  9  7  1  0
 10  9  1  0
 11 10  1  0
 11 12  1  0
 12 13  1  0
 14 15  2  0
 13 14  1  1
 16 14  1  0
 17 16  1  0
 17 25  1  0
 17 18  1  1
 19 18  1  0
 20 19  2  0
 21 20  1  0
 22 21  2  0
 22 23  1  0
 23 24  2  0
 24 19  1  0
 25 27  1  0
 26 25  2  0
M  END
$$$$
