MPF.pdb
     RDKit          3D

 27 28  0  0  1  0  0  0  0  0999 V2000
    6.6404  -12.3862   25.3523 C   0  0  0  0  0  0  0  0  0  0  0  0
    6.5680  -13.6578   26.6278 S   0  0  0  0  0  0  0  0  0  0  0  0
    6.8179  -15.2934   25.9457 C   0  0  0  0  0  0  0  0  0  0  0  0
    5.8408  -15.6181   24.8691 C   0  0  0  0  0  0  0  0  0  0  0  0
    6.0827  -16.9506   24.2618 C   0  0  2  0  0  0  0  0  0  0  0  0
    5.8685  -18.0209   25.1712 N   0  0  0  0  0  0  0  0  0  0  0  0
    7.3476  -16.9954   23.4999 C   0  0  0  0  0  0  0  0  0  0  0  0
    7.8387  -18.1648   23.3238 O   0  0  0  0  0  0  0  0  0  0  0  0
    8.0499  -15.9089   22.9635 N   0  0  0  0  0  0  0  0  0  0  0  0
    7.9081  -14.4999   23.2167 C   0  0  0  0  0  0  0  0  0  0  0  0
    7.9439  -13.9836   21.7636 C   0  0  0  0  0  0  0  0  0  0  0  0
    9.1634  -14.6896   21.2516 C   0  0  0  0  0  0  0  0  0  0  0  0
    9.1779  -16.0018   21.9954 C   0  0  1  0  0  0  0  0  0  0  0  0
   10.4390  -16.1108   22.7882 C   0  0  0  0  0  0  0  0  0  0  0  0
   11.5776  -15.9738   22.2363 O   0  0  0  0  0  0  0  0  0  0  0  0
   10.4108  -16.3674   24.1654 N   0  0  0  0  0  0  0  0  0  0  0  0
   11.6348  -16.3518   24.9955 C   0  0  1  0  0  0  0  0  0  0  0  0
   11.7158  -14.9921   25.6417 C   0  0  0  0  0  0  0  0  0  0  0  0
   10.7561  -14.8728   26.7542 C   0  0  0  0  0  0  0  0  0  0  0  0
   10.8303  -15.6661   27.9029 C   0  0  0  0  0  0  0  0  0  0  0  0
    9.9340  -15.5418   28.9435 C   0  0  0  0  0  0  0  0  0  0  0  0
    8.9225  -14.6080   28.8655 C   0  0  0  0  0  0  0  0  0  0  0  0
    8.8354  -13.8262   27.7517 C   0  0  0  0  0  0  0  0  0  0  0  0
    9.7197  -13.9438   26.7175 C   0  0  0  0  0  0  0  0  0  0  0  0
   11.5138  -17.3757   26.0441 C   0  0  0  0  0  0  0  0  0  0  0  0
   10.4487  -17.9872   26.2692 O   0  0  0  0  0  0  0  0  0  0  0  0
   12.6206  -17.6808   26.8181 O   0  0  0  0  0  0  0  0  0  0  0  0
  2  1  1  0
  3  2  1  0
  4  3  1  0
  4  5  1  0
  5  7  1  0
  5  6  1  1
  7  8  2  0
  9 13  1  0
  9  7  1  0
 10  9  1  0
 11 10  1  0
 11 12  1  0
 12 13  1  0
 14 15  2  0
 13 14  1  1
 16 14  1  0
 17 16  1  0
 17 25  1  0
 17 18  1  1
 19 18  1  0
 20 19  2  0
 21 20  1  0
 22 21  2  0
 22 23  1  0
 23 24  2  0
 24 19  1  0
 25 27  1  0
 26 25  2  0
M  END
$$$$
