MPF.pdb
     RDKit          3D

 27 28  0  0  1  0  0  0  0  0999 V2000
    7.0517  -20.9805   20.8997 C   0  0  0  0  0  0  0  0  0  0  0  0
    8.8458  -21.1374   20.9744 S   0  0  0  0  0  0  0  0  0  0  0  0
    9.6633  -19.6323   20.4554 C   0  0  0  0  0  0  0  0  0  0  0  0
    8.8245  -18.8160   19.5340 C   0  0  0  0  0  0  0  0  0  0  0  0
    9.4349  -17.4995   19.2220 C   0  0  2  0  0  0  0  0  0  0  0  0
   10.7078  -17.6124   18.6013 N   0  0  0  0  0  0  0  0  0  0  0  0
    9.3541  -16.5628   20.3615 C   0  0  0  0  0  0  0  0  0  0  0  0
   10.4773  -16.2422   20.8863 O   0  0  0  0  0  0  0  0  0  0  0  0
    8.1957  -16.0031   20.9150 N   0  0  0  0  0  0  0  0  0  0  0  0
    6.8136  -16.2146   20.5765 C   0  0  0  0  0  0  0  0  0  0  0  0
    6.3364  -14.7478   20.5620 C   0  0  0  0  0  0  0  0  0  0  0  0
    6.8804  -14.2692   21.8745 C   0  0  0  0  0  0  0  0  0  0  0  0
    8.1577  -15.0503   22.0590 C   0  0  1  0  0  0  0  0  0  0  0  0
    8.0700  -15.8593   23.3114 C   0  0  0  0  0  0  0  0  0  0  0  0
    7.6772  -17.0696   23.2874 O   0  0  0  0  0  0  0  0  0  0  0  0
    8.4171  -15.3131   24.5542 N   0  0  0  0  0  0  0  0  0  0  0  0
    8.4294  -16.1195   25.7940 C   0  0  1  0  0  0  0  0  0  0  0  0
    8.6390  -15.1652   26.9423 C   0  0  0  0  0  0  0  0  0  0  0  0
    7.8491  -13.9337   26.7626 C   0  0  0  0  0  0  0  0  0  0  0  0
    6.4593  -13.9004   26.9105 C   0  0  0  0  0  0  0  0  0  0  0  0
    5.7287  -12.7419   26.7498 C   0  0  0  0  0  0  0  0  0  0  0  0
    6.3745  -11.5660   26.4318 C   0  0  0  0  0  0  0  0  0  0  0  0
    7.7300  -11.5809   26.2835 C   0  0  0  0  0  0  0  0  0  0  0  0
    8.4599  -12.7245   26.4413 C   0  0  0  0  0  0  0  0  0  0  0  0
    7.1236  -16.7778   25.9485 C   0  0  0  0  0  0  0  0  0  0  0  0
    6.1106  -16.4240   25.3099 O   0  0  0  0  0  0  0  0  0  0  0  0
    7.0028  -17.8339   26.8358 O   0  0  0  0  0  0  0  0  0  0  0  0
  2  1  1  0
  3  2  1  0
  4  3  1  0
  4  5  1  0
  5  7  1  0
  5  6  1  1
  7  8  2  0
  9 13  1  0
  9  7  1  0
 10  9  1  0
 11 10  1  0
 11 12  1  0
 12 13  1  0
 14 15  2  0
 13 14  1  1
 16 14  1  0
 17 16  1  0
 17 25  1  0
 17 18  1  1
 19 18  1  0
 20 19  2  0
 21 20  1  0
 22 21  2  0
 22 23  1  0
 23 24  2  0
 24 19  1  0
 25 27  1  0
 26 25  2  0
M  END
$$$$
