MPF.pdb
     RDKit          3D

 27 28  0  0  1  0  0  0  0  0999 V2000
    6.8645  -11.1344   20.8550 C   0  0  0  0  0  0  0  0  0  0  0  0
    7.8641  -12.1420   19.7440 S   0  0  0  0  0  0  0  0  0  0  0  0
    7.4658  -13.8807   19.8899 C   0  0  0  0  0  0  0  0  0  0  0  0
    7.8794  -14.4527   21.2016 C   0  0  0  0  0  0  0  0  0  0  0  0
    7.4014  -15.8447   21.3935 C   0  0  2  0  0  0  0  0  0  0  0  0
    6.0295  -16.0098   21.0630 N   0  0  0  0  0  0  0  0  0  0  0  0
    7.8233  -16.4054   22.6935 C   0  0  0  0  0  0  0  0  0  0  0  0
    6.9094  -16.4576   23.5889 O   0  0  0  0  0  0  0  0  0  0  0  0
    9.0972  -16.8744   23.0381 N   0  0  0  0  0  0  0  0  0  0  0  0
   10.3208  -16.8691   22.2815 C   0  0  0  0  0  0  0  0  0  0  0  0
   10.7866  -18.3137   22.5563 C   0  0  0  0  0  0  0  0  0  0  0  0
   10.6491  -18.3672   24.0483 C   0  0  0  0  0  0  0  0  0  0  0  0
    9.4725  -17.4725   24.3495 C   0  0  1  0  0  0  0  0  0  0  0  0
    9.9109  -16.3565   25.2402 C   0  0  0  0  0  0  0  0  0  0  0  0
   10.6916  -15.4446   24.8176 O   0  0  0  0  0  0  0  0  0  0  0  0
    9.4775  -16.2763   26.5702 N   0  0  0  0  0  0  0  0  0  0  0  0
   10.1314  -15.3938   27.5606 C   0  0  1  0  0  0  0  0  0  0  0  0
    9.0492  -14.5529   28.1889 C   0  0  0  0  0  0  0  0  0  0  0  0
    8.3528  -13.7378   27.1772 C   0  0  0  0  0  0  0  0  0  0  0  0
    7.1714  -14.1536   26.5561 C   0  0  0  0  0  0  0  0  0  0  0  0
    6.5210  -13.3807   25.6173 C   0  0  0  0  0  0  0  0  0  0  0  0
    7.0397  -12.1523   25.2662 C   0  0  0  0  0  0  0  0  0  0  0  0
    8.1918  -11.7317   25.8623 C   0  0  0  0  0  0  0  0  0  0  0  0
    8.8410  -12.4918   26.7929 C   0  0  0  0  0  0  0  0  0  0  0  0
   10.7587  -16.2241   28.5996 C   0  0  0  0  0  0  0  0  0  0  0  0
   10.5785  -17.4574   28.6768 O   0  0  0  0  0  0  0  0  0  0  0  0
   11.5845  -15.6230   29.5345 O   0  0  0  0  0  0  0  0  0  0  0  0
  2  1  1  0
  3  2  1  0
  4  3  1  0
  4  5  1  0
  5  7  1  0
  5  6  1  1
  7  8  2  0
  9 13  1  0
  9  7  1  0
 10  9  1  0
 11 10  1  0
 11 12  1  0
 12 13  1  0
 14 15  2  0
 13 14  1  1
 16 14  1  0
 17 16  1  0
 17 25  1  0
 17 18  1  1
 19 18  1  0
 20 19  2  0
 21 20  1  0
 22 21  2  0
 22 23  1  0
 23 24  2  0
 24 19  1  0
 25 27  1  0
 26 25  2  0
M  END
$$$$
