DDQ.pdb
     RDKit          3D

 26 25  0  0  1  0  0  0  0  0999 V2000
   14.4201  -16.1962   19.4004 N   0  0  0  0  0  0  0  0  0  0  0  0
   13.9307  -15.0691   20.1368 C   0  0  1  0  0  0  0  0  0  0  0  0
   13.5804  -13.8900   19.2606 C   0  0  0  0  0  0  0  0  0  0  0  0
   14.6918  -13.7197   18.2839 C   0  0  0  0  0  0  0  0  0  0  0  0
   15.8762  -13.8512   18.6846 O   0  0  0  0  0  0  0  0  0  0  0  0
   12.8264  -15.4403   21.0506 C   0  0  0  0  0  0  0  0  0  0  0  0
   12.3212  -14.5216   21.7519 O   0  0  0  0  0  0  0  0  0  0  0  0
   14.4880  -13.4219   16.9482 O   0  0  0  0  0  0  0  0  0  0  0  0
   12.3127  -16.7398   21.1824 N   0  0  0  0  0  0  0  0  0  0  0  0
   11.1444  -16.9958   22.0475 C   0  0  1  0  0  0  0  0  0  0  0  0
   10.4895  -18.2893   21.6136 C   0  0  0  0  0  0  0  0  0  0  0  0
    9.2961  -18.5716   22.4069 C   0  0  0  0  0  0  0  0  0  0  0  0
    8.9472  -17.7965   23.3175 O   0  0  0  0  0  0  0  0  0  0  0  0
   11.5403  -16.9924   23.4643 C   0  0  0  0  0  0  0  0  0  0  0  0
   12.5781  -17.5725   23.8629 O   0  0  0  0  0  0  0  0  0  0  0  0
    8.5607  -19.7225   22.1225 O   0  0  0  0  0  0  0  0  0  0  0  0
    8.9061  -13.5491   27.9862 N   0  0  0  0  0  0  0  0  0  0  0  0
    9.8035  -14.3362   28.7769 C   0  0  0  0  0  0  0  0  0  0  0  0
    9.9163  -14.2261   30.0092 O   0  0  0  0  0  0  0  0  0  0  0  0
   10.6544  -15.3503   28.0756 C   0  0  0  0  0  0  0  0  0  0  0  0
   10.3158  -15.3338   26.6134 C   0  0  0  0  0  0  0  0  0  0  0  0
   11.0947  -16.3767   25.8879 C   0  0  2  0  0  0  0  0  0  0  0  0
   10.7677  -16.3310   24.4597 N   0  0  0  0  0  0  0  0  0  0  0  0
   10.9962  -17.7307   26.4224 C   0  0  0  0  0  0  0  0  0  0  0  0
   11.9245  -18.3252   27.2565 O   0  0  0  0  0  0  0  0  0  0  0  0
    9.9964  -18.4757   26.1311 O   0  0  0  0  0  0  0  0  0  0  0  0
  2  1  1  6
  2  3  1  0
  3  4  1  0
  4  8  1  0
  5  4  2  0
  6  2  1  0
  7  6  2  0
  9  6  1  0
 10 14  1  0
 10  9  1  0
 11 12  1  0
 10 11  1  6
 12 13  2  0
 14 23  1  0
 15 14  2  0
 16 12  1  0
 18 19  2  0
 18 17  1  0
 20 18  1  0
 21 20  1  0
 22 21  1  1
 22 24  1  0
 23 22  1  0
 24 26  2  0
 24 25  1  0
M  END
$$$$
