DDQ.pdb
     RDKit          3D

 26 25  0  0  1  0  0  0  0  0999 V2000
   13.8256  -14.4539   20.0446 N   0  0  0  0  0  0  0  0  0  0  0  0
   12.4336  -14.7774   20.1418 C   0  0  1  0  0  0  0  0  0  0  0  0
   11.8319  -15.2256   18.8311 C   0  0  0  0  0  0  0  0  0  0  0  0
   12.2992  -14.2763   17.7829 C   0  0  0  0  0  0  0  0  0  0  0  0
   11.5953  -14.1155   16.7537 O   0  0  0  0  0  0  0  0  0  0  0  0
   12.1605  -15.7296   21.2423 C   0  0  0  0  0  0  0  0  0  0  0  0
   10.9547  -16.0211   21.4703 O   0  0  0  0  0  0  0  0  0  0  0  0
   13.4765  -13.5562   17.8828 O   0  0  0  0  0  0  0  0  0  0  0  0
   13.1526  -16.3216   22.0393 N   0  0  0  0  0  0  0  0  0  0  0  0
   12.7846  -17.2864   23.0943 C   0  0  1  0  0  0  0  0  0  0  0  0
   13.8313  -18.3783   23.1443 C   0  0  0  0  0  0  0  0  0  0  0  0
   13.4941  -19.3908   24.1414 C   0  0  0  0  0  0  0  0  0  0  0  0
   14.1750  -19.5051   25.1782 O   0  0  0  0  0  0  0  0  0  0  0  0
   12.6012  -16.5987   24.3817 C   0  0  0  0  0  0  0  0  0  0  0  0
   13.4879  -15.8575   24.8684 O   0  0  0  0  0  0  0  0  0  0  0  0
   12.3983  -20.2217   23.9067 O   0  0  0  0  0  0  0  0  0  0  0  0
    8.7270  -12.5938   28.7034 N   0  0  0  0  0  0  0  0  0  0  0  0
    8.7094  -13.7323   27.8353 C   0  0  0  0  0  0  0  0  0  0  0  0
    7.7767  -13.9934   27.0574 O   0  0  0  0  0  0  0  0  0  0  0  0
    9.8848  -14.6607   27.8688 C   0  0  0  0  0  0  0  0  0  0  0  0
   10.0621  -15.2616   26.5049 C   0  0  0  0  0  0  0  0  0  0  0  0
   11.2457  -16.1669   26.4859 C   0  0  2  0  0  0  0  0  0  0  0  0
   11.4083  -16.7368   25.1451 N   0  0  0  0  0  0  0  0  0  0  0  0
   11.2750  -17.1970   27.5188 C   0  0  0  0  0  0  0  0  0  0  0  0
   11.6667  -16.9971   28.8293 O   0  0  0  0  0  0  0  0  0  0  0  0
   10.9237  -18.3989   27.2514 O   0  0  0  0  0  0  0  0  0  0  0  0
  2  1  1  6
  2  3  1  0
  3  4  1  0
  4  8  1  0
  5  4  2  0
  6  2  1  0
  7  6  2  0
  9  6  1  0
 10 14  1  0
 10  9  1  0
 11 12  1  0
 10 11  1  1
 12 13  2  0
 14 23  1  0
 15 14  2  0
 16 12  1  0
 18 19  2  0
 18 17  1  0
 20 18  1  0
 21 20  1  0
 22 21  1  6
 22 24  1  0
 23 22  1  0
 24 26  2  0
 24 25  1  0
M  END
$$$$
