DDQ.pdb
     RDKit          3D

 26 25  0  0  1  0  0  0  0  0999 V2000
    9.3230  -17.4159   19.9981 N   0  0  0  0  0  0  0  0  0  0  0  0
    8.5623  -16.2907   20.4534 C   0  0  1  0  0  0  0  0  0  0  0  0
    7.4165  -15.9344   19.5364 C   0  0  0  0  0  0  0  0  0  0  0  0
    7.9120  -16.0665   18.1381 C   0  0  0  0  0  0  0  0  0  0  0  0
    8.9545  -16.7362   17.9254 O   0  0  0  0  0  0  0  0  0  0  0  0
    8.1306  -16.4456   21.8612 C   0  0  0  0  0  0  0  0  0  0  0  0
    7.4951  -15.4880   22.3809 O   0  0  0  0  0  0  0  0  0  0  0  0
    7.2804  -15.4866   17.0522 O   0  0  0  0  0  0  0  0  0  0  0  0
    8.3834  -17.5823   22.6447 N   0  0  0  0  0  0  0  0  0  0  0  0
    8.0930  -17.5703   24.0920 C   0  0  1  0  0  0  0  0  0  0  0  0
    8.0899  -18.9953   24.6014 C   0  0  0  0  0  0  0  0  0  0  0  0
    6.9589  -19.7478   24.0647 C   0  0  0  0  0  0  0  0  0  0  0  0
    5.8380  -19.2138   23.9641 O   0  0  0  0  0  0  0  0  0  0  0  0
    9.0446  -16.7020   24.8024 C   0  0  0  0  0  0  0  0  0  0  0  0
    9.9614  -16.0934   24.2011 O   0  0  0  0  0  0  0  0  0  0  0  0
    7.1625  -21.0703   23.6699 O   0  0  0  0  0  0  0  0  0  0  0  0
    5.9239  -12.7379   26.0048 N   0  0  0  0  0  0  0  0  0  0  0  0
    6.9276  -12.1575   26.8449 C   0  0  0  0  0  0  0  0  0  0  0  0
    6.8819  -10.9914   27.2710 O   0  0  0  0  0  0  0  0  0  0  0  0
    8.0993  -13.0073   27.2311 C   0  0  0  0  0  0  0  0  0  0  0  0
    7.9267  -14.3691   26.6242 C   0  0  0  0  0  0  0  0  0  0  0  0
    9.1478  -15.1945   26.8440 C   0  0  2  0  0  0  0  0  0  0  0  0
    8.9770  -16.5052   26.2101 N   0  0  0  0  0  0  0  0  0  0  0  0
    9.5920  -15.3168   28.2284 C   0  0  0  0  0  0  0  0  0  0  0  0
    9.5854  -16.4868   28.9646 O   0  0  0  0  0  0  0  0  0  0  0  0
   10.0311  -14.2963   28.8651 O   0  0  0  0  0  0  0  0  0  0  0  0
  2  1  1  6
  2  3  1  0
  3  4  1  0
  4  8  1  0
  5  4  2  0
  6  2  1  0
  7  6  2  0
  9  6  1  0
 10 14  1  0
 10  9  1  0
 11 12  1  0
 10 11  1  1
 12 13  2  0
 14 23  1  0
 15 14  2  0
 16 12  1  0
 18 19  2  0
 18 17  1  0
 20 18  1  0
 21 20  1  0
 22 21  1  1
 22 24  1  0
 23 22  1  0
 24 26  2  0
 24 25  1  0
M  END
$$$$
