DDQ.pdb
     RDKit          3D

 26 25  0  0  1  0  0  0  0  0999 V2000
   11.0271  -19.9054   17.4065 N   0  0  0  0  0  0  0  0  0  0  0  0
   11.5109  -18.5774   17.6396 C   0  0  1  0  0  0  0  0  0  0  0  0
   11.4855  -17.7075   16.4054 C   0  0  0  0  0  0  0  0  0  0  0  0
   12.4260  -18.3105   15.4204 C   0  0  0  0  0  0  0  0  0  0  0  0
   12.9406  -19.4279   15.6796 O   0  0  0  0  0  0  0  0  0  0  0  0
   10.8406  -17.9373   18.7944 C   0  0  0  0  0  0  0  0  0  0  0  0
   11.3617  -16.8858   19.2568 O   0  0  0  0  0  0  0  0  0  0  0  0
   12.7659  -17.7010   14.2258 O   0  0  0  0  0  0  0  0  0  0  0  0
    9.6720  -18.4251   19.3996 N   0  0  0  0  0  0  0  0  0  0  0  0
    9.1782  -17.8287   20.6565 C   0  0  1  0  0  0  0  0  0  0  0  0
    7.8185  -18.4129   20.9730 C   0  0  0  0  0  0  0  0  0  0  0  0
    6.9742  -18.4667   19.7824 C   0  0  0  0  0  0  0  0  0  0  0  0
    7.0562  -17.5798   18.9116 O   0  0  0  0  0  0  0  0  0  0  0  0
   10.1575  -18.0185   21.7377 C   0  0  0  0  0  0  0  0  0  0  0  0
   10.9194  -19.0138   21.7735 O   0  0  0  0  0  0  0  0  0  0  0  0
    6.0795  -19.5282   19.6445 O   0  0  0  0  0  0  0  0  0  0  0  0
   14.7921  -15.4464   21.9562 N   0  0  0  0  0  0  0  0  0  0  0  0
   14.9859  -15.9508   23.2822 C   0  0  0  0  0  0  0  0  0  0  0  0
   16.0643  -15.8850   23.8954 O   0  0  0  0  0  0  0  0  0  0  0  0
   13.8194  -16.5944   23.9674 C   0  0  0  0  0  0  0  0  0  0  0  0
   12.6113  -16.4622   23.0867 C   0  0  0  0  0  0  0  0  0  0  0  0
   11.4253  -17.0912   23.7337 C   0  0  2  0  0  0  0  0  0  0  0  0
   10.2939  -17.0834   22.8017 N   0  0  0  0  0  0  0  0  0  0  0  0
   11.0546  -16.5556   25.0393 C   0  0  0  0  0  0  0  0  0  0  0  0
   11.7309  -16.8002   26.2197 O   0  0  0  0  0  0  0  0  0  0  0  0
   10.0323  -15.7950   25.1657 O   0  0  0  0  0  0  0  0  0  0  0  0
  2  1  1  6
  2  3  1  0
  3  4  1  0
  4  8  1  0
  5  4  2  0
  6  2  1  0
  7  6  2  0
  9  6  1  0
 10 14  1  0
 10  9  1  0
 11 12  1  0
 10 11  1  1
 12 13  2  0
 14 23  1  0
 15 14  2  0
 16 12  1  0
 18 19  2  0
 18 17  1  0
 20 18  1  0
 21 20  1  0
 22 21  1  6
 22 24  1  0
 23 22  1  0
 24 26  2  0
 24 25  1  0
M  END
$$$$
