DDQ.pdb
     RDKit          3D

 26 25  0  0  1  0  0  0  0  0999 V2000
    7.5509  -19.4075   21.2176 N   0  0  0  0  0  0  0  0  0  0  0  0
    8.6034  -18.5787   20.7102 C   0  0  1  0  0  0  0  0  0  0  0  0
    8.1034  -17.3137   20.0541 C   0  0  0  0  0  0  0  0  0  0  0  0
    8.0953  -17.5520   18.5839 C   0  0  0  0  0  0  0  0  0  0  0  0
    8.6008  -18.6138   18.1392 O   0  0  0  0  0  0  0  0  0  0  0  0
    9.6411  -18.3116   21.7320 C   0  0  0  0  0  0  0  0  0  0  0  0
    9.9002  -19.2362   22.5500 O   0  0  0  0  0  0  0  0  0  0  0  0
    7.5564  -16.6595   17.6743 O   0  0  0  0  0  0  0  0  0  0  0  0
   10.3470  -17.1038   21.8444 N   0  0  0  0  0  0  0  0  0  0  0  0
   11.5972  -17.0405   22.6268 C   0  0  1  0  0  0  0  0  0  0  0  0
   12.5845  -16.1540   21.8990 C   0  0  0  0  0  0  0  0  0  0  0  0
   13.8873  -16.1577   22.5593 C   0  0  0  0  0  0  0  0  0  0  0  0
   14.5743  -17.1962   22.5911 O   0  0  0  0  0  0  0  0  0  0  0  0
   11.3235  -16.5971   24.0025 C   0  0  0  0  0  0  0  0  0  0  0  0
   12.2464  -16.3680   24.8200 O   0  0  0  0  0  0  0  0  0  0  0  0
   14.3411  -14.9780   23.1497 O   0  0  0  0  0  0  0  0  0  0  0  0
    6.5748  -12.4296   24.4730 N   0  0  0  0  0  0  0  0  0  0  0  0
    6.7995  -13.7204   25.0506 C   0  0  0  0  0  0  0  0  0  0  0  0
    5.9369  -14.3547   25.6807 O   0  0  0  0  0  0  0  0  0  0  0  0
    8.1534  -14.3396   24.8841 C   0  0  0  0  0  0  0  0  0  0  0  0
    8.3178  -15.4205   25.9124 C   0  0  0  0  0  0  0  0  0  0  0  0
    9.6942  -15.9887   25.8536 C   0  0  2  0  0  0  0  0  0  0  0  0
    9.9973  -16.4042   24.4809 N   0  0  0  0  0  0  0  0  0  0  0  0
    9.9876  -17.0454   26.8160 C   0  0  0  0  0  0  0  0  0  0  0  0
    9.0423  -17.8446   27.4313 O   0  0  0  0  0  0  0  0  0  0  0  0
   11.1951  -17.2987   27.1585 O   0  0  0  0  0  0  0  0  0  0  0  0
  2  1  1  1
  2  3  1  0
  3  4  1  0
  4  8  1  0
  5  4  2  0
  6  2  1  0
  7  6  2  0
  9  6  1  0
 10 14  1  0
 10  9  1  0
 11 12  1  0
 10 11  1  6
 12 13  2  0
 14 23  1  0
 15 14  2  0
 16 12  1  0
 18 19  2  0
 18 17  1  0
 20 18  1  0
 21 20  1  0
 22 21  1  6
 22 24  1  0
 23 22  1  0
 24 26  2  0
 24 25  1  0
M  END
$$$$
