DDQ.pdb
     RDKit          3D

 26 25  0  0  1  0  0  0  0  0999 V2000
   10.8218  -18.5155   20.5555 N   0  0  0  0  0  0  0  0  0  0  0  0
    9.8474  -17.5433   20.9522 C   0  0  1  0  0  0  0  0  0  0  0  0
    8.5111  -17.7257   20.2728 C   0  0  0  0  0  0  0  0  0  0  0  0
    8.7473  -17.6452   18.8044 C   0  0  0  0  0  0  0  0  0  0  0  0
    9.9265  -17.5217   18.3862 O   0  0  0  0  0  0  0  0  0  0  0  0
    9.7232  -17.4509   22.4248 C   0  0  0  0  0  0  0  0  0  0  0  0
    8.6837  -16.9048   22.8853 O   0  0  0  0  0  0  0  0  0  0  0  0
    7.7294  -17.6995   17.8689 O   0  0  0  0  0  0  0  0  0  0  0  0
   10.6829  -17.9295   23.3303 N   0  0  0  0  0  0  0  0  0  0  0  0
   10.4020  -17.9382   24.7794 C   0  0  1  0  0  0  0  0  0  0  0  0
   11.3510  -18.9043   25.4550 C   0  0  0  0  0  0  0  0  0  0  0  0
   11.1344  -18.9378   26.8991 C   0  0  0  0  0  0  0  0  0  0  0  0
   11.9025  -18.3260   27.6655 O   0  0  0  0  0  0  0  0  0  0  0  0
   10.4740  -16.5750   25.3275 C   0  0  0  0  0  0  0  0  0  0  0  0
   11.3958  -15.7841   25.0158 O   0  0  0  0  0  0  0  0  0  0  0  0
   10.0539  -19.6666   27.3965 O   0  0  0  0  0  0  0  0  0  0  0  0
    5.8449  -12.8806   26.4238 N   0  0  0  0  0  0  0  0  0  0  0  0
    6.8682  -12.0794   27.0246 C   0  0  0  0  0  0  0  0  0  0  0  0
    6.6947  -10.9101   27.4068 O   0  0  0  0  0  0  0  0  0  0  0  0
    8.2255  -12.6884   27.2015 C   0  0  0  0  0  0  0  0  0  0  0  0
    8.2045  -14.0809   26.6419 C   0  0  0  0  0  0  0  0  0  0  0  0
    9.5414  -14.7218   26.7929 C   0  0  2  0  0  0  0  0  0  0  0  0
    9.5020  -16.0792   26.2411 N   0  0  0  0  0  0  0  0  0  0  0  0
   10.1086  -14.7004   28.1370 C   0  0  0  0  0  0  0  0  0  0  0  0
   10.6237  -13.5815   28.7644 O   0  0  0  0  0  0  0  0  0  0  0  0
   10.1628  -15.7698   28.8391 O   0  0  0  0  0  0  0  0  0  0  0  0
  2  1  1  1
  2  3  1  0
  3  4  1  0
  4  8  1  0
  5  4  2  0
  6  2  1  0
  7  6  2  0
  9  6  1  0
 10 14  1  0
 10  9  1  0
 11 12  1  0
 10 11  1  1
 12 13  2  0
 14 23  1  0
 15 14  2  0
 16 12  1  0
 18 19  2  0
 18 17  1  0
 20 18  1  0
 21 20  1  0
 22 21  1  1
 22 24  1  0
 23 22  1  0
 24 26  2  0
 24 25  1  0
M  END
$$$$
