DDQ.pdb
     RDKit          3D

 26 25  0  0  1  0  0  0  0  0999 V2000
   15.0628  -14.9461   19.8205 N   0  0  0  0  0  0  0  0  0  0  0  0
   13.8230  -14.4966   19.2611 C   0  0  1  0  0  0  0  0  0  0  0  0
   13.7580  -14.6424   17.7594 C   0  0  0  0  0  0  0  0  0  0  0  0
   15.1529  -14.5488   17.2456 C   0  0  0  0  0  0  0  0  0  0  0  0
   15.5417  -15.3861   16.3921 O   0  0  0  0  0  0  0  0  0  0  0  0
   12.6555  -15.1061   19.9378 C   0  0  0  0  0  0  0  0  0  0  0  0
   11.6017  -15.2479   19.2594 O   0  0  0  0  0  0  0  0  0  0  0  0
   16.0504  -13.5814   17.6613 O   0  0  0  0  0  0  0  0  0  0  0  0
   12.6506  -15.5314   21.2753 N   0  0  0  0  0  0  0  0  0  0  0  0
   11.4508  -16.1708   21.8504 C   0  0  1  0  0  0  0  0  0  0  0  0
   11.1155  -17.4016   21.0361 C   0  0  0  0  0  0  0  0  0  0  0  0
    9.9154  -18.0619   21.5430 C   0  0  0  0  0  0  0  0  0  0  0  0
    9.5531  -17.8911   22.7224 O   0  0  0  0  0  0  0  0  0  0  0  0
   11.6529  -16.4572   23.2791 C   0  0  0  0  0  0  0  0  0  0  0  0
   12.5837  -17.1952   23.6809 O   0  0  0  0  0  0  0  0  0  0  0  0
    9.1892  -18.8834   20.6803 O   0  0  0  0  0  0  0  0  0  0  0  0
    8.7898  -13.2572   27.8249 N   0  0  0  0  0  0  0  0  0  0  0  0
    9.8146  -13.9043   28.5874 C   0  0  0  0  0  0  0  0  0  0  0  0
   10.0072  -13.7013   29.7978 O   0  0  0  0  0  0  0  0  0  0  0  0
   10.7043  -14.8821   27.8827 C   0  0  0  0  0  0  0  0  0  0  0  0
   10.2935  -14.9540   26.4410 C   0  0  0  0  0  0  0  0  0  0  0  0
   11.1278  -15.9506   25.7120 C   0  0  2  0  0  0  0  0  0  0  0  0
   10.8036  -15.9130   24.2829 N   0  0  0  0  0  0  0  0  0  0  0  0
   11.0980  -17.3112   26.2380 C   0  0  0  0  0  0  0  0  0  0  0  0
   10.2951  -18.3302   25.7607 O   0  0  0  0  0  0  0  0  0  0  0  0
   11.8499  -17.6480   27.2182 O   0  0  0  0  0  0  0  0  0  0  0  0
  2  1  1  1
  2  3  1  0
  3  4  1  0
  4  8  1  0
  5  4  2  0
  6  2  1  0
  7  6  2  0
  9  6  1  0
 10 14  1  0
 10  9  1  0
 11 12  1  0
 10 11  1  6
 12 13  2  0
 14 23  1  0
 15 14  2  0
 16 12  1  0
 18 19  2  0
 18 17  1  0
 20 18  1  0
 21 20  1  0
 22 21  1  1
 22 24  1  0
 23 22  1  0
 24 26  2  0
 24 25  1  0
M  END
$$$$
