KPS.pdb
     RDKit          3D

 23 23  0  0  1  0  0  0  0  0999 V2000
   21.4543  -13.8677  -15.9335 N   0  0  0  0  0  0  0  0  0  0  0  0
   22.2171  -12.9607  -16.6701 C   0  0  1  0  0  0  0  0  0  0  0  0
   21.7546  -12.6811  -18.0673 C   0  0  0  0  0  0  0  0  0  0  0  0
   20.2848  -12.7200  -18.2683 C   0  0  0  0  0  0  0  0  0  0  0  0
   19.8591  -12.4214  -19.6881 C   0  0  0  0  0  0  0  0  0  0  0  0
   18.3546  -12.4795  -19.8423 C   0  0  0  0  0  0  0  0  0  0  0  0
   17.9138  -12.2636  -21.1888 N   0  0  0  0  0  0  0  0  0  0  0  0
   22.3839  -11.6702  -15.9603 C   0  0  0  0  0  0  0  0  0  0  0  0
   21.2748  -11.1207  -15.5995 O   0  0  0  0  0  0  0  0  0  0  0  0
   23.5788  -11.0060  -15.6487 N   0  0  0  0  0  0  0  0  0  0  0  0
   24.8428  -11.6276  -15.1656 C   0  0  0  0  0  0  0  0  0  0  0  0
   25.8664  -10.9041  -16.0508 C   0  0  0  0  0  0  0  0  0  0  0  0
   25.1204   -9.7058  -16.6612 C   0  0  0  0  0  0  0  0  0  0  0  0
   23.9710   -9.6269  -15.6645 C   0  0  1  0  0  0  0  0  0  0  0  0
   23.0236   -8.5768  -15.8693 C   0  0  0  0  0  0  0  0  0  0  0  0
   22.3567   -8.4421  -16.9084 O   0  0  0  0  0  0  0  0  0  0  0  0
   21.5457   -6.4223  -12.7035 O   0  0  0  0  0  0  0  0  0  0  0  0
   20.8640   -6.4591  -13.9192 C   0  0  0  0  0  0  0  0  0  0  0  0
   21.8417   -6.4887  -15.0947 C   0  0  2  0  0  0  0  0  0  0  0  0
   22.7499   -7.5570  -14.8695 N   0  0  0  0  0  0  0  0  0  0  0  0
   22.5034   -5.1519  -15.1058 C   0  0  0  0  0  0  0  0  0  0  0  0
   23.8477   -5.1204  -14.7582 O   0  0  0  0  0  0  0  0  0  0  0  0
   21.9184   -4.1016  -15.4038 O   0  0  0  0  0  0  0  0  0  0  0  0
  2  1  1  1
  2  8  1  0
  3  2  1  0
  4  3  1  0
  5  4  1  0
  6  5  1  0
  7  6  1  0
  8 10  1  0
  8  9  2  0
 10 11  1  0
 12 11  1  0
 13 14  1  0
 13 12  1  0
 14 10  1  0
 14 15  1  6
 16 15  2  0
 17 18  1  0
 19 18  1  1
 19 21  1  0
 19 20  1  0
 20 15  1  0
 21 22  1  0
 23 21  2  0
M  END
$$$$
