KPS.pdb
     RDKit          3D

 23 23  0  0  1  0  0  0  0  0999 V2000
   19.5532  -12.4257  -16.2430 N   0  0  0  0  0  0  0  0  0  0  0  0
   18.8712  -11.2459  -16.5434 C   0  0  1  0  0  0  0  0  0  0  0  0
   17.5465  -11.0522  -15.8711 C   0  0  0  0  0  0  0  0  0  0  0  0
   16.5133  -12.0647  -16.2021 C   0  0  0  0  0  0  0  0  0  0  0  0
   15.9115  -12.7358  -14.9882 C   0  0  0  0  0  0  0  0  0  0  0  0
   14.8428  -13.7347  -15.3767 C   0  0  0  0  0  0  0  0  0  0  0  0
   14.3108  -14.4590  -14.2602 N   0  0  0  0  0  0  0  0  0  0  0  0
   19.7050  -10.0450  -16.2995 C   0  0  0  0  0  0  0  0  0  0  0  0
   19.9625   -9.8267  -15.0553 O   0  0  0  0  0  0  0  0  0  0  0  0
   20.2272   -9.1516  -17.2457 N   0  0  0  0  0  0  0  0  0  0  0  0
   20.7798   -9.4959  -18.5849 C   0  0  0  0  0  0  0  0  0  0  0  0
   20.1081   -8.4208  -19.4496 C   0  0  0  0  0  0  0  0  0  0  0  0
   19.5560   -7.3758  -18.4656 C   0  0  0  0  0  0  0  0  0  0  0  0
   20.4147   -7.7301  -17.2583 C   0  0  1  0  0  0  0  0  0  0  0  0
   20.2224   -6.9347  -16.0866 C   0  0  0  0  0  0  0  0  0  0  0  0
   19.1276   -6.8012  -15.5153 O   0  0  0  0  0  0  0  0  0  0  0  0
   23.4132   -4.7290  -14.5216 O   0  0  0  0  0  0  0  0  0  0  0  0
   22.4420   -5.1757  -13.6265 C   0  0  0  0  0  0  0  0  0  0  0  0
   21.0938   -5.3548  -14.3255 C   0  0  2  0  0  0  0  0  0  0  0  0
   21.3022   -6.1994  -15.4480 N   0  0  0  0  0  0  0  0  0  0  0  0
   20.6466   -3.9824  -14.7020 C   0  0  0  0  0  0  0  0  0  0  0  0
   20.1714   -3.1790  -13.6735 O   0  0  0  0  0  0  0  0  0  0  0  0
   20.6816   -3.5452  -15.8604 O   0  0  0  0  0  0  0  0  0  0  0  0
  2  1  1  1
  2  8  1  0
  3  2  1  0
  4  3  1  0
  5  4  1  0
  6  5  1  0
  7  6  1  0
  8 10  1  0
  8  9  2  0
 10 11  1  0
 12 11  1  0
 13 14  1  0
 13 12  1  0
 14 10  1  0
 14 15  1  1
 16 15  2  0
 17 18  1  0
 19 18  1  6
 19 21  1  0
 19 20  1  0
 20 15  1  0
 21 22  1  0
 23 21  2  0
M  END
$$$$
