KPS.pdb
     RDKit          3D

 23 23  0  0  1  0  0  0  0  0999 V2000
   20.8322  -15.9320  -15.9623 N   0  0  0  0  0  0  0  0  0  0  0  0
   21.4146  -14.8266  -16.5835 C   0  0  1  0  0  0  0  0  0  0  0  0
   20.8416  -14.4284  -17.9092 C   0  0  0  0  0  0  0  0  0  0  0  0
   20.6109  -15.5434  -18.8609 C   0  0  0  0  0  0  0  0  0  0  0  0
   19.2525  -16.1915  -18.7175 C   0  0  0  0  0  0  0  0  0  0  0  0
   19.0309  -17.2585  -19.7678 C   0  0  0  0  0  0  0  0  0  0  0  0
   17.8382  -18.0243  -19.5554 N   0  0  0  0  0  0  0  0  0  0  0  0
   21.4306  -13.6372  -15.6991 C   0  0  0  0  0  0  0  0  0  0  0  0
   20.2640  -13.2659  -15.2950 O   0  0  0  0  0  0  0  0  0  0  0  0
   22.5417  -12.8981  -15.2686 N   0  0  0  0  0  0  0  0  0  0  0  0
   23.8144  -13.4426  -14.7197 C   0  0  0  0  0  0  0  0  0  0  0  0
   24.8363  -12.5972  -15.4916 C   0  0  0  0  0  0  0  0  0  0  0  0
   24.0404  -11.4315  -16.1022 C   0  0  0  0  0  0  0  0  0  0  0  0
   22.8199  -11.4935  -15.1928 C   0  0  1  0  0  0  0  0  0  0  0  0
   21.8069  -10.5117  -15.4213 C   0  0  0  0  0  0  0  0  0  0  0  0
   21.2054  -10.3791  -16.4999 O   0  0  0  0  0  0  0  0  0  0  0  0
   18.7072   -7.2923  -13.5287 O   0  0  0  0  0  0  0  0  0  0  0  0
   19.6411   -8.3150  -13.3679 C   0  0  0  0  0  0  0  0  0  0  0  0
   20.4335   -8.5406  -14.6562 C   0  0  2  0  0  0  0  0  0  0  0  0
   21.3822   -9.5663  -14.4015 N   0  0  0  0  0  0  0  0  0  0  0  0
   21.0646   -7.2282  -14.9795 C   0  0  0  0  0  0  0  0  0  0  0  0
   22.4159   -7.0989  -14.6860 O   0  0  0  0  0  0  0  0  0  0  0  0
   20.4492   -6.2790  -15.4838 O   0  0  0  0  0  0  0  0  0  0  0  0
  2  1  1  1
  2  8  1  0
  3  2  1  0
  4  3  1  0
  5  4  1  0
  6  5  1  0
  7  6  1  0
  8 10  1  0
  8  9  2  0
 10 11  1  0
 12 11  1  0
 13 14  1  0
 13 12  1  0
 14 10  1  0
 14 15  1  6
 16 15  2  0
 17 18  1  0
 19 18  1  1
 19 21  1  0
 19 20  1  0
 20 15  1  0
 21 22  1  0
 23 21  2  0
M  END
$$$$
