KPS.pdb
     RDKit          3D

 23 23  0  0  1  0  0  0  0  0999 V2000
   23.0659  -13.7266  -16.5965 N   0  0  0  0  0  0  0  0  0  0  0  0
   23.0331  -12.4855  -17.2334 C   0  0  1  0  0  0  0  0  0  0  0  0
   21.9420  -12.2813  -18.2394 C   0  0  0  0  0  0  0  0  0  0  0  0
   21.7430  -13.3994  -19.1948 C   0  0  0  0  0  0  0  0  0  0  0  0
   20.7441  -14.4308  -18.7211 C   0  0  0  0  0  0  0  0  0  0  0  0
   20.5635  -15.5385  -19.7365 C   0  0  0  0  0  0  0  0  0  0  0  0
   19.8345  -16.6621  -19.2264 N   0  0  0  0  0  0  0  0  0  0  0  0
   22.9980  -11.3647  -16.2641 C   0  0  0  0  0  0  0  0  0  0  0  0
   21.8096  -10.9625  -15.9672 O   0  0  0  0  0  0  0  0  0  0  0  0
   24.0826  -10.7176  -15.6550 N   0  0  0  0  0  0  0  0  0  0  0  0
   25.2521  -11.3659  -14.9997 C   0  0  0  0  0  0  0  0  0  0  0  0
   26.3990  -10.5309  -15.5848 C   0  0  0  0  0  0  0  0  0  0  0  0
   25.7392   -9.2861  -16.2015 C   0  0  0  0  0  0  0  0  0  0  0  0
   24.4159   -9.3384  -15.4486 C   0  0  1  0  0  0  0  0  0  0  0  0
   23.4858   -8.2892  -15.7252 C   0  0  0  0  0  0  0  0  0  0  0  0
   23.0717   -8.0168  -16.8641 O   0  0  0  0  0  0  0  0  0  0  0  0
   19.9089   -5.4771  -14.3419 O   0  0  0  0  0  0  0  0  0  0  0  0
   20.8160   -6.5103  -14.1104 C   0  0  0  0  0  0  0  0  0  0  0  0
   22.0666   -6.3451  -14.9748 C   0  0  2  0  0  0  0  0  0  0  0  0
   22.9325   -7.4335  -14.6879 N   0  0  0  0  0  0  0  0  0  0  0  0
   22.6467   -5.0227  -14.6005 C   0  0  0  0  0  0  0  0  0  0  0  0
   23.7520   -5.0440  -13.7598 O   0  0  0  0  0  0  0  0  0  0  0  0
   22.1948   -3.9402  -14.9981 O   0  0  0  0  0  0  0  0  0  0  0  0
  2  1  1  1
  2  8  1  0
  3  2  1  0
  4  3  1  0
  5  4  1  0
  6  5  1  0
  7  6  1  0
  8 10  1  0
  8  9  2  0
 10 11  1  0
 12 11  1  0
 13 14  1  0
 13 12  1  0
 14 10  1  0
 14 15  1  6
 16 15  2  0
 17 18  1  0
 19 18  1  1
 19 21  1  0
 19 20  1  0
 20 15  1  0
 21 22  1  0
 23 21  2  0
M  END
$$$$
