KPS.pdb
     RDKit          3D

 23 23  0  0  1  0  0  0  0  0999 V2000
   24.5676  -15.8000  -18.0311 N   0  0  0  0  0  0  0  0  0  0  0  0
   25.1451  -14.5433  -18.2161 C   0  0  1  0  0  0  0  0  0  0  0  0
   25.0949  -13.9848  -19.6054 C   0  0  0  0  0  0  0  0  0  0  0  0
   24.0345  -14.5483  -20.4774 C   0  0  0  0  0  0  0  0  0  0  0  0
   23.9676  -13.9043  -21.8437 C   0  0  0  0  0  0  0  0  0  0  0  0
   22.9017  -14.5422  -22.7084 C   0  0  0  0  0  0  0  0  0  0  0  0
   23.1121  -15.9430  -22.9270 N   0  0  0  0  0  0  0  0  0  0  0  0
   24.5919  -13.5349  -17.2812 C   0  0  0  0  0  0  0  0  0  0  0  0
   23.3204  -13.3544  -17.3935 O   0  0  0  0  0  0  0  0  0  0  0  0
   25.2805  -12.7824  -16.3191 N   0  0  0  0  0  0  0  0  0  0  0  0
   26.3681  -13.2643  -15.4232 C   0  0  0  0  0  0  0  0  0  0  0  0
   27.3733  -12.1128  -15.5592 C   0  0  0  0  0  0  0  0  0  0  0  0
   26.5981  -10.9538  -16.2079 C   0  0  0  0  0  0  0  0  0  0  0  0
   25.1850  -11.4200  -15.8822 C   0  0  1  0  0  0  0  0  0  0  0  0
   24.1206  -10.5659  -16.3064 C   0  0  0  0  0  0  0  0  0  0  0  0
   23.9900  -10.1523  -17.4703 O   0  0  0  0  0  0  0  0  0  0  0  0
   20.3804  -10.7537  -15.0030 O   0  0  0  0  0  0  0  0  0  0  0  0
   20.8481   -9.4443  -14.8998 C   0  0  0  0  0  0  0  0  0  0  0  0
   22.0466   -9.2166  -15.8218 C   0  0  2  0  0  0  0  0  0  0  0  0
   23.0808  -10.0962  -15.4051 N   0  0  0  0  0  0  0  0  0  0  0  0
   22.4074   -7.7772  -15.6700 C   0  0  0  0  0  0  0  0  0  0  0  0
   21.4980   -6.8523  -16.1667 O   0  0  0  0  0  0  0  0  0  0  0  0
   23.4541   -7.3870  -15.1348 O   0  0  0  0  0  0  0  0  0  0  0  0
  2  1  1  6
  2  8  1  0
  3  2  1  0
  4  3  1  0
  5  4  1  0
  6  5  1  0
  7  6  1  0
  8 10  1  0
  8  9  2  0
 10 11  1  0
 12 11  1  0
 13 14  1  0
 13 12  1  0
 14 10  1  0
 14 15  1  6
 16 15  2  0
 17 18  1  0
 19 18  1  1
 19 21  1  0
 19 20  1  0
 20 15  1  0
 21 22  1  0
 23 21  2  0
M  END
$$$$
