KPS.pdb
     RDKit          3D

 23 23  0  0  1  0  0  0  0  0999 V2000
   23.7072  -20.1601  -15.4663 N   0  0  0  0  0  0  0  0  0  0  0  0
   23.8960  -19.1366  -16.3958 C   0  0  1  0  0  0  0  0  0  0  0  0
   23.3060  -19.3540  -17.7555 C   0  0  0  0  0  0  0  0  0  0  0  0
   24.1434  -20.1451  -18.6910 C   0  0  0  0  0  0  0  0  0  0  0  0
   23.5536  -20.2665  -20.0779 C   0  0  0  0  0  0  0  0  0  0  0  0
   24.4008  -21.1501  -20.9679 C   0  0  0  0  0  0  0  0  0  0  0  0
   24.5791  -20.6210  -22.2879 N   0  0  0  0  0  0  0  0  0  0  0  0
   23.4292  -17.8269  -15.8820 C   0  0  0  0  0  0  0  0  0  0  0  0
   22.1483  -17.6815  -15.8975 O   0  0  0  0  0  0  0  0  0  0  0  0
   24.2058  -16.7653  -15.3961 N   0  0  0  0  0  0  0  0  0  0  0  0
   25.3120  -16.8533  -14.4031 C   0  0  0  0  0  0  0  0  0  0  0  0
   26.3677  -15.9701  -15.0814 C   0  0  0  0  0  0  0  0  0  0  0  0
   25.6216  -15.1917  -16.1779 C   0  0  0  0  0  0  0  0  0  0  0  0
   24.2049  -15.3526  -15.6416 C   0  0  1  0  0  0  0  0  0  0  0  0
   23.1661  -14.7191  -16.3913 C   0  0  0  0  0  0  0  0  0  0  0  0
   22.8850  -15.0125  -17.5650 O   0  0  0  0  0  0  0  0  0  0  0  0
   19.6672  -13.4551  -14.9762 O   0  0  0  0  0  0  0  0  0  0  0  0
   20.3094  -12.4216  -15.6570 C   0  0  0  0  0  0  0  0  0  0  0  0
   21.3632  -12.9714  -16.6192 C   0  0  2  0  0  0  0  0  0  0  0  0
   22.3332  -13.6604  -15.8438 N   0  0  0  0  0  0  0  0  0  0  0  0
   21.9201  -11.7851  -17.3318 C   0  0  0  0  0  0  0  0  0  0  0  0
   21.0706  -11.1375  -18.2194 O   0  0  0  0  0  0  0  0  0  0  0  0
   23.0749  -11.3684  -17.1676 O   0  0  0  0  0  0  0  0  0  0  0  0
  2  1  1  1
  2  8  1  0
  3  2  1  0
  4  3  1  0
  5  4  1  0
  6  5  1  0
  7  6  1  0
  8 10  1  0
  8  9  2  0
 10 11  1  0
 12 11  1  0
 13 14  1  0
 13 12  1  0
 14 10  1  0
 14 15  1  6
 16 15  2  0
 17 18  1  0
 19 18  1  1
 19 21  1  0
 19 20  1  0
 20 15  1  0
 21 22  1  0
 23 21  2  0
M  END
$$$$
