KPS.pdb
     RDKit          3D

 23 23  0  0  1  0  0  0  0  0999 V2000
   15.2226  -22.5639   -0.9256 N   0  0  0  0  0  0  0  0  0  0  0  0
   14.2122  -21.6583   -0.5999 C   0  0  1  0  0  0  0  0  0  0  0  0
   12.8054  -22.1164   -0.8353 C   0  0  0  0  0  0  0  0  0  0  0  0
   12.6639  -23.5218   -1.2902 C   0  0  0  0  0  0  0  0  0  0  0  0
   12.9996  -24.5405   -0.2246 C   0  0  0  0  0  0  0  0  0  0  0  0
   12.8758  -25.9553   -0.7480 C   0  0  0  0  0  0  0  0  0  0  0  0
   13.2957  -26.9481    0.1965 N   0  0  0  0  0  0  0  0  0  0  0  0
   14.3255  -21.1792    0.7982 C   0  0  0  0  0  0  0  0  0  0  0  0
   13.3595  -20.4114    1.1715 O   0  0  0  0  0  0  0  0  0  0  0  0
   15.3364  -21.4632    1.7274 N   0  0  0  0  0  0  0  0  0  0  0  0
   16.3188  -22.5804    1.6604 C   0  0  0  0  0  0  0  0  0  0  0  0
   17.6130  -21.8367    2.0163 C   0  0  0  0  0  0  0  0  0  0  0  0
   17.1722  -20.4846    2.6016 C   0  0  0  0  0  0  0  0  0  0  0  0
   15.7386  -20.8533    2.9612 C   0  0  1  0  0  0  0  0  0  0  0  0
   14.9579  -19.8326    3.5863 C   0  0  0  0  0  0  0  0  0  0  0  0
   14.4749  -18.8634    2.9779 O   0  0  0  0  0  0  0  0  0  0  0  0
   13.0921  -18.1461    7.7936 O   0  0  0  0  0  0  0  0  0  0  0  0
   13.8467  -19.1110    7.1277 C   0  0  0  0  0  0  0  0  0  0  0  0
   14.0725  -18.7178    5.6672 C   0  0  2  0  0  0  0  0  0  0  0  0
   14.6536  -19.8334    5.0082 N   0  0  0  0  0  0  0  0  0  0  0  0
   14.9703  -17.5270    5.7019 C   0  0  0  0  0  0  0  0  0  0  0  0
   14.3616  -16.2852    5.5737 O   0  0  0  0  0  0  0  0  0  0  0  0
   16.1994  -17.6006    5.8364 O   0  0  0  0  0  0  0  0  0  0  0  0
  2  1  1  1
  2  8  1  0
  3  2  1  0
  4  3  1  0
  5  4  1  0
  6  5  1  0
  7  6  1  0
  8 10  1  0
  8  9  2  0
 10 11  1  0
 12 11  1  0
 13 14  1  0
 13 12  1  0
 14 10  1  0
 14 15  1  6
 16 15  2  0
 17 18  1  0
 19 18  1  1
 19 21  1  0
 19 20  1  0
 20 15  1  0
 21 22  1  0
 23 21  2  0
M  END
$$$$
