KPS.pdb
     RDKit          3D

 23 23  0  0  1  0  0  0  0  0999 V2000
   20.4218  -21.6544  -12.9864 N   0  0  0  0  0  0  0  0  0  0  0  0
   21.6548  -21.9076  -13.5887 C   0  0  1  0  0  0  0  0  0  0  0  0
   21.6374  -22.1472  -15.0675 C   0  0  0  0  0  0  0  0  0  0  0  0
   21.8984  -23.5468  -15.4862 C   0  0  0  0  0  0  0  0  0  0  0  0
   23.3345  -23.9792  -15.2942 C   0  0  0  0  0  0  0  0  0  0  0  0
   23.5467  -25.4139  -15.7268 C   0  0  0  0  0  0  0  0  0  0  0  0
   24.9029  -25.8547  -15.5838 N   0  0  0  0  0  0  0  0  0  0  0  0
   22.6455  -20.8454  -13.2937 C   0  0  0  0  0  0  0  0  0  0  0  0
   22.2303  -19.6522  -13.5506 O   0  0  0  0  0  0  0  0  0  0  0  0
   23.9421  -20.9944  -12.7812 N   0  0  0  0  0  0  0  0  0  0  0  0
   24.3561  -21.8655  -11.6466 C   0  0  0  0  0  0  0  0  0  0  0  0
   25.6161  -22.5132  -12.2364 C   0  0  0  0  0  0  0  0  0  0  0  0
   25.9805  -21.6728  -13.4717 C   0  0  0  0  0  0  0  0  0  0  0  0
   25.2069  -20.4090  -13.1185 C   0  0  1  0  0  0  0  0  0  0  0  0
   25.3117  -19.3216  -14.0399 C   0  0  0  0  0  0  0  0  0  0  0  0
   25.2506  -18.1266  -13.7067 O   0  0  0  0  0  0  0  0  0  0  0  0
   28.8512  -18.4795  -16.3560 O   0  0  0  0  0  0  0  0  0  0  0  0
   27.8402  -19.1060  -15.6285 C   0  0  0  0  0  0  0  0  0  0  0  0
   26.4650  -18.7903  -16.2180 C   0  0  2  0  0  0  0  0  0  0  0  0
   25.5010  -19.5153  -15.4685 N   0  0  0  0  0  0  0  0  0  0  0  0
   26.5303  -19.2109  -17.6477 C   0  0  0  0  0  0  0  0  0  0  0  0
   26.7336  -18.2047  -18.5833 O   0  0  0  0  0  0  0  0  0  0  0  0
   26.4139  -20.3861  -18.0211 O   0  0  0  0  0  0  0  0  0  0  0  0
  2  1  1  6
  2  8  1  0
  3  2  1  0
  4  3  1  0
  5  4  1  0
  6  5  1  0
  7  6  1  0
  8 10  1  0
  8  9  2  0
 10 11  1  0
 12 11  1  0
 13 14  1  0
 13 12  1  0
 14 10  1  0
 14 15  1  6
 16 15  2  0
 17 18  1  0
 19 18  1  1
 19 21  1  0
 19 20  1  0
 20 15  1  0
 21 22  1  0
 23 21  2  0
M  END
$$$$
