TSH.pdb
     RDKit          3D

 24 24  0  0  1  0  0  0  0  0999 V2000
   13.0495  -16.6599   11.8357 C   0  0  0  0  0  0  0  0  0  0  0  0
   12.9076  -15.2669   11.2714 C   0  0  1  0  0  0  0  0  0  0  0  0
   12.6996  -15.3626    9.9163 O   0  0  0  0  0  0  0  0  0  0  0  0
   11.7747  -14.5833   12.0002 C   0  0  2  0  0  0  0  0  0  0  0  0
   11.2968  -13.4271   11.2827 N   0  0  0  0  0  0  0  0  0  0  0  0
   12.1071  -14.2823   13.4057 C   0  0  0  0  0  0  0  0  0  0  0  0
   12.8424  -13.3178   13.6677 O   0  0  0  0  0  0  0  0  0  0  0  0
   10.9329  -16.9212   16.3546 O   0  0  0  0  0  0  0  0  0  0  0  0
   10.9315  -15.5878   16.7433 C   0  0  0  0  0  0  0  0  0  0  0  0
   11.8890  -14.8453   15.8488 C   0  0  2  0  0  0  0  0  0  0  0  0
   11.6047  -15.0697   14.4490 N   0  0  0  0  0  0  0  0  0  0  0  0
   13.3138  -15.1883   16.0894 C   0  0  0  0  0  0  0  0  0  0  0  0
   13.7628  -16.1772   15.3998 O   0  0  0  0  0  0  0  0  0  0  0  0
   14.1402  -14.5088   16.9911 N   0  0  0  0  0  0  0  0  0  0  0  0
   15.5426  -14.9435   17.1768 C   0  0  1  0  0  0  0  0  0  0  0  0
   16.3488  -13.7156   17.0275 C   0  0  0  0  0  0  0  0  0  0  0  0
   16.5570  -13.1631   15.6997 C   0  0  0  0  0  0  0  0  0  0  0  0
   16.4798  -13.6162   14.4255 C   0  0  0  0  0  0  0  0  0  0  0  0
   16.7471  -12.6346   13.5385 N   0  0  0  0  0  0  0  0  0  0  0  0
   16.9938  -11.5512   14.2846 C   0  0  0  0  0  0  0  0  0  0  0  0
   16.8887  -11.8325   15.5667 N   0  0  0  0  0  0  0  0  0  0  0  0
   15.6317  -15.5733   18.5200 C   0  0  0  0  0  0  0  0  0  0  0  0
   14.7290  -15.6954   19.3613 O   0  0  0  0  0  0  0  0  0  0  0  0
   16.8781  -16.0978   18.8983 O   0  0  0  0  0  0  0  0  0  0  0  0
  2  1  1  1
  2  3  1  0
  4  2  1  0
  4  5  1  6
  6 11  1  0
  6  4  1  0
  7  6  2  0
  8  9  1  0
 10  9  1  1
 10 11  1  0
 10 12  1  0
 12 14  1  0
 13 12  2  0
 14 15  1  0
 15 16  1  1
 15 22  1  0
 17 21  1  0
 17 16  1  0
 18 17  2  0
 19 18  1  0
 19 20  1  0
 20 21  2  0
 22 24  1  0
 23 22  2  0
M  END
$$$$
