TSH.pdb
     RDKit          3D

 24 24  0  0  1  0  0  0  0  0999 V2000
    7.4525  -18.2348   19.7669 C   0  0  0  0  0  0  0  0  0  0  0  0
    8.7780  -18.3113   19.0483 C   0  0  1  0  0  0  0  0  0  0  0  0
    8.5994  -19.0001   17.8725 O   0  0  0  0  0  0  0  0  0  0  0  0
    9.2767  -16.9005   18.8413 C   0  0  2  0  0  0  0  0  0  0  0  0
   10.3211  -16.8421   17.8485 N   0  0  0  0  0  0  0  0  0  0  0  0
    9.6583  -16.2449   20.1066 C   0  0  0  0  0  0  0  0  0  0  0  0
   10.8285  -16.3287   20.5107 O   0  0  0  0  0  0  0  0  0  0  0  0
    6.6993  -14.7071   22.5486 O   0  0  0  0  0  0  0  0  0  0  0  0
    7.8898  -13.9920   22.5722 C   0  0  0  0  0  0  0  0  0  0  0  0
    8.9944  -14.9205   22.1410 C   0  0  2  0  0  0  0  0  0  0  0  0
    8.7188  -15.5289   20.8586 N   0  0  0  0  0  0  0  0  0  0  0  0
    9.2714  -16.0067   23.1152 C   0  0  0  0  0  0  0  0  0  0  0  0
    8.5190  -17.0445   23.0066 O   0  0  0  0  0  0  0  0  0  0  0  0
   10.2694  -15.9436   24.0938 N   0  0  0  0  0  0  0  0  0  0  0  0
   10.4429  -17.0660   25.0427 C   0  0  1  0  0  0  0  0  0  0  0  0
   11.7659  -17.6387   24.7233 C   0  0  0  0  0  0  0  0  0  0  0  0
   11.9162  -18.4470   23.5251 C   0  0  0  0  0  0  0  0  0  0  0  0
   11.1278  -18.8219   22.4894 C   0  0  0  0  0  0  0  0  0  0  0  0
   11.8109  -19.5716   21.5988 N   0  0  0  0  0  0  0  0  0  0  0  0
   13.0497  -19.6593   22.0978 C   0  0  0  0  0  0  0  0  0  0  0  0
   13.1428  -19.0041   23.2362 N   0  0  0  0  0  0  0  0  0  0  0  0
   10.3365  -16.5014   26.4133 C   0  0  0  0  0  0  0  0  0  0  0  0
   10.4590  -17.1011   27.4917 O   0  0  0  0  0  0  0  0  0  0  0  0
   10.0654  -15.1277   26.5192 O   0  0  0  0  0  0  0  0  0  0  0  0
  2  1  1  6
  2  3  1  0
  4  2  1  0
  4  5  1  6
  6 11  1  0
  6  4  1  0
  7  6  2  0
  8  9  1  0
 10  9  1  1
 10 11  1  0
 10 12  1  0
 12 14  1  0
 13 12  2  0
 14 15  1  0
 15 16  1  1
 15 22  1  0
 17 21  1  0
 17 16  1  0
 18 17  2  0
 19 18  1  0
 19 20  1  0
 20 21  2  0
 22 24  1  0
 23 22  2  0
M  END
$$$$
