TSH.pdb
     RDKit          3D

 24 24  0  0  1  0  0  0  0  0999 V2000
   12.6428  -18.1379   15.4896 C   0  0  0  0  0  0  0  0  0  0  0  0
   12.9573  -17.1091   14.4305 C   0  0  1  0  0  0  0  0  0  0  0  0
   12.8016  -17.6908   13.1952 O   0  0  0  0  0  0  0  0  0  0  0  0
   12.0465  -15.9238   14.6488 C   0  0  2  0  0  0  0  0  0  0  0  0
   12.0808  -15.0097   13.5339 N   0  0  0  0  0  0  0  0  0  0  0  0
   12.2908  -15.2539   15.9404 C   0  0  0  0  0  0  0  0  0  0  0  0
   13.2870  -14.5262   16.0736 O   0  0  0  0  0  0  0  0  0  0  0  0
    9.6032  -15.8537   18.9939 O   0  0  0  0  0  0  0  0  0  0  0  0
   10.2819  -14.6428   19.0404 C   0  0  0  0  0  0  0  0  0  0  0  0
   11.5919  -14.8201   18.3188 C   0  0  2  0  0  0  0  0  0  0  0  0
   11.4145  -15.4275   17.0187 N   0  0  0  0  0  0  0  0  0  0  0  0
   12.5809  -15.6307   19.0740 C   0  0  0  0  0  0  0  0  0  0  0  0
   12.8737  -16.7672   18.5472 O   0  0  0  0  0  0  0  0  0  0  0  0
   13.1738  -15.2222   20.2737 N   0  0  0  0  0  0  0  0  0  0  0  0
   13.9815  -16.1809   21.0603 C   0  0  1  0  0  0  0  0  0  0  0  0
   15.1655  -16.4630   20.2243 C   0  0  0  0  0  0  0  0  0  0  0  0
   15.6959  -15.4126   19.3716 C   0  0  0  0  0  0  0  0  0  0  0  0
   15.5852  -14.0650   19.2910 C   0  0  0  0  0  0  0  0  0  0  0  0
   16.3514  -13.5682   18.2972 N   0  0  0  0  0  0  0  0  0  0  0  0
   16.9489  -14.6354   17.7537 C   0  0  0  0  0  0  0  0  0  0  0  0
   16.5811  -15.7406   18.3680 N   0  0  0  0  0  0  0  0  0  0  0  0
   14.2921  -15.5296   22.3595 C   0  0  0  0  0  0  0  0  0  0  0  0
   13.9867  -14.3848   22.7255 O   0  0  0  0  0  0  0  0  0  0  0  0
   15.0164  -16.2847   23.2958 O   0  0  0  0  0  0  0  0  0  0  0  0
  2  1  1  1
  2  3  1  0
  4  2  1  0
  4  5  1  6
  6 11  1  0
  6  4  1  0
  7  6  2  0
  8  9  1  0
 10  9  1  1
 10 11  1  0
 10 12  1  0
 12 14  1  0
 13 12  2  0
 14 15  1  0
 15 16  1  6
 15 22  1  0
 17 21  1  0
 17 16  1  0
 18 17  2  0
 19 18  1  0
 19 20  1  0
 20 21  2  0
 22 24  1  0
 23 22  2  0
M  END
$$$$
