TSH.pdb
     RDKit          3D

 24 24  0  0  1  0  0  0  0  0999 V2000
   11.3976  -17.8463   13.8557 C   0  0  0  0  0  0  0  0  0  0  0  0
   10.9208  -17.6144   15.2692 C   0  0  1  0  0  0  0  0  0  0  0  0
   10.9524  -16.2646   15.5259 O   0  0  0  0  0  0  0  0  0  0  0  0
    9.5395  -18.2121   15.3977 C   0  0  2  0  0  0  0  0  0  0  0  0
    8.6476  -17.7244   14.3747 N   0  0  0  0  0  0  0  0  0  0  0  0
    8.9828  -18.0614   16.7557 C   0  0  0  0  0  0  0  0  0  0  0  0
    8.1190  -17.1969   16.9706 O   0  0  0  0  0  0  0  0  0  0  0  0
   10.2673  -20.5855   19.8401 O   0  0  0  0  0  0  0  0  0  0  0  0
    8.9567  -20.1264   19.8610 C   0  0  0  0  0  0  0  0  0  0  0  0
    8.9239  -18.7921   19.1632 C   0  0  2  0  0  0  0  0  0  0  0  0
    9.4153  -18.8802   17.8062 N   0  0  0  0  0  0  0  0  0  0  0  0
    9.6974  -17.7360   19.8646 C   0  0  0  0  0  0  0  0  0  0  0  0
   10.8682  -17.5046   19.3843 O   0  0  0  0  0  0  0  0  0  0  0  0
    9.2216  -17.0219   20.9698 N   0  0  0  0  0  0  0  0  0  0  0  0
   10.0578  -15.9636   21.5789 C   0  0  1  0  0  0  0  0  0  0  0  0
    9.1530  -14.8094   21.7501 C   0  0  0  0  0  0  0  0  0  0  0  0
    8.7509  -14.0461   20.5808 C   0  0  0  0  0  0  0  0  0  0  0  0
    9.0283  -14.0635   19.2551 C   0  0  0  0  0  0  0  0  0  0  0  0
    8.3221  -13.1226   18.5935 N   0  0  0  0  0  0  0  0  0  0  0  0
    7.5918  -12.5121   19.5344 C   0  0  0  0  0  0  0  0  0  0  0  0
    7.8238  -13.0365   20.7198 N   0  0  0  0  0  0  0  0  0  0  0  0
   10.5983  -16.5101   22.8508 C   0  0  0  0  0  0  0  0  0  0  0  0
   10.2760  -17.5631   23.4210 O   0  0  0  0  0  0  0  0  0  0  0  0
   11.5926  -15.7587   23.4977 O   0  0  0  0  0  0  0  0  0  0  0  0
  2  1  1  6
  2  3  1  0
  4  2  1  0
  4  5  1  6
  6 11  1  0
  6  4  1  0
  7  6  2  0
  8  9  1  0
 10  9  1  1
 10 11  1  0
 10 12  1  0
 12 14  1  0
 13 12  2  0
 14 15  1  0
 15 16  1  1
 15 22  1  0
 17 21  1  0
 17 16  1  0
 18 17  2  0
 19 18  1  0
 19 20  1  0
 20 21  2  0
 22 24  1  0
 23 22  2  0
M  END
$$$$
