TSH.pdb
     RDKit          3D

 24 24  0  0  1  0  0  0  0  0999 V2000
   10.6013  -14.0913   17.1765 C   0  0  0  0  0  0  0  0  0  0  0  0
   10.1649  -14.4387   18.5794 C   0  0  1  0  0  0  0  0  0  0  0  0
   10.8596  -13.6473   19.4625 O   0  0  0  0  0  0  0  0  0  0  0  0
    8.6685  -14.2491   18.6610 C   0  0  2  0  0  0  0  0  0  0  0  0
    8.2852  -12.8872   18.3811 N   0  0  0  0  0  0  0  0  0  0  0  0
    8.1040  -14.7488   19.9292 C   0  0  0  0  0  0  0  0  0  0  0  0
    7.6749  -13.9417   20.7683 O   0  0  0  0  0  0  0  0  0  0  0  0
    8.3012  -18.8100   20.9010 O   0  0  0  0  0  0  0  0  0  0  0  0
    7.1056  -18.1587   21.1757 C   0  0  0  0  0  0  0  0  0  0  0  0
    7.4100  -16.6958   21.3648 C   0  0  2  0  0  0  0  0  0  0  0  0
    8.0454  -16.1215   20.1999 N   0  0  0  0  0  0  0  0  0  0  0  0
    8.2699  -16.4156   22.5428 C   0  0  0  0  0  0  0  0  0  0  0  0
    9.5017  -16.1608   22.2732 O   0  0  0  0  0  0  0  0  0  0  0  0
    7.8106  -16.4182   23.8644 N   0  0  0  0  0  0  0  0  0  0  0  0
    8.7115  -15.9915   24.9583 C   0  0  1  0  0  0  0  0  0  0  0  0
    7.8268  -15.3736   25.9662 C   0  0  0  0  0  0  0  0  0  0  0  0
    7.2758  -14.0536   25.7099 C   0  0  0  0  0  0  0  0  0  0  0  0
    7.3924  -13.1131   24.7421 C   0  0  0  0  0  0  0  0  0  0  0  0
    6.5977  -12.0510   24.9916 N   0  0  0  0  0  0  0  0  0  0  0  0
    5.9765  -12.3453   26.1400 C   0  0  0  0  0  0  0  0  0  0  0  0
    6.3569  -13.5234   26.5889 N   0  0  0  0  0  0  0  0  0  0  0  0
    9.4270  -17.2039   25.4346 C   0  0  0  0  0  0  0  0  0  0  0  0
    9.2126  -18.3836   25.1186 O   0  0  0  0  0  0  0  0  0  0  0  0
   10.4726  -17.0098   26.3515 O   0  0  0  0  0  0  0  0  0  0  0  0
  2  1  1  6
  2  3  1  0
  4  2  1  0
  4  5  1  1
  6 11  1  0
  6  4  1  0
  7  6  2  0
  8  9  1  0
 10  9  1  6
 10 11  1  0
 10 12  1  0
 12 14  1  0
 13 12  2  0
 14 15  1  0
 15 16  1  1
 15 22  1  0
 17 21  1  0
 17 16  1  0
 18 17  2  0
 19 18  1  0
 19 20  1  0
 20 21  2  0
 22 24  1  0
 23 22  2  0
M  END
$$$$
