TSH.pdb
     RDKit          3D

 24 24  0  0  1  0  0  0  0  0999 V2000
    6.7743  -12.8240   19.0545 C   0  0  0  0  0  0  0  0  0  0  0  0
    7.6793  -13.9625   18.6497 C   0  0  1  0  0  0  0  0  0  0  0  0
    7.3941  -14.3076   17.3503 O   0  0  0  0  0  0  0  0  0  0  0  0
    9.1080  -13.5129   18.8459 C   0  0  2  0  0  0  0  0  0  0  0  0
    9.8928  -13.6853   17.6483 N   0  0  0  0  0  0  0  0  0  0  0  0
    9.7363  -14.1284   20.0304 C   0  0  0  0  0  0  0  0  0  0  0  0
   10.5194  -15.0796   19.8831 O   0  0  0  0  0  0  0  0  0  0  0  0
    7.6126  -15.8616   23.5349 O   0  0  0  0  0  0  0  0  0  0  0  0
    7.7694  -15.0182   22.4426 C   0  0  0  0  0  0  0  0  0  0  0  0
    9.1843  -14.5024   22.4571 C   0  0  2  0  0  0  0  0  0  0  0  0
    9.4617  -13.6546   21.3192 N   0  0  0  0  0  0  0  0  0  0  0  0
   10.2081  -15.5778   22.4897 C   0  0  0  0  0  0  0  0  0  0  0  0
   10.0428  -16.5174   21.6267 O   0  0  0  0  0  0  0  0  0  0  0  0
   11.2885  -15.6022   23.3784 N   0  0  0  0  0  0  0  0  0  0  0  0
   12.1991  -16.7686   23.3994 C   0  0  1  0  0  0  0  0  0  0  0  0
   13.5103  -16.2407   22.9723 C   0  0  0  0  0  0  0  0  0  0  0  0
   13.7117  -15.8916   21.5762 C   0  0  0  0  0  0  0  0  0  0  0  0
   12.9420  -15.8108   20.4644 C   0  0  0  0  0  0  0  0  0  0  0  0
   13.6567  -15.3819   19.4029 N   0  0  0  0  0  0  0  0  0  0  0  0
   14.8957  -15.1932   19.8727 C   0  0  0  0  0  0  0  0  0  0  0  0
   14.9592  -15.4862   21.1550 N   0  0  0  0  0  0  0  0  0  0  0  0
   12.1809  -17.3137   24.7819 C   0  0  0  0  0  0  0  0  0  0  0  0
   11.5331  -16.8955   25.7530 O   0  0  0  0  0  0  0  0  0  0  0  0
   12.9867  -18.4349   25.0373 O   0  0  0  0  0  0  0  0  0  0  0  0
  2  1  1  6
  2  3  1  0
  4  2  1  0
  4  5  1  6
  6 11  1  0
  6  4  1  0
  7  6  2  0
  8  9  1  0
 10  9  1  6
 10 11  1  0
 10 12  1  0
 12 14  1  0
 13 12  2  0
 14 15  1  0
 15 16  1  1
 15 22  1  0
 17 21  1  0
 17 16  1  0
 18 17  2  0
 19 18  1  0
 19 20  1  0
 20 21  2  0
 22 24  1  0
 23 22  2  0
M  END
$$$$
