TSH.pdb
     RDKit          3D

 24 24  0  0  1  0  0  0  0  0999 V2000
   12.6305  -17.4773   16.6011 C   0  0  0  0  0  0  0  0  0  0  0  0
   11.6416  -17.4573   15.4607 C   0  0  1  0  0  0  0  0  0  0  0  0
   12.3360  -17.5392   14.2775 O   0  0  0  0  0  0  0  0  0  0  0  0
   10.6751  -18.6004   15.6634 C   0  0  2  0  0  0  0  0  0  0  0  0
    9.8239  -18.7921   14.5151 N   0  0  0  0  0  0  0  0  0  0  0  0
    9.9136  -18.4801   16.9213 C   0  0  0  0  0  0  0  0  0  0  0  0
    8.9023  -17.7620   16.9582 O   0  0  0  0  0  0  0  0  0  0  0  0
   11.0955  -20.6066   20.3656 O   0  0  0  0  0  0  0  0  0  0  0  0
    9.7471  -20.3837   20.1184 C   0  0  0  0  0  0  0  0  0  0  0  0
    9.6264  -19.0976   19.3440 C   0  0  2  0  0  0  0  0  0  0  0  0
   10.3156  -19.1648   18.0747 N   0  0  0  0  0  0  0  0  0  0  0  0
   10.1329  -17.9114   20.0801 C   0  0  0  0  0  0  0  0  0  0  0  0
   11.3313  -17.5520   19.7807 O   0  0  0  0  0  0  0  0  0  0  0  0
    9.3911  -17.2087   21.0359 N   0  0  0  0  0  0  0  0  0  0  0  0
   10.0310  -16.1249   21.8145 C   0  0  1  0  0  0  0  0  0  0  0  0
    9.0446  -15.0262   21.8268 C   0  0  0  0  0  0  0  0  0  0  0  0
    8.8056  -14.2762   20.6054 C   0  0  0  0  0  0  0  0  0  0  0  0
    9.2730  -14.2971   19.3342 C   0  0  0  0  0  0  0  0  0  0  0  0
    8.6568  -13.3713   18.5694 N   0  0  0  0  0  0  0  0  0  0  0  0
    7.7886  -12.7668   19.3893 C   0  0  0  0  0  0  0  0  0  0  0  0
    7.8534  -13.2805   20.6000 N   0  0  0  0  0  0  0  0  0  0  0  0
   10.3465  -16.6778   23.1574 C   0  0  0  0  0  0  0  0  0  0  0  0
    9.9987  -17.7711   23.6278 O   0  0  0  0  0  0  0  0  0  0  0  0
   11.1304  -15.8817   24.0080 O   0  0  0  0  0  0  0  0  0  0  0  0
  2  1  1  1
  2  3  1  0
  4  2  1  0
  4  5  1  6
  6 11  1  0
  6  4  1  0
  7  6  2  0
  8  9  1  0
 10  9  1  1
 10 11  1  0
 10 12  1  0
 12 14  1  0
 13 12  2  0
 14 15  1  0
 15 16  1  1
 15 22  1  0
 17 21  1  0
 17 16  1  0
 18 17  2  0
 19 18  1  0
 19 20  1  0
 20 21  2  0
 22 24  1  0
 23 22  2  0
M  END
$$$$
