TSH.pdb
     RDKit          3D

 24 24  0  0  1  0  0  0  0  0999 V2000
    8.9210  -12.2562   17.6158 C   0  0  0  0  0  0  0  0  0  0  0  0
    8.2486  -13.1495   18.6301 C   0  0  1  0  0  0  0  0  0  0  0  0
    7.4510  -14.0475   17.9621 O   0  0  0  0  0  0  0  0  0  0  0  0
    9.3277  -13.8110   19.4546 C   0  0  2  0  0  0  0  0  0  0  0  0
   10.1403  -14.6987   18.6600 N   0  0  0  0  0  0  0  0  0  0  0  0
    8.7938  -14.4616   20.6664 C   0  0  0  0  0  0  0  0  0  0  0  0
    8.2001  -13.7796   21.5162 O   0  0  0  0  0  0  0  0  0  0  0  0
    9.4462  -18.5571   21.3656 O   0  0  0  0  0  0  0  0  0  0  0  0
    8.2094  -18.0196   21.6980 C   0  0  0  0  0  0  0  0  0  0  0  0
    8.4084  -16.5584   22.0038 C   0  0  2  0  0  0  0  0  0  0  0  0
    8.9473  -15.8383   20.8716 N   0  0  0  0  0  0  0  0  0  0  0  0
    9.2940  -16.3109   23.1700 C   0  0  0  0  0  0  0  0  0  0  0  0
   10.5369  -16.1381   22.8866 O   0  0  0  0  0  0  0  0  0  0  0  0
    8.8468  -16.2612   24.4948 N   0  0  0  0  0  0  0  0  0  0  0  0
    9.8217  -16.0951   25.5958 C   0  0  1  0  0  0  0  0  0  0  0  0
    9.1990  -15.1243   26.5177 C   0  0  0  0  0  0  0  0  0  0  0  0
    9.8233  -14.8703   27.8051 C   0  0  0  0  0  0  0  0  0  0  0  0
   10.9083  -15.3257   28.4759 C   0  0  0  0  0  0  0  0  0  0  0  0
   11.0511  -14.6979   29.6622 N   0  0  0  0  0  0  0  0  0  0  0  0
   10.0300  -13.8348   29.7225 C   0  0  0  0  0  0  0  0  0  0  0  0
    9.2865  -13.9134   28.6385 N   0  0  0  0  0  0  0  0  0  0  0  0
   10.0485  -17.4398   26.1867 C   0  0  0  0  0  0  0  0  0  0  0  0
    9.2859  -18.4173   26.1611 O   0  0  0  0  0  0  0  0  0  0  0  0
   11.2648  -17.6462   26.8571 O   0  0  0  0  0  0  0  0  0  0  0  0
  2  1  1  6
  2  3  1  0
  4  2  1  0
  4  5  1  6
  6 11  1  0
  6  4  1  0
  7  6  2  0
  8  9  1  0
 10  9  1  6
 10 11  1  0
 10 12  1  0
 12 14  1  0
 13 12  2  0
 14 15  1  0
 15 16  1  1
 15 22  1  0
 17 21  1  0
 17 16  1  0
 18 17  2  0
 19 18  1  0
 19 20  1  0
 20 21  2  0
 22 24  1  0
 23 22  2  0
M  END
$$$$
