TSH.pdb
     RDKit          3D

 24 24  0  0  1  0  0  0  0  0999 V2000
    7.9404  -16.4167   17.6455 C   0  0  0  0  0  0  0  0  0  0  0  0
    8.4773  -15.1484   17.0273 C   0  0  1  0  0  0  0  0  0  0  0  0
    8.0433  -15.0781   15.7252 O   0  0  0  0  0  0  0  0  0  0  0  0
    8.0124  -13.9861   17.8728 C   0  0  2  0  0  0  0  0  0  0  0  0
    8.1441  -12.7304   17.1758 N   0  0  0  0  0  0  0  0  0  0  0  0
    8.6476  -13.9662   19.2042 C   0  0  0  0  0  0  0  0  0  0  0  0
    9.8178  -13.5696   19.3182 O   0  0  0  0  0  0  0  0  0  0  0  0
    6.7789  -15.8225   22.3818 O   0  0  0  0  0  0  0  0  0  0  0  0
    7.4410  -14.6496   22.7209 C   0  0  0  0  0  0  0  0  0  0  0  0
    8.4993  -14.3994   21.6789 C   0  0  2  0  0  0  0  0  0  0  0  0
    7.9489  -14.3886   20.3419 N   0  0  0  0  0  0  0  0  0  0  0  0
    9.6094  -15.3854   21.7111 C   0  0  0  0  0  0  0  0  0  0  0  0
    9.4654  -16.3977   20.9304 O   0  0  0  0  0  0  0  0  0  0  0  0
   10.7456  -15.2576   22.5176 N   0  0  0  0  0  0  0  0  0  0  0  0
   11.7570  -16.3377   22.5423 C   0  0  1  0  0  0  0  0  0  0  0  0
   13.0216  -15.6898   22.1408 C   0  0  0  0  0  0  0  0  0  0  0  0
   13.1948  -15.2713   20.7600 C   0  0  0  0  0  0  0  0  0  0  0  0
   12.4510  -15.2918   19.6282 C   0  0  0  0  0  0  0  0  0  0  0  0
   13.1075  -14.7161   18.5990 N   0  0  0  0  0  0  0  0  0  0  0  0
   14.2832  -14.3311   19.1099 C   0  0  0  0  0  0  0  0  0  0  0  0
   14.3640  -14.6456   20.3860 N   0  0  0  0  0  0  0  0  0  0  0  0
   11.7673  -16.8968   23.9192 C   0  0  0  0  0  0  0  0  0  0  0  0
   11.0789  -16.5404   24.8871 O   0  0  0  0  0  0  0  0  0  0  0  0
   12.6555  -17.9543   24.1728 O   0  0  0  0  0  0  0  0  0  0  0  0
  2  1  1  1
  2  3  1  0
  4  2  1  0
  4  5  1  6
  6 11  1  0
  6  4  1  0
  7  6  2  0
  8  9  1  0
 10  9  1  1
 10 11  1  0
 10 12  1  0
 12 14  1  0
 13 12  2  0
 14 15  1  0
 15 16  1  1
 15 22  1  0
 17 21  1  0
 17 16  1  0
 18 17  2  0
 19 18  1  0
 19 20  1  0
 20 21  2  0
 22 24  1  0
 23 22  2  0
M  END
$$$$
