NDW.pdb
     RDKit          3D

 31 32  0  0  1  0  0  0  0  0999 V2000
   28.6788  -22.7376  -18.2438 N   0  0  0  0  0  0  0  0  0  0  0  0
   28.1575  -21.4284  -18.2739 C   0  0  0  0  0  0  0  0  0  0  0  0
   28.4116  -20.7301  -19.3114 O   0  0  0  0  0  0  0  0  0  0  0  0
   27.3517  -20.7824  -17.2415 C   0  0  0  0  0  0  0  0  0  0  0  0
   27.2242  -21.5277  -15.9517 C   0  0  2  0  0  0  0  0  0  0  0  0
   26.7703  -22.8757  -16.0610 N   0  0  0  0  0  0  0  0  0  0  0  0
   26.4902  -20.7873  -14.8921 C   0  0  0  0  0  0  0  0  0  0  0  0
   26.6851  -19.5864  -14.6335 O   0  0  0  0  0  0  0  0  0  0  0  0
   25.5137  -21.5038  -14.1375 N   0  0  0  0  0  0  0  0  0  0  0  0
   24.6861  -20.9045  -13.1063 C   0  0  1  0  0  0  0  0  0  0  0  0
   23.2427  -21.2815  -13.1997 C   0  0  0  0  0  0  0  0  0  0  0  0
   22.4635  -20.6650  -12.1011 C   0  0  0  0  0  0  0  0  0  0  0  0
   22.0418  -21.3480  -11.1607 O   0  0  0  0  0  0  0  0  0  0  0  0
   25.2307  -21.3350  -11.7849 C   0  0  0  0  0  0  0  0  0  0  0  0
   25.4184  -22.5460  -11.5602 O   0  0  0  0  0  0  0  0  0  0  0  0
   22.1709  -19.3027  -12.0786 O   0  0  0  0  0  0  0  0  0  0  0  0
   25.5387  -20.3914  -10.7841 N   0  0  0  0  0  0  0  0  0  0  0  0
   26.0707  -20.9060   -9.4996 C   0  0  1  0  0  0  0  0  0  0  0  0
   27.3788  -20.1854   -9.3325 C   0  0  0  0  0  0  0  0  0  0  0  0
   28.1982  -20.5988   -8.1916 C   0  0  0  0  0  0  0  0  0  0  0  0
   28.9748  -21.7659   -8.1463 C   0  0  0  0  0  0  0  0  0  0  0  0
   29.5588  -21.8109   -6.9484 N   0  0  0  0  0  0  0  0  0  0  0  0
   29.2025  -20.7300   -6.2133 C   0  0  0  0  0  0  0  0  0  0  0  0
   29.5570  -20.3401   -4.9395 C   0  0  0  0  0  0  0  0  0  0  0  0
   29.0721  -19.1658   -4.3908 C   0  0  0  0  0  0  0  0  0  0  0  0
   28.2275  -18.4042   -5.1574 C   0  0  0  0  0  0  0  0  0  0  0  0
   27.8775  -18.7944   -6.4184 C   0  0  0  0  0  0  0  0  0  0  0  0
   28.3555  -19.9630   -6.9720 C   0  0  0  0  0  0  0  0  0  0  0  0
   25.1336  -20.6951   -8.3975 C   0  0  0  0  0  0  0  0  0  0  0  0
   25.1100  -21.4022   -7.2143 O   0  0  0  0  0  0  0  0  0  0  0  0
   24.2320  -19.7775   -8.5013 O   0  0  0  0  0  0  0  0  0  0  0  0
  2  1  1  0
  2  3  2  0
  4  2  1  0
  5  4  1  0
  5  6  1  6
  7  5  1  0
  8  7  2  0
  9  7  1  0
 10  9  1  0
 10 11  1  6
 12 11  1  0
 13 12  2  0
 14 15  2  0
 14 10  1  0
 16 12  1  0
 17 14  1  0
 18 19  1  1
 18 17  1  0
 20 28  1  0
 20 19  1  0
 21 20  2  0
 22 21  1  0
 22 23  1  0
 23 28  2  0
 24 23  1  0
 24 25  2  0
 25 26  1  0
 26 27  2  0
 28 27  1  0
 29 18  1  0
 30 29  1  0
 31 29  2  0
M  END
$$$$
