NDW.pdb
     RDKit          3D

 31 32  0  0  1  0  0  0  0  0999 V2000
   29.9004  -18.9096  -17.6396 N   0  0  0  0  0  0  0  0  0  0  0  0
   29.6653  -17.7487  -16.8756 C   0  0  0  0  0  0  0  0  0  0  0  0
   30.3157  -16.7009  -17.2035 O   0  0  0  0  0  0  0  0  0  0  0  0
   28.7511  -17.6145  -15.7448 C   0  0  0  0  0  0  0  0  0  0  0  0
   27.9503  -18.8304  -15.4052 C   0  0  2  0  0  0  0  0  0  0  0  0
   27.2554  -19.4350  -16.4945 N   0  0  0  0  0  0  0  0  0  0  0  0
   27.0705  -18.6665  -14.2182 C   0  0  0  0  0  0  0  0  0  0  0  0
   26.6206  -17.5691  -13.8438 O   0  0  0  0  0  0  0  0  0  0  0  0
   26.7325  -19.8378  -13.4764 N   0  0  0  0  0  0  0  0  0  0  0  0
   25.6213  -19.9152  -12.5454 C   0  0  1  0  0  0  0  0  0  0  0  0
   24.3724  -20.4756  -13.1457 C   0  0  0  0  0  0  0  0  0  0  0  0
   23.2755  -20.5061  -12.1506 C   0  0  0  0  0  0  0  0  0  0  0  0
   22.2927  -21.2388  -12.3112 O   0  0  0  0  0  0  0  0  0  0  0  0
   26.0522  -20.7696  -11.3998 C   0  0  0  0  0  0  0  0  0  0  0  0
   26.5759  -21.8784  -11.6202 O   0  0  0  0  0  0  0  0  0  0  0  0
   23.2994  -19.7173  -11.0021 O   0  0  0  0  0  0  0  0  0  0  0  0
   25.8776  -20.3412  -10.0683 N   0  0  0  0  0  0  0  0  0  0  0  0
   26.2166  -21.3014   -8.9911 C   0  0  1  0  0  0  0  0  0  0  0  0
   27.5864  -20.8763   -8.5423 C   0  0  0  0  0  0  0  0  0  0  0  0
   27.6316  -19.9408   -7.4167 C   0  0  0  0  0  0  0  0  0  0  0  0
   27.0018  -18.6878   -7.3930 C   0  0  0  0  0  0  0  0  0  0  0  0
   27.2822  -18.1220   -6.2185 N   0  0  0  0  0  0  0  0  0  0  0  0
   28.0609  -18.9457   -5.4765 C   0  0  0  0  0  0  0  0  0  0  0  0
   28.5863  -18.8031   -4.2100 C   0  0  0  0  0  0  0  0  0  0  0  0
   29.3547  -19.8021   -3.6385 C   0  0  0  0  0  0  0  0  0  0  0  0
   29.5751  -20.9379   -4.3750 C   0  0  0  0  0  0  0  0  0  0  0  0
   29.0541  -21.0750   -5.6299 C   0  0  0  0  0  0  0  0  0  0  0  0
   28.2884  -20.0843   -6.2066 C   0  0  0  0  0  0  0  0  0  0  0  0
   25.2171  -21.2996   -7.9242 C   0  0  0  0  0  0  0  0  0  0  0  0
   25.1820  -22.1657   -6.8522 O   0  0  0  0  0  0  0  0  0  0  0  0
   24.2655  -20.4281   -7.9512 O   0  0  0  0  0  0  0  0  0  0  0  0
  2  1  1  0
  2  3  2  0
  4  2  1  0
  5  4  1  0
  5  6  1  6
  7  5  1  0
  8  7  2  0
  9  7  1  0
 10  9  1  0
 10 11  1  6
 12 11  1  0
 13 12  2  0
 14 15  2  0
 14 10  1  0
 16 12  1  0
 17 14  1  0
 18 19  1  1
 18 17  1  0
 20 28  1  0
 20 19  1  0
 21 20  2  0
 22 21  1  0
 22 23  1  0
 23 28  2  0
 24 23  1  0
 24 25  2  0
 25 26  1  0
 26 27  2  0
 28 27  1  0
 29 18  1  0
 30 29  1  0
 31 29  2  0
M  END
$$$$
