NDW.pdb
     RDKit          3D

 31 32  0  0  1  0  0  0  0  0999 V2000
   29.8627  -22.4119  -17.7356 N   0  0  0  0  0  0  0  0  0  0  0  0
   29.2938  -21.1319  -17.8923 C   0  0  0  0  0  0  0  0  0  0  0  0
   29.6350  -20.4722  -18.9301 O   0  0  0  0  0  0  0  0  0  0  0  0
   28.3493  -20.4768  -16.9916 C   0  0  0  0  0  0  0  0  0  0  0  0
   27.9724  -21.2483  -15.7677 C   0  0  2  0  0  0  0  0  0  0  0  0
   27.4214  -22.5434  -16.0009 N   0  0  0  0  0  0  0  0  0  0  0  0
   27.1623  -20.4769  -14.7887 C   0  0  0  0  0  0  0  0  0  0  0  0
   27.4095  -19.3008  -14.4688 O   0  0  0  0  0  0  0  0  0  0  0  0
   26.0449  -21.1324  -14.1900 N   0  0  0  0  0  0  0  0  0  0  0  0
   25.1233  -20.4878  -13.2722 C   0  0  1  0  0  0  0  0  0  0  0  0
   23.6869  -20.6416  -13.6561 C   0  0  0  0  0  0  0  0  0  0  0  0
   22.8009  -20.0092  -12.6514 C   0  0  0  0  0  0  0  0  0  0  0  0
   22.2327  -20.6885  -11.7886 O   0  0  0  0  0  0  0  0  0  0  0  0
   25.3456  -21.0804  -11.9204 C   0  0  0  0  0  0  0  0  0  0  0  0
   25.2692  -22.3146  -11.7679 O   0  0  0  0  0  0  0  0  0  0  0  0
   22.5674  -18.6354  -12.6345 O   0  0  0  0  0  0  0  0  0  0  0  0
   25.6429  -20.2648  -10.8098 N   0  0  0  0  0  0  0  0  0  0  0  0
   25.7041  -20.9166   -9.4798 C   0  0  1  0  0  0  0  0  0  0  0  0
   26.8538  -20.2347   -8.7928 C   0  0  0  0  0  0  0  0  0  0  0  0
   27.0419  -20.5624   -7.3781 C   0  0  0  0  0  0  0  0  0  0  0  0
   26.5075  -21.6920   -6.7413 C   0  0  0  0  0  0  0  0  0  0  0  0
   26.8745  -21.6395   -5.4604 N   0  0  0  0  0  0  0  0  0  0  0  0
   27.6229  -20.5332   -5.2332 C   0  0  0  0  0  0  0  0  0  0  0  0
   28.2285  -20.0652   -4.0866 C   0  0  0  0  0  0  0  0  0  0  0  0
   28.9704  -18.8971   -4.0962 C   0  0  0  0  0  0  0  0  0  0  0  0
   29.0823  -18.2219   -5.2847 C   0  0  0  0  0  0  0  0  0  0  0  0
   28.4799  -18.6878   -6.4182 C   0  0  0  0  0  0  0  0  0  0  0  0
   27.7384  -19.8501   -6.4169 C   0  0  0  0  0  0  0  0  0  0  0  0
   24.4362  -20.8081   -8.7603 C   0  0  0  0  0  0  0  0  0  0  0  0
   23.4609  -19.8602   -8.9858 O   0  0  0  0  0  0  0  0  0  0  0  0
   24.1674  -21.6531   -7.8224 O   0  0  0  0  0  0  0  0  0  0  0  0
  2  1  1  0
  2  3  2  0
  4  2  1  0
  5  4  1  0
  5  6  1  6
  7  5  1  0
  8  7  2  0
  9  7  1  0
 10  9  1  0
 10 11  1  6
 12 11  1  0
 13 12  2  0
 14 15  2  0
 14 10  1  0
 16 12  1  0
 17 14  1  0
 18 19  1  1
 18 17  1  0
 20 28  1  0
 20 19  1  0
 21 20  2  0
 22 21  1  0
 22 23  1  0
 23 28  2  0
 24 23  1  0
 24 25  2  0
 25 26  1  0
 26 27  2  0
 28 27  1  0
 29 18  1  0
 30 29  1  0
 31 29  2  0
M  END
$$$$
