NDW.pdb
     RDKit          3D

 31 32  0  0  1  0  0  0  0  0999 V2000
   25.3204  -16.9382  -21.1874 N   0  0  0  0  0  0  0  0  0  0  0  0
   24.7311  -18.1985  -21.4136 C   0  0  0  0  0  0  0  0  0  0  0  0
   24.5810  -18.5552  -22.6296 O   0  0  0  0  0  0  0  0  0  0  0  0
   24.2736  -19.1460  -20.4009 C   0  0  0  0  0  0  0  0  0  0  0  0
   24.3336  -18.6680  -18.9856 C   0  0  2  0  0  0  0  0  0  0  0  0
   25.5706  -18.0809  -18.5852 N   0  0  0  0  0  0  0  0  0  0  0  0
   23.8501  -19.6591  -17.9886 C   0  0  0  0  0  0  0  0  0  0  0  0
   22.8326  -20.3556  -18.1512 O   0  0  0  0  0  0  0  0  0  0  0  0
   24.6012  -19.8088  -16.7844 N   0  0  0  0  0  0  0  0  0  0  0  0
   24.2756  -20.7622  -15.7392 C   0  0  1  0  0  0  0  0  0  0  0  0
   25.4344  -21.1110  -14.8618 C   0  0  0  0  0  0  0  0  0  0  0  0
   26.4786  -21.8307  -15.6271 C   0  0  0  0  0  0  0  0  0  0  0  0
   26.1789  -22.7370  -16.4129 O   0  0  0  0  0  0  0  0  0  0  0  0
   23.1836  -20.1688  -14.9126 C   0  0  0  0  0  0  0  0  0  0  0  0
   23.3827  -19.1009  -14.3025 O   0  0  0  0  0  0  0  0  0  0  0  0
   27.8319  -21.5248  -15.4959 O   0  0  0  0  0  0  0  0  0  0  0  0
   21.9259  -20.7974  -14.8113 N   0  0  0  0  0  0  0  0  0  0  0  0
   20.8892  -20.1246  -13.9928 C   0  0  1  0  0  0  0  0  0  0  0  0
   20.6953  -18.7972  -14.6702 C   0  0  0  0  0  0  0  0  0  0  0  0
   19.9477  -18.8221  -15.9290 C   0  0  0  0  0  0  0  0  0  0  0  0
   18.7520  -19.5257  -16.1348 C   0  0  0  0  0  0  0  0  0  0  0  0
   18.3834  -19.3251  -17.4006 N   0  0  0  0  0  0  0  0  0  0  0  0
   19.2786  -18.5243  -18.0273 C   0  0  0  0  0  0  0  0  0  0  0  0
   19.3155  -18.0363  -19.3160 C   0  0  0  0  0  0  0  0  0  0  0  0
   20.3395  -17.2060  -19.7366 C   0  0  0  0  0  0  0  0  0  0  0  0
   21.3154  -16.8855  -18.8278 C   0  0  0  0  0  0  0  0  0  0  0  0
   21.2762  -17.3719  -17.5524 C   0  0  0  0  0  0  0  0  0  0  0  0
   20.2601  -18.2001  -17.1257 C   0  0  0  0  0  0  0  0  0  0  0  0
   19.6685  -20.9230  -13.8947 C   0  0  0  0  0  0  0  0  0  0  0  0
   19.4480  -22.1361  -14.5115 O   0  0  0  0  0  0  0  0  0  0  0  0
   18.6855  -20.4894  -13.1795 O   0  0  0  0  0  0  0  0  0  0  0  0
  2  1  1  0
  2  3  2  0
  4  2  1  0
  5  4  1  0
  5  6  1  1
  7  5  1  0
  8  7  2  0
  9  7  1  0
 10  9  1  0
 10 11  1  1
 12 11  1  0
 13 12  2  0
 14 15  2  0
 14 10  1  0
 16 12  1  0
 17 14  1  0
 18 19  1  6
 18 17  1  0
 20 28  1  0
 20 19  1  0
 21 20  2  0
 22 21  1  0
 22 23  1  0
 23 28  2  0
 24 23  1  0
 24 25  2  0
 25 26  1  0
 26 27  2  0
 28 27  1  0
 29 18  1  0
 30 29  1  0
 31 29  2  0
M  END
$$$$
