THD.pdb
     RDKit          3D

 26 26  0  0  1  0  0  0  0  0999 V2000
   14.3408  -16.1038   15.0018 C   0  0  0  0  0  0  0  0  0  0  0  0
   13.5406  -15.9253   16.2512 C   0  0  1  0  0  0  0  0  0  0  0  0
   14.1014  -16.7018   17.2567 O   0  0  0  0  0  0  0  0  0  0  0  0
   13.5374  -14.4851   16.7609 C   0  0  2  0  0  0  0  0  0  0  0  0
   14.9009  -14.0688   16.9228 N   0  0  0  0  0  0  0  0  0  0  0  0
   12.7486  -14.3787   18.0350 C   0  0  0  0  0  0  0  0  0  0  0  0
   13.3876  -14.4835   19.0867 O   0  0  0  0  0  0  0  0  0  0  0  0
   11.3669  -14.1723   18.0438 N   0  0  0  0  0  0  0  0  0  0  0  0
   10.4843  -14.1746   19.1498 C   0  0  1  0  0  0  0  0  0  0  0  0
    9.1118  -13.5590   18.9229 C   0  0  0  0  0  0  0  0  0  0  0  0
    8.2604  -13.6348   20.1262 C   0  0  0  0  0  0  0  0  0  0  0  0
    7.1811  -14.4569   20.3456 C   0  0  0  0  0  0  0  0  0  0  0  0
    6.6421  -14.1678   21.5666 N   0  0  0  0  0  0  0  0  0  0  0  0
    7.3911  -13.1756   22.0839 C   0  0  0  0  0  0  0  0  0  0  0  0
    8.3662  -12.8579   21.2107 N   0  0  0  0  0  0  0  0  0  0  0  0
   10.4674  -15.4013   19.9556 C   0  0  0  0  0  0  0  0  0  0  0  0
   10.5702  -16.5199   19.3310 O   0  0  0  0  0  0  0  0  0  0  0  0
   10.3489  -15.4527   21.3469 N   0  0  0  0  0  0  0  0  0  0  0  0
   10.5421  -16.6708   22.1566 C   0  0  1  0  0  0  0  0  0  0  0  0
   11.9894  -17.0782   22.1354 C   0  0  0  0  0  0  0  0  0  0  0  0
   12.2425  -18.2476   23.0003 C   0  0  0  0  0  0  0  0  0  0  0  0
   11.5303  -19.2806   23.0664 O   0  0  0  0  0  0  0  0  0  0  0  0
   10.1800  -16.2950   23.5432 C   0  0  0  0  0  0  0  0  0  0  0  0
    9.8858  -17.3215   24.4539 O   0  0  0  0  0  0  0  0  0  0  0  0
   13.3646  -18.2829   23.8572 O   0  0  0  0  0  0  0  0  0  0  0  0
   10.1112  -15.1316   23.9833 O   0  0  0  0  0  0  0  0  0  0  0  0
  2  1  1  6
  2  4  1  0
  3  2  1  0
  4  6  1  0
  4  5  1  1
  6  7  2  0
  8  9  1  0
  8  6  1  0
  9 10  1  6
 11 10  1  0
 12 11  2  0
 13 14  1  0
 13 12  1  0
 14 15  2  0
 15 11  1  0
 16 17  2  0
 16  9  1  0
 18 16  1  0
 19 18  1  0
 20 21  1  0
 19 20  1  1
 21 22  2  0
 23 19  1  0
 23 24  1  0
 25 21  1  0
 26 23  2  0
M  END
$$$$
