THD.pdb
     RDKit          3D

 26 26  0  0  1  0  0  0  0  0999 V2000
    8.4452  -16.2278   18.1177 C   0  0  0  0  0  0  0  0  0  0  0  0
    8.6024  -14.7553   17.9168 C   0  0  1  0  0  0  0  0  0  0  0  0
    8.0312  -14.4061   16.7001 O   0  0  0  0  0  0  0  0  0  0  0  0
    7.8952  -13.9250   18.9866 C   0  0  2  0  0  0  0  0  0  0  0  0
    7.9216  -12.5518   18.5718 N   0  0  0  0  0  0  0  0  0  0  0  0
    8.5403  -14.1332   20.3272 C   0  0  0  0  0  0  0  0  0  0  0  0
    9.7036  -13.7351   20.4446 O   0  0  0  0  0  0  0  0  0  0  0  0
    7.8719  -14.7426   21.3920 N   0  0  0  0  0  0  0  0  0  0  0  0
    8.4098  -15.2200   22.6105 C   0  0  1  0  0  0  0  0  0  0  0  0
    7.4101  -15.5632   23.7045 C   0  0  0  0  0  0  0  0  0  0  0  0
    6.9306  -14.3637   24.4186 C   0  0  0  0  0  0  0  0  0  0  0  0
    7.3458  -13.0635   24.2572 C   0  0  0  0  0  0  0  0  0  0  0  0
    6.6863  -12.2711   25.1528 N   0  0  0  0  0  0  0  0  0  0  0  0
    5.8760  -13.0873   25.8531 C   0  0  0  0  0  0  0  0  0  0  0  0
    6.0274  -14.3488   25.4059 N   0  0  0  0  0  0  0  0  0  0  0  0
    9.5223  -16.1704   22.4929 C   0  0  0  0  0  0  0  0  0  0  0  0
    9.5625  -16.9055   21.4393 O   0  0  0  0  0  0  0  0  0  0  0  0
   10.5419  -16.3413   23.4329 N   0  0  0  0  0  0  0  0  0  0  0  0
   11.7183  -17.2104   23.2394 C   0  0  1  0  0  0  0  0  0  0  0  0
   12.9004  -16.3873   22.8079 C   0  0  0  0  0  0  0  0  0  0  0  0
   14.1291  -17.2001   22.7132 C   0  0  0  0  0  0  0  0  0  0  0  0
   15.2024  -16.9843   23.3298 O   0  0  0  0  0  0  0  0  0  0  0  0
   12.0121  -17.7934   24.5694 C   0  0  0  0  0  0  0  0  0  0  0  0
   12.7943  -18.9573   24.6259 O   0  0  0  0  0  0  0  0  0  0  0  0
   14.1806  -18.3368   21.8764 O   0  0  0  0  0  0  0  0  0  0  0  0
   11.6221  -17.3381   25.6615 O   0  0  0  0  0  0  0  0  0  0  0  0
  2  1  1  1
  2  4  1  0
  3  2  1  0
  4  6  1  0
  4  5  1  6
  6  7  2  0
  8  9  1  0
  8  6  1  0
  9 10  1  6
 11 10  1  0
 12 11  2  0
 13 14  1  0
 13 12  1  0
 14 15  2  0
 15 11  1  0
 16 17  2  0
 16  9  1  0
 18 16  1  0
 19 18  1  0
 20 21  1  0
 19 20  1  1
 21 22  2  0
 23 19  1  0
 23 24  1  0
 25 21  1  0
 26 23  2  0
M  END
$$$$
