THD.pdb
     RDKit          3D

 26 26  0  0  1  0  0  0  0  0999 V2000
    8.4630  -11.6848   26.1545 C   0  0  0  0  0  0  0  0  0  0  0  0
    7.1072  -12.1976   26.5182 C   0  0  1  0  0  0  0  0  0  0  0  0
    6.3376  -11.1385   26.9814 O   0  0  0  0  0  0  0  0  0  0  0  0
    6.3553  -12.7989   25.3321 C   0  0  2  0  0  0  0  0  0  0  0  0
    5.0003  -13.0361   25.7398 N   0  0  0  0  0  0  0  0  0  0  0  0
    7.0387  -14.0481   24.8533 C   0  0  0  0  0  0  0  0  0  0  0  0
    6.6499  -15.1108   25.3483 O   0  0  0  0  0  0  0  0  0  0  0  0
    8.0600  -14.0233   23.9003 N   0  0  0  0  0  0  0  0  0  0  0  0
    8.7967  -15.1097   23.3721 C   0  0  1  0  0  0  0  0  0  0  0  0
    9.3517  -14.9329   21.9668 C   0  0  0  0  0  0  0  0  0  0  0  0
    8.3333  -14.4310   21.0237 C   0  0  0  0  0  0  0  0  0  0  0  0
    8.3026  -13.2152   20.3837 C   0  0  0  0  0  0  0  0  0  0  0  0
    7.1586  -13.1308   19.6426 N   0  0  0  0  0  0  0  0  0  0  0  0
    6.4998  -14.2896   19.8330 C   0  0  0  0  0  0  0  0  0  0  0  0
    7.2132  -15.0705   20.6671 N   0  0  0  0  0  0  0  0  0  0  0  0
    9.7166  -15.7749   24.3026 C   0  0  0  0  0  0  0  0  0  0  0  0
   10.7456  -15.1107   24.6922 O   0  0  0  0  0  0  0  0  0  0  0  0
    9.5650  -17.0718   24.8001 N   0  0  0  0  0  0  0  0  0  0  0  0
   10.4740  -17.7030   25.7758 C   0  0  1  0  0  0  0  0  0  0  0  0
    9.7365  -18.7507   26.5629 C   0  0  0  0  0  0  0  0  0  0  0  0
   10.6305  -19.4677   27.4936 C   0  0  0  0  0  0  0  0  0  0  0  0
   11.8351  -19.1890   27.7170 O   0  0  0  0  0  0  0  0  0  0  0  0
   11.5253  -18.3713   24.9738 C   0  0  0  0  0  0  0  0  0  0  0  0
   12.8653  -18.1798   25.3446 O   0  0  0  0  0  0  0  0  0  0  0  0
   10.1632  -20.5753   28.2348 O   0  0  0  0  0  0  0  0  0  0  0  0
   11.3265  -19.1001   23.9833 O   0  0  0  0  0  0  0  0  0  0  0  0
  2  1  1  6
  2  4  1  0
  3  2  1  0
  4  6  1  0
  4  5  1  1
  6  7  2  0
  8  9  1  0
  8  6  1  0
  9 10  1  6
 11 10  1  0
 12 11  2  0
 13 14  1  0
 13 12  1  0
 14 15  2  0
 15 11  1  0
 16 17  2  0
 16  9  1  0
 18 16  1  0
 19 18  1  0
 20 21  1  0
 19 20  1  6
 21 22  2  0
 23 19  1  0
 23 24  1  0
 25 21  1  0
 26 23  2  0
M  END
$$$$
