THD.pdb
     RDKit          3D

 26 26  0  0  1  0  0  0  0  0999 V2000
   10.9219  -18.6445   14.5819 C   0  0  0  0  0  0  0  0  0  0  0  0
   11.3144  -17.8152   13.4022 C   0  0  1  0  0  0  0  0  0  0  0  0
   11.0957  -18.5512   12.2451 O   0  0  0  0  0  0  0  0  0  0  0  0
   10.4917  -16.5349   13.2686 C   0  0  2  0  0  0  0  0  0  0  0  0
   10.9355  -15.8431   12.0926 N   0  0  0  0  0  0  0  0  0  0  0  0
   10.6151  -15.6972   14.5095 C   0  0  0  0  0  0  0  0  0  0  0  0
   11.7439  -15.2718   14.7747 O   0  0  0  0  0  0  0  0  0  0  0  0
    9.5205  -15.4074   15.3279 N   0  0  0  0  0  0  0  0  0  0  0  0
    9.5149  -14.8090   16.6100 C   0  0  1  0  0  0  0  0  0  0  0  0
    8.1504  -14.5332   17.2233 C   0  0  0  0  0  0  0  0  0  0  0  0
    8.2511  -13.8137   18.5081 C   0  0  0  0  0  0  0  0  0  0  0  0
    9.3875  -13.5149   19.2209 C   0  0  0  0  0  0  0  0  0  0  0  0
    9.0334  -12.8888   20.3817 N   0  0  0  0  0  0  0  0  0  0  0  0
    7.6892  -12.8089   20.3720 C   0  0  0  0  0  0  0  0  0  0  0  0
    7.2225  -13.3684   19.2391 N   0  0  0  0  0  0  0  0  0  0  0  0
   10.5098  -15.3188   17.5612 C   0  0  0  0  0  0  0  0  0  0  0  0
   10.5876  -16.5932   17.7085 O   0  0  0  0  0  0  0  0  0  0  0  0
   11.3800  -14.5317   18.3199 N   0  0  0  0  0  0  0  0  0  0  0  0
   12.4443  -15.0661   19.1907 C   0  0  1  0  0  0  0  0  0  0  0  0
   13.4898  -14.0125   19.4310 C   0  0  0  0  0  0  0  0  0  0  0  0
   14.5958  -14.5183   20.2679 C   0  0  0  0  0  0  0  0  0  0  0  0
   15.2161  -13.8618   21.1414 O   0  0  0  0  0  0  0  0  0  0  0  0
   11.7890  -15.3808   20.4817 C   0  0  0  0  0  0  0  0  0  0  0  0
   12.1204  -16.5872   21.1177 O   0  0  0  0  0  0  0  0  0  0  0  0
   15.0538  -15.8476   20.1335 O   0  0  0  0  0  0  0  0  0  0  0  0
   10.9561  -14.6611   21.0651 O   0  0  0  0  0  0  0  0  0  0  0  0
  2  1  1  1
  2  4  1  0
  3  2  1  0
  4  6  1  0
  4  5  1  6
  6  7  2  0
  8  9  1  0
  8  6  1  0
  9 10  1  1
 11 10  1  0
 12 11  2  0
 13 14  1  0
 13 12  1  0
 14 15  2  0
 15 11  1  0
 16 17  2  0
 16  9  1  0
 18 16  1  0
 19 18  1  0
 20 21  1  0
 19 20  1  1
 21 22  2  0
 23 19  1  0
 23 24  1  0
 25 21  1  0
 26 23  2  0
M  END
$$$$
