THD.pdb
     RDKit          3D

 26 26  0  0  1  0  0  0  0  0999 V2000
   12.0801  -18.6799   17.4995 C   0  0  0  0  0  0  0  0  0  0  0  0
   10.6353  -19.0321   17.6485 C   0  0  1  0  0  0  0  0  0  0  0  0
   10.4844  -19.8382   18.7691 O   0  0  0  0  0  0  0  0  0  0  0  0
    9.7397  -17.8131   17.8625 C   0  0  2  0  0  0  0  0  0  0  0  0
    9.7608  -17.0304   16.6603 N   0  0  0  0  0  0  0  0  0  0  0  0
   10.1903  -17.0327   19.0646 C   0  0  0  0  0  0  0  0  0  0  0  0
   11.2248  -16.3709   18.9334 O   0  0  0  0  0  0  0  0  0  0  0  0
    9.4865  -17.0459   20.2714 N   0  0  0  0  0  0  0  0  0  0  0  0
    9.7307  -16.2870   21.4404 C   0  0  1  0  0  0  0  0  0  0  0  0
    8.5884  -15.4097   21.9298 C   0  0  0  0  0  0  0  0  0  0  0  0
    8.0754  -14.5191   20.8705 C   0  0  0  0  0  0  0  0  0  0  0  0
    6.9070  -14.6421   20.1574 C   0  0  0  0  0  0  0  0  0  0  0  0
    6.8402  -13.6372   19.2351 N   0  0  0  0  0  0  0  0  0  0  0  0
    7.9626  -12.9094   19.3887 C   0  0  0  0  0  0  0  0  0  0  0  0
    8.7042  -13.4459   20.3769 N   0  0  0  0  0  0  0  0  0  0  0  0
   10.4624  -16.9744   22.5112 C   0  0  0  0  0  0  0  0  0  0  0  0
   10.0338  -18.1313   22.8713 O   0  0  0  0  0  0  0  0  0  0  0  0
   11.5875  -16.4738   23.1714 N   0  0  0  0  0  0  0  0  0  0  0  0
   12.3433  -17.2063   24.2052 C   0  0  1  0  0  0  0  0  0  0  0  0
   13.6632  -16.5302   24.4534 C   0  0  0  0  0  0  0  0  0  0  0  0
   14.4622  -16.4168   23.2171 C   0  0  0  0  0  0  0  0  0  0  0  0
   14.6227  -17.3216   22.3602 O   0  0  0  0  0  0  0  0  0  0  0  0
   11.5295  -17.1155   25.4399 C   0  0  0  0  0  0  0  0  0  0  0  0
   11.9815  -17.7910   26.5841 O   0  0  0  0  0  0  0  0  0  0  0  0
   15.1355  -15.2165   22.8996 O   0  0  0  0  0  0  0  0  0  0  0  0
   10.4621  -16.4841   25.5586 O   0  0  0  0  0  0  0  0  0  0  0  0
  2  1  1  1
  2  4  1  0
  3  2  1  0
  4  6  1  0
  4  5  1  6
  6  7  2  0
  8  9  1  0
  8  6  1  0
  9 10  1  1
 11 10  1  0
 12 11  2  0
 13 14  1  0
 13 12  1  0
 14 15  2  0
 15 11  1  0
 16 17  2  0
 16  9  1  0
 18 16  1  0
 19 18  1  0
 20 21  1  0
 19 20  1  1
 21 22  2  0
 23 19  1  0
 23 24  1  0
 25 21  1  0
 26 23  2  0
M  END
$$$$
