THD.pdb
     RDKit          3D

 26 26  0  0  1  0  0  0  0  0999 V2000
    6.3312  -20.7719   19.1719 C   0  0  0  0  0  0  0  0  0  0  0  0
    7.2771  -19.8389   19.8561 C   0  0  1  0  0  0  0  0  0  0  0  0
    8.4588  -20.5171   20.1246 O   0  0  0  0  0  0  0  0  0  0  0  0
    7.6512  -18.6298   19.0005 C   0  0  2  0  0  0  0  0  0  0  0  0
    8.2157  -19.1125   17.7729 N   0  0  0  0  0  0  0  0  0  0  0  0
    8.5892  -17.7252   19.7480 C   0  0  0  0  0  0  0  0  0  0  0  0
    9.7925  -17.9903   19.6624 O   0  0  0  0  0  0  0  0  0  0  0  0
    8.1381  -16.6394   20.5026 N   0  0  0  0  0  0  0  0  0  0  0  0
    8.9013  -15.6991   21.2343 C   0  0  1  0  0  0  0  0  0  0  0  0
    8.3531  -14.2814   21.2949 C   0  0  0  0  0  0  0  0  0  0  0  0
    8.0301  -13.7502   19.9563 C   0  0  0  0  0  0  0  0  0  0  0  0
    6.8555  -13.1714   19.5392 C   0  0  0  0  0  0  0  0  0  0  0  0
    6.9549  -12.8691   18.2111 N   0  0  0  0  0  0  0  0  0  0  0  0
    8.1835  -13.2631   17.8259 C   0  0  0  0  0  0  0  0  0  0  0  0
    8.8280  -13.7940   18.8828 N   0  0  0  0  0  0  0  0  0  0  0  0
    9.4697  -16.1787   22.4998 C   0  0  0  0  0  0  0  0  0  0  0  0
    8.7565  -16.0362   23.5595 O   0  0  0  0  0  0  0  0  0  0  0  0
   10.7234  -16.7780   22.6469 N   0  0  0  0  0  0  0  0  0  0  0  0
   11.2503  -17.3096   23.9183 C   0  0  1  0  0  0  0  0  0  0  0  0
   11.5907  -18.7661   23.7650 C   0  0  0  0  0  0  0  0  0  0  0  0
   12.2722  -19.2987   24.9614 C   0  0  0  0  0  0  0  0  0  0  0  0
   11.9407  -19.0816   26.1538 O   0  0  0  0  0  0  0  0  0  0  0  0
   12.5008  -16.5599   24.1814 C   0  0  0  0  0  0  0  0  0  0  0  0
   13.1173  -16.7155   25.4326 O   0  0  0  0  0  0  0  0  0  0  0  0
   13.4043  -20.1339   24.8362 O   0  0  0  0  0  0  0  0  0  0  0  0
   13.0657  -15.7906   23.3807 O   0  0  0  0  0  0  0  0  0  0  0  0
  2  1  1  6
  2  4  1  0
  3  2  1  0
  4  6  1  0
  4  5  1  6
  6  7  2  0
  8  9  1  0
  8  6  1  0
  9 10  1  1
 11 10  1  0
 12 11  2  0
 13 14  1  0
 13 12  1  0
 14 15  2  0
 15 11  1  0
 16 17  2  0
 16  9  1  0
 18 16  1  0
 19 18  1  0
 20 21  1  0
 19 20  1  6
 21 22  2  0
 23 19  1  0
 23 24  1  0
 25 21  1  0
 26 23  2  0
M  END
$$$$
