THD.pdb
     RDKit          3D

 26 26  0  0  1  0  0  0  0  0999 V2000
   10.6503  -19.8785   18.4403 C   0  0  0  0  0  0  0  0  0  0  0  0
   11.2218  -19.0243   17.3552 C   0  0  1  0  0  0  0  0  0  0  0  0
   11.0215  -19.6570   16.1354 O   0  0  0  0  0  0  0  0  0  0  0  0
   10.5512  -17.6554   17.2534 C   0  0  2  0  0  0  0  0  0  0  0  0
   11.0519  -17.0024   16.0782 N   0  0  0  0  0  0  0  0  0  0  0  0
   10.7926  -16.8561   18.5023 C   0  0  0  0  0  0  0  0  0  0  0  0
   11.9094  -16.3414   18.6175 O   0  0  0  0  0  0  0  0  0  0  0  0
    9.8154  -16.6957   19.4879 N   0  0  0  0  0  0  0  0  0  0  0  0
    9.9262  -16.0428   20.7383 C   0  0  1  0  0  0  0  0  0  0  0  0
    8.6373  -15.4987   21.3354 C   0  0  0  0  0  0  0  0  0  0  0  0
    7.9575  -14.5533   20.4284 C   0  0  0  0  0  0  0  0  0  0  0  0
    6.8091  -14.7589   19.7019 C   0  0  0  0  0  0  0  0  0  0  0  0
    6.5534  -13.6484   18.9493 N   0  0  0  0  0  0  0  0  0  0  0  0
    7.5421  -12.7748   19.2186 C   0  0  0  0  0  0  0  0  0  0  0  0
    8.3864  -13.3259   20.1118 N   0  0  0  0  0  0  0  0  0  0  0  0
   10.8222  -16.6734   21.7150 C   0  0  0  0  0  0  0  0  0  0  0  0
   10.7057  -17.9412   21.8913 O   0  0  0  0  0  0  0  0  0  0  0  0
   11.7922  -16.0081   22.4692 N   0  0  0  0  0  0  0  0  0  0  0  0
   12.7998  -16.6797   23.3121 C   0  0  1  0  0  0  0  0  0  0  0  0
   13.9155  -15.7260   23.6385 C   0  0  0  0  0  0  0  0  0  0  0  0
   14.9988  -16.3871   24.3929 C   0  0  0  0  0  0  0  0  0  0  0  0
   15.0677  -16.4887   25.6433 O   0  0  0  0  0  0  0  0  0  0  0  0
   12.1016  -17.0343   24.5698 C   0  0  0  0  0  0  0  0  0  0  0  0
   10.8669  -16.4235   24.8386 O   0  0  0  0  0  0  0  0  0  0  0  0
   16.0889  -16.9818   23.7199 O   0  0  0  0  0  0  0  0  0  0  0  0
   12.5165  -17.8384   25.4261 O   0  0  0  0  0  0  0  0  0  0  0  0
  2  1  1  1
  2  4  1  0
  3  2  1  0
  4  6  1  0
  4  5  1  6
  6  7  2  0
  8  9  1  0
  8  6  1  0
  9 10  1  1
 11 10  1  0
 12 11  2  0
 13 14  1  0
 13 12  1  0
 14 15  2  0
 15 11  1  0
 16 17  2  0
 16  9  1  0
 18 16  1  0
 19 18  1  0
 20 21  1  0
 19 20  1  1
 21 22  2  0
 23 19  1  0
 23 24  1  0
 25 21  1  0
 26 23  2  0
M  END
$$$$
