PVD.pdb
     RDKit          3D

 23 23  0  0  1  0  0  0  0  0999 V2000
   23.9725  -13.3825  -15.4500 N   0  0  0  0  0  0  0  0  0  0  0  0
   24.8426  -14.5646  -15.4012 C   0  0  0  0  0  0  0  0  0  0  0  0
   24.8722  -15.0738  -16.8416 C   0  0  0  0  0  0  0  0  0  0  0  0
   24.2526  -13.9577  -17.6551 C   0  0  0  0  0  0  0  0  0  0  0  0
   24.3708  -12.7891  -16.6996 C   0  0  1  0  0  0  0  0  0  0  0  0
   23.4272  -11.6935  -17.1084 C   0  0  0  0  0  0  0  0  0  0  0  0
   23.6898  -11.0557  -18.1550 O   0  0  0  0  0  0  0  0  0  0  0  0
   20.0460  -11.8789  -18.1941 C   0  0  0  0  0  0  0  0  0  0  0  0
   19.9358  -11.2273  -16.8254 C   0  0  2  0  0  0  0  0  0  0  0  0
   18.8446  -10.1981  -16.8602 C   0  0  0  0  0  0  0  0  0  0  0  0
   21.2384  -10.5652  -16.4652 C   0  0  2  0  0  0  0  0  0  0  0  0
   22.3204  -11.4647  -16.2869 N   0  0  0  0  0  0  0  0  0  0  0  0
   21.1665   -9.4879  -15.4948 C   0  0  0  0  0  0  0  0  0  0  0  0
   20.8894   -9.7240  -14.2960 O   0  0  0  0  0  0  0  0  0  0  0  0
   21.4093   -8.1176  -15.8706 N   0  0  0  0  0  0  0  0  0  0  0  0
   21.3374   -7.0448  -14.9233 C   0  0  1  0  0  0  0  0  0  0  0  0
   22.3404   -5.9705  -15.2487 C   0  0  0  0  0  0  0  0  0  0  0  0
   22.3132   -4.8187  -14.3409 C   0  0  0  0  0  0  0  0  0  0  0  0
   22.3083   -4.9992  -13.0961 O   0  0  0  0  0  0  0  0  0  0  0  0
   19.9754   -6.4779  -14.8024 C   0  0  0  0  0  0  0  0  0  0  0  0
   19.3754   -6.2647  -13.5784 O   0  0  0  0  0  0  0  0  0  0  0  0
   22.2917   -3.5148  -14.7922 O   0  0  0  0  0  0  0  0  0  0  0  0
   19.3487   -6.1829  -15.8429 O   0  0  0  0  0  0  0  0  0  0  0  0
  1  2  1  0
  2  3  1  0
  4  3  1  0
  5  1  1  0
  5  4  1  0
  5  6  1  6
  6  7  2  0
  9  8  1  6
  9 11  1  0
 10  9  1  0
 11 12  1  1
 11 13  1  0
 12  6  1  0
 13 15  1  0
 14 13  2  0
 15 16  1  0
 16 20  1  0
 16 17  1  6
 17 18  1  0
 18 22  1  0
 18 19  2  0
 20 23  2  0
 20 21  1  0
M  END
$$$$
