PVD.pdb
     RDKit          3D

 23 23  0  0  1  0  0  0  0  0999 V2000
   19.0179  -11.5512  -17.2339 N   0  0  0  0  0  0  0  0  0  0  0  0
   18.1575  -12.6290  -17.7388 C   0  0  0  0  0  0  0  0  0  0  0  0
   18.1048  -13.6403  -16.5944 C   0  0  0  0  0  0  0  0  0  0  0  0
   18.7009  -12.9097  -15.4102 C   0  0  0  0  0  0  0  0  0  0  0  0
   18.5920  -11.4685  -15.8612 C   0  0  1  0  0  0  0  0  0  0  0  0
   19.5197  -10.6056  -15.0534 C   0  0  0  0  0  0  0  0  0  0  0  0
   19.2868  -10.4840  -13.8278 O   0  0  0  0  0  0  0  0  0  0  0  0
   23.2596   -9.5925  -16.9946 C   0  0  0  0  0  0  0  0  0  0  0  0
   22.9878   -9.5748  -15.4992 C   0  0  2  0  0  0  0  0  0  0  0  0
   23.1754  -10.9591  -14.9518 C   0  0  0  0  0  0  0  0  0  0  0  0
   21.5773   -9.1192  -15.2388 C   0  0  2  0  0  0  0  0  0  0  0  0
   20.5797   -9.9985  -15.7318 N   0  0  0  0  0  0  0  0  0  0  0  0
   21.3089   -7.7070  -15.4419 C   0  0  0  0  0  0  0  0  0  0  0  0
   20.7183   -7.3098  -16.4729 O   0  0  0  0  0  0  0  0  0  0  0  0
   21.7084   -6.7170  -14.4734 N   0  0  0  0  0  0  0  0  0  0  0  0
   21.3818   -5.3299  -14.6243 C   0  0  1  0  0  0  0  0  0  0  0  0
   19.8939   -5.1369  -14.7462 C   0  0  0  0  0  0  0  0  0  0  0  0
   19.4699   -3.7370  -14.8568 C   0  0  0  0  0  0  0  0  0  0  0  0
   20.1510   -2.9255  -15.5347 O   0  0  0  0  0  0  0  0  0  0  0  0
   21.9373   -4.4895  -13.5397 C   0  0  0  0  0  0  0  0  0  0  0  0
   21.8797   -3.1114  -13.5768 O   0  0  0  0  0  0  0  0  0  0  0  0
   18.3347   -3.2514  -14.2404 O   0  0  0  0  0  0  0  0  0  0  0  0
   22.4758   -5.0463  -12.5588 O   0  0  0  0  0  0  0  0  0  0  0  0
  1  2  1  0
  2  3  1  0
  4  3  1  0
  5  1  1  0
  5  4  1  0
  5  6  1  1
  6  7  2  0
  9  8  1  6
  9 11  1  0
 10  9  1  0
 11 12  1  6
 11 13  1  0
 12  6  1  0
 13 15  1  0
 14 13  2  0
 15 16  1  0
 16 20  1  0
 16 17  1  1
 17 18  1  0
 18 22  1  0
 18 19  2  0
 20 23  2  0
 20 21  1  0
M  END
$$$$
