PVD.pdb
     RDKit          3D

 23 23  0  0  1  0  0  0  0  0999 V2000
   17.9318  -11.8236  -17.6675 N   0  0  0  0  0  0  0  0  0  0  0  0
   17.3365  -12.0232  -18.9951 C   0  0  0  0  0  0  0  0  0  0  0  0
   17.0463  -10.6095  -19.4974 C   0  0  0  0  0  0  0  0  0  0  0  0
   17.7803   -9.7024  -18.5332 C   0  0  0  0  0  0  0  0  0  0  0  0
   18.7587  -10.6681  -17.8988 C   0  0  1  0  0  0  0  0  0  0  0  0
   19.2767  -10.1008  -16.6074 C   0  0  0  0  0  0  0  0  0  0  0  0
   18.4868  -10.0417  -15.6359 O   0  0  0  0  0  0  0  0  0  0  0  0
   22.1218  -11.4323  -14.8403 C   0  0  0  0  0  0  0  0  0  0  0  0
   22.5631  -10.0078  -15.1343 C   0  0  2  0  0  0  0  0  0  0  0  0
   23.2185   -9.4367  -13.9115 C   0  0  0  0  0  0  0  0  0  0  0  0
   21.3711   -9.1666  -15.5038 C   0  0  2  0  0  0  0  0  0  0  0  0
   20.6083   -9.6782  -16.5845 N   0  0  0  0  0  0  0  0  0  0  0  0
   21.5776   -7.7297  -15.5212 C   0  0  0  0  0  0  0  0  0  0  0  0
   22.2613   -7.1925  -16.4232 O   0  0  0  0  0  0  0  0  0  0  0  0
   21.0086   -6.8743  -14.5102 N   0  0  0  0  0  0  0  0  0  0  0  0
   21.2259   -5.4579  -14.5018 C   0  0  1  0  0  0  0  0  0  0  0  0
   19.9528   -4.7194  -14.1855 C   0  0  0  0  0  0  0  0  0  0  0  0
   19.0083   -4.6302  -15.3043 C   0  0  0  0  0  0  0  0  0  0  0  0
   19.4308   -4.6665  -16.4884 O   0  0  0  0  0  0  0  0  0  0  0  0
   22.3150   -5.0510  -13.5856 C   0  0  0  0  0  0  0  0  0  0  0  0
   23.1342   -3.9734  -13.8527 O   0  0  0  0  0  0  0  0  0  0  0  0
   17.6462   -4.5052  -15.1211 O   0  0  0  0  0  0  0  0  0  0  0  0
   22.4984   -5.7048  -12.5362 O   0  0  0  0  0  0  0  0  0  0  0  0
  1  2  1  0
  2  3  1  0
  4  3  1  0
  5  1  1  0
  5  4  1  0
  5  6  1  1
  6  7  2  0
  9  8  1  1
  9 11  1  0
 10  9  1  0
 11 12  1  6
 11 13  1  0
 12  6  1  0
 13 15  1  0
 14 13  2  0
 15 16  1  0
 16 20  1  0
 16 17  1  1
 17 18  1  0
 18 22  1  0
 18 19  2  0
 20 23  2  0
 20 21  1  0
M  END
$$$$
