KFM.pdb
     RDKit          3D

 29 29  0  0  1  0  0  0  0  0999 V2000
   26.8389  -22.9784  -17.1516 N   0  0  0  0  0  0  0  0  0  0  0  0
   26.3697  -23.5035  -15.8817 C   0  0  1  0  0  0  0  0  0  0  0  0
   27.0098  -24.8325  -15.5684 C   0  0  0  0  0  0  0  0  0  0  0  0
   26.0540  -25.9723  -15.8657 C   0  0  0  0  0  0  0  0  0  0  0  0
   25.9200  -26.2102  -17.3495 C   0  0  0  0  0  0  0  0  0  0  0  0
   25.0387  -27.3894  -17.6566 C   0  0  0  0  0  0  0  0  0  0  0  0
   25.5929  -28.5940  -17.0437 N   0  0  0  0  0  0  0  0  0  0  0  0
   26.6980  -22.5031  -14.8046 C   0  0  0  0  0  0  0  0  0  0  0  0
   27.8602  -22.0436  -14.7297 O   0  0  0  0  0  0  0  0  0  0  0  0
   25.7057  -22.0786  -13.8750 N   0  0  0  0  0  0  0  0  0  0  0  0
   25.9239  -21.0990  -12.8673 C   0  0  1  0  0  0  0  0  0  0  0  0
   25.2465  -19.7928  -13.0311 C   0  0  0  0  0  0  0  0  0  0  0  0
   25.6108  -18.7162  -12.1221 C   0  0  0  0  0  0  0  0  0  0  0  0
   26.6943  -17.8783  -12.3516 C   0  0  0  0  0  0  0  0  0  0  0  0
   26.9799  -16.8728  -11.4522 C   0  0  0  0  0  0  0  0  0  0  0  0
   26.2211  -16.6681  -10.3182 C   0  0  0  0  0  0  0  0  0  0  0  0
   25.1580  -17.4894  -10.0909 C   0  0  0  0  0  0  0  0  0  0  0  0
   24.8664  -18.4984  -10.9907 C   0  0  0  0  0  0  0  0  0  0  0  0
   25.7399  -21.6538  -11.4755 C   0  0  0  0  0  0  0  0  0  0  0  0
   24.8164  -22.4180  -11.2330 O   0  0  0  0  0  0  0  0  0  0  0  0
   29.7122  -19.7689   -6.2765 C   0  0  0  0  0  0  0  0  0  0  0  0
   28.0264  -19.7435   -5.6087 S   0  0  0  0  0  0  0  0  0  0  0  0
   26.8580  -20.5649   -6.7176 C   0  0  0  0  0  0  0  0  0  0  0  0
   27.2329  -20.4163   -8.1833 C   0  0  0  0  0  0  0  0  0  0  0  0
   26.3389  -21.2718   -9.0552 C   0  0  2  0  0  0  0  0  0  0  0  0
   26.6761  -21.2529  -10.4472 N   0  0  0  0  0  0  0  0  0  0  0  0
   24.8974  -20.9014   -8.8497 C   0  0  0  0  0  0  0  0  0  0  0  0
   24.3388  -19.9423   -9.4373 O   0  0  0  0  0  0  0  0  0  0  0  0
   24.0581  -21.6069   -7.9721 O   0  0  0  0  0  0  0  0  0  0  0  0
  2  3  1  0
  2  1  1  6
  4  5  1  0
  4  3  1  0
  6  5  1  0
  7  6  1  0
  8 10  1  0
  8  2  1  0
  9  8  2  0
 11 10  1  0
 11 12  1  6
 13 12  1  0
 13 14  2  0
 15 14  1  0
 16 15  2  0
 17 18  2  0
 17 16  1  0
 18 13  1  0
 19 26  1  0
 19 11  1  0
 20 19  2  0
 21 22  1  0
 22 23  1  0
 23 24  1  0
 25 24  1  1
 25 27  1  0
 25 26  1  0
 27 29  1  0
 28 27  2  0
M  END
$$$$
