KFM.pdb
     RDKit          3D

 29 29  0  0  1  0  0  0  0  0999 V2000
   27.3955  -22.6831  -17.6422 N   0  0  0  0  0  0  0  0  0  0  0  0
   27.5067  -21.4603  -16.8671 C   0  0  1  0  0  0  0  0  0  0  0  0
   26.9472  -20.2807  -17.6217 C   0  0  0  0  0  0  0  0  0  0  0  0
   27.4227  -20.2899  -19.0621 C   0  0  0  0  0  0  0  0  0  0  0  0
   28.7346  -19.5611  -19.2170 C   0  0  0  0  0  0  0  0  0  0  0  0
   28.5402  -18.0869  -19.4420 C   0  0  0  0  0  0  0  0  0  0  0  0
   27.7725  -17.8703  -20.6657 N   0  0  0  0  0  0  0  0  0  0  0  0
   26.7598  -21.6497  -15.5730 C   0  0  0  0  0  0  0  0  0  0  0  0
   25.6623  -22.2521  -15.5822 O   0  0  0  0  0  0  0  0  0  0  0  0
   27.2858  -21.1518  -14.3464 N   0  0  0  0  0  0  0  0  0  0  0  0
   26.5507  -21.0888  -13.1305 C   0  0  1  0  0  0  0  0  0  0  0  0
   27.3025  -20.7612  -11.8979 C   0  0  0  0  0  0  0  0  0  0  0  0
   26.5599  -20.6684  -10.6498 C   0  0  0  0  0  0  0  0  0  0  0  0
   25.8667  -21.7441  -10.1103 C   0  0  0  0  0  0  0  0  0  0  0  0
   25.1888  -21.5892   -8.9196 C   0  0  0  0  0  0  0  0  0  0  0  0
   25.1719  -20.3897   -8.2379 C   0  0  0  0  0  0  0  0  0  0  0  0
   25.8509  -19.3330   -8.7656 C   0  0  0  0  0  0  0  0  0  0  0  0
   26.5337  -19.4836   -9.9589 C   0  0  0  0  0  0  0  0  0  0  0  0
   25.2967  -20.2581  -13.2582 C   0  0  0  0  0  0  0  0  0  0  0  0
   25.3551  -19.1145  -13.6874 O   0  0  0  0  0  0  0  0  0  0  0  0
   21.8733  -18.9535  -17.3462 C   0  0  0  0  0  0  0  0  0  0  0  0
   20.5095  -18.7950  -16.1615 S   0  0  0  0  0  0  0  0  0  0  0  0
   21.0473  -19.1577  -14.4737 C   0  0  0  0  0  0  0  0  0  0  0  0
   22.3949  -19.8593  -14.4228 C   0  0  0  0  0  0  0  0  0  0  0  0
   22.7902  -20.1587  -12.9926 C   0  0  2  0  0  0  0  0  0  0  0  0
   24.0381  -20.8485  -12.8555 N   0  0  0  0  0  0  0  0  0  0  0  0
   21.6895  -20.9011  -12.2896 C   0  0  0  0  0  0  0  0  0  0  0  0
   20.8140  -20.3381  -11.5869 O   0  0  0  0  0  0  0  0  0  0  0  0
   21.5579  -22.2974  -12.3643 O   0  0  0  0  0  0  0  0  0  0  0  0
  2  3  1  0
  2  1  1  6
  4  5  1  0
  4  3  1  0
  6  5  1  0
  7  6  1  0
  8 10  1  0
  8  2  1  0
  9  8  2  0
 11 10  1  0
 11 12  1  1
 13 12  1  0
 13 14  2  0
 15 14  1  0
 16 15  2  0
 17 18  2  0
 17 16  1  0
 18 13  1  0
 19 26  1  0
 19 11  1  0
 20 19  2  0
 21 22  1  0
 22 23  1  0
 23 24  1  0
 25 24  1  6
 25 27  1  0
 25 26  1  0
 27 29  1  0
 28 27  2  0
M  END
$$$$
