KFM.pdb
     RDKit          3D

 29 29  0  0  1  0  0  0  0  0999 V2000
   27.9415  -21.0561  -16.5974 N   0  0  0  0  0  0  0  0  0  0  0  0
   26.7205  -21.8346  -16.4895 C   0  0  1  0  0  0  0  0  0  0  0  0
   26.8916  -23.2075  -17.0895 C   0  0  0  0  0  0  0  0  0  0  0  0
   27.8521  -23.1650  -18.2628 C   0  0  0  0  0  0  0  0  0  0  0  0
   27.7017  -21.8904  -19.0559 C   0  0  0  0  0  0  0  0  0  0  0  0
   28.9102  -21.6053  -19.9042 C   0  0  0  0  0  0  0  0  0  0  0  0
   28.7313  -22.1877  -21.2318 N   0  0  0  0  0  0  0  0  0  0  0  0
   26.3573  -21.9472  -15.0321 C   0  0  0  0  0  0  0  0  0  0  0  0
   25.4589  -22.7471  -14.6853 O   0  0  0  0  0  0  0  0  0  0  0  0
   27.0206  -21.1559  -14.0508 N   0  0  0  0  0  0  0  0  0  0  0  0
   26.6127  -21.0640  -12.6915 C   0  0  1  0  0  0  0  0  0  0  0  0
   27.6351  -20.6565  -11.7012 C   0  0  0  0  0  0  0  0  0  0  0  0
   27.2043  -20.4284  -10.3299 C   0  0  0  0  0  0  0  0  0  0  0  0
   26.2028  -19.5241  -10.0014 C   0  0  0  0  0  0  0  0  0  0  0  0
   25.8385  -19.3614   -8.6814 C   0  0  0  0  0  0  0  0  0  0  0  0
   26.4414  -20.0709   -7.6632 C   0  0  0  0  0  0  0  0  0  0  0  0
   27.4244  -20.9582   -7.9832 C   0  0  0  0  0  0  0  0  0  0  0  0
   27.7926  -21.1262   -9.3058 C   0  0  0  0  0  0  0  0  0  0  0  0
   25.3316  -20.2829  -12.5264 C   0  0  0  0  0  0  0  0  0  0  0  0
   25.2561  -19.1296  -12.9261 O   0  0  0  0  0  0  0  0  0  0  0  0
   18.2013  -20.2816  -14.9225 C   0  0  0  0  0  0  0  0  0  0  0  0
   19.7978  -21.1191  -14.7270 S   0  0  0  0  0  0  0  0  0  0  0  0
   20.7274  -20.4619  -13.3222 C   0  0  0  0  0  0  0  0  0  0  0  0
   22.1473  -21.0001  -13.2517 C   0  0  0  0  0  0  0  0  0  0  0  0
   22.8647  -20.4632  -12.0317 C   0  0  2  0  0  0  0  0  0  0  0  0
   24.2099  -20.9320  -11.8820 N   0  0  0  0  0  0  0  0  0  0  0  0
   22.0629  -20.7356  -10.7906 C   0  0  0  0  0  0  0  0  0  0  0  0
   22.3202  -21.6697   -9.9916 O   0  0  0  0  0  0  0  0  0  0  0  0
   20.9505  -19.9582  -10.4291 O   0  0  0  0  0  0  0  0  0  0  0  0
  2  3  1  0
  2  1  1  1
  4  5  1  0
  4  3  1  0
  6  5  1  0
  7  6  1  0
  8 10  1  0
  8  2  1  0
  9  8  2  0
 11 10  1  0
 11 12  1  1
 13 12  1  0
 13 14  2  0
 15 14  1  0
 16 15  2  0
 17 18  2  0
 17 16  1  0
 18 13  1  0
 19 26  1  0
 19 11  1  0
 20 19  2  0
 21 22  1  0
 22 23  1  0
 23 24  1  0
 25 24  1  6
 25 27  1  0
 25 26  1  0
 27 29  1  0
 28 27  2  0
M  END
$$$$
