KFM.pdb
     RDKit          3D

 29 29  0  0  1  0  0  0  0  0999 V2000
   25.8352  -24.6441  -15.4188 N   0  0  0  0  0  0  0  0  0  0  0  0
   24.9277  -23.6405  -15.9460 C   0  0  1  0  0  0  0  0  0  0  0  0
   24.2187  -24.1377  -17.1805 C   0  0  0  0  0  0  0  0  0  0  0  0
   25.2182  -24.5528  -18.2435 C   0  0  0  0  0  0  0  0  0  0  0  0
   25.6941  -23.3689  -19.0486 C   0  0  0  0  0  0  0  0  0  0  0  0
   26.6603  -23.7703  -20.1289 C   0  0  0  0  0  0  0  0  0  0  0  0
   27.1537  -22.5808  -20.8182 N   0  0  0  0  0  0  0  0  0  0  0  0
   23.9257  -23.2980  -14.8750 C   0  0  0  0  0  0  0  0  0  0  0  0
   23.4666  -24.2110  -14.1517 O   0  0  0  0  0  0  0  0  0  0  0  0
   23.4964  -21.9539  -14.6792 N   0  0  0  0  0  0  0  0  0  0  0  0
   22.6083  -21.5426  -13.6474 C   0  0  1  0  0  0  0  0  0  0  0  0
   23.0208  -20.3897  -12.8151 C   0  0  0  0  0  0  0  0  0  0  0  0
   24.0414  -20.6103  -11.8014 C   0  0  0  0  0  0  0  0  0  0  0  0
   25.3472  -20.9608  -12.1187 C   0  0  0  0  0  0  0  0  0  0  0  0
   26.2666  -21.1483  -11.1083 C   0  0  0  0  0  0  0  0  0  0  0  0
   25.9320  -21.0010   -9.7779 C   0  0  0  0  0  0  0  0  0  0  0  0
   24.6514  -20.6576   -9.4643 C   0  0  0  0  0  0  0  0  0  0  0  0
   23.7257  -20.4670  -10.4741 C   0  0  0  0  0  0  0  0  0  0  0  0
   21.1865  -21.4006  -14.1343 C   0  0  0  0  0  0  0  0  0  0  0  0
   20.9241  -20.6481  -15.0619 O   0  0  0  0  0  0  0  0  0  0  0  0
   16.2707  -25.4432  -11.9512 C   0  0  0  0  0  0  0  0  0  0  0  0
   15.3969  -24.3707  -13.1238 S   0  0  0  0  0  0  0  0  0  0  0  0
   16.4825  -23.0869  -13.7891 C   0  0  0  0  0  0  0  0  0  0  0  0
   17.9210  -23.2298  -13.3189 C   0  0  0  0  0  0  0  0  0  0  0  0
   18.7816  -22.1176  -13.8789 C   0  0  2  0  0  0  0  0  0  0  0  0
   20.1541  -22.1693  -13.4725 N   0  0  0  0  0  0  0  0  0  0  0  0
   18.1800  -20.7785  -13.5593 C   0  0  0  0  0  0  0  0  0  0  0  0
   18.3647  -20.1787  -12.4715 O   0  0  0  0  0  0  0  0  0  0  0  0
   17.3537  -20.0910  -14.4632 O   0  0  0  0  0  0  0  0  0  0  0  0
  2  3  1  0
  2  1  1  1
  4  5  1  0
  4  3  1  0
  6  5  1  0
  7  6  1  0
  8 10  1  0
  8  2  1  0
  9  8  2  0
 11 10  1  0
 11 12  1  6
 13 12  1  0
 13 14  2  0
 15 14  1  0
 16 15  2  0
 17 18  2  0
 17 16  1  0
 18 13  1  0
 19 26  1  0
 19 11  1  0
 20 19  2  0
 21 22  1  0
 22 23  1  0
 23 24  1  0
 25 24  1  1
 25 27  1  0
 25 26  1  0
 27 29  1  0
 28 27  2  0
M  END
$$$$
