KFM.pdb
     RDKit          3D

 29 29  0  0  1  0  0  0  0  0999 V2000
   26.6384  -21.9661  -13.4232 N   0  0  0  0  0  0  0  0  0  0  0  0
   25.9049  -20.9270  -12.7227 C   0  0  1  0  0  0  0  0  0  0  0  0
   24.4478  -20.9284  -13.1110 C   0  0  0  0  0  0  0  0  0  0  0  0
   24.2781  -20.5181  -14.5615 C   0  0  0  0  0  0  0  0  0  0  0  0
   24.7721  -19.1128  -14.8009 C   0  0  0  0  0  0  0  0  0  0  0  0
   24.4515  -18.6285  -16.1881 C   0  0  0  0  0  0  0  0  0  0  0  0
   23.0044  -18.5108  -16.3488 N   0  0  0  0  0  0  0  0  0  0  0  0
   26.0471  -21.1626  -11.2418 C   0  0  0  0  0  0  0  0  0  0  0  0
   25.5363  -22.1861  -10.7330 O   0  0  0  0  0  0  0  0  0  0  0  0
   26.7514  -20.2370  -10.4193 N   0  0  0  0  0  0  0  0  0  0  0  0
   26.8149  -20.3184   -9.0008 C   0  0  1  0  0  0  0  0  0  0  0  0
   27.8887  -19.5565   -8.3237 C   0  0  0  0  0  0  0  0  0  0  0  0
   27.9535  -19.6126   -6.8710 C   0  0  0  0  0  0  0  0  0  0  0  0
   28.3564  -20.7501   -6.1838 C   0  0  0  0  0  0  0  0  0  0  0  0
   28.4015  -20.7329   -4.8057 C   0  0  0  0  0  0  0  0  0  0  0  0
   28.0545  -19.6145   -4.0761 C   0  0  0  0  0  0  0  0  0  0  0  0
   27.6584  -18.4975   -4.7483 C   0  0  0  0  0  0  0  0  0  0  0  0
   27.6129  -18.5091   -6.1306 C   0  0  0  0  0  0  0  0  0  0  0  0
   25.4719  -20.0905   -8.3504 C   0  0  0  0  0  0  0  0  0  0  0  0
   24.8224  -19.0875   -8.6105 O   0  0  0  0  0  0  0  0  0  0  0  0
   20.1409  -20.6140   -9.8586 C   0  0  0  0  0  0  0  0  0  0  0  0
   19.8184  -21.4604   -8.2876 S   0  0  0  0  0  0  0  0  0  0  0  0
   21.2035  -21.2834   -7.1388 C   0  0  0  0  0  0  0  0  0  0  0  0
   22.5531  -21.2861   -7.8383 C   0  0  0  0  0  0  0  0  0  0  0  0
   23.6696  -21.0216   -6.8511 C   0  0  2  0  0  0  0  0  0  0  0  0
   24.9850  -21.0819   -7.4150 N   0  0  0  0  0  0  0  0  0  0  0  0
   23.5525  -21.9417   -5.6692 C   0  0  0  0  0  0  0  0  0  0  0  0
   24.2892  -22.9441   -5.4969 O   0  0  0  0  0  0  0  0  0  0  0  0
   22.5967  -21.7486   -4.6584 O   0  0  0  0  0  0  0  0  0  0  0  0
  2  3  1  0
  2  1  1  6
  4  5  1  0
  4  3  1  0
  6  5  1  0
  7  6  1  0
  8 10  1  0
  8  2  1  0
  9  8  2  0
 11 10  1  0
 11 12  1  1
 13 12  1  0
 13 14  2  0
 15 14  1  0
 16 15  2  0
 17 18  2  0
 17 16  1  0
 18 13  1  0
 19 26  1  0
 19 11  1  0
 20 19  2  0
 21 22  1  0
 22 23  1  0
 23 24  1  0
 25 24  1  6
 25 27  1  0
 25 26  1  0
 27 29  1  0
 28 27  2  0
M  END
$$$$
