KFM.pdb
     RDKit          3D

 29 29  0  0  1  0  0  0  0  0999 V2000
   24.2682  -21.0473  -15.4134 N   0  0  0  0  0  0  0  0  0  0  0  0
   24.2768  -22.3969  -14.8777 C   0  0  1  0  0  0  0  0  0  0  0  0
   24.8127  -23.3827  -15.8851 C   0  0  0  0  0  0  0  0  0  0  0  0
   23.8309  -23.5721  -17.0259 C   0  0  0  0  0  0  0  0  0  0  0  0
   23.7833  -22.3597  -17.9226 C   0  0  0  0  0  0  0  0  0  0  0  0
   22.4152  -22.1416  -18.5078 C   0  0  0  0  0  0  0  0  0  0  0  0
   22.0366  -23.2931  -19.3231 N   0  0  0  0  0  0  0  0  0  0  0  0
   25.1297  -22.4087  -13.6363 C   0  0  0  0  0  0  0  0  0  0  0  0
   25.3114  -23.4882  -13.0287 O   0  0  0  0  0  0  0  0  0  0  0  0
   25.7266  -21.2108  -13.1487 N   0  0  0  0  0  0  0  0  0  0  0  0
   26.5328  -21.1400  -11.9792 C   0  0  1  0  0  0  0  0  0  0  0  0
   27.4758  -20.0038  -11.8715 C   0  0  0  0  0  0  0  0  0  0  0  0
   28.3815  -19.9741  -10.7327 C   0  0  0  0  0  0  0  0  0  0  0  0
   29.5535  -20.7179  -10.6899 C   0  0  0  0  0  0  0  0  0  0  0  0
   30.3705  -20.6380   -9.5819 C   0  0  0  0  0  0  0  0  0  0  0  0
   30.0612  -19.8387   -8.5007 C   0  0  0  0  0  0  0  0  0  0  0  0
   28.9116  -19.1085   -8.5405 C   0  0  0  0  0  0  0  0  0  0  0  0
   28.0894  -19.1840   -9.6501 C   0  0  0  0  0  0  0  0  0  0  0  0
   25.7293  -21.3218  -10.7143 C   0  0  0  0  0  0  0  0  0  0  0  0
   24.5215  -21.1301  -10.7174 O   0  0  0  0  0  0  0  0  0  0  0  0
   28.7443  -20.6607   -4.7470 C   0  0  0  0  0  0  0  0  0  0  0  0
   26.9706  -20.4312   -4.4472 S   0  0  0  0  0  0  0  0  0  0  0  0
   25.9733  -21.1229   -5.7874 C   0  0  0  0  0  0  0  0  0  0  0  0
   26.6689  -21.0509   -7.1371 C   0  0  0  0  0  0  0  0  0  0  0  0
   25.8095  -21.6718   -8.2175 C   0  0  2  0  0  0  0  0  0  0  0  0
   26.4259  -21.7196   -9.5096 N   0  0  0  0  0  0  0  0  0  0  0  0
   24.4764  -20.9826   -8.2868 C   0  0  0  0  0  0  0  0  0  0  0  0
   24.2346  -20.0190   -9.0551 O   0  0  0  0  0  0  0  0  0  0  0  0
   23.3890  -21.3674   -7.4855 O   0  0  0  0  0  0  0  0  0  0  0  0
  2  3  1  0
  2  1  1  6
  4  5  1  0
  4  3  1  0
  6  5  1  0
  7  6  1  0
  8 10  1  0
  8  2  1  0
  9  8  2  0
 11 10  1  0
 11 12  1  1
 13 12  1  0
 13 14  2  0
 15 14  1  0
 16 15  2  0
 17 18  2  0
 17 16  1  0
 18 13  1  0
 19 26  1  0
 19 11  1  0
 20 19  2  0
 21 22  1  0
 22 23  1  0
 23 24  1  0
 25 24  1  1
 25 27  1  0
 25 26  1  0
 27 29  1  0
 28 27  2  0
M  END
$$$$
