KFM.pdb
     RDKit          3D

 29 29  0  0  1  0  0  0  0  0999 V2000
   26.0869  -34.1736   -9.2560 N   0  0  0  0  0  0  0  0  0  0  0  0
   26.3684  -33.3855   -8.0694 C   0  0  1  0  0  0  0  0  0  0  0  0
   25.1112  -33.1107   -7.2834 C   0  0  0  0  0  0  0  0  0  0  0  0
   24.1036  -32.3550   -8.1289 C   0  0  0  0  0  0  0  0  0  0  0  0
   22.8606  -33.1742   -8.3735 C   0  0  0  0  0  0  0  0  0  0  0  0
   21.8154  -32.4045   -9.1328 C   0  0  0  0  0  0  0  0  0  0  0  0
   20.6793  -33.2734   -9.4297 N   0  0  0  0  0  0  0  0  0  0  0  0
   27.3555  -34.1430   -7.2205 C   0  0  0  0  0  0  0  0  0  0  0  0
   27.4124  -35.3902   -7.3134 O   0  0  0  0  0  0  0  0  0  0  0  0
   28.2185  -33.4585   -6.3172 N   0  0  0  0  0  0  0  0  0  0  0  0
   29.2619  -34.0851   -5.5814 C   0  0  1  0  0  0  0  0  0  0  0  0
   30.5566  -33.3721   -5.4965 C   0  0  0  0  0  0  0  0  0  0  0  0
   31.6564  -34.0337   -4.8105 C   0  0  0  0  0  0  0  0  0  0  0  0
   31.7958  -34.0141   -3.4289 C   0  0  0  0  0  0  0  0  0  0  0  0
   32.8589  -34.6679   -2.8425 C   0  0  0  0  0  0  0  0  0  0  0  0
   33.8015  -35.3466   -3.5872 C   0  0  0  0  0  0  0  0  0  0  0  0
   33.6669  -35.3666   -4.9428 C   0  0  0  0  0  0  0  0  0  0  0  0
   32.6015  -34.7136   -5.5358 C   0  0  0  0  0  0  0  0  0  0  0  0
   28.8010  -34.5706   -4.2284 C   0  0  0  0  0  0  0  0  0  0  0  0
   28.3166  -33.7872   -3.4238 O   0  0  0  0  0  0  0  0  0  0  0  0
   26.2606  -40.7082    0.0916 C   0  0  0  0  0  0  0  0  0  0  0  0
   27.0266  -40.2072   -1.4738 S   0  0  0  0  0  0  0  0  0  0  0  0
   27.6094  -38.4966   -1.4131 C   0  0  0  0  0  0  0  0  0  0  0  0
   28.1109  -37.9969   -2.7583 C   0  0  0  0  0  0  0  0  0  0  0  0
   28.5010  -36.5366   -2.6768 C   0  0  2  0  0  0  0  0  0  0  0  0
   28.9541  -35.9751   -3.9142 N   0  0  0  0  0  0  0  0  0  0  0  0
   29.5174  -36.3260   -1.5907 C   0  0  0  0  0  0  0  0  0  0  0  0
   30.7498  -36.5064   -1.7517 O   0  0  0  0  0  0  0  0  0  0  0  0
   29.1602  -35.9095   -0.2978 O   0  0  0  0  0  0  0  0  0  0  0  0
  2  3  1  0
  2  1  1  6
  4  5  1  0
  4  3  1  0
  6  5  1  0
  7  6  1  0
  8 10  1  0
  8  2  1  0
  9  8  2  0
 11 10  1  0
 11 12  1  1
 13 12  1  0
 13 14  2  0
 15 14  1  0
 16 15  2  0
 17 18  2  0
 17 16  1  0
 18 13  1  0
 19 26  1  0
 19 11  1  0
 20 19  2  0
 21 22  1  0
 22 23  1  0
 23 24  1  0
 25 24  1  6
 25 27  1  0
 25 26  1  0
 27 29  1  0
 28 27  2  0
M  END
$$$$
