KFM.pdb
     RDKit          3D

 29 29  0  0  1  0  0  0  0  0999 V2000
   24.2373  -19.5200  -11.3370 N   0  0  0  0  0  0  0  0  0  0  0  0
   24.5783  -20.9293  -11.2589 C   0  0  1  0  0  0  0  0  0  0  0  0
   25.2224  -21.4085  -12.5354 C   0  0  0  0  0  0  0  0  0  0  0  0
   24.5428  -20.7932  -13.7439 C   0  0  0  0  0  0  0  0  0  0  0  0
   25.1785  -21.2550  -15.0318 C   0  0  0  0  0  0  0  0  0  0  0  0
   24.5864  -20.5707  -16.2329 C   0  0  0  0  0  0  0  0  0  0  0  0
   25.2958  -20.9879  -17.4397 N   0  0  0  0  0  0  0  0  0  0  0  0
   25.5178  -21.1261  -10.0983 C   0  0  0  0  0  0  0  0  0  0  0  0
   25.9714  -22.2694   -9.8650 O   0  0  0  0  0  0  0  0  0  0  0  0
   25.8916  -20.0312   -9.2673 N   0  0  0  0  0  0  0  0  0  0  0  0
   26.7128  -20.1504   -8.1123 C   0  0  1  0  0  0  0  0  0  0  0  0
   27.6488  -19.0396   -7.8262 C   0  0  0  0  0  0  0  0  0  0  0  0
   28.5054  -19.1534   -6.6552 C   0  0  0  0  0  0  0  0  0  0  0  0
   29.5106  -20.1061   -6.5538 C   0  0  0  0  0  0  0  0  0  0  0  0
   30.2909  -20.1545   -5.4178 C   0  0  0  0  0  0  0  0  0  0  0  0
   30.1055  -19.2822   -4.3651 C   0  0  0  0  0  0  0  0  0  0  0  0
   29.1196  -18.3469   -4.4623 C   0  0  0  0  0  0  0  0  0  0  0  0
   28.3351  -18.2933   -5.6002 C   0  0  0  0  0  0  0  0  0  0  0  0
   25.9277  -20.5500   -6.8865 C   0  0  0  0  0  0  0  0  0  0  0  0
   24.8783  -19.9841   -6.6141 O   0  0  0  0  0  0  0  0  0  0  0  0
   25.0247  -25.8861   -1.0484 C   0  0  0  0  0  0  0  0  0  0  0  0
   26.2239  -25.1920   -2.2182 S   0  0  0  0  0  0  0  0  0  0  0  0
   25.6149  -23.6638   -2.9686 C   0  0  0  0  0  0  0  0  0  0  0  0
   26.4002  -23.2616   -4.2065 C   0  0  0  0  0  0  0  0  0  0  0  0
   25.7959  -22.0316   -4.8492 C   0  0  2  0  0  0  0  0  0  0  0  0
   26.4526  -21.6078   -6.0496 N   0  0  0  0  0  0  0  0  0  0  0  0
   25.7188  -20.9064   -3.8567 C   0  0  0  0  0  0  0  0  0  0  0  0
   26.6919  -20.1642   -3.5750 O   0  0  0  0  0  0  0  0  0  0  0  0
   24.5391  -20.5992   -3.1592 O   0  0  0  0  0  0  0  0  0  0  0  0
  2  3  1  0
  2  1  1  6
  4  5  1  0
  4  3  1  0
  6  5  1  0
  7  6  1  0
  8 10  1  0
  8  2  1  0
  9  8  2  0
 11 10  1  0
 11 12  1  1
 13 12  1  0
 13 14  2  0
 15 14  1  0
 16 15  2  0
 17 18  2  0
 17 16  1  0
 18 13  1  0
 19 26  1  0
 19 11  1  0
 20 19  2  0
 21 22  1  0
 22 23  1  0
 23 24  1  0
 25 24  1  1
 25 27  1  0
 25 26  1  0
 27 29  1  0
 28 27  2  0
M  END
$$$$
