GAF.pdb
     RDKit          3D

 21 21  0  0  1  0  0  0  0  0999 V2000
   26.6594  -18.2785  -14.5975 N   0  0  0  0  0  0  0  0  0  0  0  0
   27.0224  -18.2271  -13.2060 C   0  0  0  0  0  0  0  0  0  0  0  0
   27.3515  -19.6044  -12.6883 C   0  0  0  0  0  0  0  0  0  0  0  0
   26.6915  -20.5863  -13.0737 O   0  0  0  0  0  0  0  0  0  0  0  0
   30.2576  -21.1146  -10.8502 C   0  0  0  0  0  0  0  0  0  0  0  0
   28.7905  -21.0712  -11.2205 C   0  0  2  0  0  0  0  0  0  0  0  0
   28.4152  -19.7787  -11.7609 N   0  0  0  0  0  0  0  0  0  0  0  0
   27.9240  -21.3424  -10.0376 C   0  0  0  0  0  0  0  0  0  0  0  0
   27.9608  -22.4610   -9.4550 O   0  0  0  0  0  0  0  0  0  0  0  0
   27.0258  -20.3798   -9.5079 N   0  0  0  0  0  0  0  0  0  0  0  0
   26.1964  -20.6777   -8.3205 C   0  0  1  0  0  0  0  0  0  0  0  0
   26.1989  -19.5406   -7.3677 C   0  0  0  0  0  0  0  0  0  0  0  0
   27.3191  -19.6689   -6.4153 C   0  0  0  0  0  0  0  0  0  0  0  0
   27.3188  -20.6934   -5.4579 C   0  0  0  0  0  0  0  0  0  0  0  0
   28.3466  -20.8807   -4.5612 C   0  0  0  0  0  0  0  0  0  0  0  0
   29.4123  -20.0344   -4.6041 C   0  0  0  0  0  0  0  0  0  0  0  0
   29.4709  -19.0109   -5.5199 C   0  0  0  0  0  0  0  0  0  0  0  0
   28.4341  -18.8381   -6.4096 C   0  0  0  0  0  0  0  0  0  0  0  0
   24.8446  -20.9817   -8.7860 C   0  0  0  0  0  0  0  0  0  0  0  0
   24.5406  -20.8073   -9.9920 O   0  0  0  0  0  0  0  0  0  0  0  0
   23.8606  -21.4676   -7.9250 O   0  0  0  0  0  0  0  0  0  0  0  0
  1  2  1  0
  3  2  1  0
  3  4  2  0
  6  5  1  1
  6  7  1  0
  7  3  1  0
  8 10  1  0
  8  6  1  0
  9  8  2  0
 11 10  1  0
 11 12  1  1
 12 13  1  0
 13 14  2  0
 13 18  1  0
 14 15  1  0
 15 16  2  0
 17 16  1  0
 18 17  2  0
 19 11  1  0
 20 19  2  0
 21 19  1  0
M  END
$$$$
