GAF.pdb
     RDKit          3D

 21 21  0  0  1  0  0  0  0  0999 V2000
   27.9343  -17.6224  -14.9075 N   0  0  0  0  0  0  0  0  0  0  0  0
   27.8096  -18.9876  -14.4699 C   0  0  0  0  0  0  0  0  0  0  0  0
   26.9661  -19.0742  -13.2232 C   0  0  0  0  0  0  0  0  0  0  0  0
   26.9424  -18.1220  -12.4226 O   0  0  0  0  0  0  0  0  0  0  0  0
   24.2533  -21.4330  -12.0666 C   0  0  0  0  0  0  0  0  0  0  0  0
   25.3028  -20.3678  -11.8314 C   0  0  2  0  0  0  0  0  0  0  0  0
   26.1994  -20.2435  -12.9647 N   0  0  0  0  0  0  0  0  0  0  0  0
   26.1266  -20.6742  -10.6269 C   0  0  0  0  0  0  0  0  0  0  0  0
   27.0502  -21.5323  -10.6794 O   0  0  0  0  0  0  0  0  0  0  0  0
   25.9257  -20.0333   -9.3768 N   0  0  0  0  0  0  0  0  0  0  0  0
   26.7664  -20.3593   -8.2048 C   0  0  1  0  0  0  0  0  0  0  0  0
   27.3814  -19.1372   -7.6314 C   0  0  0  0  0  0  0  0  0  0  0  0
   28.0934  -19.4578   -6.3789 C   0  0  0  0  0  0  0  0  0  0  0  0
   27.6110  -18.9837   -5.1506 C   0  0  0  0  0  0  0  0  0  0  0  0
   28.2153  -19.2712   -3.9473 C   0  0  0  0  0  0  0  0  0  0  0  0
   29.3317  -20.0507   -3.9477 C   0  0  0  0  0  0  0  0  0  0  0  0
   29.8528  -20.5457   -5.1195 C   0  0  0  0  0  0  0  0  0  0  0  0
   29.2355  -20.2483   -6.3140 C   0  0  0  0  0  0  0  0  0  0  0  0
   25.9217  -21.0418   -7.2264 C   0  0  0  0  0  0  0  0  0  0  0  0
   26.4444  -21.7373   -6.3206 O   0  0  0  0  0  0  0  0  0  0  0  0
   24.5304  -20.9480   -7.2613 O   0  0  0  0  0  0  0  0  0  0  0  0
  1  2  1  0
  3  2  1  0
  3  4  2  0
  6  5  1  6
  6  7  1  0
  7  3  1  0
  8 10  1  0
  8  6  1  0
  9  8  2  0
 11 10  1  0
 11 12  1  1
 12 13  1  0
 13 14  2  0
 13 18  1  0
 14 15  1  0
 15 16  2  0
 17 16  1  0
 18 17  2  0
 19 11  1  0
 20 19  2  0
 21 19  1  0
M  END
$$$$
