GAF.pdb
     RDKit          3D

 21 21  0  0  1  0  0  0  0  0999 V2000
   25.8135  -16.7329  -15.5397 N   0  0  0  0  0  0  0  0  0  0  0  0
   26.8499  -17.0096  -14.5804 C   0  0  0  0  0  0  0  0  0  0  0  0
   27.0994  -18.4929  -14.4762 C   0  0  0  0  0  0  0  0  0  0  0  0
   26.8793  -19.2295  -15.4546 O   0  0  0  0  0  0  0  0  0  0  0  0
   29.3230  -20.6914  -12.7243 C   0  0  0  0  0  0  0  0  0  0  0  0
   27.8734  -20.4590  -13.0932 C   0  0  2  0  0  0  0  0  0  0  0  0
   27.5856  -19.0473  -13.2603 N   0  0  0  0  0  0  0  0  0  0  0  0
   26.9548  -20.9930  -12.0469 C   0  0  0  0  0  0  0  0  0  0  0  0
   26.9414  -22.2236  -11.7687 O   0  0  0  0  0  0  0  0  0  0  0  0
   26.0604  -20.1673  -11.3174 N   0  0  0  0  0  0  0  0  0  0  0  0
   25.1294  -20.7394  -10.3211 C   0  0  1  0  0  0  0  0  0  0  0  0
   25.0892  -19.9123   -9.0903 C   0  0  0  0  0  0  0  0  0  0  0  0
   26.3550  -20.0405   -8.3420 C   0  0  0  0  0  0  0  0  0  0  0  0
   27.1451  -21.1904   -8.4817 C   0  0  0  0  0  0  0  0  0  0  0  0
   28.3475  -21.3564   -7.8318 C   0  0  0  0  0  0  0  0  0  0  0  0
   28.7913  -20.3605   -7.0162 C   0  0  0  0  0  0  0  0  0  0  0  0
   28.0619  -19.2090   -6.8385 C   0  0  0  0  0  0  0  0  0  0  0  0
   26.8613  -19.0596   -7.4965 C   0  0  0  0  0  0  0  0  0  0  0  0
   23.8109  -20.8327  -10.9453 C   0  0  0  0  0  0  0  0  0  0  0  0
   22.8427  -21.3081  -10.3019 O   0  0  0  0  0  0  0  0  0  0  0  0
   23.5830  -20.4057  -12.2535 O   0  0  0  0  0  0  0  0  0  0  0  0
  1  2  1  0
  3  2  1  0
  3  4  2  0
  6  5  1  1
  6  7  1  0
  7  3  1  0
  8 10  1  0
  8  6  1  0
  9  8  2  0
 11 10  1  0
 11 12  1  1
 12 13  1  0
 13 14  2  0
 13 18  1  0
 14 15  1  0
 15 16  2  0
 17 16  1  0
 18 17  2  0
 19 11  1  0
 20 19  2  0
 21 19  1  0
M  END
$$$$
