GAF.pdb
     RDKit          3D

 21 21  0  0  1  0  0  0  0  0999 V2000
   20.3419  -15.6711  -15.6616 N   0  0  0  0  0  0  0  0  0  0  0  0
   19.6369  -14.5335  -16.1904 C   0  0  0  0  0  0  0  0  0  0  0  0
   20.5779  -13.3758  -16.4085 C   0  0  0  0  0  0  0  0  0  0  0  0
   21.6227  -13.2905  -15.7382 O   0  0  0  0  0  0  0  0  0  0  0  0
   20.8188  -10.6566  -19.0300 C   0  0  0  0  0  0  0  0  0  0  0  0
   21.1567  -11.2797  -17.6925 C   0  0  2  0  0  0  0  0  0  0  0  0
   20.2696  -12.3837  -17.3794 N   0  0  0  0  0  0  0  0  0  0  0  0
   21.0549  -10.2829  -16.5882 C   0  0  0  0  0  0  0  0  0  0  0  0
   19.9671  -10.1133  -15.9717 O   0  0  0  0  0  0  0  0  0  0  0  0
   22.1512   -9.4827  -16.1735 N   0  0  0  0  0  0  0  0  0  0  0  0
   22.0163   -8.5138  -15.0647 C   0  0  1  0  0  0  0  0  0  0  0  0
   23.1083   -8.6791  -14.0744 C   0  0  0  0  0  0  0  0  0  0  0  0
   24.3322   -9.1734  -14.7348 C   0  0  0  0  0  0  0  0  0  0  0  0
   25.0380   -8.3492  -15.6229 C   0  0  0  0  0  0  0  0  0  0  0  0
   26.1996   -8.7435  -16.2482 C   0  0  0  0  0  0  0  0  0  0  0  0
   26.6867   -9.9894  -15.9944 C   0  0  0  0  0  0  0  0  0  0  0  0
   26.0400  -10.8437  -15.1332 C   0  0  0  0  0  0  0  0  0  0  0  0
   24.8794  -10.4329  -14.5162 C   0  0  0  0  0  0  0  0  0  0  0  0
   22.0184   -7.1714  -15.6432 C   0  0  0  0  0  0  0  0  0  0  0  0
   21.7299   -6.1788  -14.9299 O   0  0  0  0  0  0  0  0  0  0  0  0
   22.3348   -6.9468  -16.9830 O   0  0  0  0  0  0  0  0  0  0  0  0
  1  2  1  0
  3  2  1  0
  3  4  2  0
  6  5  1  6
  6  7  1  0
  7  3  1  0
  8 10  1  0
  8  6  1  0
  9  8  2  0
 11 10  1  0
 11 12  1  1
 12 13  1  0
 13 14  2  0
 13 18  1  0
 14 15  1  0
 15 16  2  0
 17 16  1  0
 18 17  2  0
 19 11  1  0
 20 19  2  0
 21 19  1  0
M  END
$$$$
