GAF.pdb
     RDKit          3D

 21 21  0  0  1  0  0  0  0  0999 V2000
   17.8787  -12.4073  -17.1839 N   0  0  0  0  0  0  0  0  0  0  0  0
   17.5663  -11.1445  -16.5686 C   0  0  0  0  0  0  0  0  0  0  0  0
   18.7178  -10.1816  -16.7106 C   0  0  0  0  0  0  0  0  0  0  0  0
   19.7820  -10.3926  -16.1015 O   0  0  0  0  0  0  0  0  0  0  0  0
   19.3316   -7.1020  -18.8509 C   0  0  0  0  0  0  0  0  0  0  0  0
   19.6490   -8.0662  -17.7280 C   0  0  2  0  0  0  0  0  0  0  0  0
   18.5854   -9.0342  -17.5402 N   0  0  0  0  0  0  0  0  0  0  0  0
   19.8485   -7.3483  -16.4364 C   0  0  0  0  0  0  0  0  0  0  0  0
   18.8688   -7.0931  -15.6832 O   0  0  0  0  0  0  0  0  0  0  0  0
   21.1240   -6.9184  -15.9867 N   0  0  0  0  0  0  0  0  0  0  0  0
   21.2835   -6.2104  -14.6983 C   0  0  1  0  0  0  0  0  0  0  0  0
   22.0587   -7.0266  -13.7321 C   0  0  0  0  0  0  0  0  0  0  0  0
   23.1957   -7.6823  -14.4072 C   0  0  0  0  0  0  0  0  0  0  0  0
   24.1202   -6.9199  -15.1354 C   0  0  0  0  0  0  0  0  0  0  0  0
   25.2149   -7.4701  -15.7637 C   0  0  0  0  0  0  0  0  0  0  0  0
   25.4105   -8.8146  -15.6753 C   0  0  0  0  0  0  0  0  0  0  0  0
   24.5392   -9.6153  -14.9757 C   0  0  0  0  0  0  0  0  0  0  0  0
   23.4495   -9.0483  -14.3532 C   0  0  0  0  0  0  0  0  0  0  0  0
   21.9429   -4.9344  -14.9697 C   0  0  0  0  0  0  0  0  0  0  0  0
   22.3245   -4.6588  -16.1340 O   0  0  0  0  0  0  0  0  0  0  0  0
   22.1687   -3.9932  -13.9652 O   0  0  0  0  0  0  0  0  0  0  0  0
  1  2  1  0
  3  2  1  0
  3  4  2  0
  6  5  1  6
  6  7  1  0
  7  3  1  0
  8 10  1  0
  8  6  1  0
  9  8  2  0
 11 10  1  0
 11 12  1  1
 12 13  1  0
 13 14  2  0
 13 18  1  0
 14 15  1  0
 15 16  2  0
 17 16  1  0
 18 17  2  0
 19 11  1  0
 20 19  2  0
 21 19  1  0
M  END
$$$$
