GAF.pdb
     RDKit          3D

 21 21  0  0  1  0  0  0  0  0999 V2000
   29.6535  -22.3570  -17.3267 N   0  0  0  0  0  0  0  0  0  0  0  0
   28.3667  -21.7490  -17.1139 C   0  0  0  0  0  0  0  0  0  0  0  0
   28.2731  -21.1684  -15.7256 C   0  0  0  0  0  0  0  0  0  0  0  0
   28.7102  -21.8106  -14.7536 O   0  0  0  0  0  0  0  0  0  0  0  0
   27.0956  -17.8460  -14.3093 C   0  0  0  0  0  0  0  0  0  0  0  0
   27.4650  -19.3111  -14.2175 C   0  0  2  0  0  0  0  0  0  0  0  0
   27.6856  -19.8884  -15.5296 N   0  0  0  0  0  0  0  0  0  0  0  0
   26.3934  -20.0998  -13.5442 C   0  0  0  0  0  0  0  0  0  0  0  0
   25.4454  -20.5987  -14.2107 O   0  0  0  0  0  0  0  0  0  0  0  0
   26.3761  -20.3314  -12.1442 N   0  0  0  0  0  0  0  0  0  0  0  0
   25.4066  -21.2668  -11.5344 C   0  0  1  0  0  0  0  0  0  0  0  0
   26.0373  -22.0587  -10.4501 C   0  0  0  0  0  0  0  0  0  0  0  0
   26.6416  -21.1643   -9.4434 C   0  0  0  0  0  0  0  0  0  0  0  0
   25.8348  -20.2948   -8.6957 C   0  0  0  0  0  0  0  0  0  0  0  0
   26.3359  -19.4570   -7.7247 C   0  0  0  0  0  0  0  0  0  0  0  0
   27.6748  -19.4718   -7.4778 C   0  0  0  0  0  0  0  0  0  0  0  0
   28.5177  -20.3023   -8.1776 C   0  0  0  0  0  0  0  0  0  0  0  0
   27.9994  -21.1339   -9.1452 C   0  0  0  0  0  0  0  0  0  0  0  0
   24.2809  -20.4792  -11.0353 C   0  0  0  0  0  0  0  0  0  0  0  0
   24.3758  -19.2298  -10.9508 O   0  0  0  0  0  0  0  0  0  0  0  0
   23.0822  -21.0743  -10.6419 O   0  0  0  0  0  0  0  0  0  0  0  0
  1  2  1  0
  3  2  1  0
  3  4  2  0
  6  5  1  6
  6  7  1  0
  7  3  1  0
  8 10  1  0
  8  6  1  0
  9  8  2  0
 11 10  1  0
 11 12  1  1
 12 13  1  0
 13 14  2  0
 13 18  1  0
 14 15  1  0
 15 16  2  0
 17 16  1  0
 18 17  2  0
 19 11  1  0
 20 19  2  0
 21 19  1  0
M  END
$$$$
