GAF.pdb
     RDKit          3D

 21 21  0  0  1  0  0  0  0  0999 V2000
   23.6349  -17.9756  -14.5697 N   0  0  0  0  0  0  0  0  0  0  0  0
   24.7739  -18.0399  -13.6925 C   0  0  0  0  0  0  0  0  0  0  0  0
   25.1341  -19.4721  -13.3887 C   0  0  0  0  0  0  0  0  0  0  0  0
   24.2448  -20.3417  -13.3538 O   0  0  0  0  0  0  0  0  0  0  0  0
   28.2704  -21.4830  -13.4444 C   0  0  0  0  0  0  0  0  0  0  0  0
   26.9119  -21.1823  -12.8483 C   0  0  2  0  0  0  0  0  0  0  0  0
   26.4890  -19.8264  -13.1425 N   0  0  0  0  0  0  0  0  0  0  0  0
   26.9207  -21.3481  -11.3664 C   0  0  0  0  0  0  0  0  0  0  0  0
   27.0300  -22.4928  -10.8469 O   0  0  0  0  0  0  0  0  0  0  0  0
   26.8091  -20.2526  -10.4712 N   0  0  0  0  0  0  0  0  0  0  0  0
   26.9517  -20.4386   -9.0112 C   0  0  1  0  0  0  0  0  0  0  0  0
   27.4291  -19.1953   -8.3579 C   0  0  0  0  0  0  0  0  0  0  0  0
   27.8151  -19.4639   -6.9589 C   0  0  0  0  0  0  0  0  0  0  0  0
   26.9197  -19.1932   -5.9144 C   0  0  0  0  0  0  0  0  0  0  0  0
   27.2115  -19.4472   -4.5930 C   0  0  0  0  0  0  0  0  0  0  0  0
   28.4234  -19.9854   -4.2843 C   0  0  0  0  0  0  0  0  0  0  0  0
   29.3439  -20.2732   -5.2639 C   0  0  0  0  0  0  0  0  0  0  0  0
   29.0353  -20.0129   -6.5805 C   0  0  0  0  0  0  0  0  0  0  0  0
   25.6522  -20.8532   -8.4857 C   0  0  0  0  0  0  0  0  0  0  0  0
   24.5956  -20.4628   -9.0411 O   0  0  0  0  0  0  0  0  0  0  0  0
   25.5390  -21.6819   -7.3694 O   0  0  0  0  0  0  0  0  0  0  0  0
  1  2  1  0
  3  2  1  0
  3  4  2  0
  6  5  1  1
  6  7  1  0
  7  3  1  0
  8 10  1  0
  8  6  1  0
  9  8  2  0
 11 10  1  0
 11 12  1  1
 12 13  1  0
 13 14  2  0
 13 18  1  0
 14 15  1  0
 15 16  2  0
 17 16  1  0
 18 17  2  0
 19 11  1  0
 20 19  2  0
 21 19  1  0
M  END
$$$$
