GAF.pdb
     RDKit          3D

 21 21  0  0  1  0  0  0  0  0999 V2000
   25.2981  -17.8636  -14.7278 N   0  0  0  0  0  0  0  0  0  0  0  0
   26.2401  -17.8899  -13.6402 C   0  0  0  0  0  0  0  0  0  0  0  0
   26.6099  -19.3085  -13.2879 C   0  0  0  0  0  0  0  0  0  0  0  0
   25.8643  -20.2461  -13.6245 O   0  0  0  0  0  0  0  0  0  0  0  0
   29.7266  -21.0296  -12.1129 C   0  0  0  0  0  0  0  0  0  0  0  0
   28.2192  -20.9067  -12.1775 C   0  0  2  0  0  0  0  0  0  0  0  0
   27.8097  -19.5723  -12.5716 N   0  0  0  0  0  0  0  0  0  0  0  0
   27.5932  -21.2070  -10.8578 C   0  0  0  0  0  0  0  0  0  0  0  0
   27.5771  -22.3848  -10.4056 O   0  0  0  0  0  0  0  0  0  0  0  0
   26.9913  -20.2080  -10.0492 N   0  0  0  0  0  0  0  0  0  0  0  0
   26.3287  -20.5521   -8.7728 C   0  0  1  0  0  0  0  0  0  0  0  0
   26.3822  -19.4166   -7.8196 C   0  0  0  0  0  0  0  0  0  0  0  0
   27.3872  -19.6725   -6.7694 C   0  0  0  0  0  0  0  0  0  0  0  0
   28.0360  -18.6026   -6.1366 C   0  0  0  0  0  0  0  0  0  0  0  0
   28.9619  -18.7765   -5.1324 C   0  0  0  0  0  0  0  0  0  0  0  0
   29.2624  -20.0434   -4.7343 C   0  0  0  0  0  0  0  0  0  0  0  0
   28.6597  -21.1333   -5.3162 C   0  0  0  0  0  0  0  0  0  0  0  0
   27.7359  -20.9410   -6.3192 C   0  0  0  0  0  0  0  0  0  0  0  0
   24.9498  -20.9319   -9.0746 C   0  0  0  0  0  0  0  0  0  0  0  0
   24.4842  -20.7468  -10.2262 O   0  0  0  0  0  0  0  0  0  0  0  0
   24.1156  -21.5030   -8.1136 O   0  0  0  0  0  0  0  0  0  0  0  0
  1  2  1  0
  3  2  1  0
  3  4  2  0
  6  5  1  1
  6  7  1  0
  7  3  1  0
  8 10  1  0
  8  6  1  0
  9  8  2  0
 11 10  1  0
 11 12  1  1
 12 13  1  0
 13 14  2  0
 13 18  1  0
 14 15  1  0
 15 16  2  0
 17 16  1  0
 18 17  2  0
 19 11  1  0
 20 19  2  0
 21 19  1  0
M  END
$$$$
