GAF.pdb
     RDKit          3D

 21 21  0  0  1  0  0  0  0  0999 V2000
   29.5342  -18.3962  -16.9640 N   0  0  0  0  0  0  0  0  0  0  0  0
   29.2210  -19.3724  -15.9542 C   0  0  0  0  0  0  0  0  0  0  0  0
   28.1378  -18.8639  -15.0369 C   0  0  0  0  0  0  0  0  0  0  0  0
   28.1971  -17.7042  -14.5897 O   0  0  0  0  0  0  0  0  0  0  0  0
   24.6818  -19.0858  -14.7675 C   0  0  0  0  0  0  0  0  0  0  0  0
   25.9145  -19.2565  -13.9057 C   0  0  2  0  0  0  0  0  0  0  0  0
   27.0507  -19.7101  -14.6846 N   0  0  0  0  0  0  0  0  0  0  0  0
   25.6816  -20.2469  -12.8155 C   0  0  0  0  0  0  0  0  0  0  0  0
   25.8193  -21.4830  -13.0279 O   0  0  0  0  0  0  0  0  0  0  0  0
   25.2996  -19.8669  -11.5026 N   0  0  0  0  0  0  0  0  0  0  0  0
   24.9804  -20.8803  -10.4741 C   0  0  1  0  0  0  0  0  0  0  0  0
   25.1130  -20.3161   -9.1085 C   0  0  0  0  0  0  0  0  0  0  0  0
   26.5358  -20.2127   -8.7297 C   0  0  0  0  0  0  0  0  0  0  0  0
   26.9761  -19.1569   -7.9188 C   0  0  0  0  0  0  0  0  0  0  0  0
   28.2840  -19.0216   -7.5101 C   0  0  0  0  0  0  0  0  0  0  0  0
   29.1923  -19.9537   -7.9102 C   0  0  0  0  0  0  0  0  0  0  0  0
   28.8218  -21.0119   -8.7055 C   0  0  0  0  0  0  0  0  0  0  0  0
   27.5093  -21.1318   -9.1049 C   0  0  0  0  0  0  0  0  0  0  0  0
   23.6220  -21.3578  -10.7254 C   0  0  0  0  0  0  0  0  0  0  0  0
   22.8786  -20.7445  -11.5306 O   0  0  0  0  0  0  0  0  0  0  0  0
   23.1102  -22.4907  -10.0925 O   0  0  0  0  0  0  0  0  0  0  0  0
  1  2  1  0
  3  2  1  0
  3  4  2  0
  6  5  1  6
  6  7  1  0
  7  3  1  0
  8 10  1  0
  8  6  1  0
  9  8  2  0
 11 10  1  0
 11 12  1  1
 12 13  1  0
 13 14  2  0
 13 18  1  0
 14 15  1  0
 15 16  2  0
 17 16  1  0
 18 17  2  0
 19 11  1  0
 20 19  2  0
 21 19  1  0
M  END
$$$$
