GAF.pdb
     RDKit          3D

 21 21  0  0  1  0  0  0  0  0999 V2000
   16.5206  -12.4933  -15.9971 N   0  0  0  0  0  0  0  0  0  0  0  0
   16.5364  -11.0691  -15.7918 C   0  0  0  0  0  0  0  0  0  0  0  0
   17.9223  -10.5141  -16.0032 C   0  0  0  0  0  0  0  0  0  0  0  0
   18.8704  -10.9338  -15.3155 O   0  0  0  0  0  0  0  0  0  0  0  0
   19.5005   -8.2700  -18.6074 C   0  0  0  0  0  0  0  0  0  0  0  0
   19.4459   -8.9294  -17.2459 C   0  0  2  0  0  0  0  0  0  0  0  0
   18.1431   -9.5122  -16.9878 N   0  0  0  0  0  0  0  0  0  0  0  0
   19.7342   -7.9517  -16.1575 C   0  0  0  0  0  0  0  0  0  0  0  0
   18.7998   -7.3081  -15.6056 O   0  0  0  0  0  0  0  0  0  0  0  0
   21.0479   -7.6923  -15.6875 N   0  0  0  0  0  0  0  0  0  0  0  0
   21.2941   -6.7255  -14.5961 C   0  0  1  0  0  0  0  0  0  0  0  0
   22.2220   -7.2869  -13.5838 C   0  0  0  0  0  0  0  0  0  0  0  0
   23.3749   -7.9310  -14.2429 C   0  0  0  0  0  0  0  0  0  0  0  0
   23.6104   -9.3028  -14.0726 C   0  0  0  0  0  0  0  0  0  0  0  0
   24.6522   -9.9652  -14.6823 C   0  0  0  0  0  0  0  0  0  0  0  0
   25.4928   -9.2584  -15.4871 C   0  0  0  0  0  0  0  0  0  0  0  0
   25.3139   -7.9112  -15.6937 C   0  0  0  0  0  0  0  0  0  0  0  0
   24.2666   -7.2646  -15.0760 C   0  0  0  0  0  0  0  0  0  0  0  0
   21.8313   -5.5049  -15.1946 C   0  0  0  0  0  0  0  0  0  0  0  0
   22.1279   -5.4806  -16.4147 O   0  0  0  0  0  0  0  0  0  0  0  0
   22.0306   -4.3439  -14.4476 O   0  0  0  0  0  0  0  0  0  0  0  0
  1  2  1  0
  3  2  1  0
  3  4  2  0
  6  5  1  6
  6  7  1  0
  7  3  1  0
  8 10  1  0
  8  6  1  0
  9  8  2  0
 11 10  1  0
 11 12  1  1
 12 13  1  0
 13 14  2  0
 13 18  1  0
 14 15  1  0
 15 16  2  0
 17 16  1  0
 18 17  2  0
 19 11  1  0
 20 19  2  0
 21 19  1  0
M  END
$$$$
