NHV.pdb
     RDKit          3D

 26 26  0  0  1  0  0  0  0  0999 V2000
    8.0478  -17.8651   18.0761 N   0  0  0  0  0  0  0  0  0  0  0  0
    6.7456  -18.1083   18.5873 C   0  0  0  0  0  0  0  0  0  0  0  0
    5.9108  -18.6450   17.8172 O   0  0  0  0  0  0  0  0  0  0  0  0
    6.4090  -17.7347   19.9777 C   0  0  0  0  0  0  0  0  0  0  0  0
    7.5512  -16.9596   20.5878 C   0  0  2  0  0  0  0  0  0  0  0  0
    8.7714  -17.7199   20.5590 N   0  0  0  0  0  0  0  0  0  0  0  0
    7.1794  -16.5889   21.9921 C   0  0  0  0  0  0  0  0  0  0  0  0
    6.2286  -15.7915   22.1684 O   0  0  0  0  0  0  0  0  0  0  0  0
    7.9106  -17.1483   23.0747 N   0  0  0  0  0  0  0  0  0  0  0  0
    7.5802  -16.8560   24.4306 C   0  0  1  0  0  0  0  0  0  0  0  0
    7.8239  -18.0175   25.3656 C   0  0  0  0  0  0  0  0  0  0  0  0
    6.9665  -19.1565   24.9793 C   0  0  0  0  0  0  0  0  0  0  0  0
    5.8751  -19.1654   24.1473 C   0  0  0  0  0  0  0  0  0  0  0  0
    5.4066  -20.4384   24.0895 N   0  0  0  0  0  0  0  0  0  0  0  0
    6.1804  -21.2094   24.8626 C   0  0  0  0  0  0  0  0  0  0  0  0
    7.1145  -20.4225   25.3909 N   0  0  0  0  0  0  0  0  0  0  0  0
    8.3178  -15.6426   24.8412 C   0  0  0  0  0  0  0  0  0  0  0  0
    9.4739  -15.3503   24.4464 O   0  0  0  0  0  0  0  0  0  0  0  0
    6.1502  -12.6487   26.9756 C   0  0  0  0  0  0  0  0  0  0  0  0
    7.4228  -12.4247   26.2020 C   0  0  2  0  0  0  0  0  0  0  0  0
    7.0878  -12.1502   24.7611 C   0  0  0  0  0  0  0  0  0  0  0  0
    8.3645  -13.5942   26.2818 C   0  0  2  0  0  0  0  0  0  0  0  0
    7.6649  -14.7507   25.7461 N   0  0  0  0  0  0  0  0  0  0  0  0
    8.7807  -13.8821   27.6693 C   0  0  0  0  0  0  0  0  0  0  0  0
    8.3826  -14.9201   28.2572 O   0  0  0  0  0  0  0  0  0  0  0  0
    9.6186  -13.0317   28.3771 O   0  0  0  0  0  0  0  0  0  0  0  0
  2  1  1  0
  2  3  2  0
  4  2  1  0
  5  4  1  0
  5  6  1  1
  7  5  1  0
  8  7  2  0
  9  7  1  0
 10  9  1  0
 11 12  1  0
 10 11  1  1
 12 13  2  0
 13 14  1  0
 15 14  1  0
 16 12  1  0
 16 15  2  0
 17 23  1  0
 17 10  1  0
 18 17  2  0
 20 19  1  1
 21 20  1  0
 22 20  1  0
 22 23  1  1
 24 22  1  0
 25 24  2  0
 26 24  1  0
M  END
$$$$
