NHV.pdb
     RDKit          3D

 26 26  0  0  1  0  0  0  0  0999 V2000
   14.2909  -19.9977   20.7536 N   0  0  0  0  0  0  0  0  0  0  0  0
   12.9697  -19.5096   20.9335 C   0  0  0  0  0  0  0  0  0  0  0  0
   12.0414  -20.1171   20.3443 O   0  0  0  0  0  0  0  0  0  0  0  0
   12.7214  -18.3284   21.7875 C   0  0  0  0  0  0  0  0  0  0  0  0
   11.7640  -17.3903   21.0938 C   0  0  2  0  0  0  0  0  0  0  0  0
   12.3874  -16.7475   19.9686 N   0  0  0  0  0  0  0  0  0  0  0  0
   11.2784  -16.3816   22.0909 C   0  0  0  0  0  0  0  0  0  0  0  0
   12.0900  -15.5304   22.5244 O   0  0  0  0  0  0  0  0  0  0  0  0
    9.9218  -16.4196   22.5126 N   0  0  0  0  0  0  0  0  0  0  0  0
    9.4045  -15.4810   23.4530 C   0  0  1  0  0  0  0  0  0  0  0  0
    7.9460  -15.1567   23.2287 C   0  0  0  0  0  0  0  0  0  0  0  0
    7.7712  -14.5430   21.8965 C   0  0  0  0  0  0  0  0  0  0  0  0
    7.9940  -13.2438   21.5145 C   0  0  0  0  0  0  0  0  0  0  0  0
    7.6977  -13.1421   20.1935 N   0  0  0  0  0  0  0  0  0  0  0  0
    7.2997  -14.3424   19.7557 C   0  0  0  0  0  0  0  0  0  0  0  0
    7.3496  -15.1744   20.7930 N   0  0  0  0  0  0  0  0  0  0  0  0
    9.6607  -15.9936   24.8156 C   0  0  0  0  0  0  0  0  0  0  0  0
    9.8476  -17.2046   25.0920 O   0  0  0  0  0  0  0  0  0  0  0  0
    8.6065  -13.6832   28.1663 C   0  0  0  0  0  0  0  0  0  0  0  0
   10.0103  -14.2241   28.0961 C   0  0  2  0  0  0  0  0  0  0  0  0
   10.9331  -13.1496   27.5887 C   0  0  0  0  0  0  0  0  0  0  0  0
   10.1222  -15.4363   27.2135 C   0  0  2  0  0  0  0  0  0  0  0  0
    9.6961  -15.0421   25.8804 N   0  0  0  0  0  0  0  0  0  0  0  0
    9.2716  -16.5488   27.6826 C   0  0  0  0  0  0  0  0  0  0  0  0
    8.1620  -16.7827   27.1387 O   0  0  0  0  0  0  0  0  0  0  0  0
    9.6532  -17.3750   28.7304 O   0  0  0  0  0  0  0  0  0  0  0  0
  2  1  1  0
  2  3  2  0
  4  2  1  0
  5  4  1  0
  5  6  1  6
  7  5  1  0
  8  7  2  0
  9  7  1  0
 10  9  1  0
 11 12  1  0
 10 11  1  6
 12 13  2  0
 13 14  1  0
 15 14  1  0
 16 12  1  0
 16 15  2  0
 17 23  1  0
 17 10  1  0
 18 17  2  0
 20 19  1  6
 21 20  1  0
 22 20  1  0
 22 23  1  6
 24 22  1  0
 25 24  2  0
 26 24  1  0
M  END
$$$$
