NHV.pdb
     RDKit          3D

 26 26  0  0  1  0  0  0  0  0999 V2000
   13.6651  -19.1290   21.4601 N   0  0  0  0  0  0  0  0  0  0  0  0
   13.4632  -18.7688   22.8187 C   0  0  0  0  0  0  0  0  0  0  0  0
   13.9992  -19.4905   23.6961 O   0  0  0  0  0  0  0  0  0  0  0  0
   12.6482  -17.5840   23.1624 C   0  0  0  0  0  0  0  0  0  0  0  0
   11.9778  -17.0490   21.9206 C   0  0  2  0  0  0  0  0  0  0  0  0
   12.9465  -16.5968   20.9589 N   0  0  0  0  0  0  0  0  0  0  0  0
   11.0535  -15.9379   22.3190 C   0  0  0  0  0  0  0  0  0  0  0  0
   11.5491  -14.8277   22.6236 O   0  0  0  0  0  0  0  0  0  0  0  0
    9.6522  -16.1742   22.3396 N   0  0  0  0  0  0  0  0  0  0  0  0
    8.7208  -15.1260   22.5982 C   0  0  1  0  0  0  0  0  0  0  0  0
    7.4611  -15.2324   21.7708 C   0  0  0  0  0  0  0  0  0  0  0  0
    7.6917  -14.6468   20.4345 C   0  0  0  0  0  0  0  0  0  0  0  0
    8.8432  -14.1021   19.9235 C   0  0  0  0  0  0  0  0  0  0  0  0
    8.5821  -13.6916   18.6560 N   0  0  0  0  0  0  0  0  0  0  0  0
    7.3033  -13.9694   18.3763 C   0  0  0  0  0  0  0  0  0  0  0  0
    6.7815  -14.5441   19.4573 N   0  0  0  0  0  0  0  0  0  0  0  0
    8.4372  -15.0988   24.0487 C   0  0  0  0  0  0  0  0  0  0  0  0
    8.8260  -15.9738   24.8617 O   0  0  0  0  0  0  0  0  0  0  0  0
    7.3010  -11.4045   25.7032 C   0  0  0  0  0  0  0  0  0  0  0  0
    6.5650  -12.6371   26.1583 C   0  0  2  0  0  0  0  0  0  0  0  0
    6.2026  -12.4925   27.6114 C   0  0  0  0  0  0  0  0  0  0  0  0
    7.3650  -13.8956   25.9660 C   0  0  2  0  0  0  0  0  0  0  0  0
    7.6703  -14.0022   24.5484 N   0  0  0  0  0  0  0  0  0  0  0  0
    6.6226  -15.0994   26.3914 C   0  0  0  0  0  0  0  0  0  0  0  0
    5.7686  -15.6284   25.6348 O   0  0  0  0  0  0  0  0  0  0  0  0
    6.8312  -15.6930   27.6285 O   0  0  0  0  0  0  0  0  0  0  0  0
  2  1  1  0
  2  3  2  0
  4  2  1  0
  5  4  1  0
  5  6  1  6
  7  5  1  0
  8  7  2  0
  9  7  1  0
 10  9  1  0
 11 12  1  0
 10 11  1  6
 12 13  2  0
 13 14  1  0
 15 14  1  0
 16 12  1  0
 16 15  2  0
 17 23  1  0
 17 10  1  0
 18 17  2  0
 20 19  1  1
 21 20  1  0
 22 20  1  0
 22 23  1  6
 24 22  1  0
 25 24  2  0
 26 24  1  0
M  END
$$$$
