NHV.pdb
     RDKit          3D

 26 26  0  0  1  0  0  0  0  0999 V2000
    7.5564  -12.8322   16.6728 N   0  0  0  0  0  0  0  0  0  0  0  0
    8.0653  -13.7248   17.6528 C   0  0  0  0  0  0  0  0  0  0  0  0
    8.8576  -14.6199   17.2667 O   0  0  0  0  0  0  0  0  0  0  0  0
    7.6629  -13.5854   19.0687 C   0  0  0  0  0  0  0  0  0  0  0  0
    8.7248  -14.1803   19.9611 C   0  0  2  0  0  0  0  0  0  0  0  0
    9.4633  -15.2082   19.2788 N   0  0  0  0  0  0  0  0  0  0  0  0
    8.0641  -14.7187   21.1945 C   0  0  0  0  0  0  0  0  0  0  0  0
    7.1523  -14.0439   21.7277 O   0  0  0  0  0  0  0  0  0  0  0  0
    8.4878  -15.9695   21.7195 N   0  0  0  0  0  0  0  0  0  0  0  0
    8.0549  -16.4293   22.9978 C   0  0  1  0  0  0  0  0  0  0  0  0
    8.3760  -17.8846   23.2464 C   0  0  0  0  0  0  0  0  0  0  0  0
    7.9101  -18.2748   24.5927 C   0  0  0  0  0  0  0  0  0  0  0  0
    8.6087  -18.2809   25.7740 C   0  0  0  0  0  0  0  0  0  0  0  0
    7.7711  -18.7153   26.7501 N   0  0  0  0  0  0  0  0  0  0  0  0
    6.5792  -18.9754   26.2000 C   0  0  0  0  0  0  0  0  0  0  0  0
    6.6797  -18.7051   24.9009 N   0  0  0  0  0  0  0  0  0  0  0  0
    8.6298  -15.5446   24.0331 C   0  0  0  0  0  0  0  0  0  0  0  0
    9.8346  -15.1913   24.0718 O   0  0  0  0  0  0  0  0  0  0  0  0
    6.4559  -12.4609   25.2350 C   0  0  0  0  0  0  0  0  0  0  0  0
    7.0105  -13.2431   26.3963 C   0  0  2  0  0  0  0  0  0  0  0  0
    7.3951  -12.2933   27.4980 C   0  0  0  0  0  0  0  0  0  0  0  0
    8.2023  -14.0781   26.0181 C   0  0  2  0  0  0  0  0  0  0  0  0
    7.7500  -15.0654   25.0513 N   0  0  0  0  0  0  0  0  0  0  0  0
    8.7876  -14.7749   27.1814 C   0  0  0  0  0  0  0  0  0  0  0  0
    8.4445  -15.9511   27.4652 O   0  0  0  0  0  0  0  0  0  0  0  0
    9.7296  -14.1712   28.0026 O   0  0  0  0  0  0  0  0  0  0  0  0
  2  1  1  0
  2  3  2  0
  4  2  1  0
  5  4  1  0
  5  6  1  6
  7  5  1  0
  8  7  2  0
  9  7  1  0
 10  9  1  0
 11 12  1  0
 10 11  1  1
 12 13  2  0
 13 14  1  0
 15 14  1  0
 16 12  1  0
 16 15  2  0
 17 23  1  0
 17 10  1  0
 18 17  2  0
 20 19  1  6
 21 20  1  0
 22 20  1  0
 22 23  1  6
 24 22  1  0
 25 24  2  0
 26 24  1  0
M  END
$$$$
