NHV.pdb
     RDKit          3D

 26 26  0  0  1  0  0  0  0  0999 V2000
    8.0988  -12.5004   17.2743 N   0  0  0  0  0  0  0  0  0  0  0  0
    7.8910  -13.8640   17.6114 C   0  0  0  0  0  0  0  0  0  0  0  0
    8.1779  -14.7263   16.7441 O   0  0  0  0  0  0  0  0  0  0  0  0
    7.3558  -14.2301   18.9401 C   0  0  0  0  0  0  0  0  0  0  0  0
    8.4944  -14.4309   19.9103 C   0  0  2  0  0  0  0  0  0  0  0  0
    9.4277  -15.4104   19.4233 N   0  0  0  0  0  0  0  0  0  0  0  0
    7.9249  -14.8402   21.2354 C   0  0  0  0  0  0  0  0  0  0  0  0
    6.9976  -14.1540   21.7256 O   0  0  0  0  0  0  0  0  0  0  0  0
    8.4493  -15.9860   21.8925 N   0  0  0  0  0  0  0  0  0  0  0  0
    8.0179  -16.3622   23.1984 C   0  0  1  0  0  0  0  0  0  0  0  0
    8.1978  -17.8350   23.4828 C   0  0  0  0  0  0  0  0  0  0  0  0
    7.3145  -18.6245   22.6006 C   0  0  0  0  0  0  0  0  0  0  0  0
    5.9436  -18.6891   22.5945 C   0  0  0  0  0  0  0  0  0  0  0  0
    5.5720  -19.5447   21.6080 N   0  0  0  0  0  0  0  0  0  0  0  0
    6.6767  -20.0060   21.0098 C   0  0  0  0  0  0  0  0  0  0  0  0
    7.7169  -19.4423   21.6191 N   0  0  0  0  0  0  0  0  0  0  0  0
    8.7165  -15.5120   24.1854 C   0  0  0  0  0  0  0  0  0  0  0  0
    9.9465  -15.2589   24.1558 O   0  0  0  0  0  0  0  0  0  0  0  0
    8.1069  -11.8040   27.2747 C   0  0  0  0  0  0  0  0  0  0  0  0
    7.6076  -12.8397   26.3021 C   0  0  2  0  0  0  0  0  0  0  0  0
    6.2423  -13.3063   26.7287 C   0  0  0  0  0  0  0  0  0  0  0  0
    8.5279  -14.0237   26.1910 C   0  0  2  0  0  0  0  0  0  0  0  0
    7.9333  -14.9463   25.2375 N   0  0  0  0  0  0  0  0  0  0  0  0
    8.7067  -14.7149   27.4840 C   0  0  0  0  0  0  0  0  0  0  0  0
    8.0853  -15.7791   27.7349 O   0  0  0  0  0  0  0  0  0  0  0  0
    9.5569  -14.2276   28.4668 O   0  0  0  0  0  0  0  0  0  0  0  0
  2  1  1  0
  2  3  2  0
  4  2  1  0
  5  4  1  0
  5  6  1  6
  7  5  1  0
  8  7  2  0
  9  7  1  0
 10  9  1  0
 11 12  1  0
 10 11  1  1
 12 13  2  0
 13 14  1  0
 15 14  1  0
 16 12  1  0
 16 15  2  0
 17 23  1  0
 17 10  1  0
 18 17  2  0
 20 19  1  1
 21 20  1  0
 22 20  1  0
 22 23  1  6
 24 22  1  0
 25 24  2  0
 26 24  1  0
M  END
$$$$
