NHV.pdb
     RDKit          3D

 26 26  0  0  1  0  0  0  0  0999 V2000
   15.0022  -17.0636   19.5141 N   0  0  0  0  0  0  0  0  0  0  0  0
   13.6444  -17.3790   19.2434 C   0  0  0  0  0  0  0  0  0  0  0  0
   13.4151  -18.3609   18.4941 O   0  0  0  0  0  0  0  0  0  0  0  0
   12.5587  -16.5669   19.8331 C   0  0  0  0  0  0  0  0  0  0  0  0
   12.0345  -17.2431   21.0764 C   0  0  2  0  0  0  0  0  0  0  0  0
   11.0475  -18.2374   20.7524 N   0  0  0  0  0  0  0  0  0  0  0  0
   11.4665  -16.1950   21.9856 C   0  0  0  0  0  0  0  0  0  0  0  0
   12.2333  -15.3080   22.4285 O   0  0  0  0  0  0  0  0  0  0  0  0
   10.0850  -16.2374   22.3163 N   0  0  0  0  0  0  0  0  0  0  0  0
    9.5111  -15.3248   23.2495 C   0  0  1  0  0  0  0  0  0  0  0  0
    8.0222  -15.1448   23.0664 C   0  0  0  0  0  0  0  0  0  0  0  0
    7.7487  -14.5892   21.7254 C   0  0  0  0  0  0  0  0  0  0  0  0
    8.1287  -13.3775   21.2049 C   0  0  0  0  0  0  0  0  0  0  0  0
    7.6507  -13.3015   19.9364 N   0  0  0  0  0  0  0  0  0  0  0  0
    6.9887  -14.4325   19.6653 C   0  0  0  0  0  0  0  0  0  0  0  0
    7.0571  -15.1969   20.7525 N   0  0  0  0  0  0  0  0  0  0  0  0
    9.8571  -15.7721   24.6152 C   0  0  0  0  0  0  0  0  0  0  0  0
   10.1789  -16.9491   24.9136 O   0  0  0  0  0  0  0  0  0  0  0  0
   11.0122  -13.9399   29.1064 C   0  0  0  0  0  0  0  0  0  0  0  0
   10.4090  -13.7893   27.7347 C   0  0  2  0  0  0  0  0  0  0  0  0
    9.0022  -13.2714   27.8634 C   0  0  0  0  0  0  0  0  0  0  0  0
   10.3977  -15.0782   26.9604 C   0  0  2  0  0  0  0  0  0  0  0  0
    9.8200  -14.7949   25.6565 N   0  0  0  0  0  0  0  0  0  0  0  0
    9.5945  -16.1230   27.6273 C   0  0  0  0  0  0  0  0  0  0  0  0
    8.3956  -16.3178   27.3011 O   0  0  0  0  0  0  0  0  0  0  0  0
   10.1196  -16.9259   28.6302 O   0  0  0  0  0  0  0  0  0  0  0  0
  2  1  1  0
  2  3  2  0
  4  2  1  0
  5  4  1  0
  5  6  1  6
  7  5  1  0
  8  7  2  0
  9  7  1  0
 10  9  1  0
 11 12  1  0
 10 11  1  1
 12 13  2  0
 13 14  1  0
 15 14  1  0
 16 12  1  0
 16 15  2  0
 17 23  1  0
 17 10  1  0
 18 17  2  0
 20 19  1  1
 21 20  1  0
 22 20  1  0
 22 23  1  6
 24 22  1  0
 25 24  2  0
 26 24  1  0
M  END
$$$$
