NHV.pdb
     RDKit          3D

 26 26  0  0  1  0  0  0  0  0999 V2000
    8.6276  -12.6815   17.1731 N   0  0  0  0  0  0  0  0  0  0  0  0
    8.0792  -13.9693   17.4117 C   0  0  0  0  0  0  0  0  0  0  0  0
    8.1271  -14.8033   16.4735 O   0  0  0  0  0  0  0  0  0  0  0  0
    7.4796  -14.2927   18.7239 C   0  0  0  0  0  0  0  0  0  0  0  0
    8.5693  -14.4620   19.7542 C   0  0  2  0  0  0  0  0  0  0  0  0
    9.5426  -15.4314   19.3291 N   0  0  0  0  0  0  0  0  0  0  0  0
    7.9386  -14.8644   21.0534 C   0  0  0  0  0  0  0  0  0  0  0  0
    7.0118  -14.1567   21.5130 O   0  0  0  0  0  0  0  0  0  0  0  0
    8.4067  -16.0282   21.7214 N   0  0  0  0  0  0  0  0  0  0  0  0
    7.9253  -16.3939   23.0127 C   0  0  1  0  0  0  0  0  0  0  0  0
    8.2844  -17.8087   23.4025 C   0  0  0  0  0  0  0  0  0  0  0  0
    7.7531  -18.1048   24.7486 C   0  0  0  0  0  0  0  0  0  0  0  0
    6.5117  -17.8239   25.2619 C   0  0  0  0  0  0  0  0  0  0  0  0
    6.4763  -18.2828   26.5392 N   0  0  0  0  0  0  0  0  0  0  0  0
    7.6611  -18.8368   26.8227 C   0  0  0  0  0  0  0  0  0  0  0  0
    8.4181  -18.7214   25.7344 N   0  0  0  0  0  0  0  0  0  0  0  0
    8.4147  -15.4018   23.9932 C   0  0  0  0  0  0  0  0  0  0  0  0
    9.5813  -14.9362   24.0059 O   0  0  0  0  0  0  0  0  0  0  0  0
    6.3441  -12.2677   25.2199 C   0  0  0  0  0  0  0  0  0  0  0  0
    6.7491  -13.1555   26.3669 C   0  0  2  0  0  0  0  0  0  0  0  0
    7.0867  -12.3041   27.5606 C   0  0  0  0  0  0  0  0  0  0  0  0
    7.9216  -14.0361   26.0340 C   0  0  2  0  0  0  0  0  0  0  0  0
    7.4935  -14.9495   24.9869 N   0  0  0  0  0  0  0  0  0  0  0  0
    8.3802  -14.8191   27.1994 C   0  0  0  0  0  0  0  0  0  0  0  0
    8.9571  -14.2562   28.1648 O   0  0  0  0  0  0  0  0  0  0  0  0
    8.1977  -16.1925   27.2803 O   0  0  0  0  0  0  0  0  0  0  0  0
  2  1  1  0
  2  3  2  0
  4  2  1  0
  5  4  1  0
  5  6  1  6
  7  5  1  0
  8  7  2  0
  9  7  1  0
 10  9  1  0
 11 12  1  0
 10 11  1  1
 12 13  2  0
 13 14  1  0
 15 14  1  0
 16 12  1  0
 16 15  2  0
 17 23  1  0
 17 10  1  0
 18 17  2  0
 20 19  1  6
 21 20  1  0
 22 20  1  0
 22 23  1  6
 24 22  1  0
 25 24  2  0
 26 24  1  0
M  END
$$$$
