NHV.pdb
     RDKit          3D

 26 26  0  0  1  0  0  0  0  0999 V2000
    7.5575  -12.8390   16.7115 N   0  0  0  0  0  0  0  0  0  0  0  0
    8.4118  -13.4286   17.6804 C   0  0  0  0  0  0  0  0  0  0  0  0
    9.5949  -13.6750   17.3375 O   0  0  0  0  0  0  0  0  0  0  0  0
    7.9044  -13.7318   19.0356 C   0  0  0  0  0  0  0  0  0  0  0  0
    8.3430  -15.1164   19.4458 C   0  0  2  0  0  0  0  0  0  0  0  0
    7.9213  -16.1022   18.4876 N   0  0  0  0  0  0  0  0  0  0  0  0
    7.7829  -15.4107   20.8050 C   0  0  0  0  0  0  0  0  0  0  0  0
    6.5586  -15.2267   21.0002 O   0  0  0  0  0  0  0  0  0  0  0  0
    8.6504  -15.8864   21.8253 N   0  0  0  0  0  0  0  0  0  0  0  0
    8.1580  -16.2664   23.1084 C   0  0  1  0  0  0  0  0  0  0  0  0
    8.3584  -17.7328   23.4118 C   0  0  0  0  0  0  0  0  0  0  0  0
    7.9091  -18.0227   24.7887 C   0  0  0  0  0  0  0  0  0  0  0  0
    8.6533  -18.4373   25.8647 C   0  0  0  0  0  0  0  0  0  0  0  0
    7.8138  -18.5749   26.9228 N   0  0  0  0  0  0  0  0  0  0  0  0
    6.5763  -18.2563   26.5251 C   0  0  0  0  0  0  0  0  0  0  0  0
    6.6510  -17.9262   25.2381 N   0  0  0  0  0  0  0  0  0  0  0  0
    8.7810  -15.3940   24.1262 C   0  0  0  0  0  0  0  0  0  0  0  0
   10.0040  -15.1093   24.1606 O   0  0  0  0  0  0  0  0  0  0  0  0
    6.1444  -13.3694   26.8851 C   0  0  0  0  0  0  0  0  0  0  0  0
    7.4743  -12.8695   26.3856 C   0  0  2  0  0  0  0  0  0  0  0  0
    7.2722  -12.1195   25.0970 C   0  0  0  0  0  0  0  0  0  0  0  0
    8.4670  -13.9777   26.1680 C   0  0  2  0  0  0  0  0  0  0  0  0
    7.9286  -14.8440   25.1318 N   0  0  0  0  0  0  0  0  0  0  0  0
    8.6933  -14.7726   27.3920 C   0  0  0  0  0  0  0  0  0  0  0  0
    8.2051  -15.9257   27.5087 O   0  0  0  0  0  0  0  0  0  0  0  0
    9.4449  -14.2895   28.4540 O   0  0  0  0  0  0  0  0  0  0  0  0
  2  1  1  0
  2  3  2  0
  4  2  1  0
  5  4  1  0
  5  6  1  6
  7  5  1  0
  8  7  2  0
  9  7  1  0
 10  9  1  0
 11 12  1  0
 10 11  1  1
 12 13  2  0
 13 14  1  0
 15 14  1  0
 16 12  1  0
 16 15  2  0
 17 23  1  0
 17 10  1  0
 18 17  2  0
 20 19  1  6
 21 20  1  0
 22 20  1  0
 22 23  1  6
 24 22  1  0
 25 24  2  0
 26 24  1  0
M  END
$$$$
