RNI.pdb
     RDKit          3D

 28 27  0  0  1  0  0  0  0  0999 V2000
    8.1603  -13.5405   14.2514 N   0  0  0  0  0  0  0  0  0  0  0  0
    8.0185  -14.6505   15.1217 C   0  0  0  0  0  0  0  0  0  0  0  0
    8.5401  -15.7880   14.8170 N   0  0  0  0  0  0  0  0  0  0  0  0
    7.2900  -14.4854   16.3355 N   0  0  0  0  0  0  0  0  0  0  0  0
    7.2106  -13.2152   17.0024 C   0  0  0  0  0  0  0  0  0  0  0  0
    8.3320  -13.0227   18.0155 C   0  0  0  0  0  0  0  0  0  0  0  0
    8.1206  -14.0516   19.1005 C   0  0  0  0  0  0  0  0  0  0  0  0
    9.1910  -14.0056   20.1529 C   0  0  2  0  0  0  0  0  0  0  0  0
   10.4385  -14.5084   19.6435 N   0  0  0  0  0  0  0  0  0  0  0  0
    8.6975  -14.8321   21.3116 C   0  0  0  0  0  0  0  0  0  0  0  0
    7.6391  -14.4883   21.8999 O   0  0  0  0  0  0  0  0  0  0  0  0
    8.4714  -16.6351   15.4005 N   0  0  0  0  0  0  0  0  0  0  0  0
    9.9106  -19.3427   20.8439 C   0  0  0  0  0  0  0  0  0  0  0  0
    9.0038  -18.8544   21.8406 O   0  0  0  0  0  0  0  0  0  0  0  0
    7.8067  -19.1468   21.7078 C   0  0  0  0  0  0  0  0  0  0  0  0
    9.4599  -18.0383   22.9805 C   0  0  2  0  0  0  0  0  0  0  0  0
    8.8910  -16.6546   22.9487 N   0  0  0  0  0  0  0  0  0  0  0  0
    9.3763  -15.9755   21.7618 C   0  0  0  0  0  0  0  0  0  0  0  0
    9.3621  -15.8643   24.1427 O   0  0  0  0  0  0  0  0  0  0  0  0
   10.5398  -15.4748   24.2435 C   0  0  0  0  0  0  0  0  0  0  0  0
    6.5050  -11.8926   26.4194 C   0  0  0  0  0  0  0  0  0  0  0  0
    7.6107  -12.7641   25.8843 C   0  0  2  0  0  0  0  0  0  0  0  0
    7.9276  -13.8661   26.9050 C   0  0  0  0  0  0  0  0  0  0  0  0
    8.5831  -13.1568   28.0717 C   0  0  2  0  0  0  0  0  0  0  0  0
    8.9203  -14.8447   26.3396 N   0  0  0  0  0  0  0  0  0  0  0  0
    8.4708  -15.5429   25.1865 C   0  0  0  0  0  0  0  0  0  0  0  0
    9.2560  -15.8191   27.3878 O   0  0  0  0  0  0  0  0  0  0  0  0
   10.2271  -15.5350   28.3115 O   0  0  0  0  0  0  0  0  0  0  0  0
  2  3  2  0
  2  1  1  0
  4  2  1  0
  5  4  1  0
  6  5  1  0
  7  6  1  0
  8  7  1  0
  8  9  1  6
 10 17  1  0
 10  8  1  0
 11 10  2  0
 13 12  1  0
 13 14  2  0
 16 15  1  6
 15 13  1  0
 16 17  1  0
 18 19  2  0
 18 16  1  0
 20 21  1  0
 21 22  1  0
 22 23  1  1
 24 22  1  0
 24 25  1  6
 25 18  1  0
 26 24  1  0
 27 26  1  0
 28 26  2  0
M  END
$$$$
