RNI.pdb
     RDKit          3D

 28 27  0  0  1  0  0  0  0  0999 V2000
    9.7088  -13.4835   18.3199 N   0  0  0  0  0  0  0  0  0  0  0  0
    8.3513  -13.0828   18.3986 C   0  0  0  0  0  0  0  0  0  0  0  0
    7.6350  -12.9948   17.3318 N   0  0  0  0  0  0  0  0  0  0  0  0
    7.7956  -12.7796   19.6756 N   0  0  0  0  0  0  0  0  0  0  0  0
    7.6095  -13.7916   20.6785 C   0  0  0  0  0  0  0  0  0  0  0  0
    6.5640  -14.8227   20.2726 C   0  0  0  0  0  0  0  0  0  0  0  0
    6.4987  -15.8394   21.3874 C   0  0  0  0  0  0  0  0  0  0  0  0
    7.3422  -17.0506   21.1110 C   0  0  2  0  0  0  0  0  0  0  0  0
    6.5222  -18.2034   20.8518 N   0  0  0  0  0  0  0  0  0  0  0  0
    8.2151  -17.2580   22.3211 C   0  0  0  0  0  0  0  0  0  0  0  0
    7.8624  -18.0954   23.1922 O   0  0  0  0  0  0  0  0  0  0  0  0
    6.6490  -12.6945   17.3157 N   0  0  0  0  0  0  0  0  0  0  0  0
   12.5831  -18.5583   24.7499 C   0  0  0  0  0  0  0  0  0  0  0  0
   12.6945  -17.2811   24.1093 O   0  0  0  0  0  0  0  0  0  0  0  0
   13.6527  -16.5661   24.4364 C   0  0  0  0  0  0  0  0  0  0  0  0
   11.7195  -16.8232   23.1028 C   0  0  1  0  0  0  0  0  0  0  0  0
   10.3075  -16.9676   23.5767 N   0  0  0  0  0  0  0  0  0  0  0  0
    9.4117  -16.5497   22.5146 C   0  0  0  0  0  0  0  0  0  0  0  0
   10.0543  -16.0668   24.7585 O   0  0  0  0  0  0  0  0  0  0  0  0
   10.7274  -16.1546   25.8015 C   0  0  0  0  0  0  0  0  0  0  0  0
    7.5134  -11.1841   26.6529 C   0  0  0  0  0  0  0  0  0  0  0  0
    7.3019  -12.6295   27.0194 C   0  0  2  0  0  0  0  0  0  0  0  0
    7.4838  -13.5020   25.7694 C   0  0  0  0  0  0  0  0  0  0  0  0
    6.3706  -14.5272   25.8295 C   0  0  2  0  0  0  0  0  0  0  0  0
    8.7952  -14.2371   25.8207 N   0  0  0  0  0  0  0  0  0  0  0  0
    9.0376  -15.0913   24.7113 C   0  0  0  0  0  0  0  0  0  0  0  0
    8.8288  -15.0352   27.0547 O   0  0  0  0  0  0  0  0  0  0  0  0
    9.2424  -14.4711   28.2327 O   0  0  0  0  0  0  0  0  0  0  0  0
  2  3  2  0
  2  1  1  0
  4  2  1  0
  5  4  1  0
  6  5  1  0
  7  6  1  0
  8  7  1  0
  8  9  1  1
 10 17  1  0
 10  8  1  0
 11 10  2  0
 13 12  1  0
 13 14  2  0
 16 15  1  6
 15 13  1  0
 16 17  1  0
 18 19  2  0
 18 16  1  0
 20 21  1  0
 21 22  1  0
 22 23  1  6
 24 22  1  0
 24 25  1  1
 25 18  1  0
 26 24  1  0
 27 26  1  0
 28 26  2  0
M  END
$$$$
