RNI.pdb
     RDKit          3D

 28 27  0  0  1  0  0  0  0  0999 V2000
    9.9515  -13.5561   18.0055 N   0  0  0  0  0  0  0  0  0  0  0  0
    8.8022  -13.6183   17.1779 C   0  0  0  0  0  0  0  0  0  0  0  0
    8.9153  -13.8984   15.9259 N   0  0  0  0  0  0  0  0  0  0  0  0
    7.5236  -13.3656   17.7548 N   0  0  0  0  0  0  0  0  0  0  0  0
    7.3604  -13.1500   19.1660 C   0  0  0  0  0  0  0  0  0  0  0  0
    8.1451  -14.1554   19.9992 C   0  0  0  0  0  0  0  0  0  0  0  0
    7.1603  -14.8008   20.9449 C   0  0  0  0  0  0  0  0  0  0  0  0
    7.3497  -16.2871   21.0460 C   0  0  2  0  0  0  0  0  0  0  0  0
    6.1624  -16.9885   20.6376 N   0  0  0  0  0  0  0  0  0  0  0  0
    7.6974  -16.5846   22.4811 C   0  0  0  0  0  0  0  0  0  0  0  0
    6.8277  -16.3975   23.3716 O   0  0  0  0  0  0  0  0  0  0  0  0
    8.1236  -13.9550   15.2681 N   0  0  0  0  0  0  0  0  0  0  0  0
   10.4559  -20.2671   22.6342 C   0  0  0  0  0  0  0  0  0  0  0  0
    9.9016  -19.7150   23.8350 O   0  0  0  0  0  0  0  0  0  0  0  0
    9.0630  -20.4002   24.4379 C   0  0  0  0  0  0  0  0  0  0  0  0
   10.3013  -18.3904   24.3440 C   0  0  2  0  0  0  0  0  0  0  0  0
    9.1892  -17.3928   24.2590 N   0  0  0  0  0  0  0  0  0  0  0  0
    8.9599  -17.0644   22.8643 C   0  0  0  0  0  0  0  0  0  0  0  0
    9.5720  -16.1166   24.9640 O   0  0  0  0  0  0  0  0  0  0  0  0
   10.5677  -15.4545   24.6192 C   0  0  0  0  0  0  0  0  0  0  0  0
    6.1696  -12.3127   26.3977 C   0  0  0  0  0  0  0  0  0  0  0  0
    7.4607  -12.9679   25.9826 C   0  0  2  0  0  0  0  0  0  0  0  0
    8.1415  -13.5755   27.2171 C   0  0  0  0  0  0  0  0  0  0  0  0
    8.7769  -12.4070   27.9415 C   0  0  2  0  0  0  0  0  0  0  0  0
    9.2385  -14.5201   26.8082 N   0  0  0  0  0  0  0  0  0  0  0  0
    8.8031  -15.6357   26.0432 C   0  0  0  0  0  0  0  0  0  0  0  0
    9.9063  -15.0057   28.0243 O   0  0  0  0  0  0  0  0  0  0  0  0
    9.7496  -16.3055   28.4279 O   0  0  0  0  0  0  0  0  0  0  0  0
  2  3  2  0
  2  1  1  0
  4  2  1  0
  5  4  1  0
  6  5  1  0
  7  6  1  0
  8  7  1  0
  8  9  1  1
 10 17  1  0
 10  8  1  0
 11 10  2  0
 13 12  1  0
 13 14  2  0
 16 15  1  6
 15 13  1  0
 16 17  1  0
 18 19  2  0
 18 16  1  0
 20 21  1  0
 21 22  1  0
 22 23  1  1
 24 22  1  0
 24 25  1  6
 25 18  1  0
 26 24  1  0
 27 26  1  0
 28 26  2  0
M  END
$$$$
