RNI.pdb
     RDKit          3D

 28 27  0  0  1  0  0  0  0  0999 V2000
    8.2948  -13.5844   16.1339 N   0  0  0  0  0  0  0  0  0  0  0  0
    8.6929  -13.5981   17.4945 C   0  0  0  0  0  0  0  0  0  0  0  0
    9.0917  -12.5157   18.0675 N   0  0  0  0  0  0  0  0  0  0  0  0
    8.6445  -14.8274   18.2140 N   0  0  0  0  0  0  0  0  0  0  0  0
    8.0480  -14.9170   19.5181 C   0  0  0  0  0  0  0  0  0  0  0  0
    6.5340  -14.7539   19.4740 C   0  0  0  0  0  0  0  0  0  0  0  0
    5.9829  -15.4714   20.6832 C   0  0  0  0  0  0  0  0  0  0  0  0
    6.5505  -16.8528   20.8402 C   0  0  2  0  0  0  0  0  0  0  0  0
    5.8110  -17.8074   20.0589 N   0  0  0  0  0  0  0  0  0  0  0  0
    6.4929  -17.1824   22.3089 C   0  0  0  0  0  0  0  0  0  0  0  0
    5.3743  -17.2090   22.8854 O   0  0  0  0  0  0  0  0  0  0  0  0
    9.2703  -12.4239   19.0786 N   0  0  0  0  0  0  0  0  0  0  0  0
    6.8220  -19.3452   27.1481 C   0  0  0  0  0  0  0  0  0  0  0  0
    7.9980  -19.1643   26.3490 O   0  0  0  0  0  0  0  0  0  0  0  0
    9.0877  -19.1596   26.9396 C   0  0  0  0  0  0  0  0  0  0  0  0
    7.9309  -18.9900   24.8867 C   0  0  1  0  0  0  0  0  0  0  0  0
    7.5215  -17.6034   24.5007 N   0  0  0  0  0  0  0  0  0  0  0  0
    7.6444  -17.4619   23.0619 C   0  0  0  0  0  0  0  0  0  0  0  0
    8.4400  -16.5886   25.1321 O   0  0  0  0  0  0  0  0  0  0  0  0
    9.6371  -16.4992   24.8039 C   0  0  0  0  0  0  0  0  0  0  0  0
    6.3255  -11.8353   26.3719 C   0  0  0  0  0  0  0  0  0  0  0  0
    7.4107  -12.7592   25.8847 C   0  0  2  0  0  0  0  0  0  0  0  0
    8.0721  -13.4446   27.0887 C   0  0  0  0  0  0  0  0  0  0  0  0
    9.1013  -12.4570   27.5980 C   0  0  2  0  0  0  0  0  0  0  0  0
    8.7973  -14.6904   26.6587 N   0  0  0  0  0  0  0  0  0  0  0  0
    7.9607  -15.7053   26.1208 C   0  0  0  0  0  0  0  0  0  0  0  0
    9.5164  -15.2302   27.8216 O   0  0  0  0  0  0  0  0  0  0  0  0
   10.7991  -14.8300   28.0891 O   0  0  0  0  0  0  0  0  0  0  0  0
  2  3  2  0
  2  1  1  0
  4  2  1  0
  5  4  1  0
  6  5  1  0
  7  6  1  0
  8  7  1  0
  8  9  1  6
 10 17  1  0
 10  8  1  0
 11 10  2  0
 13 12  1  0
 13 14  2  0
 16 15  1  6
 15 13  1  0
 16 17  1  0
 18 19  2  0
 18 16  1  0
 20 21  1  0
 21 22  1  0
 22 23  1  1
 24 22  1  0
 24 25  1  6
 25 18  1  0
 26 24  1  0
 27 26  1  0
 28 26  2  0
M  END
$$$$
