RNI.pdb
     RDKit          3D

 28 27  0  0  1  0  0  0  0  0999 V2000
    8.4907  -15.3245   14.8706 N   0  0  0  0  0  0  0  0  0  0  0  0
    7.9220  -14.0285   14.7884 C   0  0  0  0  0  0  0  0  0  0  0  0
    7.8307  -13.4279   13.6527 N   0  0  0  0  0  0  0  0  0  0  0  0
    7.4553  -13.4042   15.9817 N   0  0  0  0  0  0  0  0  0  0  0  0
    8.2110  -13.4481   17.2030 C   0  0  0  0  0  0  0  0  0  0  0  0
    7.9612  -14.7271   17.9920 C   0  0  0  0  0  0  0  0  0  0  0  0
    7.6975  -14.3137   19.4204 C   0  0  0  0  0  0  0  0  0  0  0  0
    8.9379  -14.3451   20.2663 C   0  0  2  0  0  0  0  0  0  0  0  0
   10.0024  -15.0433   19.5971 N   0  0  0  0  0  0  0  0  0  0  0  0
    8.5652  -15.0211   21.5598 C   0  0  0  0  0  0  0  0  0  0  0  0
    7.6137  -14.5559   22.2400 O   0  0  0  0  0  0  0  0  0  0  0  0
    7.4540  -12.4768   13.5256 N   0  0  0  0  0  0  0  0  0  0  0  0
    8.5461  -20.0956   24.7498 C   0  0  0  0  0  0  0  0  0  0  0  0
    9.0748  -18.7651   24.6853 O   0  0  0  0  0  0  0  0  0  0  0  0
    9.2431  -18.1707   25.7598 C   0  0  0  0  0  0  0  0  0  0  0  0
    9.4088  -18.1174   23.4037 C   0  0  1  0  0  0  0  0  0  0  0  0
    8.8125  -16.7498   23.2890 N   0  0  0  0  0  0  0  0  0  0  0  0
    9.2418  -16.1549   22.0371 C   0  0  0  0  0  0  0  0  0  0  0  0
    9.3106  -15.8634   24.4018 O   0  0  0  0  0  0  0  0  0  0  0  0
   10.4734  -15.4200   24.4115 C   0  0  0  0  0  0  0  0  0  0  0  0
    6.2789  -11.8283   25.9163 C   0  0  0  0  0  0  0  0  0  0  0  0
    7.4669  -12.6921   25.5830 C   0  0  2  0  0  0  0  0  0  0  0  0
    7.8376  -13.5399   26.8079 C   0  0  0  0  0  0  0  0  0  0  0  0
    8.4579  -12.5718   27.7938 C   0  0  2  0  0  0  0  0  0  0  0  0
    8.8770  -14.5663   26.4490 N   0  0  0  0  0  0  0  0  0  0  0  0
    8.4624  -15.5102   25.4710 C   0  0  0  0  0  0  0  0  0  0  0  0
    9.2593  -15.2837   27.6737 O   0  0  0  0  0  0  0  0  0  0  0  0
   10.0909  -14.6950   28.5896 O   0  0  0  0  0  0  0  0  0  0  0  0
  2  3  2  0
  2  1  1  0
  4  2  1  0
  5  4  1  0
  6  5  1  0
  7  6  1  0
  8  7  1  0
  8  9  1  6
 10 17  1  0
 10  8  1  0
 11 10  2  0
 13 12  1  0
 13 14  2  0
 16 15  1  6
 15 13  1  0
 16 17  1  0
 18 19  2  0
 18 16  1  0
 20 21  1  0
 21 22  1  0
 22 23  1  1
 24 22  1  0
 24 25  1  6
 25 18  1  0
 26 24  1  0
 27 26  1  0
 28 26  2  0
M  END
$$$$
