RNI.pdb
     RDKit          3D

 28 27  0  0  1  0  0  0  0  0999 V2000
    6.7118  -14.0375   14.9754 N   0  0  0  0  0  0  0  0  0  0  0  0
    8.0459  -14.5168   14.9798 C   0  0  0  0  0  0  0  0  0  0  0  0
    8.4739  -15.2613   14.0199 N   0  0  0  0  0  0  0  0  0  0  0  0
    8.9018  -14.1614   16.0626 N   0  0  0  0  0  0  0  0  0  0  0  0
    8.4686  -13.2786   17.1102 C   0  0  0  0  0  0  0  0  0  0  0  0
    7.1665  -13.7392   17.7531 C   0  0  0  0  0  0  0  0  0  0  0  0
    7.5356  -14.7625   18.8006 C   0  0  0  0  0  0  0  0  0  0  0  0
    8.2971  -14.1625   19.9474 C   0  0  2  0  0  0  0  0  0  0  0  0
    9.7044  -14.1001   19.6570 N   0  0  0  0  0  0  0  0  0  0  0  0
    8.0221  -15.0254   21.1510 C   0  0  0  0  0  0  0  0  0  0  0  0
    6.8372  -15.1459   21.5582 O   0  0  0  0  0  0  0  0  0  0  0  0
    9.4300  -15.6420   13.9602 N   0  0  0  0  0  0  0  0  0  0  0  0
    8.8754  -20.0092   24.1462 C   0  0  0  0  0  0  0  0  0  0  0  0
    9.2303  -18.6208   24.1260 O   0  0  0  0  0  0  0  0  0  0  0  0
    9.4766  -18.0842   25.2159 C   0  0  0  0  0  0  0  0  0  0  0  0
    9.3035  -17.8504   22.8713 C   0  0  1  0  0  0  0  0  0  0  0  0
    8.6935  -16.4906   23.0062 N   0  0  0  0  0  0  0  0  0  0  0  0
    9.0417  -15.7028   21.8385 C   0  0  0  0  0  0  0  0  0  0  0  0
    9.2540  -15.7796   24.2114 O   0  0  0  0  0  0  0  0  0  0  0  0
   10.4484  -15.4347   24.2681 C   0  0  0  0  0  0  0  0  0  0  0  0
    6.4291  -11.7334   25.8784 C   0  0  0  0  0  0  0  0  0  0  0  0
    7.6024  -12.6173   25.5457 C   0  0  2  0  0  0  0  0  0  0  0  0
    7.8925  -13.5446   26.7343 C   0  0  0  0  0  0  0  0  0  0  0  0
    8.5448  -12.6649   27.7805 C   0  0  2  0  0  0  0  0  0  0  0  0
    8.8776  -14.6132   26.3466 N   0  0  0  0  0  0  0  0  0  0  0  0
    8.4303  -15.4839   25.3165 C   0  0  0  0  0  0  0  0  0  0  0  0
    9.1900  -15.4087   27.5427 O   0  0  0  0  0  0  0  0  0  0  0  0
   10.0529  -14.9243   28.4901 O   0  0  0  0  0  0  0  0  0  0  0  0
  2  3  2  0
  2  1  1  0
  4  2  1  0
  5  4  1  0
  6  5  1  0
  7  6  1  0
  8  7  1  0
  8  9  1  6
 10 17  1  0
 10  8  1  0
 11 10  2  0
 13 12  1  0
 13 14  2  0
 16 15  1  6
 15 13  1  0
 16 17  1  0
 18 19  2  0
 18 16  1  0
 20 21  1  0
 21 22  1  0
 22 23  1  1
 24 22  1  0
 24 25  1  6
 25 18  1  0
 26 24  1  0
 27 26  1  0
 28 26  2  0
M  END
$$$$
