RNI.pdb
     RDKit          3D

 28 27  0  0  1  0  0  0  0  0999 V2000
    7.4718  -12.5674   18.3608 N   0  0  0  0  0  0  0  0  0  0  0  0
    8.4223  -13.6144   18.2601 C   0  0  0  0  0  0  0  0  0  0  0  0
    9.0018  -13.8625   17.1370 N   0  0  0  0  0  0  0  0  0  0  0  0
    8.7234  -14.3851   19.4206 N   0  0  0  0  0  0  0  0  0  0  0  0
    7.9979  -15.5831   19.7414 C   0  0  0  0  0  0  0  0  0  0  0  0
    6.9788  -15.3623   20.8521 C   0  0  0  0  0  0  0  0  0  0  0  0
    5.7512  -16.1604   20.4824 C   0  0  0  0  0  0  0  0  0  0  0  0
    5.8107  -17.5735   20.9872 C   0  0  2  0  0  0  0  0  0  0  0  0
    4.6261  -18.3029   20.6221 N   0  0  0  0  0  0  0  0  0  0  0  0
    5.9682  -17.4946   22.4832 C   0  0  0  0  0  0  0  0  0  0  0  0
    5.0099  -17.0640   23.1764 O   0  0  0  0  0  0  0  0  0  0  0  0
    9.7460  -14.5641   17.0083 N   0  0  0  0  0  0  0  0  0  0  0  0
    7.3592  -21.2234   24.2556 C   0  0  0  0  0  0  0  0  0  0  0  0
    7.0195  -20.1001   25.0781 O   0  0  0  0  0  0  0  0  0  0  0  0
    5.9578  -20.1656   25.7144 C   0  0  0  0  0  0  0  0  0  0  0  0
    7.8850  -18.9104   25.1737 C   0  0  2  0  0  0  0  0  0  0  0  0
    7.2479  -17.6978   24.5714 N   0  0  0  0  0  0  0  0  0  0  0  0
    7.1483  -17.8849   23.1359 C   0  0  0  0  0  0  0  0  0  0  0  0
    8.1053  -16.4807   24.8075 O   0  0  0  0  0  0  0  0  0  0  0  0
    9.1576  -16.2908   24.1708 C   0  0  0  0  0  0  0  0  0  0  0  0
    6.0272  -11.7108   26.9781 C   0  0  0  0  0  0  0  0  0  0  0  0
    6.6319  -13.0893   26.9274 C   0  0  2  0  0  0  0  0  0  0  0  0
    7.8627  -13.0702   26.0100 C   0  0  0  0  0  0  0  0  0  0  0  0
    7.3189  -12.8589   24.6123 C   0  0  1  0  0  0  0  0  0  0  0  0
    8.5672  -14.3990   26.0381 N   0  0  0  0  0  0  0  0  0  0  0  0
    7.7324  -15.5162   25.7657 C   0  0  0  0  0  0  0  0  0  0  0  0
    9.1770  -14.5700   27.3646 O   0  0  0  0  0  0  0  0  0  0  0  0
    8.8221  -15.6289   28.1582 O   0  0  0  0  0  0  0  0  0  0  0  0
  2  3  2  0
  2  1  1  0
  4  2  1  0
  5  4  1  0
  6  5  1  0
  7  6  1  0
  8  7  1  0
  8  9  1  1
 10 17  1  0
 10  8  1  0
 11 10  2  0
 13 12  1  0
 13 14  2  0
 16 15  1  1
 15 13  1  0
 16 17  1  0
 18 19  2  0
 18 16  1  0
 20 21  1  0
 21 22  1  0
 22 23  1  1
 24 22  1  0
 24 25  1  6
 25 18  1  0
 26 24  1  0
 27 26  1  0
 28 26  2  0
M  END
$$$$
