YRN.pdb
     RDKit          3D

 32 32  0  0  1  0  0  0  0  0999 V2000
   31.5590  -16.1381  -19.8184 O   0  0  0  0  0  0  0  0  0  0  0  0
   30.6341  -16.8510  -19.0619 C   0  0  0  0  0  0  0  0  0  0  0  0
   30.9099  -17.2412  -17.7675 C   0  0  0  0  0  0  0  0  0  0  0  0
   29.9573  -17.9451  -17.0650 C   0  0  0  0  0  0  0  0  0  0  0  0
   28.7517  -18.2667  -17.6120 C   0  0  0  0  0  0  0  0  0  0  0  0
   27.7039  -19.0288  -16.8727 C   0  0  0  0  0  0  0  0  0  0  0  0
   28.2383  -20.3959  -16.4672 C   0  0  2  0  0  0  0  0  0  0  0  0
   28.4088  -21.2421  -17.6334 N   0  0  0  0  0  0  0  0  0  0  0  0
   27.2192  -21.0317  -15.5641 C   0  0  0  0  0  0  0  0  0  0  0  0
   26.2878  -21.7518  -16.0213 O   0  0  0  0  0  0  0  0  0  0  0  0
   28.4601  -17.8825  -18.9088 C   0  0  0  0  0  0  0  0  0  0  0  0
   29.4079  -17.1794  -19.6147 C   0  0  0  0  0  0  0  0  0  0  0  0
   23.0908  -20.4129   -9.2578 N   0  0  0  0  0  0  0  0  0  0  0  0
   23.8698  -21.1398   -8.3206 C   0  0  0  0  0  0  0  0  0  0  0  0
   23.3200  -21.7343   -7.3203 N   0  0  0  0  0  0  0  0  0  0  0  0
   25.2795  -21.2324   -8.4587 N   0  0  0  0  0  0  0  0  0  0  0  0
   25.9231  -20.4668   -9.5005 C   0  0  0  0  0  0  0  0  0  0  0  0
   25.3842  -20.7925  -10.8859 C   0  0  0  0  0  0  0  0  0  0  0  0
   26.4967  -20.6997  -11.8667 C   0  0  0  0  0  0  0  0  0  0  0  0
   26.1133  -21.0389  -13.2924 C   0  0  2  0  0  0  0  0  0  0  0  0
   27.2780  -20.8369  -14.1587 N   0  0  0  0  0  0  0  0  0  0  0  0
   24.9543  -20.2691  -13.7801 C   0  0  0  0  0  0  0  0  0  0  0  0
   25.0304  -19.1003  -14.2300 O   0  0  0  0  0  0  0  0  0  0  0  0
   23.8473  -22.2474   -6.5847 N   0  0  0  0  0  0  0  0  0  0  0  0
   21.4821  -18.1294  -16.8704 C   0  0  0  0  0  0  0  0  0  0  0  0
   21.5210  -19.5318  -16.6411 O   0  0  0  0  0  0  0  0  0  0  0  0
   20.5952  -20.2609  -17.0327 C   0  0  0  0  0  0  0  0  0  0  0  0
   22.6760  -20.0939  -15.9338 C   0  0  1  0  0  0  0  0  0  0  0  0
   22.5311  -20.1631  -14.4506 N   0  0  0  0  0  0  0  0  0  0  0  0
   23.6200  -20.8235  -13.7721 C   0  0  0  0  0  0  0  0  0  0  0  0
   21.2858  -20.9547  -14.1587 O   0  0  0  0  0  0  0  0  0  0  0  0
   20.0392  -20.3535  -14.0508 O   0  0  0  0  0  0  0  0  0  0  0  0
  2  1  1  0
  3  2  2  0
  4  3  1  0
  5 11  1  0
  5  4  2  0
  6  5  1  0
  7  6  1  0
  7  8  1  6
  9  7  1  0
  9 21  1  0
 10  9  2  0
 11 12  2  0
 12  2  1  0
 14 13  1  0
 15 14  2  0
 16 14  1  0
 17 16  1  0
 18 17  1  0
 18 19  1  0
 20 19  1  1
 20 21  1  0
 20 22  1  0
 22 23  2  0
 24 25  1  0
 25 26  2  0
 25 27  1  0
 28 30  1  0
 28 27  1  1
 29 22  1  0
 29 28  1  0
 30 32  2  0
 30 31  1  0
M  END
$$$$
