YRN.pdb
     RDKit          3D

 32 32  0  0  1  0  0  0  0  0999 V2000
   28.1229  -18.6077  -16.2011 O   0  0  0  0  0  0  0  0  0  0  0  0
   27.8013  -18.8825  -14.8756 C   0  0  0  0  0  0  0  0  0  0  0  0
   26.9450  -18.0717  -14.1592 C   0  0  0  0  0  0  0  0  0  0  0  0
   26.6617  -18.3914  -12.8500 C   0  0  0  0  0  0  0  0  0  0  0  0
   27.2029  -19.4847  -12.2432 C   0  0  0  0  0  0  0  0  0  0  0  0
   26.9128  -19.8519  -10.8268 C   0  0  0  0  0  0  0  0  0  0  0  0
   25.9021  -20.9899  -10.7768 C   0  0  2  0  0  0  0  0  0  0  0  0
   26.3116  -22.0730  -11.6509 N   0  0  0  0  0  0  0  0  0  0  0  0
   24.5886  -20.4519  -11.2706 C   0  0  0  0  0  0  0  0  0  0  0  0
   24.0294  -19.4631  -10.7187 O   0  0  0  0  0  0  0  0  0  0  0  0
   28.0633  -20.3075  -12.9483 C   0  0  0  0  0  0  0  0  0  0  0  0
   28.3494  -19.9927  -14.2559 C   0  0  0  0  0  0  0  0  0  0  0  0
   22.1551  -18.9902  -18.9716 N   0  0  0  0  0  0  0  0  0  0  0  0
   22.6312  -18.1729  -17.9138 C   0  0  0  0  0  0  0  0  0  0  0  0
   23.3727  -17.1478  -18.1497 N   0  0  0  0  0  0  0  0  0  0  0  0
   22.3035  -18.4621  -16.5633 N   0  0  0  0  0  0  0  0  0  0  0  0
   21.4335  -19.5817  -16.2883 C   0  0  0  0  0  0  0  0  0  0  0  0
   21.2831  -19.8554  -14.7989 C   0  0  0  0  0  0  0  0  0  0  0  0
   22.5897  -20.3172  -14.2623 C   0  0  0  0  0  0  0  0  0  0  0  0
   22.5803  -20.6672  -12.7885 C   0  0  2  0  0  0  0  0  0  0  0  0
   23.9359  -21.0481  -12.3819 N   0  0  0  0  0  0  0  0  0  0  0  0
   21.6119  -21.7261  -12.4500 C   0  0  0  0  0  0  0  0  0  0  0  0
   21.9203  -22.7982  -11.8758 O   0  0  0  0  0  0  0  0  0  0  0  0
   23.7454  -16.5152  -17.4126 N   0  0  0  0  0  0  0  0  0  0  0  0
   17.4218  -24.4862  -11.4735 C   0  0  0  0  0  0  0  0  0  0  0  0
   18.2772  -23.9219  -10.4883 O   0  0  0  0  0  0  0  0  0  0  0  0
   18.1911  -24.2752   -9.3009 C   0  0  0  0  0  0  0  0  0  0  0  0
   19.2596  -22.9168  -10.9066 C   0  0  1  0  0  0  0  0  0  0  0  0
   19.2548  -22.6033  -12.3652 N   0  0  0  0  0  0  0  0  0  0  0  0
   20.2077  -21.5962  -12.7650 C   0  0  0  0  0  0  0  0  0  0  0  0
   17.8879  -22.0758  -12.7055 O   0  0  0  0  0  0  0  0  0  0  0  0
   16.8354  -22.9175  -13.0388 O   0  0  0  0  0  0  0  0  0  0  0  0
  2  1  1  0
  3  2  2  0
  4  3  1  0
  5 11  1  0
  5  4  2  0
  6  5  1  0
  7  6  1  0
  7  8  1  6
  9  7  1  0
  9 21  1  0
 10  9  2  0
 11 12  2  0
 12  2  1  0
 14 13  1  0
 15 14  2  0
 16 14  1  0
 17 16  1  0
 18 17  1  0
 18 19  1  0
 20 19  1  6
 20 21  1  0
 20 22  1  0
 22 23  2  0
 24 25  1  0
 25 26  2  0
 25 27  1  0
 28 30  1  0
 28 27  1  6
 29 22  1  0
 29 28  1  0
 30 32  2  0
 30 31  1  0
M  END
$$$$
