YRN.pdb
     RDKit          3D

 32 32  0  0  1  0  0  0  0  0999 V2000
   30.0054  -15.2889  -19.8816 O   0  0  0  0  0  0  0  0  0  0  0  0
   29.1658  -16.0904  -19.1144 C   0  0  0  0  0  0  0  0  0  0  0  0
   28.1297  -16.8013  -19.6844 C   0  0  0  0  0  0  0  0  0  0  0  0
   27.3298  -17.5789  -18.8770 C   0  0  0  0  0  0  0  0  0  0  0  0
   27.5328  -17.6655  -17.5325 C   0  0  0  0  0  0  0  0  0  0  0  0
   26.6803  -18.4995  -16.6365 C   0  0  0  0  0  0  0  0  0  0  0  0
   27.4771  -19.6856  -16.1098 C   0  0  2  0  0  0  0  0  0  0  0  0
   27.7582  -20.6250  -17.1791 N   0  0  0  0  0  0  0  0  0  0  0  0
   26.6310  -20.3785  -15.0791 C   0  0  0  0  0  0  0  0  0  0  0  0
   25.7381  -21.2095  -15.4064 O   0  0  0  0  0  0  0  0  0  0  0  0
   28.5675  -16.9587  -16.9460 C   0  0  0  0  0  0  0  0  0  0  0  0
   29.3693  -16.1807  -17.7478 C   0  0  0  0  0  0  0  0  0  0  0  0
   27.0697  -19.4153   -6.2809 N   0  0  0  0  0  0  0  0  0  0  0  0
   25.9584  -20.2862   -6.4223 C   0  0  0  0  0  0  0  0  0  0  0  0
   25.3710  -20.7848   -5.3914 N   0  0  0  0  0  0  0  0  0  0  0  0
   25.4617  -20.6335   -7.7058 N   0  0  0  0  0  0  0  0  0  0  0  0
   26.2305  -20.2572   -8.8690 C   0  0  0  0  0  0  0  0  0  0  0  0
   25.5920  -20.7224  -10.1697 C   0  0  0  0  0  0  0  0  0  0  0  0
   26.4412  -20.2789  -11.3057 C   0  0  0  0  0  0  0  0  0  0  0  0
   25.8792  -20.5942  -12.6766 C   0  0  2  0  0  0  0  0  0  0  0  0
   26.8159  -20.1138  -13.6963 N   0  0  0  0  0  0  0  0  0  0  0  0
   24.5323  -20.0353  -12.8938 C   0  0  0  0  0  0  0  0  0  0  0  0
   24.2947  -19.0510  -13.6346 O   0  0  0  0  0  0  0  0  0  0  0  0
   24.5637  -21.4393   -5.4396 N   0  0  0  0  0  0  0  0  0  0  0  0
   19.5253  -20.1686  -13.9368 C   0  0  0  0  0  0  0  0  0  0  0  0
   20.5085  -20.8318  -14.7204 O   0  0  0  0  0  0  0  0  0  0  0  0
   20.2303  -21.2581  -15.8530 C   0  0  0  0  0  0  0  0  0  0  0  0
   21.8536  -20.9995  -14.1609 C   0  0  2  0  0  0  0  0  0  0  0  0
   22.0460  -20.4135  -12.8025 N   0  0  0  0  0  0  0  0  0  0  0  0
   23.3668  -20.5983  -12.2515 C   0  0  0  0  0  0  0  0  0  0  0  0
   21.0821  -21.1034  -11.8764 O   0  0  0  0  0  0  0  0  0  0  0  0
   19.8676  -20.5336  -11.5195 O   0  0  0  0  0  0  0  0  0  0  0  0
  2  1  1  0
  3  2  2  0
  4  3  1  0
  5 11  1  0
  5  4  2  0
  6  5  1  0
  7  6  1  0
  7  8  1  6
  9  7  1  0
  9 21  1  0
 10  9  2  0
 11 12  2  0
 12  2  1  0
 14 13  1  0
 15 14  2  0
 16 14  1  0
 17 16  1  0
 18 17  1  0
 18 19  1  0
 20 19  1  1
 20 21  1  0
 20 22  1  0
 22 23  2  0
 24 25  1  0
 25 26  2  0
 25 27  1  0
 28 30  1  0
 28 27  1  6
 29 22  1  0
 29 28  1  0
 30 32  2  0
 30 31  1  0
M  END
$$$$
