YRN.pdb
     RDKit          3D

 32 32  0  0  1  0  0  0  0  0999 V2000
   24.0280  -17.0826  -15.7902 O   0  0  0  0  0  0  0  0  0  0  0  0
   23.2308  -18.0961  -15.2676 C   0  0  0  0  0  0  0  0  0  0  0  0
   23.7384  -19.3539  -15.0148 C   0  0  0  0  0  0  0  0  0  0  0  0
   22.9036  -20.3192  -14.4971 C   0  0  0  0  0  0  0  0  0  0  0  0
   21.5921  -20.0669  -14.2281 C   0  0  0  0  0  0  0  0  0  0  0  0
   20.6675  -21.0950  -13.6684 C   0  0  0  0  0  0  0  0  0  0  0  0
   20.6804  -22.3425  -14.5417 C   0  0  2  0  0  0  0  0  0  0  0  0
   20.0991  -22.0604  -15.8408 N   0  0  0  0  0  0  0  0  0  0  0  0
   19.8368  -23.3824  -13.8597 C   0  0  0  0  0  0  0  0  0  0  0  0
   18.5752  -23.3329  -13.8873 O   0  0  0  0  0  0  0  0  0  0  0  0
   21.0682  -18.8106  -14.4761 C   0  0  0  0  0  0  0  0  0  0  0  0
   21.8975  -17.8431  -14.9930 C   0  0  0  0  0  0  0  0  0  0  0  0
   22.1245  -31.5089  -11.5638 N   0  0  0  0  0  0  0  0  0  0  0  0
   20.9102  -31.3783  -10.8412 C   0  0  0  0  0  0  0  0  0  0  0  0
   20.3733  -32.3919  -10.2575 N   0  0  0  0  0  0  0  0  0  0  0  0
   20.2513  -30.1250  -10.7411 N   0  0  0  0  0  0  0  0  0  0  0  0
   20.8240  -28.9874  -11.4221 C   0  0  0  0  0  0  0  0  0  0  0  0
   19.8689  -27.8047  -11.4932 C   0  0  0  0  0  0  0  0  0  0  0  0
   20.5275  -26.7013  -12.2395 C   0  0  0  0  0  0  0  0  0  0  0  0
   19.6558  -25.4838  -12.4685 C   0  0  2  0  0  0  0  0  0  0  0  0
   20.4432  -24.4587  -13.1593 N   0  0  0  0  0  0  0  0  0  0  0  0
   19.0690  -24.9488  -11.2263 C   0  0  0  0  0  0  0  0  0  0  0  0
   19.5156  -23.9472  -10.6166 O   0  0  0  0  0  0  0  0  0  0  0  0
   19.4824  -32.3523   -9.7217 N   0  0  0  0  0  0  0  0  0  0  0  0
   15.0205  -21.5842  -10.4852 C   0  0  0  0  0  0  0  0  0  0  0  0
   15.3049  -22.8860   -9.9903 O   0  0  0  0  0  0  0  0  0  0  0  0
   14.7467  -23.3065   -8.9638 C   0  0  0  0  0  0  0  0  0  0  0  0
   16.2695  -23.7166  -10.7183 C   0  0  1  0  0  0  0  0  0  0  0  0
   16.9400  -24.7663   -9.8970 N   0  0  0  0  0  0  0  0  0  0  0  0
   17.9112  -25.5579  -10.6127 C   0  0  0  0  0  0  0  0  0  0  0  0
   15.8713  -25.7094   -9.4164 O   0  0  0  0  0  0  0  0  0  0  0  0
   15.4217  -25.7055   -8.1030 O   0  0  0  0  0  0  0  0  0  0  0  0
  2  1  1  0
  3  2  2  0
  4  3  1  0
  5 11  1  0
  5  4  2  0
  6  5  1  0
  7  6  1  0
  7  8  1  6
  9  7  1  0
  9 21  1  0
 10  9  2  0
 11 12  2  0
 12  2  1  0
 14 13  1  0
 15 14  2  0
 16 14  1  0
 17 16  1  0
 18 17  1  0
 18 19  1  0
 20 19  1  1
 20 21  1  0
 20 22  1  0
 22 23  2  0
 24 25  1  0
 25 26  2  0
 25 27  1  0
 28 30  1  0
 28 27  1  1
 29 22  1  0
 29 28  1  0
 30 32  2  0
 30 31  1  0
M  END
$$$$
