YRN.pdb
     RDKit          3D

 32 32  0  0  1  0  0  0  0  0999 V2000
   15.7495  -20.3014  -15.3763 O   0  0  0  0  0  0  0  0  0  0  0  0
   17.1001  -20.0254  -15.1872 C   0  0  0  0  0  0  0  0  0  0  0  0
   18.0532  -20.4342  -16.0972 C   0  0  0  0  0  0  0  0  0  0  0  0
   19.3759  -20.1336  -15.8594 C   0  0  0  0  0  0  0  0  0  0  0  0
   19.7689  -19.4446  -14.7517 C   0  0  0  0  0  0  0  0  0  0  0  0
   21.1947  -19.1075  -14.4708 C   0  0  0  0  0  0  0  0  0  0  0  0
   22.0532  -20.3635  -14.5376 C   0  0  2  0  0  0  0  0  0  0  0  0
   21.7438  -21.2509  -13.4323 N   0  0  0  0  0  0  0  0  0  0  0  0
   23.4895  -19.9380  -14.4173 C   0  0  0  0  0  0  0  0  0  0  0  0
   23.9868  -19.5940  -13.3086 O   0  0  0  0  0  0  0  0  0  0  0  0
   18.8252  -19.0278  -13.8298 C   0  0  0  0  0  0  0  0  0  0  0  0
   17.5030  -19.3254  -14.0626 C   0  0  0  0  0  0  0  0  0  0  0  0
   29.8695  -24.0382  -17.4710 N   0  0  0  0  0  0  0  0  0  0  0  0
   28.8200  -23.9986  -16.5168 C   0  0  0  0  0  0  0  0  0  0  0  0
   28.3479  -25.0808  -16.0047 N   0  0  0  0  0  0  0  0  0  0  0  0
   28.2595  -22.7633  -16.0988 N   0  0  0  0  0  0  0  0  0  0  0  0
   28.7790  -21.5416  -16.6675 C   0  0  0  0  0  0  0  0  0  0  0  0
   28.0374  -20.3057  -16.1792 C   0  0  0  0  0  0  0  0  0  0  0  0
   26.6008  -20.6453  -16.0084 C   0  0  0  0  0  0  0  0  0  0  0  0
   25.7416  -19.5145  -15.4814 C   0  0  2  0  0  0  0  0  0  0  0  0
   24.3330  -19.9116  -15.5593 N   0  0  0  0  0  0  0  0  0  0  0  0
   25.9684  -18.2380  -16.1834 C   0  0  0  0  0  0  0  0  0  0  0  0
   25.5969  -18.0115  -17.3602 O   0  0  0  0  0  0  0  0  0  0  0  0
   27.5962  -25.1066  -15.2858 N   0  0  0  0  0  0  0  0  0  0  0  0
   27.2816  -13.4267  -17.4530 C   0  0  0  0  0  0  0  0  0  0  0  0
   27.5506  -13.4952  -16.0589 O   0  0  0  0  0  0  0  0  0  0  0  0
   27.9472  -12.4926  -15.4429 C   0  0  0  0  0  0  0  0  0  0  0  0
   27.3491  -14.7734  -15.3689 C   0  0  2  0  0  0  0  0  0  0  0  0
   26.8534  -15.8828  -16.2345 N   0  0  0  0  0  0  0  0  0  0  0  0
   26.6511  -17.1351  -15.5467 C   0  0  0  0  0  0  0  0  0  0  0  0
   27.8948  -16.1249  -17.2926 O   0  0  0  0  0  0  0  0  0  0  0  0
   27.7348  -15.6824  -18.5986 O   0  0  0  0  0  0  0  0  0  0  0  0
  2  1  1  0
  3  2  2  0
  4  3  1  0
  5 11  1  0
  5  4  2  0
  6  5  1  0
  7  6  1  0
  7  8  1  1
  9  7  1  0
  9 21  1  0
 10  9  2  0
 11 12  2  0
 12  2  1  0
 14 13  1  0
 15 14  2  0
 16 14  1  0
 17 16  1  0
 18 17  1  0
 18 19  1  0
 20 19  1  6
 20 21  1  0
 20 22  1  0
 22 23  2  0
 24 25  1  0
 25 26  2  0
 25 27  1  0
 28 30  1  0
 28 27  1  1
 29 22  1  0
 29 28  1  0
 30 32  2  0
 30 31  1  0
M  END
$$$$
