YRN.pdb
     RDKit          3D

 32 32  0  0  1  0  0  0  0  0999 V2000
   30.3680  -16.2016  -18.5431 O   0  0  0  0  0  0  0  0  0  0  0  0
   29.1000  -16.6587  -18.1979 C   0  0  0  0  0  0  0  0  0  0  0  0
   28.7481  -17.9849  -18.3431 C   0  0  0  0  0  0  0  0  0  0  0  0
   27.4789  -18.3820  -17.9855 C   0  0  0  0  0  0  0  0  0  0  0  0
   26.5621  -17.5026  -17.4930 C   0  0  0  0  0  0  0  0  0  0  0  0
   25.1813  -17.9073  -17.0995 C   0  0  0  0  0  0  0  0  0  0  0  0
   24.3731  -18.2824  -18.3345 C   0  0  2  0  0  0  0  0  0  0  0  0
   24.1292  -17.1129  -19.1577 N   0  0  0  0  0  0  0  0  0  0  0  0
   23.0494  -18.8172  -17.8651 C   0  0  0  0  0  0  0  0  0  0  0  0
   22.0993  -18.0473  -17.5495 O   0  0  0  0  0  0  0  0  0  0  0  0
   26.8998  -16.1695  -17.3415 C   0  0  0  0  0  0  0  0  0  0  0  0
   28.1659  -15.7678  -17.6970 C   0  0  0  0  0  0  0  0  0  0  0  0
   22.3827  -25.4052  -17.1813 N   0  0  0  0  0  0  0  0  0  0  0  0
   21.0807  -25.9338  -16.9834 C   0  0  0  0  0  0  0  0  0  0  0  0
   20.8929  -26.9807  -16.2587 N   0  0  0  0  0  0  0  0  0  0  0  0
   19.9464  -25.3231  -17.5793 N   0  0  0  0  0  0  0  0  0  0  0  0
   20.1530  -24.2127  -18.4795 C   0  0  0  0  0  0  0  0  0  0  0  0
   20.1342  -22.8684  -17.7664 C   0  0  0  0  0  0  0  0  0  0  0  0
   21.4323  -22.1839  -18.0003 C   0  0  0  0  0  0  0  0  0  0  0  0
   21.5185  -20.7808  -17.4358 C   0  0  2  0  0  0  0  0  0  0  0  0
   22.8309  -20.2166  -17.7632 N   0  0  0  0  0  0  0  0  0  0  0  0
   21.2678  -20.7233  -15.9841 C   0  0  0  0  0  0  0  0  0  0  0  0
   22.1177  -21.0334  -15.1148 O   0  0  0  0  0  0  0  0  0  0  0  0
   19.9680  -27.4366  -16.1209 N   0  0  0  0  0  0  0  0  0  0  0  0
   17.6929  -18.9553  -11.7797 C   0  0  0  0  0  0  0  0  0  0  0  0
   19.0505  -18.7359  -12.1395 O   0  0  0  0  0  0  0  0  0  0  0  0
   19.8995  -18.4775  -11.2709 C   0  0  0  0  0  0  0  0  0  0  0  0
   19.4223  -18.8219  -13.5554 C   0  0  2  0  0  0  0  0  0  0  0  0
   19.7735  -20.1919  -14.0303 N   0  0  0  0  0  0  0  0  0  0  0  0
   19.9942  -20.2952  -15.4525 C   0  0  0  0  0  0  0  0  0  0  0  0
   18.6148  -21.0918  -13.6981 O   0  0  0  0  0  0  0  0  0  0  0  0
   18.2389  -21.3556  -12.3880 O   0  0  0  0  0  0  0  0  0  0  0  0
  2  1  1  0
  3  2  2  0
  4  3  1  0
  5 11  1  0
  5  4  2  0
  6  5  1  0
  7  6  1  0
  7  8  1  6
  9  7  1  0
  9 21  1  0
 10  9  2  0
 11 12  2  0
 12  2  1  0
 14 13  1  0
 15 14  2  0
 16 14  1  0
 17 16  1  0
 18 17  1  0
 18 19  1  0
 20 19  1  1
 20 21  1  0
 20 22  1  0
 22 23  2  0
 24 25  1  0
 25 26  2  0
 25 27  1  0
 28 30  1  0
 28 27  1  1
 29 22  1  0
 29 28  1  0
 30 32  2  0
 30 31  1  0
M  END
$$$$
