EFC.pdb
     RDKit          3D

 27 27  0  0  1  0  0  0  0  0999 V2000
   22.3143  -20.9838  -14.2126 N   0  0  0  0  0  0  0  0  0  0  0  0
   21.6181  -20.2677  -13.1443 C   0  0  1  0  0  0  0  0  0  0  0  0
   20.2327  -19.9965  -13.6701 C   0  0  0  0  0  0  0  0  0  0  0  0
   20.0450  -20.4221  -15.0918 C   0  0  0  0  0  0  0  0  0  0  0  0
   18.7941  -21.1701  -15.3439 C   0  0  0  0  0  0  0  0  0  0  0  0
   17.6821  -20.6438  -15.5507 O   0  0  0  0  0  0  0  0  0  0  0  0
   21.6137  -21.0490  -11.8919 C   0  0  0  0  0  0  0  0  0  0  0  0
   21.6128  -22.3015  -11.9539 O   0  0  0  0  0  0  0  0  0  0  0  0
   18.8187  -22.5765  -15.3595 O   0  0  0  0  0  0  0  0  0  0  0  0
   21.6104  -20.4774  -10.6023 N   0  0  0  0  0  0  0  0  0  0  0  0
   21.6938  -21.2546   -9.3711 C   0  0  1  0  0  0  0  0  0  0  0  0
   22.2549  -20.4522   -8.2447 C   0  0  0  0  0  0  0  0  0  0  0  0
   23.6948  -20.4560   -8.1277 C   0  0  0  0  0  0  0  0  0  0  0  0
   24.4279  -19.3012   -8.1177 C   0  0  0  0  0  0  0  0  0  0  0  0
   25.8253  -19.3350   -8.0051 C   0  0  0  0  0  0  0  0  0  0  0  0
   26.4655  -20.5374   -7.9039 C   0  0  0  0  0  0  0  0  0  0  0  0
   25.7531  -21.6995   -7.9120 C   0  0  0  0  0  0  0  0  0  0  0  0
   24.3772  -21.6485   -8.0235 C   0  0  0  0  0  0  0  0  0  0  0  0
   20.4058  -21.8754   -8.9953 C   0  0  0  0  0  0  0  0  0  0  0  0
   19.3083  -21.2320   -8.9939 O   0  0  0  0  0  0  0  0  0  0  0  0
   20.3496  -23.2308   -8.6211 N   0  0  0  0  0  0  0  0  0  0  0  0
   19.1239  -23.8754   -8.1609 C   0  0  1  0  0  0  0  0  0  0  0  0
   19.2236  -25.3864   -8.3411 C   0  0  0  0  0  0  0  0  0  0  0  0
   17.6755  -26.1587   -7.7574 S   0  0  0  0  0  0  0  0  0  0  0  0
   18.7986  -23.5982   -6.7566 C   0  0  0  0  0  0  0  0  0  0  0  0
   17.4826  -23.5311   -6.3559 O   0  0  0  0  0  0  0  0  0  0  0  0
   19.7015  -23.4224   -5.9202 O   0  0  0  0  0  0  0  0  0  0  0  0
  2  1  1  6
  2  3  1  0
  4  3  1  0
  5  6  2  0
  5  4  1  0
  7 10  1  0
  7  2  1  0
  8  7  2  0
  9  5  1  0
 11 10  1  0
 12 13  1  0
 11 12  1  1
 13 14  2  0
 13 18  1  0
 14 15  1  0
 15 16  2  0
 17 16  1  0
 18 17  2  0
 19 11  1  0
 19 20  2  0
 21 19  1  0
 22 21  1  0
 22 23  1  1
 24 23  1  0
 25 22  1  0
 26 25  1  0
 27 25  2  0
M  END
$$$$
