EFC.pdb
     RDKit          3D

 27 27  0  0  1  0  0  0  0  0999 V2000
   22.2932  -14.3645  -16.8874 N   0  0  0  0  0  0  0  0  0  0  0  0
   21.8777  -13.1711  -17.6237 C   0  0  1  0  0  0  0  0  0  0  0  0
   20.4093  -13.3555  -17.9049 C   0  0  0  0  0  0  0  0  0  0  0  0
   20.1219  -14.4964  -18.8286 C   0  0  0  0  0  0  0  0  0  0  0  0
   20.4867  -14.2448  -20.2397 C   0  0  0  0  0  0  0  0  0  0  0  0
   21.3191  -14.9115  -20.8871 O   0  0  0  0  0  0  0  0  0  0  0  0
   22.1653  -11.9430  -16.8570 C   0  0  0  0  0  0  0  0  0  0  0  0
   21.8464  -11.8912  -15.6452 O   0  0  0  0  0  0  0  0  0  0  0  0
   19.8736  -13.1875  -20.9362 O   0  0  0  0  0  0  0  0  0  0  0  0
   22.7861  -10.7983  -17.3993 N   0  0  0  0  0  0  0  0  0  0  0  0
   23.1024   -9.6040  -16.6244 C   0  0  1  0  0  0  0  0  0  0  0  0
   24.4911   -9.1238  -16.8862 C   0  0  0  0  0  0  0  0  0  0  0  0
   25.5501  -10.0336  -16.5153 C   0  0  0  0  0  0  0  0  0  0  0  0
   25.9201  -10.2288  -15.2129 C   0  0  0  0  0  0  0  0  0  0  0  0
   26.9537  -11.1170  -14.8820 C   0  0  0  0  0  0  0  0  0  0  0  0
   27.6017  -11.7979  -15.8732 C   0  0  0  0  0  0  0  0  0  0  0  0
   27.2481  -11.6175  -17.1772 C   0  0  0  0  0  0  0  0  0  0  0  0
   26.2277  -10.7389  -17.4858 C   0  0  0  0  0  0  0  0  0  0  0  0
   22.1170   -8.5185  -16.8141 C   0  0  0  0  0  0  0  0  0  0  0  0
   21.7160   -8.1485  -17.9634 O   0  0  0  0  0  0  0  0  0  0  0  0
   21.5750   -7.8451  -15.7036 N   0  0  0  0  0  0  0  0  0  0  0  0
   20.6352   -6.7360  -15.8309 C   0  0  1  0  0  0  0  0  0  0  0  0
   19.2043   -7.2362  -15.6640 C   0  0  0  0  0  0  0  0  0  0  0  0
   18.0757   -5.8021  -15.6061 S   0  0  0  0  0  0  0  0  0  0  0  0
   20.8612   -5.6526  -14.8665 C   0  0  0  0  0  0  0  0  0  0  0  0
   21.4338   -5.9280  -13.6446 O   0  0  0  0  0  0  0  0  0  0  0  0
   20.5402   -4.4832  -15.1410 O   0  0  0  0  0  0  0  0  0  0  0  0
  2  1  1  1
  2  3  1  0
  4  3  1  0
  5  6  2  0
  5  4  1  0
  7 10  1  0
  7  2  1  0
  8  7  2  0
  9  5  1  0
 11 10  1  0
 12 13  1  0
 11 12  1  6
 13 14  2  0
 13 18  1  0
 14 15  1  0
 15 16  2  0
 17 16  1  0
 18 17  2  0
 19 11  1  0
 19 20  2  0
 21 19  1  0
 22 21  1  0
 22 23  1  1
 24 23  1  0
 25 22  1  0
 26 25  1  0
 27 25  2  0
M  END
$$$$
