EFC.pdb
     RDKit          3D

 27 27  0  0  1  0  0  0  0  0999 V2000
   21.0388  -20.4519  -10.9647 N   0  0  0  0  0  0  0  0  0  0  0  0
   21.7861  -21.0515  -12.0696 C   0  0  1  0  0  0  0  0  0  0  0  0
   21.0243  -20.6941  -13.3191 C   0  0  0  0  0  0  0  0  0  0  0  0
   20.0997  -21.7764  -13.7790 C   0  0  0  0  0  0  0  0  0  0  0  0
   19.0318  -22.1165  -12.8137 C   0  0  0  0  0  0  0  0  0  0  0  0
   18.0889  -21.3609  -12.5033 O   0  0  0  0  0  0  0  0  0  0  0  0
   23.1823  -20.5732  -12.0923 C   0  0  0  0  0  0  0  0  0  0  0  0
   23.4157  -19.3605  -11.8738 O   0  0  0  0  0  0  0  0  0  0  0  0
   19.0453  -23.3719  -12.1791 O   0  0  0  0  0  0  0  0  0  0  0  0
   24.2977  -21.3981  -12.3473 N   0  0  0  0  0  0  0  0  0  0  0  0
   25.6805  -20.9474  -12.2402 C   0  0  1  0  0  0  0  0  0  0  0  0
   26.4751  -21.8077  -11.3151 C   0  0  0  0  0  0  0  0  0  0  0  0
   26.6985  -21.2689   -9.9934 C   0  0  0  0  0  0  0  0  0  0  0  0
   25.7164  -20.6218   -9.2949 C   0  0  0  0  0  0  0  0  0  0  0  0
   25.9622  -20.1066   -8.0140 C   0  0  0  0  0  0  0  0  0  0  0  0
   27.1996  -20.2520   -7.4541 C   0  0  0  0  0  0  0  0  0  0  0  0
   28.1918  -20.8936   -8.1337 C   0  0  0  0  0  0  0  0  0  0  0  0
   27.9329  -21.3952   -9.3945 C   0  0  0  0  0  0  0  0  0  0  0  0
   26.3461  -20.8185  -13.5540 C   0  0  0  0  0  0  0  0  0  0  0  0
   26.1718  -21.6548  -14.4967 O   0  0  0  0  0  0  0  0  0  0  0  0
   27.2120  -19.7396  -13.8121 N   0  0  0  0  0  0  0  0  0  0  0  0
   27.7931  -19.4872  -15.1267 C   0  0  1  0  0  0  0  0  0  0  0  0
   28.6098  -18.1996  -15.1034 C   0  0  0  0  0  0  0  0  0  0  0  0
   27.5458  -16.8304  -14.5316 S   0  0  0  0  0  0  0  0  0  0  0  0
   28.6544  -20.5717  -15.6133 C   0  0  0  0  0  0  0  0  0  0  0  0
   29.1169  -20.5532  -16.9104 O   0  0  0  0  0  0  0  0  0  0  0  0
   28.9730  -21.5118  -14.8646 O   0  0  0  0  0  0  0  0  0  0  0  0
  2  1  1  1
  2  3  1  0
  4  3  1  0
  5  6  2  0
  5  4  1  0
  7 10  1  0
  7  2  1  0
  8  7  2  0
  9  5  1  0
 11 10  1  0
 12 13  1  0
 11 12  1  1
 13 14  2  0
 13 18  1  0
 14 15  1  0
 15 16  2  0
 17 16  1  0
 18 17  2  0
 19 11  1  0
 19 20  2  0
 21 19  1  0
 22 21  1  0
 22 23  1  1
 24 23  1  0
 25 22  1  0
 26 25  1  0
 27 25  2  0
M  END
$$$$
