EFC.pdb
     RDKit          3D

 27 27  0  0  1  0  0  0  0  0999 V2000
   28.4542  -23.0225  -16.9889 N   0  0  0  0  0  0  0  0  0  0  0  0
   27.7990  -21.7278  -16.8062 C   0  0  1  0  0  0  0  0  0  0  0  0
   27.1323  -21.4186  -18.1212 C   0  0  0  0  0  0  0  0  0  0  0  0
   28.0687  -20.8528  -19.1414 C   0  0  0  0  0  0  0  0  0  0  0  0
   28.3580  -19.4124  -18.9705 C   0  0  0  0  0  0  0  0  0  0  0  0
   27.8091  -18.6734  -18.1285 O   0  0  0  0  0  0  0  0  0  0  0  0
   26.8500  -21.7638  -15.6762 C   0  0  0  0  0  0  0  0  0  0  0  0
   26.3354  -22.8587  -15.3460 O   0  0  0  0  0  0  0  0  0  0  0  0
   29.3140  -18.7946  -19.7972 O   0  0  0  0  0  0  0  0  0  0  0  0
   26.4712  -20.6322  -14.9242 N   0  0  0  0  0  0  0  0  0  0  0  0
   25.6748  -20.6992  -13.7044 C   0  0  1  0  0  0  0  0  0  0  0  0
   26.2635  -19.8719  -12.6105 C   0  0  0  0  0  0  0  0  0  0  0  0
   27.5205  -20.3416  -12.0755 C   0  0  0  0  0  0  0  0  0  0  0  0
   28.7183  -20.0538  -12.6701 C   0  0  0  0  0  0  0  0  0  0  0  0
   29.9235  -20.5251  -12.1297 C   0  0  0  0  0  0  0  0  0  0  0  0
   29.9031  -21.2828  -10.9934 C   0  0  0  0  0  0  0  0  0  0  0  0
   28.7199  -21.5807  -10.3857 C   0  0  0  0  0  0  0  0  0  0  0  0
   27.5419  -21.1085  -10.9310 C   0  0  0  0  0  0  0  0  0  0  0  0
   24.2537  -20.3578  -13.9267 C   0  0  0  0  0  0  0  0  0  0  0  0
   23.8862  -19.2655  -14.4655 O   0  0  0  0  0  0  0  0  0  0  0  0
   23.2369  -21.2523  -13.5437 N   0  0  0  0  0  0  0  0  0  0  0  0
   21.8300  -21.0376  -13.8664 C   0  0  1  0  0  0  0  0  0  0  0  0
   21.1057  -22.3747  -13.9807 C   0  0  0  0  0  0  0  0  0  0  0  0
   21.3582  -23.3217  -12.4402 S   0  0  0  0  0  0  0  0  0  0  0  0
   21.1164  -20.2079  -12.8880 C   0  0  0  0  0  0  0  0  0  0  0  0
   19.8336  -19.7824  -13.1528 O   0  0  0  0  0  0  0  0  0  0  0  0
   21.6590  -19.8830  -11.8176 O   0  0  0  0  0  0  0  0  0  0  0  0
  2  1  1  6
  2  3  1  0
  4  3  1  0
  5  6  2  0
  5  4  1  0
  7 10  1  0
  7  2  1  0
  8  7  2  0
  9  5  1  0
 11 10  1  0
 12 13  1  0
 11 12  1  1
 13 14  2  0
 13 18  1  0
 14 15  1  0
 15 16  2  0
 17 16  1  0
 18 17  2  0
 19 11  1  0
 19 20  2  0
 21 19  1  0
 22 21  1  0
 22 23  1  1
 24 23  1  0
 25 22  1  0
 26 25  1  0
 27 25  2  0
M  END
$$$$
