TMQ.pdb
     RDKit          3D

 25 24  0  0  1  0  0  0  0  0999 V2000
    7.5554  -16.3435   19.9644 C   0  0  0  0  0  0  0  0  0  0  0  0
    8.2230  -15.1648   19.2464 C   0  0  1  0  0  0  0  0  0  0  0  0
    7.8459  -15.2451   17.9184 O   0  0  0  0  0  0  0  0  0  0  0  0
    7.7052  -13.9151   19.9168 C   0  0  2  0  0  0  0  0  0  0  0  0
    7.9889  -12.7317   19.1434 N   0  0  0  0  0  0  0  0  0  0  0  0
    8.1889  -13.7961   21.3149 C   0  0  0  0  0  0  0  0  0  0  0  0
    9.3392  -13.3568   21.5514 O   0  0  0  0  0  0  0  0  0  0  0  0
    5.8214  -10.9328   26.8566 C   0  0  0  0  0  0  0  0  0  0  0  0
    5.9688  -12.6960   27.1986 S   0  0  0  0  0  0  0  0  0  0  0  0
    7.2087  -13.3937   26.1338 C   0  0  0  0  0  0  0  0  0  0  0  0
    6.8881  -13.5124   24.6885 C   0  0  0  0  0  0  0  0  0  0  0  0
    7.9278  -14.0480   23.7866 C   0  0  2  0  0  0  0  0  0  0  0  0
    7.3817  -14.1686   22.4150 N   0  0  0  0  0  0  0  0  0  0  0  0
    8.5728  -15.3077   24.1682 C   0  0  0  0  0  0  0  0  0  0  0  0
    8.0807  -16.4200   23.9716 O   0  0  0  0  0  0  0  0  0  0  0  0
   14.7635  -16.2764   23.7943 N   0  0  0  0  0  0  0  0  0  0  0  0
   13.8864  -17.1474   23.1066 C   0  0  0  0  0  0  0  0  0  0  0  0
   14.3542  -17.8211   22.1207 O   0  0  0  0  0  0  0  0  0  0  0  0
   12.4703  -17.3062   23.4901 C   0  0  0  0  0  0  0  0  0  0  0  0
   12.0113  -16.4234   24.6007 C   0  0  0  0  0  0  0  0  0  0  0  0
   10.6010  -16.5612   25.0588 C   0  0  2  0  0  0  0  0  0  0  0  0
    9.8667  -15.3192   24.8194 N   0  0  0  0  0  0  0  0  0  0  0  0
   10.3418  -17.0038   26.4160 C   0  0  0  0  0  0  0  0  0  0  0  0
    9.8944  -16.1563   27.2733 O   0  0  0  0  0  0  0  0  0  0  0  0
   10.5190  -18.2906   26.9207 O   0  0  0  0  0  0  0  0  0  0  0  0
  2  4  1  0
  2  1  1  1
  3  2  1  0
  4  6  1  0
  4  5  1  6
  6 13  1  0
  6  7  2  0
  8  9  1  0
 10  9  1  0
 12 11  1  1
 11 10  1  0
 12 14  1  0
 13 12  1  0
 14 15  2  0
 16 17  1  0
 17 18  2  0
 17 19  1  0
 19 20  1  0
 21 20  1  1
 22 21  1  0
 22 14  1  0
 23 21  1  0
 23 25  1  0
 24 23  2  0
M  END
$$$$
