TMQ.pdb
     RDKit          3D

 25 24  0  0  1  0  0  0  0  0999 V2000
    6.5873  -17.1026   19.4228 C   0  0  0  0  0  0  0  0  0  0  0  0
    7.3215  -16.8526   20.7453 C   0  0  1  0  0  0  0  0  0  0  0  0
    8.5124  -17.5519   20.6756 O   0  0  0  0  0  0  0  0  0  0  0  0
    7.5349  -15.3606   20.8333 C   0  0  2  0  0  0  0  0  0  0  0  0
    8.2182  -14.8446   19.6732 N   0  0  0  0  0  0  0  0  0  0  0  0
    8.2102  -14.9717   22.0965 C   0  0  0  0  0  0  0  0  0  0  0  0
    9.4446  -14.7521   22.1126 O   0  0  0  0  0  0  0  0  0  0  0  0
    6.6687  -11.6720   27.9378 C   0  0  0  0  0  0  0  0  0  0  0  0
    5.8027  -11.6775   26.3574 S   0  0  0  0  0  0  0  0  0  0  0  0
    6.7988  -12.5202   25.1509 C   0  0  0  0  0  0  0  0  0  0  0  0
    7.3371  -13.8560   25.5137 C   0  0  0  0  0  0  0  0  0  0  0  0
    8.2375  -14.5274   24.5547 C   0  0  2  0  0  0  0  0  0  0  0  0
    7.4964  -14.8367   23.3100 N   0  0  0  0  0  0  0  0  0  0  0  0
    8.9437  -15.7271   25.0138 C   0  0  0  0  0  0  0  0  0  0  0  0
    8.5021  -16.8716   24.8995 O   0  0  0  0  0  0  0  0  0  0  0  0
   14.2776  -15.6470   23.6038 N   0  0  0  0  0  0  0  0  0  0  0  0
   13.9642  -17.0254   23.6527 C   0  0  0  0  0  0  0  0  0  0  0  0
   14.4611  -17.7902   22.7510 O   0  0  0  0  0  0  0  0  0  0  0  0
   13.0999  -17.6018   24.7006 C   0  0  0  0  0  0  0  0  0  0  0  0
   12.4592  -16.6096   25.6107 C   0  0  0  0  0  0  0  0  0  0  0  0
   11.0308  -16.8226   25.9740 C   0  0  2  0  0  0  0  0  0  0  0  0
   10.2425  -15.6345   25.6488 N   0  0  0  0  0  0  0  0  0  0  0  0
   10.7030  -17.2469   27.3222 C   0  0  0  0  0  0  0  0  0  0  0  0
   10.0902  -18.3644   27.4925 O   0  0  0  0  0  0  0  0  0  0  0  0
   10.9910  -16.5653   28.5031 O   0  0  0  0  0  0  0  0  0  0  0  0
  2  4  1  0
  2  1  1  6
  3  2  1  0
  4  6  1  0
  4  5  1  6
  6 13  1  0
  6  7  2  0
  8  9  1  0
 10  9  1  0
 12 11  1  1
 11 10  1  0
 12 14  1  0
 13 12  1  0
 14 15  2  0
 16 17  1  0
 17 18  2  0
 17 19  1  0
 19 20  1  0
 21 20  1  1
 22 21  1  0
 22 14  1  0
 23 21  1  0
 23 25  1  0
 24 23  2  0
M  END
$$$$
