TMQ.pdb
     RDKit          3D

 25 24  0  0  1  0  0  0  0  0999 V2000
    7.3624  -17.4149   19.3895 C   0  0  0  0  0  0  0  0  0  0  0  0
    7.9622  -17.0221   20.7447 C   0  0  1  0  0  0  0  0  0  0  0  0
    9.2105  -17.6132   20.8117 O   0  0  0  0  0  0  0  0  0  0  0  0
    8.0388  -15.5142   20.7505 C   0  0  2  0  0  0  0  0  0  0  0  0
    8.8033  -15.0092   19.6372 N   0  0  0  0  0  0  0  0  0  0  0  0
    8.5321  -14.9902   22.0486 C   0  0  0  0  0  0  0  0  0  0  0  0
    9.7355  -14.6654   22.1837 O   0  0  0  0  0  0  0  0  0  0  0  0
    6.0196  -10.9388   26.6487 C   0  0  0  0  0  0  0  0  0  0  0  0
    6.4285  -12.4190   27.5919 S   0  0  0  0  0  0  0  0  0  0  0  0
    7.6018  -13.3881   26.6743 C   0  0  0  0  0  0  0  0  0  0  0  0
    7.2796  -13.7009   25.2586 C   0  0  0  0  0  0  0  0  0  0  0  0
    8.2559  -14.4901   24.4806 C   0  0  2  0  0  0  0  0  0  0  0  0
    7.6751  -14.8404   23.1637 N   0  0  0  0  0  0  0  0  0  0  0  0
    8.8070  -15.6950   25.1076 C   0  0  0  0  0  0  0  0  0  0  0  0
    8.2697  -16.8027   25.0599 O   0  0  0  0  0  0  0  0  0  0  0  0
   14.8147  -16.9714   25.2701 N   0  0  0  0  0  0  0  0  0  0  0  0
   13.8168  -16.8319   24.2773 C   0  0  0  0  0  0  0  0  0  0  0  0
   14.1917  -16.7079   23.0572 O   0  0  0  0  0  0  0  0  0  0  0  0
   12.3769  -16.8319   24.6000 C   0  0  0  0  0  0  0  0  0  0  0  0
   12.0507  -17.0094   26.0441 C   0  0  0  0  0  0  0  0  0  0  0  0
   10.6296  -16.8478   26.4593 C   0  0  2  0  0  0  0  0  0  0  0  0
   10.0544  -15.6527   25.8430 N   0  0  0  0  0  0  0  0  0  0  0  0
   10.3052  -16.8472   27.8735 C   0  0  0  0  0  0  0  0  0  0  0  0
    9.9547  -15.7433   28.4322 O   0  0  0  0  0  0  0  0  0  0  0  0
   10.3207  -17.9447   28.7321 O   0  0  0  0  0  0  0  0  0  0  0  0
  2  4  1  0
  2  1  1  6
  3  2  1  0
  4  6  1  0
  4  5  1  6
  6 13  1  0
  6  7  2  0
  8  9  1  0
 10  9  1  0
 12 11  1  1
 11 10  1  0
 12 14  1  0
 13 12  1  0
 14 15  2  0
 16 17  1  0
 17 18  2  0
 17 19  1  0
 19 20  1  0
 21 20  1  1
 22 21  1  0
 22 14  1  0
 23 21  1  0
 23 25  1  0
 24 23  2  0
M  END
$$$$
