TMQ.pdb
     RDKit          3D

 25 24  0  0  1  0  0  0  0  0999 V2000
    8.3304  -16.4398   19.4637 C   0  0  0  0  0  0  0  0  0  0  0  0
    8.7821  -15.0844   18.9075 C   0  0  1  0  0  0  0  0  0  0  0  0
    8.5127  -15.1031   17.5513 O   0  0  0  0  0  0  0  0  0  0  0  0
    7.9760  -14.0386   19.6397 C   0  0  2  0  0  0  0  0  0  0  0  0
    8.0583  -12.7491   18.9997 N   0  0  0  0  0  0  0  0  0  0  0  0
    8.3346  -13.9705   21.0783 C   0  0  0  0  0  0  0  0  0  0  0  0
    9.4267  -13.4687   21.4352 O   0  0  0  0  0  0  0  0  0  0  0  0
    7.2464  -11.6790   27.5189 C   0  0  0  0  0  0  0  0  0  0  0  0
    6.0209  -12.6461   26.6186 S   0  0  0  0  0  0  0  0  0  0  0  0
    6.8325  -14.0018   25.8054 C   0  0  0  0  0  0  0  0  0  0  0  0
    6.6574  -14.1282   24.3360 C   0  0  0  0  0  0  0  0  0  0  0  0
    7.8627  -14.3257   23.5057 C   0  0  2  0  0  0  0  0  0  0  0  0
    7.4700  -14.4620   22.0839 N   0  0  0  0  0  0  0  0  0  0  0  0
    8.7651  -15.4217   23.8706 C   0  0  0  0  0  0  0  0  0  0  0  0
    8.7431  -16.5354   23.3441 O   0  0  0  0  0  0  0  0  0  0  0  0
   11.7284  -16.6968   29.0419 N   0  0  0  0  0  0  0  0  0  0  0  0
   11.3118  -15.3823   28.7266 C   0  0  0  0  0  0  0  0  0  0  0  0
   11.0011  -14.5989   29.6932 O   0  0  0  0  0  0  0  0  0  0  0  0
   11.2324  -14.8914   27.3373 C   0  0  0  0  0  0  0  0  0  0  0  0
   11.6521  -15.8703   26.2938 C   0  0  0  0  0  0  0  0  0  0  0  0
   10.6139  -16.3616   25.3458 C   0  0  2  0  0  0  0  0  0  0  0  0
    9.7666  -15.2546   24.9037 N   0  0  0  0  0  0  0  0  0  0  0  0
    9.7660  -17.4700   25.7430 C   0  0  0  0  0  0  0  0  0  0  0  0
   10.2929  -18.6322   25.9017 O   0  0  0  0  0  0  0  0  0  0  0  0
    8.3955  -17.4231   25.9909 O   0  0  0  0  0  0  0  0  0  0  0  0
  2  4  1  0
  2  1  1  1
  3  2  1  0
  4  6  1  0
  4  5  1  6
  6 13  1  0
  6  7  2  0
  8  9  1  0
 10  9  1  0
 12 11  1  1
 11 10  1  0
 12 14  1  0
 13 12  1  0
 14 15  2  0
 16 17  1  0
 17 18  2  0
 17 19  1  0
 19 20  1  0
 21 20  1  1
 22 21  1  0
 22 14  1  0
 23 21  1  0
 23 25  1  0
 24 23  2  0
M  END
$$$$
