TMQ.pdb
     RDKit          3D

 25 24  0  0  1  0  0  0  0  0999 V2000
    7.6091  -17.4656   19.0213 C   0  0  0  0  0  0  0  0  0  0  0  0
    7.9758  -17.2283   20.4909 C   0  0  1  0  0  0  0  0  0  0  0  0
    8.8744  -18.2197   20.8399 O   0  0  0  0  0  0  0  0  0  0  0  0
    8.5871  -15.8493   20.5554 C   0  0  2  0  0  0  0  0  0  0  0  0
    9.7407  -15.7306   19.6985 N   0  0  0  0  0  0  0  0  0  0  0  0
    8.8852  -15.4408   21.9507 C   0  0  0  0  0  0  0  0  0  0  0  0
   10.0395  -15.5833   22.4190 O   0  0  0  0  0  0  0  0  0  0  0  0
    6.5733  -10.3747   25.8649 C   0  0  0  0  0  0  0  0  0  0  0  0
    6.3484  -11.9182   26.7675 S   0  0  0  0  0  0  0  0  0  0  0  0
    7.4839  -13.1314   26.1375 C   0  0  0  0  0  0  0  0  0  0  0  0
    7.2461  -13.6513   24.7667 C   0  0  0  0  0  0  0  0  0  0  0  0
    8.2124  -14.6210   24.2127 C   0  0  2  0  0  0  0  0  0  0  0  0
    7.8926  -14.8841   22.7905 N   0  0  0  0  0  0  0  0  0  0  0  0
    8.3764  -15.8942   24.9202 C   0  0  0  0  0  0  0  0  0  0  0  0
    7.8131  -16.9403   24.5940 O   0  0  0  0  0  0  0  0  0  0  0  0
   10.1613  -20.2039   23.8054 N   0  0  0  0  0  0  0  0  0  0  0  0
   10.9589  -19.9992   24.9555 C   0  0  0  0  0  0  0  0  0  0  0  0
   11.0278  -20.9449   25.8189 O   0  0  0  0  0  0  0  0  0  0  0  0
   11.7090  -18.7491   25.1836 C   0  0  0  0  0  0  0  0  0  0  0  0
   10.8910  -17.5030   25.1464 C   0  0  0  0  0  0  0  0  0  0  0  0
   10.0496  -17.1897   26.3345 C   0  0  2  0  0  0  0  0  0  0  0  0
    9.2369  -16.0006   26.0807 N   0  0  0  0  0  0  0  0  0  0  0  0
   10.6857  -17.0535   27.6314 C   0  0  0  0  0  0  0  0  0  0  0  0
   10.4389  -17.9276   28.5417 O   0  0  0  0  0  0  0  0  0  0  0  0
   11.5741  -16.0536   28.0226 O   0  0  0  0  0  0  0  0  0  0  0  0
  2  4  1  0
  2  1  1  6
  3  2  1  0
  4  6  1  0
  4  5  1  6
  6 13  1  0
  6  7  2  0
  8  9  1  0
 10  9  1  0
 12 11  1  1
 11 10  1  0
 12 14  1  0
 13 12  1  0
 14 15  2  0
 16 17  1  0
 17 18  2  0
 17 19  1  0
 19 20  1  0
 21 20  1  6
 22 21  1  0
 22 14  1  0
 23 21  1  0
 23 25  1  0
 24 23  2  0
M  END
$$$$
