TMQ.pdb
     RDKit          3D

 25 24  0  0  1  0  0  0  0  0999 V2000
    6.5659  -15.0469   18.4745 C   0  0  0  0  0  0  0  0  0  0  0  0
    7.1392  -15.2484   19.8821 C   0  0  1  0  0  0  0  0  0  0  0  0
    7.9558  -16.3626   19.8213 O   0  0  0  0  0  0  0  0  0  0  0  0
    7.9068  -13.9899   20.2086 C   0  0  2  0  0  0  0  0  0  0  0  0
    8.9330  -13.7163   19.2334 N   0  0  0  0  0  0  0  0  0  0  0  0
    8.4443  -14.0127   21.5918 C   0  0  0  0  0  0  0  0  0  0  0  0
    9.6509  -14.2844   21.7974 O   0  0  0  0  0  0  0  0  0  0  0  0
    5.2067  -12.0882   27.2423 C   0  0  0  0  0  0  0  0  0  0  0  0
    6.9740  -11.8786   27.5257 S   0  0  0  0  0  0  0  0  0  0  0  0
    7.8706  -12.9474   26.4250 C   0  0  0  0  0  0  0  0  0  0  0  0
    7.4816  -12.9432   24.9917 C   0  0  0  0  0  0  0  0  0  0  0  0
    8.2003  -13.8487   24.0726 C   0  0  2  0  0  0  0  0  0  0  0  0
    7.6271  -13.7330   22.7117 N   0  0  0  0  0  0  0  0  0  0  0  0
    8.2893  -15.2632   24.4467 C   0  0  0  0  0  0  0  0  0  0  0  0
    7.4593  -16.1142   24.1227 O   0  0  0  0  0  0  0  0  0  0  0  0
   10.4654  -19.5606   22.1068 N   0  0  0  0  0  0  0  0  0  0  0  0
   11.1801  -18.3648   22.3522 C   0  0  0  0  0  0  0  0  0  0  0  0
   12.1165  -18.0427   21.5373 O   0  0  0  0  0  0  0  0  0  0  0  0
   10.8786  -17.4862   23.4987 C   0  0  0  0  0  0  0  0  0  0  0  0
    9.8344  -17.9977   24.4322 C   0  0  0  0  0  0  0  0  0  0  0  0
    9.5014  -17.1673   25.6228 C   0  0  2  0  0  0  0  0  0  0  0  0
    9.3925  -15.7589   25.2440 N   0  0  0  0  0  0  0  0  0  0  0  0
   10.3325  -17.2703   26.8075 C   0  0  0  0  0  0  0  0  0  0  0  0
   10.5527  -18.4308   27.3157 O   0  0  0  0  0  0  0  0  0  0  0  0
   10.9525  -16.2213   27.4839 O   0  0  0  0  0  0  0  0  0  0  0  0
  2  4  1  0
  2  1  1  6
  3  2  1  0
  4  6  1  0
  4  5  1  6
  6 13  1  0
  6  7  2  0
  8  9  1  0
 10  9  1  0
 12 11  1  1
 11 10  1  0
 12 14  1  0
 13 12  1  0
 14 15  2  0
 16 17  1  0
 17 18  2  0
 17 19  1  0
 19 20  1  0
 21 20  1  6
 22 21  1  0
 22 14  1  0
 23 21  1  0
 23 25  1  0
 24 23  2  0
M  END
$$$$
