TMQ.pdb
     RDKit          3D

 25 24  0  0  1  0  0  0  0  0999 V2000
    6.7020  -14.9307   18.2996 C   0  0  0  0  0  0  0  0  0  0  0  0
    7.4507  -15.1256   19.6233 C   0  0  1  0  0  0  0  0  0  0  0  0
    8.6948  -15.6373   19.3030 O   0  0  0  0  0  0  0  0  0  0  0  0
    7.5375  -13.7609   20.2633 C   0  0  2  0  0  0  0  0  0  0  0  0
    8.1082  -12.7825   19.3710 N   0  0  0  0  0  0  0  0  0  0  0  0
    8.2446  -13.8052   21.5674 C   0  0  0  0  0  0  0  0  0  0  0  0
    9.4667  -13.5329   21.6342 O   0  0  0  0  0  0  0  0  0  0  0  0
    5.6478  -11.7002   26.8280 C   0  0  0  0  0  0  0  0  0  0  0  0
    7.1590  -12.2990   27.6061 S   0  0  0  0  0  0  0  0  0  0  0  0
    8.0778  -13.2617   26.4284 C   0  0  0  0  0  0  0  0  0  0  0  0
    7.5189  -13.3909   25.0584 C   0  0  0  0  0  0  0  0  0  0  0  0
    8.3176  -14.1105   24.0458 C   0  0  2  0  0  0  0  0  0  0  0  0
    7.5755  -14.1512   22.7645 N   0  0  0  0  0  0  0  0  0  0  0  0
    8.7842  -15.4585   24.3832 C   0  0  0  0  0  0  0  0  0  0  0  0
    8.1250  -16.4822   24.1946 O   0  0  0  0  0  0  0  0  0  0  0  0
   14.3206  -16.0136   23.6503 N   0  0  0  0  0  0  0  0  0  0  0  0
   13.3082  -16.4677   22.7729 C   0  0  0  0  0  0  0  0  0  0  0  0
   13.4644  -16.2683   21.5157 O   0  0  0  0  0  0  0  0  0  0  0  0
   12.0981  -17.1609   23.2553 C   0  0  0  0  0  0  0  0  0  0  0  0
   11.9442  -17.2105   24.7376 C   0  0  0  0  0  0  0  0  0  0  0  0
   10.5798  -17.0117   25.3005 C   0  0  2  0  0  0  0  0  0  0  0  0
   10.0881  -15.6729   24.9767 N   0  0  0  0  0  0  0  0  0  0  0  0
   10.3571  -17.2632   26.7119 C   0  0  0  0  0  0  0  0  0  0  0  0
    9.8938  -16.3164   27.4484 O   0  0  0  0  0  0  0  0  0  0  0  0
   10.5868  -18.4580   27.3915 O   0  0  0  0  0  0  0  0  0  0  0  0
  2  4  1  0
  2  1  1  6
  3  2  1  0
  4  6  1  0
  4  5  1  6
  6 13  1  0
  6  7  2  0
  8  9  1  0
 10  9  1  0
 12 11  1  1
 11 10  1  0
 12 14  1  0
 13 12  1  0
 14 15  2  0
 16 17  1  0
 17 18  2  0
 17 19  1  0
 19 20  1  0
 21 20  1  1
 22 21  1  0
 22 14  1  0
 23 21  1  0
 23 25  1  0
 24 23  2  0
M  END
$$$$
