TMQ.pdb
     RDKit          3D

 25 24  0  0  1  0  0  0  0  0999 V2000
    6.5782  -17.1716   21.1398 C   0  0  0  0  0  0  0  0  0  0  0  0
    7.7903  -16.9031   20.2401 C   0  0  1  0  0  0  0  0  0  0  0  0
    7.3895  -17.1736   18.9446 O   0  0  0  0  0  0  0  0  0  0  0  0
    8.1495  -15.4502   20.4395 C   0  0  2  0  0  0  0  0  0  0  0  0
    9.0760  -14.9819   19.4388 N   0  0  0  0  0  0  0  0  0  0  0  0
    8.6353  -15.1843   21.8165 C   0  0  0  0  0  0  0  0  0  0  0  0
    9.8362  -15.3877   22.1142 O   0  0  0  0  0  0  0  0  0  0  0  0
    5.5350  -11.3881   26.0498 C   0  0  0  0  0  0  0  0  0  0  0  0
    6.6932  -12.1273   27.2160 S   0  0  0  0  0  0  0  0  0  0  0  0
    7.7566  -13.2536   26.3452 C   0  0  0  0  0  0  0  0  0  0  0  0
    7.4403  -13.5392   24.9224 C   0  0  0  0  0  0  0  0  0  0  0  0
    8.3091  -14.4845   24.1924 C   0  0  2  0  0  0  0  0  0  0  0  0
    7.7740  -14.6989   22.8279 N   0  0  0  0  0  0  0  0  0  0  0  0
    8.5788  -15.7810   24.8208 C   0  0  0  0  0  0  0  0  0  0  0  0
    7.7723  -16.7120   24.8513 O   0  0  0  0  0  0  0  0  0  0  0  0
   11.5462  -19.1639   21.8298 N   0  0  0  0  0  0  0  0  0  0  0  0
   11.9000  -19.2147   23.1983 C   0  0  0  0  0  0  0  0  0  0  0  0
   13.1299  -19.4215   23.4970 O   0  0  0  0  0  0  0  0  0  0  0  0
   10.9096  -19.0323   24.2770 C   0  0  0  0  0  0  0  0  0  0  0  0
   11.2675  -18.0082   25.2999 C   0  0  0  0  0  0  0  0  0  0  0  0
   10.1566  -17.3568   26.0477 C   0  0  2  0  0  0  0  0  0  0  0  0
    9.8486  -16.0521   25.4631 N   0  0  0  0  0  0  0  0  0  0  0  0
   10.2678  -17.2101   27.4869 C   0  0  0  0  0  0  0  0  0  0  0  0
   10.5691  -18.2389   28.1970 O   0  0  0  0  0  0  0  0  0  0  0  0
   10.0880  -16.0394   28.2212 O   0  0  0  0  0  0  0  0  0  0  0  0
  2  4  1  0
  2  1  1  1
  3  2  1  0
  4  6  1  0
  4  5  1  6
  6 13  1  0
  6  7  2  0
  8  9  1  0
 10  9  1  0
 12 11  1  1
 11 10  1  0
 12 14  1  0
 13 12  1  0
 14 15  2  0
 16 17  1  0
 17 18  2  0
 17 19  1  0
 19 20  1  0
 21 20  1  6
 22 21  1  0
 22 14  1  0
 23 21  1  0
 23 25  1  0
 24 23  2  0
M  END
$$$$
