TMQ.pdb
     RDKit          3D

 25 24  0  0  1  0  0  0  0  0999 V2000
    7.5693  -16.1867   19.6922 C   0  0  0  0  0  0  0  0  0  0  0  0
    8.2675  -14.9032   19.2278 C   0  0  1  0  0  0  0  0  0  0  0  0
    7.9369  -14.7322   17.8961 O   0  0  0  0  0  0  0  0  0  0  0  0
    7.7325  -13.7932   20.1003 C   0  0  2  0  0  0  0  0  0  0  0  0
    8.0269  -12.4907   19.5564 N   0  0  0  0  0  0  0  0  0  0  0  0
    8.1887  -13.9259   21.5064 C   0  0  0  0  0  0  0  0  0  0  0  0
    9.3707  -13.6460   21.8173 O   0  0  0  0  0  0  0  0  0  0  0  0
    6.3262  -10.8147   26.8276 C   0  0  0  0  0  0  0  0  0  0  0  0
    7.1963  -12.3451   26.4423 S   0  0  0  0  0  0  0  0  0  0  0  0
    6.2083  -13.3107   25.3245 C   0  0  0  0  0  0  0  0  0  0  0  0
    6.7572  -14.6136   24.8695 C   0  0  0  0  0  0  0  0  0  0  0  0
    7.8624  -14.5993   23.8899 C   0  0  2  0  0  0  0  0  0  0  0  0
    7.3195  -14.3663   22.5316 N   0  0  0  0  0  0  0  0  0  0  0  0
    8.7610  -15.7571   23.8650 C   0  0  0  0  0  0  0  0  0  0  0  0
    8.4525  -16.8579   23.4055 O   0  0  0  0  0  0  0  0  0  0  0  0
   15.7432  -17.4610   22.5270 N   0  0  0  0  0  0  0  0  0  0  0  0
   14.7676  -16.6740   23.1825 C   0  0  0  0  0  0  0  0  0  0  0  0
   15.0090  -15.4251   23.3459 O   0  0  0  0  0  0  0  0  0  0  0  0
   13.4951  -17.2395   23.6707 C   0  0  0  0  0  0  0  0  0  0  0  0
   12.3597  -16.2757   23.7439 C   0  0  0  0  0  0  0  0  0  0  0  0
   11.0585  -16.7751   24.2688 C   0  0  2  0  0  0  0  0  0  0  0  0
   10.1063  -15.6724   24.3956 N   0  0  0  0  0  0  0  0  0  0  0  0
   11.0449  -17.5486   25.4962 C   0  0  0  0  0  0  0  0  0  0  0  0
   11.7313  -18.6343   25.5567 O   0  0  0  0  0  0  0  0  0  0  0  0
   10.3560  -17.2399   26.6676 O   0  0  0  0  0  0  0  0  0  0  0  0
  2  4  1  0
  2  1  1  1
  3  2  1  0
  4  6  1  0
  4  5  1  6
  6 13  1  0
  6  7  2  0
  8  9  1  0
 10  9  1  0
 12 11  1  1
 11 10  1  0
 12 14  1  0
 13 12  1  0
 14 15  2  0
 16 17  1  0
 17 18  2  0
 17 19  1  0
 19 20  1  0
 21 20  1  1
 22 21  1  0
 22 14  1  0
 23 21  1  0
 23 25  1  0
 24 23  2  0
M  END
$$$$
