TMQ.pdb
     RDKit          3D

 25 24  0  0  1  0  0  0  0  0999 V2000
    7.0399  -17.2319   19.3037 C   0  0  0  0  0  0  0  0  0  0  0  0
    7.5869  -16.9397   20.7059 C   0  0  1  0  0  0  0  0  0  0  0  0
    8.6734  -17.7751   20.8892 O   0  0  0  0  0  0  0  0  0  0  0  0
    7.9758  -15.4808   20.7109 C   0  0  2  0  0  0  0  0  0  0  0  0
    8.9406  -15.1768   19.6834 N   0  0  0  0  0  0  0  0  0  0  0  0
    8.4298  -15.0337   22.0513 C   0  0  0  0  0  0  0  0  0  0  0  0
    9.6539  -14.9422   22.3069 O   0  0  0  0  0  0  0  0  0  0  0  0
    5.8422  -10.7305   26.7164 C   0  0  0  0  0  0  0  0  0  0  0  0
    6.0184  -12.3580   27.4699 S   0  0  0  0  0  0  0  0  0  0  0  0
    7.2600  -13.2755   26.5898 C   0  0  0  0  0  0  0  0  0  0  0  0
    6.9908  -13.6103   25.1681 C   0  0  0  0  0  0  0  0  0  0  0  0
    8.0226  -14.3585   24.4218 C   0  0  2  0  0  0  0  0  0  0  0  0
    7.5117  -14.6996   23.0739 N   0  0  0  0  0  0  0  0  0  0  0  0
    8.5778  -15.5597   25.0523 C   0  0  0  0  0  0  0  0  0  0  0  0
    7.9945  -16.6438   25.1003 O   0  0  0  0  0  0  0  0  0  0  0  0
   14.0200  -17.5065   23.7008 N   0  0  0  0  0  0  0  0  0  0  0  0
   14.0145  -16.3964   24.5775 C   0  0  0  0  0  0  0  0  0  0  0  0
   15.0321  -15.6160   24.5703 O   0  0  0  0  0  0  0  0  0  0  0  0
   12.8843  -16.1107   25.4822 C   0  0  0  0  0  0  0  0  0  0  0  0
   11.7449  -17.0687   25.3956 C   0  0  0  0  0  0  0  0  0  0  0  0
   10.5178  -16.7599   26.1809 C   0  0  2  0  0  0  0  0  0  0  0  0
    9.8855  -15.5420   25.6753 N   0  0  0  0  0  0  0  0  0  0  0  0
   10.6102  -16.6737   27.6263 C   0  0  0  0  0  0  0  0  0  0  0  0
   11.0152  -17.6996   28.2874 O   0  0  0  0  0  0  0  0  0  0  0  0
   10.3084  -15.5656   28.4156 O   0  0  0  0  0  0  0  0  0  0  0  0
  2  4  1  0
  2  1  1  6
  3  2  1  0
  4  6  1  0
  4  5  1  6
  6 13  1  0
  6  7  2  0
  8  9  1  0
 10  9  1  0
 12 11  1  1
 11 10  1  0
 12 14  1  0
 13 12  1  0
 14 15  2  0
 16 17  1  0
 17 18  2  0
 17 19  1  0
 19 20  1  0
 21 20  1  6
 22 21  1  0
 22 14  1  0
 23 21  1  0
 23 25  1  0
 24 23  2  0
M  END
$$$$
