MHI.pdb
     RDKit          3D

 27 27  0  0  1  0  0  0  0  0999 V2000
    7.7343  -11.4279   20.7027 C   0  0  0  0  0  0  0  0  0  0  0  0
    8.5154  -12.3538   19.3446 S   0  0  0  0  0  0  0  0  0  0  0  0
    7.6839  -13.9296   19.0957 C   0  0  0  0  0  0  0  0  0  0  0  0
    7.5576  -14.6503   20.4072 C   0  0  0  0  0  0  0  0  0  0  0  0
    8.4558  -15.8734   20.3573 C   0  0  2  0  0  0  0  0  0  0  0  0
    7.9439  -16.7809   19.3761 N   0  0  0  0  0  0  0  0  0  0  0  0
    8.5876  -16.4840   21.6995 C   0  0  0  0  0  0  0  0  0  0  0  0
    7.5449  -16.9395   22.2362 O   0  0  0  0  0  0  0  0  0  0  0  0
    9.8020  -16.5875   22.4125 N   0  0  0  0  0  0  0  0  0  0  0  0
    9.8739  -17.0966   23.7539 C   0  0  1  0  0  0  0  0  0  0  0  0
   10.7750  -18.3121   23.8514 C   0  0  0  0  0  0  0  0  0  0  0  0
   10.2910  -19.4722   23.1098 C   0  0  0  0  0  0  0  0  0  0  0  0
   10.6383  -19.8737   21.8436 C   0  0  0  0  0  0  0  0  0  0  0  0
    9.9468  -21.0138   21.5410 N   0  0  0  0  0  0  0  0  0  0  0  0
    9.1867  -21.3132   22.5972 C   0  0  0  0  0  0  0  0  0  0  0  0
    9.3997  -20.3703   23.5517 N   0  0  0  0  0  0  0  0  0  0  0  0
   10.2205  -16.0245   24.7082 C   0  0  0  0  0  0  0  0  0  0  0  0
   11.2463  -15.2847   24.5147 O   0  0  0  0  0  0  0  0  0  0  0  0
    6.5372  -12.8073   26.2232 C   0  0  0  0  0  0  0  0  0  0  0  0
    7.8164  -13.5107   25.9468 C   0  0  0  0  0  0  0  0  0  0  0  0
    8.6431  -13.9096   27.1066 C   0  0  2  0  0  0  0  0  0  0  0  0
    8.8131  -12.8360   28.1534 C   0  0  0  0  0  0  0  0  0  0  0  0
    9.8866  -14.7003   26.8532 C   0  0  2  0  0  0  0  0  0  0  0  0
    9.4789  -15.7319   25.8705 N   0  0  0  0  0  0  0  0  0  0  0  0
   10.3376  -15.4475   28.0354 C   0  0  0  0  0  0  0  0  0  0  0  0
   11.2934  -14.9881   28.9515 O   0  0  0  0  0  0  0  0  0  0  0  0
    9.8847  -16.6104   28.3292 O   0  0  0  0  0  0  0  0  0  0  0  0
  2  1  1  0
  3  2  1  0
  4  3  1  0
  4  5  1  0
  5  6  1  6
  7  5  1  0
  7  8  2  0
  9  7  1  0
 10  9  1  0
 10 11  1  6
 12 11  1  0
 12 13  2  0
 14 13  1  0
 15 16  2  0
 15 14  1  0
 16 12  1  0
 17 10  1  0
 18 17  2  0
 20 19  1  0
 21 20  1  0
 21 22  1  6
 23 21  1  0
 23 24  1  6
 24 17  1  0
 25 23  1  0
 26 25  1  0
 27 25  2  0
M  END
$$$$
