MHI.pdb
     RDKit          3D

 27 27  0  0  1  0  0  0  0  0999 V2000
    8.7712  -11.9889   19.6676 C   0  0  0  0  0  0  0  0  0  0  0  0
    7.9235  -12.7632   18.2556 S   0  0  0  0  0  0  0  0  0  0  0  0
    7.7066  -14.5263   18.5399 C   0  0  0  0  0  0  0  0  0  0  0  0
    8.7110  -15.0058   19.5482 C   0  0  0  0  0  0  0  0  0  0  0  0
    8.3837  -16.4498   19.8845 C   0  0  2  0  0  0  0  0  0  0  0  0
    7.4994  -16.9664   18.8848 N   0  0  0  0  0  0  0  0  0  0  0  0
    7.8366  -16.5592   21.2557 C   0  0  0  0  0  0  0  0  0  0  0  0
    6.6602  -16.1559   21.4464 O   0  0  0  0  0  0  0  0  0  0  0  0
    8.5462  -17.0843   22.3577 N   0  0  0  0  0  0  0  0  0  0  0  0
    7.9896  -17.1484   23.6805 C   0  0  1  0  0  0  0  0  0  0  0  0
    7.8503  -18.5773   24.1683 C   0  0  0  0  0  0  0  0  0  0  0  0
    6.9146  -19.3828   23.3900 C   0  0  0  0  0  0  0  0  0  0  0  0
    5.5488  -19.2628   23.3189 C   0  0  0  0  0  0  0  0  0  0  0  0
    5.0689  -20.2214   22.4701 N   0  0  0  0  0  0  0  0  0  0  0  0
    6.1150  -20.9211   22.0241 C   0  0  0  0  0  0  0  0  0  0  0  0
    7.2388  -20.4063   22.5877 N   0  0  0  0  0  0  0  0  0  0  0  0
    8.7338  -16.2754   24.6100 C   0  0  0  0  0  0  0  0  0  0  0  0
   10.0131  -16.2531   24.6020 O   0  0  0  0  0  0  0  0  0  0  0  0
    5.9627  -11.9541   26.4424 C   0  0  0  0  0  0  0  0  0  0  0  0
    7.0132  -12.8752   25.9367 C   0  0  0  0  0  0  0  0  0  0  0  0
    7.8881  -13.5294   26.9337 C   0  0  2  0  0  0  0  0  0  0  0  0
    8.4222  -12.6054   28.0007 C   0  0  0  0  0  0  0  0  0  0  0  0
    8.8905  -14.5285   26.4512 C   0  0  2  0  0  0  0  0  0  0  0  0
    8.1236  -15.4211   25.5504 N   0  0  0  0  0  0  0  0  0  0  0  0
    9.3908  -15.3980   27.5250 C   0  0  0  0  0  0  0  0  0  0  0  0
   10.5949  -15.2005   28.2141 O   0  0  0  0  0  0  0  0  0  0  0  0
    8.7523  -16.4352   27.9250 O   0  0  0  0  0  0  0  0  0  0  0  0
  2  1  1  0
  3  2  1  0
  4  3  1  0
  4  5  1  0
  5  6  1  6
  7  5  1  0
  7  8  2  0
  9  7  1  0
 10  9  1  0
 10 11  1  1
 12 11  1  0
 12 13  2  0
 14 13  1  0
 15 16  2  0
 15 14  1  0
 16 12  1  0
 17 10  1  0
 18 17  2  0
 20 19  1  0
 21 20  1  0
 21 22  1  6
 23 21  1  0
 23 24  1  6
 24 17  1  0
 25 23  1  0
 26 25  1  0
 27 25  2  0
M  END
$$$$
