MHI.pdb
     RDKit          3D

 27 27  0  0  1  0  0  0  0  0999 V2000
    8.3056  -11.4009   18.0116 C   0  0  0  0  0  0  0  0  0  0  0  0
    7.9418  -12.0831   19.6591 S   0  0  0  0  0  0  0  0  0  0  0  0
    8.0177  -13.8803   19.6282 C   0  0  0  0  0  0  0  0  0  0  0  0
    7.8907  -14.4183   21.0245 C   0  0  0  0  0  0  0  0  0  0  0  0
    7.9654  -15.9330   20.9509 C   0  0  2  0  0  0  0  0  0  0  0  0
    6.7453  -16.4277   20.3899 N   0  0  0  0  0  0  0  0  0  0  0  0
    8.2685  -16.5096   22.2802 C   0  0  0  0  0  0  0  0  0  0  0  0
    7.3168  -16.6248   23.0950 O   0  0  0  0  0  0  0  0  0  0  0  0
    9.5504  -16.9366   22.6907 N   0  0  0  0  0  0  0  0  0  0  0  0
    9.8241  -17.4040   24.0212 C   0  0  1  0  0  0  0  0  0  0  0  0
   10.8730  -18.4989   24.0328 C   0  0  0  0  0  0  0  0  0  0  0  0
   11.1476  -19.0452   25.3580 C   0  0  0  0  0  0  0  0  0  0  0  0
   10.5505  -18.7176   26.5501 C   0  0  0  0  0  0  0  0  0  0  0  0
   11.1111  -19.4728   27.5425 N   0  0  0  0  0  0  0  0  0  0  0  0
   12.0365  -20.2525   26.9780 C   0  0  0  0  0  0  0  0  0  0  0  0
   12.0554  -19.9884   25.6455 N   0  0  0  0  0  0  0  0  0  0  0  0
   10.1341  -16.2774   24.9238 C   0  0  0  0  0  0  0  0  0  0  0  0
   11.1326  -15.5115   24.6930 O   0  0  0  0  0  0  0  0  0  0  0  0
    6.2603  -13.1718   26.3121 C   0  0  0  0  0  0  0  0  0  0  0  0
    7.6097  -13.7362   26.0511 C   0  0  0  0  0  0  0  0  0  0  0  0
    8.4210  -14.1399   27.2200 C   0  0  2  0  0  0  0  0  0  0  0  0
    8.4804  -13.1144   28.3255 C   0  0  0  0  0  0  0  0  0  0  0  0
    9.7240  -14.8312   26.9748 C   0  0  2  0  0  0  0  0  0  0  0  0
    9.3846  -15.9579   26.0740 N   0  0  0  0  0  0  0  0  0  0  0  0
   10.2749  -15.4550   28.1858 C   0  0  0  0  0  0  0  0  0  0  0  0
    9.9137  -16.7216   28.6644 O   0  0  0  0  0  0  0  0  0  0  0  0
   11.1490  -14.8748   28.9227 O   0  0  0  0  0  0  0  0  0  0  0  0
  2  1  1  0
  3  2  1  0
  4  3  1  0
  4  5  1  0
  5  6  1  1
  7  5  1  0
  7  8  2  0
  9  7  1  0
 10  9  1  0
 10 11  1  6
 12 11  1  0
 12 13  2  0
 14 13  1  0
 15 16  2  0
 15 14  1  0
 16 12  1  0
 17 10  1  0
 18 17  2  0
 20 19  1  0
 21 20  1  0
 21 22  1  6
 23 21  1  0
 23 24  1  6
 24 17  1  0
 25 23  1  0
 26 25  1  0
 27 25  2  0
M  END
$$$$
