MHI.pdb
     RDKit          3D

 27 27  0  0  1  0  0  0  0  0999 V2000
    6.5562  -11.5278   25.4177 C   0  0  0  0  0  0  0  0  0  0  0  0
    6.7376  -13.1907   24.7011 S   0  0  0  0  0  0  0  0  0  0  0  0
    6.9026  -13.0920   22.9124 C   0  0  0  0  0  0  0  0  0  0  0  0
    6.8265  -14.4692   22.3183 C   0  0  0  0  0  0  0  0  0  0  0  0
    8.2376  -14.9058   21.9669 C   0  0  2  0  0  0  0  0  0  0  0  0
    8.2384  -15.4345   20.6370 N   0  0  0  0  0  0  0  0  0  0  0  0
    8.7579  -15.8609   22.9713 C   0  0  0  0  0  0  0  0  0  0  0  0
    7.9187  -16.4721   23.6820 O   0  0  0  0  0  0  0  0  0  0  0  0
   10.1282  -16.1288   23.1819 N   0  0  0  0  0  0  0  0  0  0  0  0
   10.5901  -17.1759   24.0502 C   0  0  1  0  0  0  0  0  0  0  0  0
   11.4771  -18.1666   23.3215 C   0  0  0  0  0  0  0  0  0  0  0  0
   10.8036  -18.8896   22.2473 C   0  0  0  0  0  0  0  0  0  0  0  0
    9.9669  -19.9732   22.3499 C   0  0  0  0  0  0  0  0  0  0  0  0
    9.5589  -20.3314   21.0950 N   0  0  0  0  0  0  0  0  0  0  0  0
   10.1304  -19.4877   20.2322 C   0  0  0  0  0  0  0  0  0  0  0  0
   10.8888  -18.6099   20.9393 N   0  0  0  0  0  0  0  0  0  0  0  0
   11.2048  -16.6175   25.2711 C   0  0  0  0  0  0  0  0  0  0  0  0
   12.2502  -15.8834   25.1987 O   0  0  0  0  0  0  0  0  0  0  0  0
    8.8277  -13.8687   29.1560 C   0  0  0  0  0  0  0  0  0  0  0  0
    9.3748  -15.1043   28.5382 C   0  0  0  0  0  0  0  0  0  0  0  0
   10.8091  -15.1121   28.1772 C   0  0  2  0  0  0  0  0  0  0  0  0
   11.2434  -13.9549   27.3114 C   0  0  0  0  0  0  0  0  0  0  0  0
   11.4375  -16.4140   27.7951 C   0  0  2  0  0  0  0  0  0  0  0  0
   10.7114  -16.8342   26.5735 N   0  0  0  0  0  0  0  0  0  0  0  0
   11.1894  -17.4770   28.7788 C   0  0  0  0  0  0  0  0  0  0  0  0
   11.8381  -17.5846   30.0163 O   0  0  0  0  0  0  0  0  0  0  0  0
   10.3415  -18.4174   28.5776 O   0  0  0  0  0  0  0  0  0  0  0  0
  2  1  1  0
  3  2  1  0
  4  3  1  0
  4  5  1  0
  5  6  1  6
  7  5  1  0
  7  8  2  0
  9  7  1  0
 10  9  1  0
 10 11  1  6
 12 11  1  0
 12 13  2  0
 14 13  1  0
 15 16  2  0
 15 14  1  0
 16 12  1  0
 17 10  1  0
 18 17  2  0
 20 19  1  0
 21 20  1  0
 21 22  1  6
 23 21  1  0
 23 24  1  6
 24 17  1  0
 25 23  1  0
 26 25  1  0
 27 25  2  0
M  END
$$$$
