MHI.pdb
     RDKit          3D

 27 27  0  0  1  0  0  0  0  0999 V2000
    7.1054  -11.7481   19.5025 C   0  0  0  0  0  0  0  0  0  0  0  0
    8.6092  -12.7730   19.4886 S   0  0  0  0  0  0  0  0  0  0  0  0
    8.2180  -14.4726   19.9302 C   0  0  0  0  0  0  0  0  0  0  0  0
    9.4838  -15.2735   20.0391 C   0  0  0  0  0  0  0  0  0  0  0  0
    9.1044  -16.7046   20.3758 C   0  0  2  0  0  0  0  0  0  0  0  0
    7.9604  -17.0728   19.5988 N   0  0  0  0  0  0  0  0  0  0  0  0
    8.8921  -16.8634   21.8322 C   0  0  0  0  0  0  0  0  0  0  0  0
    7.7536  -16.5828   22.2880 O   0  0  0  0  0  0  0  0  0  0  0  0
    9.8801  -17.3072   22.7383 N   0  0  0  0  0  0  0  0  0  0  0  0
    9.6292  -17.4670   24.1437 C   0  0  1  0  0  0  0  0  0  0  0  0
   10.2274  -18.7513   24.6838 C   0  0  0  0  0  0  0  0  0  0  0  0
    9.5097  -19.9568   24.2816 C   0  0  0  0  0  0  0  0  0  0  0  0
    8.3499  -20.0490   23.5527 C   0  0  0  0  0  0  0  0  0  0  0  0
    8.0297  -21.3701   23.4051 N   0  0  0  0  0  0  0  0  0  0  0  0
    8.9709  -22.0823   24.0293 C   0  0  0  0  0  0  0  0  0  0  0  0
    9.8717  -21.2163   24.5625 N   0  0  0  0  0  0  0  0  0  0  0  0
   10.0374  -16.2625   24.8937 C   0  0  0  0  0  0  0  0  0  0  0  0
   11.2024  -15.7580   24.7350 O   0  0  0  0  0  0  0  0  0  0  0  0
    6.7298  -12.1861   25.5446 C   0  0  0  0  0  0  0  0  0  0  0  0
    7.9117  -13.0824   25.4589 C   0  0  0  0  0  0  0  0  0  0  0  0
    8.5276  -13.5268   26.7280 C   0  0  2  0  0  0  0  0  0  0  0  0
    8.6934  -12.4373   27.7590 C   0  0  0  0  0  0  0  0  0  0  0  0
    9.6863  -14.4696   26.6625 C   0  0  2  0  0  0  0  0  0  0  0  0
    9.2102  -15.5872   25.8138 N   0  0  0  0  0  0  0  0  0  0  0  0
   10.0010  -15.0770   27.9631 C   0  0  0  0  0  0  0  0  0  0  0  0
   10.9188  -14.5554   28.8847 O   0  0  0  0  0  0  0  0  0  0  0  0
    9.4507  -16.1619   28.3677 O   0  0  0  0  0  0  0  0  0  0  0  0
  2  1  1  0
  3  2  1  0
  4  3  1  0
  4  5  1  0
  5  6  1  6
  7  5  1  0
  7  8  2  0
  9  7  1  0
 10  9  1  0
 10 11  1  1
 12 11  1  0
 12 13  2  0
 14 13  1  0
 15 16  2  0
 15 14  1  0
 16 12  1  0
 17 10  1  0
 18 17  2  0
 20 19  1  0
 21 20  1  0
 21 22  1  6
 23 21  1  0
 23 24  1  6
 24 17  1  0
 25 23  1  0
 26 25  1  0
 27 25  2  0
M  END
$$$$
