MHI.pdb
     RDKit          3D

 27 27  0  0  1  0  0  0  0  0999 V2000
    7.8681  -11.7907   19.8317 C   0  0  0  0  0  0  0  0  0  0  0  0
    8.2326  -12.9456   18.4733 S   0  0  0  0  0  0  0  0  0  0  0  0
    7.0427  -14.2949   18.4564 C   0  0  0  0  0  0  0  0  0  0  0  0
    6.6397  -14.6347   19.8626 C   0  0  0  0  0  0  0  0  0  0  0  0
    7.7229  -15.5153   20.4598 C   0  0  2  0  0  0  0  0  0  0  0  0
    7.8966  -16.6632   19.6230 N   0  0  0  0  0  0  0  0  0  0  0  0
    7.4034  -15.8631   21.8629 C   0  0  0  0  0  0  0  0  0  0  0  0
    6.8124  -14.9960   22.5569 O   0  0  0  0  0  0  0  0  0  0  0  0
    7.7175  -17.0991   22.4693 N   0  0  0  0  0  0  0  0  0  0  0  0
    7.4750  -17.3655   23.8599 C   0  0  1  0  0  0  0  0  0  0  0  0
    7.5261  -18.8489   24.1702 C   0  0  0  0  0  0  0  0  0  0  0  0
    7.3016  -19.1704   25.5759 C   0  0  0  0  0  0  0  0  0  0  0  0
    6.9828  -18.3141   26.6006 C   0  0  0  0  0  0  0  0  0  0  0  0
    6.8629  -19.0379   27.7545 N   0  0  0  0  0  0  0  0  0  0  0  0
    7.1022  -20.3162   27.4519 C   0  0  0  0  0  0  0  0  0  0  0  0
    7.3694  -20.3925   26.1221 N   0  0  0  0  0  0  0  0  0  0  0  0
    8.3597  -16.5507   24.7163 C   0  0  0  0  0  0  0  0  0  0  0  0
    9.6295  -16.5855   24.5633 O   0  0  0  0  0  0  0  0  0  0  0  0
    6.3061  -11.8291   26.0943 C   0  0  0  0  0  0  0  0  0  0  0  0
    7.2183  -12.9460   25.7366 C   0  0  0  0  0  0  0  0  0  0  0  0
    7.9499  -13.6117   26.8362 C   0  0  2  0  0  0  0  0  0  0  0  0
    8.5916  -12.6676   27.8233 C   0  0  0  0  0  0  0  0  0  0  0  0
    8.7960  -14.8001   26.5082 C   0  0  2  0  0  0  0  0  0  0  0  0
    7.9004  -15.6942   25.7371 N   0  0  0  0  0  0  0  0  0  0  0  0
    9.1822  -15.5706   27.6985 C   0  0  0  0  0  0  0  0  0  0  0  0
   10.4337  -15.4958   28.3244 O   0  0  0  0  0  0  0  0  0  0  0  0
    8.3870  -16.3967   28.2720 O   0  0  0  0  0  0  0  0  0  0  0  0
  2  1  1  0
  3  2  1  0
  4  3  1  0
  4  5  1  0
  5  6  1  6
  7  5  1  0
  7  8  2  0
  9  7  1  0
 10  9  1  0
 10 11  1  6
 12 11  1  0
 12 13  2  0
 14 13  1  0
 15 16  2  0
 15 14  1  0
 16 12  1  0
 17 10  1  0
 18 17  2  0
 20 19  1  0
 21 20  1  0
 21 22  1  6
 23 21  1  0
 23 24  1  6
 24 17  1  0
 25 23  1  0
 26 25  1  0
 27 25  2  0
M  END
$$$$
