MHI.pdb
     RDKit          3D

 27 27  0  0  1  0  0  0  0  0999 V2000
    7.5651  -11.5194   18.5955 C   0  0  0  0  0  0  0  0  0  0  0  0
    7.4686  -12.7991   17.3052 S   0  0  0  0  0  0  0  0  0  0  0  0
    8.1746  -14.3447   17.8961 C   0  0  0  0  0  0  0  0  0  0  0  0
    8.0050  -14.4445   19.3849 C   0  0  0  0  0  0  0  0  0  0  0  0
    8.9839  -15.4853   19.8987 C   0  0  2  0  0  0  0  0  0  0  0  0
    9.0374  -16.5680   18.9643 N   0  0  0  0  0  0  0  0  0  0  0  0
    8.6215  -15.9174   21.2674 C   0  0  0  0  0  0  0  0  0  0  0  0
    7.9239  -15.1320   21.9597 O   0  0  0  0  0  0  0  0  0  0  0  0
    9.0063  -17.1480   21.8431 N   0  0  0  0  0  0  0  0  0  0  0  0
    8.6336  -17.5319   23.1763 C   0  0  1  0  0  0  0  0  0  0  0  0
    8.9957  -18.9741   23.4731 C   0  0  0  0  0  0  0  0  0  0  0  0
    8.2017  -19.9507   22.7344 C   0  0  0  0  0  0  0  0  0  0  0  0
    7.1367  -19.7195   21.8994 C   0  0  0  0  0  0  0  0  0  0  0  0
    6.6905  -20.9186   21.4170 N   0  0  0  0  0  0  0  0  0  0  0  0
    7.4624  -21.8734   21.9417 C   0  0  0  0  0  0  0  0  0  0  0  0
    8.3829  -21.2786   22.7446 N   0  0  0  0  0  0  0  0  0  0  0  0
    9.1591  -16.5732   24.1687 C   0  0  0  0  0  0  0  0  0  0  0  0
   10.4135  -16.3330   24.2439 O   0  0  0  0  0  0  0  0  0  0  0  0
    7.0689  -11.4841   26.8121 C   0  0  0  0  0  0  0  0  0  0  0  0
    8.1008  -12.5529   26.8337 C   0  0  0  0  0  0  0  0  0  0  0  0
    7.8512  -13.7624   26.0199 C   0  0  2  0  0  0  0  0  0  0  0  0
    6.4400  -14.2912   26.1003 C   0  0  0  0  0  0  0  0  0  0  0  0
    8.8922  -14.8357   26.0060 C   0  0  2  0  0  0  0  0  0  0  0  0
    8.3553  -15.8641   25.0840 N   0  0  0  0  0  0  0  0  0  0  0  0
    9.0307  -15.5120   27.3033 C   0  0  0  0  0  0  0  0  0  0  0  0
    9.8742  -15.0857   28.3380 O   0  0  0  0  0  0  0  0  0  0  0  0
    8.3781  -16.5752   27.5987 O   0  0  0  0  0  0  0  0  0  0  0  0
  2  1  1  0
  3  2  1  0
  4  3  1  0
  4  5  1  0
  5  6  1  6
  7  5  1  0
  7  8  2  0
  9  7  1  0
 10  9  1  0
 10 11  1  1
 12 11  1  0
 12 13  2  0
 14 13  1  0
 15 16  2  0
 15 14  1  0
 16 12  1  0
 17 10  1  0
 18 17  2  0
 20 19  1  0
 21 20  1  0
 21 22  1  1
 23 21  1  0
 23 24  1  6
 24 17  1  0
 25 23  1  0
 26 25  1  0
 27 25  2  0
M  END
$$$$
