MHI.pdb
     RDKit          3D

 27 27  0  0  1  0  0  0  0  0999 V2000
    9.5952  -12.2786   19.7098 C   0  0  0  0  0  0  0  0  0  0  0  0
    7.8533  -12.4209   19.2028 S   0  0  0  0  0  0  0  0  0  0  0  0
    7.2710  -14.1099   19.4141 C   0  0  0  0  0  0  0  0  0  0  0  0
    8.4410  -15.0511   19.4407 C   0  0  0  0  0  0  0  0  0  0  0  0
    7.9118  -16.4477   19.7144 C   0  0  2  0  0  0  0  0  0  0  0  0
    6.8372  -16.7187   18.8089 N   0  0  0  0  0  0  0  0  0  0  0  0
    7.5239  -16.5937   21.1356 C   0  0  0  0  0  0  0  0  0  0  0  0
    6.4206  -16.1041   21.4906 O   0  0  0  0  0  0  0  0  0  0  0  0
    8.3082  -17.2437   22.1134 N   0  0  0  0  0  0  0  0  0  0  0  0
    7.9194  -17.3225   23.4941 C   0  0  1  0  0  0  0  0  0  0  0  0
    8.0158  -18.7376   24.0302 C   0  0  0  0  0  0  0  0  0  0  0  0
    7.6367  -18.8690   25.4334 C   0  0  0  0  0  0  0  0  0  0  0  0
    6.8422  -18.0331   26.1784 C   0  0  0  0  0  0  0  0  0  0  0  0
    6.7484  -18.5342   27.4471 N   0  0  0  0  0  0  0  0  0  0  0  0
    7.4694  -19.6573   27.4883 C   0  0  0  0  0  0  0  0  0  0  0  0
    8.0094  -19.8577   26.2579 N   0  0  0  0  0  0  0  0  0  0  0  0
    8.6511  -16.3304   24.3068 C   0  0  0  0  0  0  0  0  0  0  0  0
    9.8940  -16.1069   24.1011 O   0  0  0  0  0  0  0  0  0  0  0  0
    5.6575  -12.2289   26.1316 C   0  0  0  0  0  0  0  0  0  0  0  0
    6.7498  -13.0929   25.6139 C   0  0  0  0  0  0  0  0  0  0  0  0
    7.7424  -13.5986   26.5868 C   0  0  2  0  0  0  0  0  0  0  0  0
    8.2510  -12.5623   27.5589 C   0  0  0  0  0  0  0  0  0  0  0  0
    8.8034  -14.5319   26.0979 C   0  0  2  0  0  0  0  0  0  0  0  0
    8.0664  -15.5700   25.3395 N   0  0  0  0  0  0  0  0  0  0  0  0
    9.4756  -15.2519   27.1884 C   0  0  0  0  0  0  0  0  0  0  0  0
   10.7191  -14.8981   27.7291 O   0  0  0  0  0  0  0  0  0  0  0  0
    8.9680  -16.2898   27.7439 O   0  0  0  0  0  0  0  0  0  0  0  0
  2  1  1  0
  3  2  1  0
  4  3  1  0
  4  5  1  0
  5  6  1  6
  7  5  1  0
  7  8  2  0
  9  7  1  0
 10  9  1  0
 10 11  1  1
 12 11  1  0
 12 13  2  0
 14 13  1  0
 15 16  2  0
 15 14  1  0
 16 12  1  0
 17 10  1  0
 18 17  2  0
 20 19  1  0
 21 20  1  0
 21 22  1  6
 23 21  1  0
 23 24  1  6
 24 17  1  0
 25 23  1  0
 26 25  1  0
 27 25  2  0
M  END
$$$$
