MHI.pdb
     RDKit          3D

 27 27  0  0  1  0  0  0  0  0999 V2000
    8.0847  -11.4828   20.3659 C   0  0  0  0  0  0  0  0  0  0  0  0
    7.7121  -12.3545   18.8125 S   0  0  0  0  0  0  0  0  0  0  0  0
    8.0046  -14.1203   18.9945 C   0  0  0  0  0  0  0  0  0  0  0  0
    8.0223  -14.4849   20.4512 C   0  0  0  0  0  0  0  0  0  0  0  0
    8.1407  -15.9951   20.5541 C   0  0  2  0  0  0  0  0  0  0  0  0
    6.9913  -16.5898   19.9432 N   0  0  0  0  0  0  0  0  0  0  0  0
    8.3311  -16.4128   21.9615 C   0  0  0  0  0  0  0  0  0  0  0  0
    7.2998  -16.5975   22.6580 O   0  0  0  0  0  0  0  0  0  0  0  0
    9.5892  -16.6161   22.5696 N   0  0  0  0  0  0  0  0  0  0  0  0
    9.7323  -17.0685   23.9255 C   0  0  1  0  0  0  0  0  0  0  0  0
   10.7379  -18.1972   24.0434 C   0  0  0  0  0  0  0  0  0  0  0  0
   10.2999  -19.4498   23.4358 C   0  0  0  0  0  0  0  0  0  0  0  0
    9.0635  -20.0417   23.5119 C   0  0  0  0  0  0  0  0  0  0  0  0
    9.0902  -21.2047   22.7934 N   0  0  0  0  0  0  0  0  0  0  0  0
   10.3172  -21.3315   22.2823 C   0  0  0  0  0  0  0  0  0  0  0  0
   11.0518  -20.2589   22.6766 N   0  0  0  0  0  0  0  0  0  0  0  0
   10.0031  -15.9369   24.8344 C   0  0  0  0  0  0  0  0  0  0  0  0
   11.0207  -15.1828   24.6530 O   0  0  0  0  0  0  0  0  0  0  0  0
    6.3982  -12.4961   26.2087 C   0  0  0  0  0  0  0  0  0  0  0  0
    7.6363  -13.2852   25.9804 C   0  0  0  0  0  0  0  0  0  0  0  0
    8.3685  -13.7701   27.1704 C   0  0  2  0  0  0  0  0  0  0  0  0
    8.5138  -12.7516   28.2745 C   0  0  0  0  0  0  0  0  0  0  0  0
    9.5925  -14.6028   26.9600 C   0  0  2  0  0  0  0  0  0  0  0  0
    9.1942  -15.5997   25.9383 N   0  0  0  0  0  0  0  0  0  0  0  0
    9.9582  -15.3885   28.1467 C   0  0  0  0  0  0  0  0  0  0  0  0
    9.5365  -16.7019   28.3937 O   0  0  0  0  0  0  0  0  0  0  0  0
   10.7077  -14.9229   29.0768 O   0  0  0  0  0  0  0  0  0  0  0  0
  2  1  1  0
  3  2  1  0
  4  3  1  0
  4  5  1  0
  5  6  1  1
  7  5  1  0
  7  8  2  0
  9  7  1  0
 10  9  1  0
 10 11  1  6
 12 11  1  0
 12 13  2  0
 14 13  1  0
 15 16  2  0
 15 14  1  0
 16 12  1  0
 17 10  1  0
 18 17  2  0
 20 19  1  0
 21 20  1  0
 21 22  1  6
 23 21  1  0
 23 24  1  6
 24 17  1  0
 25 23  1  0
 26 25  1  0
 27 25  2  0
M  END
$$$$
