MHI.pdb
     RDKit          3D

 27 27  0  0  1  0  0  0  0  0999 V2000
    8.4135  -11.7418   19.7388 C   0  0  0  0  0  0  0  0  0  0  0  0
    8.2463  -12.6180   18.1525 S   0  0  0  0  0  0  0  0  0  0  0  0
    8.1556  -14.3947   18.4201 C   0  0  0  0  0  0  0  0  0  0  0  0
    7.6006  -14.6751   19.7871 C   0  0  0  0  0  0  0  0  0  0  0  0
    7.5189  -16.1814   19.9590 C   0  0  2  0  0  0  0  0  0  0  0  0
    6.5556  -16.6988   19.0355 N   0  0  0  0  0  0  0  0  0  0  0  0
    7.2221  -16.5347   21.3657 C   0  0  0  0  0  0  0  0  0  0  0  0
    6.0490  -16.3439   21.7782 O   0  0  0  0  0  0  0  0  0  0  0  0
    8.1660  -17.0692   22.2696 N   0  0  0  0  0  0  0  0  0  0  0  0
    7.8777  -17.2751   23.6618 C   0  0  1  0  0  0  0  0  0  0  0  0
    8.0652  -18.7230   24.0714 C   0  0  0  0  0  0  0  0  0  0  0  0
    7.8595  -18.9697   25.4950 C   0  0  0  0  0  0  0  0  0  0  0  0
    8.7981  -19.2933   26.4433 C   0  0  0  0  0  0  0  0  0  0  0  0
    8.1706  -19.4341   27.6499 N   0  0  0  0  0  0  0  0  0  0  0  0
    6.8702  -19.2027   27.4543 C   0  0  0  0  0  0  0  0  0  0  0  0
    6.6848  -18.9197   26.1385 N   0  0  0  0  0  0  0  0  0  0  0  0
    8.6258  -16.3201   24.5034 C   0  0  0  0  0  0  0  0  0  0  0  0
    9.8280  -15.9946   24.2108 O   0  0  0  0  0  0  0  0  0  0  0  0
    5.7647  -12.3605   26.6159 C   0  0  0  0  0  0  0  0  0  0  0  0
    6.8430  -13.2160   26.0564 C   0  0  0  0  0  0  0  0  0  0  0  0
    7.8206  -13.7932   27.0043 C   0  0  2  0  0  0  0  0  0  0  0  0
    8.3517  -12.8188   28.0270 C   0  0  0  0  0  0  0  0  0  0  0  0
    8.8600  -14.7266   26.4712 C   0  0  2  0  0  0  0  0  0  0  0  0
    8.1005  -15.7052   25.6578 N   0  0  0  0  0  0  0  0  0  0  0  0
    9.5089  -15.5188   27.5251 C   0  0  0  0  0  0  0  0  0  0  0  0
   10.7568  -15.2230   28.0899 O   0  0  0  0  0  0  0  0  0  0  0  0
    8.9744  -16.5727   28.0222 O   0  0  0  0  0  0  0  0  0  0  0  0
  2  1  1  0
  3  2  1  0
  4  3  1  0
  4  5  1  0
  5  6  1  6
  7  5  1  0
  7  8  2  0
  9  7  1  0
 10  9  1  0
 10 11  1  1
 12 11  1  0
 12 13  2  0
 14 13  1  0
 15 16  2  0
 15 14  1  0
 16 12  1  0
 17 10  1  0
 18 17  2  0
 20 19  1  0
 21 20  1  0
 21 22  1  6
 23 21  1  0
 23 24  1  6
 24 17  1  0
 25 23  1  0
 26 25  1  0
 27 25  2  0
M  END
$$$$
