LLV.pdb
     RDKit          3D

 24 23  0  0  1  0  0  0  0  0999 V2000
    5.9287  -19.5511   20.2779 C   0  0  0  0  0  0  0  0  0  0  0  0
    5.8974  -18.0356   20.3123 C   0  0  1  0  0  0  0  0  0  0  0  0
    4.4516  -17.6251   20.4922 C   0  0  0  0  0  0  0  0  0  0  0  0
    6.7558  -17.5709   21.4478 C   0  0  0  0  0  0  0  0  0  0  0  0
    6.8371  -16.0621   21.5322 C   0  0  2  0  0  0  0  0  0  0  0  0
    7.3268  -15.5879   20.2511 N   0  0  0  0  0  0  0  0  0  0  0  0
    7.7434  -15.6006   22.5864 C   0  0  0  0  0  0  0  0  0  0  0  0
    8.9950  -15.4565   22.3679 O   0  0  0  0  0  0  0  0  0  0  0  0
    8.0363  -11.9399   25.4697 C   0  0  0  0  0  0  0  0  0  0  0  0
    6.8689  -12.9245   25.7230 C   0  0  2  0  0  0  0  0  0  0  0  0
    5.9669  -12.2688   26.7014 C   0  0  0  0  0  0  0  0  0  0  0  0
    7.4137  -14.2678   26.0911 C   0  0  0  0  0  0  0  0  0  0  0  0
    8.1616  -14.9595   25.0089 C   0  0  2  0  0  0  0  0  0  0  0  0
    7.3283  -15.2800   23.9101 N   0  0  0  0  0  0  0  0  0  0  0  0
    8.9440  -16.1239   25.5101 C   0  0  0  0  0  0  0  0  0  0  0  0
    8.2883  -17.0994   25.9435 O   0  0  0  0  0  0  0  0  0  0  0  0
   13.2004  -18.7004   25.7501 C   0  0  0  0  0  0  0  0  0  0  0  0
   12.4360  -17.4607   25.3384 C   0  0  1  0  0  0  0  0  0  0  0  0
   12.2671  -17.5108   23.8362 C   0  0  0  0  0  0  0  0  0  0  0  0
   11.0597  -17.3964   25.9602 C   0  0  2  0  0  0  0  0  0  0  0  0
   10.3540  -16.1889   25.5240 N   0  0  0  0  0  0  0  0  0  0  0  0
   11.1394  -17.4214   27.4214 C   0  0  0  0  0  0  0  0  0  0  0  0
   11.3889  -18.6088   28.0795 O   0  0  0  0  0  0  0  0  0  0  0  0
   10.9826  -16.3711   28.0858 O   0  0  0  0  0  0  0  0  0  0  0  0
  2  3  1  1
  2  1  1  0
  4  2  1  0
  5  4  1  0
  5  6  1  6
  7  8  2  0
  7  5  1  0
 10  9  1  1
 10 12  1  0
 10 11  1  0
 13 12  1  1
 13 14  1  0
 14  7  1  0
 15 13  1  0
 15 16  2  0
 18 17  1  1
 19 18  1  0
 20 18  1  0
 20 21  1  1
 21 15  1  0
 22 20  1  0
 23 22  1  0
 24 22  2  0
M  END
$$$$
