LLV.pdb
     RDKit          3D

 24 23  0  0  1  0  0  0  0  0999 V2000
    8.1789  -17.3541   18.6166 C   0  0  0  0  0  0  0  0  0  0  0  0
    8.0788  -17.6983   20.0898 C   0  0  1  0  0  0  0  0  0  0  0  0
    8.7961  -19.0163   20.2880 C   0  0  0  0  0  0  0  0  0  0  0  0
    8.7123  -16.5933   20.8772 C   0  0  0  0  0  0  0  0  0  0  0  0
    8.6745  -16.8497   22.3683 C   0  0  2  0  0  0  0  0  0  0  0  0
    7.2776  -16.9192   22.7549 N   0  0  0  0  0  0  0  0  0  0  0  0
    9.3287  -15.7925   23.1427 C   0  0  0  0  0  0  0  0  0  0  0  0
   10.5955  -15.6255   23.0977 O   0  0  0  0  0  0  0  0  0  0  0  0
    6.1096  -13.6775   24.1183 C   0  0  0  0  0  0  0  0  0  0  0  0
    6.8254  -13.4348   25.4692 C   0  0  2  0  0  0  0  0  0  0  0  0
    5.8964  -12.6325   26.3023 C   0  0  0  0  0  0  0  0  0  0  0  0
    8.1861  -12.8650   25.2232 C   0  0  0  0  0  0  0  0  0  0  0  0
    9.2059  -13.8482   24.7734 C   0  0  2  0  0  0  0  0  0  0  0  0
    8.6368  -14.8815   23.9906 N   0  0  0  0  0  0  0  0  0  0  0  0
   10.0424  -14.3568   25.8964 C   0  0  0  0  0  0  0  0  0  0  0  0
   10.7717  -13.5217   26.4795 O   0  0  0  0  0  0  0  0  0  0  0  0
   10.9376  -15.7990   30.0301 C   0  0  0  0  0  0  0  0  0  0  0  0
   10.2325  -15.3954   28.7532 C   0  0  1  0  0  0  0  0  0  0  0  0
   10.4487  -13.9102   28.5664 C   0  0  0  0  0  0  0  0  0  0  0  0
   10.7861  -16.1034   27.5378 C   0  0  2  0  0  0  0  0  0  0  0  0
   10.0593  -15.6995   26.3316 N   0  0  0  0  0  0  0  0  0  0  0  0
   10.7133  -17.5567   27.6952 C   0  0  0  0  0  0  0  0  0  0  0  0
   11.4494  -18.1827   28.6809 O   0  0  0  0  0  0  0  0  0  0  0  0
    9.9862  -18.2432   26.9409 O   0  0  0  0  0  0  0  0  0  0  0  0
  2  3  1  6
  2  1  1  0
  4  2  1  0
  5  4  1  0
  5  6  1  1
  7  8  2  0
  7  5  1  0
 10  9  1  6
 10 12  1  0
 10 11  1  0
 13 12  1  1
 13 14  1  0
 14  7  1  0
 15 13  1  0
 15 16  2  0
 18 17  1  1
 19 18  1  0
 20 18  1  0
 20 21  1  6
 21 15  1  0
 22 20  1  0
 23 22  1  0
 24 22  2  0
M  END
$$$$
