LLV.pdb
     RDKit          3D

 24 23  0  0  1  0  0  0  0  0999 V2000
    7.3224  -20.0245   20.4096 C   0  0  0  0  0  0  0  0  0  0  0  0
    7.5984  -18.5681   20.0907 C   0  0  1  0  0  0  0  0  0  0  0  0
    6.2920  -17.9591   19.6287 C   0  0  0  0  0  0  0  0  0  0  0  0
    8.1181  -17.9038   21.3280 C   0  0  0  0  0  0  0  0  0  0  0  0
    8.2656  -16.4067   21.1628 C   0  0  2  0  0  0  0  0  0  0  0  0
    9.2903  -16.1862   20.1593 N   0  0  0  0  0  0  0  0  0  0  0  0
    8.6637  -15.7355   22.4023 C   0  0  0  0  0  0  0  0  0  0  0  0
    9.8912  -15.6663   22.7535 O   0  0  0  0  0  0  0  0  0  0  0  0
    5.7986  -12.6075   27.0007 C   0  0  0  0  0  0  0  0  0  0  0  0
    7.1381  -13.1488   26.4447 C   0  0  2  0  0  0  0  0  0  0  0  0
    8.1223  -12.0451   26.5629 C   0  0  0  0  0  0  0  0  0  0  0  0
    6.9214  -13.7266   25.0824 C   0  0  0  0  0  0  0  0  0  0  0  0
    8.0552  -14.5292   24.5538 C   0  0  2  0  0  0  0  0  0  0  0  0
    7.7501  -15.1174   23.3027 N   0  0  0  0  0  0  0  0  0  0  0  0
    8.5753  -15.5072   25.5499 C   0  0  0  0  0  0  0  0  0  0  0  0
    7.7906  -16.4136   25.9131 O   0  0  0  0  0  0  0  0  0  0  0  0
   12.4704  -18.1170   26.9423 C   0  0  0  0  0  0  0  0  0  0  0  0
   11.7840  -17.0004   26.1856 C   0  0  1  0  0  0  0  0  0  0  0  0
   11.5401  -17.4916   24.7761 C   0  0  0  0  0  0  0  0  0  0  0  0
   10.4480  -16.6295   26.7875 C   0  0  2  0  0  0  0  0  0  0  0  0
    9.8762  -15.4710   26.0966 N   0  0  0  0  0  0  0  0  0  0  0  0
   10.5755  -16.3391   28.2164 C   0  0  0  0  0  0  0  0  0  0  0  0
   10.5941  -17.3717   29.1323 O   0  0  0  0  0  0  0  0  0  0  0  0
   10.6685  -15.1570   28.6202 O   0  0  0  0  0  0  0  0  0  0  0  0
  2  3  1  1
  2  1  1  0
  4  2  1  0
  5  4  1  0
  5  6  1  6
  7  8  2  0
  7  5  1  0
 10  9  1  6
 10 12  1  0
 10 11  1  0
 13 12  1  1
 13 14  1  0
 14  7  1  0
 15 13  1  0
 15 16  2  0
 18 17  1  1
 19 18  1  0
 20 18  1  0
 20 21  1  6
 21 15  1  0
 22 20  1  0
 23 22  1  0
 24 22  2  0
M  END
$$$$
