LLV.pdb
     RDKit          3D

 24 23  0  0  1  0  0  0  0  0999 V2000
    6.3455  -18.7245   19.7156 C   0  0  0  0  0  0  0  0  0  0  0  0
    6.5821  -17.2276   19.7628 C   0  0  1  0  0  0  0  0  0  0  0  0
    5.2260  -16.5672   19.8886 C   0  0  0  0  0  0  0  0  0  0  0  0
    7.4622  -16.9252   20.9359 C   0  0  0  0  0  0  0  0  0  0  0  0
    7.5876  -15.4399   21.1977 C   0  0  2  0  0  0  0  0  0  0  0  0
    8.3820  -14.8813   20.1194 N   0  0  0  0  0  0  0  0  0  0  0  0
    8.2433  -15.1418   22.4731 C   0  0  0  0  0  0  0  0  0  0  0  0
    9.5178  -15.1177   22.5731 O   0  0  0  0  0  0  0  0  0  0  0  0
    7.9180  -11.7875   25.8587 C   0  0  0  0  0  0  0  0  0  0  0  0
    6.7099  -12.7364   25.6682 C   0  0  2  0  0  0  0  0  0  0  0  0
    5.6059  -12.1867   26.4926 C   0  0  0  0  0  0  0  0  0  0  0  0
    7.1284  -14.1460   25.9410 C   0  0  0  0  0  0  0  0  0  0  0  0
    8.1055  -14.7088   24.9727 C   0  0  2  0  0  0  0  0  0  0  0  0
    7.5448  -14.8601   23.6815 N   0  0  0  0  0  0  0  0  0  0  0  0
    8.7587  -15.9492   25.4769 C   0  0  0  0  0  0  0  0  0  0  0  0
    8.0047  -16.9095   25.7575 O   0  0  0  0  0  0  0  0  0  0  0  0
   12.8065  -18.7898   26.0729 C   0  0  0  0  0  0  0  0  0  0  0  0
   12.1654  -17.4894   25.6390 C   0  0  1  0  0  0  0  0  0  0  0  0
   12.1699  -17.4647   24.1267 C   0  0  0  0  0  0  0  0  0  0  0  0
   10.7318  -17.3680   26.1027 C   0  0  2  0  0  0  0  0  0  0  0  0
   10.1511  -16.1005   25.6527 N   0  0  0  0  0  0  0  0  0  0  0  0
   10.6390  -17.4641   27.5602 C   0  0  0  0  0  0  0  0  0  0  0  0
   10.6752  -16.3201   28.3318 O   0  0  0  0  0  0  0  0  0  0  0  0
   10.5264  -18.5795   28.1190 O   0  0  0  0  0  0  0  0  0  0  0  0
  2  3  1  1
  2  1  1  0
  4  2  1  0
  5  4  1  0
  5  6  1  6
  7  8  2  0
  7  5  1  0
 10  9  1  1
 10 12  1  0
 10 11  1  0
 13 12  1  1
 13 14  1  0
 14  7  1  0
 15 13  1  0
 15 16  2  0
 18 17  1  6
 19 18  1  0
 20 18  1  0
 20 21  1  1
 21 15  1  0
 22 20  1  0
 23 22  1  0
 24 22  2  0
M  END
$$$$
