LLV.pdb
     RDKit          3D

 24 23  0  0  1  0  0  0  0  0999 V2000
    5.5012  -20.4495   22.0439 C   0  0  0  0  0  0  0  0  0  0  0  0
    5.4628  -18.9661   21.7322 C   0  0  1  0  0  0  0  0  0  0  0  0
    4.0681  -18.4789   22.0615 C   0  0  0  0  0  0  0  0  0  0  0  0
    6.5045  -18.2818   22.5622 C   0  0  0  0  0  0  0  0  0  0  0  0
    6.4941  -16.7793   22.3808 C   0  0  2  0  0  0  0  0  0  0  0  0
    6.8075  -16.5146   20.9889 N   0  0  0  0  0  0  0  0  0  0  0  0
    7.4779  -16.0988   23.2261 C   0  0  0  0  0  0  0  0  0  0  0  0
    8.7018  -15.9994   22.8695 O   0  0  0  0  0  0  0  0  0  0  0  0
    7.9359  -11.9644   25.3092 C   0  0  0  0  0  0  0  0  0  0  0  0
    6.8295  -12.8941   25.8640 C   0  0  2  0  0  0  0  0  0  0  0  0
    5.9996  -12.0679   26.7746 C   0  0  0  0  0  0  0  0  0  0  0  0
    7.4495  -14.1283   26.4376 C   0  0  0  0  0  0  0  0  0  0  0  0
    8.0956  -15.0256   25.4444 C   0  0  2  0  0  0  0  0  0  0  0  0
    7.1727  -15.5038   24.4831 N   0  0  0  0  0  0  0  0  0  0  0  0
    8.8880  -16.1114   26.0868 C   0  0  0  0  0  0  0  0  0  0  0  0
    8.2406  -17.0331   26.6351 O   0  0  0  0  0  0  0  0  0  0  0  0
   13.1221  -18.6770   26.4974 C   0  0  0  0  0  0  0  0  0  0  0  0
   12.3512  -17.4838   25.9753 C   0  0  1  0  0  0  0  0  0  0  0  0
   12.0933  -17.7198   24.5038 C   0  0  0  0  0  0  0  0  0  0  0  0
   11.0149  -17.3131   26.6610 C   0  0  2  0  0  0  0  0  0  0  0  0
   10.2985  -16.1592   26.1119 N   0  0  0  0  0  0  0  0  0  0  0  0
   11.1806  -17.1499   28.1061 C   0  0  0  0  0  0  0  0  0  0  0  0
   11.3377  -18.2587   28.9131 O   0  0  0  0  0  0  0  0  0  0  0  0
   11.1813  -16.0085   28.6220 O   0  0  0  0  0  0  0  0  0  0  0  0
  2  3  1  1
  2  1  1  0
  4  2  1  0
  5  4  1  0
  5  6  1  6
  7  8  2  0
  7  5  1  0
 10  9  1  1
 10 12  1  0
 10 11  1  0
 13 12  1  1
 13 14  1  0
 14  7  1  0
 15 13  1  0
 15 16  2  0
 18 17  1  1
 19 18  1  0
 20 18  1  0
 20 21  1  6
 21 15  1  0
 22 20  1  0
 23 22  1  0
 24 22  2  0
M  END
$$$$
