LLV.pdb
     RDKit          3D

 24 23  0  0  1  0  0  0  0  0999 V2000
    9.8234  -21.0893   22.2214 C   0  0  0  0  0  0  0  0  0  0  0  0
    9.4412  -19.8444   21.4448 C   0  0  1  0  0  0  0  0  0  0  0  0
    7.9927  -20.0033   21.0355 C   0  0  0  0  0  0  0  0  0  0  0  0
    9.6445  -18.6542   22.3304 C   0  0  0  0  0  0  0  0  0  0  0  0
    9.1688  -17.3681   21.6899 C   0  0  2  0  0  0  0  0  0  0  0  0
    9.9908  -17.1462   20.5149 N   0  0  0  0  0  0  0  0  0  0  0  0
    9.2920  -16.2114   22.5801 C   0  0  0  0  0  0  0  0  0  0  0  0
   10.4136  -15.6210   22.7478 O   0  0  0  0  0  0  0  0  0  0  0  0
    5.5503  -13.1727   26.5891 C   0  0  0  0  0  0  0  0  0  0  0  0
    6.9448  -13.2594   25.9228 C   0  0  2  0  0  0  0  0  0  0  0  0
    7.2498  -11.9043   25.4016 C   0  0  0  0  0  0  0  0  0  0  0  0
    6.9653  -14.3881   24.9419 C   0  0  0  0  0  0  0  0  0  0  0  0
    8.2816  -14.6356   24.2978 C   0  0  2  0  0  0  0  0  0  0  0  0
    8.2087  -15.6547   23.3177 N   0  0  0  0  0  0  0  0  0  0  0  0
    9.3707  -14.8543   25.2906 C   0  0  0  0  0  0  0  0  0  0  0  0
   10.2996  -14.0140   25.3029 O   0  0  0  0  0  0  0  0  0  0  0  0
   10.7262  -14.8234   29.5871 C   0  0  0  0  0  0  0  0  0  0  0  0
    9.9562  -14.7736   28.2851 C   0  0  1  0  0  0  0  0  0  0  0  0
   10.3271  -13.4833   27.5887 C   0  0  0  0  0  0  0  0  0  0  0  0
   10.3059  -15.9185   27.3620 C   0  0  2  0  0  0  0  0  0  0  0  0
    9.4139  -15.9331   26.1999 N   0  0  0  0  0  0  0  0  0  0  0  0
   10.2280  -17.2022   28.0608 C   0  0  0  0  0  0  0  0  0  0  0  0
    9.0223  -17.8685   28.1495 O   0  0  0  0  0  0  0  0  0  0  0  0
   11.2491  -17.7062   28.5826 O   0  0  0  0  0  0  0  0  0  0  0  0
  2  3  1  1
  2  1  1  0
  4  2  1  0
  5  4  1  0
  5  6  1  6
  7  8  2  0
  7  5  1  0
 10  9  1  6
 10 12  1  0
 10 11  1  0
 13 12  1  1
 13 14  1  0
 14  7  1  0
 15 13  1  0
 15 16  2  0
 18 17  1  1
 19 18  1  0
 20 18  1  0
 20 21  1  6
 21 15  1  0
 22 20  1  0
 23 22  1  0
 24 22  2  0
M  END
$$$$
