LLV.pdb
     RDKit          3D

 24 23  0  0  1  0  0  0  0  0999 V2000
    7.4829  -21.8883   24.6572 C   0  0  0  0  0  0  0  0  0  0  0  0
    6.7439  -20.7912   23.9161 C   0  0  1  0  0  0  0  0  0  0  0  0
    5.3731  -20.6741   24.5472 C   0  0  0  0  0  0  0  0  0  0  0  0
    7.5288  -19.5225   24.0450 C   0  0  0  0  0  0  0  0  0  0  0  0
    6.8226  -18.3389   23.4199 C   0  0  2  0  0  0  0  0  0  0  0  0
    6.7621  -18.5831   21.9907 N   0  0  0  0  0  0  0  0  0  0  0  0
    7.5203  -17.0726   23.6553 C   0  0  0  0  0  0  0  0  0  0  0  0
    8.5242  -16.7270   22.9429 O   0  0  0  0  0  0  0  0  0  0  0  0
    7.2985  -12.0727   24.5248 C   0  0  0  0  0  0  0  0  0  0  0  0
    6.3198  -13.0532   25.2155 C   0  0  2  0  0  0  0  0  0  0  0  0
    5.3816  -12.2243   26.0114 C   0  0  0  0  0  0  0  0  0  0  0  0
    7.0922  -14.1035   25.9482 C   0  0  0  0  0  0  0  0  0  0  0  0
    7.8973  -15.0068   25.0852 C   0  0  2  0  0  0  0  0  0  0  0  0
    7.1570  -16.1388   24.6669 N   0  0  0  0  0  0  0  0  0  0  0  0
    9.2103  -15.3580   25.6951 C   0  0  0  0  0  0  0  0  0  0  0  0
   10.2343  -15.0730   25.0321 O   0  0  0  0  0  0  0  0  0  0  0  0
   10.9808  -13.6909   27.9572 C   0  0  0  0  0  0  0  0  0  0  0  0
   10.9460  -15.0697   28.5800 C   0  0  1  0  0  0  0  0  0  0  0  0
    9.8142  -15.0850   29.5833 C   0  0  0  0  0  0  0  0  0  0  0  0
   10.6824  -16.1573   27.5637 C   0  0  2  0  0  0  0  0  0  0  0  0
    9.3628  -15.9813   26.9524 N   0  0  0  0  0  0  0  0  0  0  0  0
   10.7704  -17.4838   28.1759 C   0  0  0  0  0  0  0  0  0  0  0  0
   11.9766  -17.9382   28.6699 O   0  0  0  0  0  0  0  0  0  0  0  0
    9.7575  -18.2162   28.2571 O   0  0  0  0  0  0  0  0  0  0  0  0
  2  3  1  1
  2  1  1  0
  4  2  1  0
  5  4  1  0
  5  6  1  6
  7  8  2  0
  7  5  1  0
 10  9  1  1
 10 12  1  0
 10 11  1  0
 13 12  1  1
 13 14  1  0
 14  7  1  0
 15 13  1  0
 15 16  2  0
 18 17  1  6
 19 18  1  0
 20 18  1  0
 20 21  1  1
 21 15  1  0
 22 20  1  0
 23 22  1  0
 24 22  2  0
M  END
$$$$
