LLV.pdb
     RDKit          3D

 24 23  0  0  1  0  0  0  0  0999 V2000
    8.0005  -11.8789   18.8609 C   0  0  0  0  0  0  0  0  0  0  0  0
    7.7471  -13.2857   19.3664 C   0  0  1  0  0  0  0  0  0  0  0  0
    8.2047  -14.2369   18.2816 C   0  0  0  0  0  0  0  0  0  0  0  0
    8.5151  -13.4765   20.6376 C   0  0  0  0  0  0  0  0  0  0  0  0
    8.2990  -14.8459   21.2446 C   0  0  2  0  0  0  0  0  0  0  0  0
    6.8707  -15.1012   21.2261 N   0  0  0  0  0  0  0  0  0  0  0  0
    8.7790  -14.9369   22.6255 C   0  0  0  0  0  0  0  0  0  0  0  0
   10.0293  -14.9516   22.8926 O   0  0  0  0  0  0  0  0  0  0  0  0
    8.2994  -12.1848   26.2356 C   0  0  0  0  0  0  0  0  0  0  0  0
    7.0424  -12.9829   25.8124 C   0  0  2  0  0  0  0  0  0  0  0  0
    5.8958  -12.3824   26.5373 C   0  0  0  0  0  0  0  0  0  0  0  0
    7.2840  -14.4455   26.0102 C   0  0  0  0  0  0  0  0  0  0  0  0
    8.3190  -15.0361   25.1220 C   0  0  2  0  0  0  0  0  0  0  0  0
    7.9253  -15.0148   23.7623 N   0  0  0  0  0  0  0  0  0  0  0  0
    8.7656  -16.3809   25.5818 C   0  0  0  0  0  0  0  0  0  0  0  0
    7.9268  -17.3085   25.5105 O   0  0  0  0  0  0  0  0  0  0  0  0
   12.2705  -19.7450   26.3136 C   0  0  0  0  0  0  0  0  0  0  0  0
   11.8209  -18.3501   25.9360 C   0  0  1  0  0  0  0  0  0  0  0  0
   11.7642  -18.2858   24.4260 C   0  0  0  0  0  0  0  0  0  0  0  0
   10.4448  -18.0217   26.4684 C   0  0  2  0  0  0  0  0  0  0  0  0
   10.0547  -16.6632   26.0831 N   0  0  0  0  0  0  0  0  0  0  0  0
   10.3971  -18.1550   27.9252 C   0  0  0  0  0  0  0  0  0  0  0  0
   10.3117  -19.4061   28.5021 O   0  0  0  0  0  0  0  0  0  0  0  0
   10.4331  -17.1404   28.6589 O   0  0  0  0  0  0  0  0  0  0  0  0
  2  3  1  6
  2  1  1  0
  4  2  1  0
  5  4  1  0
  5  6  1  1
  7  8  2  0
  7  5  1  0
 10  9  1  1
 10 12  1  0
 10 11  1  0
 13 12  1  1
 13 14  1  0
 14  7  1  0
 15 13  1  0
 15 16  2  0
 18 17  1  6
 19 18  1  0
 20 18  1  0
 20 21  1  1
 21 15  1  0
 22 20  1  0
 23 22  1  0
 24 22  2  0
M  END
$$$$
