LLV.pdb
     RDKit          3D

 24 23  0  0  1  0  0  0  0  0999 V2000
    7.9770  -17.2409   18.3478 C   0  0  0  0  0  0  0  0  0  0  0  0
    9.4192  -17.0438   18.7721 C   0  0  1  0  0  0  0  0  0  0  0  0
   10.1410  -16.4002   17.6078 C   0  0  0  0  0  0  0  0  0  0  0  0
    9.4384  -16.1745   19.9912 C   0  0  0  0  0  0  0  0  0  0  0  0
    9.2145  -16.9596   21.2656 C   0  0  2  0  0  0  0  0  0  0  0  0
    7.8593  -17.4762   21.2170 N   0  0  0  0  0  0  0  0  0  0  0  0
    9.3669  -16.1410   22.4706 C   0  0  0  0  0  0  0  0  0  0  0  0
   10.4391  -15.4803   22.6915 O   0  0  0  0  0  0  0  0  0  0  0  0
    7.5152  -12.4667   24.6450 C   0  0  0  0  0  0  0  0  0  0  0  0
    6.4575  -13.5966   24.6137 C   0  0  2  0  0  0  0  0  0  0  0  0
    5.2597  -13.0745   25.3160 C   0  0  0  0  0  0  0  0  0  0  0  0
    7.0573  -14.8628   25.1368 C   0  0  0  0  0  0  0  0  0  0  0  0
    8.4150  -15.1747   24.6188 C   0  0  2  0  0  0  0  0  0  0  0  0
    8.3673  -16.0092   23.4761 N   0  0  0  0  0  0  0  0  0  0  0  0
    9.3271  -15.6857   25.6800 C   0  0  0  0  0  0  0  0  0  0  0  0
    9.9051  -16.7733   25.4511 O   0  0  0  0  0  0  0  0  0  0  0  0
   11.5759  -15.1463   30.1292 C   0  0  0  0  0  0  0  0  0  0  0  0
   10.4942  -14.7392   29.1521 C   0  0  1  0  0  0  0  0  0  0  0  0
   10.7444  -13.2960   28.7750 C   0  0  0  0  0  0  0  0  0  0  0  0
   10.5191  -15.5629   27.8849 C   0  0  2  0  0  0  0  0  0  0  0  0
    9.5721  -15.0269   26.9041 N   0  0  0  0  0  0  0  0  0  0  0  0
   10.2037  -16.9652   28.1611 C   0  0  0  0  0  0  0  0  0  0  0  0
   11.2215  -17.8754   28.3639 O   0  0  0  0  0  0  0  0  0  0  0  0
    9.0134  -17.3513   28.2157 O   0  0  0  0  0  0  0  0  0  0  0  0
  2  3  1  6
  2  1  1  0
  4  2  1  0
  5  4  1  0
  5  6  1  6
  7  8  2  0
  7  5  1  0
 10  9  1  1
 10 12  1  0
 10 11  1  0
 13 12  1  1
 13 14  1  0
 14  7  1  0
 15 13  1  0
 15 16  2  0
 18 17  1  1
 19 18  1  0
 20 18  1  0
 20 21  1  6
 21 15  1  0
 22 20  1  0
 23 22  1  0
 24 22  2  0
M  END
$$$$
