EDG.pdb
     RDKit          3D

 22 21  0  0  1  0  0  0  0  0999 V2000
   12.0371  -18.6271   17.9776 N   0  0  0  0  0  0  0  0  0  0  0  0
   11.9985  -17.4679   18.8302 C   0  0  1  0  0  0  0  0  0  0  0  0
   10.8566  -17.6542   19.7857 C   0  0  0  0  0  0  0  0  0  0  0  0
    9.6785  -18.2781   19.0706 C   0  0  0  0  0  0  0  0  0  0  0  0
    8.5067  -18.4168   19.9719 C   0  0  0  0  0  0  0  0  0  0  0  0
    8.5313  -19.0334   21.0503 O   0  0  0  0  0  0  0  0  0  0  0  0
   13.2888  -17.2484   19.5353 C   0  0  0  0  0  0  0  0  0  0  0  0
   14.0164  -18.2493   19.8327 O   0  0  0  0  0  0  0  0  0  0  0  0
    7.3203  -17.8231   19.5829 O   0  0  0  0  0  0  0  0  0  0  0  0
   13.7700  -15.9838   19.9039 N   0  0  0  0  0  0  0  0  0  0  0  0
   15.0821  -15.8136   20.6359 C   0  0  1  0  0  0  0  0  0  0  0  0
   15.5865  -14.5065   20.1296 C   0  0  0  0  0  0  0  0  0  0  0  0
   16.8942  -14.0736   20.5561 C   0  0  0  0  0  0  0  0  0  0  0  0
   17.6478  -14.6730   21.3058 O   0  0  0  0  0  0  0  0  0  0  0  0
   14.8113  -15.9373   22.0590 C   0  0  0  0  0  0  0  0  0  0  0  0
   15.8176  -15.8241   22.8574 O   0  0  0  0  0  0  0  0  0  0  0  0
   17.3541  -12.8257   20.0549 O   0  0  0  0  0  0  0  0  0  0  0  0
   13.5671  -16.1615   22.6691 N   0  0  0  0  0  0  0  0  0  0  0  0
   13.4111  -16.2252   24.1236 C   0  0  0  0  0  0  0  0  0  0  0  0
   11.9715  -16.4182   24.4259 C   0  0  0  0  0  0  0  0  0  0  0  0
   11.5527  -16.4953   25.6149 O   0  0  0  0  0  0  0  0  0  0  0  0
   11.0219  -16.5229   23.4297 O   0  0  0  0  0  0  0  0  0  0  0  0
  2  1  1  1
  2  7  1  0
  3  2  1  0
  4  3  1  0
  5  4  1  0
  5  6  2  0
  7  8  2  0
  9  5  1  0
 10  7  1  0
 10 11  1  0
 11 15  1  0
 12 13  1  0
 11 12  1  1
 13 14  2  0
 13 17  1  0
 15 18  1  0
 15 16  2  0
 18 19  1  0
 19 20  1  0
 20 22  1  0
 21 20  2  0
M  END
$$$$
