EDG.pdb
     RDKit          3D

 22 21  0  0  1  0  0  0  0  0999 V2000
    9.2646  -17.4837   16.4792 N   0  0  0  0  0  0  0  0  0  0  0  0
   10.5290  -17.7884   17.0962 C   0  0  1  0  0  0  0  0  0  0  0  0
   11.6005  -17.4913   16.0886 C   0  0  0  0  0  0  0  0  0  0  0  0
   12.1551  -18.7813   15.5256 C   0  0  0  0  0  0  0  0  0  0  0  0
   13.3000  -18.5289   14.6144 C   0  0  0  0  0  0  0  0  0  0  0  0
   14.2157  -19.3435   14.4105 O   0  0  0  0  0  0  0  0  0  0  0  0
   10.7284  -17.0379   18.3639 C   0  0  0  0  0  0  0  0  0  0  0  0
   10.5550  -15.7773   18.3776 O   0  0  0  0  0  0  0  0  0  0  0  0
   13.3449  -17.3136   13.9569 O   0  0  0  0  0  0  0  0  0  0  0  0
   11.1038  -17.6387   19.5742 N   0  0  0  0  0  0  0  0  0  0  0  0
   11.3191  -16.8280   20.8323 C   0  0  1  0  0  0  0  0  0  0  0  0
   10.3731  -17.4478   21.8019 C   0  0  0  0  0  0  0  0  0  0  0  0
   10.3224  -16.9085   23.1383 C   0  0  0  0  0  0  0  0  0  0  0  0
    9.7194  -15.9092   23.4946 O   0  0  0  0  0  0  0  0  0  0  0  0
   12.7391  -16.8661   21.1426 C   0  0  0  0  0  0  0  0  0  0  0  0
   13.2483  -18.0206   21.4086 O   0  0  0  0  0  0  0  0  0  0  0  0
   11.0447  -17.6083   24.1424 O   0  0  0  0  0  0  0  0  0  0  0  0
   13.6284  -15.7807   21.1796 N   0  0  0  0  0  0  0  0  0  0  0  0
   14.1799  -15.2660   22.4347 C   0  0  0  0  0  0  0  0  0  0  0  0
   15.4107  -16.0331   22.7474 C   0  0  0  0  0  0  0  0  0  0  0  0
   15.3870  -17.2881   22.8867 O   0  0  0  0  0  0  0  0  0  0  0  0
   16.6371  -15.4186   22.9014 O   0  0  0  0  0  0  0  0  0  0  0  0
  2  1  1  6
  2  7  1  0
  3  2  1  0
  4  3  1  0
  5  4  1  0
  5  6  2  0
  7  8  2  0
  9  5  1  0
 10  7  1  0
 10 11  1  0
 11 15  1  0
 12 13  1  0
 11 12  1  1
 13 14  2  0
 13 17  1  0
 15 18  1  0
 15 16  2  0
 18 19  1  0
 19 20  1  0
 20 22  1  0
 21 20  2  0
M  END
$$$$
