EDG.pdb
     RDKit          3D

 22 21  0  0  1  0  0  0  0  0999 V2000
   11.9648  -17.7284   16.8621 N   0  0  0  0  0  0  0  0  0  0  0  0
   13.3388  -18.1388   16.9888 C   0  0  1  0  0  0  0  0  0  0  0  0
   14.0790  -17.5930   15.8031 C   0  0  0  0  0  0  0  0  0  0  0  0
   13.4453  -18.0897   14.5224 C   0  0  0  0  0  0  0  0  0  0  0  0
   14.1679  -17.5857   13.3272 C   0  0  0  0  0  0  0  0  0  0  0  0
   15.2826  -17.9993   12.9662 O   0  0  0  0  0  0  0  0  0  0  0  0
   13.9384  -17.6973   18.2755 C   0  0  0  0  0  0  0  0  0  0  0  0
   13.7707  -16.4970   18.6636 O   0  0  0  0  0  0  0  0  0  0  0  0
   13.5602  -16.5973   12.5757 O   0  0  0  0  0  0  0  0  0  0  0  0
   14.6945  -18.5330   19.1101 N   0  0  0  0  0  0  0  0  0  0  0  0
   15.1952  -18.0685   20.4592 C   0  0  1  0  0  0  0  0  0  0  0  0
   14.9264  -19.2377   21.3424 C   0  0  0  0  0  0  0  0  0  0  0  0
   15.0832  -19.0626   22.7650 C   0  0  0  0  0  0  0  0  0  0  0  0
   15.1431  -18.0004   23.3627 O   0  0  0  0  0  0  0  0  0  0  0  0
   16.5746  -17.6400   20.2928 C   0  0  0  0  0  0  0  0  0  0  0  0
   17.3525  -17.7647   21.3137 O   0  0  0  0  0  0  0  0  0  0  0  0
   15.1770  -20.2423   23.5521 O   0  0  0  0  0  0  0  0  0  0  0  0
   17.1632  -17.1071   19.1352 N   0  0  0  0  0  0  0  0  0  0  0  0
   18.5725  -16.7126   19.0869 C   0  0  0  0  0  0  0  0  0  0  0  0
   18.8772  -16.2551   17.7088 C   0  0  0  0  0  0  0  0  0  0  0  0
   18.6662  -16.9951   16.7074 O   0  0  0  0  0  0  0  0  0  0  0  0
   19.4037  -15.0052   17.4520 O   0  0  0  0  0  0  0  0  0  0  0  0
  2  1  1  1
  2  7  1  0
  3  2  1  0
  4  3  1  0
  5  4  1  0
  5  6  2  0
  7  8  2  0
  9  5  1  0
 10  7  1  0
 10 11  1  0
 11 15  1  0
 12 13  1  0
 11 12  1  1
 13 14  2  0
 13 17  1  0
 15 18  1  0
 15 16  2  0
 18 19  1  0
 19 20  1  0
 20 22  1  0
 21 20  2  0
M  END
$$$$
