EDG.pdb
     RDKit          3D

 22 21  0  0  1  0  0  0  0  0999 V2000
   11.9599  -14.7518   17.0134 N   0  0  0  0  0  0  0  0  0  0  0  0
   12.5031  -15.3692   18.1949 C   0  0  1  0  0  0  0  0  0  0  0  0
   13.6435  -14.5130   18.6619 C   0  0  0  0  0  0  0  0  0  0  0  0
   14.9494  -15.0440   18.1129 C   0  0  0  0  0  0  0  0  0  0  0  0
   16.0983  -14.2032   18.5345 C   0  0  0  0  0  0  0  0  0  0  0  0
   15.9969  -13.2166   19.2829 O   0  0  0  0  0  0  0  0  0  0  0  0
   11.4744  -15.5572   19.2516 C   0  0  0  0  0  0  0  0  0  0  0  0
   10.5260  -14.7152   19.3571 O   0  0  0  0  0  0  0  0  0  0  0  0
   17.3528  -14.5423   18.0627 O   0  0  0  0  0  0  0  0  0  0  0  0
   11.4783  -16.6242   20.1616 N   0  0  0  0  0  0  0  0  0  0  0  0
   10.3922  -16.7880   21.2010 C   0  0  1  0  0  0  0  0  0  0  0  0
    9.8451  -18.1427   20.9100 C   0  0  0  0  0  0  0  0  0  0  0  0
    8.7232  -18.2415   20.0095 C   0  0  0  0  0  0  0  0  0  0  0  0
    8.1371  -17.3132   19.4767 O   0  0  0  0  0  0  0  0  0  0  0  0
   10.9928  -16.5585   22.5049 C   0  0  0  0  0  0  0  0  0  0  0  0
   12.1945  -16.9928   22.6794 O   0  0  0  0  0  0  0  0  0  0  0  0
    8.2514  -19.5482   19.7103 O   0  0  0  0  0  0  0  0  0  0  0  0
   10.4111  -15.9067   23.6037 N   0  0  0  0  0  0  0  0  0  0  0  0
   11.1499  -15.6548   24.8426 C   0  0  0  0  0  0  0  0  0  0  0  0
   11.1969  -16.9190   25.6177 C   0  0  0  0  0  0  0  0  0  0  0  0
   10.6927  -17.9862   25.1683 O   0  0  0  0  0  0  0  0  0  0  0  0
   11.7901  -16.9933   26.8618 O   0  0  0  0  0  0  0  0  0  0  0  0
  2  1  1  6
  2  7  1  0
  3  2  1  0
  4  3  1  0
  5  4  1  0
  5  6  2  0
  7  8  2  0
  9  5  1  0
 10  7  1  0
 10 11  1  0
 11 15  1  0
 12 13  1  0
 11 12  1  1
 13 14  2  0
 13 17  1  0
 15 18  1  0
 15 16  2  0
 18 19  1  0
 19 20  1  0
 20 22  1  0
 21 20  2  0
M  END
$$$$
