EDG.pdb
     RDKit          3D

 22 21  0  0  1  0  0  0  0  0999 V2000
   12.0163  -15.4173   15.9295 N   0  0  0  0  0  0  0  0  0  0  0  0
   11.2504  -14.5031   16.7357 C   0  0  1  0  0  0  0  0  0  0  0  0
    9.8050  -14.8754   16.5820 C   0  0  0  0  0  0  0  0  0  0  0  0
    9.5823  -15.5499   15.2463 C   0  0  0  0  0  0  0  0  0  0  0  0
    8.1665  -15.9635   15.0755 C   0  0  0  0  0  0  0  0  0  0  0  0
    7.2040  -15.3675   15.5876 O   0  0  0  0  0  0  0  0  0  0  0  0
   11.6835  -14.5131   18.1578 C   0  0  0  0  0  0  0  0  0  0  0  0
   11.1993  -13.6561   18.9644 O   0  0  0  0  0  0  0  0  0  0  0  0
    7.9098  -17.0791   14.3003 O   0  0  0  0  0  0  0  0  0  0  0  0
   12.6113  -15.4240   18.6833 N   0  0  0  0  0  0  0  0  0  0  0  0
   13.1017  -15.3268   20.1104 C   0  0  1  0  0  0  0  0  0  0  0  0
   12.9015  -16.7074   20.6331 C   0  0  0  0  0  0  0  0  0  0  0  0
   13.4255  -17.0199   21.9397 C   0  0  0  0  0  0  0  0  0  0  0  0
   13.1852  -16.4263   22.9784 O   0  0  0  0  0  0  0  0  0  0  0  0
   14.4557  -14.7985   20.0753 C   0  0  0  0  0  0  0  0  0  0  0  0
   14.7741  -14.0740   19.0571 O   0  0  0  0  0  0  0  0  0  0  0  0
   14.3094  -18.1292   22.0300 O   0  0  0  0  0  0  0  0  0  0  0  0
   15.4633  -14.9833   21.0351 N   0  0  0  0  0  0  0  0  0  0  0  0
   16.3888  -13.9128   21.4113 C   0  0  0  0  0  0  0  0  0  0  0  0
   17.1603  -14.3640   22.5955 C   0  0  0  0  0  0  0  0  0  0  0  0
   16.7734  -14.1083   23.7702 O   0  0  0  0  0  0  0  0  0  0  0  0
   18.3331  -15.0819   22.4751 O   0  0  0  0  0  0  0  0  0  0  0  0
  2  1  1  6
  2  7  1  0
  3  2  1  0
  4  3  1  0
  5  4  1  0
  5  6  2  0
  7  8  2  0
  9  5  1  0
 10  7  1  0
 10 11  1  0
 11 15  1  0
 12 13  1  0
 11 12  1  6
 13 14  2  0
 13 17  1  0
 15 18  1  0
 15 16  2  0
 18 19  1  0
 19 20  1  0
 20 22  1  0
 21 20  2  0
M  END
$$$$
