EDG.pdb
     RDKit          3D

 22 21  0  0  1  0  0  0  0  0999 V2000
   11.3543  -16.0687   16.2298 N   0  0  0  0  0  0  0  0  0  0  0  0
   12.1691  -17.1404   16.7396 C   0  0  1  0  0  0  0  0  0  0  0  0
   12.9057  -17.7341   15.5749 C   0  0  0  0  0  0  0  0  0  0  0  0
   13.6559  -16.6522   14.8297 C   0  0  0  0  0  0  0  0  0  0  0  0
   14.4895  -17.2205   13.7402 C   0  0  0  0  0  0  0  0  0  0  0  0
   14.8221  -18.4158   13.6741 O   0  0  0  0  0  0  0  0  0  0  0  0
   13.0918  -16.6811   17.8109 C   0  0  0  0  0  0  0  0  0  0  0  0
   13.8678  -17.5209   18.3695 O   0  0  0  0  0  0  0  0  0  0  0  0
   14.9188  -16.3642   12.7434 O   0  0  0  0  0  0  0  0  0  0  0  0
   13.1668  -15.3543   18.2586 N   0  0  0  0  0  0  0  0  0  0  0  0
   14.0645  -14.9510   19.4067 C   0  0  1  0  0  0  0  0  0  0  0  0
   14.6447  -13.6584   18.9465 C   0  0  0  0  0  0  0  0  0  0  0  0
   15.9793  -13.6709   18.4006 C   0  0  0  0  0  0  0  0  0  0  0  0
   16.7439  -14.6216   18.3761 O   0  0  0  0  0  0  0  0  0  0  0  0
   13.2570  -14.9462   20.6158 C   0  0  0  0  0  0  0  0  0  0  0  0
   12.1079  -14.3648   20.5488 O   0  0  0  0  0  0  0  0  0  0  0  0
   16.4538  -12.4572   17.8334 O   0  0  0  0  0  0  0  0  0  0  0  0
   13.5857  -15.5130   21.8573 N   0  0  0  0  0  0  0  0  0  0  0  0
   12.6960  -15.4224   23.0168 C   0  0  0  0  0  0  0  0  0  0  0  0
   13.3339  -16.1430   24.1459 C   0  0  0  0  0  0  0  0  0  0  0  0
   12.8097  -16.1628   25.2948 O   0  0  0  0  0  0  0  0  0  0  0  0
   14.5254  -16.8245   23.9999 O   0  0  0  0  0  0  0  0  0  0  0  0
  2  1  1  6
  2  7  1  0
  3  2  1  0
  4  3  1  0
  5  4  1  0
  5  6  2  0
  7  8  2  0
  9  5  1  0
 10  7  1  0
 10 11  1  0
 11 15  1  0
 12 13  1  0
 11 12  1  6
 13 14  2  0
 13 17  1  0
 15 18  1  0
 15 16  2  0
 18 19  1  0
 19 20  1  0
 20 22  1  0
 21 20  2  0
M  END
$$$$
