EDG.pdb
     RDKit          3D

 22 21  0  0  1  0  0  0  0  0999 V2000
    9.9706  -16.6555   14.8658 N   0  0  0  0  0  0  0  0  0  0  0  0
    9.0513  -15.6727   15.3771 C   0  0  1  0  0  0  0  0  0  0  0  0
    7.8748  -15.6351   14.4464 C   0  0  0  0  0  0  0  0  0  0  0  0
    7.9595  -16.7763   13.4569 C   0  0  0  0  0  0  0  0  0  0  0  0
    6.7581  -16.8312   12.5862 C   0  0  0  0  0  0  0  0  0  0  0  0
    6.4280  -15.9247   11.8032 O   0  0  0  0  0  0  0  0  0  0  0  0
    8.6478  -15.9596   16.7789 C   0  0  0  0  0  0  0  0  0  0  0  0
    7.8594  -15.1603   17.3781 O   0  0  0  0  0  0  0  0  0  0  0  0
    5.9627  -17.9598   12.6555 O   0  0  0  0  0  0  0  0  0  0  0  0
    9.0876  -17.0771   17.5030 N   0  0  0  0  0  0  0  0  0  0  0  0
    8.6908  -17.2975   18.9455 C   0  0  1  0  0  0  0  0  0  0  0  0
    8.1756  -18.6953   18.9463 C   0  0  0  0  0  0  0  0  0  0  0  0
    6.7519  -18.8927   19.0625 C   0  0  0  0  0  0  0  0  0  0  0  0
    5.9085  -18.0225   19.2066 O   0  0  0  0  0  0  0  0  0  0  0  0
    9.8485  -16.9949   19.7713 C   0  0  0  0  0  0  0  0  0  0  0  0
    9.6525  -16.9076   21.0429 O   0  0  0  0  0  0  0  0  0  0  0  0
    6.2810  -20.2323   19.0029 O   0  0  0  0  0  0  0  0  0  0  0  0
   11.1685  -16.7914   19.3392 N   0  0  0  0  0  0  0  0  0  0  0  0
   12.2777  -16.6090   20.2777 C   0  0  0  0  0  0  0  0  0  0  0  0
   13.5354  -16.5234   19.4954 C   0  0  0  0  0  0  0  0  0  0  0  0
   13.5274  -16.5303   18.2325 O   0  0  0  0  0  0  0  0  0  0  0  0
   14.7711  -16.4323   20.1037 O   0  0  0  0  0  0  0  0  0  0  0  0
  2  1  1  6
  2  7  1  0
  3  2  1  0
  4  3  1  0
  5  4  1  0
  5  6  2  0
  7  8  2  0
  9  5  1  0
 10  7  1  0
 10 11  1  0
 11 15  1  0
 12 13  1  0
 11 12  1  6
 13 14  2  0
 13 17  1  0
 15 18  1  0
 15 16  2  0
 18 19  1  0
 19 20  1  0
 20 22  1  0
 21 20  2  0
M  END
$$$$
