EDG.pdb
     RDKit          3D

 22 21  0  0  1  0  0  0  0  0999 V2000
    9.8777  -14.7756   20.4169 N   0  0  0  0  0  0  0  0  0  0  0  0
    8.8132  -13.8824   20.7930 C   0  0  1  0  0  0  0  0  0  0  0  0
    8.0024  -13.6101   19.5601 C   0  0  0  0  0  0  0  0  0  0  0  0
    8.9056  -13.5503   18.3480 C   0  0  0  0  0  0  0  0  0  0  0  0
    8.1222  -13.4483   17.0908 C   0  0  0  0  0  0  0  0  0  0  0  0
    6.8805  -13.4388   17.0471 O   0  0  0  0  0  0  0  0  0  0  0  0
    7.9850  -14.4327   21.8981 C   0  0  0  0  0  0  0  0  0  0  0  0
    7.0560  -13.7203   22.3972 O   0  0  0  0  0  0  0  0  0  0  0  0
    8.8209  -13.3595   15.9012 O   0  0  0  0  0  0  0  0  0  0  0  0
    8.1621  -15.7135   22.4411 N   0  0  0  0  0  0  0  0  0  0  0  0
    7.2526  -16.2526   23.5222 C   0  0  1  0  0  0  0  0  0  0  0  0
    6.9172  -17.6194   23.0337 C   0  0  0  0  0  0  0  0  0  0  0  0
    6.2282  -18.5106   23.9339 C   0  0  0  0  0  0  0  0  0  0  0  0
    5.3481  -18.2068   24.7228 O   0  0  0  0  0  0  0  0  0  0  0  0
    7.9559  -16.1325   24.7891 C   0  0  0  0  0  0  0  0  0  0  0  0
    7.2643  -16.3194   25.8614 O   0  0  0  0  0  0  0  0  0  0  0  0
    6.6091  -19.8794   23.9010 O   0  0  0  0  0  0  0  0  0  0  0  0
    9.3155  -15.8401   24.9797 N   0  0  0  0  0  0  0  0  0  0  0  0
    9.8996  -15.6782   26.3127 C   0  0  0  0  0  0  0  0  0  0  0  0
   10.3424  -17.0120   26.7881 C   0  0  0  0  0  0  0  0  0  0  0  0
   10.8958  -17.1597   27.9137 O   0  0  0  0  0  0  0  0  0  0  0  0
   10.1735  -18.1528   26.0296 O   0  0  0  0  0  0  0  0  0  0  0  0
  2  1  1  6
  2  7  1  0
  3  2  1  0
  4  3  1  0
  5  4  1  0
  5  6  2  0
  7  8  2  0
  9  5  1  0
 10  7  1  0
 10 11  1  0
 11 15  1  0
 12 13  1  0
 11 12  1  6
 13 14  2  0
 13 17  1  0
 15 18  1  0
 15 16  2  0
 18 19  1  0
 19 20  1  0
 20 22  1  0
 21 20  2  0
M  END
$$$$
