EDG.pdb
     RDKit          3D

 22 21  0  0  1  0  0  0  0  0999 V2000
   10.9756  -13.3780   18.7910 N   0  0  0  0  0  0  0  0  0  0  0  0
    9.7047  -13.0817   19.3986 C   0  0  1  0  0  0  0  0  0  0  0  0
    8.6740  -13.0969   18.3081 C   0  0  0  0  0  0  0  0  0  0  0  0
    8.6925  -14.4313   17.5956 C   0  0  0  0  0  0  0  0  0  0  0  0
    7.7037  -14.4702   16.4886 C   0  0  0  0  0  0  0  0  0  0  0  0
    7.0430  -13.4866   16.1150 O   0  0  0  0  0  0  0  0  0  0  0  0
    9.3741  -14.0294   20.4952 C   0  0  0  0  0  0  0  0  0  0  0  0
    8.3420  -13.8221   21.2103 O   0  0  0  0  0  0  0  0  0  0  0  0
    7.5102  -15.6752   15.8391 O   0  0  0  0  0  0  0  0  0  0  0  0
   10.1405  -15.1628   20.8029 N   0  0  0  0  0  0  0  0  0  0  0  0
    9.7528  -16.1072   21.9185 C   0  0  1  0  0  0  0  0  0  0  0  0
    9.5368  -17.3996   21.2099 C   0  0  0  0  0  0  0  0  0  0  0  0
    9.2539  -18.5691   22.0046 C   0  0  0  0  0  0  0  0  0  0  0  0
    8.6405  -18.5983   23.0591 O   0  0  0  0  0  0  0  0  0  0  0  0
   10.7970  -16.0471   22.9284 C   0  0  0  0  0  0  0  0  0  0  0  0
   10.4239  -16.1266   24.1603 O   0  0  0  0  0  0  0  0  0  0  0  0
    9.7355  -19.8127   21.5133 O   0  0  0  0  0  0  0  0  0  0  0  0
   12.1782  -15.9179   22.7135 N   0  0  0  0  0  0  0  0  0  0  0  0
   13.1370  -15.8504   23.8181 C   0  0  0  0  0  0  0  0  0  0  0  0
   14.4955  -15.6965   23.2419 C   0  0  0  0  0  0  0  0  0  0  0  0
   14.6772  -15.6212   21.9944 O   0  0  0  0  0  0  0  0  0  0  0  0
   15.6235  -15.6282   24.0345 O   0  0  0  0  0  0  0  0  0  0  0  0
  2  1  1  6
  2  7  1  0
  3  2  1  0
  4  3  1  0
  5  4  1  0
  5  6  2  0
  7  8  2  0
  9  5  1  0
 10  7  1  0
 10 11  1  0
 11 15  1  0
 12 13  1  0
 11 12  1  6
 13 14  2  0
 13 17  1  0
 15 18  1  0
 15 16  2  0
 18 19  1  0
 19 20  1  0
 20 22  1  0
 21 20  2  0
M  END
$$$$
