LME.pdb
     RDKit          3D

 26 25  0  0  1  0  0  0  0  0999 V2000
    8.1579  -14.3907   17.4178 C   0  0  0  0  0  0  0  0  0  0  0  0
    7.6803  -13.6391   18.6146 C   0  0  2  0  0  0  0  0  0  0  0  0
    7.5735  -12.1582   18.2240 C   0  0  0  0  0  0  0  0  0  0  0  0
    8.5434  -13.6983   19.8202 C   0  0  0  0  0  0  0  0  0  0  0  0
    8.6016  -14.9980   20.5477 C   0  0  2  0  0  0  0  0  0  0  0  0
    7.3655  -15.7164   20.3509 N   0  0  0  0  0  0  0  0  0  0  0  0
    8.9133  -14.7708   21.9884 C   0  0  0  0  0  0  0  0  0  0  0  0
   10.0875  -14.4281   22.3514 O   0  0  0  0  0  0  0  0  0  0  0  0
    6.3253  -11.0757   26.6761 C   0  0  0  0  0  0  0  0  0  0  0  0
    6.2134  -12.7779   27.3137 S   0  0  0  0  0  0  0  0  0  0  0  0
    7.5287  -13.8040   26.6052 C   0  0  0  0  0  0  0  0  0  0  0  0
    7.2502  -14.0468   25.1513 C   0  0  0  0  0  0  0  0  0  0  0  0
    8.3335  -14.8170   24.4447 C   0  0  2  0  0  0  0  0  0  0  0  0
    7.9815  -14.9081   23.0490 N   0  0  0  0  0  0  0  0  0  0  0  0
    8.5168  -16.1359   25.0892 C   0  0  0  0  0  0  0  0  0  0  0  0
    7.9435  -17.1153   24.5615 O   0  0  0  0  0  0  0  0  0  0  0  0
    9.2928  -16.3521   26.2561 N   0  0  0  0  0  0  0  0  0  0  0  0
   10.3304  -17.3951   26.3157 C   0  0  1  0  0  0  0  0  0  0  0  0
   11.0624  -17.4264   25.0184 C   0  0  0  0  0  0  0  0  0  0  0  0
   12.2622  -18.2794   24.9063 C   0  0  0  0  0  0  0  0  0  0  0  0
   12.9452  -18.2539   23.5913 C   0  0  0  0  0  0  0  0  0  0  0  0
   12.5030  -18.9689   22.6225 O   0  0  0  0  0  0  0  0  0  0  0  0
   11.0529  -17.4443   27.5572 C   0  0  0  0  0  0  0  0  0  0  0  0
   10.9162  -16.5425   28.6152 O   0  0  0  0  0  0  0  0  0  0  0  0
   14.0657  -17.4919   23.3137 O   0  0  0  0  0  0  0  0  0  0  0  0
   11.9070  -18.3789   27.7324 O   0  0  0  0  0  0  0  0  0  0  0  0
  2  4  1  0
  2  1  1  6
  3  2  1  0
  5  6  1  1
  5  4  1  0
  7  5  1  0
  8  7  2  0
 10  9  1  0
 10 11  1  0
 11 12  1  0
 13 12  1  1
 13 14  1  0
 14  7  1  0
 15 16  2  0
 15 13  1  0
 17 15  1  0
 18 19  1  6
 18 17  1  0
 19 20  1  0
 20 21  1  0
 21 22  2  0
 23 18  1  0
 24 23  1  0
 25 21  1  0
 26 23  2  0
M  END
$$$$
