LME.pdb
     RDKit          3D

 26 25  0  0  1  0  0  0  0  0999 V2000
    6.4237  -17.8719   19.0591 C   0  0  0  0  0  0  0  0  0  0  0  0
    7.8415  -18.2014   19.3853 C   0  0  2  0  0  0  0  0  0  0  0  0
    7.9178  -19.7089   19.6661 C   0  0  0  0  0  0  0  0  0  0  0  0
    8.4233  -17.5200   20.5683 C   0  0  0  0  0  0  0  0  0  0  0  0
    8.3059  -16.0349   20.6194 C   0  0  2  0  0  0  0  0  0  0  0  0
    9.0436  -15.4549   19.5229 N   0  0  0  0  0  0  0  0  0  0  0  0
    8.7530  -15.5263   21.9481 C   0  0  0  0  0  0  0  0  0  0  0  0
    9.9946  -15.4702   22.2365 O   0  0  0  0  0  0  0  0  0  0  0  0
    6.6554  -10.7637   26.5265 C   0  0  0  0  0  0  0  0  0  0  0  0
    6.2097  -12.4664   26.9942 S   0  0  0  0  0  0  0  0  0  0  0  0
    7.4711  -13.6304   26.4122 C   0  0  0  0  0  0  0  0  0  0  0  0
    7.1650  -14.0416   25.0024 C   0  0  0  0  0  0  0  0  0  0  0  0
    8.3343  -14.6558   24.2803 C   0  0  2  0  0  0  0  0  0  0  0  0
    7.8850  -15.0771   22.9762 N   0  0  0  0  0  0  0  0  0  0  0  0
    8.9030  -15.7576   25.0873 C   0  0  0  0  0  0  0  0  0  0  0  0
    8.2047  -16.7872   25.2226 O   0  0  0  0  0  0  0  0  0  0  0  0
   10.1762  -15.7147   25.7100 N   0  0  0  0  0  0  0  0  0  0  0  0
   10.7295  -16.8766   26.4255 C   0  0  1  0  0  0  0  0  0  0  0  0
   12.0520  -17.2258   25.8347 C   0  0  0  0  0  0  0  0  0  0  0  0
   12.1233  -17.5181   24.3892 C   0  0  0  0  0  0  0  0  0  0  0  0
   13.4892  -17.6471   23.8288 C   0  0  0  0  0  0  0  0  0  0  0  0
   14.5121  -17.5383   24.5951 O   0  0  0  0  0  0  0  0  0  0  0  0
   10.5622  -16.8307   27.8523 C   0  0  0  0  0  0  0  0  0  0  0  0
   10.8687  -17.8634   28.7417 O   0  0  0  0  0  0  0  0  0  0  0  0
   13.7607  -17.8840   22.4934 O   0  0  0  0  0  0  0  0  0  0  0  0
   10.0861  -15.7682   28.3794 O   0  0  0  0  0  0  0  0  0  0  0  0
  2  4  1  0
  2  1  1  1
  3  2  1  0
  5  6  1  6
  5  4  1  0
  7  5  1  0
  8  7  2  0
 10  9  1  0
 10 11  1  0
 11 12  1  0
 13 12  1  1
 13 14  1  0
 14  7  1  0
 15 16  2  0
 15 13  1  0
 17 15  1  0
 18 19  1  1
 18 17  1  0
 19 20  1  0
 20 21  1  0
 21 22  2  0
 23 18  1  0
 24 23  1  0
 25 21  1  0
 26 23  2  0
M  END
$$$$
