LME.pdb
     RDKit          3D

 26 25  0  0  1  0  0  0  0  0999 V2000
    8.1352  -14.0450   17.7186 C   0  0  0  0  0  0  0  0  0  0  0  0
    7.5183  -13.3762   18.9007 C   0  0  2  0  0  0  0  0  0  0  0  0
    7.4668  -11.8694   18.6105 C   0  0  0  0  0  0  0  0  0  0  0  0
    8.2273  -13.5346   20.1946 C   0  0  0  0  0  0  0  0  0  0  0  0
    8.3790  -14.9221   20.7176 C   0  0  2  0  0  0  0  0  0  0  0  0
    7.1124  -15.6091   20.6369 N   0  0  0  0  0  0  0  0  0  0  0  0
    8.9331  -14.8953   22.1020 C   0  0  0  0  0  0  0  0  0  0  0  0
   10.1131  -14.4616   22.3197 O   0  0  0  0  0  0  0  0  0  0  0  0
    6.0805  -11.0176   26.8808 C   0  0  0  0  0  0  0  0  0  0  0  0
    6.1953  -12.8276   26.7167 S   0  0  0  0  0  0  0  0  0  0  0  0
    7.4910  -13.2720   25.5299 C   0  0  0  0  0  0  0  0  0  0  0  0
    7.6620  -14.7621   25.5051 C   0  0  0  0  0  0  0  0  0  0  0  0
    8.7674  -15.2326   24.5981 C   0  0  2  0  0  0  0  0  0  0  0  0
    8.2386  -15.3300   23.2599 N   0  0  0  0  0  0  0  0  0  0  0  0
    9.3243  -16.5075   25.1014 C   0  0  0  0  0  0  0  0  0  0  0  0
    8.5890  -17.5181   25.0369 O   0  0  0  0  0  0  0  0  0  0  0  0
   10.6253  -16.6488   25.6473 N   0  0  0  0  0  0  0  0  0  0  0  0
   11.1782  -17.9660   26.0041 C   0  0  1  0  0  0  0  0  0  0  0  0
   12.5670  -18.0692   25.4745 C   0  0  0  0  0  0  0  0  0  0  0  0
   13.3737  -19.2513   25.8372 C   0  0  0  0  0  0  0  0  0  0  0  0
   14.7690  -19.2520   25.3376 C   0  0  0  0  0  0  0  0  0  0  0  0
   15.3578  -18.1439   25.0717 O   0  0  0  0  0  0  0  0  0  0  0  0
   10.8795  -18.3927   27.3437 C   0  0  0  0  0  0  0  0  0  0  0  0
   10.4355  -17.5689   28.3808 O   0  0  0  0  0  0  0  0  0  0  0  0
   15.5168  -20.3962   25.1259 O   0  0  0  0  0  0  0  0  0  0  0  0
   11.0322  -19.6261   27.6422 O   0  0  0  0  0  0  0  0  0  0  0  0
  2  4  1  0
  2  1  1  6
  3  2  1  0
  5  6  1  1
  5  4  1  0
  7  5  1  0
  8  7  2  0
 10  9  1  0
 10 11  1  0
 11 12  1  0
 13 12  1  1
 13 14  1  0
 14  7  1  0
 15 16  2  0
 15 13  1  0
 17 15  1  0
 18 19  1  1
 18 17  1  0
 19 20  1  0
 20 21  1  0
 21 22  2  0
 23 18  1  0
 24 23  1  0
 25 21  1  0
 26 23  2  0
M  END
$$$$
