LME.pdb
     RDKit          3D

 26 25  0  0  1  0  0  0  0  0999 V2000
    6.0758  -17.7306   18.2664 C   0  0  0  0  0  0  0  0  0  0  0  0
    7.3410  -18.2290   18.8798 C   0  0  2  0  0  0  0  0  0  0  0  0
    7.1457  -19.7155   19.2104 C   0  0  0  0  0  0  0  0  0  0  0  0
    7.7713  -17.5682   20.1369 C   0  0  0  0  0  0  0  0  0  0  0  0
    7.9030  -16.0837   20.1103 C   0  0  2  0  0  0  0  0  0  0  0  0
    8.7647  -15.6956   19.0196 N   0  0  0  0  0  0  0  0  0  0  0  0
    8.3831  -15.5833   21.4306 C   0  0  0  0  0  0  0  0  0  0  0  0
    9.6085  -15.7067   21.7640 O   0  0  0  0  0  0  0  0  0  0  0  0
    6.5580  -11.2916   27.8756 C   0  0  0  0  0  0  0  0  0  0  0  0
    6.0490  -12.0727   26.3113 S   0  0  0  0  0  0  0  0  0  0  0  0
    7.3709  -13.1405   25.6808 C   0  0  0  0  0  0  0  0  0  0  0  0
    6.9771  -13.6930   24.3428 C   0  0  0  0  0  0  0  0  0  0  0  0
    8.0245  -14.5743   23.7164 C   0  0  2  0  0  0  0  0  0  0  0  0
    7.5651  -14.9522   22.4026 N   0  0  0  0  0  0  0  0  0  0  0  0
    8.3006  -15.7320   24.5952 C   0  0  0  0  0  0  0  0  0  0  0  0
    7.7169  -16.8060   24.3270 O   0  0  0  0  0  0  0  0  0  0  0  0
    9.1755  -15.6955   25.7105 N   0  0  0  0  0  0  0  0  0  0  0  0
   10.2242  -16.7101   25.9074 C   0  0  1  0  0  0  0  0  0  0  0  0
   10.9292  -16.9368   24.6145 C   0  0  0  0  0  0  0  0  0  0  0  0
   12.0674  -17.8768   24.5876 C   0  0  0  0  0  0  0  0  0  0  0  0
   12.7980  -17.9608   23.3009 C   0  0  0  0  0  0  0  0  0  0  0  0
   13.8804  -17.2940   23.1308 O   0  0  0  0  0  0  0  0  0  0  0  0
   10.9729  -16.5622   27.1253 C   0  0  0  0  0  0  0  0  0  0  0  0
   11.5770  -17.5988   27.8407 O   0  0  0  0  0  0  0  0  0  0  0  0
   12.3903  -18.7300   22.2260 O   0  0  0  0  0  0  0  0  0  0  0  0
   11.1068  -15.3931   27.6241 O   0  0  0  0  0  0  0  0  0  0  0  0
  2  4  1  0
  2  1  1  1
  3  2  1  0
  5  6  1  6
  5  4  1  0
  7  5  1  0
  8  7  2  0
 10  9  1  0
 10 11  1  0
 11 12  1  0
 13 12  1  1
 13 14  1  0
 14  7  1  0
 15 16  2  0
 15 13  1  0
 17 15  1  0
 18 19  1  6
 18 17  1  0
 19 20  1  0
 20 21  1  0
 21 22  2  0
 23 18  1  0
 24 23  1  0
 25 21  1  0
 26 23  2  0
M  END
$$$$
