LME.pdb
     RDKit          3D

 26 25  0  0  1  0  0  0  0  0999 V2000
    6.9708  -19.3200   19.1331 C   0  0  0  0  0  0  0  0  0  0  0  0
    7.5328  -17.9414   19.0390 C   0  0  2  0  0  0  0  0  0  0  0  0
    8.6888  -17.9763   18.0293 C   0  0  0  0  0  0  0  0  0  0  0  0
    8.0812  -17.3641   20.2913 C   0  0  0  0  0  0  0  0  0  0  0  0
    8.3931  -15.9066   20.2847 C   0  0  2  0  0  0  0  0  0  0  0  0
    9.4409  -15.6420   19.3282 N   0  0  0  0  0  0  0  0  0  0  0  0
    8.7382  -15.4453   21.6603 C   0  0  0  0  0  0  0  0  0  0  0  0
    9.9094  -15.6302   22.1313 O   0  0  0  0  0  0  0  0  0  0  0  0
    8.1403  -11.5466   27.5242 C   0  0  0  0  0  0  0  0  0  0  0  0
    6.7273  -12.1105   26.5233 S   0  0  0  0  0  0  0  0  0  0  0  0
    6.9387  -13.8494   26.0578 C   0  0  0  0  0  0  0  0  0  0  0  0
    6.8654  -13.9839   24.5655 C   0  0  0  0  0  0  0  0  0  0  0  0
    8.0941  -14.5971   23.9489 C   0  0  2  0  0  0  0  0  0  0  0  0
    7.8420  -14.7881   22.5418 N   0  0  0  0  0  0  0  0  0  0  0  0
    8.4419  -15.8491   24.6562 C   0  0  0  0  0  0  0  0  0  0  0  0
    7.6120  -16.7845   24.6053 O   0  0  0  0  0  0  0  0  0  0  0  0
    9.6445  -16.0478   25.3806 N   0  0  0  0  0  0  0  0  0  0  0  0
   10.0075  -17.3622   25.9361 C   0  0  1  0  0  0  0  0  0  0  0  0
   11.1330  -17.9306   25.1423 C   0  0  0  0  0  0  0  0  0  0  0  0
   12.4245  -17.2151   25.1378 C   0  0  0  0  0  0  0  0  0  0  0  0
   13.4949  -17.8313   24.3187 C   0  0  0  0  0  0  0  0  0  0  0  0
   13.2817  -18.9399   23.7098 O   0  0  0  0  0  0  0  0  0  0  0  0
   10.0347  -17.4135   27.3722 C   0  0  0  0  0  0  0  0  0  0  0  0
    9.7844  -16.3400   28.2302 O   0  0  0  0  0  0  0  0  0  0  0  0
   14.7552  -17.2862   24.1518 O   0  0  0  0  0  0  0  0  0  0  0  0
   10.3176  -18.5230   27.9403 O   0  0  0  0  0  0  0  0  0  0  0  0
  2  4  1  0
  2  1  1  1
  3  2  1  0
  5  6  1  6
  5  4  1  0
  7  5  1  0
  8  7  2  0
 10  9  1  0
 10 11  1  0
 11 12  1  0
 13 12  1  1
 13 14  1  0
 14  7  1  0
 15 16  2  0
 15 13  1  0
 17 15  1  0
 18 19  1  6
 18 17  1  0
 19 20  1  0
 20 21  1  0
 21 22  2  0
 23 18  1  0
 24 23  1  0
 25 21  1  0
 26 23  2  0
M  END
$$$$
