LME.pdb
     RDKit          3D

 26 25  0  0  1  0  0  0  0  0999 V2000
    6.6516  -13.6918   19.8859 C   0  0  0  0  0  0  0  0  0  0  0  0
    8.0952  -13.3159   19.8791 C   0  0  2  0  0  0  0  0  0  0  0  0
    8.2870  -12.2190   18.8221 C   0  0  0  0  0  0  0  0  0  0  0  0
    9.0580  -14.3957   19.5489 C   0  0  0  0  0  0  0  0  0  0  0  0
    9.0142  -15.6230   20.3937 C   0  0  2  0  0  0  0  0  0  0  0  0
    7.7474  -16.2896   20.2104 N   0  0  0  0  0  0  0  0  0  0  0  0
    9.2838  -15.2791   21.8196 C   0  0  0  0  0  0  0  0  0  0  0  0
   10.4514  -14.9233   22.1911 O   0  0  0  0  0  0  0  0  0  0  0  0
    6.6843  -12.0461   28.4169 C   0  0  0  0  0  0  0  0  0  0  0  0
    6.3273  -12.7721   26.7853 S   0  0  0  0  0  0  0  0  0  0  0  0
    7.7175  -13.7956   26.2332 C   0  0  0  0  0  0  0  0  0  0  0  0
    7.4835  -14.2435   24.8208 C   0  0  0  0  0  0  0  0  0  0  0  0
    8.6154  -15.0503   24.2430 C   0  0  2  0  0  0  0  0  0  0  0  0
    8.3167  -15.3133   22.8568 N   0  0  0  0  0  0  0  0  0  0  0  0
    8.8174  -16.2793   25.0414 C   0  0  0  0  0  0  0  0  0  0  0  0
    8.2847  -17.3301   24.6189 O   0  0  0  0  0  0  0  0  0  0  0  0
    9.5683  -16.3350   26.2429 N   0  0  0  0  0  0  0  0  0  0  0  0
   10.4394  -17.4787   26.5611 C   0  0  1  0  0  0  0  0  0  0  0  0
   11.3935  -17.6899   25.4363 C   0  0  0  0  0  0  0  0  0  0  0  0
   11.2376  -18.8941   24.5964 C   0  0  0  0  0  0  0  0  0  0  0  0
   12.2900  -19.1021   23.5739 C   0  0  0  0  0  0  0  0  0  0  0  0
   13.2756  -19.8867   23.8151 O   0  0  0  0  0  0  0  0  0  0  0  0
   10.9032  -17.5121   27.9211 C   0  0  0  0  0  0  0  0  0  0  0  0
   10.5636  -16.5966   28.9199 O   0  0  0  0  0  0  0  0  0  0  0  0
   12.2957  -18.4938   22.3316 O   0  0  0  0  0  0  0  0  0  0  0  0
   11.7032  -18.4448   28.2728 O   0  0  0  0  0  0  0  0  0  0  0  0
  2  4  1  0
  2  1  1  6
  3  2  1  0
  5  6  1  1
  5  4  1  0
  7  5  1  0
  8  7  2  0
 10  9  1  0
 10 11  1  0
 11 12  1  0
 13 12  1  1
 13 14  1  0
 14  7  1  0
 15 16  2  0
 15 13  1  0
 17 15  1  0
 18 19  1  6
 18 17  1  0
 19 20  1  0
 20 21  1  0
 21 22  2  0
 23 18  1  0
 24 23  1  0
 25 21  1  0
 26 23  2  0
M  END
$$$$
