LME.pdb
     RDKit          3D

 26 25  0  0  1  0  0  0  0  0999 V2000
    8.1763  -14.2880   17.5587 C   0  0  0  0  0  0  0  0  0  0  0  0
    7.7088  -13.5124   18.7440 C   0  0  2  0  0  0  0  0  0  0  0  0
    7.6478  -12.0326   18.3393 C   0  0  0  0  0  0  0  0  0  0  0  0
    8.5584  -13.5849   19.9586 C   0  0  0  0  0  0  0  0  0  0  0  0
    8.6236  -14.8978   20.6613 C   0  0  2  0  0  0  0  0  0  0  0  0
    7.4071  -15.6355   20.4186 N   0  0  0  0  0  0  0  0  0  0  0  0
    8.8943  -14.6941   22.1137 C   0  0  0  0  0  0  0  0  0  0  0  0
    9.9083  -14.0206   22.4959 O   0  0  0  0  0  0  0  0  0  0  0  0
    7.7748  -11.6102   27.6200 C   0  0  0  0  0  0  0  0  0  0  0  0
    6.4812  -12.7759   27.0868 S   0  0  0  0  0  0  0  0  0  0  0  0
    7.2054  -14.3964   26.7201 C   0  0  0  0  0  0  0  0  0  0  0  0
    7.0618  -14.6929   25.2566 C   0  0  0  0  0  0  0  0  0  0  0  0
    8.3659  -14.9868   24.5646 C   0  0  2  0  0  0  0  0  0  0  0  0
    8.0919  -15.2055   23.1656 N   0  0  0  0  0  0  0  0  0  0  0  0
    9.0351  -16.1342   25.2161 C   0  0  0  0  0  0  0  0  0  0  0  0
    8.3541  -17.1693   25.3918 O   0  0  0  0  0  0  0  0  0  0  0  0
   10.3852  -16.1287   25.6492 N   0  0  0  0  0  0  0  0  0  0  0  0
   11.0280  -17.3332   26.2007 C   0  0  1  0  0  0  0  0  0  0  0  0
   12.4595  -17.3518   25.7877 C   0  0  0  0  0  0  0  0  0  0  0  0
   12.7769  -17.4203   24.3475 C   0  0  0  0  0  0  0  0  0  0  0  0
   13.6168  -16.3171   23.8239 C   0  0  0  0  0  0  0  0  0  0  0  0
   14.6206  -15.8951   24.5018 O   0  0  0  0  0  0  0  0  0  0  0  0
   10.6608  -17.6346   27.5571 C   0  0  0  0  0  0  0  0  0  0  0  0
   10.9244  -18.8328   28.2251 O   0  0  0  0  0  0  0  0  0  0  0  0
   13.3964  -15.6804   22.6159 O   0  0  0  0  0  0  0  0  0  0  0  0
   10.0304  -16.7509   28.2319 O   0  0  0  0  0  0  0  0  0  0  0  0
  2  4  1  0
  2  1  1  6
  3  2  1  0
  5  6  1  1
  5  4  1  0
  7  5  1  0
  8  7  2  0
 10  9  1  0
 10 11  1  0
 11 12  1  0
 13 12  1  1
 13 14  1  0
 14  7  1  0
 15 16  2  0
 15 13  1  0
 17 15  1  0
 18 19  1  1
 18 17  1  0
 19 20  1  0
 20 21  1  0
 21 22  2  0
 23 18  1  0
 24 23  1  0
 25 21  1  0
 26 23  2  0
M  END
$$$$
