LME.pdb
     RDKit          3D

 26 25  0  0  1  0  0  0  0  0999 V2000
    8.6091  -14.0974   17.5586 C   0  0  0  0  0  0  0  0  0  0  0  0
    7.6908  -13.5700   18.6093 C   0  0  2  0  0  0  0  0  0  0  0  0
    7.3305  -12.1259   18.2324 C   0  0  0  0  0  0  0  0  0  0  0  0
    8.2253  -13.5261   19.9930 C   0  0  0  0  0  0  0  0  0  0  0  0
    8.5548  -14.8314   20.6329 C   0  0  2  0  0  0  0  0  0  0  0  0
    7.4909  -15.7737   20.3816 N   0  0  0  0  0  0  0  0  0  0  0  0
    8.8247  -14.6409   22.0872 C   0  0  0  0  0  0  0  0  0  0  0  0
    9.8403  -13.9737   22.4761 O   0  0  0  0  0  0  0  0  0  0  0  0
    6.6773  -10.9274   26.6025 C   0  0  0  0  0  0  0  0  0  0  0  0
    6.2101  -12.6034   27.1404 S   0  0  0  0  0  0  0  0  0  0  0  0
    7.4445  -13.8097   26.5873 C   0  0  0  0  0  0  0  0  0  0  0  0
    7.2508  -14.0956   25.1275 C   0  0  0  0  0  0  0  0  0  0  0  0
    8.3126  -14.9830   24.5351 C   0  0  2  0  0  0  0  0  0  0  0  0
    8.0197  -15.1589   23.1340 N   0  0  0  0  0  0  0  0  0  0  0  0
    8.3796  -16.2575   25.2834 C   0  0  0  0  0  0  0  0  0  0  0  0
    7.3544  -16.9753   25.2839 O   0  0  0  0  0  0  0  0  0  0  0  0
    9.5225  -16.7066   25.9924 N   0  0  0  0  0  0  0  0  0  0  0  0
   10.2241  -17.9484   25.6266 C   0  0  1  0  0  0  0  0  0  0  0  0
   10.3216  -18.0315   24.1421 C   0  0  0  0  0  0  0  0  0  0  0  0
   11.5104  -18.6753   23.5488 C   0  0  0  0  0  0  0  0  0  0  0  0
   11.2383  -19.6382   22.4555 C   0  0  0  0  0  0  0  0  0  0  0  0
   10.9460  -19.2128   21.2813 O   0  0  0  0  0  0  0  0  0  0  0  0
   11.3657  -18.2494   26.4462 C   0  0  0  0  0  0  0  0  0  0  0  0
   12.3484  -17.3381   26.8401 O   0  0  0  0  0  0  0  0  0  0  0  0
   11.2749  -21.0128   22.6053 O   0  0  0  0  0  0  0  0  0  0  0  0
   11.5251  -19.4489   26.8579 O   0  0  0  0  0  0  0  0  0  0  0  0
  2  4  1  0
  2  1  1  6
  3  2  1  0
  5  6  1  1
  5  4  1  0
  7  5  1  0
  8  7  2  0
 10  9  1  0
 10 11  1  0
 11 12  1  0
 13 12  1  1
 13 14  1  0
 14  7  1  0
 15 16  2  0
 15 13  1  0
 17 15  1  0
 18 19  1  6
 18 17  1  0
 19 20  1  0
 20 21  1  0
 21 22  2  0
 23 18  1  0
 24 23  1  0
 25 21  1  0
 26 23  2  0
M  END
$$$$
