HFD.pdb
     RDKit          3D

 30 31  0  0  1  0  0  0  0  0999 V2000
   27.2685  -21.2092  -17.7705 N   0  0  0  0  0  0  0  0  0  0  0  0
   27.0130  -20.2166  -16.7521 C   0  0  1  0  0  0  0  0  0  0  0  0
   26.0774  -19.1545  -17.2489 C   0  0  0  0  0  0  0  0  0  0  0  0
   26.8449  -18.0804  -17.9409 C   0  0  0  0  0  0  0  0  0  0  0  0
   28.2296  -18.0766  -18.1115 C   0  0  0  0  0  0  0  0  0  0  0  0
   28.5839  -16.9635  -18.7719 N   0  0  0  0  0  0  0  0  0  0  0  0
   27.4518  -16.2784  -19.0141 C   0  0  0  0  0  0  0  0  0  0  0  0
   26.3989  -16.9494  -18.5139 N   0  0  0  0  0  0  0  0  0  0  0  0
   26.4311  -20.8197  -15.5098 C   0  0  0  0  0  0  0  0  0  0  0  0
   25.6628  -21.7961  -15.6729 O   0  0  0  0  0  0  0  0  0  0  0  0
   26.7450  -20.2982  -14.2256 N   0  0  0  0  0  0  0  0  0  0  0  0
   26.0539  -20.7435  -13.0380 C   0  0  1  0  0  0  0  0  0  0  0  0
   26.8903  -20.4261  -11.8473 C   0  0  0  0  0  0  0  0  0  0  0  0
   26.2496  -20.5623  -10.5508 C   0  0  0  0  0  0  0  0  0  0  0  0
   25.8818  -21.7425   -9.9617 C   0  0  0  0  0  0  0  0  0  0  0  0
   25.2703  -21.7906   -8.7364 C   0  0  0  0  0  0  0  0  0  0  0  0
   25.0072  -20.6165   -8.0553 C   0  0  0  0  0  0  0  0  0  0  0  0
   25.3669  -19.4215   -8.6261 C   0  0  0  0  0  0  0  0  0  0  0  0
   25.9753  -19.3934   -9.8480 C   0  0  0  0  0  0  0  0  0  0  0  0
   24.7183  -20.0892  -12.9918 C   0  0  0  0  0  0  0  0  0  0  0  0
   24.5500  -18.9592  -13.5106 O   0  0  0  0  0  0  0  0  0  0  0  0
   23.5980  -20.7030  -12.3696 N   0  0  0  0  0  0  0  0  0  0  0  0
   22.2250  -20.2701  -12.5040 C   0  0  1  0  0  0  0  0  0  0  0  0
   21.6703  -20.5210  -13.8892 C   0  0  0  0  0  0  0  0  0  0  0  0
   20.2658  -20.1363  -14.0184 C   0  0  0  0  0  0  0  0  0  0  0  0
   19.9409  -18.9298  -13.9270 O   0  0  0  0  0  0  0  0  0  0  0  0
   21.3513  -20.8391  -11.4623 C   0  0  0  0  0  0  0  0  0  0  0  0
   21.7616  -21.9262  -10.7338 O   0  0  0  0  0  0  0  0  0  0  0  0
   19.2649  -21.0648  -14.2420 O   0  0  0  0  0  0  0  0  0  0  0  0
   20.2355  -20.3296  -11.2438 O   0  0  0  0  0  0  0  0  0  0  0  0
  2  1  1  6
  3  4  1  0
  3  2  1  0
  4  8  1  0
  5  4  2  0
  5  6  1  0
  6  7  1  0
  8  7  2  0
  9  2  1  0
 10  9  2  0
 11  9  1  0
 12 11  1  0
 12 13  1  1
 13 14  1  0
 14 15  2  0
 15 16  1  0
 17 16  2  0
 18 17  1  0
 19 14  1  0
 19 18  2  0
 20 12  1  0
 21 20  2  0
 22 20  1  0
 23 27  1  0
 23 22  1  0
 23 24  1  6
 25 29  1  0
 25 24  1  0
 26 25  2  0
 27 28  1  0
 30 27  2  0
M  END
$$$$
