HFD.pdb
     RDKit          3D

 30 31  0  0  1  0  0  0  0  0999 V2000
   23.9309  -11.1862  -19.3288 N   0  0  0  0  0  0  0  0  0  0  0  0
   24.2114   -9.7758  -19.1880 C   0  0  1  0  0  0  0  0  0  0  0  0
   23.8901   -9.0278  -20.4479 C   0  0  0  0  0  0  0  0  0  0  0  0
   24.8099   -9.4508  -21.5419 C   0  0  0  0  0  0  0  0  0  0  0  0
   26.0998   -9.9460  -21.3491 C   0  0  0  0  0  0  0  0  0  0  0  0
   26.6427  -10.2240  -22.5444 N   0  0  0  0  0  0  0  0  0  0  0  0
   25.7197   -9.9127  -23.4722 C   0  0  0  0  0  0  0  0  0  0  0  0
   24.6110   -9.4453  -22.8712 N   0  0  0  0  0  0  0  0  0  0  0  0
   23.4436   -9.1579  -18.0591 C   0  0  0  0  0  0  0  0  0  0  0  0
   22.2220   -9.4311  -18.0022 O   0  0  0  0  0  0  0  0  0  0  0  0
   24.0838   -8.3102  -17.1149 N   0  0  0  0  0  0  0  0  0  0  0  0
   23.3499   -7.6839  -16.0401 C   0  0  1  0  0  0  0  0  0  0  0  0
   23.9712   -8.0719  -14.7433 C   0  0  0  0  0  0  0  0  0  0  0  0
   23.7254   -9.4291  -14.2878 C   0  0  0  0  0  0  0  0  0  0  0  0
   22.5922   -9.8665  -13.6556 C   0  0  0  0  0  0  0  0  0  0  0  0
   22.4368  -11.1646  -13.2450 C   0  0  0  0  0  0  0  0  0  0  0  0
   23.4489  -12.0796  -13.4680 C   0  0  0  0  0  0  0  0  0  0  0  0
   24.5940  -11.6641  -14.0998 C   0  0  0  0  0  0  0  0  0  0  0  0
   24.7309  -10.3666  -14.5018 C   0  0  0  0  0  0  0  0  0  0  0  0
   23.3503   -6.2121  -16.2587 C   0  0  0  0  0  0  0  0  0  0  0  0
   24.3712   -5.6411  -16.7128 O   0  0  0  0  0  0  0  0  0  0  0  0
   22.2175   -5.4052  -15.9676 N   0  0  0  0  0  0  0  0  0  0  0  0
   22.1053   -3.9901  -16.2425 C   0  0  1  0  0  0  0  0  0  0  0  0
   22.1869   -3.6778  -17.7208 C   0  0  0  0  0  0  0  0  0  0  0  0
   21.9775   -2.2614  -18.0160 C   0  0  0  0  0  0  0  0  0  0  0  0
   22.8872   -1.4348  -17.7731 O   0  0  0  0  0  0  0  0  0  0  0  0
   20.9055   -3.3917  -15.6307 C   0  0  0  0  0  0  0  0  0  0  0  0
   20.8680   -2.0493  -15.3519 O   0  0  0  0  0  0  0  0  0  0  0  0
   20.7975   -1.7889  -18.5621 O   0  0  0  0  0  0  0  0  0  0  0  0
   19.9219   -4.1092  -15.3659 O   0  0  0  0  0  0  0  0  0  0  0  0
  2  1  1  6
  3  4  1  0
  3  2  1  0
  4  8  1  0
  5  4  2  0
  5  6  1  0
  6  7  1  0
  8  7  2  0
  9  2  1  0
 10  9  2  0
 11  9  1  0
 12 11  1  0
 12 13  1  1
 13 14  1  0
 14 15  2  0
 15 16  1  0
 17 16  2  0
 18 17  1  0
 19 14  1  0
 19 18  2  0
 20 12  1  0
 21 20  2  0
 22 20  1  0
 23 27  1  0
 23 22  1  0
 23 24  1  6
 25 29  1  0
 25 24  1  0
 26 25  2  0
 27 28  1  0
 30 27  2  0
M  END
$$$$
