HFD.pdb
     RDKit          3D

 30 31  0  0  1  0  0  0  0  0999 V2000
   15.8986  -19.9061    1.9444 N   0  0  0  0  0  0  0  0  0  0  0  0
   15.3466  -19.0238    2.9467 C   0  0  1  0  0  0  0  0  0  0  0  0
   14.6720  -19.7968    4.0412 C   0  0  0  0  0  0  0  0  0  0  0  0
   13.5142  -20.5572    3.4908 C   0  0  0  0  0  0  0  0  0  0  0  0
   12.3279  -19.9804    3.0366 C   0  0  0  0  0  0  0  0  0  0  0  0
   11.5052  -20.9525    2.6135 N   0  0  0  0  0  0  0  0  0  0  0  0
   12.1539  -22.1169    2.7950 C   0  0  0  0  0  0  0  0  0  0  0  0
   13.3678  -21.8829    3.3247 N   0  0  0  0  0  0  0  0  0  0  0  0
   16.3923  -18.1436    3.5611 C   0  0  0  0  0  0  0  0  0  0  0  0
   17.5050  -18.6747    3.7848 O   0  0  0  0  0  0  0  0  0  0  0  0
   16.1176  -16.7832    3.8670 N   0  0  0  0  0  0  0  0  0  0  0  0
   17.1146  -15.9251    4.4635 C   0  0  1  0  0  0  0  0  0  0  0  0
   16.9055  -14.5335    3.9760 C   0  0  0  0  0  0  0  0  0  0  0  0
   17.8510  -13.5346    4.4430 C   0  0  0  0  0  0  0  0  0  0  0  0
   19.0812  -13.2822    3.8969 C   0  0  0  0  0  0  0  0  0  0  0  0
   19.9247  -12.3271    4.4008 C   0  0  0  0  0  0  0  0  0  0  0  0
   19.5376  -11.5816    5.4989 C   0  0  0  0  0  0  0  0  0  0  0  0
   18.3091  -11.8169    6.0631 C   0  0  0  0  0  0  0  0  0  0  0  0
   17.4821  -12.7729    5.5472 C   0  0  0  0  0  0  0  0  0  0  0  0
   17.0127  -16.0357    5.9439 C   0  0  0  0  0  0  0  0  0  0  0  0
   15.8881  -16.0538    6.5002 O   0  0  0  0  0  0  0  0  0  0  0  0
   18.1615  -16.1228    6.7755 N   0  0  0  0  0  0  0  0  0  0  0  0
   18.1460  -16.1869    8.2198 C   0  0  1  0  0  0  0  0  0  0  0  0
   19.0543  -17.2686    8.7625 C   0  0  0  0  0  0  0  0  0  0  0  0
   18.3208  -18.4299    9.2631 C   0  0  0  0  0  0  0  0  0  0  0  0
   17.0686  -18.4392    9.2219 O   0  0  0  0  0  0  0  0  0  0  0  0
   18.4293  -14.8821    8.8438 C   0  0  0  0  0  0  0  0  0  0  0  0
   17.6907  -14.4542    9.9172 O   0  0  0  0  0  0  0  0  0  0  0  0
   18.9630  -19.5372    9.7879 O   0  0  0  0  0  0  0  0  0  0  0  0
   19.3437  -14.1657    8.3933 O   0  0  0  0  0  0  0  0  0  0  0  0
  2  1  1  6
  3  4  1  0
  3  2  1  0
  4  8  1  0
  5  4  2  0
  5  6  1  0
  6  7  1  0
  8  7  2  0
  9  2  1  0
 10  9  2  0
 11  9  1  0
 12 11  1  0
 12 13  1  1
 13 14  1  0
 14 15  2  0
 15 16  1  0
 17 16  2  0
 18 17  1  0
 19 14  1  0
 19 18  2  0
 20 12  1  0
 21 20  2  0
 22 20  1  0
 23 27  1  0
 23 22  1  0
 23 24  1  1
 25 29  1  0
 25 24  1  0
 26 25  2  0
 27 28  1  0
 30 27  2  0
M  END
$$$$
