HFD.pdb
     RDKit          3D

 30 31  0  0  1  0  0  0  0  0999 V2000
   28.4553  -21.0478  -14.8835 N   0  0  0  0  0  0  0  0  0  0  0  0
   27.6681  -20.1091  -14.1175 C   0  0  1  0  0  0  0  0  0  0  0  0
   26.9864  -19.1141  -15.0095 C   0  0  0  0  0  0  0  0  0  0  0  0
   27.9992  -18.3608  -15.8023 C   0  0  0  0  0  0  0  0  0  0  0  0
   28.1432  -18.4397  -17.1877 C   0  0  0  0  0  0  0  0  0  0  0  0
   29.1485  -17.6359  -17.5674 N   0  0  0  0  0  0  0  0  0  0  0  0
   29.6300  -17.0616  -16.4502 C   0  0  0  0  0  0  0  0  0  0  0  0
   28.9387  -17.4966  -15.3817 N   0  0  0  0  0  0  0  0  0  0  0  0
   26.6266  -20.7933  -13.2851 C   0  0  0  0  0  0  0  0  0  0  0  0
   26.1453  -21.8506  -13.7551 O   0  0  0  0  0  0  0  0  0  0  0  0
   26.2195  -20.2565  -12.0338 N   0  0  0  0  0  0  0  0  0  0  0  0
   25.1494  -20.8508  -11.2671 C   0  0  1  0  0  0  0  0  0  0  0  0
   25.2715  -20.4109   -9.8494 C   0  0  0  0  0  0  0  0  0  0  0  0
   26.5824  -20.5487   -9.2391 C   0  0  0  0  0  0  0  0  0  0  0  0
   27.5684  -21.4058   -9.6495 C   0  0  0  0  0  0  0  0  0  0  0  0
   28.7801  -21.4864   -9.0147 C   0  0  0  0  0  0  0  0  0  0  0  0
   29.0348  -20.6821   -7.9195 C   0  0  0  0  0  0  0  0  0  0  0  0
   28.0616  -19.8153   -7.4900 C   0  0  0  0  0  0  0  0  0  0  0  0
   26.8601  -19.7488   -8.1352 C   0  0  0  0  0  0  0  0  0  0  0  0
   23.8512  -20.4587  -11.8796 C   0  0  0  0  0  0  0  0  0  0  0  0
   23.7144  -19.3244  -12.3982 O   0  0  0  0  0  0  0  0  0  0  0  0
   22.7322  -21.3340  -11.9024 N   0  0  0  0  0  0  0  0  0  0  0  0
   21.5206  -21.1234  -12.6628 C   0  0  1  0  0  0  0  0  0  0  0  0
   21.5200  -21.8782  -13.9743 C   0  0  0  0  0  0  0  0  0  0  0  0
   21.8354  -21.0280  -15.1209 C   0  0  0  0  0  0  0  0  0  0  0  0
   21.8707  -19.7834  -14.9807 O   0  0  0  0  0  0  0  0  0  0  0  0
   20.3067  -21.4076  -11.8769 C   0  0  0  0  0  0  0  0  0  0  0  0
   20.1621  -22.6133  -11.2395 O   0  0  0  0  0  0  0  0  0  0  0  0
   22.1017  -21.5496  -16.3742 O   0  0  0  0  0  0  0  0  0  0  0  0
   19.4086  -20.5481  -11.7921 O   0  0  0  0  0  0  0  0  0  0  0  0
  2  1  1  6
  3  4  1  0
  3  2  1  0
  4  8  1  0
  5  4  2  0
  5  6  1  0
  6  7  1  0
  8  7  2  0
  9  2  1  0
 10  9  2  0
 11  9  1  0
 12 11  1  0
 12 13  1  1
 13 14  1  0
 14 15  2  0
 15 16  1  0
 17 16  2  0
 18 17  1  0
 19 14  1  0
 19 18  2  0
 20 12  1  0
 21 20  2  0
 22 20  1  0
 23 27  1  0
 23 22  1  0
 23 24  1  6
 25 29  1  0
 25 24  1  0
 26 25  2  0
 27 28  1  0
 30 27  2  0
M  END
$$$$
