HFD.pdb
     RDKit          3D

 30 31  0  0  1  0  0  0  0  0999 V2000
   27.6713  -22.2187  -17.3703 N   0  0  0  0  0  0  0  0  0  0  0  0
   27.3041  -21.0297  -16.6359 C   0  0  1  0  0  0  0  0  0  0  0  0
   26.4572  -20.1142  -17.4694 C   0  0  0  0  0  0  0  0  0  0  0  0
   27.2692  -19.5338  -18.5764 C   0  0  0  0  0  0  0  0  0  0  0  0
   26.9879  -19.6883  -19.9341 C   0  0  0  0  0  0  0  0  0  0  0  0
   27.9205  -19.0398  -20.6485 N   0  0  0  0  0  0  0  0  0  0  0  0
   28.7721  -18.4878  -19.7656 C   0  0  0  0  0  0  0  0  0  0  0  0
   28.3825  -18.7835  -18.5127 N   0  0  0  0  0  0  0  0  0  0  0  0
   26.5585  -21.3523  -15.3766 C   0  0  0  0  0  0  0  0  0  0  0  0
   25.7041  -22.2657  -15.4546 O   0  0  0  0  0  0  0  0  0  0  0  0
   26.8196  -20.6488  -14.1697 N   0  0  0  0  0  0  0  0  0  0  0  0
   26.0899  -20.9313  -12.9556 C   0  0  1  0  0  0  0  0  0  0  0  0
   26.8158  -20.3239  -11.8057 C   0  0  0  0  0  0  0  0  0  0  0  0
   26.1251  -20.3294  -10.5279 C   0  0  0  0  0  0  0  0  0  0  0  0
   25.5508  -19.2419   -9.9257 C   0  0  0  0  0  0  0  0  0  0  0  0
   24.9232  -19.3235   -8.7104 C   0  0  0  0  0  0  0  0  0  0  0  0
   24.8572  -20.5383   -8.0535 C   0  0  0  0  0  0  0  0  0  0  0  0
   25.4258  -21.6422   -8.6377 C   0  0  0  0  0  0  0  0  0  0  0  0
   26.0470  -21.5414   -9.8493 C   0  0  0  0  0  0  0  0  0  0  0  0
   24.7047  -20.4077  -13.1008 C   0  0  0  0  0  0  0  0  0  0  0  0
   24.5108  -19.1906  -13.3366 O   0  0  0  0  0  0  0  0  0  0  0  0
   23.5640  -21.2462  -12.9801 N   0  0  0  0  0  0  0  0  0  0  0  0
   22.1895  -20.7992  -13.0160 C   0  0  1  0  0  0  0  0  0  0  0  0
   21.2418  -21.8749  -13.5003 C   0  0  0  0  0  0  0  0  0  0  0  0
   19.8514  -21.4265  -13.5547 C   0  0  0  0  0  0  0  0  0  0  0  0
   19.5518  -20.4101  -14.2233 O   0  0  0  0  0  0  0  0  0  0  0  0
   21.7486  -20.2322  -11.7290 C   0  0  0  0  0  0  0  0  0  0  0  0
   21.9106  -20.9442  -10.5680 O   0  0  0  0  0  0  0  0  0  0  0  0
   18.8365  -22.0897  -12.8882 O   0  0  0  0  0  0  0  0  0  0  0  0
   21.2264  -19.1014  -11.6969 O   0  0  0  0  0  0  0  0  0  0  0  0
  2  1  1  6
  3  4  1  0
  3  2  1  0
  4  8  1  0
  5  4  2  0
  5  6  1  0
  6  7  1  0
  8  7  2  0
  9  2  1  0
 10  9  2  0
 11  9  1  0
 12 11  1  0
 12 13  1  1
 13 14  1  0
 14 15  2  0
 15 16  1  0
 17 16  2  0
 18 17  1  0
 19 14  1  0
 19 18  2  0
 20 12  1  0
 21 20  2  0
 22 20  1  0
 23 27  1  0
 23 22  1  0
 23 24  1  1
 25 29  1  0
 25 24  1  0
 26 25  2  0
 27 28  1  0
 30 27  2  0
M  END
$$$$
