HFD.pdb
     RDKit          3D

 30 31  0  0  1  0  0  0  0  0999 V2000
   26.8788  -21.3350  -18.0786 N   0  0  0  0  0  0  0  0  0  0  0  0
   26.2467  -20.3140  -17.2751 C   0  0  1  0  0  0  0  0  0  0  0  0
   25.0324  -19.7574  -17.9577 C   0  0  0  0  0  0  0  0  0  0  0  0
   25.4401  -18.9006  -19.1072 C   0  0  0  0  0  0  0  0  0  0  0  0
   25.6745  -19.3657  -20.4014 C   0  0  0  0  0  0  0  0  0  0  0  0
   26.0248  -18.3299  -21.1795 N   0  0  0  0  0  0  0  0  0  0  0  0
   26.0129  -17.2352  -20.3977 C   0  0  0  0  0  0  0  0  0  0  0  0
   25.6602  -17.5752  -19.1451 N   0  0  0  0  0  0  0  0  0  0  0  0
   25.8410  -20.8276  -15.9270 C   0  0  0  0  0  0  0  0  0  0  0  0
   25.2986  -21.9570  -15.9024 O   0  0  0  0  0  0  0  0  0  0  0  0
   26.0667  -20.0605  -14.7522 N   0  0  0  0  0  0  0  0  0  0  0  0
   25.6553  -20.5311  -13.4501 C   0  0  1  0  0  0  0  0  0  0  0  0
   26.5274  -19.9082  -12.4158 C   0  0  0  0  0  0  0  0  0  0  0  0
   26.1796  -20.1727  -11.0305 C   0  0  0  0  0  0  0  0  0  0  0  0
   25.3640  -19.3977  -10.2499 C   0  0  0  0  0  0  0  0  0  0  0  0
   25.0896  -19.7076   -8.9436 C   0  0  0  0  0  0  0  0  0  0  0  0
   25.6464  -20.8387   -8.3761 C   0  0  0  0  0  0  0  0  0  0  0  0
   26.4670  -21.6307   -9.1393 C   0  0  0  0  0  0  0  0  0  0  0  0
   26.7290  -21.3058  -10.4392 C   0  0  0  0  0  0  0  0  0  0  0  0
   24.2162  -20.2045  -13.2594 C   0  0  0  0  0  0  0  0  0  0  0  0
   23.7851  -19.0606  -13.5424 O   0  0  0  0  0  0  0  0  0  0  0  0
   23.2863  -21.1545  -12.7577 N   0  0  0  0  0  0  0  0  0  0  0  0
   21.8957  -20.8895  -12.4636 C   0  0  1  0  0  0  0  0  0  0  0  0
   20.9801  -21.9938  -12.9447 C   0  0  0  0  0  0  0  0  0  0  0  0
   20.5181  -21.7931  -14.3171 C   0  0  0  0  0  0  0  0  0  0  0  0
   20.7870  -20.7245  -14.9135 O   0  0  0  0  0  0  0  0  0  0  0  0
   21.6702  -20.5845  -11.0394 C   0  0  0  0  0  0  0  0  0  0  0  0
   22.3720  -21.2536  -10.0695 O   0  0  0  0  0  0  0  0  0  0  0  0
   19.7850  -22.7503  -14.9955 O   0  0  0  0  0  0  0  0  0  0  0  0
   20.8380  -19.7153  -10.7165 O   0  0  0  0  0  0  0  0  0  0  0  0
  2  1  1  6
  3  4  1  0
  3  2  1  0
  4  8  1  0
  5  4  2  0
  5  6  1  0
  6  7  1  0
  8  7  2  0
  9  2  1  0
 10  9  2  0
 11  9  1  0
 12 11  1  0
 12 13  1  1
 13 14  1  0
 14 15  2  0
 15 16  1  0
 17 16  2  0
 18 17  1  0
 19 14  1  0
 19 18  2  0
 20 12  1  0
 21 20  2  0
 22 20  1  0
 23 27  1  0
 23 22  1  0
 23 24  1  1
 25 29  1  0
 25 24  1  0
 26 25  2  0
 27 28  1  0
 30 27  2  0
M  END
$$$$
