HFD.pdb
     RDKit          3D

 30 31  0  0  1  0  0  0  0  0999 V2000
   26.5951  -21.3880  -13.3427 N   0  0  0  0  0  0  0  0  0  0  0  0
   25.8746  -20.5463  -12.4153 C   0  0  1  0  0  0  0  0  0  0  0  0
   24.3964  -20.6009  -12.6651 C   0  0  0  0  0  0  0  0  0  0  0  0
   24.0828  -20.0240  -14.0032 C   0  0  0  0  0  0  0  0  0  0  0  0
   24.0276  -18.6592  -14.2873 C   0  0  0  0  0  0  0  0  0  0  0  0
   23.7175  -18.4964  -15.5828 N   0  0  0  0  0  0  0  0  0  0  0  0
   23.5795  -19.7276  -16.1070 C   0  0  0  0  0  0  0  0  0  0  0  0
   23.7993  -20.6533  -15.1565 N   0  0  0  0  0  0  0  0  0  0  0  0
   26.1304  -20.9298  -10.9895 C   0  0  0  0  0  0  0  0  0  0  0  0
   26.0404  -22.1496  -10.7169 O   0  0  0  0  0  0  0  0  0  0  0  0
   26.4553  -19.9489  -10.0137 N   0  0  0  0  0  0  0  0  0  0  0  0
   26.7755  -20.3118   -8.6528 C   0  0  1  0  0  0  0  0  0  0  0  0
   27.7224  -19.3056   -8.0967 C   0  0  0  0  0  0  0  0  0  0  0  0
   28.1057  -19.4761   -6.7061 C   0  0  0  0  0  0  0  0  0  0  0  0
   27.6998  -18.6869   -5.6633 C   0  0  0  0  0  0  0  0  0  0  0  0
   28.1133  -18.9049   -4.3751 C   0  0  0  0  0  0  0  0  0  0  0  0
   28.9705  -19.9539   -4.0989 C   0  0  0  0  0  0  0  0  0  0  0  0
   29.3906  -20.7583   -5.1282 C   0  0  0  0  0  0  0  0  0  0  0  0
   28.9680  -20.5256   -6.4054 C   0  0  0  0  0  0  0  0  0  0  0  0
   25.5106  -20.4008   -7.8744 C   0  0  0  0  0  0  0  0  0  0  0  0
   24.6240  -19.5228   -8.0071 O   0  0  0  0  0  0  0  0  0  0  0  0
   25.2570  -21.4621   -6.9643 N   0  0  0  0  0  0  0  0  0  0  0  0
   24.0477  -21.6293   -6.1898 C   0  0  1  0  0  0  0  0  0  0  0  0
   23.5490  -23.0579   -6.1935 C   0  0  0  0  0  0  0  0  0  0  0  0
   22.2747  -23.2180   -5.4951 C   0  0  0  0  0  0  0  0  0  0  0  0
   21.5552  -22.2157   -5.2769 O   0  0  0  0  0  0  0  0  0  0  0  0
   24.1821  -21.1089   -4.8175 C   0  0  0  0  0  0  0  0  0  0  0  0
   25.2409  -21.4907   -4.0339 O   0  0  0  0  0  0  0  0  0  0  0  0
   21.8230  -24.4507   -5.0589 O   0  0  0  0  0  0  0  0  0  0  0  0
   23.3295  -20.3191   -4.3684 O   0  0  0  0  0  0  0  0  0  0  0  0
  2  1  1  6
  3  4  1  0
  3  2  1  0
  4  8  1  0
  5  4  2  0
  5  6  1  0
  6  7  1  0
  8  7  2  0
  9  2  1  0
 10  9  2  0
 11  9  1  0
 12 11  1  0
 12 13  1  1
 13 14  1  0
 14 15  2  0
 15 16  1  0
 17 16  2  0
 18 17  1  0
 19 14  1  0
 19 18  2  0
 20 12  1  0
 21 20  2  0
 22 20  1  0
 23 27  1  0
 23 22  1  0
 23 24  1  1
 25 29  1  0
 25 24  1  0
 26 25  2  0
 27 28  1  0
 30 27  2  0
M  END
$$$$
