HFD.pdb
     RDKit          3D

 30 31  0  0  1  0  0  0  0  0999 V2000
   28.1462  -35.8856   -8.5045 N   0  0  0  0  0  0  0  0  0  0  0  0
   27.8708  -34.8673   -7.5172 C   0  0  1  0  0  0  0  0  0  0  0  0
   26.3997  -34.7554   -7.2456 C   0  0  0  0  0  0  0  0  0  0  0  0
   25.8264  -33.6064   -8.0025 C   0  0  0  0  0  0  0  0  0  0  0  0
   26.0817  -33.3331   -9.3465 C   0  0  0  0  0  0  0  0  0  0  0  0
   25.4082  -32.2281   -9.7017 N   0  0  0  0  0  0  0  0  0  0  0  0
   24.7423  -31.8111   -8.6097 C   0  0  0  0  0  0  0  0  0  0  0  0
   24.9919  -32.6407   -7.5810 N   0  0  0  0  0  0  0  0  0  0  0  0
   28.5748  -35.1328   -6.2213 C   0  0  0  0  0  0  0  0  0  0  0  0
   28.8577  -36.3288   -5.9769 O   0  0  0  0  0  0  0  0  0  0  0  0
   28.8950  -34.0726   -5.3306 N   0  0  0  0  0  0  0  0  0  0  0  0
   29.7138  -34.2881   -4.1605 C   0  0  1  0  0  0  0  0  0  0  0  0
   30.7088  -33.1845   -4.0597 C   0  0  0  0  0  0  0  0  0  0  0  0
   31.8384  -33.2455   -4.9709 C   0  0  0  0  0  0  0  0  0  0  0  0
   31.9553  -32.5516   -6.1456 C   0  0  0  0  0  0  0  0  0  0  0  0
   33.0509  -32.6692   -6.9602 C   0  0  0  0  0  0  0  0  0  0  0  0
   34.0850  -33.5132   -6.6002 C   0  0  0  0  0  0  0  0  0  0  0  0
   33.9900  -34.2189   -5.4272 C   0  0  0  0  0  0  0  0  0  0  0  0
   32.8905  -34.0889   -4.6283 C   0  0  0  0  0  0  0  0  0  0  0  0
   28.8270  -34.3715   -2.9685 C   0  0  0  0  0  0  0  0  0  0  0  0
   27.8535  -33.5889   -2.8494 O   0  0  0  0  0  0  0  0  0  0  0  0
   29.0404  -35.3214   -1.9336 N   0  0  0  0  0  0  0  0  0  0  0  0
   28.2402  -35.4480   -0.7361 C   0  0  1  0  0  0  0  0  0  0  0  0
   27.4696  -36.7493   -0.6878 C   0  0  0  0  0  0  0  0  0  0  0  0
   26.6927  -36.9059    0.5407 C   0  0  0  0  0  0  0  0  0  0  0  0
   27.2173  -37.4431    1.5437 O   0  0  0  0  0  0  0  0  0  0  0  0
   29.0291  -35.2429    0.4918 C   0  0  0  0  0  0  0  0  0  0  0  0
   30.3973  -35.1704    0.4306 O   0  0  0  0  0  0  0  0  0  0  0  0
   25.3813  -36.4774    0.6430 O   0  0  0  0  0  0  0  0  0  0  0  0
   28.4495  -35.1354    1.5895 O   0  0  0  0  0  0  0  0  0  0  0  0
  2  1  1  6
  3  4  1  0
  3  2  1  0
  4  8  1  0
  5  4  2  0
  5  6  1  0
  6  7  1  0
  8  7  2  0
  9  2  1  0
 10  9  2  0
 11  9  1  0
 12 11  1  0
 12 13  1  1
 13 14  1  0
 14 15  2  0
 15 16  1  0
 17 16  2  0
 18 17  1  0
 19 14  1  0
 19 18  2  0
 20 12  1  0
 21 20  2  0
 22 20  1  0
 23 27  1  0
 23 22  1  0
 23 24  1  1
 25 29  1  0
 25 24  1  0
 26 25  2  0
 27 28  1  0
 30 27  2  0
M  END
$$$$
