HFD.pdb
     RDKit          3D

 30 31  0  0  1  0  0  0  0  0999 V2000
   23.8476  -18.3556  -18.7433 N   0  0  0  0  0  0  0  0  0  0  0  0
   22.9837  -18.0552  -17.6248 C   0  0  1  0  0  0  0  0  0  0  0  0
   21.5555  -17.9152  -18.0615 C   0  0  0  0  0  0  0  0  0  0  0  0
   21.3962  -16.6969  -18.9053 C   0  0  0  0  0  0  0  0  0  0  0  0
   20.8360  -16.6824  -20.1829 C   0  0  0  0  0  0  0  0  0  0  0  0
   20.8520  -15.4248  -20.6511 N   0  0  0  0  0  0  0  0  0  0  0  0
   21.4086  -14.6609  -19.6938 C   0  0  0  0  0  0  0  0  0  0  0  0
   21.7388  -15.4251  -18.6375 N   0  0  0  0  0  0  0  0  0  0  0  0
   23.0544  -19.1063  -16.5591 C   0  0  0  0  0  0  0  0  0  0  0  0
   22.8820  -20.2899  -16.9330 O   0  0  0  0  0  0  0  0  0  0  0  0
   23.3035  -18.7600  -15.2035 N   0  0  0  0  0  0  0  0  0  0  0  0
   23.2953  -19.7529  -14.1546 C   0  0  1  0  0  0  0  0  0  0  0  0
   24.1434  -19.2708  -13.0292 C   0  0  0  0  0  0  0  0  0  0  0  0
   24.1650  -20.0967  -11.8345 C   0  0  0  0  0  0  0  0  0  0  0  0
   23.3251  -19.9697  -10.7604 C   0  0  0  0  0  0  0  0  0  0  0  0
   23.4134  -20.7829   -9.6610 C   0  0  0  0  0  0  0  0  0  0  0  0
   24.3781  -21.7722   -9.6161 C   0  0  0  0  0  0  0  0  0  0  0  0
   25.2311  -21.9183  -10.6810 C   0  0  0  0  0  0  0  0  0  0  0  0
   25.1280  -21.0986  -11.7680 C   0  0  0  0  0  0  0  0  0  0  0  0
   21.8863  -20.0009  -13.7457 C   0  0  0  0  0  0  0  0  0  0  0  0
   21.0841  -19.0430  -13.6301 O   0  0  0  0  0  0  0  0  0  0  0  0
   21.3979  -21.3070  -13.4729 N   0  0  0  0  0  0  0  0  0  0  0  0
   20.0558  -21.6248  -13.0394 C   0  0  1  0  0  0  0  0  0  0  0  0
   19.3382  -22.5465  -14.0012 C   0  0  0  0  0  0  0  0  0  0  0  0
   17.9501  -22.8000  -13.6186 C   0  0  0  0  0  0  0  0  0  0  0  0
   17.5604  -23.9769  -13.4374 O   0  0  0  0  0  0  0  0  0  0  0  0
   20.0186  -22.1484  -11.6622 C   0  0  0  0  0  0  0  0  0  0  0  0
   18.8752  -22.0413  -10.9125 O   0  0  0  0  0  0  0  0  0  0  0  0
   17.0349  -21.7772  -13.4448 O   0  0  0  0  0  0  0  0  0  0  0  0
   21.0308  -22.6900  -11.1780 O   0  0  0  0  0  0  0  0  0  0  0  0
  2  1  1  6
  3  4  1  0
  3  2  1  0
  4  8  1  0
  5  4  2  0
  5  6  1  0
  6  7  1  0
  8  7  2  0
  9  2  1  0
 10  9  2  0
 11  9  1  0
 12 11  1  0
 12 13  1  1
 13 14  1  0
 14 15  2  0
 15 16  1  0
 17 16  2  0
 18 17  1  0
 19 14  1  0
 19 18  2  0
 20 12  1  0
 21 20  2  0
 22 20  1  0
 23 27  1  0
 23 22  1  0
 23 24  1  6
 25 29  1  0
 25 24  1  0
 26 25  2  0
 27 28  1  0
 30 27  2  0
M  END
$$$$
