HFD.pdb
     RDKit          3D

 30 31  0  0  1  0  0  0  0  0999 V2000
   33.0099  -28.6986  -18.4845 N   0  0  0  0  0  0  0  0  0  0  0  0
   32.1828  -29.8654  -18.6897 C   0  0  1  0  0  0  0  0  0  0  0  0
   32.9473  -31.1287  -18.4253 C   0  0  0  0  0  0  0  0  0  0  0  0
   33.8400  -31.4365  -19.5786 C   0  0  0  0  0  0  0  0  0  0  0  0
   35.2286  -31.5464  -19.5018 C   0  0  0  0  0  0  0  0  0  0  0  0
   35.7113  -31.8277  -20.7220 N   0  0  0  0  0  0  0  0  0  0  0  0
   34.6546  -31.8944  -21.5519 C   0  0  0  0  0  0  0  0  0  0  0  0
   33.5222  -31.6588  -20.8655 N   0  0  0  0  0  0  0  0  0  0  0  0
   30.9654  -29.8547  -17.8159 C   0  0  0  0  0  0  0  0  0  0  0  0
   31.1241  -29.4345  -16.6460 O   0  0  0  0  0  0  0  0  0  0  0  0
   29.7081  -30.3014  -18.3053 N   0  0  0  0  0  0  0  0  0  0  0  0
   28.4908  -30.1090  -17.5522 C   0  0  1  0  0  0  0  0  0  0  0  0
   27.7335  -28.9714  -18.1443 C   0  0  0  0  0  0  0  0  0  0  0  0
   28.2653  -27.6420  -17.8996 C   0  0  0  0  0  0  0  0  0  0  0  0
   28.2815  -26.9983  -16.6911 C   0  0  0  0  0  0  0  0  0  0  0  0
   28.7930  -25.7360  -16.5400 C   0  0  0  0  0  0  0  0  0  0  0  0
   29.3156  -25.0729  -17.6348 C   0  0  0  0  0  0  0  0  0  0  0  0
   29.3101  -25.6983  -18.8563 C   0  0  0  0  0  0  0  0  0  0  0  0
   28.7961  -26.9563  -18.9875 C   0  0  0  0  0  0  0  0  0  0  0  0
   27.7182  -31.3806  -17.5643 C   0  0  0  0  0  0  0  0  0  0  0  0
   27.6526  -32.0701  -18.6107 O   0  0  0  0  0  0  0  0  0  0  0  0
   27.0340  -31.8595  -16.4148 N   0  0  0  0  0  0  0  0  0  0  0  0
   26.2247  -33.0564  -16.3609 C   0  0  1  0  0  0  0  0  0  0  0  0
   25.7443  -33.3697  -14.9606 C   0  0  0  0  0  0  0  0  0  0  0  0
   25.1768  -34.7115  -14.8402 C   0  0  0  0  0  0  0  0  0  0  0  0
   25.0914  -35.4436  -15.8534 O   0  0  0  0  0  0  0  0  0  0  0  0
   25.1057  -33.0224  -17.3195 C   0  0  0  0  0  0  0  0  0  0  0  0
   24.7818  -34.1409  -18.0441 O   0  0  0  0  0  0  0  0  0  0  0  0
   24.7236  -35.2146  -13.6337 O   0  0  0  0  0  0  0  0  0  0  0  0
   24.4521  -31.9726  -17.4715 O   0  0  0  0  0  0  0  0  0  0  0  0
  2  1  1  1
  3  4  1  0
  3  2  1  0
  4  8  1  0
  5  4  2  0
  5  6  1  0
  6  7  1  0
  8  7  2  0
  9  2  1  0
 10  9  2  0
 11  9  1  0
 12 11  1  0
 12 13  1  6
 13 14  1  0
 14 15  2  0
 15 16  1  0
 17 16  2  0
 18 17  1  0
 19 14  1  0
 19 18  2  0
 20 12  1  0
 21 20  2  0
 22 20  1  0
 23 27  1  0
 23 22  1  0
 23 24  1  1
 25 29  1  0
 25 24  1  0
 26 25  2  0
 27 28  1  0
 30 27  2  0
M  END
$$$$
