KRM.pdb
     RDKit          3D

 29 28  0  0  1  0  0  0  0  0999 V2000
   25.7617  -19.8761  -15.1144 N   0  0  0  0  0  0  0  0  0  0  0  0
   24.8780  -20.7605  -15.9031 C   0  0  1  0  0  0  0  0  0  0  0  0
   25.5218  -22.1163  -16.0333 C   0  0  0  0  0  0  0  0  0  0  0  0
   26.6201  -22.1564  -17.0502 C   0  0  0  0  0  0  0  0  0  0  0  0
   27.9828  -22.0517  -16.4201 C   0  0  0  0  0  0  0  0  0  0  0  0
   29.0823  -21.9610  -17.4544 C   0  0  0  0  0  0  0  0  0  0  0  0
   29.5226  -23.3066  -17.7667 N   0  0  0  0  0  0  0  0  0  0  0  0
   23.5420  -20.8054  -15.2918 C   0  0  0  0  0  0  0  0  0  0  0  0
   22.6276  -21.4840  -15.7696 O   0  0  0  0  0  0  0  0  0  0  0  0
   18.1429  -21.0133  -10.0067 N   0  0  0  0  0  0  0  0  0  0  0  0
   19.2949  -21.5307   -9.3685 C   0  0  0  0  0  0  0  0  0  0  0  0
   19.2510  -22.6737   -8.7897 N   0  0  0  0  0  0  0  0  0  0  0  0
   20.5347  -20.8122   -9.3432 N   0  0  0  0  0  0  0  0  0  0  0  0
   20.6268  -19.5364   -9.9952 C   0  0  0  0  0  0  0  0  0  0  0  0
   20.5911  -19.7654  -11.4931 C   0  0  0  0  0  0  0  0  0  0  0  0
   21.9874  -19.7033  -12.0400 C   0  0  0  0  0  0  0  0  0  0  0  0
   21.9631  -20.0088  -13.5155 C   0  0  2  0  0  0  0  0  0  0  0  0
   23.2821  -20.0469  -14.1119 N   0  0  0  0  0  0  0  0  0  0  0  0
   21.1488  -18.9567  -14.1841 C   0  0  0  0  0  0  0  0  0  0  0  0
   21.5106  -17.7534  -14.2032 O   0  0  0  0  0  0  0  0  0  0  0  0
   20.0660  -23.0792   -8.2842 C   0  0  0  0  0  0  0  0  0  0  0  0
   16.8168  -17.9799  -20.5117 S   0  0  0  0  0  0  0  0  0  0  0  0
   17.8083  -19.0037  -19.3813 C   0  0  0  0  0  0  0  0  0  0  0  0
   17.9792  -18.1388  -17.8210 C   0  0  0  0  0  0  0  0  0  0  0  0
   18.8232  -18.8661  -16.8558 C   0  0  1  0  0  0  0  0  0  0  0  0
   19.1441  -18.2351  -15.5450 N   0  0  0  0  0  0  0  0  0  0  0  0
   19.9266  -19.2854  -14.8264 C   0  0  0  0  0  0  0  0  0  0  0  0
   18.0457  -17.8903  -14.6588 O   0  0  0  0  0  0  0  0  0  0  0  0
   17.5289  -18.7071  -13.8644 O   0  0  0  0  0  0  0  0  0  0  0  0
  2  3  1  0
  2  1  1  1
  3  4  1  0
  4  5  1  0
  5  6  1  0
  6  7  1  0
  8  2  1  0
  8  9  2  0
 10 11  1  0
 11 12  2  0
 13 11  1  0
 13 14  1  0
 15 16  1  0
 15 14  1  0
 17 16  1  1
 17 19  1  0
 17 18  1  0
 18  8  1  0
 19 26  1  0
 20 19  2  0
 22 23  1  0
 22 21  1  0
 23 24  1  0
 25 24  1  6
 25 27  1  0
 26 25  1  0
 27 28  2  0
 27 29  1  0
M  END
$$$$
