KRM.pdb
     RDKit          3D

 29 28  0  0  1  0  0  0  0  0999 V2000
   26.8185  -26.8053  -16.1965 N   0  0  0  0  0  0  0  0  0  0  0  0
   26.0546  -25.6774  -16.7704 C   0  0  1  0  0  0  0  0  0  0  0  0
   24.5957  -26.0482  -16.8342 C   0  0  0  0  0  0  0  0  0  0  0  0
   24.0319  -26.4679  -15.5121 C   0  0  0  0  0  0  0  0  0  0  0  0
   22.6061  -26.9363  -15.6248 C   0  0  0  0  0  0  0  0  0  0  0  0
   22.0128  -27.2821  -14.2774 C   0  0  0  0  0  0  0  0  0  0  0  0
   20.6633  -27.7684  -14.4879 N   0  0  0  0  0  0  0  0  0  0  0  0
   26.3124  -24.4546  -15.9967 C   0  0  0  0  0  0  0  0  0  0  0  0
   27.0397  -24.4544  -14.9987 O   0  0  0  0  0  0  0  0  0  0  0  0
   25.5901  -15.7188  -18.0216 N   0  0  0  0  0  0  0  0  0  0  0  0
   26.1761  -15.8610  -16.7416 C   0  0  0  0  0  0  0  0  0  0  0  0
   26.6205  -14.8319  -16.1196 N   0  0  0  0  0  0  0  0  0  0  0  0
   26.2951  -17.1370  -16.0998 N   0  0  0  0  0  0  0  0  0  0  0  0
   25.8139  -18.3129  -16.7680 C   0  0  0  0  0  0  0  0  0  0  0  0
   26.1644  -19.5183  -15.9186 C   0  0  0  0  0  0  0  0  0  0  0  0
   25.7485  -20.7702  -16.6345 C   0  0  0  0  0  0  0  0  0  0  0  0
   26.0736  -21.9687  -15.7808 C   0  0  2  0  0  0  0  0  0  0  0  0
   25.7104  -23.2260  -16.4007 N   0  0  0  0  0  0  0  0  0  0  0  0
   25.3396  -21.8223  -14.4936 C   0  0  0  0  0  0  0  0  0  0  0  0
   24.1116  -22.0722  -14.4008 O   0  0  0  0  0  0  0  0  0  0  0  0
   27.0232  -14.8853  -15.1608 C   0  0  0  0  0  0  0  0  0  0  0  0
   28.7806  -20.5779   -9.5049 S   0  0  0  0  0  0  0  0  0  0  0  0
   27.2774  -19.9792   -8.6736 C   0  0  0  0  0  0  0  0  0  0  0  0
   25.8681  -20.2932   -9.7354 C   0  0  0  0  0  0  0  0  0  0  0  0
   26.2580  -20.6038  -11.1227 C   0  0  1  0  0  0  0  0  0  0  0  0
   25.2700  -21.2485  -12.0323 N   0  0  0  0  0  0  0  0  0  0  0  0
   26.0128  -21.3915  -13.3206 C   0  0  0  0  0  0  0  0  0  0  0  0
   24.0561  -20.5202  -12.3590 O   0  0  0  0  0  0  0  0  0  0  0  0
   24.0135  -19.6226  -13.2295 O   0  0  0  0  0  0  0  0  0  0  0  0
  2  3  1  0
  2  1  1  1
  3  4  1  0
  4  5  1  0
  5  6  1  0
  6  7  1  0
  8  2  1  0
  8  9  2  0
 10 11  1  0
 11 12  2  0
 13 11  1  0
 13 14  1  0
 15 16  1  0
 15 14  1  0
 17 16  1  6
 17 19  1  0
 17 18  1  0
 18  8  1  0
 19 26  1  0
 20 19  2  0
 22 23  1  0
 22 21  1  0
 23 24  1  0
 25 24  1  1
 25 27  1  0
 26 25  1  0
 27 28  2  0
 27 29  1  0
M  END
$$$$
