KRM.pdb
     RDKit          3D

 29 28  0  0  1  0  0  0  0  0999 V2000
   25.8714  -20.4731  -14.2938 N   0  0  0  0  0  0  0  0  0  0  0  0
   24.7726  -21.4346  -14.5250 C   0  0  1  0  0  0  0  0  0  0  0  0
   25.1662  -22.7796  -13.9722 C   0  0  0  0  0  0  0  0  0  0  0  0
   26.1947  -23.4841  -14.8016 C   0  0  0  0  0  0  0  0  0  0  0  0
   25.5881  -24.1787  -15.9909 C   0  0  0  0  0  0  0  0  0  0  0  0
   26.6396  -24.7843  -16.8934 C   0  0  0  0  0  0  0  0  0  0  0  0
   25.9730  -25.3478  -18.0510 N   0  0  0  0  0  0  0  0  0  0  0  0
   23.5232  -20.9119  -13.9536 C   0  0  0  0  0  0  0  0  0  0  0  0
   23.5050  -20.2755  -12.8956 O   0  0  0  0  0  0  0  0  0  0  0  0
   15.6167  -19.1968  -16.5779 N   0  0  0  0  0  0  0  0  0  0  0  0
   15.7763  -18.2636  -15.5264 C   0  0  0  0  0  0  0  0  0  0  0  0
   14.7558  -17.6526  -15.0482 N   0  0  0  0  0  0  0  0  0  0  0  0
   17.0607  -17.9683  -14.9631 N   0  0  0  0  0  0  0  0  0  0  0  0
   18.2435  -18.4944  -15.5838 C   0  0  0  0  0  0  0  0  0  0  0  0
   19.0535  -19.2165  -14.5256 C   0  0  0  0  0  0  0  0  0  0  0  0
   20.3023  -19.7713  -15.1464 C   0  0  0  0  0  0  0  0  0  0  0  0
   21.0421  -20.6025  -14.1302 C   0  0  2  0  0  0  0  0  0  0  0  0
   22.2894  -21.1403  -14.6322 N   0  0  0  0  0  0  0  0  0  0  0  0
   20.1496  -21.7226  -13.7227 C   0  0  0  0  0  0  0  0  0  0  0  0
   19.8023  -22.6190  -14.5321 O   0  0  0  0  0  0  0  0  0  0  0  0
   14.8314  -16.9343  -14.2982 C   0  0  0  0  0  0  0  0  0  0  0  0
   18.0658  -25.4539   -7.1173 S   0  0  0  0  0  0  0  0  0  0  0  0
   18.8448  -24.0412   -7.9577 C   0  0  0  0  0  0  0  0  0  0  0  0
   18.3717  -24.0668   -9.6861 C   0  0  0  0  0  0  0  0  0  0  0  0
   19.0740  -23.0457  -10.4843 C   0  0  1  0  0  0  0  0  0  0  0  0
   18.8664  -23.0008  -11.9588 N   0  0  0  0  0  0  0  0  0  0  0  0
   19.6593  -21.8116  -12.3938 C   0  0  0  0  0  0  0  0  0  0  0  0
   17.5207  -22.7784  -12.4591 O   0  0  0  0  0  0  0  0  0  0  0  0
   17.0289  -21.6376  -12.6079 O   0  0  0  0  0  0  0  0  0  0  0  0
  2  3  1  0
  2  1  1  1
  3  4  1  0
  4  5  1  0
  5  6  1  0
  6  7  1  0
  8  2  1  0
  8  9  2  0
 10 11  1  0
 11 12  2  0
 13 11  1  0
 13 14  1  0
 15 16  1  0
 15 14  1  0
 17 16  1  6
 17 19  1  0
 17 18  1  0
 18  8  1  0
 19 26  1  0
 20 19  2  0
 22 23  1  0
 22 21  1  0
 23 24  1  0
 25 24  1  6
 25 27  1  0
 26 25  1  0
 27 28  2  0
 27 29  1  0
M  END
$$$$
