KRM.pdb
     RDKit          3D

 29 28  0  0  1  0  0  0  0  0999 V2000
   26.8194  -20.0743  -16.6740 N   0  0  0  0  0  0  0  0  0  0  0  0
   27.6565  -20.0669  -15.4555 C   0  0  1  0  0  0  0  0  0  0  0  0
   28.7852  -19.0855  -15.6355 C   0  0  0  0  0  0  0  0  0  0  0  0
   28.4077  -17.8908  -16.4553 C   0  0  0  0  0  0  0  0  0  0  0  0
   29.5412  -17.4157  -17.3239 C   0  0  0  0  0  0  0  0  0  0  0  0
   29.1934  -16.1468  -18.0693 C   0  0  0  0  0  0  0  0  0  0  0  0
   30.3335  -15.7724  -18.8831 N   0  0  0  0  0  0  0  0  0  0  0  0
   26.8222  -19.7871  -14.2782 C   0  0  0  0  0  0  0  0  0  0  0  0
   26.4905  -18.6379  -13.9711 O   0  0  0  0  0  0  0  0  0  0  0  0
   21.3432  -21.8054  -15.5207 N   0  0  0  0  0  0  0  0  0  0  0  0
   20.7619  -20.8732  -14.6290 C   0  0  0  0  0  0  0  0  0  0  0  0
   19.5021  -20.6403  -14.6731 N   0  0  0  0  0  0  0  0  0  0  0  0
   21.5425  -20.1642  -13.6583 N   0  0  0  0  0  0  0  0  0  0  0  0
   22.9432  -19.9544  -13.8930 C   0  0  0  0  0  0  0  0  0  0  0  0
   23.6540  -21.2847  -13.7423 C   0  0  0  0  0  0  0  0  0  0  0  0
   24.2299  -21.3881  -12.3602 C   0  0  0  0  0  0  0  0  0  0  0  0
   25.5354  -20.6377  -12.3024 C   0  0  2  0  0  0  0  0  0  0  0  0
   26.3766  -20.8664  -13.4588 N   0  0  0  0  0  0  0  0  0  0  0  0
   26.2556  -21.0726  -11.0739 C   0  0  0  0  0  0  0  0  0  0  0  0
   26.8109  -22.1972  -10.9964 O   0  0  0  0  0  0  0  0  0  0  0  0
   19.0383  -19.9400  -14.0576 C   0  0  0  0  0  0  0  0  0  0  0  0
   30.0257  -19.2678   -5.7116 S   0  0  0  0  0  0  0  0  0  0  0  0
   28.2848  -18.7706   -5.5356 C   0  0  0  0  0  0  0  0  0  0  0  0
   27.2500  -20.0132   -6.3085 C   0  0  0  0  0  0  0  0  0  0  0  0
   27.0981  -19.8058   -7.7600 C   0  0  1  0  0  0  0  0  0  0  0  0
   26.3233  -20.7935   -8.5620 N   0  0  0  0  0  0  0  0  0  0  0  0
   26.3367  -20.2205   -9.9417 C   0  0  0  0  0  0  0  0  0  0  0  0
   24.9222  -20.9982   -8.2367 O   0  0  0  0  0  0  0  0  0  0  0  0
   23.9915  -20.4132   -8.8342 O   0  0  0  0  0  0  0  0  0  0  0  0
  2  3  1  0
  2  1  1  6
  3  4  1  0
  4  5  1  0
  5  6  1  0
  6  7  1  0
  8  2  1  0
  8  9  2  0
 10 11  1  0
 11 12  2  0
 13 11  1  0
 13 14  1  0
 15 16  1  0
 15 14  1  0
 17 16  1  6
 17 19  1  0
 17 18  1  0
 18  8  1  0
 19 26  1  0
 20 19  2  0
 22 23  1  0
 22 21  1  0
 23 24  1  0
 25 24  1  6
 25 27  1  0
 26 25  1  0
 27 28  2  0
 27 29  1  0
M  END
$$$$
