KRM.pdb
     RDKit          3D

 29 28  0  0  1  0  0  0  0  0999 V2000
   26.3176  -20.1448  -16.3697 N   0  0  0  0  0  0  0  0  0  0  0  0
   27.2097  -20.1503  -15.1909 C   0  0  1  0  0  0  0  0  0  0  0  0
   28.3986  -19.2665  -15.4647 C   0  0  0  0  0  0  0  0  0  0  0  0
   28.2854  -18.4997  -16.7458 C   0  0  0  0  0  0  0  0  0  0  0  0
   29.5496  -17.7523  -17.0750 C   0  0  0  0  0  0  0  0  0  0  0  0
   29.4398  -16.9960  -18.3799 C   0  0  0  0  0  0  0  0  0  0  0  0
   30.6970  -16.3131  -18.6149 N   0  0  0  0  0  0  0  0  0  0  0  0
   26.4552  -19.7582  -13.9919 C   0  0  0  0  0  0  0  0  0  0  0  0
   26.0438  -18.6056  -13.8270 O   0  0  0  0  0  0  0  0  0  0  0  0
   23.4320  -24.6921  -14.1366 N   0  0  0  0  0  0  0  0  0  0  0  0
   22.6733  -23.9004  -15.0307 C   0  0  0  0  0  0  0  0  0  0  0  0
   22.4647  -24.3043  -16.2293 N   0  0  0  0  0  0  0  0  0  0  0  0
   22.1171  -22.6382  -14.6409 N   0  0  0  0  0  0  0  0  0  0  0  0
   22.3427  -22.1458  -13.3113 C   0  0  0  0  0  0  0  0  0  0  0  0
   23.7486  -21.5831  -13.2460 C   0  0  0  0  0  0  0  0  0  0  0  0
   24.0008  -21.0305  -11.8735 C   0  0  0  0  0  0  0  0  0  0  0  0
   25.3725  -20.4082  -11.8267 C   0  0  2  0  0  0  0  0  0  0  0  0
   26.1841  -20.7289  -12.9822 N   0  0  0  0  0  0  0  0  0  0  0  0
   26.0514  -20.8972  -10.5950 C   0  0  0  0  0  0  0  0  0  0  0  0
   26.5307  -22.0565  -10.5204 O   0  0  0  0  0  0  0  0  0  0  0  0
   21.8680  -23.7804  -16.9030 C   0  0  0  0  0  0  0  0  0  0  0  0
   28.8949  -18.6796   -3.5936 S   0  0  0  0  0  0  0  0  0  0  0  0
   28.4949  -18.3422   -5.3357 C   0  0  0  0  0  0  0  0  0  0  0  0
   27.5299  -19.7081   -5.9801 C   0  0  0  0  0  0  0  0  0  0  0  0
   27.2324  -19.5677   -7.4170 C   0  0  1  0  0  0  0  0  0  0  0  0
   26.4789  -20.6462   -8.1159 N   0  0  0  0  0  0  0  0  0  0  0  0
   26.1786  -20.0593   -9.4565 C   0  0  0  0  0  0  0  0  0  0  0  0
   25.1956  -21.0549   -7.5710 O   0  0  0  0  0  0  0  0  0  0  0  0
   25.0803  -21.6731   -6.4895 O   0  0  0  0  0  0  0  0  0  0  0  0
  2  3  1  0
  2  1  1  6
  3  4  1  0
  4  5  1  0
  5  6  1  0
  6  7  1  0
  8  2  1  0
  8  9  2  0
 10 11  1  0
 11 12  2  0
 13 11  1  0
 13 14  1  0
 15 16  1  0
 15 14  1  0
 17 16  1  6
 17 19  1  0
 17 18  1  0
 18  8  1  0
 19 26  1  0
 20 19  2  0
 22 23  1  0
 22 21  1  0
 23 24  1  0
 25 24  1  6
 25 27  1  0
 26 25  1  0
 27 28  2  0
 27 29  1  0
M  END
$$$$
