KRM.pdb
     RDKit          3D

 29 28  0  0  1  0  0  0  0  0999 V2000
   20.6489  -19.4552  -15.7349 N   0  0  0  0  0  0  0  0  0  0  0  0
   21.5343  -18.5560  -16.5049 C   0  0  1  0  0  0  0  0  0  0  0  0
   21.0700  -17.1335  -16.3292 C   0  0  0  0  0  0  0  0  0  0  0  0
   19.6174  -17.0218  -15.9839 C   0  0  0  0  0  0  0  0  0  0  0  0
   19.1338  -15.5969  -16.0128 C   0  0  0  0  0  0  0  0  0  0  0  0
   17.6991  -15.4736  -15.5508 C   0  0  0  0  0  0  0  0  0  0  0  0
   16.8394  -15.9816  -16.6019 N   0  0  0  0  0  0  0  0  0  0  0  0
   22.9322  -18.7672  -16.1029 C   0  0  0  0  0  0  0  0  0  0  0  0
   23.8563  -18.0999  -16.5778 O   0  0  0  0  0  0  0  0  0  0  0  0
   25.7960  -20.6678   -8.3566 N   0  0  0  0  0  0  0  0  0  0  0  0
   24.7057  -20.7519   -9.2545 C   0  0  0  0  0  0  0  0  0  0  0  0
   23.5294  -21.0107   -8.8156 N   0  0  0  0  0  0  0  0  0  0  0  0
   24.8682  -20.5552  -10.6649 N   0  0  0  0  0  0  0  0  0  0  0  0
   26.0891  -20.9634  -11.3003 C   0  0  0  0  0  0  0  0  0  0  0  0
   26.0545  -20.4931  -12.7408 C   0  0  0  0  0  0  0  0  0  0  0  0
   24.6340  -20.4750  -13.2250 C   0  0  0  0  0  0  0  0  0  0  0  0
   24.5898  -19.9397  -14.6330 C   0  0  2  0  0  0  0  0  0  0  0  0
   23.2428  -19.7697  -15.1367 N   0  0  0  0  0  0  0  0  0  0  0  0
   25.3267  -20.8951  -15.5056 C   0  0  0  0  0  0  0  0  0  0  0  0
   24.8794  -22.0428  -15.7547 O   0  0  0  0  0  0  0  0  0  0  0  0
   22.7038  -21.1057   -9.4431 C   0  0  0  0  0  0  0  0  0  0  0  0
   29.3854  -18.5441  -20.0298 S   0  0  0  0  0  0  0  0  0  0  0  0
   29.1270  -20.3147  -20.3571 C   0  0  0  0  0  0  0  0  0  0  0  0
   29.0834  -21.1892  -18.7933 C   0  0  0  0  0  0  0  0  0  0  0  0
   28.1410  -20.5898  -17.8313 C   0  0  1  0  0  0  0  0  0  0  0  0
   27.2784  -21.4782  -17.0032 N   0  0  0  0  0  0  0  0  0  0  0  0
   26.5695  -20.5337  -16.0881 C   0  0  0  0  0  0  0  0  0  0  0  0
   27.9215  -22.4526  -16.1386 O   0  0  0  0  0  0  0  0  0  0  0  0
   28.4602  -23.4960  -16.5702 O   0  0  0  0  0  0  0  0  0  0  0  0
  2  3  1  0
  2  1  1  1
  3  4  1  0
  4  5  1  0
  5  6  1  0
  6  7  1  0
  8  2  1  0
  8  9  2  0
 10 11  1  0
 11 12  2  0
 13 11  1  0
 13 14  1  0
 15 16  1  0
 15 14  1  0
 17 16  1  1
 17 19  1  0
 17 18  1  0
 18  8  1  0
 19 26  1  0
 20 19  2  0
 22 23  1  0
 22 21  1  0
 23 24  1  0
 25 24  1  6
 25 27  1  0
 26 25  1  0
 27 28  2  0
 27 29  1  0
M  END
$$$$
