KRM.pdb
     RDKit          3D

 29 28  0  0  1  0  0  0  0  0999 V2000
   27.3907  -22.6105  -16.8065 N   0  0  0  0  0  0  0  0  0  0  0  0
   27.2005  -21.4191  -15.9523 C   0  0  1  0  0  0  0  0  0  0  0  0
   27.2532  -20.1811  -16.8093 C   0  0  0  0  0  0  0  0  0  0  0  0
   26.2020  -20.1520  -17.8752 C   0  0  0  0  0  0  0  0  0  0  0  0
   26.4029  -19.0158  -18.8414 C   0  0  0  0  0  0  0  0  0  0  0  0
   25.3703  -19.0194  -19.9463 C   0  0  0  0  0  0  0  0  0  0  0  0
   25.6639  -17.9196  -20.8442 N   0  0  0  0  0  0  0  0  0  0  0  0
   25.9514  -21.5468  -15.1882 C   0  0  0  0  0  0  0  0  0  0  0  0
   24.9750  -22.1601  -15.6304 O   0  0  0  0  0  0  0  0  0  0  0  0
   24.0996  -21.9165   -7.1447 N   0  0  0  0  0  0  0  0  0  0  0  0
   24.9940  -21.0928   -7.8683 C   0  0  0  0  0  0  0  0  0  0  0  0
   26.1448  -20.8086   -7.3803 N   0  0  0  0  0  0  0  0  0  0  0  0
   24.6568  -20.5525   -9.1523 N   0  0  0  0  0  0  0  0  0  0  0  0
   23.4423  -20.9652   -9.7971 C   0  0  0  0  0  0  0  0  0  0  0  0
   23.3689  -20.2859  -11.1501 C   0  0  0  0  0  0  0  0  0  0  0  0
   24.7231  -20.3154  -11.7965 C   0  0  0  0  0  0  0  0  0  0  0  0
   24.6325  -21.0298  -13.1203 C   0  0  2  0  0  0  0  0  0  0  0  0
   25.8521  -20.9489  -13.8968 N   0  0  0  0  0  0  0  0  0  0  0  0
   23.5146  -20.4186  -13.8909 C   0  0  0  0  0  0  0  0  0  0  0  0
   23.6090  -19.2713  -14.3950 O   0  0  0  0  0  0  0  0  0  0  0  0
   26.8033  -20.1472   -7.8422 C   0  0  0  0  0  0  0  0  0  0  0  0
   21.2561  -22.7188  -18.7816 S   0  0  0  0  0  0  0  0  0  0  0  0
   19.5903  -22.3929  -18.1274 C   0  0  0  0  0  0  0  0  0  0  0  0
   19.7166  -21.1931  -16.8021 C   0  0  0  0  0  0  0  0  0  0  0  0
   20.8735  -21.4363  -15.9216 C   0  0  1  0  0  0  0  0  0  0  0  0
   21.1618  -20.4829  -14.8138 N   0  0  0  0  0  0  0  0  0  0  0  0
   22.2962  -21.1214  -14.0808 C   0  0  0  0  0  0  0  0  0  0  0  0
   20.1308  -20.2533  -13.8162 O   0  0  0  0  0  0  0  0  0  0  0  0
   20.1557  -20.7734  -12.6786 O   0  0  0  0  0  0  0  0  0  0  0  0
  2  3  1  0
  2  1  1  6
  3  4  1  0
  4  5  1  0
  5  6  1  0
  6  7  1  0
  8  2  1  0
  8  9  2  0
 10 11  1  0
 11 12  2  0
 13 11  1  0
 13 14  1  0
 15 16  1  0
 15 14  1  0
 17 16  1  1
 17 19  1  0
 17 18  1  0
 18  8  1  0
 19 26  1  0
 20 19  2  0
 22 23  1  0
 22 21  1  0
 23 24  1  0
 25 24  1  6
 25 27  1  0
 26 25  1  0
 27 28  2  0
 27 29  1  0
M  END
$$$$
