KRM.pdb
     RDKit          3D

 29 28  0  0  1  0  0  0  0  0999 V2000
   20.1997  -20.8618  -11.5557 N   0  0  0  0  0  0  0  0  0  0  0  0
   20.8410  -21.5529  -12.6943 C   0  0  1  0  0  0  0  0  0  0  0  0
   19.8432  -21.6943  -13.8142 C   0  0  0  0  0  0  0  0  0  0  0  0
   18.7977  -22.7331  -13.5498 C   0  0  0  0  0  0  0  0  0  0  0  0
   19.3686  -24.1256  -13.5429 C   0  0  0  0  0  0  0  0  0  0  0  0
   18.2989  -25.1780  -13.3556 C   0  0  0  0  0  0  0  0  0  0  0  0
   18.9449  -26.4744  -13.2915 N   0  0  0  0  0  0  0  0  0  0  0  0
   22.0630  -20.8375  -13.0886 C   0  0  0  0  0  0  0  0  0  0  0  0
   22.0881  -19.6096  -13.2175 O   0  0  0  0  0  0  0  0  0  0  0  0
   30.4204  -21.7294  -11.1771 N   0  0  0  0  0  0  0  0  0  0  0  0
   29.4372  -21.2120  -10.3010 C   0  0  0  0  0  0  0  0  0  0  0  0
   29.7692  -20.7975   -9.1343 N   0  0  0  0  0  0  0  0  0  0  0  0
   28.0558  -21.1315  -10.6745 N   0  0  0  0  0  0  0  0  0  0  0  0
   27.6651  -21.4604  -12.0162 C   0  0  0  0  0  0  0  0  0  0  0  0
   26.1547  -21.3695  -12.1064 C   0  0  0  0  0  0  0  0  0  0  0  0
   25.7196  -21.6826  -13.5083 C   0  0  0  0  0  0  0  0  0  0  0  0
   24.4577  -20.9219  -13.8243 C   0  0  2  0  0  0  0  0  0  0  0  0
   23.2611  -21.5724  -13.3324 N   0  0  0  0  0  0  0  0  0  0  0  0
   24.3706  -20.7810  -15.3041 C   0  0  0  0  0  0  0  0  0  0  0  0
   23.9409  -21.7105  -16.0324 O   0  0  0  0  0  0  0  0  0  0  0  0
   29.0826  -20.3879   -8.4670 C   0  0  0  0  0  0  0  0  0  0  0  0
   22.0642  -15.9768  -20.7728 S   0  0  0  0  0  0  0  0  0  0  0  0
   22.5380  -16.3175  -19.0499 C   0  0  0  0  0  0  0  0  0  0  0  0
   23.4946  -17.8323  -19.0045 C   0  0  0  0  0  0  0  0  0  0  0  0
   23.8800  -18.2220  -17.6360 C   0  0  2  0  0  0  0  0  0  0  0  0
   24.6971  -19.4503  -17.4289 N   0  0  0  0  0  0  0  0  0  0  0  0
   24.7749  -19.5796  -15.9425 C   0  0  0  0  0  0  0  0  0  0  0  0
   26.0733  -19.4494  -17.8943 O   0  0  0  0  0  0  0  0  0  0  0  0
   27.0211  -18.9918  -17.2179 O   0  0  0  0  0  0  0  0  0  0  0  0
  2  3  1  0
  2  1  1  1
  3  4  1  0
  4  5  1  0
  5  6  1  0
  6  7  1  0
  8  2  1  0
  8  9  2  0
 10 11  1  0
 11 12  2  0
 13 11  1  0
 13 14  1  0
 15 16  1  0
 15 14  1  0
 17 16  1  6
 17 19  1  0
 17 18  1  0
 18  8  1  0
 19 26  1  0
 20 19  2  0
 22 23  1  0
 22 21  1  0
 23 24  1  0
 25 24  1  6
 25 27  1  0
 26 25  1  0
 27 28  2  0
 27 29  1  0
M  END
$$$$
