KRM.pdb
     RDKit          3D

 29 28  0  0  1  0  0  0  0  0999 V2000
   27.1489  -20.0663  -17.8561 N   0  0  0  0  0  0  0  0  0  0  0  0
   26.7041  -19.1766  -16.7625 C   0  0  1  0  0  0  0  0  0  0  0  0
   25.8532  -18.0735  -17.3360 C   0  0  0  0  0  0  0  0  0  0  0  0
   25.4301  -18.3247  -18.7501 C   0  0  0  0  0  0  0  0  0  0  0  0
   24.5438  -19.5348  -18.8723 C   0  0  0  0  0  0  0  0  0  0  0  0
   24.0543  -19.7408  -20.2882 C   0  0  0  0  0  0  0  0  0  0  0  0
   23.3054  -18.5643  -20.6844 N   0  0  0  0  0  0  0  0  0  0  0  0
   26.0195  -19.9627  -15.7263 C   0  0  0  0  0  0  0  0  0  0  0  0
   25.4154  -21.0067  -15.9910 O   0  0  0  0  0  0  0  0  0  0  0  0
   28.4954  -21.2551   -8.1282 N   0  0  0  0  0  0  0  0  0  0  0  0
   28.5520  -21.4883   -9.5227 C   0  0  0  0  0  0  0  0  0  0  0  0
   29.6373  -21.9071  -10.0613 N   0  0  0  0  0  0  0  0  0  0  0  0
   27.4201  -21.2700  -10.3744 N   0  0  0  0  0  0  0  0  0  0  0  0
   26.1351  -21.0076   -9.7905 C   0  0  0  0  0  0  0  0  0  0  0  0
   25.1588  -20.7030  -10.9092 C   0  0  0  0  0  0  0  0  0  0  0  0
   25.8307  -19.8375  -11.9348 C   0  0  0  0  0  0  0  0  0  0  0  0
   25.4134  -20.2772  -13.3145 C   0  0  2  0  0  0  0  0  0  0  0  0
   26.0467  -19.5167  -14.3716 N   0  0  0  0  0  0  0  0  0  0  0  0
   23.9356  -20.1238  -13.4127 C   0  0  0  0  0  0  0  0  0  0  0  0
   23.3957  -18.9975  -13.5509 O   0  0  0  0  0  0  0  0  0  0  0  0
   29.7534  -22.0007  -11.0919 C   0  0  0  0  0  0  0  0  0  0  0  0
   20.6251  -23.6452  -17.1665 S   0  0  0  0  0  0  0  0  0  0  0  0
   19.4505  -23.7487  -15.7814 C   0  0  0  0  0  0  0  0  0  0  0  0
   19.7526  -22.3784  -14.6664 C   0  0  0  0  0  0  0  0  0  0  0  0
   21.1828  -22.2002  -14.3570 C   0  0  1  0  0  0  0  0  0  0  0  0
   21.6019  -21.0956  -13.4496 N   0  0  0  0  0  0  0  0  0  0  0  0
   23.0839  -21.2576  -13.3525 C   0  0  0  0  0  0  0  0  0  0  0  0
   21.1164  -21.1067  -12.0803 O   0  0  0  0  0  0  0  0  0  0  0  0
   21.7177  -21.6863  -11.1488 O   0  0  0  0  0  0  0  0  0  0  0  0
  2  3  1  0
  2  1  1  6
  3  4  1  0
  4  5  1  0
  5  6  1  0
  6  7  1  0
  8  2  1  0
  8  9  2  0
 10 11  1  0
 11 12  2  0
 13 11  1  0
 13 14  1  0
 15 16  1  0
 15 14  1  0
 17 16  1  1
 17 19  1  0
 17 18  1  0
 18  8  1  0
 19 26  1  0
 20 19  2  0
 22 23  1  0
 22 21  1  0
 23 24  1  0
 25 24  1  6
 25 27  1  0
 26 25  1  0
 27 28  2  0
 27 29  1  0
M  END
$$$$
