KRM.pdb
     RDKit          3D

 29 28  0  0  1  0  0  0  0  0999 V2000
   27.4360  -21.8070  -17.1350 N   0  0  0  0  0  0  0  0  0  0  0  0
   27.1150  -20.7353  -16.1687 C   0  0  1  0  0  0  0  0  0  0  0  0
   26.5024  -19.5718  -16.9041 C   0  0  0  0  0  0  0  0  0  0  0  0
   26.3066  -19.8305  -18.3658 C   0  0  0  0  0  0  0  0  0  0  0  0
   27.5208  -19.4643  -19.1760 C   0  0  0  0  0  0  0  0  0  0  0  0
   27.2149  -19.3836  -20.6548 C   0  0  0  0  0  0  0  0  0  0  0  0
   28.4637  -19.1926  -21.3661 N   0  0  0  0  0  0  0  0  0  0  0  0
   26.2571  -21.2669  -15.1001 C   0  0  0  0  0  0  0  0  0  0  0  0
   25.1580  -21.7772  -15.3380 O   0  0  0  0  0  0  0  0  0  0  0  0
   31.1180  -21.9546   -8.3045 N   0  0  0  0  0  0  0  0  0  0  0  0
   30.8858  -22.0114   -9.6991 C   0  0  0  0  0  0  0  0  0  0  0  0
   31.4559  -22.9132  -10.4099 N   0  0  0  0  0  0  0  0  0  0  0  0
   30.0203  -21.0811  -10.3621 N   0  0  0  0  0  0  0  0  0  0  0  0
   28.6086  -21.1201  -10.1039 C   0  0  0  0  0  0  0  0  0  0  0  0
   27.8807  -21.0043  -11.4284 C   0  0  0  0  0  0  0  0  0  0  0  0
   26.5627  -21.7162  -11.3364 C   0  0  0  0  0  0  0  0  0  0  0  0
   25.8364  -21.6008  -12.6517 C   0  0  2  0  0  0  0  0  0  0  0  0
   26.6963  -21.1969  -13.7446 N   0  0  0  0  0  0  0  0  0  0  0  0
   24.7479  -20.5988  -12.4833 C   0  0  0  0  0  0  0  0  0  0  0  0
   24.9681  -19.3641  -12.5619 O   0  0  0  0  0  0  0  0  0  0  0  0
   31.4154  -22.9173  -11.4505 C   0  0  0  0  0  0  0  0  0  0  0  0
   22.2597  -21.2384  -17.1668 S   0  0  0  0  0  0  0  0  0  0  0  0
   21.7567  -19.5442  -16.7362 C   0  0  0  0  0  0  0  0  0  0  0  0
   21.3904  -19.4801  -14.9830 C   0  0  0  0  0  0  0  0  0  0  0  0
   22.4439  -20.0982  -14.1578 C   0  0  1  0  0  0  0  0  0  0  0  0
   22.2627  -20.1784  -12.6814 N   0  0  0  0  0  0  0  0  0  0  0  0
   23.4150  -21.0133  -12.2262 C   0  0  0  0  0  0  0  0  0  0  0  0
   21.0744  -20.8377  -12.1675 O   0  0  0  0  0  0  0  0  0  0  0  0
   20.0415  -20.2164  -11.8327 O   0  0  0  0  0  0  0  0  0  0  0  0
  2  3  1  0
  2  1  1  6
  3  4  1  0
  4  5  1  0
  5  6  1  0
  6  7  1  0
  8  2  1  0
  8  9  2  0
 10 11  1  0
 11 12  2  0
 13 11  1  0
 13 14  1  0
 15 16  1  0
 15 14  1  0
 17 16  1  1
 17 19  1  0
 17 18  1  0
 18  8  1  0
 19 26  1  0
 20 19  2  0
 22 23  1  0
 22 21  1  0
 23 24  1  0
 25 24  1  1
 25 27  1  0
 26 25  1  0
 27 28  2  0
 27 29  1  0
M  END
$$$$
