KRR.pdb
     RDKit          3D

 32 31  0  0  1  0  0  0  0  0999 V2000
    3.8005  -21.0347   21.0408 N   0  0  0  0  0  0  0  0  0  0  0  0
    3.7619  -19.6263   21.3816 C   0  0  1  0  0  0  0  0  0  0  0  0
    2.7920  -19.3558   22.5137 C   0  0  0  0  0  0  0  0  0  0  0  0
    1.4221  -19.9189   22.2171 C   0  0  0  0  0  0  0  0  0  0  0  0
    0.4149  -19.5953   23.2642 C   0  0  0  0  0  0  0  0  0  0  0  0
   -0.9484  -20.1743   22.9836 C   0  0  0  0  0  0  0  0  0  0  0  0
   -1.9164  -19.8301   23.9989 N   0  0  0  0  0  0  0  0  0  0  0  0
    5.1293  -19.1255   21.6799 C   0  0  0  0  0  0  0  0  0  0  0  0
    5.9497  -19.9225   22.2579 O   0  0  0  0  0  0  0  0  0  0  0  0
    9.0819  -12.0131   20.2943 N   0  0  0  0  0  0  0  0  0  0  0  0
    7.9843  -12.6091   19.6029 C   0  0  0  0  0  0  0  0  0  0  0  0
    7.0149  -11.8245   19.2583 N   0  0  0  0  0  0  0  0  0  0  0  0
    7.9306  -13.9916   19.2982 N   0  0  0  0  0  0  0  0  0  0  0  0
    9.0500  -14.8175   19.6905 C   0  0  0  0  0  0  0  0  0  0  0  0
    8.6637  -15.8393   20.7640 C   0  0  0  0  0  0  0  0  0  0  0  0
    7.2186  -16.2227   20.6104 C   0  0  0  0  0  0  0  0  0  0  0  0
    6.8678  -17.3070   21.5739 C   0  0  2  0  0  0  0  0  0  0  0  0
    5.5211  -17.8120   21.3375 N   0  0  0  0  0  0  0  0  0  0  0  0
    7.0084  -16.9964   22.9917 C   0  0  0  0  0  0  0  0  0  0  0  0
    6.0559  -16.8085   23.7942 O   0  0  0  0  0  0  0  0  0  0  0  0
    6.2221  -12.1924   18.6621 N   0  0  0  0  0  0  0  0  0  0  0  0
    8.7022  -20.8173   31.0731 C   0  0  0  0  0  0  0  0  0  0  0  0
    8.9893  -20.4180   29.7373 N   0  0  0  0  0  0  0  0  0  0  0  0
    9.9761  -20.9514   29.1232 N   0  0  0  0  0  0  0  0  0  0  0  0
    8.1781  -19.4348   29.0942 C   0  0  0  0  0  0  0  0  0  0  0  0
    7.9099  -19.5278   27.6782 C   0  0  0  0  0  0  0  0  0  0  0  0
    8.5396  -18.2665   27.0358 C   0  0  0  0  0  0  0  0  0  0  0  0
    7.8689  -17.9790   25.7208 C   0  0  1  0  0  0  0  0  0  0  0  0
    8.5055  -16.8344   25.0342 N   0  0  0  0  0  0  0  0  0  0  0  0
    8.3054  -16.8809   23.5870 C   0  0  0  0  0  0  0  0  0  0  0  0
    9.9359  -16.6556   25.3475 O   0  0  0  0  0  0  0  0  0  0  0  0
   10.3172  -16.4046   26.6789 O   0  0  0  0  0  0  0  0  0  0  0  0
  2  1  1  1
  3  2  1  0
  4  3  1  0
  5  4  1  0
  6  7  1  0
  6  5  1  0
  8  9  2  0
  8  2  1  0
 11 10  1  0
 12 11  2  0
 13 11  1  0
 14 13  1  0
 15 14  1  0
 15 16  1  0
 17 16  1  6
 17 18  1  0
 18  8  1  0
 19 17  1  0
 19 20  2  0
 22 21  1  0
 23 22  2  0
 24 22  1  0
 25 24  1  0
 26 27  1  0
 26 25  1  0
 28 27  1  1
 29 28  1  0
 29 19  1  0
 30 28  1  0
 31 30  1  0
 32 30  2  0
M  END
$$$$
