KRR.pdb
     RDKit          3D

 32 31  0  0  1  0  0  0  0  0999 V2000
    7.1729  -12.7004   19.1452 N   0  0  0  0  0  0  0  0  0  0  0  0
    7.6695  -14.0295   18.8479 C   0  0  1  0  0  0  0  0  0  0  0  0
    8.9687  -13.9752   18.0703 C   0  0  0  0  0  0  0  0  0  0  0  0
    8.7265  -13.7115   16.6029 C   0  0  0  0  0  0  0  0  0  0  0  0
    9.2637  -14.7807   15.7176 C   0  0  0  0  0  0  0  0  0  0  0  0
    8.9260  -14.5797   14.2623 C   0  0  0  0  0  0  0  0  0  0  0  0
    9.5744  -15.5441   13.4044 N   0  0  0  0  0  0  0  0  0  0  0  0
    7.7923  -14.8298   20.0944 C   0  0  0  0  0  0  0  0  0  0  0  0
    7.6405  -14.2266   21.2148 O   0  0  0  0  0  0  0  0  0  0  0  0
    4.5140  -21.4078   23.0465 N   0  0  0  0  0  0  0  0  0  0  0  0
    4.3316  -21.1603   21.6524 C   0  0  0  0  0  0  0  0  0  0  0  0
    3.1329  -21.2993   21.1858 N   0  0  0  0  0  0  0  0  0  0  0  0
    5.3950  -20.7824   20.7960 N   0  0  0  0  0  0  0  0  0  0  0  0
    6.7345  -20.7746   21.3390 C   0  0  0  0  0  0  0  0  0  0  0  0
    7.1435  -19.3875   21.8433 C   0  0  0  0  0  0  0  0  0  0  0  0
    7.3708  -18.4651   20.6787 C   0  0  0  0  0  0  0  0  0  0  0  0
    7.7626  -17.1094   21.1639 C   0  0  2  0  0  0  0  0  0  0  0  0
    8.0660  -16.2153   20.0534 N   0  0  0  0  0  0  0  0  0  0  0  0
    8.8562  -17.0470   22.1265 C   0  0  0  0  0  0  0  0  0  0  0  0
    8.9774  -17.7850   23.1400 O   0  0  0  0  0  0  0  0  0  0  0  0
    2.9575  -21.2244   20.1452 N   0  0  0  0  0  0  0  0  0  0  0  0
    7.5859  -14.3076   28.2370 C   0  0  0  0  0  0  0  0  0  0  0  0
    8.9756  -14.5403   28.0348 N   0  0  0  0  0  0  0  0  0  0  0  0
    9.8182  -14.0586   28.8675 N   0  0  0  0  0  0  0  0  0  0  0  0
    9.4173  -15.3071   26.9144 C   0  0  0  0  0  0  0  0  0  0  0  0
   10.8228  -15.5854   26.7336 C   0  0  0  0  0  0  0  0  0  0  0  0
   10.9432  -16.3435   25.3880 C   0  0  0  0  0  0  0  0  0  0  0  0
   10.4311  -15.4771   24.2706 C   0  0  1  0  0  0  0  0  0  0  0  0
   10.9675  -15.9157   22.9642 N   0  0  0  0  0  0  0  0  0  0  0  0
    9.9125  -16.0935   21.9682 C   0  0  0  0  0  0  0  0  0  0  0  0
   11.8184  -17.1191   23.0287 O   0  0  0  0  0  0  0  0  0  0  0  0
   11.4226  -18.2738   22.3279 O   0  0  0  0  0  0  0  0  0  0  0  0
  2  1  1  1
  3  2  1  0
  4  3  1  0
  5  4  1  0
  6  7  1  0
  6  5  1  0
  8  9  2  0
  8  2  1  0
 11 10  1  0
 12 11  2  0
 13 11  1  0
 14 13  1  0
 15 14  1  0
 15 16  1  0
 17 16  1  6
 17 18  1  0
 18  8  1  0
 19 17  1  0
 19 20  2  0
 22 21  1  0
 23 22  2  0
 24 22  1  0
 25 24  1  0
 26 27  1  0
 26 25  1  0
 28 27  1  6
 29 28  1  0
 29 19  1  0
 30 28  1  0
 31 30  1  0
 32 30  2  0
M  END
$$$$
