KRR.pdb
     RDKit          3D

 32 31  0  0  1  0  0  0  0  0999 V2000
    9.0932  -15.6391   17.2425 N   0  0  0  0  0  0  0  0  0  0  0  0
    8.6701  -14.4309   17.9227 C   0  0  1  0  0  0  0  0  0  0  0  0
    7.5590  -13.7296   17.1682 C   0  0  0  0  0  0  0  0  0  0  0  0
    7.2620  -14.4143   15.8549 C   0  0  0  0  0  0  0  0  0  0  0  0
    6.9950  -13.4614   14.7430 C   0  0  0  0  0  0  0  0  0  0  0  0
    6.6773  -14.1404   13.4352 C   0  0  0  0  0  0  0  0  0  0  0  0
    6.5327  -13.2037   12.3452 N   0  0  0  0  0  0  0  0  0  0  0  0
    8.2940  -14.7302   19.3292 C   0  0  0  0  0  0  0  0  0  0  0  0
    7.9096  -13.7575   20.0698 O   0  0  0  0  0  0  0  0  0  0  0  0
    3.1708  -20.8538   20.9893 N   0  0  0  0  0  0  0  0  0  0  0  0
    2.7334  -19.5374   20.6519 C   0  0  0  0  0  0  0  0  0  0  0  0
    1.4974  -19.4061   20.2925 N   0  0  0  0  0  0  0  0  0  0  0  0
    3.5907  -18.4105   20.6961 N   0  0  0  0  0  0  0  0  0  0  0  0
    4.9663  -18.6185   21.0881 C   0  0  0  0  0  0  0  0  0  0  0  0
    5.7806  -17.3221   21.0421 C   0  0  0  0  0  0  0  0  0  0  0  0
    7.2272  -17.6152   21.3257 C   0  0  0  0  0  0  0  0  0  0  0  0
    8.0354  -16.3645   21.2273 C   0  0  2  0  0  0  0  0  0  0  0  0
    8.3535  -16.0457   19.8412 N   0  0  0  0  0  0  0  0  0  0  0  0
    9.2630  -16.3123   22.0127 C   0  0  0  0  0  0  0  0  0  0  0  0
   10.3001  -16.9913   21.7890 O   0  0  0  0  0  0  0  0  0  0  0  0
    1.1400  -18.4686   19.9570 N   0  0  0  0  0  0  0  0  0  0  0  0
   11.1527  -15.5206   31.4107 C   0  0  0  0  0  0  0  0  0  0  0  0
   10.5066  -14.8989   30.3053 N   0  0  0  0  0  0  0  0  0  0  0  0
   10.1784  -13.6655   30.3852 N   0  0  0  0  0  0  0  0  0  0  0  0
   10.2339  -15.6488   29.1214 C   0  0  0  0  0  0  0  0  0  0  0  0
    9.7791  -14.9785   27.9258 C   0  0  0  0  0  0  0  0  0  0  0  0
    9.6254  -16.0786   26.8459 C   0  0  0  0  0  0  0  0  0  0  0  0
    9.1157  -15.4681   25.5695 C   0  0  1  0  0  0  0  0  0  0  0  0
    9.9489  -15.8677   24.4149 N   0  0  0  0  0  0  0  0  0  0  0  0
    9.3678  -15.4405   23.1435 C   0  0  0  0  0  0  0  0  0  0  0  0
   10.2776  -17.3051   24.3701 O   0  0  0  0  0  0  0  0  0  0  0  0
    9.2410  -18.2369   24.1742 O   0  0  0  0  0  0  0  0  0  0  0  0
  2  1  1  6
  3  2  1  0
  4  3  1  0
  5  4  1  0
  6  7  1  0
  6  5  1  0
  8  9  2  0
  8  2  1  0
 11 10  1  0
 12 11  2  0
 13 11  1  0
 14 13  1  0
 15 14  1  0
 15 16  1  0
 17 16  1  6
 17 18  1  0
 18  8  1  0
 19 17  1  0
 19 20  2  0
 22 21  1  0
 23 22  2  0
 24 22  1  0
 25 24  1  0
 26 27  1  0
 26 25  1  0
 28 27  1  1
 29 28  1  0
 29 19  1  0
 30 28  1  0
 31 30  1  0
 32 30  2  0
M  END
$$$$
