KRR.pdb
     RDKit          3D

 32 31  0  0  1  0  0  0  0  0999 V2000
    7.3506  -14.1514   17.6551 N   0  0  0  0  0  0  0  0  0  0  0  0
    8.4272  -13.4344   18.3094 C   0  0  1  0  0  0  0  0  0  0  0  0
    7.9617  -12.7916   19.6001 C   0  0  0  0  0  0  0  0  0  0  0  0
    7.3280  -13.8026   20.5264 C   0  0  0  0  0  0  0  0  0  0  0  0
    7.9004  -13.7800   21.9002 C   0  0  0  0  0  0  0  0  0  0  0  0
    7.2263  -14.7411   22.8460 C   0  0  0  0  0  0  0  0  0  0  0  0
    7.7032  -14.6093   24.2031 N   0  0  0  0  0  0  0  0  0  0  0  0
    9.5974  -14.3275   18.5153 C   0  0  0  0  0  0  0  0  0  0  0  0
    9.4154  -15.5919   18.4132 O   0  0  0  0  0  0  0  0  0  0  0  0
   17.8327  -15.0476   15.2659 N   0  0  0  0  0  0  0  0  0  0  0  0
   17.5328  -15.5290   16.5760 C   0  0  0  0  0  0  0  0  0  0  0  0
   18.5057  -15.5485   17.4287 N   0  0  0  0  0  0  0  0  0  0  0  0
   16.2412  -15.9737   16.9516 N   0  0  0  0  0  0  0  0  0  0  0  0
   15.1623  -15.0119   16.9424 C   0  0  0  0  0  0  0  0  0  0  0  0
   14.4031  -14.9853   18.2723 C   0  0  0  0  0  0  0  0  0  0  0  0
   13.2078  -14.0807   18.1621 C   0  0  0  0  0  0  0  0  0  0  0  0
   12.0605  -14.6468   18.9302 C   0  0  2  0  0  0  0  0  0  0  0  0
   10.8762  -13.8054   18.8127 N   0  0  0  0  0  0  0  0  0  0  0  0
   12.2923  -14.9334   20.3411 C   0  0  0  0  0  0  0  0  0  0  0  0
   12.6959  -14.1016   21.1966 O   0  0  0  0  0  0  0  0  0  0  0  0
   18.3188  -15.7962   18.4401 N   0  0  0  0  0  0  0  0  0  0  0  0
   11.5728  -22.4255   25.3873 C   0  0  0  0  0  0  0  0  0  0  0  0
   12.1721  -21.3999   26.1716 N   0  0  0  0  0  0  0  0  0  0  0  0
   12.4869  -21.6448   27.3866 N   0  0  0  0  0  0  0  0  0  0  0  0
   12.4197  -20.1149   25.6009 C   0  0  0  0  0  0  0  0  0  0  0  0
   11.8702  -19.7759   24.3091 C   0  0  0  0  0  0  0  0  0  0  0  0
   12.4439  -18.3830   23.9479 C   0  0  0  0  0  0  0  0  0  0  0  0
   11.9760  -17.9824   22.5760 C   0  0  1  0  0  0  0  0  0  0  0  0
   12.4731  -16.6380   22.2122 N   0  0  0  0  0  0  0  0  0  0  0  0
   12.0625  -16.2458   20.8653 C   0  0  0  0  0  0  0  0  0  0  0  0
   13.9288  -16.4627   22.3749 O   0  0  0  0  0  0  0  0  0  0  0  0
   14.4163  -15.8488   23.5439 O   0  0  0  0  0  0  0  0  0  0  0  0
  2  1  1  1
  3  2  1  0
  4  3  1  0
  5  4  1  0
  6  7  1  0
  6  5  1  0
  8  9  2  0
  8  2  1  0
 11 10  1  0
 12 11  2  0
 13 11  1  0
 14 13  1  0
 15 14  1  0
 15 16  1  0
 17 16  1  1
 17 18  1  0
 18  8  1  0
 19 17  1  0
 19 20  2  0
 22 21  1  0
 23 22  2  0
 24 22  1  0
 25 24  1  0
 26 27  1  0
 26 25  1  0
 28 27  1  1
 29 28  1  0
 29 19  1  0
 30 28  1  0
 31 30  1  0
 32 30  2  0
M  END
$$$$
