KRR.pdb
     RDKit          3D

 32 31  0  0  1  0  0  0  0  0999 V2000
   10.2853  -14.6778   17.0559 N   0  0  0  0  0  0  0  0  0  0  0  0
   10.3746  -14.3669   18.4690 C   0  0  1  0  0  0  0  0  0  0  0  0
    9.1324  -13.6510   18.9590 C   0  0  0  0  0  0  0  0  0  0  0  0
    7.8873  -14.1739   18.2823 C   0  0  0  0  0  0  0  0  0  0  0  0
    6.8543  -13.1251   18.0616 C   0  0  0  0  0  0  0  0  0  0  0  0
    5.5591  -13.6660   17.5118 C   0  0  0  0  0  0  0  0  0  0  0  0
    4.6208  -12.6209   17.1747 N   0  0  0  0  0  0  0  0  0  0  0  0
   10.6634  -15.5952   19.2547 C   0  0  0  0  0  0  0  0  0  0  0  0
   10.6273  -16.7221   18.6457 O   0  0  0  0  0  0  0  0  0  0  0  0
   14.9473  -14.7840   17.3641 N   0  0  0  0  0  0  0  0  0  0  0  0
   15.9067  -14.7130   18.4189 C   0  0  0  0  0  0  0  0  0  0  0  0
   16.6936  -13.6860   18.4254 N   0  0  0  0  0  0  0  0  0  0  0  0
   16.0168  -15.7070   19.4223 N   0  0  0  0  0  0  0  0  0  0  0  0
   14.9403  -16.6627   19.5527 C   0  0  0  0  0  0  0  0  0  0  0  0
   13.7826  -16.1152   20.3928 C   0  0  0  0  0  0  0  0  0  0  0  0
   12.7551  -17.1900   20.6117 C   0  0  0  0  0  0  0  0  0  0  0  0
   11.5832  -16.6392   21.3535 C   0  0  2  0  0  0  0  0  0  0  0  0
   10.9717  -15.5302   20.6320 N   0  0  0  0  0  0  0  0  0  0  0  0
   11.8135  -16.2287   22.7337 C   0  0  0  0  0  0  0  0  0  0  0  0
   12.4002  -15.1730   23.0915 O   0  0  0  0  0  0  0  0  0  0  0  0
   17.4504  -13.6032   19.1601 N   0  0  0  0  0  0  0  0  0  0  0  0
    7.9034  -10.9677   25.8063 C   0  0  0  0  0  0  0  0  0  0  0  0
    7.1642  -11.9836   26.4753 N   0  0  0  0  0  0  0  0  0  0  0  0
    6.1688  -11.6539   27.2073 N   0  0  0  0  0  0  0  0  0  0  0  0
    7.5329  -13.3545   26.3236 C   0  0  0  0  0  0  0  0  0  0  0  0
    8.1032  -13.8199   25.0810 C   0  0  0  0  0  0  0  0  0  0  0  0
    8.3128  -15.3458   25.2469 C   0  0  0  0  0  0  0  0  0  0  0  0
    9.2747  -15.8417   24.2027 C   0  0  2  0  0  0  0  0  0  0  0  0
   10.4072  -16.5660   24.8189 N   0  0  0  0  0  0  0  0  0  0  0  0
   11.3626  -17.0438   23.8210 C   0  0  0  0  0  0  0  0  0  0  0  0
   10.0094  -17.6680   25.7153 O   0  0  0  0  0  0  0  0  0  0  0  0
    9.7684  -17.3901   27.0738 O   0  0  0  0  0  0  0  0  0  0  0  0
  2  1  1  6
  3  2  1  0
  4  3  1  0
  5  4  1  0
  6  7  1  0
  6  5  1  0
  8  9  2  0
  8  2  1  0
 11 10  1  0
 12 11  2  0
 13 11  1  0
 14 13  1  0
 15 14  1  0
 15 16  1  0
 17 16  1  6
 17 18  1  0
 18  8  1  0
 19 17  1  0
 19 20  2  0
 22 21  1  0
 23 22  2  0
 24 22  1  0
 25 24  1  0
 26 27  1  0
 26 25  1  0
 28 27  1  1
 29 28  1  0
 29 19  1  0
 30 28  1  0
 31 30  1  0
 32 30  2  0
M  END
$$$$
