KRR.pdb
     RDKit          3D

 32 31  0  0  1  0  0  0  0  0999 V2000
    6.3067  -15.5141   20.9081 N   0  0  0  0  0  0  0  0  0  0  0  0
    7.7260  -15.4200   20.6286 C   0  0  1  0  0  0  0  0  0  0  0  0
    8.2969  -14.0967   21.0963 C   0  0  0  0  0  0  0  0  0  0  0  0
    7.7379  -12.9396   20.3023 C   0  0  0  0  0  0  0  0  0  0  0  0
    8.2074  -11.6131   20.7877 C   0  0  0  0  0  0  0  0  0  0  0  0
    7.6242  -10.4537   20.0208 C   0  0  0  0  0  0  0  0  0  0  0  0
    8.0150   -9.1751   20.5674 N   0  0  0  0  0  0  0  0  0  0  0  0
    8.4488  -16.5817   21.2094 C   0  0  0  0  0  0  0  0  0  0  0  0
    7.7670  -17.4534   21.8556 O   0  0  0  0  0  0  0  0  0  0  0  0
   13.0734  -20.9836   18.6512 N   0  0  0  0  0  0  0  0  0  0  0  0
   14.2664  -20.4445   19.2206 C   0  0  0  0  0  0  0  0  0  0  0  0
   15.2008  -21.2859   19.5252 N   0  0  0  0  0  0  0  0  0  0  0  0
   14.4448  -19.0588   19.4552 N   0  0  0  0  0  0  0  0  0  0  0  0
   13.4125  -18.1546   19.0016 C   0  0  0  0  0  0  0  0  0  0  0  0
   12.5892  -17.5909   20.1635 C   0  0  0  0  0  0  0  0  0  0  0  0
   11.4160  -18.4878   20.4429 C   0  0  0  0  0  0  0  0  0  0  0  0
   10.5678  -17.9052   21.5238 C   0  0  2  0  0  0  0  0  0  0  0  0
    9.8456  -16.7289   21.0560 N   0  0  0  0  0  0  0  0  0  0  0  0
   11.2361  -17.5757   22.7773 C   0  0  0  0  0  0  0  0  0  0  0  0
   12.0697  -18.3085   23.3729 O   0  0  0  0  0  0  0  0  0  0  0  0
   16.1296  -20.9363   19.8920 N   0  0  0  0  0  0  0  0  0  0  0  0
    7.1146  -11.1528   25.7518 C   0  0  0  0  0  0  0  0  0  0  0  0
    6.7401  -12.4640   26.1601 N   0  0  0  0  0  0  0  0  0  0  0  0
    5.5449  -12.6766   26.5621 N   0  0  0  0  0  0  0  0  0  0  0  0
    7.6923  -13.5268   26.1152 C   0  0  0  0  0  0  0  0  0  0  0  0
    7.2751  -14.8866   26.3655 C   0  0  0  0  0  0  0  0  0  0  0  0
    8.5550  -15.7546   26.2743 C   0  0  0  0  0  0  0  0  0  0  0  0
    9.0958  -15.7142   24.8716 C   0  0  1  0  0  0  0  0  0  0  0  0
   10.4662  -16.2666   24.8102 N   0  0  0  0  0  0  0  0  0  0  0  0
   10.9707  -16.3346   23.4400 C   0  0  0  0  0  0  0  0  0  0  0  0
   10.6273  -17.5710   25.4801 O   0  0  0  0  0  0  0  0  0  0  0  0
   11.5858  -17.6998   26.5027 O   0  0  0  0  0  0  0  0  0  0  0  0
  2  1  1  1
  3  2  1  0
  4  3  1  0
  5  4  1  0
  6  7  1  0
  6  5  1  0
  8  9  2  0
  8  2  1  0
 11 10  1  0
 12 11  2  0
 13 11  1  0
 14 13  1  0
 15 14  1  0
 15 16  1  0
 17 16  1  6
 17 18  1  0
 18  8  1  0
 19 17  1  0
 19 20  2  0
 22 21  1  0
 23 22  2  0
 24 22  1  0
 25 24  1  0
 26 27  1  0
 26 25  1  0
 28 27  1  1
 29 28  1  0
 29 19  1  0
 30 28  1  0
 31 30  1  0
 32 30  2  0
M  END
$$$$
