KRR.pdb
     RDKit          3D

 32 31  0  0  1  0  0  0  0  0999 V2000
    8.1422  -20.8062   18.5603 N   0  0  0  0  0  0  0  0  0  0  0  0
    7.0656  -19.9763   19.0637 C   0  0  1  0  0  0  0  0  0  0  0  0
    5.9361  -20.8144   19.6271 C   0  0  0  0  0  0  0  0  0  0  0  0
    6.2556  -22.2895   19.5655 C   0  0  0  0  0  0  0  0  0  0  0  0
    5.1977  -23.1452   20.1691 C   0  0  0  0  0  0  0  0  0  0  0  0
    5.4454  -24.6211   19.9883 C   0  0  0  0  0  0  0  0  0  0  0  0
    4.4429  -25.4347   20.6360 N   0  0  0  0  0  0  0  0  0  0  0  0
    7.5842  -18.9937   20.0512 C   0  0  0  0  0  0  0  0  0  0  0  0
    8.8032  -19.1067   20.4299 O   0  0  0  0  0  0  0  0  0  0  0  0
   10.0522  -12.8929   19.5344 N   0  0  0  0  0  0  0  0  0  0  0  0
    8.8833  -12.8545   18.7157 C   0  0  0  0  0  0  0  0  0  0  0  0
    9.0567  -12.9986   17.4417 N   0  0  0  0  0  0  0  0  0  0  0  0
    7.5830  -12.6657   19.2455 N   0  0  0  0  0  0  0  0  0  0  0  0
    7.2096  -13.4260   20.4167 C   0  0  0  0  0  0  0  0  0  0  0  0
    7.1561  -14.9303   20.1339 C   0  0  0  0  0  0  0  0  0  0  0  0
    6.5684  -15.6530   21.3134 C   0  0  0  0  0  0  0  0  0  0  0  0
    7.2515  -16.9657   21.5062 C   0  0  2  0  0  0  0  0  0  0  0  0
    6.7644  -17.9616   20.5599 N   0  0  0  0  0  0  0  0  0  0  0  0
    7.2111  -17.5362   22.8476 C   0  0  0  0  0  0  0  0  0  0  0  0
    6.1637  -17.8079   23.4924 O   0  0  0  0  0  0  0  0  0  0  0  0
    8.2363  -12.9003   16.7809 N   0  0  0  0  0  0  0  0  0  0  0  0
   10.7897  -15.2459   30.8524 C   0  0  0  0  0  0  0  0  0  0  0  0
   10.3635  -14.5352   29.6950 N   0  0  0  0  0  0  0  0  0  0  0  0
    9.8813  -13.3581   29.8260 N   0  0  0  0  0  0  0  0  0  0  0  0
   10.4792  -15.1344   28.4043 C   0  0  0  0  0  0  0  0  0  0  0  0
    9.4319  -14.9586   27.4256 C   0  0  0  0  0  0  0  0  0  0  0  0
    9.0196  -16.3820   26.9741 C   0  0  0  0  0  0  0  0  0  0  0  0
    8.9782  -16.4452   25.4721 C   0  0  1  0  0  0  0  0  0  0  0  0
    8.5268  -17.7734   25.0044 N   0  0  0  0  0  0  0  0  0  0  0  0
    8.4231  -17.8375   23.5478 C   0  0  0  0  0  0  0  0  0  0  0  0
    7.2758  -18.2454   25.6277 O   0  0  0  0  0  0  0  0  0  0  0  0
    6.0630  -17.6190   25.2842 O   0  0  0  0  0  0  0  0  0  0  0  0
  2  1  1  1
  3  2  1  0
  4  3  1  0
  5  4  1  0
  6  7  1  0
  6  5  1  0
  8  9  2  0
  8  2  1  0
 11 10  1  0
 12 11  2  0
 13 11  1  0
 14 13  1  0
 15 14  1  0
 15 16  1  0
 17 16  1  1
 17 18  1  0
 18  8  1  0
 19 17  1  0
 19 20  2  0
 22 21  1  0
 23 22  2  0
 24 22  1  0
 25 24  1  0
 26 27  1  0
 26 25  1  0
 28 27  1  6
 29 28  1  0
 29 19  1  0
 30 28  1  0
 31 30  1  0
 32 30  2  0
M  END
$$$$
