KRR.pdb
     RDKit          3D

 32 31  0  0  1  0  0  0  0  0999 V2000
    7.9839  -19.6512   16.2999 N   0  0  0  0  0  0  0  0  0  0  0  0
    7.2078  -19.3716   17.4919 C   0  0  1  0  0  0  0  0  0  0  0  0
    6.9418  -20.6323   18.2891 C   0  0  0  0  0  0  0  0  0  0  0  0
    7.6879  -21.8162   17.7204 C   0  0  0  0  0  0  0  0  0  0  0  0
    7.4561  -23.0759   18.4787 C   0  0  0  0  0  0  0  0  0  0  0  0
    8.1023  -24.2827   17.8477 C   0  0  0  0  0  0  0  0  0  0  0  0
    7.9736  -25.4693   18.6613 N   0  0  0  0  0  0  0  0  0  0  0  0
    7.8677  -18.3185   18.3073 C   0  0  0  0  0  0  0  0  0  0  0  0
    9.1485  -18.2756   18.3131 O   0  0  0  0  0  0  0  0  0  0  0  0
    9.2346  -14.0989   18.5347 N   0  0  0  0  0  0  0  0  0  0  0  0
    9.6781  -13.0788   19.4295 C   0  0  0  0  0  0  0  0  0  0  0  0
   10.7675  -12.4567   19.1132 N   0  0  0  0  0  0  0  0  0  0  0  0
    8.9803  -12.7446   20.6163 N   0  0  0  0  0  0  0  0  0  0  0  0
    7.5802  -13.0932   20.7022 C   0  0  0  0  0  0  0  0  0  0  0  0
    7.3648  -14.4488   21.3818 C   0  0  0  0  0  0  0  0  0  0  0  0
    6.7213  -15.4078   20.4200 C   0  0  0  0  0  0  0  0  0  0  0  0
    7.7289  -16.3868   19.9166 C   0  0  2  0  0  0  0  0  0  0  0  0
    7.1123  -17.3874   19.0546 N   0  0  0  0  0  0  0  0  0  0  0  0
    8.5396  -17.0687   20.9188 C   0  0  0  0  0  0  0  0  0  0  0  0
    8.1537  -18.0279   21.6382 O   0  0  0  0  0  0  0  0  0  0  0  0
   11.0968  -11.6362   19.6943 N   0  0  0  0  0  0  0  0  0  0  0  0
   14.3937  -21.9408   20.9089 C   0  0  0  0  0  0  0  0  0  0  0  0
   14.9227  -21.4298   22.1276 N   0  0  0  0  0  0  0  0  0  0  0  0
   15.4647  -22.2346   22.9605 N   0  0  0  0  0  0  0  0  0  0  0  0
   14.8491  -20.0321   22.4094 C   0  0  0  0  0  0  0  0  0  0  0  0
   14.1432  -19.1468   21.5130 C   0  0  0  0  0  0  0  0  0  0  0  0
   12.8753  -18.6836   22.2732 C   0  0  0  0  0  0  0  0  0  0  0  0
   12.0255  -17.8326   21.3703 C   0  0  2  0  0  0  0  0  0  0  0  0
   10.7857  -17.4018   22.0515 N   0  0  0  0  0  0  0  0  0  0  0  0
    9.8933  -16.6675   21.1566 C   0  0  0  0  0  0  0  0  0  0  0  0
   11.0078  -16.6370   23.2933 O   0  0  0  0  0  0  0  0  0  0  0  0
   10.7930  -15.2461   23.2864 O   0  0  0  0  0  0  0  0  0  0  0  0
  2  1  1  6
  3  2  1  0
  4  3  1  0
  5  4  1  0
  6  7  1  0
  6  5  1  0
  8  9  2  0
  8  2  1  0
 11 10  1  0
 12 11  2  0
 13 11  1  0
 14 13  1  0
 15 14  1  0
 15 16  1  0
 17 16  1  1
 17 18  1  0
 18  8  1  0
 19 17  1  0
 19 20  2  0
 22 21  1  0
 23 22  2  0
 24 22  1  0
 25 24  1  0
 26 27  1  0
 26 25  1  0
 28 27  1  6
 29 28  1  0
 29 19  1  0
 30 28  1  0
 31 30  1  0
 32 30  2  0
M  END
$$$$
