KRR.pdb
     RDKit          3D

 32 31  0  0  1  0  0  0  0  0999 V2000
   11.2348  -20.1109   18.7119 N   0  0  0  0  0  0  0  0  0  0  0  0
   10.1542  -19.5809   19.5198 C   0  0  1  0  0  0  0  0  0  0  0  0
    9.7423  -20.5560   20.6039 C   0  0  0  0  0  0  0  0  0  0  0  0
    9.8697  -21.9878   20.1400 C   0  0  0  0  0  0  0  0  0  0  0  0
   11.0596  -22.6836   20.7019 C   0  0  0  0  0  0  0  0  0  0  0  0
   11.1045  -24.1541   20.3733 C   0  0  0  0  0  0  0  0  0  0  0  0
   12.2645  -24.8110   20.9293 N   0  0  0  0  0  0  0  0  0  0  0  0
   10.5204  -18.2494   20.0696 C   0  0  0  0  0  0  0  0  0  0  0  0
   11.7433  -17.8766   19.9804 O   0  0  0  0  0  0  0  0  0  0  0  0
    8.7257  -12.2162   18.0033 N   0  0  0  0  0  0  0  0  0  0  0  0
    7.8275  -13.1470   17.3992 C   0  0  0  0  0  0  0  0  0  0  0  0
    7.9561  -13.3420   16.1266 N   0  0  0  0  0  0  0  0  0  0  0  0
    6.8309  -13.8364   18.1331 N   0  0  0  0  0  0  0  0  0  0  0  0
    7.1105  -14.1691   19.5115 C   0  0  0  0  0  0  0  0  0  0  0  0
    8.5204  -14.7397   19.6918 C   0  0  0  0  0  0  0  0  0  0  0  0
    8.7219  -15.1670   21.1186 C   0  0  0  0  0  0  0  0  0  0  0  0
    9.8812  -16.1014   21.2178 C   0  0  2  0  0  0  0  0  0  0  0  0
    9.5544  -17.4128   20.6721 N   0  0  0  0  0  0  0  0  0  0  0  0
   10.4703  -16.2788   22.5399 C   0  0  0  0  0  0  0  0  0  0  0  0
   10.0678  -17.0920   23.4137 O   0  0  0  0  0  0  0  0  0  0  0  0
    7.3629  -14.0702   15.6396 N   0  0  0  0  0  0  0  0  0  0  0  0
   10.2526  -16.3630   30.5959 C   0  0  0  0  0  0  0  0  0  0  0  0
   10.6797  -15.2134   29.8733 N   0  0  0  0  0  0  0  0  0  0  0  0
   10.4316  -14.0506   30.3442 N   0  0  0  0  0  0  0  0  0  0  0  0
   11.3804  -15.3637   28.6385 C   0  0  0  0  0  0  0  0  0  0  0  0
   11.0601  -16.4563   27.7502 C   0  0  0  0  0  0  0  0  0  0  0  0
   12.0728  -16.3731   26.5808 C   0  0  0  0  0  0  0  0  0  0  0  0
   11.3428  -16.0875   25.2974 C   0  0  1  0  0  0  0  0  0  0  0  0
   12.2818  -15.7038   24.2214 N   0  0  0  0  0  0  0  0  0  0  0  0
   11.6006  -15.4986   22.9445 C   0  0  0  0  0  0  0  0  0  0  0  0
   13.4215  -16.6248   24.0511 O   0  0  0  0  0  0  0  0  0  0  0  0
   13.1801  -17.9320   23.5887 O   0  0  0  0  0  0  0  0  0  0  0  0
  2  1  1  1
  3  2  1  0
  4  3  1  0
  5  4  1  0
  6  7  1  0
  6  5  1  0
  8  9  2  0
  8  2  1  0
 11 10  1  0
 12 11  2  0
 13 11  1  0
 14 13  1  0
 15 14  1  0
 15 16  1  0
 17 16  1  1
 17 18  1  0
 18  8  1  0
 19 17  1  0
 19 20  2  0
 22 21  1  0
 23 22  2  0
 24 22  1  0
 25 24  1  0
 26 27  1  0
 26 25  1  0
 28 27  1  1
 29 28  1  0
 29 19  1  0
 30 28  1  0
 31 30  1  0
 32 30  2  0
M  END
$$$$
