KRR.pdb
     RDKit          3D

 32 31  0  0  1  0  0  0  0  0999 V2000
   10.0226  -16.1228   13.4084 N   0  0  0  0  0  0  0  0  0  0  0  0
    9.4362  -16.8997   14.4826 C   0  0  1  0  0  0  0  0  0  0  0  0
    9.8604  -18.3525   14.4121 C   0  0  0  0  0  0  0  0  0  0  0  0
   11.3141  -18.5247   14.7846 C   0  0  0  0  0  0  0  0  0  0  0  0
   11.7765  -19.9375   14.7079 C   0  0  0  0  0  0  0  0  0  0  0  0
   13.2151  -20.1203   15.1197 C   0  0  0  0  0  0  0  0  0  0  0  0
   13.6476  -21.4953   15.0271 N   0  0  0  0  0  0  0  0  0  0  0  0
    9.7484  -16.2852   15.7996 C   0  0  0  0  0  0  0  0  0  0  0  0
   10.8197  -15.5892   15.9006 O   0  0  0  0  0  0  0  0  0  0  0  0
    7.4062  -11.8718   23.3539 N   0  0  0  0  0  0  0  0  0  0  0  0
    7.2905  -12.7298   22.2188 C   0  0  0  0  0  0  0  0  0  0  0  0
    7.3915  -12.1754   21.0541 N   0  0  0  0  0  0  0  0  0  0  0  0
    7.0720  -14.1249   22.3323 N   0  0  0  0  0  0  0  0  0  0  0  0
    6.8805  -14.8835   21.1170 C   0  0  0  0  0  0  0  0  0  0  0  0
    8.1582  -14.9555   20.2756 C   0  0  0  0  0  0  0  0  0  0  0  0
    7.8896  -15.7011   18.9985 C   0  0  0  0  0  0  0  0  0  0  0  0
    9.1445  -15.8254   18.2006 C   0  0  2  0  0  0  0  0  0  0  0  0
    8.8934  -16.4569   16.9112 N   0  0  0  0  0  0  0  0  0  0  0  0
   10.2662  -16.5015   18.8418 C   0  0  0  0  0  0  0  0  0  0  0  0
   10.5896  -17.7057   18.6629 O   0  0  0  0  0  0  0  0  0  0  0  0
    7.2307  -12.7480   20.1791 N   0  0  0  0  0  0  0  0  0  0  0  0
   17.1253  -13.1219   19.3149 C   0  0  0  0  0  0  0  0  0  0  0  0
   17.5321  -13.9496   18.2307 N   0  0  0  0  0  0  0  0  0  0  0  0
   18.7724  -14.2247   18.0846 N   0  0  0  0  0  0  0  0  0  0  0  0
   16.5604  -14.4671   17.3216 C   0  0  0  0  0  0  0  0  0  0  0  0
   15.1636  -14.1406   17.4883 C   0  0  0  0  0  0  0  0  0  0  0  0
   14.6177  -15.1146   18.5622 C   0  0  0  0  0  0  0  0  0  0  0  0
   13.1294  -14.9428   18.6926 C   0  0  2  0  0  0  0  0  0  0  0  0
   12.5696  -15.8703   19.6992 N   0  0  0  0  0  0  0  0  0  0  0  0
   11.1109  -15.7999   19.7606 C   0  0  0  0  0  0  0  0  0  0  0  0
   13.1462  -15.7237   21.0491 O   0  0  0  0  0  0  0  0  0  0  0  0
   12.2887  -15.7522   22.1648 O   0  0  0  0  0  0  0  0  0  0  0  0
  2  1  1  6
  3  2  1  0
  4  3  1  0
  5  4  1  0
  6  7  1  0
  6  5  1  0
  8  9  2  0
  8  2  1  0
 11 10  1  0
 12 11  2  0
 13 11  1  0
 14 13  1  0
 15 14  1  0
 15 16  1  0
 17 16  1  1
 17 18  1  0
 18  8  1  0
 19 17  1  0
 19 20  2  0
 22 21  1  0
 23 22  2  0
 24 22  1  0
 25 24  1  0
 26 27  1  0
 26 25  1  0
 28 27  1  6
 29 28  1  0
 29 19  1  0
 30 28  1  0
 31 30  1  0
 32 30  2  0
M  END
$$$$
