KRR.pdb
     RDKit          3D

 32 31  0  0  1  0  0  0  0  0999 V2000
    5.9118  -22.1249   22.0199 N   0  0  0  0  0  0  0  0  0  0  0  0
    5.5251  -20.9703   22.8065 C   0  0  1  0  0  0  0  0  0  0  0  0
    5.2553  -21.3470   24.2490 C   0  0  0  0  0  0  0  0  0  0  0  0
    4.2325  -22.4537   24.3516 C   0  0  0  0  0  0  0  0  0  0  0  0
    3.8526  -22.7741   25.7546 C   0  0  0  0  0  0  0  0  0  0  0  0
    2.9249  -23.9568   25.8691 C   0  0  0  0  0  0  0  0  0  0  0  0
    2.6357  -24.3036   27.2411 N   0  0  0  0  0  0  0  0  0  0  0  0
    6.5436  -19.8943   22.6865 C   0  0  0  0  0  0  0  0  0  0  0  0
    7.7801  -20.2268   22.7398 O   0  0  0  0  0  0  0  0  0  0  0  0
    7.9014  -11.5099   19.7563 N   0  0  0  0  0  0  0  0  0  0  0  0
    8.0185  -12.7962   19.1482 C   0  0  0  0  0  0  0  0  0  0  0  0
    8.7060  -12.8654   18.0544 N   0  0  0  0  0  0  0  0  0  0  0  0
    7.4183  -13.9582   19.6926 N   0  0  0  0  0  0  0  0  0  0  0  0
    7.0077  -13.9253   21.0780 C   0  0  0  0  0  0  0  0  0  0  0  0
    7.5607  -15.1132   21.8710 C   0  0  0  0  0  0  0  0  0  0  0  0
    6.5249  -16.1989   21.9568 C   0  0  0  0  0  0  0  0  0  0  0  0
    7.1382  -17.4566   22.4756 C   0  0  2  0  0  0  0  0  0  0  0  0
    6.1676  -18.5431   22.5163 N   0  0  0  0  0  0  0  0  0  0  0  0
    7.8051  -17.3767   23.7700 C   0  0  0  0  0  0  0  0  0  0  0  0
    7.2244  -17.3216   24.8864 O   0  0  0  0  0  0  0  0  0  0  0  0
    8.7568  -13.7755   17.5173 N   0  0  0  0  0  0  0  0  0  0  0  0
   10.8636  -19.0248   30.9805 C   0  0  0  0  0  0  0  0  0  0  0  0
   10.6474  -20.1738   30.1686 N   0  0  0  0  0  0  0  0  0  0  0  0
   10.9573  -21.3283   30.6229 N   0  0  0  0  0  0  0  0  0  0  0  0
   10.0868  -20.0324   28.8632 C   0  0  0  0  0  0  0  0  0  0  0  0
   10.9494  -19.8808   27.7149 C   0  0  0  0  0  0  0  0  0  0  0  0
   10.6784  -18.4618   27.1557 C   0  0  0  0  0  0  0  0  0  0  0  0
    9.9353  -18.5641   25.8522 C   0  0  1  0  0  0  0  0  0  0  0  0
    9.9471  -17.2756   25.1266 N   0  0  0  0  0  0  0  0  0  0  0  0
    9.2343  -17.3552   23.8530 C   0  0  0  0  0  0  0  0  0  0  0  0
   11.2916  -16.7027   24.9256 O   0  0  0  0  0  0  0  0  0  0  0  0
   11.6795  -16.3087   23.6313 O   0  0  0  0  0  0  0  0  0  0  0  0
  2  1  1  6
  3  2  1  0
  4  3  1  0
  5  4  1  0
  6  7  1  0
  6  5  1  0
  8  9  2  0
  8  2  1  0
 11 10  1  0
 12 11  2  0
 13 11  1  0
 14 13  1  0
 15 14  1  0
 15 16  1  0
 17 16  1  1
 17 18  1  0
 18  8  1  0
 19 17  1  0
 19 20  2  0
 22 21  1  0
 23 22  2  0
 24 22  1  0
 25 24  1  0
 26 27  1  0
 26 25  1  0
 28 27  1  1
 29 28  1  0
 29 19  1  0
 30 28  1  0
 31 30  1  0
 32 30  2  0
M  END
$$$$
