KRR.pdb
     RDKit          3D

 32 31  0  0  1  0  0  0  0  0999 V2000
   11.8716  -18.3914   19.0425 N   0  0  0  0  0  0  0  0  0  0  0  0
   10.6506  -18.5976   19.7963 C   0  0  1  0  0  0  0  0  0  0  0  0
   10.6013  -19.9847   20.4038 C   0  0  0  0  0  0  0  0  0  0  0  0
   11.9575  -20.6495   20.3798 C   0  0  0  0  0  0  0  0  0  0  0  0
   11.9298  -22.0577   20.8613 C   0  0  0  0  0  0  0  0  0  0  0  0
   13.2940  -22.6960   20.9251 C   0  0  0  0  0  0  0  0  0  0  0  0
   13.2533  -24.0385   21.4566 N   0  0  0  0  0  0  0  0  0  0  0  0
   10.4824  -17.5298   20.8165 C   0  0  0  0  0  0  0  0  0  0  0  0
   11.4929  -17.2279   21.5445 O   0  0  0  0  0  0  0  0  0  0  0  0
    7.3366  -13.8100   16.1573 N   0  0  0  0  0  0  0  0  0  0  0  0
    7.6352  -13.3734   17.4833 C   0  0  0  0  0  0  0  0  0  0  0  0
    8.7761  -12.7903   17.6639 N   0  0  0  0  0  0  0  0  0  0  0  0
    6.7451  -13.5593   18.5696 N   0  0  0  0  0  0  0  0  0  0  0  0
    7.1872  -13.1590   19.8862 C   0  0  0  0  0  0  0  0  0  0  0  0
    8.3743  -13.9948   20.3741 C   0  0  0  0  0  0  0  0  0  0  0  0
    7.9480  -14.8719   21.5178 C   0  0  0  0  0  0  0  0  0  0  0  0
    9.0704  -15.7657   21.9279 C   0  0  2  0  0  0  0  0  0  0  0  0
    9.2490  -16.8612   20.9832 N   0  0  0  0  0  0  0  0  0  0  0  0
    9.0120  -16.3165   23.2768 C   0  0  0  0  0  0  0  0  0  0  0  0
    8.2983  -17.2904   23.6357 O   0  0  0  0  0  0  0  0  0  0  0  0
    9.1061  -12.5639   18.6432 N   0  0  0  0  0  0  0  0  0  0  0  0
   13.7642  -20.4423   29.0232 C   0  0  0  0  0  0  0  0  0  0  0  0
   12.4683  -20.2286   29.5720 N   0  0  0  0  0  0  0  0  0  0  0  0
   12.0672  -20.9678   30.5353 N   0  0  0  0  0  0  0  0  0  0  0  0
   11.6317  -19.1960   29.0505 C   0  0  0  0  0  0  0  0  0  0  0  0
   11.8863  -18.6482   27.7387 C   0  0  0  0  0  0  0  0  0  0  0  0
   10.6954  -17.7085   27.4246 C   0  0  0  0  0  0  0  0  0  0  0  0
   10.8540  -17.1334   26.0442 C   0  0  2  0  0  0  0  0  0  0  0  0
    9.7324  -16.2300   25.7084 N   0  0  0  0  0  0  0  0  0  0  0  0
    9.8041  -15.7537   24.3284 C   0  0  0  0  0  0  0  0  0  0  0  0
    9.5684  -15.0932   26.6343 O   0  0  0  0  0  0  0  0  0  0  0  0
    9.2193  -15.3482   27.9737 O   0  0  0  0  0  0  0  0  0  0  0  0
  2  1  1  1
  3  2  1  0
  4  3  1  0
  5  4  1  0
  6  7  1  0
  6  5  1  0
  8  9  2  0
  8  2  1  0
 11 10  1  0
 12 11  2  0
 13 11  1  0
 14 13  1  0
 15 14  1  0
 15 16  1  0
 17 16  1  6
 17 18  1  0
 18  8  1  0
 19 17  1  0
 19 20  2  0
 22 21  1  0
 23 22  2  0
 24 22  1  0
 25 24  1  0
 26 27  1  0
 26 25  1  0
 28 27  1  6
 29 28  1  0
 29 19  1  0
 30 28  1  0
 31 30  1  0
 32 30  2  0
M  END
$$$$
