KRR.pdb
     RDKit          3D

 32 31  0  0  1  0  0  0  0  0999 V2000
    8.8513  -17.0463   13.9827 N   0  0  0  0  0  0  0  0  0  0  0  0
    8.2130  -17.9514   14.9179 C   0  0  1  0  0  0  0  0  0  0  0  0
    7.0242  -18.6501   14.2901 C   0  0  0  0  0  0  0  0  0  0  0  0
    6.6464  -18.0233   12.9687 C   0  0  0  0  0  0  0  0  0  0  0  0
    5.5448  -17.0289   13.0841 C   0  0  0  0  0  0  0  0  0  0  0  0
    5.2037  -16.3583   11.7778 C   0  0  0  0  0  0  0  0  0  0  0  0
    4.2758  -17.1301   10.9843 N   0  0  0  0  0  0  0  0  0  0  0  0
    9.2034  -18.9122   15.4705 C   0  0  0  0  0  0  0  0  0  0  0  0
    8.7691  -19.8716   16.2007 O   0  0  0  0  0  0  0  0  0  0  0  0
   16.1139  -22.4053   12.5473 N   0  0  0  0  0  0  0  0  0  0  0  0
   16.4451  -22.5639   13.9269 C   0  0  0  0  0  0  0  0  0  0  0  0
   17.1268  -23.6158   14.2474 N   0  0  0  0  0  0  0  0  0  0  0  0
   16.0560  -21.6316   14.9201 N   0  0  0  0  0  0  0  0  0  0  0  0
   15.1069  -20.6050   14.5536 C   0  0  0  0  0  0  0  0  0  0  0  0
   13.7935  -20.7305   15.3315 C   0  0  0  0  0  0  0  0  0  0  0  0
   12.8059  -19.7109   14.8377 C   0  0  0  0  0  0  0  0  0  0  0  0
   11.5730  -19.7384   15.6781 C   0  0  2  0  0  0  0  0  0  0  0  0
   10.5841  -18.7797   15.2014 N   0  0  0  0  0  0  0  0  0  0  0  0
   11.7521  -19.5509   17.1131 C   0  0  0  0  0  0  0  0  0  0  0  0
   12.1261  -18.4832   17.6671 O   0  0  0  0  0  0  0  0  0  0  0  0
   17.3744  -23.7986   15.2596 N   0  0  0  0  0  0  0  0  0  0  0  0
    9.4364  -25.2352   23.0888 C   0  0  0  0  0  0  0  0  0  0  0  0
   10.5074  -25.0819   22.1638 N   0  0  0  0  0  0  0  0  0  0  0  0
   11.1261  -26.1198   21.7452 N   0  0  0  0  0  0  0  0  0  0  0  0
   10.8796  -23.7807   21.7092 C   0  0  0  0  0  0  0  0  0  0  0  0
   10.4217  -22.6065   22.4144 C   0  0  0  0  0  0  0  0  0  0  0  0
   11.0550  -21.3929   21.6892 C   0  0  0  0  0  0  0  0  0  0  0  0
   11.0083  -21.6102   20.2019 C   0  0  2  0  0  0  0  0  0  0  0  0
   11.5998  -20.4664   19.4748 N   0  0  0  0  0  0  0  0  0  0  0  0
   11.5000  -20.6253   18.0252 C   0  0  0  0  0  0  0  0  0  0  0  0
   12.9885  -20.1524   19.8608 O   0  0  0  0  0  0  0  0  0  0  0  0
   13.2184  -19.1860   20.8580 O   0  0  0  0  0  0  0  0  0  0  0  0
  2  1  1  6
  3  2  1  0
  4  3  1  0
  5  4  1  0
  6  7  1  0
  6  5  1  0
  8  9  2  0
  8  2  1  0
 11 10  1  0
 12 11  2  0
 13 11  1  0
 14 13  1  0
 15 14  1  0
 15 16  1  0
 17 16  1  6
 17 18  1  0
 18  8  1  0
 19 17  1  0
 19 20  2  0
 22 21  1  0
 23 22  2  0
 24 22  1  0
 25 24  1  0
 26 27  1  0
 26 25  1  0
 28 27  1  1
 29 28  1  0
 29 19  1  0
 30 28  1  0
 31 30  1  0
 32 30  2  0
M  END
$$$$
