GKN.pdb
     RDKit          3D

 22 21  0  0  1  0  0  0  0  0999 V2000
   28.5629  -21.9018  -16.1613 N   0  0  0  0  0  0  0  0  0  0  0  0
   27.9716  -20.7854  -15.4612 C   0  0  0  0  0  0  0  0  0  0  0  0
   26.8917  -21.2036  -14.5078 C   0  0  0  0  0  0  0  0  0  0  0  0
   26.3356  -22.2807  -14.7211 O   0  0  0  0  0  0  0  0  0  0  0  0
   26.4970  -20.4239  -13.4093 N   0  0  0  0  0  0  0  0  0  0  0  0
   25.4621  -20.6260  -12.4976 C   0  0  1  0  0  0  0  0  0  0  0  0
   25.4558  -19.8809  -11.1733 C   0  0  0  0  0  0  0  0  0  0  0  0
   24.2935  -20.1307  -10.2957 C   0  0  0  0  0  0  0  0  0  0  0  0
   24.6061  -21.2971   -9.3493 C   0  0  0  0  0  0  0  0  0  0  0  0
   23.4260  -21.7080   -8.5302 C   0  0  0  0  0  0  0  0  0  0  0  0
   23.3518  -20.7648   -7.4325 N   0  0  0  0  0  0  0  0  0  0  0  0
   24.0937  -20.4656  -13.0013 C   0  0  0  0  0  0  0  0  0  0  0  0
   23.8888  -19.3123  -13.5556 O   0  0  0  0  0  0  0  0  0  0  0  0
   22.5618  -23.9782  -15.5870 N   0  0  0  0  0  0  0  0  0  0  0  0
   22.0258  -22.6538  -15.4774 C   0  0  0  0  0  0  0  0  0  0  0  0
   22.3109  -21.8705  -16.4179 O   0  0  0  0  0  0  0  0  0  0  0  0
   21.2004  -22.2235  -14.3463 C   0  0  0  0  0  0  0  0  0  0  0  0
   21.8007  -21.0097  -13.6747 C   0  0  2  0  0  0  0  0  0  0  0  0
   23.0279  -21.3438  -12.9774 N   0  0  0  0  0  0  0  0  0  0  0  0
   20.7796  -20.4052  -12.7612 C   0  0  0  0  0  0  0  0  0  0  0  0
   20.0355  -19.3163  -13.1030 O   0  0  0  0  0  0  0  0  0  0  0  0
   20.6423  -20.9711  -11.6357 O   0  0  0  0  0  0  0  0  0  0  0  0
  1  2  1  0
  2  3  1  0
  3  4  2  0
  3  5  1  0
  5  6  1  0
  6 12  1  0
  6  7  1  1
  8  7  1  0
  9  8  1  0
 10  9  1  0
 10 11  1  0
 12 13  2  0
 12 19  1  0
 15 17  1  0
 15 14  1  0
 16 15  2  0
 18 20  1  0
 18 17  1  1
 19 18  1  0
 20 21  1  0
 22 20  2  0
M  END
$$$$
