GKN.pdb
     RDKit          3D

 22 21  0  0  1  0  0  0  0  0999 V2000
   17.6678  -25.7399   -5.3854 N   0  0  0  0  0  0  0  0  0  0  0  0
   16.2704  -25.6910   -5.0231 C   0  0  0  0  0  0  0  0  0  0  0  0
   15.9311  -24.5004   -4.1763 C   0  0  0  0  0  0  0  0  0  0  0  0
   16.8656  -23.8967   -3.6498 O   0  0  0  0  0  0  0  0  0  0  0  0
   14.6141  -24.0643   -3.9622 N   0  0  0  0  0  0  0  0  0  0  0  0
   14.1476  -22.9001   -3.3539 C   0  0  1  0  0  0  0  0  0  0  0  0
   12.8677  -22.2436   -3.8439 C   0  0  0  0  0  0  0  0  0  0  0  0
   12.9406  -21.5920   -5.1681 C   0  0  0  0  0  0  0  0  0  0  0  0
   11.5769  -20.9805   -5.5150 C   0  0  0  0  0  0  0  0  0  0  0  0
   11.5283  -20.4280   -6.9025 C   0  0  0  0  0  0  0  0  0  0  0  0
   10.1584  -20.0080   -7.1190 N   0  0  0  0  0  0  0  0  0  0  0  0
   13.9952  -22.9292   -1.8951 C   0  0  0  0  0  0  0  0  0  0  0  0
   13.4685  -24.0311   -1.4618 O   0  0  0  0  0  0  0  0  0  0  0  0
   13.8990  -22.7255    3.2015 N   0  0  0  0  0  0  0  0  0  0  0  0
   15.1814  -22.3712    2.6692 C   0  0  0  0  0  0  0  0  0  0  0  0
   16.1036  -22.2369    3.5122 O   0  0  0  0  0  0  0  0  0  0  0  0
   15.4178  -22.1708    1.2375 C   0  0  0  0  0  0  0  0  0  0  0  0
   14.1244  -22.2671    0.4611 C   0  0  2  0  0  0  0  0  0  0  0  0
   14.3300  -21.9830   -0.9463 N   0  0  0  0  0  0  0  0  0  0  0  0
   13.1165  -21.3490    1.0806 C   0  0  0  0  0  0  0  0  0  0  0  0
   12.5398  -20.3189    0.4006 O   0  0  0  0  0  0  0  0  0  0  0  0
   12.8236  -21.5867    2.2904 O   0  0  0  0  0  0  0  0  0  0  0  0
  1  2  1  0
  2  3  1  0
  3  4  2  0
  3  5  1  0
  5  6  1  0
  6 12  1  0
  6  7  1  6
  8  7  1  0
  9  8  1  0
 10  9  1  0
 10 11  1  0
 12 13  2  0
 12 19  1  0
 15 17  1  0
 15 14  1  0
 16 15  2  0
 18 20  1  0
 18 17  1  1
 19 18  1  0
 20 21  1  0
 22 20  2  0
M  END
$$$$
