GKN.pdb
     RDKit          3D

 22 21  0  0  1  0  0  0  0  0999 V2000
   28.7453  -23.0358  -16.4336 N   0  0  0  0  0  0  0  0  0  0  0  0
   27.8817  -21.8959  -16.6361 C   0  0  0  0  0  0  0  0  0  0  0  0
   26.6381  -21.9532  -15.7994 C   0  0  0  0  0  0  0  0  0  0  0  0
   25.7493  -22.7245  -16.1602 O   0  0  0  0  0  0  0  0  0  0  0  0
   26.4535  -21.1707  -14.6488 N   0  0  0  0  0  0  0  0  0  0  0  0
   25.3831  -21.1347  -13.7566 C   0  0  1  0  0  0  0  0  0  0  0  0
   25.5494  -20.4881  -12.3915 C   0  0  0  0  0  0  0  0  0  0  0  0
   25.5561  -21.4089  -11.2358 C   0  0  0  0  0  0  0  0  0  0  0  0
   25.6953  -20.6026   -9.9379 C   0  0  0  0  0  0  0  0  0  0  0  0
   25.7875  -21.4715   -8.7258 C   0  0  0  0  0  0  0  0  0  0  0  0
   26.0451  -20.5803   -7.6125 N   0  0  0  0  0  0  0  0  0  0  0  0
   24.1195  -20.5838  -14.2584 C   0  0  0  0  0  0  0  0  0  0  0  0
   24.2466  -19.3938  -14.7556 O   0  0  0  0  0  0  0  0  0  0  0  0
   20.5434  -18.9031  -17.7837 N   0  0  0  0  0  0  0  0  0  0  0  0
   20.4127  -19.9998  -16.8706 C   0  0  0  0  0  0  0  0  0  0  0  0
   19.2360  -20.3148  -16.5616 O   0  0  0  0  0  0  0  0  0  0  0  0
   21.5664  -20.7154  -16.3205 C   0  0  0  0  0  0  0  0  0  0  0  0
   21.7502  -20.3917  -14.8555 C   0  0  2  0  0  0  0  0  0  0  0  0
   22.8547  -21.1379  -14.2835 N   0  0  0  0  0  0  0  0  0  0  0  0
   20.4625  -20.6495  -14.1358 C   0  0  0  0  0  0  0  0  0  0  0  0
   19.3620  -19.8607  -14.2858 O   0  0  0  0  0  0  0  0  0  0  0  0
   20.4517  -21.6580  -13.3684 O   0  0  0  0  0  0  0  0  0  0  0  0
  1  2  1  0
  2  3  1  0
  3  4  2  0
  3  5  1  0
  5  6  1  0
  6 12  1  0
  6  7  1  1
  8  7  1  0
  9  8  1  0
 10  9  1  0
 10 11  1  0
 12 13  2  0
 12 19  1  0
 15 17  1  0
 15 14  1  0
 16 15  2  0
 18 20  1  0
 18 17  1  6
 19 18  1  0
 20 21  1  0
 22 20  2  0
M  END
$$$$
