GKN.pdb
     RDKit          3D

 22 21  0  0  1  0  0  0  0  0999 V2000
   16.8588  -12.7239  -13.7499 N   0  0  0  0  0  0  0  0  0  0  0  0
   16.3500  -12.7409  -12.3983 C   0  0  0  0  0  0  0  0  0  0  0  0
   15.6198  -11.4817  -12.0364 C   0  0  0  0  0  0  0  0  0  0  0  0
   15.5231  -10.6151  -12.9051 O   0  0  0  0  0  0  0  0  0  0  0  0
   15.0613  -11.2587  -10.7680 N   0  0  0  0  0  0  0  0  0  0  0  0
   14.3260  -10.1730  -10.2952 C   0  0  1  0  0  0  0  0  0  0  0  0
   13.1942  -10.3913   -9.3051 C   0  0  0  0  0  0  0  0  0  0  0  0
   12.2954   -9.2393   -9.0852 C   0  0  0  0  0  0  0  0  0  0  0  0
   11.1639   -9.6456   -8.1320 C   0  0  0  0  0  0  0  0  0  0  0  0
   10.2617   -8.5053   -7.7880 C   0  0  0  0  0  0  0  0  0  0  0  0
    9.2874   -9.0326   -6.8538 N   0  0  0  0  0  0  0  0  0  0  0  0
   15.0858   -9.0554   -9.7245 C   0  0  0  0  0  0  0  0  0  0  0  0
   16.0788   -9.4412   -8.9866 O   0  0  0  0  0  0  0  0  0  0  0  0
   18.1876   -5.1194   -9.1329 N   0  0  0  0  0  0  0  0  0  0  0  0
   18.2903   -6.1386  -10.1349 C   0  0  0  0  0  0  0  0  0  0  0  0
   19.3692   -6.1635  -10.7789 O   0  0  0  0  0  0  0  0  0  0  0  0
   17.2145   -7.0950  -10.4064 C   0  0  0  0  0  0  0  0  0  0  0  0
   15.9964   -6.7854   -9.5667 C   0  0  2  0  0  0  0  0  0  0  0  0
   14.9048   -7.6932   -9.8634 N   0  0  0  0  0  0  0  0  0  0  0  0
   15.6123   -5.3534   -9.7774 C   0  0  0  0  0  0  0  0  0  0  0  0
   16.0256   -4.3492   -8.9546 O   0  0  0  0  0  0  0  0  0  0  0  0
   14.8712   -5.1226  -10.7791 O   0  0  0  0  0  0  0  0  0  0  0  0
  1  2  1  0
  2  3  1  0
  3  4  2  0
  3  5  1  0
  5  6  1  0
  6 12  1  0
  6  7  1  1
  8  7  1  0
  9  8  1  0
 10  9  1  0
 10 11  1  0
 12 13  2  0
 12 19  1  0
 15 17  1  0
 15 14  1  0
 16 15  2  0
 18 20  1  0
 18 17  1  6
 19 18  1  0
 20 21  1  0
 22 20  2  0
M  END
$$$$
