GKN.pdb
     RDKit          3D

 22 21  0  0  1  0  0  0  0  0999 V2000
   12.1183  -11.3806    7.0587 N   0  0  0  0  0  0  0  0  0  0  0  0
   13.2506  -12.1328    6.5707 C   0  0  0  0  0  0  0  0  0  0  0  0
   14.4901  -11.9114    7.3859 C   0  0  0  0  0  0  0  0  0  0  0  0
   15.0384  -10.8132    7.2936 O   0  0  0  0  0  0  0  0  0  0  0  0
   15.0385  -12.8928    8.2264 N   0  0  0  0  0  0  0  0  0  0  0  0
   16.1262  -12.8174    9.0949 C   0  0  1  0  0  0  0  0  0  0  0  0
   16.2748  -13.8270   10.2208 C   0  0  0  0  0  0  0  0  0  0  0  0
   17.2877  -13.5067   11.2479 C   0  0  0  0  0  0  0  0  0  0  0  0
   17.2857  -14.5961   12.3281 C   0  0  0  0  0  0  0  0  0  0  0  0
   18.2656  -14.3249   13.4231 C   0  0  0  0  0  0  0  0  0  0  0  0
   18.1453  -15.4309   14.3517 N   0  0  0  0  0  0  0  0  0  0  0  0
   17.4595  -12.7674    8.4851 C   0  0  0  0  0  0  0  0  0  0  0  0
   17.6169  -13.6366    7.5370 O   0  0  0  0  0  0  0  0  0  0  0  0
   22.4697  -10.1086    6.6813 N   0  0  0  0  0  0  0  0  0  0  0  0
   21.2186  -10.7677    6.4500 C   0  0  0  0  0  0  0  0  0  0  0  0
   21.1472  -11.4479    5.3957 O   0  0  0  0  0  0  0  0  0  0  0  0
   20.0845  -10.6621    7.3711 C   0  0  0  0  0  0  0  0  0  0  0  0
   19.7281  -12.0159    7.9412 C   0  0  2  0  0  0  0  0  0  0  0  0
   18.5348  -11.9463    8.7628 N   0  0  0  0  0  0  0  0  0  0  0  0
   20.9046  -12.5488    8.6992 C   0  0  0  0  0  0  0  0  0  0  0  0
   22.0947  -12.8421    8.1046 O   0  0  0  0  0  0  0  0  0  0  0  0
   20.7305  -12.7136    9.9436 O   0  0  0  0  0  0  0  0  0  0  0  0
  1  2  1  0
  2  3  1  0
  3  4  2  0
  3  5  1  0
  5  6  1  0
  6 12  1  0
  6  7  1  1
  8  7  1  0
  9  8  1  0
 10  9  1  0
 10 11  1  0
 12 13  2  0
 12 19  1  0
 15 17  1  0
 15 14  1  0
 16 15  2  0
 18 20  1  0
 18 17  1  1
 19 18  1  0
 20 21  1  0
 22 20  2  0
M  END
$$$$
