GKN.pdb
     RDKit          3D

 22 21  0  0  1  0  0  0  0  0999 V2000
   21.4132  -15.8910  -17.3567 N   0  0  0  0  0  0  0  0  0  0  0  0
   22.6653  -16.1477  -16.6840 C   0  0  0  0  0  0  0  0  0  0  0  0
   22.8981  -17.6069  -16.4265 C   0  0  0  0  0  0  0  0  0  0  0  0
   21.9096  -18.3396  -16.3936 O   0  0  0  0  0  0  0  0  0  0  0  0
   24.1745  -18.1531  -16.2196 N   0  0  0  0  0  0  0  0  0  0  0  0
   24.5425  -19.4452  -15.8478 C   0  0  1  0  0  0  0  0  0  0  0  0
   25.9892  -19.8927  -15.9749 C   0  0  0  0  0  0  0  0  0  0  0  0
   26.2318  -21.3440  -15.8406 C   0  0  0  0  0  0  0  0  0  0  0  0
   27.7342  -21.6273  -15.9691 C   0  0  0  0  0  0  0  0  0  0  0  0
   28.0476  -23.0883  -15.9743 C   0  0  0  0  0  0  0  0  0  0  0  0
   29.4927  -23.1881  -16.0188 N   0  0  0  0  0  0  0  0  0  0  0  0
   24.1519  -19.8853  -14.5041 C   0  0  0  0  0  0  0  0  0  0  0  0
   24.1869  -18.9316  -13.6274 O   0  0  0  0  0  0  0  0  0  0  0  0
   26.1294  -21.4566  -10.0749 N   0  0  0  0  0  0  0  0  0  0  0  0
   25.3414  -21.6528  -11.2556 C   0  0  0  0  0  0  0  0  0  0  0  0
   25.5390  -22.7309  -11.8703 O   0  0  0  0  0  0  0  0  0  0  0  0
   24.3669  -20.6679  -11.7312 C   0  0  0  0  0  0  0  0  0  0  0  0
   23.3696  -21.3091  -12.6688 C   0  0  2  0  0  0  0  0  0  0  0  0
   23.7564  -21.1303  -14.0552 N   0  0  0  0  0  0  0  0  0  0  0  0
   22.0090  -20.7509  -12.3864 C   0  0  0  0  0  0  0  0  0  0  0  0
   20.9097  -21.5368  -12.2135 O   0  0  0  0  0  0  0  0  0  0  0  0
   21.9348  -19.4878  -12.3146 O   0  0  0  0  0  0  0  0  0  0  0  0
  1  2  1  0
  2  3  1  0
  3  4  2  0
  3  5  1  0
  5  6  1  0
  6 12  1  0
  6  7  1  1
  8  7  1  0
  9  8  1  0
 10  9  1  0
 10 11  1  0
 12 13  2  0
 12 19  1  0
 15 17  1  0
 15 14  1  0
 16 15  2  0
 18 20  1  0
 18 17  1  1
 19 18  1  0
 20 21  1  0
 22 20  2  0
M  END
$$$$
