DTF.pdb
     RDKit          3D

 27 27  0  0  1  0  0  0  0  0999 V2000
    8.7092  -16.9274   19.3063 N   0  0  0  0  0  0  0  0  0  0  0  0
    8.4373  -15.7602   20.1365 C   0  0  1  0  0  0  0  0  0  0  0  0
    7.6213  -14.7462   19.3923 C   0  0  0  0  0  0  0  0  0  0  0  0
    8.3740  -14.3148   18.1989 C   0  0  0  0  0  0  0  0  0  0  0  0
    9.5520  -13.9153   18.3271 O   0  0  0  0  0  0  0  0  0  0  0  0
    7.8134  -16.2156   21.3808 C   0  0  0  0  0  0  0  0  0  0  0  0
    6.6995  -16.8375   21.3681 O   0  0  0  0  0  0  0  0  0  0  0  0
    7.8249  -14.3336   16.9268 O   0  0  0  0  0  0  0  0  0  0  0  0
    7.2870  -18.5426   22.5006 C   0  0  0  0  0  0  0  0  0  0  0  0
    8.1063  -18.0436   23.6423 C   0  0  1  0  0  0  0  0  0  0  0  0
    9.4659  -18.2840   23.3167 O   0  0  0  0  0  0  0  0  0  0  0  0
    8.0273  -16.5555   23.8791 C   0  0  2  0  0  0  0  0  0  0  0  0
    8.4672  -15.9551   22.6108 N   0  0  0  0  0  0  0  0  0  0  0  0
    8.8904  -16.0684   24.9646 C   0  0  0  0  0  0  0  0  0  0  0  0
   10.1020  -15.8127   24.6917 O   0  0  0  0  0  0  0  0  0  0  0  0
    8.4955  -15.8539   26.2995 N   0  0  0  0  0  0  0  0  0  0  0  0
    9.4034  -15.2435   27.2623 C   0  0  1  0  0  0  0  0  0  0  0  0
    8.7364  -14.1725   28.0561 C   0  0  0  0  0  0  0  0  0  0  0  0
    8.1213  -13.1539   27.1892 C   0  0  0  0  0  0  0  0  0  0  0  0
    6.7721  -13.3240   26.8795 C   0  0  0  0  0  0  0  0  0  0  0  0
    6.1378  -12.3959   26.0907 C   0  0  0  0  0  0  0  0  0  0  0  0
    6.8045  -11.2967   25.5961 C   0  0  0  0  0  0  0  0  0  0  0  0
    8.1333  -11.1042   25.8854 C   0  0  0  0  0  0  0  0  0  0  0  0
    8.7609  -12.0466   26.6815 C   0  0  0  0  0  0  0  0  0  0  0  0
    9.8977  -16.3003   28.1584 C   0  0  0  0  0  0  0  0  0  0  0  0
   10.7648  -16.1424   29.0487 O   0  0  0  0  0  0  0  0  0  0  0  0
    9.3833  -17.5830   28.0333 O   0  0  0  0  0  0  0  0  0  0  0  0
  2  1  1  6
  2  3  1  0
  3  4  1  0
  4  5  2  0
  6  2  1  0
  7  6  2  0
  8  4  1  0
 10  9  1  6
 10 12  1  0
 11 10  1  0
 12 13  1  6
 13  6  1  0
 14 16  1  0
 14 12  1  0
 15 14  2  0
 17 16  1  0
 18 19  1  0
 17 18  1  1
 19 24  2  0
 19 20  1  0
 20 21  2  0
 21 22  1  0
 23 22  2  0
 24 23  1  0
 25 27  1  0
 25 17  1  0
 26 25  2  0
M  END
$$$$
