DTF.pdb
     RDKit          3D

 27 27  0  0  1  0  0  0  0  0999 V2000
   10.0947  -18.0004   19.7858 N   0  0  0  0  0  0  0  0  0  0  0  0
   10.4512  -16.7865   19.0615 C   0  0  1  0  0  0  0  0  0  0  0  0
   10.1657  -16.9281   17.5964 C   0  0  0  0  0  0  0  0  0  0  0  0
    8.8024  -17.4667   17.4285 C   0  0  0  0  0  0  0  0  0  0  0  0
    8.3809  -18.3310   18.2280 O   0  0  0  0  0  0  0  0  0  0  0  0
    9.7594  -15.6573   19.6869 C   0  0  0  0  0  0  0  0  0  0  0  0
    9.5282  -14.5854   19.0348 O   0  0  0  0  0  0  0  0  0  0  0  0
    7.9590  -17.0508   16.4108 O   0  0  0  0  0  0  0  0  0  0  0  0
    7.6564  -13.9944   19.5540 C   0  0  0  0  0  0  0  0  0  0  0  0
    7.4403  -14.3836   20.9773 C   0  0  1  0  0  0  0  0  0  0  0  0
    6.7410  -15.6178   20.9708 O   0  0  0  0  0  0  0  0  0  0  0  0
    8.7006  -14.6624   21.7586 C   0  0  2  0  0  0  0  0  0  0  0  0
    9.3456  -15.7699   21.0376 N   0  0  0  0  0  0  0  0  0  0  0  0
    8.4716  -15.0672   23.1530 C   0  0  0  0  0  0  0  0  0  0  0  0
    7.3494  -15.5795   23.4468 O   0  0  0  0  0  0  0  0  0  0  0  0
    9.3927  -14.9401   24.2109 N   0  0  0  0  0  0  0  0  0  0  0  0
    9.0432  -15.3518   25.5644 C   0  0  1  0  0  0  0  0  0  0  0  0
    7.5856  -15.1969   25.8354 C   0  0  0  0  0  0  0  0  0  0  0  0
    7.2690  -13.8621   26.3698 C   0  0  0  0  0  0  0  0  0  0  0  0
    8.2778  -12.9016   26.2994 C   0  0  0  0  0  0  0  0  0  0  0  0
    8.0356  -11.6322   26.7643 C   0  0  0  0  0  0  0  0  0  0  0  0
    6.8157  -11.2834   27.3004 C   0  0  0  0  0  0  0  0  0  0  0  0
    5.8044  -12.2092   27.3818 C   0  0  0  0  0  0  0  0  0  0  0  0
    6.0611  -13.4848   26.9097 C   0  0  0  0  0  0  0  0  0  0  0  0
    9.4392  -16.7588   25.7311 C   0  0  0  0  0  0  0  0  0  0  0  0
    9.4422  -17.6190   24.8204 O   0  0  0  0  0  0  0  0  0  0  0  0
    9.8465  -17.1989   26.9826 O   0  0  0  0  0  0  0  0  0  0  0  0
  2  1  1  1
  2  3  1  0
  3  4  1  0
  4  5  2  0
  6  2  1  0
  7  6  2  0
  8  4  1  0
 10  9  1  6
 10 12  1  0
 11 10  1  0
 12 13  1  6
 13  6  1  0
 14 16  1  0
 14 12  1  0
 15 14  2  0
 17 16  1  0
 18 19  1  0
 17 18  1  6
 19 24  2  0
 19 20  1  0
 20 21  2  0
 21 22  1  0
 23 22  2  0
 24 23  1  0
 25 27  1  0
 25 17  1  0
 26 25  2  0
M  END
$$$$
