DTF.pdb
     RDKit          3D

 27 27  0  0  1  0  0  0  0  0999 V2000
   10.7117  -15.1283   17.9848 N   0  0  0  0  0  0  0  0  0  0  0  0
   11.0926  -15.3501   19.3745 C   0  0  1  0  0  0  0  0  0  0  0  0
   12.0465  -14.2948   19.8483 C   0  0  0  0  0  0  0  0  0  0  0  0
   13.3869  -14.5889   19.3063 C   0  0  0  0  0  0  0  0  0  0  0  0
   13.6045  -15.7003   18.7760 O   0  0  0  0  0  0  0  0  0  0  0  0
    9.8713  -15.4395   20.1778 C   0  0  0  0  0  0  0  0  0  0  0  0
    8.7198  -15.3888   19.6308 O   0  0  0  0  0  0  0  0  0  0  0  0
   14.4273  -13.6754   19.3604 O   0  0  0  0  0  0  0  0  0  0  0  0
    7.8137  -16.9714   20.4342 C   0  0  0  0  0  0  0  0  0  0  0  0
    8.1638  -17.0515   21.8816 C   0  0  1  0  0  0  0  0  0  0  0  0
    9.1425  -18.0693   22.0184 O   0  0  0  0  0  0  0  0  0  0  0  0
    8.8169  -15.8146   22.4473 C   0  0  2  0  0  0  0  0  0  0  0  0
    9.9842  -15.5843   21.5830 N   0  0  0  0  0  0  0  0  0  0  0  0
    9.2705  -15.9517   23.8387 C   0  0  0  0  0  0  0  0  0  0  0  0
   10.5116  -16.1072   24.0469 O   0  0  0  0  0  0  0  0  0  0  0  0
    8.4472  -15.9257   24.9812 N   0  0  0  0  0  0  0  0  0  0  0  0
    9.0198  -15.8199   26.3171 C   0  0  1  0  0  0  0  0  0  0  0  0
    8.0797  -15.1746   27.2772 C   0  0  0  0  0  0  0  0  0  0  0  0
    7.6617  -13.8399   26.8176 C   0  0  0  0  0  0  0  0  0  0  0  0
    6.3151  -13.6807   26.4916 C   0  0  0  0  0  0  0  0  0  0  0  0
    5.8613  -12.4533   26.0751 C   0  0  0  0  0  0  0  0  0  0  0  0
    6.7073  -11.3713   25.9712 C   0  0  0  0  0  0  0  0  0  0  0  0
    8.0380  -11.4995   26.2861 C   0  0  0  0  0  0  0  0  0  0  0  0
    8.4828  -12.7416   26.7047 C   0  0  0  0  0  0  0  0  0  0  0  0
    9.3583  -17.1753   26.7782 C   0  0  0  0  0  0  0  0  0  0  0  0
    9.0304  -18.2362   26.1984 O   0  0  0  0  0  0  0  0  0  0  0  0
   10.0977  -17.3241   27.9430 O   0  0  0  0  0  0  0  0  0  0  0  0
  2  1  1  6
  2  3  1  0
  3  4  1  0
  4  5  2  0
  6  2  1  0
  7  6  2  0
  8  4  1  0
 10  9  1  6
 10 12  1  0
 11 10  1  0
 12 13  1  6
 13  6  1  0
 14 16  1  0
 14 12  1  0
 15 14  2  0
 17 16  1  0
 18 19  1  0
 17 18  1  1
 19 24  2  0
 19 20  1  0
 20 21  2  0
 21 22  1  0
 23 22  2  0
 24 23  1  0
 25 27  1  0
 25 17  1  0
 26 25  2  0
M  END
$$$$
