DTF.pdb
     RDKit          3D

 27 27  0  0  1  0  0  0  0  0999 V2000
   10.4332  -18.5294   19.6069 N   0  0  0  0  0  0  0  0  0  0  0  0
   11.2471  -17.3256   19.7255 C   0  0  1  0  0  0  0  0  0  0  0  0
   11.5819  -16.7648   18.3759 C   0  0  0  0  0  0  0  0  0  0  0  0
   12.5570  -17.6569   17.7200 C   0  0  0  0  0  0  0  0  0  0  0  0
   13.5896  -17.9978   18.3375 O   0  0  0  0  0  0  0  0  0  0  0  0
   10.5454  -16.3794   20.5957 C   0  0  0  0  0  0  0  0  0  0  0  0
   11.0088  -15.2089   20.8026 O   0  0  0  0  0  0  0  0  0  0  0  0
   12.3754  -18.1388   16.4336 O   0  0  0  0  0  0  0  0  0  0  0  0
    6.7574  -15.5748   20.4846 C   0  0  0  0  0  0  0  0  0  0  0  0
    7.1572  -16.1123   21.8170 C   0  0  1  0  0  0  0  0  0  0  0  0
    6.9739  -17.5183   21.7718 O   0  0  0  0  0  0  0  0  0  0  0  0
    8.6134  -15.9277   22.1662 C   0  0  2  0  0  0  0  0  0  0  0  0
    9.3342  -16.7827   21.2111 N   0  0  0  0  0  0  0  0  0  0  0  0
    8.9645  -16.3354   23.5340 C   0  0  0  0  0  0  0  0  0  0  0  0
    9.6696  -17.3791   23.6809 O   0  0  0  0  0  0  0  0  0  0  0  0
    8.5885  -15.6681   24.7160 N   0  0  0  0  0  0  0  0  0  0  0  0
    9.0129  -16.1568   26.0217 C   0  0  1  0  0  0  0  0  0  0  0  0
    9.1129  -15.0572   27.0231 C   0  0  0  0  0  0  0  0  0  0  0  0
    8.0381  -14.0654   26.8533 C   0  0  0  0  0  0  0  0  0  0  0  0
    8.4261  -12.7712   26.5078 C   0  0  0  0  0  0  0  0  0  0  0  0
    7.4673  -11.8068   26.3167 C   0  0  0  0  0  0  0  0  0  0  0  0
    6.1264  -12.0879   26.4584 C   0  0  0  0  0  0  0  0  0  0  0  0
    5.7160  -13.3540   26.7978 C   0  0  0  0  0  0  0  0  0  0  0  0
    6.6920  -14.3169   26.9874 C   0  0  0  0  0  0  0  0  0  0  0  0
    8.0377  -17.1615   26.4731 C   0  0  0  0  0  0  0  0  0  0  0  0
    6.9152  -17.3599   25.9536 O   0  0  0  0  0  0  0  0  0  0  0  0
    8.3561  -17.9683   27.5564 O   0  0  0  0  0  0  0  0  0  0  0  0
  2  1  1  6
  2  3  1  0
  3  4  1  0
  4  5  2  0
  6  2  1  0
  7  6  2  0
  8  4  1  0
 10  9  1  6
 10 12  1  0
 11 10  1  0
 12 13  1  6
 13  6  1  0
 14 16  1  0
 14 12  1  0
 15 14  2  0
 17 16  1  0
 18 19  1  0
 17 18  1  1
 19 24  2  0
 19 20  1  0
 20 21  2  0
 21 22  1  0
 23 22  2  0
 24 23  1  0
 25 27  1  0
 25 17  1  0
 26 25  2  0
M  END
$$$$
