DTF.pdb
     RDKit          3D

 27 27  0  0  1  0  0  0  0  0999 V2000
    9.4288  -18.0432   18.2405 N   0  0  0  0  0  0  0  0  0  0  0  0
   10.2228  -17.5935   19.3775 C   0  0  1  0  0  0  0  0  0  0  0  0
   11.4529  -16.8663   18.9236 C   0  0  0  0  0  0  0  0  0  0  0  0
   12.6020  -17.7892   18.9916 C   0  0  0  0  0  0  0  0  0  0  0  0
   12.4225  -18.9660   19.3749 O   0  0  0  0  0  0  0  0  0  0  0  0
    9.3614  -16.7973   20.2543 C   0  0  0  0  0  0  0  0  0  0  0  0
    8.4489  -16.0463   19.7736 O   0  0  0  0  0  0  0  0  0  0  0  0
   13.8868  -17.4033   18.6449 O   0  0  0  0  0  0  0  0  0  0  0  0
    6.7631  -16.9421   21.1337 C   0  0  0  0  0  0  0  0  0  0  0  0
    7.3549  -16.9132   22.5022 C   0  0  1  0  0  0  0  0  0  0  0  0
    7.6564  -18.2537   22.8548 O   0  0  0  0  0  0  0  0  0  0  0  0
    8.6714  -16.1841   22.6104 C   0  0  2  0  0  0  0  0  0  0  0  0
    9.5546  -16.8714   21.6563 N   0  0  0  0  0  0  0  0  0  0  0  0
    9.2813  -16.2304   23.9470 C   0  0  0  0  0  0  0  0  0  0  0  0
   10.1865  -17.0931   24.1579 O   0  0  0  0  0  0  0  0  0  0  0  0
    8.9532  -15.3958   25.0330 N   0  0  0  0  0  0  0  0  0  0  0  0
    9.6928  -15.4690   26.2865 C   0  0  1  0  0  0  0  0  0  0  0  0
    9.6301  -14.1882   27.0465 C   0  0  0  0  0  0  0  0  0  0  0  0
    8.4566  -13.3848   26.6657 C   0  0  0  0  0  0  0  0  0  0  0  0
    7.6337  -12.9441   27.7019 C   0  0  0  0  0  0  0  0  0  0  0  0
    6.5343  -12.1743   27.4107 C   0  0  0  0  0  0  0  0  0  0  0  0
    6.2235  -11.8256   26.1149 C   0  0  0  0  0  0  0  0  0  0  0  0
    7.0166  -12.2457   25.0751 C   0  0  0  0  0  0  0  0  0  0  0  0
    8.1216  -13.0207   25.3819 C   0  0  0  0  0  0  0  0  0  0  0  0
    9.1219  -16.5601   27.0913 C   0  0  0  0  0  0  0  0  0  0  0  0
    8.0767  -17.1912   26.8109 O   0  0  0  0  0  0  0  0  0  0  0  0
    9.7679  -16.9443   28.2578 O   0  0  0  0  0  0  0  0  0  0  0  0
  2  1  1  6
  2  3  1  0
  3  4  1  0
  4  5  2  0
  6  2  1  0
  7  6  2  0
  8  4  1  0
 10  9  1  6
 10 12  1  0
 11 10  1  0
 12 13  1  6
 13  6  1  0
 14 16  1  0
 14 12  1  0
 15 14  2  0
 17 16  1  0
 18 19  1  0
 17 18  1  1
 19 24  2  0
 19 20  1  0
 20 21  2  0
 21 22  1  0
 23 22  2  0
 24 23  1  0
 25 27  1  0
 25 17  1  0
 26 25  2  0
M  END
$$$$
