DTF.pdb
     RDKit          3D

 27 27  0  0  1  0  0  0  0  0999 V2000
   10.3183  -18.3515   19.2312 N   0  0  0  0  0  0  0  0  0  0  0  0
    9.9691  -16.9608   18.9678 C   0  0  1  0  0  0  0  0  0  0  0  0
    9.3186  -16.8122   17.6251 C   0  0  0  0  0  0  0  0  0  0  0  0
   10.2949  -17.1796   16.5816 C   0  0  0  0  0  0  0  0  0  0  0  0
   11.4928  -16.8468   16.7170 O   0  0  0  0  0  0  0  0  0  0  0  0
    9.1434  -16.4757   20.0759 C   0  0  0  0  0  0  0  0  0  0  0  0
    8.6748  -15.2891   20.0758 O   0  0  0  0  0  0  0  0  0  0  0  0
    9.9370  -17.8859   15.4446 O   0  0  0  0  0  0  0  0  0  0  0  0
    6.1401  -18.3483   21.4342 C   0  0  0  0  0  0  0  0  0  0  0  0
    7.1110  -18.0989   22.5383 C   0  0  1  0  0  0  0  0  0  0  0  0
    7.9561  -19.2357   22.6155 O   0  0  0  0  0  0  0  0  0  0  0  0
    8.0495  -16.9397   22.3100 C   0  0  2  0  0  0  0  0  0  0  0  0
    8.8684  -17.3477   21.1586 N   0  0  0  0  0  0  0  0  0  0  0  0
    8.9340  -16.6437   23.4461 C   0  0  0  0  0  0  0  0  0  0  0  0
   10.1495  -16.9944   23.3604 O   0  0  0  0  0  0  0  0  0  0  0  0
    8.5563  -15.9973   24.6391 N   0  0  0  0  0  0  0  0  0  0  0  0
    9.4918  -15.8617   25.7482 C   0  0  1  0  0  0  0  0  0  0  0  0
    9.6110  -14.4487   26.2076 C   0  0  0  0  0  0  0  0  0  0  0  0
    8.3189  -13.7453   26.1494 C   0  0  0  0  0  0  0  0  0  0  0  0
    8.3642  -12.3568   26.0275 C   0  0  0  0  0  0  0  0  0  0  0  0
    7.1912  -11.6469   25.9489 C   0  0  0  0  0  0  0  0  0  0  0  0
    5.9663  -12.2756   25.9877 C   0  0  0  0  0  0  0  0  0  0  0  0
    5.8922  -13.6418   26.1071 C   0  0  0  0  0  0  0  0  0  0  0  0
    7.0814  -14.3458   26.1852 C   0  0  0  0  0  0  0  0  0  0  0  0
    9.0187  -16.7115   26.8520 C   0  0  0  0  0  0  0  0  0  0  0  0
    7.9187  -17.3104   26.8794 O   0  0  0  0  0  0  0  0  0  0  0  0
    9.8308  -16.8833   27.9640 O   0  0  0  0  0  0  0  0  0  0  0  0
  2  1  1  1
  2  3  1  0
  3  4  1  0
  4  5  2  0
  6  2  1  0
  7  6  2  0
  8  4  1  0
 10  9  1  6
 10 12  1  0
 11 10  1  0
 12 13  1  6
 13  6  1  0
 14 16  1  0
 14 12  1  0
 15 14  2  0
 17 16  1  0
 18 19  1  0
 17 18  1  1
 19 24  2  0
 19 20  1  0
 20 21  2  0
 21 22  1  0
 23 22  2  0
 24 23  1  0
 25 27  1  0
 25 17  1  0
 26 25  2  0
M  END
$$$$
