DTF.pdb
     RDKit          3D

 27 27  0  0  1  0  0  0  0  0999 V2000
   10.3686  -17.8173   19.1952 N   0  0  0  0  0  0  0  0  0  0  0  0
   11.4085  -17.1711   19.9867 C   0  0  1  0  0  0  0  0  0  0  0  0
   12.4642  -16.5726   19.1061 C   0  0  0  0  0  0  0  0  0  0  0  0
   13.1670  -17.6613   18.4007 C   0  0  0  0  0  0  0  0  0  0  0  0
   13.5253  -18.6755   19.0387 O   0  0  0  0  0  0  0  0  0  0  0  0
   10.7713  -16.2011   20.8799 C   0  0  0  0  0  0  0  0  0  0  0  0
   11.4600  -15.3144   21.4859 O   0  0  0  0  0  0  0  0  0  0  0  0
   13.4505  -17.6075   17.0455 O   0  0  0  0  0  0  0  0  0  0  0  0
    7.2776  -14.4745   20.0750 C   0  0  0  0  0  0  0  0  0  0  0  0
    7.2913  -15.1895   21.3836 C   0  0  1  0  0  0  0  0  0  0  0  0
    6.8299  -16.5092   21.1428 O   0  0  0  0  0  0  0  0  0  0  0  0
    8.6585  -15.3684   21.9962 C   0  0  2  0  0  0  0  0  0  0  0  0
    9.3675  -16.2591   21.0652 N   0  0  0  0  0  0  0  0  0  0  0  0
    8.6481  -15.9816   23.3319 C   0  0  0  0  0  0  0  0  0  0  0  0
    9.1685  -17.1306   23.4628 O   0  0  0  0  0  0  0  0  0  0  0  0
    8.1085  -15.4072   24.4993 N   0  0  0  0  0  0  0  0  0  0  0  0
    8.0946  -16.1396   25.7592 C   0  0  1  0  0  0  0  0  0  0  0  0
    8.4210  -15.2611   26.9183 C   0  0  0  0  0  0  0  0  0  0  0  0
    7.7781  -13.9419   26.8011 C   0  0  0  0  0  0  0  0  0  0  0  0
    6.4420  -13.8570   27.1920 C   0  0  0  0  0  0  0  0  0  0  0  0
    5.7936  -12.6483   27.1237 C   0  0  0  0  0  0  0  0  0  0  0  0
    6.4334  -11.5134   26.6768 C   0  0  0  0  0  0  0  0  0  0  0  0
    7.7489  -11.5681   26.2857 C   0  0  0  0  0  0  0  0  0  0  0  0
    8.3911  -12.7920   26.3595 C   0  0  0  0  0  0  0  0  0  0  0  0
    6.7564  -16.7254   25.9329 C   0  0  0  0  0  0  0  0  0  0  0  0
    5.7635  -16.4805   25.2093 O   0  0  0  0  0  0  0  0  0  0  0  0
    6.5448  -17.6230   26.9698 O   0  0  0  0  0  0  0  0  0  0  0  0
  2  1  1  6
  2  3  1  0
  3  4  1  0
  4  5  2  0
  6  2  1  0
  7  6  2  0
  8  4  1  0
 10  9  1  6
 10 12  1  0
 11 10  1  0
 12 13  1  6
 13  6  1  0
 14 16  1  0
 14 12  1  0
 15 14  2  0
 17 16  1  0
 18 19  1  0
 17 18  1  1
 19 24  2  0
 19 20  1  0
 20 21  2  0
 21 22  1  0
 23 22  2  0
 24 23  1  0
 25 27  1  0
 25 17  1  0
 26 25  2  0
M  END
$$$$
