DTF.pdb
     RDKit          3D

 27 27  0  0  1  0  0  0  0  0999 V2000
    9.4477  -16.5724   19.4770 N   0  0  0  0  0  0  0  0  0  0  0  0
    8.4063  -15.5598   19.6015 C   0  0  1  0  0  0  0  0  0  0  0  0
    7.5634  -15.4966   18.3631 C   0  0  0  0  0  0  0  0  0  0  0  0
    8.4486  -15.3273   17.1948 C   0  0  0  0  0  0  0  0  0  0  0  0
    9.6885  -15.3443   17.3564 O   0  0  0  0  0  0  0  0  0  0  0  0
    7.6398  -15.8351   20.8186 C   0  0  0  0  0  0  0  0  0  0  0  0
    6.5477  -15.2214   21.0605 O   0  0  0  0  0  0  0  0  0  0  0  0
    7.9589  -15.1479   15.9111 O   0  0  0  0  0  0  0  0  0  0  0  0
    6.4264  -19.1492   21.8639 C   0  0  0  0  0  0  0  0  0  0  0  0
    7.2804  -18.6208   22.9665 C   0  0  1  0  0  0  0  0  0  0  0  0
    8.5931  -19.1127   22.7498 O   0  0  0  0  0  0  0  0  0  0  0  0
    7.4334  -17.1199   22.9888 C   0  0  2  0  0  0  0  0  0  0  0  0
    8.1296  -16.8002   21.7335 N   0  0  0  0  0  0  0  0  0  0  0  0
    8.2228  -16.6085   24.1183 C   0  0  0  0  0  0  0  0  0  0  0  0
    9.4414  -16.3250   23.9120 O   0  0  0  0  0  0  0  0  0  0  0  0
    7.7490  -16.3985   25.4280 N   0  0  0  0  0  0  0  0  0  0  0  0
    8.6608  -16.0460   26.5088 C   0  0  1  0  0  0  0  0  0  0  0  0
    8.0279  -15.1232   27.4936 C   0  0  0  0  0  0  0  0  0  0  0  0
    7.6068  -13.8602   26.8651 C   0  0  0  0  0  0  0  0  0  0  0  0
    8.5770  -12.8660   26.7410 C   0  0  0  0  0  0  0  0  0  0  0  0
    8.2492  -11.6728   26.1454 C   0  0  0  0  0  0  0  0  0  0  0  0
    6.9804  -11.4332   25.6658 C   0  0  0  0  0  0  0  0  0  0  0  0
    6.0056  -12.3946   25.7746 C   0  0  0  0  0  0  0  0  0  0  0  0
    6.3486  -13.5928   26.3765 C   0  0  0  0  0  0  0  0  0  0  0  0
    9.0778  -17.2876   27.1786 C   0  0  0  0  0  0  0  0  0  0  0  0
    8.5773  -18.4181   26.9765 O   0  0  0  0  0  0  0  0  0  0  0  0
   10.1029  -17.2362   28.1125 O   0  0  0  0  0  0  0  0  0  0  0  0
  2  1  1  6
  2  3  1  0
  3  4  1  0
  4  5  2  0
  6  2  1  0
  7  6  2  0
  8  4  1  0
 10  9  1  6
 10 12  1  0
 11 10  1  0
 12 13  1  6
 13  6  1  0
 14 16  1  0
 14 12  1  0
 15 14  2  0
 17 16  1  0
 18 19  1  0
 17 18  1  1
 19 24  2  0
 19 20  1  0
 20 21  2  0
 21 22  1  0
 23 22  2  0
 24 23  1  0
 25 27  1  0
 25 17  1  0
 26 25  2  0
M  END
$$$$
