FGM.pdb
     RDKit          3D

 24 24  0  0  1  0  0  0  0  0999 V2000
    6.1259  -17.5596   24.1589 N   0  0  0  0  0  0  0  0  0  0  0  0
    6.9771  -16.3911   24.1261 C   0  0  1  0  0  0  0  0  0  0  0  0
    7.1094  -15.8770   25.5445 C   0  0  0  0  0  0  0  0  0  0  0  0
    6.9286  -14.4207   25.5566 C   0  0  0  0  0  0  0  0  0  0  0  0
    7.7381  -13.6088   24.8083 C   0  0  0  0  0  0  0  0  0  0  0  0
    7.5782  -12.2188   24.8094 C   0  0  0  0  0  0  0  0  0  0  0  0
    6.5634  -11.6690   25.5991 C   0  0  0  0  0  0  0  0  0  0  0  0
    5.7525  -12.4809   26.3487 C   0  0  0  0  0  0  0  0  0  0  0  0
    5.9422  -13.8477   26.3207 C   0  0  0  0  0  0  0  0  0  0  0  0
    8.2821  -16.7765   23.5509 C   0  0  0  0  0  0  0  0  0  0  0  0
    8.6595  -17.9681   23.6285 O   0  0  0  0  0  0  0  0  0  0  0  0
    9.1380  -15.8500   22.9075 N   0  0  0  0  0  0  0  0  0  0  0  0
   10.4000  -16.2922   22.3402 C   0  0  0  0  0  0  0  0  0  0  0  0
   11.4264  -16.3878   23.3876 C   0  0  0  0  0  0  0  0  0  0  0  0
   12.6315  -16.5490   23.0671 O   0  0  0  0  0  0  0  0  0  0  0  0
    8.9748  -14.8088   29.0722 C   0  0  0  0  0  0  0  0  0  0  0  0
   10.2959  -13.7074   28.4914 S   0  0  0  0  0  0  0  0  0  0  0  0
   11.0331  -14.4036   27.0450 C   0  0  0  0  0  0  0  0  0  0  0  0
   11.5198  -15.7755   27.0546 C   0  0  0  0  0  0  0  0  0  0  0  0
   12.0566  -16.4182   25.8497 C   0  0  2  0  0  0  0  0  0  0  0  0
   11.0739  -16.3006   24.7496 N   0  0  0  0  0  0  0  0  0  0  0  0
   12.4819  -17.8032   25.9100 C   0  0  0  0  0  0  0  0  0  0  0  0
   13.6628  -18.2303   25.9809 O   0  0  0  0  0  0  0  0  0  0  0  0
   11.5094  -18.8257   25.8904 O   0  0  0  0  0  0  0  0  0  0  0  0
  2  1  1  1
  3  4  1  0
  3  2  1  0
  4  5  2  0
  5  6  1  0
  7  6  2  0
  8  7  1  0
  9  4  1  0
  9  8  2  0
 10  2  1  0
 10 12  1  0
 11 10  2  0
 13 14  1  0
 13 12  1  0
 14 21  1  0
 15 14  2  0
 17 16  1  0
 18 19  1  0
 18 17  1  0
 20 19  1  1
 20 22  1  0
 21 20  1  0
 22 23  2  0
 22 24  1  0
M  END
$$$$
