FGM.pdb
     RDKit          3D

 24 24  0  0  1  0  0  0  0  0999 V2000
    8.2187  -14.2662   20.3157 N   0  0  0  0  0  0  0  0  0  0  0  0
    8.1603  -14.1239   21.7535 C   0  0  1  0  0  0  0  0  0  0  0  0
    6.8928  -13.3669   22.0908 C   0  0  0  0  0  0  0  0  0  0  0  0
    6.7093  -13.3427   23.5466 C   0  0  0  0  0  0  0  0  0  0  0  0
    5.9173  -14.2707   24.1677 C   0  0  0  0  0  0  0  0  0  0  0  0
    5.7327  -14.2607   25.5546 C   0  0  0  0  0  0  0  0  0  0  0  0
    6.3807  -13.2725   26.3024 C   0  0  0  0  0  0  0  0  0  0  0  0
    7.1738  -12.3429   25.6817 C   0  0  0  0  0  0  0  0  0  0  0  0
    7.3308  -12.3863   24.3111 C   0  0  0  0  0  0  0  0  0  0  0  0
    8.1810  -15.4707   22.3601 C   0  0  0  0  0  0  0  0  0  0  0  0
    7.2664  -16.2815   22.0868 O   0  0  0  0  0  0  0  0  0  0  0  0
    9.1995  -15.8943   23.2480 N   0  0  0  0  0  0  0  0  0  0  0  0
    9.1085  -17.1884   23.9013 C   0  0  0  0  0  0  0  0  0  0  0  0
   10.3259  -17.4555   24.6799 C   0  0  0  0  0  0  0  0  0  0  0  0
   11.0710  -18.4173   24.3623 O   0  0  0  0  0  0  0  0  0  0  0  0
   11.1840  -12.5548   27.5877 C   0  0  0  0  0  0  0  0  0  0  0  0
   11.1532  -13.6175   29.0592 S   0  0  0  0  0  0  0  0  0  0  0  0
   11.0736  -15.3068   28.5492 C   0  0  0  0  0  0  0  0  0  0  0  0
   12.0323  -15.8313   27.5874 C   0  0  0  0  0  0  0  0  0  0  0  0
   11.7320  -16.9956   26.7466 C   0  0  2  0  0  0  0  0  0  0  0  0
   10.6678  -16.6440   25.7804 N   0  0  0  0  0  0  0  0  0  0  0  0
   11.3580  -18.2491   27.3722 C   0  0  0  0  0  0  0  0  0  0  0  0
   10.2042  -18.7446   27.4448 O   0  0  0  0  0  0  0  0  0  0  0  0
   12.3544  -19.0413   27.9814 O   0  0  0  0  0  0  0  0  0  0  0  0
  2  1  1  6
  3  4  1  0
  3  2  1  0
  4  5  2  0
  5  6  1  0
  7  6  2  0
  8  7  1  0
  9  4  1  0
  9  8  2  0
 10  2  1  0
 10 12  1  0
 11 10  2  0
 13 14  1  0
 13 12  1  0
 14 21  1  0
 15 14  2  0
 17 16  1  0
 18 19  1  0
 18 17  1  0
 20 19  1  1
 20 22  1  0
 21 20  1  0
 22 23  2  0
 22 24  1  0
M  END
$$$$
