FGM.pdb
     RDKit          3D

 24 24  0  0  1  0  0  0  0  0999 V2000
    7.1521  -16.4968   25.1788 N   0  0  0  0  0  0  0  0  0  0  0  0
    6.9812  -16.5820   23.7454 C   0  0  1  0  0  0  0  0  0  0  0  0
    6.1813  -15.3743   23.3038 C   0  0  0  0  0  0  0  0  0  0  0  0
    6.5535  -14.2143   24.1220 C   0  0  0  0  0  0  0  0  0  0  0  0
    6.1155  -14.0997   25.4140 C   0  0  0  0  0  0  0  0  0  0  0  0
    6.4619  -12.9999   26.2066 C   0  0  0  0  0  0  0  0  0  0  0  0
    7.2737  -12.0085   25.6462 C   0  0  0  0  0  0  0  0  0  0  0  0
    7.7127  -12.1222   24.3528 C   0  0  0  0  0  0  0  0  0  0  0  0
    7.3491  -13.2227   23.6033 C   0  0  0  0  0  0  0  0  0  0  0  0
    8.3165  -16.6246   23.1148 C   0  0  0  0  0  0  0  0  0  0  0  0
    8.6629  -17.6462   22.4787 O   0  0  0  0  0  0  0  0  0  0  0  0
    9.2357  -15.5505   23.1966 N   0  0  0  0  0  0  0  0  0  0  0  0
   10.5795  -15.6961   22.6647 C   0  0  0  0  0  0  0  0  0  0  0  0
   11.4463  -16.3703   23.6413 C   0  0  0  0  0  0  0  0  0  0  0  0
   12.6948  -16.3352   23.4961 O   0  0  0  0  0  0  0  0  0  0  0  0
   11.1024  -14.1261   30.2236 C   0  0  0  0  0  0  0  0  0  0  0  0
   10.2065  -14.3823   28.6655 S   0  0  0  0  0  0  0  0  0  0  0  0
   10.1242  -16.1137   28.3254 C   0  0  0  0  0  0  0  0  0  0  0  0
   10.0661  -16.5920   26.9517 C   0  0  0  0  0  0  0  0  0  0  0  0
   11.2757  -16.7831   26.1434 C   0  0  2  0  0  0  0  0  0  0  0  0
   10.8923  -17.0569   24.7406 N   0  0  0  0  0  0  0  0  0  0  0  0
   12.2440  -17.7883   26.5363 C   0  0  0  0  0  0  0  0  0  0  0  0
   13.1301  -17.6807   27.4225 O   0  0  0  0  0  0  0  0  0  0  0  0
   12.2391  -19.0422   25.8889 O   0  0  0  0  0  0  0  0  0  0  0  0
  2  1  1  1
  3  4  1  0
  3  2  1  0
  4  5  2  0
  5  6  1  0
  7  6  2  0
  8  7  1  0
  9  4  1  0
  9  8  2  0
 10  2  1  0
 10 12  1  0
 11 10  2  0
 13 14  1  0
 13 12  1  0
 14 21  1  0
 15 14  2  0
 17 16  1  0
 18 19  1  0
 18 17  1  0
 20 19  1  1
 20 22  1  0
 21 20  1  0
 22 23  2  0
 22 24  1  0
M  END
$$$$
