FGM.pdb
     RDKit          3D

 24 24  0  0  1  0  0  0  0  0999 V2000
    7.4728  -15.8244   24.1556 N   0  0  0  0  0  0  0  0  0  0  0  0
    7.4612  -15.3358   22.7947 C   0  0  1  0  0  0  0  0  0  0  0  0
    7.4728  -13.8223   22.8480 C   0  0  0  0  0  0  0  0  0  0  0  0
    7.2959  -13.3797   24.2359 C   0  0  0  0  0  0  0  0  0  0  0  0
    8.0703  -12.3770   24.7547 C   0  0  0  0  0  0  0  0  0  0  0  0
    7.9136  -11.9439   26.0760 C   0  0  0  0  0  0  0  0  0  0  0  0
    6.9389  -12.5629   26.8651 C   0  0  0  0  0  0  0  0  0  0  0  0
    6.1631  -13.5668   26.3467 C   0  0  0  0  0  0  0  0  0  0  0  0
    6.3483  -13.9656   25.0384 C   0  0  0  0  0  0  0  0  0  0  0  0
    8.6428  -15.8759   22.0915 C   0  0  0  0  0  0  0  0  0  0  0  0
    9.1104  -15.2545   21.1098 O   0  0  0  0  0  0  0  0  0  0  0  0
    9.2804  -17.0791   22.4799 N   0  0  0  0  0  0  0  0  0  0  0  0
   10.7121  -17.2406   22.2950 C   0  0  0  0  0  0  0  0  0  0  0  0
   11.4126  -17.1055   23.5798 C   0  0  0  0  0  0  0  0  0  0  0  0
   12.6696  -17.1024   23.6076 O   0  0  0  0  0  0  0  0  0  0  0  0
    9.3409  -13.0110   28.2014 C   0  0  0  0  0  0  0  0  0  0  0  0
    9.8673  -14.4216   29.2158 S   0  0  0  0  0  0  0  0  0  0  0  0
   10.9166  -15.4656   28.2518 C   0  0  0  0  0  0  0  0  0  0  0  0
   10.5350  -15.8456   26.8993 C   0  0  0  0  0  0  0  0  0  0  0  0
   11.3353  -16.7795   26.0993 C   0  0  2  0  0  0  0  0  0  0  0  0
   10.6893  -16.9792   24.7831 N   0  0  0  0  0  0  0  0  0  0  0  0
   11.6493  -18.0896   26.6356 C   0  0  0  0  0  0  0  0  0  0  0  0
   11.0596  -19.1719   26.3848 O   0  0  0  0  0  0  0  0  0  0  0  0
   12.7227  -18.2258   27.5417 O   0  0  0  0  0  0  0  0  0  0  0  0
  2  1  1  1
  3  4  1  0
  3  2  1  0
  4  5  2  0
  5  6  1  0
  7  6  2  0
  8  7  1  0
  9  4  1  0
  9  8  2  0
 10  2  1  0
 10 12  1  0
 11 10  2  0
 13 14  1  0
 13 12  1  0
 14 21  1  0
 15 14  2  0
 17 16  1  0
 18 19  1  0
 18 17  1  0
 20 19  1  1
 20 22  1  0
 21 20  1  0
 22 23  2  0
 22 24  1  0
M  END
$$$$
