FGM.pdb
     RDKit          3D

 24 24  0  0  1  0  0  0  0  0999 V2000
    9.2684  -15.1245   24.4975 N   0  0  0  0  0  0  0  0  0  0  0  0
    8.1352  -15.7086   23.8151 C   0  0  1  0  0  0  0  0  0  0  0  0
    7.2320  -14.5774   23.3698 C   0  0  0  0  0  0  0  0  0  0  0  0
    6.9454  -13.7011   24.5115 C   0  0  0  0  0  0  0  0  0  0  0  0
    6.0155  -14.0573   25.4510 C   0  0  0  0  0  0  0  0  0  0  0  0
    5.7312  -13.2326   26.5450 C   0  0  0  0  0  0  0  0  0  0  0  0
    6.4238  -12.0232   26.6609 C   0  0  0  0  0  0  0  0  0  0  0  0
    7.3549  -11.6655   25.7209 C   0  0  0  0  0  0  0  0  0  0  0  0
    7.6070  -12.5067   24.6560 C   0  0  0  0  0  0  0  0  0  0  0  0
    8.6329  -16.5040   22.6740 C   0  0  0  0  0  0  0  0  0  0  0  0
    7.8710  -17.3318   22.1237 O   0  0  0  0  0  0  0  0  0  0  0  0
    9.9482  -16.3731   22.1660 N   0  0  0  0  0  0  0  0  0  0  0  0
   10.8365  -17.5219   22.1319 C   0  0  0  0  0  0  0  0  0  0  0  0
   11.6427  -17.5822   23.3591 C   0  0  0  0  0  0  0  0  0  0  0  0
   12.8856  -17.7558   23.2810 O   0  0  0  0  0  0  0  0  0  0  0  0
   10.1821  -14.0115   29.8985 C   0  0  0  0  0  0  0  0  0  0  0  0
   10.3178  -14.1521   28.0936 S   0  0  0  0  0  0  0  0  0  0  0  0
   11.3903  -15.4990   27.6989 C   0  0  0  0  0  0  0  0  0  0  0  0
   11.6553  -15.8464   26.3103 C   0  0  0  0  0  0  0  0  0  0  0  0
   11.8045  -17.2387   25.8722 C   0  0  2  0  0  0  0  0  0  0  0  0
   11.0367  -17.4473   24.6245 N   0  0  0  0  0  0  0  0  0  0  0  0
   11.4596  -18.3132   26.7827 C   0  0  0  0  0  0  0  0  0  0  0  0
   10.5030  -19.1222   26.6717 O   0  0  0  0  0  0  0  0  0  0  0  0
   12.2470  -18.5213   27.9352 O   0  0  0  0  0  0  0  0  0  0  0  0
  2  1  1  6
  3  4  1  0
  3  2  1  0
  4  5  2  0
  5  6  1  0
  7  6  2  0
  8  7  1  0
  9  4  1  0
  9  8  2  0
 10  2  1  0
 10 12  1  0
 11 10  2  0
 13 14  1  0
 13 12  1  0
 14 21  1  0
 15 14  2  0
 17 16  1  0
 18 19  1  0
 18 17  1  0
 20 19  1  1
 20 22  1  0
 21 20  1  0
 22 23  2  0
 22 24  1  0
M  END
$$$$
