FGM.pdb
     RDKit          3D

 24 24  0  0  1  0  0  0  0  0999 V2000
    6.4453  -18.5008   21.5172 N   0  0  0  0  0  0  0  0  0  0  0  0
    6.9363  -17.1598   21.7442 C   0  0  1  0  0  0  0  0  0  0  0  0
    6.0643  -16.2090   20.9510 C   0  0  0  0  0  0  0  0  0  0  0  0
    6.7133  -14.8949   20.8773 C   0  0  0  0  0  0  0  0  0  0  0  0
    7.4878  -14.5563   19.8003 C   0  0  0  0  0  0  0  0  0  0  0  0
    8.1130  -13.3075   19.7156 C   0  0  0  0  0  0  0  0  0  0  0  0
    7.9290  -12.4016   20.7650 C   0  0  0  0  0  0  0  0  0  0  0  0
    7.1538  -12.7395   21.8437 C   0  0  0  0  0  0  0  0  0  0  0  0
    6.5537  -13.9816   21.8900 C   0  0  0  0  0  0  0  0  0  0  0  0
    6.8865  -16.8804   23.1940 C   0  0  0  0  0  0  0  0  0  0  0  0
    5.7820  -16.8928   23.7843 O   0  0  0  0  0  0  0  0  0  0  0  0
    8.0441  -16.5954   23.9583 N   0  0  0  0  0  0  0  0  0  0  0  0
    8.8045  -15.3832   23.7093 C   0  0  0  0  0  0  0  0  0  0  0  0
   10.0109  -15.3543   24.5480 C   0  0  0  0  0  0  0  0  0  0  0  0
   10.9792  -14.6210   24.2231 O   0  0  0  0  0  0  0  0  0  0  0  0
    7.2952  -12.1269   26.0560 C   0  0  0  0  0  0  0  0  0  0  0  0
    8.2585  -12.0803   27.5941 S   0  0  0  0  0  0  0  0  0  0  0  0
    9.6195  -13.1979   27.4563 C   0  0  0  0  0  0  0  0  0  0  0  0
    9.3938  -14.6361   27.4558 C   0  0  0  0  0  0  0  0  0  0  0  0
   10.4335  -15.5858   27.0436 C   0  0  2  0  0  0  0  0  0  0  0  0
   10.0943  -16.1411   25.7146 N   0  0  0  0  0  0  0  0  0  0  0  0
   10.7660  -16.6992   27.9109 C   0  0  0  0  0  0  0  0  0  0  0  0
   10.1431  -17.0713   28.9383 O   0  0  0  0  0  0  0  0  0  0  0  0
   11.9007  -17.4863   27.6200 O   0  0  0  0  0  0  0  0  0  0  0  0
  2  1  1  1
  3  4  1  0
  3  2  1  0
  4  5  2  0
  5  6  1  0
  7  6  2  0
  8  7  1  0
  9  4  1  0
  9  8  2  0
 10  2  1  0
 10 12  1  0
 11 10  2  0
 13 14  1  0
 13 12  1  0
 14 21  1  0
 15 14  2  0
 17 16  1  0
 18 19  1  0
 18 17  1  0
 20 19  1  1
 20 22  1  0
 21 20  1  0
 22 23  2  0
 22 24  1  0
M  END
$$$$
