FGM.pdb
     RDKit          3D

 24 24  0  0  1  0  0  0  0  0999 V2000
    6.6076  -16.8074   25.3991 N   0  0  0  0  0  0  0  0  0  0  0  0
    6.8044  -16.8703   23.9679 C   0  0  1  0  0  0  0  0  0  0  0  0
    6.2974  -15.5722   23.3752 C   0  0  0  0  0  0  0  0  0  0  0  0
    6.5681  -14.4701   24.3056 C   0  0  0  0  0  0  0  0  0  0  0  0
    5.9106  -14.3882   25.5037 C   0  0  0  0  0  0  0  0  0  0  0  0
    6.1578  -13.3437   26.4012 C   0  0  0  0  0  0  0  0  0  0  0  0
    7.1007  -12.3739   26.0461 C   0  0  0  0  0  0  0  0  0  0  0  0
    7.7596  -12.4548   24.8470 C   0  0  0  0  0  0  0  0  0  0  0  0
    7.4876  -13.5009   23.9886 C   0  0  0  0  0  0  0  0  0  0  0  0
    8.2421  -17.0790   23.7000 C   0  0  0  0  0  0  0  0  0  0  0  0
    9.0008  -17.4070   24.6409 O   0  0  0  0  0  0  0  0  0  0  0  0
    8.8109  -16.9237   22.4126 N   0  0  0  0  0  0  0  0  0  0  0  0
   10.1928  -17.3017   22.1732 C   0  0  0  0  0  0  0  0  0  0  0  0
   11.0685  -16.7156   23.1975 C   0  0  0  0  0  0  0  0  0  0  0  0
   11.9845  -15.9246   22.8568 O   0  0  0  0  0  0  0  0  0  0  0  0
    9.5367  -14.2094   30.0186 C   0  0  0  0  0  0  0  0  0  0  0  0
   10.7190  -14.0163   28.6546 S   0  0  0  0  0  0  0  0  0  0  0  0
   10.4586  -15.3080   27.4782 C   0  0  0  0  0  0  0  0  0  0  0  0
   11.1584  -15.2932   26.2018 C   0  0  0  0  0  0  0  0  0  0  0  0
   11.7635  -16.5029   25.6331 C   0  0  2  0  0  0  0  0  0  0  0  0
   10.8923  -17.0313   24.5599 N   0  0  0  0  0  0  0  0  0  0  0  0
   12.1010  -17.6095   26.5071 C   0  0  0  0  0  0  0  0  0  0  0  0
   12.9009  -17.5914   27.4776 O   0  0  0  0  0  0  0  0  0  0  0  0
   11.4975  -18.8672   26.2934 O   0  0  0  0  0  0  0  0  0  0  0  0
  2  1  1  1
  3  4  1  0
  3  2  1  0
  4  5  2  0
  5  6  1  0
  7  6  2  0
  8  7  1  0
  9  4  1  0
  9  8  2  0
 10  2  1  0
 10 12  1  0
 11 10  2  0
 13 14  1  0
 13 12  1  0
 14 21  1  0
 15 14  2  0
 17 16  1  0
 18 19  1  0
 18 17  1  0
 20 19  1  1
 20 22  1  0
 21 20  1  0
 22 23  2  0
 22 24  1  0
M  END
$$$$
