FGM.pdb
     RDKit          3D

 24 24  0  0  1  0  0  0  0  0999 V2000
    6.2351  -16.5545   23.0011 N   0  0  0  0  0  0  0  0  0  0  0  0
    7.4852  -16.3636   22.2998 C   0  0  1  0  0  0  0  0  0  0  0  0
    7.9130  -14.9251   22.5032 C   0  0  0  0  0  0  0  0  0  0  0  0
    7.6618  -14.5315   23.8945 C   0  0  0  0  0  0  0  0  0  0  0  0
    7.9994  -15.3625   24.9288 C   0  0  0  0  0  0  0  0  0  0  0  0
    7.7663  -15.0014   26.2603 C   0  0  0  0  0  0  0  0  0  0  0  0
    7.1747  -13.7603   26.5166 C   0  0  0  0  0  0  0  0  0  0  0  0
    6.8363  -12.9276   25.4819 C   0  0  0  0  0  0  0  0  0  0  0  0
    7.0826  -13.3202   24.1818 C   0  0  0  0  0  0  0  0  0  0  0  0
    8.4758  -17.3189   22.8367 C   0  0  0  0  0  0  0  0  0  0  0  0
    8.5705  -18.4580   22.3248 O   0  0  0  0  0  0  0  0  0  0  0  0
    9.3350  -17.0036   23.9172 N   0  0  0  0  0  0  0  0  0  0  0  0
   10.7755  -17.1037   23.7593 C   0  0  0  0  0  0  0  0  0  0  0  0
   11.4536  -16.7556   25.0157 C   0  0  0  0  0  0  0  0  0  0  0  0
   12.7086  -16.6858   25.0487 O   0  0  0  0  0  0  0  0  0  0  0  0
    8.0379  -13.3486   27.2984 C   0  0  0  0  0  0  0  0  0  0  0  0
    9.5417  -12.7863   28.1458 S   0  0  0  0  0  0  0  0  0  0  0  0
   10.8436  -13.9392   27.8361 C   0  0  0  0  0  0  0  0  0  0  0  0
   10.7261  -15.3198   28.2829 C   0  0  0  0  0  0  0  0  0  0  0  0
   11.3197  -16.4326   27.5332 C   0  0  2  0  0  0  0  0  0  0  0  0
   10.7111  -16.4988   26.1860 N   0  0  0  0  0  0  0  0  0  0  0  0
   11.2854  -17.7690   28.0948 C   0  0  0  0  0  0  0  0  0  0  0  0
   10.4931  -18.6977   27.7916 O   0  0  0  0  0  0  0  0  0  0  0  0
   12.2180  -18.1227   29.0931 O   0  0  0  0  0  0  0  0  0  0  0  0
  2  1  1  1
  3  4  1  0
  3  2  1  0
  4  5  2  0
  5  6  1  0
  7  6  2  0
  8  7  1  0
  9  4  1  0
  9  8  2  0
 10  2  1  0
 10 12  1  0
 11 10  2  0
 13 14  1  0
 13 12  1  0
 14 21  1  0
 15 14  2  0
 17 16  1  0
 18 19  1  0
 18 17  1  0
 20 19  1  1
 20 22  1  0
 21 20  1  0
 22 23  2  0
 22 24  1  0
M  END
$$$$
