FGM.pdb
     RDKit          3D

 24 24  0  0  1  0  0  0  0  0999 V2000
    7.3044  -16.0913   24.2633 N   0  0  0  0  0  0  0  0  0  0  0  0
    7.2483  -15.4940   22.9476 C   0  0  1  0  0  0  0  0  0  0  0  0
    7.2723  -13.9899   23.1226 C   0  0  0  0  0  0  0  0  0  0  0  0
    7.1906  -13.6615   24.5506 C   0  0  0  0  0  0  0  0  0  0  0  0
    6.2015  -14.1912   25.3350 C   0  0  0  0  0  0  0  0  0  0  0  0
    6.1105  -13.8877   26.6978 C   0  0  0  0  0  0  0  0  0  0  0  0
    7.0609  -13.0224   27.2491 C   0  0  0  0  0  0  0  0  0  0  0  0
    8.0515  -12.4915   26.4647 C   0  0  0  0  0  0  0  0  0  0  0  0
    8.1074  -12.8154   25.1242 C   0  0  0  0  0  0  0  0  0  0  0  0
    8.4006  -15.9802   22.1614 C   0  0  0  0  0  0  0  0  0  0  0  0
    8.6659  -15.4407   21.0628 O   0  0  0  0  0  0  0  0  0  0  0  0
    9.2306  -17.0416   22.5969 N   0  0  0  0  0  0  0  0  0  0  0  0
   10.6371  -17.0657   22.2351 C   0  0  0  0  0  0  0  0  0  0  0  0
   11.4736  -16.8028   23.4144 C   0  0  0  0  0  0  0  0  0  0  0  0
   12.7254  -16.8730   23.3195 O   0  0  0  0  0  0  0  0  0  0  0  0
    9.0261  -13.5796   28.7523 C   0  0  0  0  0  0  0  0  0  0  0  0
   10.8341  -13.4515   28.8538 S   0  0  0  0  0  0  0  0  0  0  0  0
   11.5583  -14.8076   27.9838 C   0  0  0  0  0  0  0  0  0  0  0  0
   11.1401  -15.1174   26.6243 C   0  0  0  0  0  0  0  0  0  0  0  0
   11.6695  -16.2738   25.8927 C   0  0  2  0  0  0  0  0  0  0  0  0
   10.8868  -16.4725   24.6527 N   0  0  0  0  0  0  0  0  0  0  0  0
   11.7640  -17.5574   26.5606 C   0  0  0  0  0  0  0  0  0  0  0  0
   12.6258  -17.9093   27.4065 O   0  0  0  0  0  0  0  0  0  0  0  0
   10.8133  -18.5589   26.2696 O   0  0  0  0  0  0  0  0  0  0  0  0
  2  1  1  1
  3  4  1  0
  3  2  1  0
  4  5  2  0
  5  6  1  0
  7  6  2  0
  8  7  1  0
  9  4  1  0
  9  8  2  0
 10  2  1  0
 10 12  1  0
 11 10  2  0
 13 14  1  0
 13 12  1  0
 14 21  1  0
 15 14  2  0
 17 16  1  0
 18 19  1  0
 18 17  1  0
 20 19  1  1
 20 22  1  0
 21 20  1  0
 22 23  2  0
 22 24  1  0
M  END
$$$$
