IGS.pdb
     RDKit          3D

 19 18  0  0  1  0  0  0  0  0999 V2000
    6.1604  -11.1912   27.3334 C   0  0  0  0  0  0  0  0  0  0  0  0
    5.8514  -12.5306   26.7102 C   0  0  0  0  0  0  0  0  0  0  0  0
    6.9520  -12.8453   25.6916 C   0  0  2  0  0  0  0  0  0  0  0  0
    6.9507  -11.8015   24.5811 C   0  0  0  0  0  0  0  0  0  0  0  0
    6.5893  -14.1769   25.0777 C   0  0  2  0  0  0  0  0  0  0  0  0
    6.7174  -15.1959   26.0994 N   0  0  0  0  0  0  0  0  0  0  0  0
    7.5136  -14.4554   23.9288 C   0  0  0  0  0  0  0  0  0  0  0  0
    7.3033  -13.9372   22.8039 O   0  0  0  0  0  0  0  0  0  0  0  0
    8.6271  -15.2999   24.0961 N   0  0  0  0  0  0  0  0  0  0  0  0
    9.4975  -15.5520   22.9827 C   0  0  0  0  0  0  0  0  0  0  0  0
   10.5453  -16.5429   23.3631 C   0  0  0  0  0  0  0  0  0  0  0  0
   11.5057  -16.7792   22.5875 O   0  0  0  0  0  0  0  0  0  0  0  0
   10.3447  -17.9126   27.0657 O   0  0  0  0  0  0  0  0  0  0  0  0
   11.6658  -17.9423   26.6433 C   0  0  0  0  0  0  0  0  0  0  0  0
   11.6600  -17.9312   25.1326 C   0  0  2  0  0  0  0  0  0  0  0  0
   10.5063  -17.2503   24.5944 N   0  0  0  0  0  0  0  0  0  0  0  0
   11.6567  -19.3469   24.6858 C   0  0  0  0  0  0  0  0  0  0  0  0
   12.6764  -20.2238   25.0266 O   0  0  0  0  0  0  0  0  0  0  0  0
   10.7122  -19.7704   23.9818 O   0  0  0  0  0  0  0  0  0  0  0  0
  2  1  1  0
  3  2  1  0
  3  4  1  6
  5  3  1  0
  5  6  1  1
  7  5  1  0
  8  7  2  0
  9  7  1  0
 10  9  1  0
 10 11  1  0
 11 16  1  0
 12 11  2  0
 14 13  1  0
 15 17  1  0
 15 14  1  1
 16 15  1  0
 17 18  1  0
 19 17  2  0
M  END
$$$$
