IGS.pdb
     RDKit          3D

 19 18  0  0  1  0  0  0  0  0999 V2000
    7.3344  -11.0703   27.5373 C   0  0  0  0  0  0  0  0  0  0  0  0
    7.5609  -12.5574   27.4144 C   0  0  0  0  0  0  0  0  0  0  0  0
    7.2692  -12.9637   25.9660 C   0  0  2  0  0  0  0  0  0  0  0  0
    5.8017  -12.7149   25.6385 C   0  0  0  0  0  0  0  0  0  0  0  0
    7.5165  -14.4516   25.8881 C   0  0  2  0  0  0  0  0  0  0  0  0
    8.8387  -14.7187   26.4168 N   0  0  0  0  0  0  0  0  0  0  0  0
    7.4164  -14.8914   24.4569 C   0  0  0  0  0  0  0  0  0  0  0  0
    6.4891  -15.6555   24.0902 O   0  0  0  0  0  0  0  0  0  0  0  0
    8.3590  -14.4541   23.5075 N   0  0  0  0  0  0  0  0  0  0  0  0
    8.2190  -14.8536   22.1357 C   0  0  0  0  0  0  0  0  0  0  0  0
    9.1910  -15.9381   21.8141 C   0  0  0  0  0  0  0  0  0  0  0  0
    9.2274  -16.4350   20.6603 O   0  0  0  0  0  0  0  0  0  0  0  0
   12.6755  -15.9065   22.9542 O   0  0  0  0  0  0  0  0  0  0  0  0
   12.4036  -16.9728   22.1095 C   0  0  0  0  0  0  0  0  0  0  0  0
   11.0376  -17.5049   22.4748 C   0  0  2  0  0  0  0  0  0  0  0  0
   10.1015  -16.4484   22.7779 N   0  0  0  0  0  0  0  0  0  0  0  0
   11.2117  -18.3734   23.6662 C   0  0  0  0  0  0  0  0  0  0  0  0
   11.9549  -19.5438   23.6157 O   0  0  0  0  0  0  0  0  0  0  0  0
   10.6772  -18.0491   24.7506 O   0  0  0  0  0  0  0  0  0  0  0  0
  2  1  1  0
  3  2  1  0
  3  4  1  1
  5  3  1  0
  5  6  1  6
  7  5  1  0
  8  7  2  0
  9  7  1  0
 10  9  1  0
 10 11  1  0
 11 16  1  0
 12 11  2  0
 14 13  1  0
 15 17  1  0
 15 14  1  1
 16 15  1  0
 17 18  1  0
 19 17  2  0
M  END
$$$$
