IGS.pdb
     RDKit          3D

 19 18  0  0  1  0  0  0  0  0999 V2000
    7.7862  -12.0492   19.8204 C   0  0  0  0  0  0  0  0  0  0  0  0
    8.2848  -13.4349   20.1508 C   0  0  0  0  0  0  0  0  0  0  0  0
    7.3620  -14.0287   21.2203 C   0  0  2  0  0  0  0  0  0  0  0  0
    7.5194  -13.2646   22.5295 C   0  0  0  0  0  0  0  0  0  0  0  0
    7.8379  -15.4439   21.4485 C   0  0  2  0  0  0  0  0  0  0  0  0
    7.7433  -16.1609   20.1932 N   0  0  0  0  0  0  0  0  0  0  0  0
    6.9776  -16.0879   22.4958 C   0  0  0  0  0  0  0  0  0  0  0  0
    5.7293  -16.1236   22.3591 O   0  0  0  0  0  0  0  0  0  0  0  0
    7.5572  -16.6599   23.6439 N   0  0  0  0  0  0  0  0  0  0  0  0
    6.7112  -17.1303   24.7040 C   0  0  0  0  0  0  0  0  0  0  0  0
    7.5274  -17.8140   25.7484 C   0  0  0  0  0  0  0  0  0  0  0  0
    6.9860  -18.2332   26.8024 O   0  0  0  0  0  0  0  0  0  0  0  0
   11.4005  -20.5458   26.4301 O   0  0  0  0  0  0  0  0  0  0  0  0
   10.7878  -19.6166   25.6021 C   0  0  0  0  0  0  0  0  0  0  0  0
    9.6500  -18.9965   26.3789 C   0  0  2  0  0  0  0  0  0  0  0  0
    8.9256  -18.0186   25.6023 N   0  0  0  0  0  0  0  0  0  0  0  0
   10.2417  -18.3448   27.5743 C   0  0  0  0  0  0  0  0  0  0  0  0
   10.8864  -19.0755   28.5618 O   0  0  0  0  0  0  0  0  0  0  0  0
   10.1619  -17.1023   27.7037 O   0  0  0  0  0  0  0  0  0  0  0  0
  2  1  1  0
  3  2  1  0
  3  4  1  1
  5  3  1  0
  5  6  1  6
  7  5  1  0
  8  7  2  0
  9  7  1  0
 10  9  1  0
 10 11  1  0
 11 16  1  0
 12 11  2  0
 14 13  1  0
 15 17  1  0
 15 14  1  6
 16 15  1  0
 17 18  1  0
 19 17  2  0
M  END
$$$$
