IGS.pdb
     RDKit          3D

 19 18  0  0  1  0  0  0  0  0999 V2000
    6.2799  -11.5241   27.4390 C   0  0  0  0  0  0  0  0  0  0  0  0
    5.8725  -12.6253   26.4907 C   0  0  0  0  0  0  0  0  0  0  0  0
    7.1371  -13.1525   25.8044 C   0  0  2  0  0  0  0  0  0  0  0  0
    7.7991  -12.0390   25.0015 C   0  0  0  0  0  0  0  0  0  0  0  0
    6.6777  -14.2147   24.8339 C   0  0  2  0  0  0  0  0  0  0  0  0
    6.1468  -15.3257   25.5973 N   0  0  0  0  0  0  0  0  0  0  0  0
    7.8441  -14.6524   23.9974 C   0  0  0  0  0  0  0  0  0  0  0  0
    8.3690  -13.8609   23.1751 O   0  0  0  0  0  0  0  0  0  0  0  0
    8.3650  -15.9539   24.1229 N   0  0  0  0  0  0  0  0  0  0  0  0
    9.5370  -16.3217   23.3798 C   0  0  0  0  0  0  0  0  0  0  0  0
   10.6313  -16.7223   24.3105 C   0  0  0  0  0  0  0  0  0  0  0  0
   11.8008  -16.8866   23.8804 O   0  0  0  0  0  0  0  0  0  0  0  0
   10.4893  -16.0053   28.0964 O   0  0  0  0  0  0  0  0  0  0  0  0
   11.1311  -17.2330   28.0223 C   0  0  0  0  0  0  0  0  0  0  0  0
   11.4028  -17.5163   26.5635 C   0  0  2  0  0  0  0  0  0  0  0  0
   10.4062  -16.9323   25.6974 N   0  0  0  0  0  0  0  0  0  0  0  0
   11.4039  -18.9916   26.3982 C   0  0  0  0  0  0  0  0  0  0  0  0
   12.3170  -19.8008   27.0587 O   0  0  0  0  0  0  0  0  0  0  0  0
   10.5617  -19.5295   25.6443 O   0  0  0  0  0  0  0  0  0  0  0  0
  2  1  1  0
  3  2  1  0
  3  4  1  6
  5  3  1  0
  5  6  1  1
  7  5  1  0
  8  7  2  0
  9  7  1  0
 10  9  1  0
 10 11  1  0
 11 16  1  0
 12 11  2  0
 14 13  1  0
 15 17  1  0
 15 14  1  1
 16 15  1  0
 17 18  1  0
 19 17  2  0
M  END
$$$$
