IGS.pdb
     RDKit          3D

 19 18  0  0  1  0  0  0  0  0999 V2000
    6.9675  -11.0038   27.4181 C   0  0  0  0  0  0  0  0  0  0  0  0
    7.3220  -12.4658   27.2970 C   0  0  0  0  0  0  0  0  0  0  0  0
    7.1018  -12.8884   25.8407 C   0  0  2  0  0  0  0  0  0  0  0  0
    5.6283  -12.7559   25.4748 C   0  0  0  0  0  0  0  0  0  0  0  0
    7.4688  -14.3517   25.7668 C   0  0  2  0  0  0  0  0  0  0  0  0
    8.7986  -14.5129   26.3186 N   0  0  0  0  0  0  0  0  0  0  0  0
    7.4293  -14.7956   24.3339 C   0  0  0  0  0  0  0  0  0  0  0  0
    6.4994  -15.5335   23.9226 O   0  0  0  0  0  0  0  0  0  0  0  0
    8.4323  -14.3917   23.4328 N   0  0  0  0  0  0  0  0  0  0  0  0
    8.3060  -14.7185   22.0406 C   0  0  0  0  0  0  0  0  0  0  0  0
    9.2586  -15.8077   21.6796 C   0  0  0  0  0  0  0  0  0  0  0  0
    9.3227  -16.2275   20.4966 O   0  0  0  0  0  0  0  0  0  0  0  0
   11.8703  -17.0979   24.4606 O   0  0  0  0  0  0  0  0  0  0  0  0
   12.3038  -17.3881   23.1751 C   0  0  0  0  0  0  0  0  0  0  0  0
   11.0861  -17.4199   22.2814 C   0  0  2  0  0  0  0  0  0  0  0  0
   10.1194  -16.4083   22.6369 N   0  0  0  0  0  0  0  0  0  0  0  0
   10.4750  -18.7653   22.4241 C   0  0  0  0  0  0  0  0  0  0  0  0
   11.1803  -19.9237   22.1315 O   0  0  0  0  0  0  0  0  0  0  0  0
    9.2914  -18.8676   22.8186 O   0  0  0  0  0  0  0  0  0  0  0  0
  2  1  1  0
  3  2  1  0
  3  4  1  1
  5  3  1  0
  5  6  1  6
  7  5  1  0
  8  7  2  0
  9  7  1  0
 10  9  1  0
 10 11  1  0
 11 16  1  0
 12 11  2  0
 14 13  1  0
 15 17  1  0
 15 14  1  1
 16 15  1  0
 17 18  1  0
 19 17  2  0
M  END
$$$$
