IGS.pdb
     RDKit          3D

 19 18  0  0  1  0  0  0  0  0999 V2000
    6.5752  -11.4382   27.2886 C   0  0  0  0  0  0  0  0  0  0  0  0
    6.0121  -12.6186   26.5353 C   0  0  0  0  0  0  0  0  0  0  0  0
    7.1867  -13.4369   25.9888 C   0  0  2  0  0  0  0  0  0  0  0  0
    7.9603  -12.6193   24.9612 C   0  0  0  0  0  0  0  0  0  0  0  0
    6.5789  -14.6222   25.2768 C   0  0  2  0  0  0  0  0  0  0  0  0
    5.7157  -15.3167   26.2103 N   0  0  0  0  0  0  0  0  0  0  0  0
    7.6789  -15.5232   24.7971 C   0  0  0  0  0  0  0  0  0  0  0  0
    8.2262  -16.3335   25.5859 O   0  0  0  0  0  0  0  0  0  0  0  0
    8.1116  -15.4724   23.4588 N   0  0  0  0  0  0  0  0  0  0  0  0
    9.1892  -16.3190   23.0310 C   0  0  0  0  0  0  0  0  0  0  0  0
   10.4750  -15.8563   23.6285 C   0  0  0  0  0  0  0  0  0  0  0  0
   10.4969  -15.3709   24.7877 O   0  0  0  0  0  0  0  0  0  0  0  0
   14.1313  -17.8204   24.8728 O   0  0  0  0  0  0  0  0  0  0  0  0
   12.9572  -17.6649   24.1505 C   0  0  0  0  0  0  0  0  0  0  0  0
   12.9518  -16.2625   23.5887 C   0  0  2  0  0  0  0  0  0  0  0  0
   11.7085  -15.9416   22.9290 N   0  0  0  0  0  0  0  0  0  0  0  0
   14.0692  -16.1781   22.6148 C   0  0  0  0  0  0  0  0  0  0  0  0
   13.8769  -16.4054   21.2598 O   0  0  0  0  0  0  0  0  0  0  0  0
   15.2199  -15.8948   23.0178 O   0  0  0  0  0  0  0  0  0  0  0  0
  2  1  1  0
  3  2  1  0
  3  4  1  6
  5  3  1  0
  5  6  1  1
  7  5  1  0
  8  7  2  0
  9  7  1  0
 10  9  1  0
 10 11  1  0
 11 16  1  0
 12 11  2  0
 14 13  1  0
 15 17  1  0
 15 14  1  6
 16 15  1  0
 17 18  1  0
 19 17  2  0
M  END
$$$$
