IGS.pdb
     RDKit          3D

 19 18  0  0  1  0  0  0  0  0999 V2000
    5.8564  -11.0089   26.7294 C   0  0  0  0  0  0  0  0  0  0  0  0
    5.8240  -12.2119   25.8186 C   0  0  0  0  0  0  0  0  0  0  0  0
    6.8512  -13.2253   26.3342 C   0  0  2  0  0  0  0  0  0  0  0  0
    8.2338  -12.5864   26.3895 C   0  0  0  0  0  0  0  0  0  0  0  0
    6.8942  -14.3377   25.3134 C   0  0  2  0  0  0  0  0  0  0  0  0
    5.5801  -14.9443   25.2498 N   0  0  0  0  0  0  0  0  0  0  0  0
    7.9262  -15.3448   25.7286 C   0  0  0  0  0  0  0  0  0  0  0  0
    9.1196  -14.9953   25.9073 O   0  0  0  0  0  0  0  0  0  0  0  0
    7.5713  -16.6929   25.9231 N   0  0  0  0  0  0  0  0  0  0  0  0
    8.5961  -17.6637   26.1844 C   0  0  0  0  0  0  0  0  0  0  0  0
    9.4133  -17.8917   24.9578 C   0  0  0  0  0  0  0  0  0  0  0  0
   10.3137  -18.7686   24.9499 O   0  0  0  0  0  0  0  0  0  0  0  0
    9.1229  -15.4014   21.6745 O   0  0  0  0  0  0  0  0  0  0  0  0
    9.3543  -16.7307   21.3518 C   0  0  0  0  0  0  0  0  0  0  0  0
    9.9716  -17.3911   22.5622 C   0  0  2  0  0  0  0  0  0  0  0  0
    9.2152  -17.1433   23.7667 N   0  0  0  0  0  0  0  0  0  0  0  0
   11.3410  -16.8371   22.7108 C   0  0  0  0  0  0  0  0  0  0  0  0
   11.7272  -16.1360   23.8440 O   0  0  0  0  0  0  0  0  0  0  0  0
   12.1770  -17.0021   21.7939 O   0  0  0  0  0  0  0  0  0  0  0  0
  2  1  1  0
  3  2  1  0
  3  4  1  6
  5  3  1  0
  5  6  1  1
  7  5  1  0
  8  7  2  0
  9  7  1  0
 10  9  1  0
 10 11  1  0
 11 16  1  0
 12 11  2  0
 14 13  1  0
 15 17  1  0
 15 14  1  6
 16 15  1  0
 17 18  1  0
 19 17  2  0
M  END
$$$$
