ASM.pdb
     RDKit          3D

 20 19  0  0  1  0  0  0  0  0999 V2000
    7.5261  -12.9854   18.0054 C   0  0  0  0  0  0  0  0  0  0  0  0
    8.6775  -13.3940   18.8690 C   0  0  2  0  0  0  0  0  0  0  0  0
    9.6327  -14.2113   18.1149 N   0  0  0  0  0  0  0  0  0  0  0  0
    8.1674  -14.1634   20.0340 C   0  0  0  0  0  0  0  0  0  0  0  0
    7.3205  -13.6592   20.7925 O   0  0  0  0  0  0  0  0  0  0  0  0
   10.0412  -17.7134   21.1860 O   0  0  0  0  0  0  0  0  0  0  0  0
    8.6554  -17.7129   21.0272 C   0  0  0  0  0  0  0  0  0  0  0  0
    8.1812  -16.3117   21.3514 C   0  0  2  0  0  0  0  0  0  0  0  0
    8.6425  -15.4571   20.2759 N   0  0  0  0  0  0  0  0  0  0  0  0
    8.7921  -15.8025   22.6148 C   0  0  0  0  0  0  0  0  0  0  0  0
    9.8544  -15.1154   22.5918 O   0  0  0  0  0  0  0  0  0  0  0  0
    6.7121  -10.9783   27.9853 C   0  0  0  0  0  0  0  0  0  0  0  0
    6.2947  -12.1176   26.6429 S   0  0  0  0  0  0  0  0  0  0  0  0
    7.6850  -13.2784   26.3764 C   0  0  0  0  0  0  0  0  0  0  0  0
    7.4004  -14.1939   25.2232 C   0  0  0  0  0  0  0  0  0  0  0  0
    8.5281  -15.1316   25.0030 C   0  0  2  0  0  0  0  0  0  0  0  0
    8.2270  -16.0553   23.8878 N   0  0  0  0  0  0  0  0  0  0  0  0
    8.7309  -15.9970   26.1746 C   0  0  0  0  0  0  0  0  0  0  0  0
    8.3288  -17.1587   26.2220 O   0  0  0  0  0  0  0  0  0  0  0  0
    9.4124  -15.4866   27.2957 O   0  0  0  0  0  0  0  0  0  0  0  0
  2  1  1  6
  2  4  1  0
  3  2  1  0
  4  5  2  0
  8  7  1  6
  7  6  1  0
  9  4  1  0
  9  8  1  0
 10  8  1  0
 10 11  2  0
 12 13  1  0
 13 14  1  0
 14 15  1  0
 16 15  1  1
 16 17  1  0
 16 18  1  0
 17 10  1  0
 18 20  1  0
 19 18  2  0
M  END
$$$$
