ASM.pdb
     RDKit          3D

 20 19  0  0  1  0  0  0  0  0999 V2000
    7.5531  -12.5975   18.5089 C   0  0  0  0  0  0  0  0  0  0  0  0
    8.6608  -13.2631   19.2628 C   0  0  2  0  0  0  0  0  0  0  0  0
    9.3420  -14.2542   18.4246 N   0  0  0  0  0  0  0  0  0  0  0  0
    8.1026  -13.9250   20.4710 C   0  0  0  0  0  0  0  0  0  0  0  0
    7.4376  -13.2681   21.2915 O   0  0  0  0  0  0  0  0  0  0  0  0
    9.3417  -17.7473   21.4317 O   0  0  0  0  0  0  0  0  0  0  0  0
    7.9673  -17.5104   21.4531 C   0  0  0  0  0  0  0  0  0  0  0  0
    7.7838  -16.0463   21.7937 C   0  0  2  0  0  0  0  0  0  0  0  0
    8.3272  -15.2896   20.6837 N   0  0  0  0  0  0  0  0  0  0  0  0
    8.5574  -15.6634   23.0117 C   0  0  0  0  0  0  0  0  0  0  0  0
    9.7939  -15.4038   22.9408 O   0  0  0  0  0  0  0  0  0  0  0  0
    6.2035  -10.6411   26.7451 C   0  0  0  0  0  0  0  0  0  0  0  0
    6.3329  -12.4190   27.0561 S   0  0  0  0  0  0  0  0  0  0  0  0
    7.7868  -13.0875   26.1669 C   0  0  0  0  0  0  0  0  0  0  0  0
    7.9927  -14.5359   26.4967 C   0  0  0  0  0  0  0  0  0  0  0  0
    8.8046  -15.2049   25.4514 C   0  0  2  0  0  0  0  0  0  0  0  0
    7.9616  -15.5709   24.2924 N   0  0  0  0  0  0  0  0  0  0  0  0
    9.3540  -16.4769   25.9438 C   0  0  0  0  0  0  0  0  0  0  0  0
    8.8801  -17.5701   25.6375 O   0  0  0  0  0  0  0  0  0  0  0  0
   10.4694  -16.4567   26.8025 O   0  0  0  0  0  0  0  0  0  0  0  0
  2  1  1  6
  2  4  1  0
  3  2  1  0
  4  5  2  0
  8  7  1  6
  7  6  1  0
  9  4  1  0
  9  8  1  0
 10  8  1  0
 10 11  2  0
 12 13  1  0
 13 14  1  0
 14 15  1  0
 16 15  1  1
 16 17  1  0
 16 18  1  0
 17 10  1  0
 18 20  1  0
 19 18  2  0
M  END
$$$$
