ASM.pdb
     RDKit          3D

 20 19  0  0  1  0  0  0  0  0999 V2000
    7.6183  -12.5663   18.6190 C   0  0  0  0  0  0  0  0  0  0  0  0
    8.6741  -13.2404   19.4373 C   0  0  2  0  0  0  0  0  0  0  0  0
    9.3991  -14.2339   18.6397 N   0  0  0  0  0  0  0  0  0  0  0  0
    8.0395  -13.9013   20.6077 C   0  0  0  0  0  0  0  0  0  0  0  0
    7.3777  -13.2311   21.4199 O   0  0  0  0  0  0  0  0  0  0  0  0
    8.4292  -18.0229   21.0116 O   0  0  0  0  0  0  0  0  0  0  0  0
    7.2517  -17.3811   21.3953 C   0  0  0  0  0  0  0  0  0  0  0  0
    7.6508  -16.0176   21.9196 C   0  0  2  0  0  0  0  0  0  0  0  0
    8.1884  -15.2800   20.7940 N   0  0  0  0  0  0  0  0  0  0  0  0
    8.7339  -16.1167   22.9423 C   0  0  0  0  0  0  0  0  0  0  0  0
    9.2964  -17.2234   23.1874 O   0  0  0  0  0  0  0  0  0  0  0  0
    5.9857  -11.2220   26.8822 C   0  0  0  0  0  0  0  0  0  0  0  0
    6.2164  -13.0121   26.7530 S   0  0  0  0  0  0  0  0  0  0  0  0
    7.7944  -13.3611   25.8932 C   0  0  0  0  0  0  0  0  0  0  0  0
    8.0524  -14.8373   25.8327 C   0  0  0  0  0  0  0  0  0  0  0  0
    9.3373  -15.1208   25.1485 C   0  0  2  0  0  0  0  0  0  0  0  0
    9.1848  -14.9975   23.6825 N   0  0  0  0  0  0  0  0  0  0  0  0
    9.7601  -16.5109   25.3753 C   0  0  0  0  0  0  0  0  0  0  0  0
    9.5493  -17.4118   24.5644 O   0  0  0  0  0  0  0  0  0  0  0  0
   10.4356  -16.8377   26.5664 O   0  0  0  0  0  0  0  0  0  0  0  0
  2  1  1  6
  2  4  1  0
  3  2  1  0
  4  5  2  0
  8  7  1  6
  7  6  1  0
  9  4  1  0
  9  8  1  0
 10  8  1  0
 10 11  2  0
 12 13  1  0
 13 14  1  0
 14 15  1  0
 16 15  1  1
 16 17  1  0
 16 18  1  0
 17 10  1  0
 18 20  1  0
 19 18  2  0
M  END
$$$$
