ASM.pdb
     RDKit          3D

 20 19  0  0  1  0  0  0  0  0999 V2000
    8.6836  -12.1026   19.3000 C   0  0  0  0  0  0  0  0  0  0  0  0
    8.6939  -13.4936   18.7493 C   0  0  2  0  0  0  0  0  0  0  0  0
    7.8858  -13.5790   17.5292 N   0  0  0  0  0  0  0  0  0  0  0  0
    8.1597  -14.4299   19.7727 C   0  0  0  0  0  0  0  0  0  0  0  0
    6.9417  -14.6773   19.8170 O   0  0  0  0  0  0  0  0  0  0  0  0
   10.7363  -17.0325   21.1878 O   0  0  0  0  0  0  0  0  0  0  0  0
    9.3743  -17.3332   21.1792 C   0  0  0  0  0  0  0  0  0  0  0  0
    8.6491  -16.0775   21.6157 C   0  0  2  0  0  0  0  0  0  0  0  0
    9.0306  -15.0326   20.6870 N   0  0  0  0  0  0  0  0  0  0  0  0
    9.0784  -15.6391   22.9766 C   0  0  0  0  0  0  0  0  0  0  0  0
   10.1987  -15.0784   23.1551 O   0  0  0  0  0  0  0  0  0  0  0  0
    6.1242  -10.7140   26.4046 C   0  0  0  0  0  0  0  0  0  0  0  0
    6.1570  -12.4896   26.7519 S   0  0  0  0  0  0  0  0  0  0  0  0
    7.5789  -13.2520   25.8871 C   0  0  0  0  0  0  0  0  0  0  0  0
    7.6767  -14.7134   26.2095 C   0  0  0  0  0  0  0  0  0  0  0  0
    8.7681  -15.3528   25.4353 C   0  0  2  0  0  0  0  0  0  0  0  0
    8.2703  -15.8228   24.1242 N   0  0  0  0  0  0  0  0  0  0  0  0
    9.2595  -16.5606   26.1151 C   0  0  0  0  0  0  0  0  0  0  0  0
    9.9614  -16.5177   27.1247 O   0  0  0  0  0  0  0  0  0  0  0  0
    8.9195  -17.8256   25.5993 O   0  0  0  0  0  0  0  0  0  0  0  0
  2  1  1  1
  2  4  1  0
  3  2  1  0
  4  5  2  0
  8  7  1  6
  7  6  1  0
  9  4  1  0
  9  8  1  0
 10  8  1  0
 10 11  2  0
 12 13  1  0
 13 14  1  0
 14 15  1  0
 16 15  1  1
 16 17  1  0
 16 18  1  0
 17 10  1  0
 18 20  1  0
 19 18  2  0
M  END
$$$$
