ASM.pdb
     RDKit          3D

 20 19  0  0  1  0  0  0  0  0999 V2000
    9.9061  -19.2579   19.2873 C   0  0  0  0  0  0  0  0  0  0  0  0
    9.7692  -18.7959   20.7038 C   0  0  2  0  0  0  0  0  0  0  0  0
    8.5616  -19.3523   21.3210 N   0  0  0  0  0  0  0  0  0  0  0  0
    9.7092  -17.3109   20.7312 C   0  0  0  0  0  0  0  0  0  0  0  0
   10.7307  -16.6406   20.4989 O   0  0  0  0  0  0  0  0  0  0  0  0
    6.0518  -15.7775   21.2983 O   0  0  0  0  0  0  0  0  0  0  0  0
    6.8748  -15.0254   20.4601 C   0  0  0  0  0  0  0  0  0  0  0  0
    8.2949  -15.2358   20.9423 C   0  0  2  0  0  0  0  0  0  0  0  0
    8.5002  -16.6682   21.0194 N   0  0  0  0  0  0  0  0  0  0  0  0
    8.4973  -14.6848   22.3149 C   0  0  0  0  0  0  0  0  0  0  0  0
    8.3753  -13.4459   22.5419 O   0  0  0  0  0  0  0  0  0  0  0  0
    7.1225  -11.0692   26.8003 C   0  0  0  0  0  0  0  0  0  0  0  0
    6.2014  -12.6258   26.7455 S   0  0  0  0  0  0  0  0  0  0  0  0
    7.3737  -14.0195   26.5594 C   0  0  0  0  0  0  0  0  0  0  0  0
    7.4362  -14.4754   25.1320 C   0  0  0  0  0  0  0  0  0  0  0  0
    8.8067  -14.9188   24.7792 C   0  0  2  0  0  0  0  0  0  0  0  0
    8.8314  -15.5030   23.4206 N   0  0  0  0  0  0  0  0  0  0  0  0
    9.2575  -15.9985   25.6700 C   0  0  0  0  0  0  0  0  0  0  0  0
    9.4271  -17.1540   25.2830 O   0  0  0  0  0  0  0  0  0  0  0  0
    9.5091  -15.7111   27.0249 O   0  0  0  0  0  0  0  0  0  0  0  0
  2  1  1  6
  2  4  1  0
  3  2  1  0
  4  5  2  0
  8  7  1  1
  7  6  1  0
  9  4  1  0
  9  8  1  0
 10  8  1  0
 10 11  2  0
 12 13  1  0
 13 14  1  0
 14 15  1  0
 16 15  1  1
 16 17  1  0
 16 18  1  0
 17 10  1  0
 18 20  1  0
 19 18  2  0
M  END
$$$$
