ASM.pdb
     RDKit          3D

 20 19  0  0  1  0  0  0  0  0999 V2000
    8.6482  -12.1587   19.5623 C   0  0  0  0  0  0  0  0  0  0  0  0
    8.6515  -13.5563   19.0284 C   0  0  2  0  0  0  0  0  0  0  0  0
    7.9029  -13.6375   17.7706 N   0  0  0  0  0  0  0  0  0  0  0  0
    8.0444  -14.4667   20.0344 C   0  0  0  0  0  0  0  0  0  0  0  0
    6.8233  -14.7008   20.0078 O   0  0  0  0  0  0  0  0  0  0  0  0
   10.2638  -17.3000   21.6530 O   0  0  0  0  0  0  0  0  0  0  0  0
    8.8705  -17.3577   21.6235 C   0  0  0  0  0  0  0  0  0  0  0  0
    8.3700  -15.9845   22.0196 C   0  0  2  0  0  0  0  0  0  0  0  0
    8.8502  -15.0600   21.0124 N   0  0  0  0  0  0  0  0  0  0  0  0
    8.9392  -15.5480   23.3289 C   0  0  0  0  0  0  0  0  0  0  0  0
   10.1090  -15.0710   23.4020 O   0  0  0  0  0  0  0  0  0  0  0  0
    5.4976  -12.1745   26.7141 C   0  0  0  0  0  0  0  0  0  0  0  0
    7.2324  -11.7344   26.9812 S   0  0  0  0  0  0  0  0  0  0  0  0
    8.3046  -12.9203   26.0895 C   0  0  0  0  0  0  0  0  0  0  0  0
    8.0762  -14.3185   26.5816 C   0  0  0  0  0  0  0  0  0  0  0  0
    8.8895  -15.2891   25.8096 C   0  0  2  0  0  0  0  0  0  0  0  0
    8.2147  -15.6413   24.5414 N   0  0  0  0  0  0  0  0  0  0  0  0
    9.0264  -16.5594   26.5377 C   0  0  0  0  0  0  0  0  0  0  0  0
    8.3707  -17.5618   26.2571 O   0  0  0  0  0  0  0  0  0  0  0  0
    9.9431  -16.6453   27.6027 O   0  0  0  0  0  0  0  0  0  0  0  0
  2  1  1  1
  2  4  1  0
  3  2  1  0
  4  5  2  0
  8  7  1  6
  7  6  1  0
  9  4  1  0
  9  8  1  0
 10  8  1  0
 10 11  2  0
 12 13  1  0
 13 14  1  0
 14 15  1  0
 16 15  1  1
 16 17  1  0
 16 18  1  0
 17 10  1  0
 18 20  1  0
 19 18  2  0
M  END
$$$$
