ASM.pdb
     RDKit          3D

 20 19  0  0  1  0  0  0  0  0999 V2000
    8.7843  -12.1994   19.3014 C   0  0  0  0  0  0  0  0  0  0  0  0
    8.4870  -13.5878   18.8298 C   0  0  2  0  0  0  0  0  0  0  0  0
    7.3224  -13.5996   17.9396 N   0  0  0  0  0  0  0  0  0  0  0  0
    8.2299  -14.4601   20.0055 C   0  0  0  0  0  0  0  0  0  0  0  0
    7.0714  -14.6046   20.4341 O   0  0  0  0  0  0  0  0  0  0  0  0
   11.4369  -16.5893   21.7097 O   0  0  0  0  0  0  0  0  0  0  0  0
   10.2255  -17.1830   21.3552 C   0  0  0  0  0  0  0  0  0  0  0  0
    9.1436  -16.1590   21.6272 C   0  0  2  0  0  0  0  0  0  0  0  0
    9.2949  -15.1188   20.6298 N   0  0  0  0  0  0  0  0  0  0  0  0
    9.3156  -15.5187   22.9648 C   0  0  0  0  0  0  0  0  0  0  0  0
    9.8159  -14.3613   23.0713 O   0  0  0  0  0  0  0  0  0  0  0  0
    6.3992  -11.5103   27.6376 C   0  0  0  0  0  0  0  0  0  0  0  0
    7.4576  -12.5925   26.6461 S   0  0  0  0  0  0  0  0  0  0  0  0
    6.6115  -14.1942   26.3817 C   0  0  0  0  0  0  0  0  0  0  0  0
    7.1153  -14.8633   25.1377 C   0  0  0  0  0  0  0  0  0  0  0  0
    8.5106  -15.3319   25.3186 C   0  0  2  0  0  0  0  0  0  0  0  0
    8.9353  -16.1593   24.1684 N   0  0  0  0  0  0  0  0  0  0  0  0
    8.6229  -16.2148   26.4893 C   0  0  0  0  0  0  0  0  0  0  0  0
    8.7809  -15.7883   27.6324 O   0  0  0  0  0  0  0  0  0  0  0  0
    8.5479  -17.6088   26.3079 O   0  0  0  0  0  0  0  0  0  0  0  0
  2  1  1  1
  2  4  1  0
  3  2  1  0
  4  5  2  0
  8  7  1  6
  7  6  1  0
  9  4  1  0
  9  8  1  0
 10  8  1  0
 10 11  2  0
 12 13  1  0
 13 14  1  0
 14 15  1  0
 16 15  1  6
 16 17  1  0
 16 18  1  0
 17 10  1  0
 18 20  1  0
 19 18  2  0
M  END
$$$$
