ASM.pdb
     RDKit          3D

 20 19  0  0  1  0  0  0  0  0999 V2000
    6.8768  -19.2658   24.6238 C   0  0  0  0  0  0  0  0  0  0  0  0
    6.8324  -19.2336   23.1286 C   0  0  2  0  0  0  0  0  0  0  0  0
    7.2208  -20.5303   22.5658 N   0  0  0  0  0  0  0  0  0  0  0  0
    7.7513  -18.1753   22.6338 C   0  0  0  0  0  0  0  0  0  0  0  0
    8.9820  -18.3147   22.7462 O   0  0  0  0  0  0  0  0  0  0  0  0
    5.8360  -15.2588   21.0839 O   0  0  0  0  0  0  0  0  0  0  0  0
    7.1172  -15.1818   20.5378 C   0  0  0  0  0  0  0  0  0  0  0  0
    8.0303  -15.9631   21.4594 C   0  0  2  0  0  0  0  0  0  0  0  0
    7.2284  -17.0208   22.0409 N   0  0  0  0  0  0  0  0  0  0  0  0
    8.5315  -15.1181   22.5834 C   0  0  0  0  0  0  0  0  0  0  0  0
    8.7446  -13.8813   22.4213 O   0  0  0  0  0  0  0  0  0  0  0  0
    7.0782  -10.9792   27.6969 C   0  0  0  0  0  0  0  0  0  0  0  0
    7.4726  -11.8942   26.1864 S   0  0  0  0  0  0  0  0  0  0  0  0
    6.7789  -13.5844   26.3008 C   0  0  0  0  0  0  0  0  0  0  0  0
    7.0907  -14.3726   25.0636 C   0  0  0  0  0  0  0  0  0  0  0  0
    8.5083  -14.8082   25.0586 C   0  0  2  0  0  0  0  0  0  0  0  0
    8.7921  -15.6438   23.8716 N   0  0  0  0  0  0  0  0  0  0  0  0
    8.7991  -15.6704   26.2139 C   0  0  0  0  0  0  0  0  0  0  0  0
    8.8006  -15.2545   27.3717 O   0  0  0  0  0  0  0  0  0  0  0  0
    9.0896  -17.0311   25.9995 O   0  0  0  0  0  0  0  0  0  0  0  0
  2  1  1  1
  2  4  1  0
  3  2  1  0
  4  5  2  0
  8  7  1  6
  7  6  1  0
  9  4  1  0
  9  8  1  0
 10  8  1  0
 10 11  2  0
 12 13  1  0
 13 14  1  0
 14 15  1  0
 16 15  1  6
 16 17  1  0
 16 18  1  0
 17 10  1  0
 18 20  1  0
 19 18  2  0
M  END
$$$$
