ASM.pdb
     RDKit          3D

 20 19  0  0  1  0  0  0  0  0999 V2000
    7.3322  -12.9079   18.4514 C   0  0  0  0  0  0  0  0  0  0  0  0
    8.5328  -13.2270   19.2853 C   0  0  2  0  0  0  0  0  0  0  0  0
    9.5764  -13.8647   18.4771 N   0  0  0  0  0  0  0  0  0  0  0  0
    8.1326  -14.1321   20.3944 C   0  0  0  0  0  0  0  0  0  0  0  0
    7.2009  -13.8139   21.1544 O   0  0  0  0  0  0  0  0  0  0  0  0
   10.6298  -17.2879   21.6927 O   0  0  0  0  0  0  0  0  0  0  0  0
    9.3050  -17.5422   21.3382 C   0  0  0  0  0  0  0  0  0  0  0  0
    8.5227  -16.2831   21.6481 C   0  0  2  0  0  0  0  0  0  0  0  0
    8.8068  -15.3437   20.5820 N   0  0  0  0  0  0  0  0  0  0  0  0
    8.9747  -15.6546   22.9245 C   0  0  0  0  0  0  0  0  0  0  0  0
    9.9649  -14.8670   22.9457 O   0  0  0  0  0  0  0  0  0  0  0  0
    6.4782  -10.8015   26.1994 C   0  0  0  0  0  0  0  0  0  0  0  0
    6.4053  -12.2461   27.2867 S   0  0  0  0  0  0  0  0  0  0  0  0
    7.7985  -13.3689   26.9001 C   0  0  0  0  0  0  0  0  0  0  0  0
    7.5101  -14.1692   25.6649 C   0  0  0  0  0  0  0  0  0  0  0  0
    8.6582  -15.0431   25.3223 C   0  0  2  0  0  0  0  0  0  0  0  0
    8.3321  -15.9000   24.1616 N   0  0  0  0  0  0  0  0  0  0  0  0
    8.9554  -15.9774   26.4183 C   0  0  0  0  0  0  0  0  0  0  0  0
    8.6887  -17.1771   26.3615 O   0  0  0  0  0  0  0  0  0  0  0  0
    9.5713  -15.4914   27.5872 O   0  0  0  0  0  0  0  0  0  0  0  0
  2  1  1  6
  2  4  1  0
  3  2  1  0
  4  5  2  0
  8  7  1  6
  7  6  1  0
  9  4  1  0
  9  8  1  0
 10  8  1  0
 10 11  2  0
 12 13  1  0
 13 14  1  0
 14 15  1  0
 16 15  1  1
 16 17  1  0
 16 18  1  0
 17 10  1  0
 18 20  1  0
 19 18  2  0
M  END
$$$$
