NIR.pdb
     RDKit          3D

 28 27  0  0  1  0  0  0  0  0999 V2000
    8.4599  -16.5914   13.2995 N   0  0  0  0  0  0  0  0  0  0  0  0
    9.6016  -16.5745   14.1353 C   0  0  0  0  0  0  0  0  0  0  0  0
   10.6491  -17.1695   13.7841 O   0  0  0  0  0  0  0  0  0  0  0  0
    9.5831  -15.8595   15.4315 C   0  0  0  0  0  0  0  0  0  0  0  0
    9.4952  -16.8515   16.5761 C   0  0  2  0  0  0  0  0  0  0  0  0
    8.1723  -17.4593   16.5728 N   0  0  0  0  0  0  0  0  0  0  0  0
    9.6754  -16.1918   17.8838 C   0  0  0  0  0  0  0  0  0  0  0  0
   10.7865  -15.8575   18.3256 O   0  0  0  0  0  0  0  0  0  0  0  0
    6.6997  -12.1696   19.6817 C   0  0  0  0  0  0  0  0  0  0  0  0
    7.9045  -13.0970   19.5040 C   0  0  0  0  0  0  0  0  0  0  0  0
    7.8008  -14.2836   20.4266 C   0  0  2  0  0  0  0  0  0  0  0  0
    7.7664  -13.7598   21.8225 C   0  0  0  0  0  0  0  0  0  0  0  0
    8.7035  -15.3430   20.0571 C   0  0  2  0  0  0  0  0  0  0  0  0
    8.5368  -15.9017   18.7227 N   0  0  0  0  0  0  0  0  0  0  0  0
    9.1663  -16.3515   21.0297 C   0  0  0  0  0  0  0  0  0  0  0  0
    8.5235  -17.4137   21.3136 O   0  0  0  0  0  0  0  0  0  0  0  0
   13.9891  -20.9636   20.1285 N   0  0  0  0  0  0  0  0  0  0  0  0
   14.8416  -19.8485   20.0209 C   0  0  0  0  0  0  0  0  0  0  0  0
   15.8926  -19.8923   19.2767 N   0  0  0  0  0  0  0  0  0  0  0  0
   14.5557  -18.6407   20.7390 N   0  0  0  0  0  0  0  0  0  0  0  0
   14.2477  -18.8102   22.1603 C   0  0  0  0  0  0  0  0  0  0  0  0
   12.7346  -18.8226   22.3680 C   0  0  0  0  0  0  0  0  0  0  0  0
   12.3139  -17.4033   22.5022 C   0  0  0  0  0  0  0  0  0  0  0  0
   10.8406  -17.1894   22.7521 C   0  0  2  0  0  0  0  0  0  0  0  0
   10.3834  -16.2351   21.7522 N   0  0  0  0  0  0  0  0  0  0  0  0
   10.5298  -16.7471   24.1123 C   0  0  0  0  0  0  0  0  0  0  0  0
   10.2238  -15.5512   24.3402 O   0  0  0  0  0  0  0  0  0  0  0  0
   10.5706  -17.6475   25.1549 O   0  0  0  0  0  0  0  0  0  0  0  0
  2  1  1  0
  2  3  2  0
  4  2  1  0
  5  4  1  0
  5  6  1  1
  7  5  1  0
  8  7  2  0
  9 10  1  0
 11 13  1  0
 11 10  1  0
 11 12  1  1
 13 14  1  6
 14  7  1  0
 15 25  1  0
 15 13  1  0
 16 15  2  0
 17 18  1  0
 18 19  2  0
 20 18  1  0
 21 20  1  0
 22 21  1  0
 23 22  1  0
 24 23  1  1
 24 25  1  0
 26 28  1  0
 26 24  1  0
 27 26  2  0
M  END
$$$$
