NIR.pdb
     RDKit          3D

 28 27  0  0  1  0  0  0  0  0999 V2000
    9.0521  -13.3457   17.7972 N   0  0  0  0  0  0  0  0  0  0  0  0
    7.9639  -13.5068   18.6872 C   0  0  0  0  0  0  0  0  0  0  0  0
    6.8452  -13.8763   18.2552 O   0  0  0  0  0  0  0  0  0  0  0  0
    8.1224  -13.2445   20.1356 C   0  0  0  0  0  0  0  0  0  0  0  0
    8.0405  -14.5433   20.9156 C   0  0  2  0  0  0  0  0  0  0  0  0
    6.6666  -15.0242   20.8881 N   0  0  0  0  0  0  0  0  0  0  0  0
    8.4142  -14.3535   22.3305 C   0  0  0  0  0  0  0  0  0  0  0  0
    9.5690  -14.0785   22.6944 O   0  0  0  0  0  0  0  0  0  0  0  0
    5.7135  -11.4394   25.7919 C   0  0  0  0  0  0  0  0  0  0  0  0
    6.7066  -12.2485   24.9537 C   0  0  0  0  0  0  0  0  0  0  0  0
    7.0162  -13.5631   25.6214 C   0  0  2  0  0  0  0  0  0  0  0  0
    7.4417  -13.2627   27.0189 C   0  0  0  0  0  0  0  0  0  0  0  0
    7.7998  -14.4310   24.7810 C   0  0  2  0  0  0  0  0  0  0  0  0
    7.4257  -14.4837   23.3746 N   0  0  0  0  0  0  0  0  0  0  0  0
    8.3292  -15.7203   25.2654 C   0  0  0  0  0  0  0  0  0  0  0  0
    7.6401  -16.7887   25.3425 O   0  0  0  0  0  0  0  0  0  0  0  0
   14.4186  -20.0553   22.9891 N   0  0  0  0  0  0  0  0  0  0  0  0
   13.2329  -20.7269   22.6359 C   0  0  0  0  0  0  0  0  0  0  0  0
   13.2706  -21.9234   22.1591 N   0  0  0  0  0  0  0  0  0  0  0  0
   11.9583  -20.0907   22.8005 N   0  0  0  0  0  0  0  0  0  0  0  0
   11.9873  -18.7804   23.4531 C   0  0  0  0  0  0  0  0  0  0  0  0
   11.3717  -18.8788   24.8475 C   0  0  0  0  0  0  0  0  0  0  0  0
   11.3980  -17.5073   25.4197 C   0  0  0  0  0  0  0  0  0  0  0  0
   10.1972  -17.1353   26.2556 C   0  0  2  0  0  0  0  0  0  0  0  0
    9.6701  -15.8978   25.6986 N   0  0  0  0  0  0  0  0  0  0  0  0
   10.4873  -17.0116   27.6849 C   0  0  0  0  0  0  0  0  0  0  0  0
   10.5232  -15.8830   28.2334 O   0  0  0  0  0  0  0  0  0  0  0  0
   10.7222  -18.1405   28.4397 O   0  0  0  0  0  0  0  0  0  0  0  0
  2  1  1  0
  2  3  2  0
  4  2  1  0
  5  4  1  0
  5  6  1  1
  7  5  1  0
  8  7  2  0
  9 10  1  0
 11 13  1  0
 11 10  1  0
 11 12  1  1
 13 14  1  6
 14  7  1  0
 15 25  1  0
 15 13  1  0
 16 15  2  0
 17 18  1  0
 18 19  2  0
 20 18  1  0
 21 20  1  0
 22 21  1  0
 23 22  1  0
 24 23  1  6
 24 25  1  0
 26 28  1  0
 26 24  1  0
 27 26  2  0
M  END
$$$$
