NIR.pdb
     RDKit          3D

 28 27  0  0  1  0  0  0  0  0999 V2000
    7.2387  -13.4196   18.1993 N   0  0  0  0  0  0  0  0  0  0  0  0
    7.5320  -14.6801   18.7714 C   0  0  0  0  0  0  0  0  0  0  0  0
    7.4964  -15.7168   18.0651 O   0  0  0  0  0  0  0  0  0  0  0  0
    7.8842  -14.8002   20.2042 C   0  0  0  0  0  0  0  0  0  0  0  0
    7.5796  -13.5029   20.9295 C   0  0  2  0  0  0  0  0  0  0  0  0
    8.3083  -12.4198   20.2848 N   0  0  0  0  0  0  0  0  0  0  0  0
    8.0149  -13.5513   22.3387 C   0  0  0  0  0  0  0  0  0  0  0  0
    9.1941  -13.3822   22.6888 O   0  0  0  0  0  0  0  0  0  0  0  0
    5.6832  -11.1992   26.3718 C   0  0  0  0  0  0  0  0  0  0  0  0
    6.6686  -11.8801   25.4185 C   0  0  0  0  0  0  0  0  0  0  0  0
    6.8634  -13.3245   25.8003 C   0  0  2  0  0  0  0  0  0  0  0  0
    7.3959  -13.3482   27.1931 C   0  0  0  0  0  0  0  0  0  0  0  0
    7.4965  -14.0851   24.7542 C   0  0  2  0  0  0  0  0  0  0  0  0
    7.0617  -13.8038   23.3931 N   0  0  0  0  0  0  0  0  0  0  0  0
    7.8788  -15.4986   24.9362 C   0  0  0  0  0  0  0  0  0  0  0  0
    7.3775  -16.4625   24.2715 O   0  0  0  0  0  0  0  0  0  0  0  0
   13.7836  -18.7907   20.7027 N   0  0  0  0  0  0  0  0  0  0  0  0
   13.5061  -19.3919   21.9450 C   0  0  0  0  0  0  0  0  0  0  0  0
   13.3179  -20.6636   22.0339 N   0  0  0  0  0  0  0  0  0  0  0  0
   13.4276  -18.5988   23.1371 N   0  0  0  0  0  0  0  0  0  0  0  0
   12.3311  -17.6295   23.1783 C   0  0  0  0  0  0  0  0  0  0  0  0
   11.1693  -18.1910   23.9953 C   0  0  0  0  0  0  0  0  0  0  0  0
   10.3149  -17.0332   24.3678 C   0  0  0  0  0  0  0  0  0  0  0  0
    9.6707  -17.1204   25.7303 C   0  0  2  0  0  0  0  0  0  0  0  0
    8.8502  -15.9270   25.8794 N   0  0  0  0  0  0  0  0  0  0  0  0
   10.6275  -17.2667   26.8283 C   0  0  0  0  0  0  0  0  0  0  0  0
   11.2745  -18.3327   26.9731 O   0  0  0  0  0  0  0  0  0  0  0  0
   10.8246  -16.2281   27.7123 O   0  0  0  0  0  0  0  0  0  0  0  0
  2  1  1  0
  2  3  2  0
  4  2  1  0
  5  4  1  0
  5  6  1  6
  7  5  1  0
  8  7  2  0
  9 10  1  0
 11 13  1  0
 11 10  1  0
 11 12  1  1
 13 14  1  6
 14  7  1  0
 15 25  1  0
 15 13  1  0
 16 15  2  0
 17 18  1  0
 18 19  2  0
 20 18  1  0
 21 20  1  0
 22 21  1  0
 23 22  1  0
 24 23  1  6
 24 25  1  0
 26 28  1  0
 26 24  1  0
 27 26  2  0
M  END
$$$$
