NIR.pdb
     RDKit          3D

 28 27  0  0  1  0  0  0  0  0999 V2000
    7.2779  -18.6857   19.6094 N   0  0  0  0  0  0  0  0  0  0  0  0
    6.6475  -17.7715   20.4863 C   0  0  0  0  0  0  0  0  0  0  0  0
    5.5029  -17.3305   20.2213 O   0  0  0  0  0  0  0  0  0  0  0  0
    7.3209  -17.3201   21.7250 C   0  0  0  0  0  0  0  0  0  0  0  0
    7.3767  -15.8046   21.7690 C   0  0  2  0  0  0  0  0  0  0  0  0
    8.1625  -15.3286   20.6397 N   0  0  0  0  0  0  0  0  0  0  0  0
    8.0315  -15.3190   22.9992 C   0  0  0  0  0  0  0  0  0  0  0  0
    9.2646  -15.2543   23.1291 O   0  0  0  0  0  0  0  0  0  0  0  0
    6.7118  -11.1312   26.0203 C   0  0  0  0  0  0  0  0  0  0  0  0
    7.3393  -12.3069   25.2670 C   0  0  0  0  0  0  0  0  0  0  0  0
    7.4457  -13.5140   26.1623 C   0  0  2  0  0  0  0  0  0  0  0  0
    8.1680  -13.0901   27.3963 C   0  0  0  0  0  0  0  0  0  0  0  0
    7.8450  -14.6948   25.4413 C   0  0  2  0  0  0  0  0  0  0  0  0
    7.2431  -14.8890   24.1296 N   0  0  0  0  0  0  0  0  0  0  0  0
    8.1170  -15.9741   26.1245 C   0  0  0  0  0  0  0  0  0  0  0  0
    7.2101  -16.7532   26.5636 O   0  0  0  0  0  0  0  0  0  0  0  0
   13.3852  -18.7975   22.1896 N   0  0  0  0  0  0  0  0  0  0  0  0
   12.1418  -19.2798   21.7388 C   0  0  0  0  0  0  0  0  0  0  0  0
   11.9055  -19.4160   20.4794 N   0  0  0  0  0  0  0  0  0  0  0  0
   11.1130  -19.6294   22.6746 N   0  0  0  0  0  0  0  0  0  0  0  0
   11.4408  -19.4069   24.0841 C   0  0  0  0  0  0  0  0  0  0  0  0
   10.2845  -18.6936   24.7819 C   0  0  0  0  0  0  0  0  0  0  0  0
   10.7180  -18.4552   26.1835 C   0  0  0  0  0  0  0  0  0  0  0  0
    9.7251  -17.7160   27.0476 C   0  0  2  0  0  0  0  0  0  0  0  0
    9.4278  -16.4660   26.3631 N   0  0  0  0  0  0  0  0  0  0  0  0
   10.1861  -17.4923   28.4187 C   0  0  0  0  0  0  0  0  0  0  0  0
   10.5092  -16.3419   28.8035 O   0  0  0  0  0  0  0  0  0  0  0  0
   10.2663  -18.5496   29.2988 O   0  0  0  0  0  0  0  0  0  0  0  0
  2  1  1  0
  2  3  2  0
  4  2  1  0
  5  4  1  0
  5  6  1  6
  7  5  1  0
  8  7  2  0
  9 10  1  0
 11 13  1  0
 11 10  1  0
 11 12  1  1
 13 14  1  6
 14  7  1  0
 15 25  1  0
 15 13  1  0
 16 15  2  0
 17 18  1  0
 18 19  2  0
 20 18  1  0
 21 20  1  0
 22 21  1  0
 23 22  1  0
 24 23  1  6
 24 25  1  0
 26 28  1  0
 26 24  1  0
 27 26  2  0
M  END
$$$$
