NIR.pdb
     RDKit          3D

 28 27  0  0  1  0  0  0  0  0999 V2000
    7.4881  -19.8649   30.5234 N   0  0  0  0  0  0  0  0  0  0  0  0
    6.9981  -20.1465   29.2262 C   0  0  0  0  0  0  0  0  0  0  0  0
    6.9794  -21.3273   28.8018 O   0  0  0  0  0  0  0  0  0  0  0  0
    6.5014  -19.0615   28.3500 C   0  0  0  0  0  0  0  0  0  0  0  0
    7.5952  -18.6136   27.3988 C   0  0  2  0  0  0  0  0  0  0  0  0
    8.7041  -18.0769   28.1745 N   0  0  0  0  0  0  0  0  0  0  0  0
    7.1280  -17.5434   26.4965 C   0  0  0  0  0  0  0  0  0  0  0  0
    6.1127  -17.6494   25.7897 O   0  0  0  0  0  0  0  0  0  0  0  0
    6.6824  -12.5130   27.4720 C   0  0  0  0  0  0  0  0  0  0  0  0
    6.5023  -13.8904   26.8286 C   0  0  0  0  0  0  0  0  0  0  0  0
    7.3669  -14.0194   25.6015 C   0  0  2  0  0  0  0  0  0  0  0  0
    6.8228  -13.0853   24.5740 C   0  0  0  0  0  0  0  0  0  0  0  0
    7.6501  -15.3930   25.2752 C   0  0  2  0  0  0  0  0  0  0  0  0
    7.8522  -16.2984   26.3977 N   0  0  0  0  0  0  0  0  0  0  0  0
    8.4659  -15.7668   24.1039 C   0  0  0  0  0  0  0  0  0  0  0  0
    9.7185  -15.5550   24.0124 O   0  0  0  0  0  0  0  0  0  0  0  0
    8.3436  -12.4641   16.8738 N   0  0  0  0  0  0  0  0  0  0  0  0
    9.0101  -12.2944   18.1021 C   0  0  0  0  0  0  0  0  0  0  0  0
    9.3149  -11.1174   18.5290 N   0  0  0  0  0  0  0  0  0  0  0  0
    9.3631  -13.4305   18.9027 N   0  0  0  0  0  0  0  0  0  0  0  0
    8.6779  -14.6789   18.5625 C   0  0  0  0  0  0  0  0  0  0  0  0
    9.1674  -15.8061   19.4694 C   0  0  0  0  0  0  0  0  0  0  0  0
    8.3533  -15.7347   20.7108 C   0  0  0  0  0  0  0  0  0  0  0  0
    8.7041  -16.7514   21.7702 C   0  0  2  0  0  0  0  0  0  0  0  0
    7.9299  -16.4034   22.9530 N   0  0  0  0  0  0  0  0  0  0  0  0
   10.1366  -16.8338   22.0591 C   0  0  0  0  0  0  0  0  0  0  0  0
   10.9089  -17.4519   21.2863 O   0  0  0  0  0  0  0  0  0  0  0  0
   10.6471  -16.2282   23.1868 O   0  0  0  0  0  0  0  0  0  0  0  0
  2  1  1  0
  2  3  2  0
  4  2  1  0
  5  4  1  0
  5  6  1  1
  7  5  1  0
  8  7  2  0
  9 10  1  0
 11 13  1  0
 11 10  1  0
 11 12  1  6
 13 14  1  1
 14  7  1  0
 15 25  1  0
 15 13  1  0
 16 15  2  0
 17 18  1  0
 18 19  2  0
 20 18  1  0
 21 20  1  0
 22 21  1  0
 23 22  1  0
 24 23  1  6
 24 25  1  0
 26 28  1  0
 26 24  1  0
 27 26  2  0
M  END
$$$$
