NIR.pdb
     RDKit          3D

 28 27  0  0  1  0  0  0  0  0999 V2000
    7.0501  -12.5505   17.8437 N   0  0  0  0  0  0  0  0  0  0  0  0
    7.6552  -13.5959   18.5808 C   0  0  0  0  0  0  0  0  0  0  0  0
    7.7694  -14.7391   18.0761 O   0  0  0  0  0  0  0  0  0  0  0  0
    8.1617  -13.3634   19.9523 C   0  0  0  0  0  0  0  0  0  0  0  0
    7.8032  -14.5336   20.8489 C   0  0  2  0  0  0  0  0  0  0  0  0
    6.3575  -14.7053   20.8446 N   0  0  0  0  0  0  0  0  0  0  0  0
    8.2160  -14.2962   22.2457 C   0  0  0  0  0  0  0  0  0  0  0  0
    9.3749  -13.9859   22.5654 O   0  0  0  0  0  0  0  0  0  0  0  0
    5.3792  -11.5657   25.8362 C   0  0  0  0  0  0  0  0  0  0  0  0
    6.4474  -12.2524   24.9813 C   0  0  0  0  0  0  0  0  0  0  0  0
    6.8558  -13.5654   25.5971 C   0  0  2  0  0  0  0  0  0  0  0  0
    7.2810  -13.2858   26.9990 C   0  0  0  0  0  0  0  0  0  0  0  0
    7.6837  -14.3475   24.7160 C   0  0  2  0  0  0  0  0  0  0  0  0
    7.2634  -14.4187   23.3236 N   0  0  0  0  0  0  0  0  0  0  0  0
    8.3476  -15.5876   25.1618 C   0  0  0  0  0  0  0  0  0  0  0  0
    7.7278  -16.6623   25.4505 O   0  0  0  0  0  0  0  0  0  0  0  0
   13.4152  -14.8160   21.1075 N   0  0  0  0  0  0  0  0  0  0  0  0
   14.1966  -15.4977   22.0597 C   0  0  0  0  0  0  0  0  0  0  0  0
   15.4745  -15.5872   21.9208 N   0  0  0  0  0  0  0  0  0  0  0  0
   13.5837  -16.1063   23.2044 N   0  0  0  0  0  0  0  0  0  0  0  0
   12.8722  -17.3597   22.9466 C   0  0  0  0  0  0  0  0  0  0  0  0
   11.4841  -17.3114   23.5821 C   0  0  0  0  0  0  0  0  0  0  0  0
   11.6907  -17.0560   25.0317 C   0  0  0  0  0  0  0  0  0  0  0  0
   10.4283  -16.8840   25.8414 C   0  0  2  0  0  0  0  0  0  0  0  0
    9.7545  -15.7054   25.3158 N   0  0  0  0  0  0  0  0  0  0  0  0
   10.6598  -16.7840   27.2832 C   0  0  0  0  0  0  0  0  0  0  0  0
   10.8334  -15.6652   27.8255 O   0  0  0  0  0  0  0  0  0  0  0  0
   10.6869  -17.9243   28.0566 O   0  0  0  0  0  0  0  0  0  0  0  0
  2  1  1  0
  2  3  2  0
  4  2  1  0
  5  4  1  0
  5  6  1  1
  7  5  1  0
  8  7  2  0
  9 10  1  0
 11 13  1  0
 11 10  1  0
 11 12  1  1
 13 14  1  6
 14  7  1  0
 15 25  1  0
 15 13  1  0
 16 15  2  0
 17 18  1  0
 18 19  2  0
 20 18  1  0
 21 20  1  0
 22 21  1  0
 23 22  1  0
 24 23  1  6
 24 25  1  0
 26 28  1  0
 26 24  1  0
 27 26  2  0
M  END
$$$$
