TFQ.pdb
     RDKit          3D

 28 28  0  0  1  0  0  0  0  0999 V2000
   28.2193  -23.0231  -16.8882 C   0  0  0  0  0  0  0  0  0  0  0  0
   28.9443  -21.7763  -16.4418 C   0  0  1  0  0  0  0  0  0  0  0  0
   29.7188  -21.2533  -17.4728 O   0  0  0  0  0  0  0  0  0  0  0  0
   27.9194  -20.7695  -15.9563 C   0  0  2  0  0  0  0  0  0  0  0  0
   28.6283  -19.5261  -15.7409 N   0  0  0  0  0  0  0  0  0  0  0  0
   27.3525  -21.2034  -14.6614 C   0  0  0  0  0  0  0  0  0  0  0  0
   26.6986  -22.2700  -14.6099 O   0  0  0  0  0  0  0  0  0  0  0  0
   27.5043  -20.4776  -13.4562 N   0  0  0  0  0  0  0  0  0  0  0  0
   26.7955  -20.7624  -12.2296 C   0  0  1  0  0  0  0  0  0  0  0  0
   27.5959  -20.2107  -11.0771 C   0  0  0  0  0  0  0  0  0  0  0  0
   28.8817  -20.8787  -10.8750 C   0  0  0  0  0  0  0  0  0  0  0  0
   29.2200  -21.4288   -9.6629 C   0  0  0  0  0  0  0  0  0  0  0  0
   30.4395  -22.0669   -9.4573 C   0  0  0  0  0  0  0  0  0  0  0  0
   31.3509  -22.1630  -10.4822 C   0  0  0  0  0  0  0  0  0  0  0  0
   31.0243  -21.6165  -11.7002 C   0  0  0  0  0  0  0  0  0  0  0  0
   29.8095  -20.9871  -11.8859 C   0  0  0  0  0  0  0  0  0  0  0  0
   25.4058  -20.2562  -12.2543 C   0  0  0  0  0  0  0  0  0  0  0  0
   25.2298  -19.0228  -12.3716 O   0  0  0  0  0  0  0  0  0  0  0  0
   22.3023  -21.2205  -16.5397 N   0  0  0  0  0  0  0  0  0  0  0  0
   21.5235  -20.1815  -15.9891 C   0  0  0  0  0  0  0  0  0  0  0  0
   20.5105  -19.7800  -16.6200 O   0  0  0  0  0  0  0  0  0  0  0  0
   21.8677  -19.5760  -14.7090 C   0  0  0  0  0  0  0  0  0  0  0  0
   23.0854  -20.0941  -14.0255 C   0  0  0  0  0  0  0  0  0  0  0  0
   22.9420  -20.6761  -12.6741 C   0  0  2  0  0  0  0  0  0  0  0  0
   24.2659  -21.0858  -12.1531 N   0  0  0  0  0  0  0  0  0  0  0  0
   22.0007  -21.7535  -12.4403 C   0  0  0  0  0  0  0  0  0  0  0  0
   20.7530  -21.5416  -12.2145 O   0  0  0  0  0  0  0  0  0  0  0  0
   22.3407  -23.1072  -12.4437 O   0  0  0  0  0  0  0  0  0  0  0  0
  2  1  1  6
  2  3  1  0
  4  2  1  0
  4  5  1  1
  6  7  2  0
  6  4  1  0
  8  6  1  0
  9  8  1  0
  9 10  1  1
 10 11  1  0
 11 16  2  0
 11 12  1  0
 12 13  2  0
 13 14  1  0
 15 14  2  0
 16 15  1  0
 17 18  2  0
 17  9  1  0
 20 19  1  0
 21 20  2  0
 22 20  1  0
 24 23  1  6
 23 22  1  0
 24 25  1  0
 25 17  1  0
 26 24  1  0
 27 26  2  0
 28 26  1  0
M  END
$$$$
