TFQ.pdb
     RDKit          3D

 28 28  0  0  1  0  0  0  0  0999 V2000
   27.1174  -18.8221  -13.5162 C   0  0  0  0  0  0  0  0  0  0  0  0
   27.3013  -20.1272  -14.2528 C   0  0  1  0  0  0  0  0  0  0  0  0
   27.6454  -19.9054  -15.5826 O   0  0  0  0  0  0  0  0  0  0  0  0
   28.3620  -20.9406  -13.5366 C   0  0  2  0  0  0  0  0  0  0  0  0
   28.4875  -22.1880  -14.2598 N   0  0  0  0  0  0  0  0  0  0  0  0
   27.9220  -21.2522  -12.1597 C   0  0  0  0  0  0  0  0  0  0  0  0
   27.0692  -22.1517  -11.9818 O   0  0  0  0  0  0  0  0  0  0  0  0
   28.4117  -20.5873  -11.0105 N   0  0  0  0  0  0  0  0  0  0  0  0
   27.9130  -20.7877   -9.6692 C   0  0  1  0  0  0  0  0  0  0  0  0
   28.8859  -20.1644   -8.7006 C   0  0  0  0  0  0  0  0  0  0  0  0
   28.4069  -20.1307   -7.3186 C   0  0  0  0  0  0  0  0  0  0  0  0
   28.5794  -21.2005   -6.4748 C   0  0  0  0  0  0  0  0  0  0  0  0
   28.1288  -21.1815   -5.1583 C   0  0  0  0  0  0  0  0  0  0  0  0
   27.4885  -20.0703   -4.6628 C   0  0  0  0  0  0  0  0  0  0  0  0
   27.3097  -18.9929   -5.4972 C   0  0  0  0  0  0  0  0  0  0  0  0
   27.7635  -19.0297   -6.8006 C   0  0  0  0  0  0  0  0  0  0  0  0
   26.5343  -20.2786   -9.5014 C   0  0  0  0  0  0  0  0  0  0  0  0
   26.2823  -19.1182   -9.8966 O   0  0  0  0  0  0  0  0  0  0  0  0
   21.5386  -20.9902  -12.4298 N   0  0  0  0  0  0  0  0  0  0  0  0
   22.6554  -20.1393  -12.5636 C   0  0  0  0  0  0  0  0  0  0  0  0
   22.7052  -19.3495  -13.5430 O   0  0  0  0  0  0  0  0  0  0  0  0
   23.7395  -20.1564  -11.5898 C   0  0  0  0  0  0  0  0  0  0  0  0
   23.6060  -21.1071  -10.4511 C   0  0  0  0  0  0  0  0  0  0  0  0
   24.0612  -20.6734   -9.1130 C   0  0  2  0  0  0  0  0  0  0  0  0
   25.4858  -21.0276   -8.9204 N   0  0  0  0  0  0  0  0  0  0  0  0
   23.3238  -21.0673   -7.9289 C   0  0  0  0  0  0  0  0  0  0  0  0
   23.7976  -21.8929   -7.0648 O   0  0  0  0  0  0  0  0  0  0  0  0
   22.0510  -20.5956   -7.6039 O   0  0  0  0  0  0  0  0  0  0  0  0
  2  1  1  1
  2  3  1  0
  4  2  1  0
  4  5  1  6
  6  7  2  0
  6  4  1  0
  8  6  1  0
  9  8  1  0
  9 10  1  1
 10 11  1  0
 11 16  2  0
 11 12  1  0
 12 13  2  0
 13 14  1  0
 15 14  2  0
 16 15  1  0
 17 18  2  0
 17  9  1  0
 20 19  1  0
 21 20  2  0
 22 20  1  0
 24 23  1  6
 23 22  1  0
 24 25  1  0
 25 17  1  0
 26 24  1  0
 27 26  2  0
 28 26  1  0
M  END
$$$$
