TFQ.pdb
     RDKit          3D

 28 28  0  0  1  0  0  0  0  0999 V2000
   28.5088  -20.2647  -17.2728 C   0  0  0  0  0  0  0  0  0  0  0  0
   27.3761  -20.5273  -16.3097 C   0  0  1  0  0  0  0  0  0  0  0  0
   26.2682  -21.0468  -16.9722 O   0  0  0  0  0  0  0  0  0  0  0  0
   27.8683  -21.4737  -15.2318 C   0  0  2  0  0  0  0  0  0  0  0  0
   27.9716  -22.7816  -15.8430 N   0  0  0  0  0  0  0  0  0  0  0  0
   26.8787  -21.5573  -14.1363 C   0  0  0  0  0  0  0  0  0  0  0  0
   26.1255  -22.5554  -14.0711 O   0  0  0  0  0  0  0  0  0  0  0  0
   26.7261  -20.5642  -13.1398 N   0  0  0  0  0  0  0  0  0  0  0  0
   25.6519  -20.5263  -12.1741 C   0  0  1  0  0  0  0  0  0  0  0  0
   25.9919  -19.5007  -11.1225 C   0  0  0  0  0  0  0  0  0  0  0  0
   26.7961  -20.0270  -10.0194 C   0  0  0  0  0  0  0  0  0  0  0  0
   26.3035  -20.0856   -8.7388 C   0  0  0  0  0  0  0  0  0  0  0  0
   27.0576  -20.5838   -7.6806 C   0  0  0  0  0  0  0  0  0  0  0  0
   28.3373  -21.0374   -7.8972 C   0  0  0  0  0  0  0  0  0  0  0  0
   28.8420  -20.9842   -9.1744 C   0  0  0  0  0  0  0  0  0  0  0  0
   28.0791  -20.4865  -10.2121 C   0  0  0  0  0  0  0  0  0  0  0  0
   24.3372  -20.2819  -12.8066 C   0  0  0  0  0  0  0  0  0  0  0  0
   24.2509  -19.3613  -13.6498 O   0  0  0  0  0  0  0  0  0  0  0  0
   19.7185  -23.4666  -15.3169 N   0  0  0  0  0  0  0  0  0  0  0  0
   20.8416  -24.0180  -14.6659 C   0  0  0  0  0  0  0  0  0  0  0  0
   20.9208  -25.2685  -14.5426 O   0  0  0  0  0  0  0  0  0  0  0  0
   21.9051  -23.1690  -14.1444 C   0  0  0  0  0  0  0  0  0  0  0  0
   21.7683  -21.7033  -14.3713 C   0  0  0  0  0  0  0  0  0  0  0  0
   21.8886  -20.7956  -13.2107 C   0  0  2  0  0  0  0  0  0  0  0  0
   23.1736  -21.0287  -12.5131 N   0  0  0  0  0  0  0  0  0  0  0  0
   20.8312  -20.7332  -12.2211 C   0  0  0  0  0  0  0  0  0  0  0  0
   21.0407  -20.9614  -10.9734 O   0  0  0  0  0  0  0  0  0  0  0  0
   19.5029  -20.4174  -12.5107 O   0  0  0  0  0  0  0  0  0  0  0  0
  2  1  1  6
  2  3  1  0
  4  2  1  0
  4  5  1  6
  6  7  2  0
  6  4  1  0
  8  6  1  0
  9  8  1  0
  9 10  1  1
 10 11  1  0
 11 16  2  0
 11 12  1  0
 12 13  2  0
 13 14  1  0
 15 14  2  0
 16 15  1  0
 17 18  2  0
 17  9  1  0
 20 19  1  0
 21 20  2  0
 22 20  1  0
 24 23  1  6
 23 22  1  0
 24 25  1  0
 25 17  1  0
 26 24  1  0
 27 26  2  0
 28 26  1  0
M  END
$$$$
