TFQ.pdb
     RDKit          3D

 28 28  0  0  1  0  0  0  0  0999 V2000
   20.8905   -8.9267  -20.5951 C   0  0  0  0  0  0  0  0  0  0  0  0
   21.2466  -10.3173  -20.1273 C   0  0  1  0  0  0  0  0  0  0  0  0
   21.2827  -11.2090  -21.1950 O   0  0  0  0  0  0  0  0  0  0  0  0
   22.5824  -10.2589  -19.4119 C   0  0  2  0  0  0  0  0  0  0  0  0
   22.9185  -11.6187  -19.0478 N   0  0  0  0  0  0  0  0  0  0  0  0
   22.4602   -9.4689  -18.1679 C   0  0  0  0  0  0  0  0  0  0  0  0
   21.5900   -9.7891  -17.3263 O   0  0  0  0  0  0  0  0  0  0  0  0
   23.2779   -8.3550  -17.8626 N   0  0  0  0  0  0  0  0  0  0  0  0
   23.2104   -7.5972  -16.6341 C   0  0  1  0  0  0  0  0  0  0  0  0
   24.6164   -7.3416  -16.1536 C   0  0  0  0  0  0  0  0  0  0  0  0
   25.3730   -8.5589  -15.8601 C   0  0  0  0  0  0  0  0  0  0  0  0
   26.6154   -8.7781  -16.4028 C   0  0  0  0  0  0  0  0  0  0  0  0
   27.3456   -9.9314  -16.1319 C   0  0  0  0  0  0  0  0  0  0  0  0
   26.8302  -10.8960  -15.2988 C   0  0  0  0  0  0  0  0  0  0  0  0
   25.5877  -10.6887  -14.7491 C   0  0  0  0  0  0  0  0  0  0  0  0
   24.8776   -9.5382  -15.0293 C   0  0  0  0  0  0  0  0  0  0  0  0
   22.4230   -6.3540  -16.7844 C   0  0  0  0  0  0  0  0  0  0  0  0
   22.7856   -5.5280  -17.6517 O   0  0  0  0  0  0  0  0  0  0  0  0
   16.2579   -5.8028  -16.5147 N   0  0  0  0  0  0  0  0  0  0  0  0
   16.6546   -4.4513  -16.5876 C   0  0  0  0  0  0  0  0  0  0  0  0
   15.7738   -3.5662  -16.7495 O   0  0  0  0  0  0  0  0  0  0  0  0
   18.0558   -4.0677  -16.4729 C   0  0  0  0  0  0  0  0  0  0  0  0
   19.0445   -5.1704  -16.3149 C   0  0  0  0  0  0  0  0  0  0  0  0
   20.4794   -4.8247  -16.2310 C   0  0  2  0  0  0  0  0  0  0  0  0
   21.2850   -6.0461  -16.0047 N   0  0  0  0  0  0  0  0  0  0  0  0
   20.9295   -3.7983  -15.3117 C   0  0  0  0  0  0  0  0  0  0  0  0
   20.6351   -2.5565  -15.4672 O   0  0  0  0  0  0  0  0  0  0  0  0
   21.7073   -4.0453  -14.1794 O   0  0  0  0  0  0  0  0  0  0  0  0
  2  1  1  6
  2  3  1  0
  4  2  1  0
  4  5  1  1
  6  7  2  0
  6  4  1  0
  8  6  1  0
  9  8  1  0
  9 10  1  6
 10 11  1  0
 11 16  2  0
 11 12  1  0
 12 13  2  0
 13 14  1  0
 15 14  2  0
 16 15  1  0
 17 18  2  0
 17  9  1  0
 20 19  1  0
 21 20  2  0
 22 20  1  0
 24 23  1  1
 23 22  1  0
 24 25  1  0
 25 17  1  0
 26 24  1  0
 27 26  2  0
 28 26  1  0
M  END
$$$$
