TFQ.pdb
     RDKit          3D

 28 28  0  0  1  0  0  0  0  0999 V2000
   16.8459  -10.5632  -19.0678 C   0  0  0  0  0  0  0  0  0  0  0  0
   16.8404  -11.8678  -18.3079 C   0  0  1  0  0  0  0  0  0  0  0  0
   16.4985  -12.9289  -19.1406 O   0  0  0  0  0  0  0  0  0  0  0  0
   18.2095  -12.0715  -17.6884 C   0  0  2  0  0  0  0  0  0  0  0  0
   18.1642  -13.3371  -16.9877 N   0  0  0  0  0  0  0  0  0  0  0  0
   18.4837  -11.0091  -16.6972 C   0  0  0  0  0  0  0  0  0  0  0  0
   17.8951  -11.0405  -15.5924 O   0  0  0  0  0  0  0  0  0  0  0  0
   19.3842   -9.9408  -16.9214 N   0  0  0  0  0  0  0  0  0  0  0  0
   19.6596   -8.8847  -15.9744 C   0  0  1  0  0  0  0  0  0  0  0  0
   21.1337   -8.8996  -15.6586 C   0  0  0  0  0  0  0  0  0  0  0  0
   21.5661   -7.8007  -14.7949 C   0  0  0  0  0  0  0  0  0  0  0  0
   21.4540   -7.8777  -13.4283 C   0  0  0  0  0  0  0  0  0  0  0  0
   21.8614   -6.8399  -12.5953 C   0  0  0  0  0  0  0  0  0  0  0  0
   22.3954   -5.6922  -13.1317 C   0  0  0  0  0  0  0  0  0  0  0  0
   22.5130   -5.6027  -14.4981 C   0  0  0  0  0  0  0  0  0  0  0  0
   22.1034   -6.6425  -15.3090 C   0  0  0  0  0  0  0  0  0  0  0  0
   19.1911   -7.5657  -16.4531 C   0  0  0  0  0  0  0  0  0  0  0  0
   19.5159   -7.2084  -17.6076 O   0  0  0  0  0  0  0  0  0  0  0  0
   13.7022   -5.1036  -16.3097 N   0  0  0  0  0  0  0  0  0  0  0  0
   14.3858   -5.8372  -17.3016 C   0  0  0  0  0  0  0  0  0  0  0  0
   13.7177   -6.4324  -18.1875 O   0  0  0  0  0  0  0  0  0  0  0  0
   15.8412   -5.9101  -17.3193 C   0  0  0  0  0  0  0  0  0  0  0  0
   16.5638   -5.1970  -16.2295 C   0  0  0  0  0  0  0  0  0  0  0  0
   18.0341   -5.3310  -16.1527 C   0  0  2  0  0  0  0  0  0  0  0  0
   18.3978   -6.6866  -15.6813 N   0  0  0  0  0  0  0  0  0  0  0  0
   18.8172   -4.3602  -15.4141 C   0  0  0  0  0  0  0  0  0  0  0  0
   19.1839   -4.5531  -14.1971 O   0  0  0  0  0  0  0  0  0  0  0  0
   19.2538   -3.1423  -15.9375 O   0  0  0  0  0  0  0  0  0  0  0  0
  2  1  1  6
  2  3  1  0
  4  2  1  0
  4  5  1  1
  6  7  2  0
  6  4  1  0
  8  6  1  0
  9  8  1  0
  9 10  1  6
 10 11  1  0
 11 16  2  0
 11 12  1  0
 12 13  2  0
 13 14  1  0
 15 14  2  0
 16 15  1  0
 17 18  2  0
 17  9  1  0
 20 19  1  0
 21 20  2  0
 22 20  1  0
 24 23  1  1
 23 22  1  0
 24 25  1  0
 25 17  1  0
 26 24  1  0
 27 26  2  0
 28 26  1  0
M  END
$$$$
