TFQ.pdb
     RDKit          3D

 28 28  0  0  1  0  0  0  0  0999 V2000
   32.1868  -32.7750  -20.1188 C   0  0  0  0  0  0  0  0  0  0  0  0
   33.4177  -32.2530  -19.4173 C   0  0  1  0  0  0  0  0  0  0  0  0
   34.2761  -31.6267  -20.3156 O   0  0  0  0  0  0  0  0  0  0  0  0
   32.9810  -31.3040  -18.3181 C   0  0  2  0  0  0  0  0  0  0  0  0
   34.1753  -30.9371  -17.5874 N   0  0  0  0  0  0  0  0  0  0  0  0
   32.0661  -31.9934  -17.3831 C   0  0  0  0  0  0  0  0  0  0  0  0
   32.5373  -32.8181  -16.5672 O   0  0  0  0  0  0  0  0  0  0  0  0
   30.6680  -31.7769  -17.3512 N   0  0  0  0  0  0  0  0  0  0  0  0
   29.7492  -32.4633  -16.4723 C   0  0  1  0  0  0  0  0  0  0  0  0
   28.6571  -31.5014  -16.0785 C   0  0  0  0  0  0  0  0  0  0  0  0
   27.5680  -32.1188  -15.3214 C   0  0  0  0  0  0  0  0  0  0  0  0
   27.7363  -32.5113  -14.0161 C   0  0  0  0  0  0  0  0  0  0  0  0
   26.7088  -33.0996  -13.2847 C   0  0  0  0  0  0  0  0  0  0  0  0
   25.4786  -33.3051  -13.8630 C   0  0  0  0  0  0  0  0  0  0  0  0
   25.2973  -32.9166  -15.1688 C   0  0  0  0  0  0  0  0  0  0  0  0
   26.3283  -32.3344  -15.8791 C   0  0  0  0  0  0  0  0  0  0  0  0
   29.2242  -33.7095  -17.0720 C   0  0  0  0  0  0  0  0  0  0  0  0
   28.7337  -33.6490  -18.2217 O   0  0  0  0  0  0  0  0  0  0  0  0
   28.4935  -36.8023  -20.4419 N   0  0  0  0  0  0  0  0  0  0  0  0
   28.6624  -38.0555  -19.8173 C   0  0  0  0  0  0  0  0  0  0  0  0
   28.2838  -39.0930  -20.4218 O   0  0  0  0  0  0  0  0  0  0  0  0
   29.2694  -38.1661  -18.4970 C   0  0  0  0  0  0  0  0  0  0  0  0
   29.6627  -36.8945  -17.8286 C   0  0  0  0  0  0  0  0  0  0  0  0
   28.6498  -36.1774  -17.0252 C   0  0  2  0  0  0  0  0  0  0  0  0
   29.2451  -34.9639  -16.4210 N   0  0  0  0  0  0  0  0  0  0  0  0
   27.8982  -36.8799  -16.0040 C   0  0  0  0  0  0  0  0  0  0  0  0
   26.6133  -36.9233  -16.0013 O   0  0  0  0  0  0  0  0  0  0  0  0
   28.4780  -37.5761  -14.9423 O   0  0  0  0  0  0  0  0  0  0  0  0
  2  1  1  6
  2  3  1  0
  4  2  1  0
  4  5  1  1
  6  7  2  0
  6  4  1  0
  8  6  1  0
  9  8  1  0
  9 10  1  6
 10 11  1  0
 11 16  2  0
 11 12  1  0
 12 13  2  0
 13 14  1  0
 15 14  2  0
 16 15  1  0
 17 18  2  0
 17  9  1  0
 20 19  1  0
 21 20  2  0
 22 20  1  0
 24 23  1  1
 23 22  1  0
 24 25  1  0
 25 17  1  0
 26 24  1  0
 27 26  2  0
 28 26  1  0
M  END
$$$$
