TFQ.pdb
     RDKit          3D

 28 28  0  0  1  0  0  0  0  0999 V2000
   28.3842  -19.8557  -17.5735 C   0  0  0  0  0  0  0  0  0  0  0  0
   27.4260  -20.0883  -16.4301 C   0  0  1  0  0  0  0  0  0  0  0  0
   26.1074  -20.0783  -16.8741 O   0  0  0  0  0  0  0  0  0  0  0  0
   27.7753  -21.4072  -15.7681 C   0  0  2  0  0  0  0  0  0  0  0  0
   27.3783  -22.4517  -16.6879 N   0  0  0  0  0  0  0  0  0  0  0  0
   26.9966  -21.5741  -14.5222 C   0  0  0  0  0  0  0  0  0  0  0  0
   25.8879  -22.1542  -14.5703 O   0  0  0  0  0  0  0  0  0  0  0  0
   27.4317  -21.1121  -13.2574 N   0  0  0  0  0  0  0  0  0  0  0  0
   26.6325  -21.1350  -12.0538 C   0  0  1  0  0  0  0  0  0  0  0  0
   27.5175  -20.7775  -10.8867 C   0  0  0  0  0  0  0  0  0  0  0  0
   26.7896  -20.5541   -9.6375 C   0  0  0  0  0  0  0  0  0  0  0  0
   27.2687  -19.7027   -8.6722 C   0  0  0  0  0  0  0  0  0  0  0  0
   26.5863  -19.4812   -7.4797 C   0  0  0  0  0  0  0  0  0  0  0  0
   25.3945  -20.1217   -7.2360 C   0  0  0  0  0  0  0  0  0  0  0  0
   24.9042  -20.9764   -8.1942 C   0  0  0  0  0  0  0  0  0  0  0  0
   25.5950  -21.1839   -9.3716 C   0  0  0  0  0  0  0  0  0  0  0  0
   25.4409  -20.2643  -12.1551 C   0  0  0  0  0  0  0  0  0  0  0  0
   25.6196  -19.0409  -12.3487 O   0  0  0  0  0  0  0  0  0  0  0  0
   20.8198  -18.4424  -15.1409 N   0  0  0  0  0  0  0  0  0  0  0  0
   21.7456  -19.4181  -15.5654 C   0  0  0  0  0  0  0  0  0  0  0  0
   21.5809  -19.9667  -16.6866 O   0  0  0  0  0  0  0  0  0  0  0  0
   22.8834  -19.7922  -14.7351 C   0  0  0  0  0  0  0  0  0  0  0  0
   23.0407  -19.0675  -13.4433 C   0  0  0  0  0  0  0  0  0  0  0  0
   22.9428  -19.8384  -12.1857 C   0  0  2  0  0  0  0  0  0  0  0  0
   24.1127  -20.7350  -12.0457 N   0  0  0  0  0  0  0  0  0  0  0  0
   21.7432  -20.5950  -11.8857 C   0  0  0  0  0  0  0  0  0  0  0  0
   21.7134  -21.8799  -11.9157 O   0  0  0  0  0  0  0  0  0  0  0  0
   20.5212  -20.0209  -11.5320 O   0  0  0  0  0  0  0  0  0  0  0  0
  2  1  1  6
  2  3  1  0
  4  2  1  0
  4  5  1  6
  6  7  2  0
  6  4  1  0
  8  6  1  0
  9  8  1  0
  9 10  1  1
 10 11  1  0
 11 16  2  0
 11 12  1  0
 12 13  2  0
 13 14  1  0
 15 14  2  0
 16 15  1  0
 17 18  2  0
 17  9  1  0
 20 19  1  0
 21 20  2  0
 22 20  1  0
 24 23  1  6
 23 22  1  0
 24 25  1  0
 25 17  1  0
 26 24  1  0
 27 26  2  0
 28 26  1  0
M  END
$$$$
