TFQ.pdb
     RDKit          3D

 28 28  0  0  1  0  0  0  0  0999 V2000
   20.3130   -2.2039  -17.9058 C   0  0  0  0  0  0  0  0  0  0  0  0
   19.6497   -1.8252  -16.6034 C   0  0  1  0  0  0  0  0  0  0  0  0
   18.3101   -1.5049  -16.8003 O   0  0  0  0  0  0  0  0  0  0  0  0
   19.8042   -2.9777  -15.6299 C   0  0  2  0  0  0  0  0  0  0  0  0
   19.1971   -2.5548  -14.3860 N   0  0  0  0  0  0  0  0  0  0  0  0
   21.2367   -3.2402  -15.3741 C   0  0  0  0  0  0  0  0  0  0  0  0
   21.9073   -2.3934  -14.7406 O   0  0  0  0  0  0  0  0  0  0  0  0
   21.9097   -4.4074  -15.8068 N   0  0  0  0  0  0  0  0  0  0  0  0
   23.3136   -4.6744  -15.5933 C   0  0  1  0  0  0  0  0  0  0  0  0
   23.4973   -6.1622  -15.4332 C   0  0  0  0  0  0  0  0  0  0  0  0
   23.2166   -6.9282  -16.6476 C   0  0  0  0  0  0  0  0  0  0  0  0
   24.2265   -7.3509  -17.4769 C   0  0  0  0  0  0  0  0  0  0  0  0
   23.9734   -8.0801  -18.6348 C   0  0  0  0  0  0  0  0  0  0  0  0
   22.6821   -8.4002  -18.9817 C   0  0  0  0  0  0  0  0  0  0  0  0
   21.6623   -7.9830  -18.1601 C   0  0  0  0  0  0  0  0  0  0  0  0
   21.9324   -7.2603  -17.0151 C   0  0  0  0  0  0  0  0  0  0  0  0
   24.1619   -4.1059  -16.6637 C   0  0  0  0  0  0  0  0  0  0  0  0
   23.6138   -3.7845  -17.7418 O   0  0  0  0  0  0  0  0  0  0  0  0
   24.7390    0.4582  -18.9476 N   0  0  0  0  0  0  0  0  0  0  0  0
   25.9548    0.0082  -19.5031 C   0  0  0  0  0  0  0  0  0  0  0  0
   26.5410    0.7309  -20.3513 O   0  0  0  0  0  0  0  0  0  0  0  0
   26.5402   -1.2666  -19.1081 C   0  0  0  0  0  0  0  0  0  0  0  0
   25.7786   -2.0788  -18.1187 C   0  0  0  0  0  0  0  0  0  0  0  0
   26.3744   -3.3428  -17.6358 C   0  0  2  0  0  0  0  0  0  0  0  0
   25.5553   -3.9050  -16.5381 N   0  0  0  0  0  0  0  0  0  0  0  0
   27.7684   -3.3876  -17.2408 C   0  0  0  0  0  0  0  0  0  0  0  0
   28.7248   -3.1176  -18.0564 O   0  0  0  0  0  0  0  0  0  0  0  0
   28.2104   -3.7139  -15.9578 O   0  0  0  0  0  0  0  0  0  0  0  0
  2  1  1  6
  2  3  1  0
  4  2  1  0
  4  5  1  1
  6  7  2  0
  6  4  1  0
  8  6  1  0
  9  8  1  0
  9 10  1  6
 10 11  1  0
 11 16  2  0
 11 12  1  0
 12 13  2  0
 13 14  1  0
 15 14  2  0
 16 15  1  0
 17 18  2  0
 17  9  1  0
 20 19  1  0
 21 20  2  0
 22 20  1  0
 24 23  1  1
 23 22  1  0
 24 25  1  0
 25 17  1  0
 26 24  1  0
 27 26  2  0
 28 26  1  0
M  END
$$$$
