TFQ.pdb
     RDKit          3D

 28 28  0  0  1  0  0  0  0  0999 V2000
   24.8633   -9.6731  -21.4454 C   0  0  0  0  0  0  0  0  0  0  0  0
   25.2823  -11.1213  -21.5282 C   0  0  1  0  0  0  0  0  0  0  0  0
   25.7656  -11.4292  -22.7962 O   0  0  0  0  0  0  0  0  0  0  0  0
   26.3271  -11.3834  -20.4607 C   0  0  2  0  0  0  0  0  0  0  0  0
   26.6446  -12.7939  -20.5279 N   0  0  0  0  0  0  0  0  0  0  0  0
   25.7681  -11.1034  -19.1207 C   0  0  0  0  0  0  0  0  0  0  0  0
   24.8878  -11.8637  -18.6572 O   0  0  0  0  0  0  0  0  0  0  0  0
   26.1715  -10.0123  -18.3150 N   0  0  0  0  0  0  0  0  0  0  0  0
   25.6043   -9.6875  -17.0263 C   0  0  1  0  0  0  0  0  0  0  0  0
   26.6818   -9.8300  -15.9814 C   0  0  0  0  0  0  0  0  0  0  0  0
   27.1504  -11.2036  -15.7967 C   0  0  0  0  0  0  0  0  0  0  0  0
   26.4012  -12.1298  -15.1133 C   0  0  0  0  0  0  0  0  0  0  0  0
   26.8350  -13.4395  -14.9306 C   0  0  0  0  0  0  0  0  0  0  0  0
   28.0465  -13.8437  -15.4396 C   0  0  0  0  0  0  0  0  0  0  0  0
   28.8059  -12.9262  -16.1255 C   0  0  0  0  0  0  0  0  0  0  0  0
   28.3593  -11.6310  -16.2971 C   0  0  0  0  0  0  0  0  0  0  0  0
   24.9691   -8.3516  -17.0135 C   0  0  0  0  0  0  0  0  0  0  0  0
   25.6089   -7.3902  -17.4957 O   0  0  0  0  0  0  0  0  0  0  0  0
   23.4515   -4.8538  -19.8752 N   0  0  0  0  0  0  0  0  0  0  0  0
   22.2309   -4.5302  -19.2471 C   0  0  0  0  0  0  0  0  0  0  0  0
   21.6601   -3.4485  -19.5464 O   0  0  0  0  0  0  0  0  0  0  0  0
   21.6232   -5.4248  -18.2703 C   0  0  0  0  0  0  0  0  0  0  0  0
   22.3687   -6.6728  -17.9457 C   0  0  0  0  0  0  0  0  0  0  0  0
   23.0178   -6.7826  -16.6220 C   0  0  2  0  0  0  0  0  0  0  0  0
   23.6815   -8.0993  -16.4881 N   0  0  0  0  0  0  0  0  0  0  0  0
   22.2593   -6.5234  -15.4142 C   0  0  0  0  0  0  0  0  0  0  0  0
   21.7513   -7.4667  -14.7037 O   0  0  0  0  0  0  0  0  0  0  0  0
   22.0123   -5.2492  -14.9010 O   0  0  0  0  0  0  0  0  0  0  0  0
  2  1  1  6
  2  3  1  0
  4  2  1  0
  4  5  1  1
  6  7  2  0
  6  4  1  0
  8  6  1  0
  9  8  1  0
  9 10  1  1
 10 11  1  0
 11 16  2  0
 11 12  1  0
 12 13  2  0
 13 14  1  0
 15 14  2  0
 16 15  1  0
 17 18  2  0
 17  9  1  0
 20 19  1  0
 21 20  2  0
 22 20  1  0
 24 23  1  6
 23 22  1  0
 24 25  1  0
 25 17  1  0
 26 24  1  0
 27 26  2  0
 28 26  1  0
M  END
$$$$
