GEH.pdb
     RDKit          3D

 24 24  0  0  1  0  0  0  0  0999 V2000
   31.9688  -35.9662    2.3784 N   0  0  0  0  0  0  0  0  0  0  0  0
   31.6022  -34.9591    3.3524 C   0  0  0  0  0  0  0  0  0  0  0  0
   30.1225  -34.8006    3.3870 C   0  0  0  0  0  0  0  0  0  0  0  0
   29.4156  -35.4124    2.5105 O   0  0  0  0  0  0  0  0  0  0  0  0
   29.4972  -33.9878    4.3708 N   0  0  0  0  0  0  0  0  0  0  0  0
   28.0969  -33.6885    4.3765 C   0  0  1  0  0  0  0  0  0  0  0  0
   27.5599  -33.2743    5.6924 C   0  0  0  0  0  0  0  0  0  0  0  0
   26.1321  -33.0701    5.9015 C   0  0  0  0  0  0  0  0  0  0  0  0
   25.6634  -32.6165    7.2056 C   0  0  0  0  0  0  0  0  0  0  0  0
   24.4696  -32.4926    7.5208 O   0  0  0  0  0  0  0  0  0  0  0  0
   27.6034  -32.8831    3.2524 C   0  0  0  0  0  0  0  0  0  0  0  0
   28.4078  -32.0736    2.6671 O   0  0  0  0  0  0  0  0  0  0  0  0
   26.5698  -32.2767    8.2314 O   0  0  0  0  0  0  0  0  0  0  0  0
   26.2846  -32.9126    2.7357 N   0  0  0  0  0  0  0  0  0  0  0  0
   25.9156  -32.2974    1.4475 C   0  0  1  0  0  0  0  0  0  0  0  0
   26.7177  -32.8236    0.3264 C   0  0  0  0  0  0  0  0  0  0  0  0
   26.3253  -32.1674   -0.9344 C   0  0  0  0  0  0  0  0  0  0  0  0
   25.9104  -30.8836   -1.2084 C   0  0  0  0  0  0  0  0  0  0  0  0
   25.6156  -30.7316   -2.5140 N   0  0  0  0  0  0  0  0  0  0  0  0
   25.8408  -31.9239   -3.0868 C   0  0  0  0  0  0  0  0  0  0  0  0
   26.2651  -32.7893   -2.1522 N   0  0  0  0  0  0  0  0  0  0  0  0
   24.4913  -32.5690    1.2410 C   0  0  0  0  0  0  0  0  0  0  0  0
   24.0260  -33.7178    1.4301 O   0  0  0  0  0  0  0  0  0  0  0  0
   23.5989  -31.5985    0.8395 O   0  0  0  0  0  0  0  0  0  0  0  0
  2  3  1  0
  2  1  1  0
  3  5  1  0
  4  3  2  0
  5  6  1  0
  6 11  1  0
  6  7  1  1
  7  8  1  0
  9 13  1  0
  9  8  1  0
 10  9  2  0
 11 14  1  0
 11 12  2  0
 14 15  1  0
 15 22  1  0
 15 16  1  6
 16 17  1  0
 17 18  2  0
 19 18  1  0
 20 19  1  0
 21 20  2  0
 21 17  1  0
 22 24  1  0
 23 22  2  0
M  END
$$$$
