GEH.pdb
     RDKit          3D

 24 24  0  0  1  0  0  0  0  0999 V2000
   14.8403  -21.0310    0.4235 N   0  0  0  0  0  0  0  0  0  0  0  0
   16.0338  -21.1021    1.2407 C   0  0  0  0  0  0  0  0  0  0  0  0
   15.7597  -20.5373    2.5904 C   0  0  0  0  0  0  0  0  0  0  0  0
   15.1225  -19.4289    2.6779 O   0  0  0  0  0  0  0  0  0  0  0  0
   16.1931  -21.2088    3.7655 N   0  0  0  0  0  0  0  0  0  0  0  0
   16.0659  -20.6609    5.0824 C   0  0  1  0  0  0  0  0  0  0  0  0
   16.0445  -21.6659    6.1693 C   0  0  0  0  0  0  0  0  0  0  0  0
   15.8539  -21.2775    7.5610 C   0  0  0  0  0  0  0  0  0  0  0  0
   15.8767  -22.3059    8.5944 C   0  0  0  0  0  0  0  0  0  0  0  0
   16.9094  -22.7807    9.0926 O   0  0  0  0  0  0  0  0  0  0  0  0
   16.8943  -19.4847    5.3760 C   0  0  0  0  0  0  0  0  0  0  0  0
   18.1515  -19.5318    5.1268 O   0  0  0  0  0  0  0  0  0  0  0  0
   14.6828  -22.8479    9.1140 O   0  0  0  0  0  0  0  0  0  0  0  0
   16.4266  -18.2657    5.9257 N   0  0  0  0  0  0  0  0  0  0  0  0
   17.3216  -17.1425    6.2595 C   0  0  1  0  0  0  0  0  0  0  0  0
   16.8073  -15.8514    5.7640 C   0  0  0  0  0  0  0  0  0  0  0  0
   17.4527  -15.5015    4.4853 C   0  0  0  0  0  0  0  0  0  0  0  0
   18.4735  -16.0990    3.7808 C   0  0  0  0  0  0  0  0  0  0  0  0
   18.7696  -15.4064    2.6639 N   0  0  0  0  0  0  0  0  0  0  0  0
   17.9357  -14.3553    2.6468 C   0  0  0  0  0  0  0  0  0  0  0  0
   17.1445  -14.4020    3.7305 N   0  0  0  0  0  0  0  0  0  0  0  0
   17.4535  -17.1250    7.7181 C   0  0  0  0  0  0  0  0  0  0  0  0
   16.8763  -17.9871    8.4221 O   0  0  0  0  0  0  0  0  0  0  0  0
   18.2057  -16.1832    8.3864 O   0  0  0  0  0  0  0  0  0  0  0  0
  2  3  1  0
  2  1  1  0
  3  5  1  0
  4  3  2  0
  5  6  1  0
  6 11  1  0
  6  7  1  1
  7  8  1  0
  9 13  1  0
  9  8  1  0
 10  9  2  0
 11 14  1  0
 11 12  2  0
 14 15  1  0
 15 22  1  0
 15 16  1  1
 16 17  1  0
 17 18  2  0
 19 18  1  0
 20 19  1  0
 21 20  2  0
 21 17  1  0
 22 24  1  0
 23 22  2  0
M  END
$$$$
