GEH.pdb
     RDKit          3D

 24 24  0  0  1  0  0  0  0  0999 V2000
   14.5659  -13.5813  -12.8765 N   0  0  0  0  0  0  0  0  0  0  0  0
   13.8989  -12.3066  -13.0423 C   0  0  0  0  0  0  0  0  0  0  0  0
   14.8678  -11.1956  -12.8356 C   0  0  0  0  0  0  0  0  0  0  0  0
   14.9634  -10.6686  -11.6714 O   0  0  0  0  0  0  0  0  0  0  0  0
   15.6759  -10.7222  -13.9045 N   0  0  0  0  0  0  0  0  0  0  0  0
   16.6200   -9.6539  -13.7696 C   0  0  1  0  0  0  0  0  0  0  0  0
   17.7439   -9.6988  -14.7320 C   0  0  0  0  0  0  0  0  0  0  0  0
   18.6989  -10.7998  -14.7357 C   0  0  0  0  0  0  0  0  0  0  0  0
   19.7884  -10.7910  -15.7048 C   0  0  0  0  0  0  0  0  0  0  0  0
   20.0047  -11.6929  -16.5292 O   0  0  0  0  0  0  0  0  0  0  0  0
   16.0551   -8.3125  -13.5768 C   0  0  0  0  0  0  0  0  0  0  0  0
   15.0261   -7.9670  -14.2601 O   0  0  0  0  0  0  0  0  0  0  0  0
   20.7008   -9.7175  -15.7705 O   0  0  0  0  0  0  0  0  0  0  0  0
   16.5513   -7.3316  -12.6831 N   0  0  0  0  0  0  0  0  0  0  0  0
   15.9614   -5.9856  -12.5639 C   0  0  1  0  0  0  0  0  0  0  0  0
   14.6967   -5.9947  -11.8038 C   0  0  0  0  0  0  0  0  0  0  0  0
   14.9259   -6.4987  -10.4372 C   0  0  0  0  0  0  0  0  0  0  0  0
   15.9972   -7.1505   -9.8689 C   0  0  0  0  0  0  0  0  0  0  0  0
   15.7548   -7.4618   -8.5809 N   0  0  0  0  0  0  0  0  0  0  0  0
   14.5199   -7.0088   -8.3154 C   0  0  0  0  0  0  0  0  0  0  0  0
   14.0153   -6.4317   -9.4176 N   0  0  0  0  0  0  0  0  0  0  0  0
   16.9600   -5.1425  -11.9027 C   0  0  0  0  0  0  0  0  0  0  0  0
   18.0435   -5.6301  -11.5024 O   0  0  0  0  0  0  0  0  0  0  0  0
   16.7724   -3.7938  -11.6900 O   0  0  0  0  0  0  0  0  0  0  0  0
  2  3  1  0
  2  1  1  0
  3  5  1  0
  4  3  2  0
  5  6  1  0
  6 11  1  0
  6  7  1  6
  7  8  1  0
  9 13  1  0
  9  8  1  0
 10  9  2  0
 11 14  1  0
 11 12  2  0
 14 15  1  0
 15 22  1  0
 15 16  1  1
 16 17  1  0
 17 18  2  0
 19 18  1  0
 20 19  1  0
 21 20  2  0
 21 17  1  0
 22 24  1  0
 23 22  2  0
M  END
$$$$
