GEH.pdb
     RDKit          3D

 24 24  0  0  1  0  0  0  0  0999 V2000
   24.3158  -15.1098  -20.5328 N   0  0  0  0  0  0  0  0  0  0  0  0
   24.1822  -15.0817  -19.0911 C   0  0  0  0  0  0  0  0  0  0  0  0
   23.9517  -16.4588  -18.5753 C   0  0  0  0  0  0  0  0  0  0  0  0
   23.7515  -17.4067  -19.4142 O   0  0  0  0  0  0  0  0  0  0  0  0
   23.9522  -16.7262  -17.1795 N   0  0  0  0  0  0  0  0  0  0  0  0
   23.7704  -18.0336  -16.6243 C   0  0  1  0  0  0  0  0  0  0  0  0
   24.9952  -18.8645  -16.5889 C   0  0  0  0  0  0  0  0  0  0  0  0
   26.1430  -18.5642  -17.4353 C   0  0  0  0  0  0  0  0  0  0  0  0
   27.3389  -19.3915  -17.3290 C   0  0  0  0  0  0  0  0  0  0  0  0
   27.5014  -20.2896  -16.4883 O   0  0  0  0  0  0  0  0  0  0  0  0
   22.9645  -18.1095  -15.3993 C   0  0  0  0  0  0  0  0  0  0  0  0
   23.3443  -17.4552  -14.3636 O   0  0  0  0  0  0  0  0  0  0  0  0
   28.4290  -19.2184  -18.2071 O   0  0  0  0  0  0  0  0  0  0  0  0
   21.7722  -18.8586  -15.2441 N   0  0  0  0  0  0  0  0  0  0  0  0
   21.0266  -18.9226  -13.9737 C   0  0  1  0  0  0  0  0  0  0  0  0
   19.5808  -18.6953  -14.1619 C   0  0  0  0  0  0  0  0  0  0  0  0
   19.2969  -17.2505  -14.2388 C   0  0  0  0  0  0  0  0  0  0  0  0
   20.0859  -16.1479  -14.0002 C   0  0  0  0  0  0  0  0  0  0  0  0
   19.3918  -15.0044  -14.1595 N   0  0  0  0  0  0  0  0  0  0  0  0
   18.1472  -15.3701  -14.5025 C   0  0  0  0  0  0  0  0  0  0  0  0
   18.0792  -16.7100  -14.5528 N   0  0  0  0  0  0  0  0  0  0  0  0
   21.2751  -20.2484  -13.4030 C   0  0  0  0  0  0  0  0  0  0  0  0
   21.9166  -21.1114  -14.0477 O   0  0  0  0  0  0  0  0  0  0  0  0
   20.8314  -20.6150  -12.1507 O   0  0  0  0  0  0  0  0  0  0  0  0
  2  3  1  0
  2  1  1  0
  3  5  1  0
  4  3  2  0
  5  6  1  0
  6 11  1  0
  6  7  1  1
  7  8  1  0
  9 13  1  0
  9  8  1  0
 10  9  2  0
 11 14  1  0
 11 12  2  0
 14 15  1  0
 15 22  1  0
 15 16  1  6
 16 17  1  0
 17 18  2  0
 19 18  1  0
 20 19  1  0
 21 20  2  0
 21 17  1  0
 22 24  1  0
 23 22  2  0
M  END
$$$$
