GEH.pdb
     RDKit          3D

 24 24  0  0  1  0  0  0  0  0999 V2000
   15.9158  -13.7073  -15.3553 N   0  0  0  0  0  0  0  0  0  0  0  0
   15.9432  -12.3956  -14.7422 C   0  0  0  0  0  0  0  0  0  0  0  0
   16.9791  -11.5504  -15.3967 C   0  0  0  0  0  0  0  0  0  0  0  0
   17.6611  -12.0465  -16.3616 O   0  0  0  0  0  0  0  0  0  0  0  0
   17.2136  -10.2167  -14.9657 N   0  0  0  0  0  0  0  0  0  0  0  0
   18.1536   -9.3365  -15.5920 C   0  0  1  0  0  0  0  0  0  0  0  0
   17.7224   -7.9220  -15.6617 C   0  0  0  0  0  0  0  0  0  0  0  0
   16.4222   -7.5488  -16.2043 C   0  0  0  0  0  0  0  0  0  0  0  0
   15.8165   -6.2882  -15.7921 C   0  0  0  0  0  0  0  0  0  0  0  0
   15.2619   -6.0978  -14.6984 O   0  0  0  0  0  0  0  0  0  0  0  0
   19.5594   -9.5115  -15.2061 C   0  0  0  0  0  0  0  0  0  0  0  0
   19.8652   -9.5251  -13.9606 O   0  0  0  0  0  0  0  0  0  0  0  0
   15.8217   -5.1617  -16.6408 O   0  0  0  0  0  0  0  0  0  0  0  0
   20.6449   -9.6705  -16.1024 N   0  0  0  0  0  0  0  0  0  0  0  0
   22.0463   -9.7649  -15.6539 C   0  0  1  0  0  0  0  0  0  0  0  0
   22.9348  -10.2983  -16.7043 C   0  0  0  0  0  0  0  0  0  0  0  0
   24.3336  -10.2988  -16.2381 C   0  0  0  0  0  0  0  0  0  0  0  0
   24.8991  -10.6664  -15.0379 C   0  0  0  0  0  0  0  0  0  0  0  0
   26.2308  -10.4632  -15.0405 N   0  0  0  0  0  0  0  0  0  0  0  0
   26.5274   -9.9611  -16.2489 C   0  0  0  0  0  0  0  0  0  0  0  0
   25.4013   -9.8585  -16.9727 N   0  0  0  0  0  0  0  0  0  0  0  0
   22.4570   -8.4152  -15.2607 C   0  0  0  0  0  0  0  0  0  0  0  0
   22.1815   -7.4278  -15.9826 O   0  0  0  0  0  0  0  0  0  0  0  0
   23.1514   -8.1573  -14.0985 O   0  0  0  0  0  0  0  0  0  0  0  0
  2  3  1  0
  2  1  1  0
  3  5  1  0
  4  3  2  0
  5  6  1  0
  6 11  1  0
  6  7  1  1
  7  8  1  0
  9 13  1  0
  9  8  1  0
 10  9  2  0
 11 14  1  0
 11 12  2  0
 14 15  1  0
 15 22  1  0
 15 16  1  6
 16 17  1  0
 17 18  2  0
 19 18  1  0
 20 19  1  0
 21 20  2  0
 21 17  1  0
 22 24  1  0
 23 22  2  0
M  END
$$$$
