GEH.pdb
     RDKit          3D

 24 24  0  0  1  0  0  0  0  0999 V2000
   28.4060  -19.8163  -16.9912 N   0  0  0  0  0  0  0  0  0  0  0  0
   27.7798  -19.0036  -15.9691 C   0  0  0  0  0  0  0  0  0  0  0  0
   27.0298  -19.8705  -15.0194 C   0  0  0  0  0  0  0  0  0  0  0  0
   26.1957  -20.7227  -15.4887 O   0  0  0  0  0  0  0  0  0  0  0  0
   27.2294  -19.7615  -13.6166 N   0  0  0  0  0  0  0  0  0  0  0  0
   26.4671  -20.4929  -12.6498 C   0  0  1  0  0  0  0  0  0  0  0  0
   27.2042  -20.8318  -11.4114 C   0  0  0  0  0  0  0  0  0  0  0  0
   28.6163  -21.1913  -11.4406 C   0  0  0  0  0  0  0  0  0  0  0  0
   29.3196  -21.4084  -10.1820 C   0  0  0  0  0  0  0  0  0  0  0  0
   30.4975  -21.7879  -10.0900 O   0  0  0  0  0  0  0  0  0  0  0  0
   25.0965  -20.0212  -12.4161 C   0  0  0  0  0  0  0  0  0  0  0  0
   24.9107  -18.8052  -12.0532 O   0  0  0  0  0  0  0  0  0  0  0  0
   28.6835  -21.1934   -8.9417 O   0  0  0  0  0  0  0  0  0  0  0  0
   23.9228  -20.8023  -12.5554 N   0  0  0  0  0  0  0  0  0  0  0  0
   22.5727  -20.2134  -12.6235 C   0  0  1  0  0  0  0  0  0  0  0  0
   22.4458  -19.2309  -13.7170 C   0  0  0  0  0  0  0  0  0  0  0  0
   21.0814  -18.6727  -13.7460 C   0  0  0  0  0  0  0  0  0  0  0  0
   20.1037  -18.5924  -12.7801 C   0  0  0  0  0  0  0  0  0  0  0  0
   18.9808  -18.0275  -13.2645 N   0  0  0  0  0  0  0  0  0  0  0  0
   19.2342  -17.7414  -14.5508 C   0  0  0  0  0  0  0  0  0  0  0  0
   20.4863  -18.1228  -14.8492 N   0  0  0  0  0  0  0  0  0  0  0  0
   21.6354  -21.3233  -12.8096 C   0  0  0  0  0  0  0  0  0  0  0  0
   20.4161  -21.1794  -12.5553 O   0  0  0  0  0  0  0  0  0  0  0  0
   22.0296  -22.5617  -13.2683 O   0  0  0  0  0  0  0  0  0  0  0  0
  2  3  1  0
  2  1  1  0
  3  5  1  0
  4  3  2  0
  5  6  1  0
  6 11  1  0
  6  7  1  1
  7  8  1  0
  9 13  1  0
  9  8  1  0
 10  9  2  0
 11 14  1  0
 11 12  2  0
 14 15  1  0
 15 22  1  0
 15 16  1  6
 16 17  1  0
 17 18  2  0
 19 18  1  0
 20 19  1  0
 21 20  2  0
 21 17  1  0
 22 24  1  0
 23 22  2  0
M  END
$$$$
