GEH.pdb
     RDKit          3D

 24 24  0  0  1  0  0  0  0  0999 V2000
   17.2798  -12.7264  -15.5936 N   0  0  0  0  0  0  0  0  0  0  0  0
   17.9842  -11.8277  -16.4843 C   0  0  0  0  0  0  0  0  0  0  0  0
   19.1700  -11.2526  -15.7922 C   0  0  0  0  0  0  0  0  0  0  0  0
   19.8819  -12.0166  -15.0494 O   0  0  0  0  0  0  0  0  0  0  0  0
   19.5135   -9.8823  -15.9473 N   0  0  0  0  0  0  0  0  0  0  0  0
   20.7895   -9.3409  -15.5878 C   0  0  1  0  0  0  0  0  0  0  0  0
   21.9495  -10.1340  -16.0536 C   0  0  0  0  0  0  0  0  0  0  0  0
   23.3098   -9.8024  -15.6489 C   0  0  0  0  0  0  0  0  0  0  0  0
   24.4128  -10.6304  -16.1220 C   0  0  0  0  0  0  0  0  0  0  0  0
   24.9773  -10.4918  -17.2184 O   0  0  0  0  0  0  0  0  0  0  0  0
   20.9500   -7.8921  -15.7642 C   0  0  0  0  0  0  0  0  0  0  0  0
   20.9407   -7.4054  -16.9508 O   0  0  0  0  0  0  0  0  0  0  0  0
   24.9289  -11.6812  -15.3354 O   0  0  0  0  0  0  0  0  0  0  0  0
   21.1207   -6.9502  -14.7199 N   0  0  0  0  0  0  0  0  0  0  0  0
   21.0861   -5.4930  -14.9426 C   0  0  1  0  0  0  0  0  0  0  0  0
   19.7506   -4.9199  -14.6868 C   0  0  0  0  0  0  0  0  0  0  0  0
   19.7405   -3.4824  -15.0151 C   0  0  0  0  0  0  0  0  0  0  0  0
   20.2032   -2.7899  -16.1113 C   0  0  0  0  0  0  0  0  0  0  0  0
   20.0152   -1.4636  -15.9686 N   0  0  0  0  0  0  0  0  0  0  0  0
   19.4283   -1.2982  -14.7734 C   0  0  0  0  0  0  0  0  0  0  0  0
   19.2594   -2.4979  -14.1949 N   0  0  0  0  0  0  0  0  0  0  0  0
   22.0853   -4.9040  -14.0483 C   0  0  0  0  0  0  0  0  0  0  0  0
   22.6173   -5.5907  -13.1442 O   0  0  0  0  0  0  0  0  0  0  0  0
   22.4924   -3.5912  -14.1486 O   0  0  0  0  0  0  0  0  0  0  0  0
  2  3  1  0
  2  1  1  0
  3  5  1  0
  4  3  2  0
  5  6  1  0
  6 11  1  0
  6  7  1  6
  7  8  1  0
  9 13  1  0
  9  8  1  0
 10  9  2  0
 11 14  1  0
 11 12  2  0
 14 15  1  0
 15 22  1  0
 15 16  1  1
 16 17  1  0
 17 18  2  0
 19 18  1  0
 20 19  1  0
 21 20  2  0
 21 17  1  0
 22 24  1  0
 23 22  2  0
M  END
$$$$
