GEH.pdb
     RDKit          3D

 24 24  0  0  1  0  0  0  0  0999 V2000
   21.3256  -15.2337  -17.7601 N   0  0  0  0  0  0  0  0  0  0  0  0
   21.5344  -14.3783  -16.6103 C   0  0  0  0  0  0  0  0  0  0  0  0
   21.0383  -13.0054  -16.9017 C   0  0  0  0  0  0  0  0  0  0  0  0
   21.1205  -12.5611  -18.1009 O   0  0  0  0  0  0  0  0  0  0  0  0
   20.4822  -12.1958  -15.8746 N   0  0  0  0  0  0  0  0  0  0  0  0
   19.9015  -10.9081  -16.1094 C   0  0  1  0  0  0  0  0  0  0  0  0
   18.5351  -10.7391  -15.5650 C   0  0  0  0  0  0  0  0  0  0  0  0
   17.4879  -11.7202  -15.8197 C   0  0  0  0  0  0  0  0  0  0  0  0
   16.1504  -11.4846  -15.2891 C   0  0  0  0  0  0  0  0  0  0  0  0
   15.8457  -11.5607  -14.0885 O   0  0  0  0  0  0  0  0  0  0  0  0
   20.7787   -9.7525  -15.8840 C   0  0  0  0  0  0  0  0  0  0  0  0
   21.4470   -9.6828  -14.7915 O   0  0  0  0  0  0  0  0  0  0  0  0
   15.0765  -11.1424  -16.1369 O   0  0  0  0  0  0  0  0  0  0  0  0
   20.9643   -8.6730  -16.7824 N   0  0  0  0  0  0  0  0  0  0  0  0
   21.9046   -7.5675  -16.5223 C   0  0  1  0  0  0  0  0  0  0  0  0
   22.0822   -6.6957  -17.6995 C   0  0  0  0  0  0  0  0  0  0  0  0
   23.1379   -5.6990  -17.4422 C   0  0  0  0  0  0  0  0  0  0  0  0
   24.5108   -5.8001  -17.4347 C   0  0  0  0  0  0  0  0  0  0  0  0
   25.0871   -4.6273  -17.1073 N   0  0  0  0  0  0  0  0  0  0  0  0
   24.0809   -3.7637  -16.9017 C   0  0  0  0  0  0  0  0  0  0  0  0
   22.9118   -4.3934  -17.0990 N   0  0  0  0  0  0  0  0  0  0  0  0
   21.3655   -6.8103  -15.3904 C   0  0  0  0  0  0  0  0  0  0  0  0
   20.1289   -6.6484  -15.2610 O   0  0  0  0  0  0  0  0  0  0  0  0
   22.1678   -6.2474  -14.4215 O   0  0  0  0  0  0  0  0  0  0  0  0
  2  3  1  0
  2  1  1  0
  3  5  1  0
  4  3  2  0
  5  6  1  0
  6 11  1  0
  6  7  1  1
  7  8  1  0
  9 13  1  0
  9  8  1  0
 10  9  2  0
 11 14  1  0
 11 12  2  0
 14 15  1  0
 15 22  1  0
 15 16  1  6
 16 17  1  0
 17 18  2  0
 19 18  1  0
 20 19  1  0
 21 20  2  0
 21 17  1  0
 22 24  1  0
 23 22  2  0
M  END
$$$$
