DNY.pdb
     RDKit          3D

 29 29  0  0  1  0  0  0  0  0999 V2000
   46.5700  -10.9821   -7.5006 N   0  0  0  0  0  0  0  0  0  0  0  0
   45.9274  -11.0483   -6.2190 C   0  0  1  0  0  0  0  0  0  0  0  0
   46.8087  -10.6613   -5.0801 C   0  0  0  0  0  0  0  0  0  0  0  0
   48.1185  -11.3260   -5.0782 C   0  0  0  0  0  0  0  0  0  0  0  0
   49.1037  -10.8491   -4.4955 O   0  0  0  0  0  0  0  0  0  0  0  0
   44.6530  -10.3199   -6.1472 C   0  0  0  0  0  0  0  0  0  0  0  0
   43.9734  -10.3492   -5.1025 O   0  0  0  0  0  0  0  0  0  0  0  0
   48.3003  -12.5375   -5.7429 O   0  0  0  0  0  0  0  0  0  0  0  0
   41.1612   -6.2946   -6.0514 N   0  0  0  0  0  0  0  0  0  0  0  0
   41.8495   -6.7120   -7.2146 C   0  0  0  0  0  0  0  0  0  0  0  0
   41.3442   -6.4725   -8.3344 O   0  0  0  0  0  0  0  0  0  0  0  0
   43.1390   -7.4155   -7.1118 C   0  0  0  0  0  0  0  0  0  0  0  0
   42.9337   -8.8809   -7.2471 C   0  0  2  0  0  0  0  0  0  0  0  0
   44.1841   -9.5865   -7.2592 N   0  0  0  0  0  0  0  0  0  0  0  0
   42.2254   -9.2351   -8.5134 C   0  0  0  0  0  0  0  0  0  0  0  0
   42.8557   -9.3166   -9.5918 O   0  0  0  0  0  0  0  0  0  0  0  0
   36.1163   -7.6154   -5.1633 O   0  0  0  0  0  0  0  0  0  0  0  0
   36.7700   -8.2938   -6.2091 C   0  0  0  0  0  0  0  0  0  0  0  0
   36.7676   -7.7968   -7.4913 C   0  0  0  0  0  0  0  0  0  0  0  0
   37.4080   -8.4491   -8.5466 C   0  0  0  0  0  0  0  0  0  0  0  0
   38.0665   -9.6328   -8.2989 C   0  0  0  0  0  0  0  0  0  0  0  0
   38.7547  -10.3554   -9.3797 C   0  0  0  0  0  0  0  0  0  0  0  0
   40.0864   -9.7309   -9.7511 C   0  0  2  0  0  0  0  0  0  0  0  0
   40.8303   -9.4908   -8.5503 N   0  0  0  0  0  0  0  0  0  0  0  0
   39.8413   -8.5258  -10.5420 C   0  0  0  0  0  0  0  0  0  0  0  0
   39.3051   -8.6494  -11.8134 O   0  0  0  0  0  0  0  0  0  0  0  0
   38.0624  -10.1247   -7.0021 C   0  0  0  0  0  0  0  0  0  0  0  0
   37.4231   -9.4697   -5.9579 C   0  0  0  0  0  0  0  0  0  0  0  0
   40.0997   -7.3774  -10.1114 O   0  0  0  0  0  0  0  0  0  0  0  0
  2  1  1  6
  2  3  1  0
  4  8  1  0
  4  3  1  0
  5  4  2  0
  6  2  1  0
  7  6  2  0
  9 10  1  0
 10 12  1  0
 11 10  2  0
 13 12  1  6
 13 14  1  0
 14  6  1  0
 15 13  1  0
 15 16  2  0
 17 18  1  0
 18 28  2  0
 19 18  1  0
 19 20  2  0
 20 21  1  0
 21 27  2  0
 21 22  1  0
 23 24  1  0
 23 22  1  1
 23 25  1  0
 24 15  1  0
 25 26  1  0
 28 27  1  0
 29 25  2  0
M  END
$$$$
