DNY.pdb
     RDKit          3D

 29 29  0  0  1  0  0  0  0  0999 V2000
   16.7638  -11.8205  -19.5468 N   0  0  0  0  0  0  0  0  0  0  0  0
   16.9274  -11.2265  -18.2506 C   0  0  1  0  0  0  0  0  0  0  0  0
   17.3039  -12.1978  -17.1836 C   0  0  0  0  0  0  0  0  0  0  0  0
   16.3573  -13.3087  -17.0181 C   0  0  0  0  0  0  0  0  0  0  0  0
   15.2974  -13.3781  -17.6579 O   0  0  0  0  0  0  0  0  0  0  0  0
   17.8338  -10.0699  -18.2293 C   0  0  0  0  0  0  0  0  0  0  0  0
   18.7375   -9.9671  -19.0819 O   0  0  0  0  0  0  0  0  0  0  0  0
   16.6246  -14.3409  -16.1204 O   0  0  0  0  0  0  0  0  0  0  0  0
   20.1332   -5.7258  -17.0123 N   0  0  0  0  0  0  0  0  0  0  0  0
   18.8358   -5.6335  -16.4561 C   0  0  0  0  0  0  0  0  0  0  0  0
   18.4811   -4.5568  -15.9254 O   0  0  0  0  0  0  0  0  0  0  0  0
   17.9166   -6.7830  -16.5006 C   0  0  0  0  0  0  0  0  0  0  0  0
   18.5774   -7.9404  -17.1575 C   0  0  2  0  0  0  0  0  0  0  0  0
   17.6943   -9.0692  -17.2426 N   0  0  0  0  0  0  0  0  0  0  0  0
   19.7886   -8.3946  -16.4111 C   0  0  0  0  0  0  0  0  0  0  0  0
   19.6824   -8.8708  -15.2583 O   0  0  0  0  0  0  0  0  0  0  0  0
   28.0892  -11.3515  -15.4154 O   0  0  0  0  0  0  0  0  0  0  0  0
   26.9372  -10.6844  -15.8728 C   0  0  0  0  0  0  0  0  0  0  0  0
   25.6792  -11.1695  -15.6027 C   0  0  0  0  0  0  0  0  0  0  0  0
   24.5204  -10.5279  -16.0440 C   0  0  0  0  0  0  0  0  0  0  0  0
   24.6371   -9.3676  -16.7762 C   0  0  0  0  0  0  0  0  0  0  0  0
   23.4441   -8.6574  -17.2624 C   0  0  0  0  0  0  0  0  0  0  0  0
   22.2858   -8.7130  -16.2845 C   0  0  2  0  0  0  0  0  0  0  0  0
   21.0918   -8.3084  -16.9654 N   0  0  0  0  0  0  0  0  0  0  0  0
   22.6073   -7.8882  -15.1207 C   0  0  0  0  0  0  0  0  0  0  0  0
   22.8737   -8.5043  -13.9088 O   0  0  0  0  0  0  0  0  0  0  0  0
   25.9107   -8.8874  -17.0426 C   0  0  0  0  0  0  0  0  0  0  0  0
   27.0584   -9.5317  -16.5999 C   0  0  0  0  0  0  0  0  0  0  0  0
   22.6510   -6.6370  -15.1773 O   0  0  0  0  0  0  0  0  0  0  0  0
  2  1  1  6
  2  3  1  0
  4  8  1  0
  4  3  1  0
  5  4  2  0
  6  2  1  0
  7  6  2  0
  9 10  1  0
 10 12  1  0
 11 10  2  0
 13 12  1  1
 13 14  1  0
 14  6  1  0
 15 13  1  0
 15 16  2  0
 17 18  1  0
 18 28  2  0
 19 18  1  0
 19 20  2  0
 20 21  1  0
 21 27  2  0
 21 22  1  0
 23 24  1  0
 23 22  1  6
 23 25  1  0
 24 15  1  0
 25 26  1  0
 28 27  1  0
 29 25  2  0
M  END
$$$$
