DNY.pdb
     RDKit          3D

 29 29  0  0  1  0  0  0  0  0999 V2000
   19.3071  -10.0823  -17.0829 N   0  0  0  0  0  0  0  0  0  0  0  0
   19.8311  -10.7429  -15.9216 C   0  0  1  0  0  0  0  0  0  0  0  0
   21.0822  -11.5131  -16.1772 C   0  0  0  0  0  0  0  0  0  0  0  0
   21.0066  -12.4214  -17.3290 C   0  0  0  0  0  0  0  0  0  0  0  0
   21.9259  -13.2006  -17.6209 O   0  0  0  0  0  0  0  0  0  0  0  0
   20.0031   -9.8641  -14.7563 C   0  0  0  0  0  0  0  0  0  0  0  0
   20.5188  -10.3051  -13.7105 O   0  0  0  0  0  0  0  0  0  0  0  0
   19.8777  -12.4383  -18.1464 O   0  0  0  0  0  0  0  0  0  0  0  0
   20.4679   -5.9100  -11.7116 N   0  0  0  0  0  0  0  0  0  0  0  0
   20.7142   -5.4692  -13.0330 C   0  0  0  0  0  0  0  0  0  0  0  0
   21.1716   -4.3176  -13.2104 O   0  0  0  0  0  0  0  0  0  0  0  0
   20.4389   -6.3489  -14.1813 C   0  0  0  0  0  0  0  0  0  0  0  0
   19.7876   -7.6022  -13.7200 C   0  0  2  0  0  0  0  0  0  0  0  0
   19.5821   -8.5171  -14.8073 N   0  0  0  0  0  0  0  0  0  0  0  0
   18.4482   -7.3486  -13.1098 C   0  0  0  0  0  0  0  0  0  0  0  0
   17.4383   -7.2004  -13.8344 O   0  0  0  0  0  0  0  0  0  0  0  0
   12.0808   -7.1528   -6.9437 O   0  0  0  0  0  0  0  0  0  0  0  0
   13.3025   -7.2886   -7.6295 C   0  0  0  0  0  0  0  0  0  0  0  0
   13.5160   -8.3276   -8.5046 C   0  0  0  0  0  0  0  0  0  0  0  0
   14.7176   -8.4858   -9.1977 C   0  0  0  0  0  0  0  0  0  0  0  0
   15.7276   -7.5709   -9.0006 C   0  0  0  0  0  0  0  0  0  0  0  0
   17.0108   -7.6974   -9.7086 C   0  0  0  0  0  0  0  0  0  0  0  0
   17.0002   -7.0309  -11.0712 C   0  0  2  0  0  0  0  0  0  0  0  0
   18.2635   -7.2654  -11.7055 N   0  0  0  0  0  0  0  0  0  0  0  0
   16.6802   -5.6140  -10.9041 C   0  0  0  0  0  0  0  0  0  0  0  0
   15.3704   -5.1933  -11.0673 O   0  0  0  0  0  0  0  0  0  0  0  0
   15.5013   -6.5270   -8.1158 C   0  0  0  0  0  0  0  0  0  0  0  0
   14.3030   -6.3768   -7.4304 C   0  0  0  0  0  0  0  0  0  0  0  0
   17.5510   -4.7594  -10.6173 O   0  0  0  0  0  0  0  0  0  0  0  0
  2  1  1  6
  2  3  1  0
  4  8  1  0
  4  3  1  0
  5  4  2  0
  6  2  1  0
  7  6  2  0
  9 10  1  0
 10 12  1  0
 11 10  2  0
 13 12  1  6
 13 14  1  0
 14  6  1  0
 15 13  1  0
 15 16  2  0
 17 18  1  0
 18 28  2  0
 19 18  1  0
 19 20  2  0
 20 21  1  0
 21 27  2  0
 21 22  1  0
 23 24  1  0
 23 22  1  1
 23 25  1  0
 24 15  1  0
 25 26  1  0
 28 27  1  0
 29 25  2  0
M  END
$$$$
