DNY.pdb
     RDKit          3D

 29 29  0  0  1  0  0  0  0  0999 V2000
   17.1983  -15.1268  -14.8753 N   0  0  0  0  0  0  0  0  0  0  0  0
   18.1817  -14.9436  -15.9045 C   0  0  1  0  0  0  0  0  0  0  0  0
   18.2123  -16.0411  -16.9136 C   0  0  0  0  0  0  0  0  0  0  0  0
   18.4763  -17.3715  -16.3499 C   0  0  0  0  0  0  0  0  0  0  0  0
   18.1102  -18.4146  -16.9115 O   0  0  0  0  0  0  0  0  0  0  0  0
   18.1146  -13.6374  -16.5745 C   0  0  0  0  0  0  0  0  0  0  0  0
   18.9041  -13.3678  -17.5009 O   0  0  0  0  0  0  0  0  0  0  0  0
   19.1606  -17.5078  -15.1432 O   0  0  0  0  0  0  0  0  0  0  0  0
   13.9579  -12.2688  -18.4029 N   0  0  0  0  0  0  0  0  0  0  0  0
   15.2037  -11.6039  -18.3207 C   0  0  0  0  0  0  0  0  0  0  0  0
   15.9179  -11.5298  -19.3460 O   0  0  0  0  0  0  0  0  0  0  0  0
   15.6540  -11.0076  -17.0519 C   0  0  0  0  0  0  0  0  0  0  0  0
   17.0675  -11.3800  -16.7856 C   0  0  2  0  0  0  0  0  0  0  0  0
   17.1619  -12.6753  -16.1732 N   0  0  0  0  0  0  0  0  0  0  0  0
   17.7391  -10.4162  -15.8634 C   0  0  0  0  0  0  0  0  0  0  0  0
   17.4801  -10.4239  -14.6387 O   0  0  0  0  0  0  0  0  0  0  0  0
   22.4826   -3.1914  -13.6764 O   0  0  0  0  0  0  0  0  0  0  0  0
   21.9671   -4.3326  -14.3193 C   0  0  0  0  0  0  0  0  0  0  0  0
   22.3836   -5.5957  -13.9698 C   0  0  0  0  0  0  0  0  0  0  0  0
   21.8888   -6.7440  -14.5908 C   0  0  0  0  0  0  0  0  0  0  0  0
   20.9501   -6.6114  -15.5895 C   0  0  0  0  0  0  0  0  0  0  0  0
   20.4008   -7.7929  -16.2723 C   0  0  0  0  0  0  0  0  0  0  0  0
   19.2574   -8.4355  -15.5100 C   0  0  2  0  0  0  0  0  0  0  0  0
   18.6844   -9.4646  -16.3259 N   0  0  0  0  0  0  0  0  0  0  0  0
   18.3054   -7.3972  -15.1183 C   0  0  0  0  0  0  0  0  0  0  0  0
   18.3808   -6.8570  -13.8448 O   0  0  0  0  0  0  0  0  0  0  0  0
   20.5373   -5.3328  -15.9337 C   0  0  0  0  0  0  0  0  0  0  0  0
   21.0344   -4.1956  -15.3110 C   0  0  0  0  0  0  0  0  0  0  0  0
   17.4174   -6.9744  -15.8951 O   0  0  0  0  0  0  0  0  0  0  0  0
  2  1  1  1
  2  3  1  0
  4  8  1  0
  4  3  1  0
  5  4  2  0
  6  2  1  0
  7  6  2  0
  9 10  1  0
 10 12  1  0
 11 10  2  0
 13 12  1  1
 13 14  1  0
 14  6  1  0
 15 13  1  0
 15 16  2  0
 17 18  1  0
 18 28  2  0
 19 18  1  0
 19 20  2  0
 20 21  1  0
 21 27  2  0
 21 22  1  0
 23 24  1  0
 23 22  1  6
 23 25  1  0
 24 15  1  0
 25 26  1  0
 28 27  1  0
 29 25  2  0
M  END
$$$$
