DNY.pdb
     RDKit          3D

 29 29  0  0  1  0  0  0  0  0999 V2000
   13.6869   -9.9033  -14.5964 N   0  0  0  0  0  0  0  0  0  0  0  0
   14.9317   -9.8835  -13.8823 C   0  0  1  0  0  0  0  0  0  0  0  0
   15.9524  -10.8282  -14.4202 C   0  0  0  0  0  0  0  0  0  0  0  0
   15.4728  -12.2073  -14.5798 C   0  0  0  0  0  0  0  0  0  0  0  0
   15.0231  -12.8674  -13.6313 O   0  0  0  0  0  0  0  0  0  0  0  0
   15.5123   -8.5428  -13.7233 C   0  0  0  0  0  0  0  0  0  0  0  0
   14.8488   -7.5330  -14.0302 O   0  0  0  0  0  0  0  0  0  0  0  0
   15.5071  -12.8307  -15.8260 O   0  0  0  0  0  0  0  0  0  0  0  0
   16.9846   -5.6343   -9.2834 N   0  0  0  0  0  0  0  0  0  0  0  0
   16.9643   -5.6856  -10.6969 C   0  0  0  0  0  0  0  0  0  0  0  0
   17.4125   -4.7120  -11.3433 O   0  0  0  0  0  0  0  0  0  0  0  0
   16.4263   -6.8637  -11.3975 C   0  0  0  0  0  0  0  0  0  0  0  0
   17.2675   -7.1832  -12.5799 C   0  0  2  0  0  0  0  0  0  0  0  0
   16.8255   -8.3856  -13.2282 N   0  0  0  0  0  0  0  0  0  0  0  0
   18.6996   -7.3923  -12.2115 C   0  0  0  0  0  0  0  0  0  0  0  0
   19.0426   -8.3903  -11.5383 O   0  0  0  0  0  0  0  0  0  0  0  0
   25.6752   -9.9385  -16.2760 O   0  0  0  0  0  0  0  0  0  0  0  0
   24.4697   -9.4022  -15.7855 C   0  0  0  0  0  0  0  0  0  0  0  0
   23.9433   -9.8155  -14.5842 C   0  0  0  0  0  0  0  0  0  0  0  0
   22.7500   -9.3003  -14.0746 C   0  0  0  0  0  0  0  0  0  0  0  0
   22.0727   -8.3440  -14.7979 C   0  0  0  0  0  0  0  0  0  0  0  0
   20.8115   -7.7729  -14.3008 C   0  0  0  0  0  0  0  0  0  0  0  0
   21.0059   -6.8798  -13.0901 C   0  0  2  0  0  0  0  0  0  0  0  0
   19.7182   -6.4848  -12.6011 N   0  0  0  0  0  0  0  0  0  0  0  0
   21.8638   -5.7558  -13.4622 C   0  0  0  0  0  0  0  0  0  0  0  0
   21.2913   -4.6254  -14.0224 O   0  0  0  0  0  0  0  0  0  0  0  0
   22.6128   -7.9347  -16.0080 C   0  0  0  0  0  0  0  0  0  0  0  0
   23.8005   -8.4521  -16.5078 C   0  0  0  0  0  0  0  0  0  0  0  0
   23.1055   -5.7756  -13.2932 O   0  0  0  0  0  0  0  0  0  0  0  0
  2  1  1  6
  2  3  1  0
  4  8  1  0
  4  3  1  0
  5  4  2  0
  6  2  1  0
  7  6  2  0
  9 10  1  0
 10 12  1  0
 11 10  2  0
 13 12  1  1
 13 14  1  0
 14  6  1  0
 15 13  1  0
 15 16  2  0
 17 18  1  0
 18 28  2  0
 19 18  1  0
 19 20  2  0
 20 21  1  0
 21 27  2  0
 21 22  1  0
 23 24  1  0
 23 22  1  6
 23 25  1  0
 24 15  1  0
 25 26  1  0
 28 27  1  0
 29 25  2  0
M  END
$$$$
