DNY.pdb
     RDKit          3D

 29 29  0  0  1  0  0  0  0  0999 V2000
   23.6453  -22.1282  -12.4186 N   0  0  0  0  0  0  0  0  0  0  0  0
   22.9125  -21.5325  -13.4994 C   0  0  1  0  0  0  0  0  0  0  0  0
   21.4399  -21.4743  -13.2715 C   0  0  0  0  0  0  0  0  0  0  0  0
   20.8423  -22.7515  -12.8606 C   0  0  0  0  0  0  0  0  0  0  0  0
   21.0269  -23.8035  -13.4906 O   0  0  0  0  0  0  0  0  0  0  0  0
   23.4162  -20.2155  -13.9135 C   0  0  0  0  0  0  0  0  0  0  0  0
   23.6765  -19.3474  -13.0574 O   0  0  0  0  0  0  0  0  0  0  0  0
   20.0337  -22.8247  -11.7276 O   0  0  0  0  0  0  0  0  0  0  0  0
   26.8051  -16.7890  -16.2814 N   0  0  0  0  0  0  0  0  0  0  0  0
   25.8548  -17.5394  -17.0127 C   0  0  0  0  0  0  0  0  0  0  0  0
   25.4249  -17.0797  -18.0946 O   0  0  0  0  0  0  0  0  0  0  0  0
   25.3790  -18.8398  -16.5118 C   0  0  0  0  0  0  0  0  0  0  0  0
   24.1259  -18.6600  -15.7338 C   0  0  2  0  0  0  0  0  0  0  0  0
   23.6046  -19.9190  -15.2813 N   0  0  0  0  0  0  0  0  0  0  0  0
   23.0500  -18.0122  -16.5421 C   0  0  0  0  0  0  0  0  0  0  0  0
   22.4819  -18.6414  -17.4632 O   0  0  0  0  0  0  0  0  0  0  0  0
   16.8594  -12.0063  -18.6556 O   0  0  0  0  0  0  0  0  0  0  0  0
   17.9800  -12.6579  -18.1069 C   0  0  0  0  0  0  0  0  0  0  0  0
   19.0408  -11.9447  -17.6000 C   0  0  0  0  0  0  0  0  0  0  0  0
   20.1639  -12.5654  -17.0502 C   0  0  0  0  0  0  0  0  0  0  0  0
   20.2153  -13.9410  -17.0123 C   0  0  0  0  0  0  0  0  0  0  0  0
   21.3784  -14.6386  -16.4429 C   0  0  0  0  0  0  0  0  0  0  0  0
   21.5796  -16.0235  -17.0283 C   0  0  2  0  0  0  0  0  0  0  0  0
   22.6305  -16.6775  -16.3064 N   0  0  0  0  0  0  0  0  0  0  0  0
   21.8397  -15.8996  -18.4618 C   0  0  0  0  0  0  0  0  0  0  0  0
   20.9238  -16.4192  -19.3620 O   0  0  0  0  0  0  0  0  0  0  0  0
   19.1397  -14.6501  -17.5263 C   0  0  0  0  0  0  0  0  0  0  0  0
   18.0261  -14.0249  -18.0714 C   0  0  0  0  0  0  0  0  0  0  0  0
   22.8663  -15.3381  -18.9108 O   0  0  0  0  0  0  0  0  0  0  0  0
  2  1  1  1
  2  3  1  0
  4  8  1  0
  4  3  1  0
  5  4  2  0
  6  2  1  0
  7  6  2  0
  9 10  1  0
 10 12  1  0
 11 10  2  0
 13 12  1  6
 13 14  1  0
 14  6  1  0
 15 13  1  0
 15 16  2  0
 17 18  1  0
 18 28  2  0
 19 18  1  0
 19 20  2  0
 20 21  1  0
 21 27  2  0
 21 22  1  0
 23 24  1  0
 23 22  1  1
 23 25  1  0
 24 15  1  0
 25 26  1  0
 28 27  1  0
 29 25  2  0
M  END
$$$$
