DNY.pdb
     RDKit          3D

 29 29  0  0  1  0  0  0  0  0999 V2000
   23.5740  -19.0035  -14.9207 N   0  0  0  0  0  0  0  0  0  0  0  0
   23.4436  -19.3801  -13.5419 C   0  0  1  0  0  0  0  0  0  0  0  0
   22.0336  -19.5864  -13.1023 C   0  0  0  0  0  0  0  0  0  0  0  0
   21.0877  -18.5911  -13.6236 C   0  0  0  0  0  0  0  0  0  0  0  0
   19.9223  -18.8813  -13.9325 O   0  0  0  0  0  0  0  0  0  0  0  0
   24.2721  -20.5294  -13.1515 C   0  0  0  0  0  0  0  0  0  0  0  0
   23.7351  -21.5815  -12.7529 O   0  0  0  0  0  0  0  0  0  0  0  0
   21.4756  -17.2628  -13.7907 O   0  0  0  0  0  0  0  0  0  0  0  0
   27.7350  -20.7438  -16.1441 N   0  0  0  0  0  0  0  0  0  0  0  0
   27.2305  -21.6710  -15.2024 C   0  0  0  0  0  0  0  0  0  0  0  0
   26.3832  -22.5126  -15.5774 O   0  0  0  0  0  0  0  0  0  0  0  0
   27.6935  -21.6485  -13.8048 C   0  0  0  0  0  0  0  0  0  0  0  0
   26.5316  -21.5587  -12.8830 C   0  0  2  0  0  0  0  0  0  0  0  0
   25.6806  -20.4520  -13.2186 N   0  0  0  0  0  0  0  0  0  0  0  0
   26.9533  -21.3647  -11.4635 C   0  0  0  0  0  0  0  0  0  0  0  0
   28.1581  -21.1792  -11.1789 O   0  0  0  0  0  0  0  0  0  0  0  0
   29.0838  -19.3520   -3.5035 O   0  0  0  0  0  0  0  0  0  0  0  0
   28.6101  -19.5115   -4.8193 C   0  0  0  0  0  0  0  0  0  0  0  0
   29.1648  -20.4406   -5.6680 C   0  0  0  0  0  0  0  0  0  0  0  0
   28.7143  -20.6195   -6.9772 C   0  0  0  0  0  0  0  0  0  0  0  0
   27.6777  -19.8396   -7.4392 C   0  0  0  0  0  0  0  0  0  0  0  0
   27.1701  -19.9925   -8.8114 C   0  0  0  0  0  0  0  0  0  0  0  0
   26.3845  -21.2750   -9.0096 C   0  0  2  0  0  0  0  0  0  0  0  0
   26.0233  -21.3817  -10.3921 N   0  0  0  0  0  0  0  0  0  0  0  0
   25.2390  -21.2751   -8.1009 C   0  0  0  0  0  0  0  0  0  0  0  0
   24.0352  -20.7411   -8.5311 O   0  0  0  0  0  0  0  0  0  0  0  0
   27.1258  -18.9059   -6.5747 C   0  0  0  0  0  0  0  0  0  0  0  0
   27.5797  -18.7343   -5.2737 C   0  0  0  0  0  0  0  0  0  0  0  0
   25.3045  -21.7423   -6.9398 O   0  0  0  0  0  0  0  0  0  0  0  0
  2  1  1  6
  2  3  1  0
  4  8  1  0
  4  3  1  0
  5  4  2  0
  6  2  1  0
  7  6  2  0
  9 10  1  0
 10 12  1  0
 11 10  2  0
 13 12  1  6
 13 14  1  0
 14  6  1  0
 15 13  1  0
 15 16  2  0
 17 18  1  0
 18 28  2  0
 19 18  1  0
 19 20  2  0
 20 21  1  0
 21 27  2  0
 21 22  1  0
 23 24  1  0
 23 22  1  6
 23 25  1  0
 24 15  1  0
 25 26  1  0
 28 27  1  0
 29 25  2  0
M  END
$$$$
