FGS.pdb
     RDKit          3D

 22 22  0  0  1  0  0  0  0  0999 V2000
    8.2289  -15.4770   24.9329 N   0  0  0  0  0  0  0  0  0  0  0  0
    7.5709  -14.6915   23.9071 C   0  0  1  0  0  0  0  0  0  0  0  0
    7.7356  -13.2220   24.1089 C   0  0  0  0  0  0  0  0  0  0  0  0
    7.1903  -12.7507   25.4105 C   0  0  0  0  0  0  0  0  0  0  0  0
    8.0553  -12.7149   26.4865 C   0  0  0  0  0  0  0  0  0  0  0  0
    7.6224  -12.2890   27.7364 C   0  0  0  0  0  0  0  0  0  0  0  0
    6.3071  -11.9021   27.8784 C   0  0  0  0  0  0  0  0  0  0  0  0
    5.4364  -11.9340   26.8118 C   0  0  0  0  0  0  0  0  0  0  0  0
    5.9030  -12.3616   25.5915 C   0  0  0  0  0  0  0  0  0  0  0  0
    8.0843  -15.0803   22.5919 C   0  0  0  0  0  0  0  0  0  0  0  0
    9.3277  -15.2220   22.3848 O   0  0  0  0  0  0  0  0  0  0  0  0
    7.2241  -15.3191   21.4806 N   0  0  0  0  0  0  0  0  0  0  0  0
    7.6847  -15.7211   20.1899 C   0  0  0  0  0  0  0  0  0  0  0  0
    8.5380  -16.9486   20.2678 C   0  0  0  0  0  0  0  0  0  0  0  0
    8.1224  -18.0080   19.7382 O   0  0  0  0  0  0  0  0  0  0  0  0
   12.4602  -16.8996   21.9532 O   0  0  0  0  0  0  0  0  0  0  0  0
   12.1185  -17.7323   20.9163 C   0  0  0  0  0  0  0  0  0  0  0  0
   10.6435  -18.1061   20.9155 C   0  0  2  0  0  0  0  0  0  0  0  0
    9.7950  -16.9506   20.9184 N   0  0  0  0  0  0  0  0  0  0  0  0
   10.3281  -19.0603   21.9992 C   0  0  0  0  0  0  0  0  0  0  0  0
    9.3910  -18.6799   22.9491 O   0  0  0  0  0  0  0  0  0  0  0  0
   10.8524  -20.1953   22.1187 O   0  0  0  0  0  0  0  0  0  0  0  0
  2  1  1  1
  3  2  1  0
  3  4  1  0
  4  5  2  0
  5  6  1  0
  7  6  2  0
  8  7  1  0
  9  4  1  0
  9  8  2  0
 10  2  1  0
 10 12  1  0
 11 10  2  0
 13 12  1  0
 13 14  1  0
 14 19  1  0
 15 14  2  0
 16 17  1  0
 18 20  1  0
 18 17  1  1
 19 18  1  0
 20 21  1  0
 22 20  2  0
M  END
$$$$
