FGS.pdb
     RDKit          3D

 22 22  0  0  1  0  0  0  0  0999 V2000
    7.0173  -16.5901   26.1614 N   0  0  0  0  0  0  0  0  0  0  0  0
    7.1724  -16.0723   24.8160 C   0  0  1  0  0  0  0  0  0  0  0  0
    8.0977  -14.9032   24.7491 C   0  0  0  0  0  0  0  0  0  0  0  0
    7.6648  -13.7709   25.6118 C   0  0  0  0  0  0  0  0  0  0  0  0
    6.4950  -13.1218   25.2690 C   0  0  0  0  0  0  0  0  0  0  0  0
    6.0244  -12.0534   26.0228 C   0  0  0  0  0  0  0  0  0  0  0  0
    6.7532  -11.6553   27.1229 C   0  0  0  0  0  0  0  0  0  0  0  0
    7.9209  -12.2959   27.4733 C   0  0  0  0  0  0  0  0  0  0  0  0
    8.3532  -13.3486   26.7022 C   0  0  0  0  0  0  0  0  0  0  0  0
    7.6464  -17.1412   23.9345 C   0  0  0  0  0  0  0  0  0  0  0  0
    8.0589  -18.2463   24.4008 O   0  0  0  0  0  0  0  0  0  0  0  0
    7.6707  -17.0017   22.5161 N   0  0  0  0  0  0  0  0  0  0  0  0
    8.1513  -18.0095   21.6256 C   0  0  0  0  0  0  0  0  0  0  0  0
    9.6457  -18.0955   21.6468 C   0  0  0  0  0  0  0  0  0  0  0  0
   10.2003  -19.1002   21.1385 O   0  0  0  0  0  0  0  0  0  0  0  0
   12.4804  -15.1142   21.3583 O   0  0  0  0  0  0  0  0  0  0  0  0
   12.6247  -16.4766   21.2665 C   0  0  0  0  0  0  0  0  0  0  0  0
   11.8691  -17.2288   22.3522 C   0  0  2  0  0  0  0  0  0  0  0  0
   10.4492  -17.0815   22.2208 N   0  0  0  0  0  0  0  0  0  0  0  0
   12.3669  -16.8772   23.6986 C   0  0  0  0  0  0  0  0  0  0  0  0
   13.6998  -17.1327   23.9870 O   0  0  0  0  0  0  0  0  0  0  0  0
   11.6630  -16.3614   24.6018 O   0  0  0  0  0  0  0  0  0  0  0  0
  2  1  1  1
  3  2  1  0
  3  4  1  0
  4  5  2  0
  5  6  1  0
  7  6  2  0
  8  7  1  0
  9  4  1  0
  9  8  2  0
 10  2  1  0
 10 12  1  0
 11 10  2  0
 13 12  1  0
 13 14  1  0
 14 19  1  0
 15 14  2  0
 16 17  1  0
 18 20  1  0
 18 17  1  6
 19 18  1  0
 20 21  1  0
 22 20  2  0
M  END
$$$$
