FGS.pdb
     RDKit          3D

 22 22  0  0  1  0  0  0  0  0999 V2000
    6.7533  -16.3035   25.6954 N   0  0  0  0  0  0  0  0  0  0  0  0
    6.9914  -15.6829   24.4068 C   0  0  1  0  0  0  0  0  0  0  0  0
    7.7021  -14.3752   24.5169 C   0  0  0  0  0  0  0  0  0  0  0  0
    7.0928  -13.4673   25.5259 C   0  0  0  0  0  0  0  0  0  0  0  0
    7.9491  -12.7970   26.3772 C   0  0  0  0  0  0  0  0  0  0  0  0
    7.4582  -11.9327   27.3483 C   0  0  0  0  0  0  0  0  0  0  0  0
    6.0942  -11.7588   27.4429 C   0  0  0  0  0  0  0  0  0  0  0  0
    5.2317  -12.4224   26.5988 C   0  0  0  0  0  0  0  0  0  0  0  0
    5.7563  -13.2689   25.6513 C   0  0  0  0  0  0  0  0  0  0  0  0
    7.7537  -16.6009   23.5579 C   0  0  0  0  0  0  0  0  0  0  0  0
    8.0229  -17.7808   23.9376 O   0  0  0  0  0  0  0  0  0  0  0  0
    8.2317  -16.2239   22.2689 N   0  0  0  0  0  0  0  0  0  0  0  0
    9.0279  -17.0689   21.4372 C   0  0  0  0  0  0  0  0  0  0  0  0
   10.3522  -17.3706   22.0665 C   0  0  0  0  0  0  0  0  0  0  0  0
   11.1088  -18.2044   21.5116 O   0  0  0  0  0  0  0  0  0  0  0  0
   11.5953  -16.2339   26.1087 O   0  0  0  0  0  0  0  0  0  0  0  0
   12.3869  -16.0999   24.9947 C   0  0  0  0  0  0  0  0  0  0  0  0
   12.0237  -17.0773   23.8865 C   0  0  2  0  0  0  0  0  0  0  0  0
   10.7754  -16.7463   23.2642 N   0  0  0  0  0  0  0  0  0  0  0  0
   12.0833  -18.4762   24.3598 C   0  0  0  0  0  0  0  0  0  0  0  0
   13.2996  -18.9546   24.8253 O   0  0  0  0  0  0  0  0  0  0  0  0
   11.1046  -19.2633   24.3690 O   0  0  0  0  0  0  0  0  0  0  0  0
  2  1  1  1
  3  2  1  0
  3  4  1  0
  4  5  2  0
  5  6  1  0
  7  6  2  0
  8  7  1  0
  9  4  1  0
  9  8  2  0
 10  2  1  0
 10 12  1  0
 11 10  2  0
 13 12  1  0
 13 14  1  0
 14 19  1  0
 15 14  2  0
 16 17  1  0
 18 20  1  0
 18 17  1  1
 19 18  1  0
 20 21  1  0
 22 20  2  0
M  END
$$$$
