FGS.pdb
     RDKit          3D

 22 22  0  0  1  0  0  0  0  0999 V2000
    6.6901  -17.7181   18.2180 N   0  0  0  0  0  0  0  0  0  0  0  0
    7.3033  -16.5903   18.8922 C   0  0  1  0  0  0  0  0  0  0  0  0
    6.3286  -15.7988   19.6989 C   0  0  0  0  0  0  0  0  0  0  0  0
    6.9520  -14.6324   20.3805 C   0  0  0  0  0  0  0  0  0  0  0  0
    7.3187  -13.5580   19.5940 C   0  0  0  0  0  0  0  0  0  0  0  0
    7.9087  -12.4316   20.1545 C   0  0  0  0  0  0  0  0  0  0  0  0
    8.1202  -12.4107   21.5163 C   0  0  0  0  0  0  0  0  0  0  0  0
    7.7582  -13.4768   22.3095 C   0  0  0  0  0  0  0  0  0  0  0  0
    7.1772  -14.5728   21.7173 C   0  0  0  0  0  0  0  0  0  0  0  0
    8.3937  -17.0673   19.7453 C   0  0  0  0  0  0  0  0  0  0  0  0
    8.1844  -17.8981   20.6806 O   0  0  0  0  0  0  0  0  0  0  0  0
    9.7394  -16.6292   19.5744 N   0  0  0  0  0  0  0  0  0  0  0  0
   10.8446  -17.1455   20.3172 C   0  0  0  0  0  0  0  0  0  0  0  0
   11.0751  -16.3661   21.5743 C   0  0  0  0  0  0  0  0  0  0  0  0
   11.5404  -15.2036   21.4878 O   0  0  0  0  0  0  0  0  0  0  0  0
    9.2868  -17.5156   24.9074 O   0  0  0  0  0  0  0  0  0  0  0  0
   10.1164  -16.4533   25.1691 C   0  0  0  0  0  0  0  0  0  0  0  0
   11.1222  -16.1964   24.0565 C   0  0  2  0  0  0  0  0  0  0  0  0
   10.7852  -16.8989   22.8532 N   0  0  0  0  0  0  0  0  0  0  0  0
   12.5054  -16.4523   24.5099 C   0  0  0  0  0  0  0  0  0  0  0  0
   12.9858  -15.7147   25.5824 O   0  0  0  0  0  0  0  0  0  0  0  0
   13.2775  -17.2945   23.9885 O   0  0  0  0  0  0  0  0  0  0  0  0
  2  1  1  1
  3  2  1  0
  3  4  1  0
  4  5  2  0
  5  6  1  0
  7  6  2  0
  8  7  1  0
  9  4  1  0
  9  8  2  0
 10  2  1  0
 10 12  1  0
 11 10  2  0
 13 12  1  0
 13 14  1  0
 14 19  1  0
 15 14  2  0
 16 17  1  0
 18 20  1  0
 18 17  1  1
 19 18  1  0
 20 21  1  0
 22 20  2  0
M  END
$$$$
