FGS.pdb
     RDKit          3D

 22 22  0  0  1  0  0  0  0  0999 V2000
    6.9992  -15.9815   25.2651 N   0  0  0  0  0  0  0  0  0  0  0  0
    7.1973  -15.0998   24.1312 C   0  0  1  0  0  0  0  0  0  0  0  0
    8.0045  -13.8916   24.4718 C   0  0  0  0  0  0  0  0  0  0  0  0
    7.3970  -13.0754   25.5573 C   0  0  0  0  0  0  0  0  0  0  0  0
    8.1751  -12.8150   26.6682 C   0  0  0  0  0  0  0  0  0  0  0  0
    7.6798  -12.0619   27.7259 C   0  0  0  0  0  0  0  0  0  0  0  0
    6.3913  -11.5797   27.6411 C   0  0  0  0  0  0  0  0  0  0  0  0
    5.6072  -11.8336   26.5377 C   0  0  0  0  0  0  0  0  0  0  0  0
    6.1335  -12.5826   25.5122 C   0  0  0  0  0  0  0  0  0  0  0  0
    7.8364  -15.8425   23.0429 C   0  0  0  0  0  0  0  0  0  0  0  0
    8.1220  -15.2827   21.9411 O   0  0  0  0  0  0  0  0  0  0  0  0
    8.1705  -17.2234   23.1591 N   0  0  0  0  0  0  0  0  0  0  0  0
    8.8049  -17.9781   22.1258 C   0  0  0  0  0  0  0  0  0  0  0  0
   10.2936  -17.9830   22.2827 C   0  0  0  0  0  0  0  0  0  0  0  0
   10.9696  -18.7976   21.6080 O   0  0  0  0  0  0  0  0  0  0  0  0
   12.8831  -15.5245   21.7128 O   0  0  0  0  0  0  0  0  0  0  0  0
   13.0888  -15.8939   23.0192 C   0  0  0  0  0  0  0  0  0  0  0  0
   12.3728  -17.1838   23.3920 C   0  0  2  0  0  0  0  0  0  0  0  0
   10.9597  -17.1000   23.1658 N   0  0  0  0  0  0  0  0  0  0  0  0
   12.7165  -17.6148   24.7632 C   0  0  0  0  0  0  0  0  0  0  0  0
   11.6771  -17.8417   25.6539 O   0  0  0  0  0  0  0  0  0  0  0  0
   13.8890  -17.7902   25.1779 O   0  0  0  0  0  0  0  0  0  0  0  0
  2  1  1  1
  3  2  1  0
  3  4  1  0
  4  5  2  0
  5  6  1  0
  7  6  2  0
  8  7  1  0
  9  4  1  0
  9  8  2  0
 10  2  1  0
 10 12  1  0
 11 10  2  0
 13 12  1  0
 13 14  1  0
 14 19  1  0
 15 14  2  0
 16 17  1  0
 18 20  1  0
 18 17  1  1
 19 18  1  0
 20 21  1  0
 22 20  2  0
M  END
$$$$
