FGS.pdb
     RDKit          3D

 22 22  0  0  1  0  0  0  0  0999 V2000
    6.6617  -16.5896   25.7893 N   0  0  0  0  0  0  0  0  0  0  0  0
    7.0623  -15.9500   24.5512 C   0  0  1  0  0  0  0  0  0  0  0  0
    7.9770  -14.7909   24.7684 C   0  0  0  0  0  0  0  0  0  0  0  0
    7.3528  -13.7013   25.5664 C   0  0  0  0  0  0  0  0  0  0  0  0
    8.1140  -13.1304   26.5675 C   0  0  0  0  0  0  0  0  0  0  0  0
    7.6025  -12.1088   27.3585 C   0  0  0  0  0  0  0  0  0  0  0  0
    6.3153  -11.6769   27.1208 C   0  0  0  0  0  0  0  0  0  0  0  0
    5.5480  -12.2393   26.1250 C   0  0  0  0  0  0  0  0  0  0  0  0
    6.0900  -13.2478   25.3641 C   0  0  0  0  0  0  0  0  0  0  0  0
    7.6988  -16.9374   23.6770 C   0  0  0  0  0  0  0  0  0  0  0  0
    7.9235  -18.1213   24.0729 O   0  0  0  0  0  0  0  0  0  0  0  0
    8.0981  -16.6268   22.3442 N   0  0  0  0  0  0  0  0  0  0  0  0
    8.7211  -17.5614   21.4621 C   0  0  0  0  0  0  0  0  0  0  0  0
   10.0585  -17.9957   21.9756 C   0  0  0  0  0  0  0  0  0  0  0  0
   10.3705  -19.2090   21.8981 O   0  0  0  0  0  0  0  0  0  0  0  0
   13.3429  -15.4182   22.6159 O   0  0  0  0  0  0  0  0  0  0  0  0
   13.4092  -16.7792   22.4469 C   0  0  0  0  0  0  0  0  0  0  0  0
   12.2364  -17.5145   23.0789 C   0  0  2  0  0  0  0  0  0  0  0  0
   10.9786  -17.0825   22.5438 N   0  0  0  0  0  0  0  0  0  0  0  0
   12.2918  -17.4513   24.5544 C   0  0  0  0  0  0  0  0  0  0  0  0
   13.4147  -17.9664   25.1863 O   0  0  0  0  0  0  0  0  0  0  0  0
   11.3889  -16.9616   25.2770 O   0  0  0  0  0  0  0  0  0  0  0  0
  2  1  1  1
  3  2  1  0
  3  4  1  0
  4  5  2  0
  5  6  1  0
  7  6  2  0
  8  7  1  0
  9  4  1  0
  9  8  2  0
 10  2  1  0
 10 12  1  0
 11 10  2  0
 13 12  1  0
 13 14  1  0
 14 19  1  0
 15 14  2  0
 16 17  1  0
 18 20  1  0
 18 17  1  6
 19 18  1  0
 20 21  1  0
 22 20  2  0
M  END
$$$$
