FGS.pdb
     RDKit          3D

 22 22  0  0  1  0  0  0  0  0999 V2000
    7.0079  -16.0871   25.1475 N   0  0  0  0  0  0  0  0  0  0  0  0
    7.3019  -15.2233   24.0205 C   0  0  1  0  0  0  0  0  0  0  0  0
    8.2000  -14.0873   24.3811 C   0  0  0  0  0  0  0  0  0  0  0  0
    7.6230  -13.2015   25.4279 C   0  0  0  0  0  0  0  0  0  0  0  0
    7.6800  -13.6420   26.7356 C   0  0  0  0  0  0  0  0  0  0  0  0
    7.1612  -12.8738   27.7708 C   0  0  0  0  0  0  0  0  0  0  0  0
    6.5870  -11.6593   27.4624 C   0  0  0  0  0  0  0  0  0  0  0  0
    6.5252  -11.2108   26.1618 C   0  0  0  0  0  0  0  0  0  0  0  0
    7.0496  -11.9999   25.1658 C   0  0  0  0  0  0  0  0  0  0  0  0
    7.8985  -16.0152   22.9429 C   0  0  0  0  0  0  0  0  0  0  0  0
    8.2837  -15.4741   21.8623 O   0  0  0  0  0  0  0  0  0  0  0  0
    8.0784  -17.4255   23.0463 N   0  0  0  0  0  0  0  0  0  0  0  0
    8.6061  -18.2392   21.9979 C   0  0  0  0  0  0  0  0  0  0  0  0
   10.1010  -18.2992   22.0471 C   0  0  0  0  0  0  0  0  0  0  0  0
   10.7041  -19.0256   21.2199 O   0  0  0  0  0  0  0  0  0  0  0  0
   12.8294  -15.5079   23.1224 O   0  0  0  0  0  0  0  0  0  0  0  0
   13.1488  -16.7672   22.6780 C   0  0  0  0  0  0  0  0  0  0  0  0
   12.2361  -17.8460   23.2423 C   0  0  2  0  0  0  0  0  0  0  0  0
   10.8524  -17.5642   22.9950 N   0  0  0  0  0  0  0  0  0  0  0  0
   12.5289  -18.1098   24.6667 C   0  0  0  0  0  0  0  0  0  0  0  0
   13.8423  -18.3825   25.0215 O   0  0  0  0  0  0  0  0  0  0  0  0
   11.6670  -18.1038   25.5801 O   0  0  0  0  0  0  0  0  0  0  0  0
  2  1  1  1
  3  2  1  0
  3  4  1  0
  4  5  2  0
  5  6  1  0
  7  6  2  0
  8  7  1  0
  9  4  1  0
  9  8  2  0
 10  2  1  0
 10 12  1  0
 11 10  2  0
 13 12  1  0
 13 14  1  0
 14 19  1  0
 15 14  2  0
 16 17  1  0
 18 20  1  0
 18 17  1  1
 19 18  1  0
 20 21  1  0
 22 20  2  0
M  END
$$$$
