FGS.pdb
     RDKit          3D

 22 22  0  0  1  0  0  0  0  0999 V2000
    5.7047  -15.9518   25.7804 N   0  0  0  0  0  0  0  0  0  0  0  0
    6.7100  -15.5363   24.8217 C   0  0  1  0  0  0  0  0  0  0  0  0
    7.7073  -14.5901   25.4025 C   0  0  0  0  0  0  0  0  0  0  0  0
    7.0840  -13.3566   25.9533 C   0  0  0  0  0  0  0  0  0  0  0  0
    6.8281  -12.3253   25.0711 C   0  0  0  0  0  0  0  0  0  0  0  0
    6.2496  -11.1396   25.5077 C   0  0  0  0  0  0  0  0  0  0  0  0
    5.9363  -11.0157   26.8442 C   0  0  0  0  0  0  0  0  0  0  0  0
    6.1874  -12.0381   27.7321 C   0  0  0  0  0  0  0  0  0  0  0  0
    6.7607  -13.1953   27.2613 C   0  0  0  0  0  0  0  0  0  0  0  0
    7.3889  -16.7177   24.2853 C   0  0  0  0  0  0  0  0  0  0  0  0
    8.2253  -16.6237   23.3363 O   0  0  0  0  0  0  0  0  0  0  0  0
    7.1506  -18.0276   24.7944 N   0  0  0  0  0  0  0  0  0  0  0  0
    7.7036  -19.2151   24.2255 C   0  0  0  0  0  0  0  0  0  0  0  0
    9.0606  -19.5123   24.7832 C   0  0  0  0  0  0  0  0  0  0  0  0
    9.6055  -20.6061   24.4964 O   0  0  0  0  0  0  0  0  0  0  0  0
   12.0363  -17.7489   24.4051 O   0  0  0  0  0  0  0  0  0  0  0  0
   12.1303  -18.0460   25.7424 C   0  0  0  0  0  0  0  0  0  0  0  0
   10.9972  -18.9342   26.2350 C   0  0  2  0  0  0  0  0  0  0  0  0
    9.7454  -18.6002   25.6214 N   0  0  0  0  0  0  0  0  0  0  0  0
   10.9321  -18.9567   27.7113 C   0  0  0  0  0  0  0  0  0  0  0  0
   12.0844  -19.2901   28.4087 O   0  0  0  0  0  0  0  0  0  0  0  0
    9.9015  -18.6938   28.3791 O   0  0  0  0  0  0  0  0  0  0  0  0
  2  1  1  1
  3  2  1  0
  3  4  1  0
  4  5  2  0
  5  6  1  0
  7  6  2  0
  8  7  1  0
  9  4  1  0
  9  8  2  0
 10  2  1  0
 10 12  1  0
 11 10  2  0
 13 12  1  0
 13 14  1  0
 14 19  1  0
 15 14  2  0
 16 17  1  0
 18 20  1  0
 18 17  1  1
 19 18  1  0
 20 21  1  0
 22 20  2  0
M  END
$$$$
