FGS.pdb
     RDKit          3D

 22 22  0  0  1  0  0  0  0  0999 V2000
    7.9078  -16.5935   25.9568 N   0  0  0  0  0  0  0  0  0  0  0  0
    7.3214  -16.3054   24.6623 C   0  0  1  0  0  0  0  0  0  0  0  0
    6.1726  -15.3564   24.7458 C   0  0  0  0  0  0  0  0  0  0  0  0
    6.4869  -14.1331   25.5321 C   0  0  0  0  0  0  0  0  0  0  0  0
    7.1797  -13.1254   24.8902 C   0  0  0  0  0  0  0  0  0  0  0  0
    7.5132  -11.9523   25.5561 C   0  0  0  0  0  0  0  0  0  0  0  0
    7.1360  -11.8166   26.8749 C   0  0  0  0  0  0  0  0  0  0  0  0
    6.4449  -12.8153   27.5242 C   0  0  0  0  0  0  0  0  0  0  0  0
    6.1337  -13.9608   26.8309 C   0  0  0  0  0  0  0  0  0  0  0  0
    8.3518  -15.7719   23.7690 C   0  0  0  0  0  0  0  0  0  0  0  0
    8.1223  -15.5830   22.5359 O   0  0  0  0  0  0  0  0  0  0  0  0
    9.6586  -15.4379   24.2303 N   0  0  0  0  0  0  0  0  0  0  0  0
   10.7260  -15.0332   23.3720 C   0  0  0  0  0  0  0  0  0  0  0  0
   11.7528  -16.1124   23.2242 C   0  0  0  0  0  0  0  0  0  0  0  0
   11.3869  -17.3101   23.3078 O   0  0  0  0  0  0  0  0  0  0  0  0
   15.9108  -15.2349   23.0855 O   0  0  0  0  0  0  0  0  0  0  0  0
   15.4484  -16.3605   22.4494 C   0  0  0  0  0  0  0  0  0  0  0  0
   14.1185  -16.8517   23.0021 C   0  0  2  0  0  0  0  0  0  0  0  0
   13.1192  -15.8239   22.9939 N   0  0  0  0  0  0  0  0  0  0  0  0
   14.2861  -17.4875   24.3258 C   0  0  0  0  0  0  0  0  0  0  0  0
   15.1043  -18.6047   24.4124 O   0  0  0  0  0  0  0  0  0  0  0  0
   13.7365  -17.0837   25.3804 O   0  0  0  0  0  0  0  0  0  0  0  0
  2  1  1  1
  3  2  1  0
  3  4  1  0
  4  5  2  0
  5  6  1  0
  7  6  2  0
  8  7  1  0
  9  4  1  0
  9  8  2  0
 10  2  1  0
 10 12  1  0
 11 10  2  0
 13 12  1  0
 13 14  1  0
 14 19  1  0
 15 14  2  0
 16 17  1  0
 18 20  1  0
 18 17  1  1
 19 18  1  0
 20 21  1  0
 22 20  2  0
M  END
$$$$
