FGS.pdb
     RDKit          3D

 22 22  0  0  1  0  0  0  0  0999 V2000
    6.9114  -16.4042   26.2854 N   0  0  0  0  0  0  0  0  0  0  0  0
    6.6991  -15.8373   24.9679 C   0  0  1  0  0  0  0  0  0  0  0  0
    7.4106  -14.5397   24.7748 C   0  0  0  0  0  0  0  0  0  0  0  0
    7.0916  -13.5408   25.8302 C   0  0  0  0  0  0  0  0  0  0  0  0
    5.8761  -12.8908   25.7436 C   0  0  0  0  0  0  0  0  0  0  0  0
    5.5049  -11.9425   26.6892 C   0  0  0  0  0  0  0  0  0  0  0  0
    6.3792  -11.6647   27.7179 C   0  0  0  0  0  0  0  0  0  0  0  0
    7.5936  -12.3073   27.8134 C   0  0  0  0  0  0  0  0  0  0  0  0
    7.9242  -13.2389   26.8583 C   0  0  0  0  0  0  0  0  0  0  0  0
    7.1225  -16.8006   23.9495 C   0  0  0  0  0  0  0  0  0  0  0  0
    7.1120  -16.5042   22.7162 O   0  0  0  0  0  0  0  0  0  0  0  0
    7.5661  -18.1136   24.2833 N   0  0  0  0  0  0  0  0  0  0  0  0
    7.9542  -19.0918   23.3178 C   0  0  0  0  0  0  0  0  0  0  0  0
    9.3354  -18.8365   22.8002 C   0  0  0  0  0  0  0  0  0  0  0  0
    9.9005  -19.7281   22.1210 O   0  0  0  0  0  0  0  0  0  0  0  0
   11.1297  -15.3178   21.7160 O   0  0  0  0  0  0  0  0  0  0  0  0
   11.6596  -16.5750   21.5616 C   0  0  0  0  0  0  0  0  0  0  0  0
   11.4174  -17.4740   22.7652 C   0  0  2  0  0  0  0  0  0  0  0  0
   10.0211  -17.6243   23.0528 N   0  0  0  0  0  0  0  0  0  0  0  0
   12.2068  -17.0342   23.9348 C   0  0  0  0  0  0  0  0  0  0  0  0
   13.5885  -17.0008   23.8122 O   0  0  0  0  0  0  0  0  0  0  0  0
   11.7101  -16.6877   25.0350 O   0  0  0  0  0  0  0  0  0  0  0  0
  2  1  1  1
  3  2  1  0
  3  4  1  0
  4  5  2  0
  5  6  1  0
  7  6  2  0
  8  7  1  0
  9  4  1  0
  9  8  2  0
 10  2  1  0
 10 12  1  0
 11 10  2  0
 13 12  1  0
 13 14  1  0
 14 19  1  0
 15 14  2  0
 16 17  1  0
 18 20  1  0
 18 17  1  6
 19 18  1  0
 20 21  1  0
 22 20  2  0
M  END
$$$$
