FGS.pdb
     RDKit          3D

 22 22  0  0  1  0  0  0  0  0999 V2000
    8.0741  -16.3498   26.7246 N   0  0  0  0  0  0  0  0  0  0  0  0
    7.1656  -16.1474   25.6128 C   0  0  1  0  0  0  0  0  0  0  0  0
    7.3746  -14.8394   24.9255 C   0  0  0  0  0  0  0  0  0  0  0  0
    7.0224  -13.6729   25.7792 C   0  0  0  0  0  0  0  0  0  0  0  0
    7.6866  -12.4860   25.5393 C   0  0  0  0  0  0  0  0  0  0  0  0
    7.4161  -11.3514   26.2948 C   0  0  0  0  0  0  0  0  0  0  0  0
    6.4677  -11.4375   27.2912 C   0  0  0  0  0  0  0  0  0  0  0  0
    5.7997  -12.6162   27.5385 C   0  0  0  0  0  0  0  0  0  0  0  0
    6.0956  -13.7164   26.7694 C   0  0  0  0  0  0  0  0  0  0  0  0
    7.3122  -17.2478   24.6577 C   0  0  0  0  0  0  0  0  0  0  0  0
    8.3414  -17.9892   24.6587 O   0  0  0  0  0  0  0  0  0  0  0  0
    6.3162  -17.5450   23.6822 N   0  0  0  0  0  0  0  0  0  0  0  0
    6.4645  -18.5444   22.6728 C   0  0  0  0  0  0  0  0  0  0  0  0
    7.5504  -18.1920   21.7046 C   0  0  0  0  0  0  0  0  0  0  0  0
    7.9685  -19.0759   20.9176 O   0  0  0  0  0  0  0  0  0  0  0  0
    8.7005  -14.2195   20.6267 O   0  0  0  0  0  0  0  0  0  0  0  0
    8.8779  -15.3661   19.8924 C   0  0  0  0  0  0  0  0  0  0  0  0
    9.1912  -16.5809   20.7536 C   0  0  2  0  0  0  0  0  0  0  0  0
    8.1182  -16.8966   21.6502 N   0  0  0  0  0  0  0  0  0  0  0  0
   10.4943  -16.4370   21.4359 C   0  0  0  0  0  0  0  0  0  0  0  0
   11.6188  -16.2198   20.6526 O   0  0  0  0  0  0  0  0  0  0  0  0
   10.6531  -16.4981   22.6803 O   0  0  0  0  0  0  0  0  0  0  0  0
  2  1  1  1
  3  2  1  0
  3  4  1  0
  4  5  2  0
  5  6  1  0
  7  6  2  0
  8  7  1  0
  9  4  1  0
  9  8  2  0
 10  2  1  0
 10 12  1  0
 11 10  2  0
 13 12  1  0
 13 14  1  0
 14 19  1  0
 15 14  2  0
 16 17  1  0
 18 20  1  0
 18 17  1  1
 19 18  1  0
 20 21  1  0
 22 20  2  0
M  END
$$$$
