SFM.pdb
     RDKit          3D

 26 26  0  0  1  0  0  0  0  0999 V2000
   11.2349  -18.9366   21.9871 O   0  0  0  0  0  0  0  0  0  0  0  0
   10.0038  -19.0626   21.3179 C   0  0  0  0  0  0  0  0  0  0  0  0
    9.7677  -17.8047   20.4868 C   0  0  2  0  0  0  0  0  0  0  0  0
   10.8937  -17.5994   19.6025 N   0  0  0  0  0  0  0  0  0  0  0  0
    9.6436  -16.6631   21.4064 C   0  0  0  0  0  0  0  0  0  0  0  0
   10.5035  -15.7541   21.4381 O   0  0  0  0  0  0  0  0  0  0  0  0
    8.5197  -16.5893   22.2812 N   0  0  0  0  0  0  0  0  0  0  0  0
    8.3493  -15.4378   23.1033 C   0  0  1  0  0  0  0  0  0  0  0  0
    6.9873  -15.3666   23.7582 C   0  0  0  0  0  0  0  0  0  0  0  0
    6.8141  -14.1233   24.5410 C   0  0  0  0  0  0  0  0  0  0  0  0
    7.3373  -12.9221   24.0782 C   0  0  0  0  0  0  0  0  0  0  0  0
    7.1699  -11.7500   24.8225 C   0  0  0  0  0  0  0  0  0  0  0  0
    6.4973  -11.7377   26.0138 C   0  0  0  0  0  0  0  0  0  0  0  0
    5.9811  -12.9284   26.4684 C   0  0  0  0  0  0  0  0  0  0  0  0
    6.1391  -14.0946   25.7428 C   0  0  0  0  0  0  0  0  0  0  0  0
    9.3805  -15.3828   24.2013 C   0  0  0  0  0  0  0  0  0  0  0  0
   10.1776  -14.3959   24.3034 O   0  0  0  0  0  0  0  0  0  0  0  0
   11.1521  -14.4151   30.0777 C   0  0  0  0  0  0  0  0  0  0  0  0
   10.5341  -13.8780   28.4638 S   0  0  0  0  0  0  0  0  0  0  0  0
    9.4032  -15.0647   27.7651 C   0  0  0  0  0  0  0  0  0  0  0  0
    9.9375  -16.3925   27.4153 C   0  0  0  0  0  0  0  0  0  0  0  0
   10.5584  -16.6067   26.0878 C   0  0  2  0  0  0  0  0  0  0  0  0
    9.4450  -16.4508   25.1170 N   0  0  0  0  0  0  0  0  0  0  0  0
   11.1239  -17.9309   25.8087 C   0  0  0  0  0  0  0  0  0  0  0  0
   12.3136  -18.4109   26.3960 O   0  0  0  0  0  0  0  0  0  0  0  0
   10.5749  -18.7248   25.0206 O   0  0  0  0  0  0  0  0  0  0  0  0
  2  1  1  0
  3  2  1  0
  3  5  1  0
  3  4  1  6
  5  6  2  0
  7  8  1  0
  7  5  1  0
  8  9  1  1
  9 10  1  0
 10 15  2  0
 11 10  1  0
 11 12  2  0
 12 13  1  0
 13 14  2  0
 15 14  1  0
 16  8  1  0
 16 17  2  0
 19 18  1  0
 19 20  1  0
 20 21  1  0
 22 21  1  1
 22 23  1  0
 22 24  1  0
 23 16  1  0
 24 26  2  0
 24 25  1  0
M  END
$$$$
