SFM.pdb
     RDKit          3D

 26 26  0  0  1  0  0  0  0  0999 V2000
    7.7004  -20.8131   22.8679 O   0  0  0  0  0  0  0  0  0  0  0  0
    7.1877  -21.2406   24.1063 C   0  0  0  0  0  0  0  0  0  0  0  0
    5.8249  -20.5891   24.3228 C   0  0  2  0  0  0  0  0  0  0  0  0
    4.9192  -21.0210   23.2810 N   0  0  0  0  0  0  0  0  0  0  0  0
    5.9977  -19.1295   24.2571 C   0  0  0  0  0  0  0  0  0  0  0  0
    5.6203  -18.4718   23.2612 O   0  0  0  0  0  0  0  0  0  0  0  0
    6.6085  -18.4482   25.3509 N   0  0  0  0  0  0  0  0  0  0  0  0
    6.8397  -17.0450   25.2580 C   0  0  1  0  0  0  0  0  0  0  0  0
    7.2201  -16.4127   26.5788 C   0  0  0  0  0  0  0  0  0  0  0  0
    7.0723  -14.9410   26.5505 C   0  0  0  0  0  0  0  0  0  0  0  0
    8.0226  -14.1268   27.1545 C   0  0  0  0  0  0  0  0  0  0  0  0
    7.8775  -12.7363   27.1240 C   0  0  0  0  0  0  0  0  0  0  0  0
    6.8147  -12.1316   26.5104 C   0  0  0  0  0  0  0  0  0  0  0  0
    5.8764  -12.9407   25.9139 C   0  0  0  0  0  0  0  0  0  0  0  0
    6.0072  -14.3169   25.9364 C   0  0  0  0  0  0  0  0  0  0  0  0
    7.9367  -16.7278   24.2742 C   0  0  0  0  0  0  0  0  0  0  0  0
    9.0119  -17.4084   24.2491 O   0  0  0  0  0  0  0  0  0  0  0  0
    7.8896  -11.0555   19.7483 C   0  0  0  0  0  0  0  0  0  0  0  0
    7.5144  -12.7370   19.1945 S   0  0  0  0  0  0  0  0  0  0  0  0
    8.4391  -13.9529   20.1120 C   0  0  0  0  0  0  0  0  0  0  0  0
    7.8233  -14.4992   21.3340 C   0  0  0  0  0  0  0  0  0  0  0  0
    8.5648  -15.4884   22.1496 C   0  0  2  0  0  0  0  0  0  0  0  0
    7.7479  -15.6575   23.3787 N   0  0  0  0  0  0  0  0  0  0  0  0
    9.8986  -15.1103   22.6283 C   0  0  0  0  0  0  0  0  0  0  0  0
   10.1265  -14.4149   23.8346 O   0  0  0  0  0  0  0  0  0  0  0  0
   10.9286  -15.3871   21.9840 O   0  0  0  0  0  0  0  0  0  0  0  0
  2  1  1  0
  3  2  1  0
  3  5  1  0
  3  4  1  6
  5  6  2  0
  7  8  1  0
  7  5  1  0
  8  9  1  1
  9 10  1  0
 10 15  2  0
 11 10  1  0
 11 12  2  0
 12 13  1  0
 13 14  2  0
 15 14  1  0
 16  8  1  0
 16 17  2  0
 19 18  1  0
 19 20  1  0
 20 21  1  0
 22 21  1  6
 22 23  1  0
 22 24  1  0
 23 16  1  0
 24 26  2  0
 24 25  1  0
M  END
$$$$
