SFM.pdb
     RDKit          3D

 26 26  0  0  1  0  0  0  0  0999 V2000
   11.2759  -19.1472   20.5245 O   0  0  0  0  0  0  0  0  0  0  0  0
   10.1556  -18.7911   19.7515 C   0  0  0  0  0  0  0  0  0  0  0  0
   10.2229  -17.2963   19.4522 C   0  0  2  0  0  0  0  0  0  0  0  0
   11.4991  -16.9887   18.8451 N   0  0  0  0  0  0  0  0  0  0  0  0
   10.0884  -16.5668   20.7227 C   0  0  0  0  0  0  0  0  0  0  0  0
   11.0855  -16.0894   21.3099 O   0  0  0  0  0  0  0  0  0  0  0  0
    8.7947  -16.3994   21.2990 N   0  0  0  0  0  0  0  0  0  0  0  0
    8.6649  -15.6943   22.5306 C   0  0  1  0  0  0  0  0  0  0  0  0
    7.2502  -15.2379   22.8124 C   0  0  0  0  0  0  0  0  0  0  0  0
    7.1608  -14.4533   24.0634 C   0  0  0  0  0  0  0  0  0  0  0  0
    6.5516  -14.9925   25.1899 C   0  0  0  0  0  0  0  0  0  0  0  0
    6.4706  -14.2459   26.3696 C   0  0  0  0  0  0  0  0  0  0  0  0
    6.9778  -12.9787   26.4619 C   0  0  0  0  0  0  0  0  0  0  0  0
    7.5799  -12.4487   25.3450 C   0  0  0  0  0  0  0  0  0  0  0  0
    7.6670  -13.1754   24.1721 C   0  0  0  0  0  0  0  0  0  0  0  0
    9.1084  -16.5351   23.7003 C   0  0  0  0  0  0  0  0  0  0  0  0
    8.8498  -17.7804   23.7480 O   0  0  0  0  0  0  0  0  0  0  0  0
   10.2289  -12.6563   29.5830 C   0  0  0  0  0  0  0  0  0  0  0  0
   11.3413  -13.6924   28.6012 S   0  0  0  0  0  0  0  0  0  0  0  0
   10.4403  -14.8607   27.6018 C   0  0  0  0  0  0  0  0  0  0  0  0
   11.2053  -15.6570   26.6263 C   0  0  0  0  0  0  0  0  0  0  0  0
   10.5120  -16.6805   25.8106 C   0  0  2  0  0  0  0  0  0  0  0  0
    9.8180  -15.9124   24.7452 N   0  0  0  0  0  0  0  0  0  0  0  0
    9.4582  -17.4669   26.4605 C   0  0  0  0  0  0  0  0  0  0  0  0
    8.0849  -17.3207   26.1716 O   0  0  0  0  0  0  0  0  0  0  0  0
    9.7204  -18.3271   27.3231 O   0  0  0  0  0  0  0  0  0  0  0  0
  2  1  1  0
  3  2  1  0
  3  5  1  0
  3  4  1  1
  5  6  2  0
  7  8  1  0
  7  5  1  0
  8  9  1  1
  9 10  1  0
 10 15  2  0
 11 10  1  0
 11 12  2  0
 12 13  1  0
 13 14  2  0
 15 14  1  0
 16  8  1  0
 16 17  2  0
 19 18  1  0
 19 20  1  0
 20 21  1  0
 22 21  1  1
 22 23  1  0
 22 24  1  0
 23 16  1  0
 24 26  2  0
 24 25  1  0
M  END
$$$$
