SFM.pdb
     RDKit          3D

 26 26  0  0  1  0  0  0  0  0999 V2000
   11.2834  -19.2807   21.8801 O   0  0  0  0  0  0  0  0  0  0  0  0
    9.9701  -19.7099   21.6146 C   0  0  0  0  0  0  0  0  0  0  0  0
    9.3051  -18.7017   20.6819 C   0  0  2  0  0  0  0  0  0  0  0  0
   10.0732  -18.6039   19.4602 N   0  0  0  0  0  0  0  0  0  0  0  0
    9.2804  -17.3959   21.3591 C   0  0  0  0  0  0  0  0  0  0  0  0
   10.1338  -16.5150   21.1093 O   0  0  0  0  0  0  0  0  0  0  0  0
    8.2628  -17.1267   22.3213 N   0  0  0  0  0  0  0  0  0  0  0  0
    8.2162  -15.8482   22.9491 C   0  0  1  0  0  0  0  0  0  0  0  0
    6.9659  -15.6317   23.7731 C   0  0  0  0  0  0  0  0  0  0  0  0
    7.0143  -14.3605   24.5283 C   0  0  0  0  0  0  0  0  0  0  0  0
    7.6800  -13.2577   24.0073 C   0  0  0  0  0  0  0  0  0  0  0  0
    7.7219  -12.0587   24.7258 C   0  0  0  0  0  0  0  0  0  0  0  0
    7.1209  -11.9243   25.9475 C   0  0  0  0  0  0  0  0  0  0  0  0
    6.4632  -13.0178   26.4596 C   0  0  0  0  0  0  0  0  0  0  0  0
    6.4138  -14.2094   25.7602 C   0  0  0  0  0  0  0  0  0  0  0  0
    9.3983  -15.6342   23.8595 C   0  0  0  0  0  0  0  0  0  0  0  0
   10.0023  -14.5145   23.8975 O   0  0  0  0  0  0  0  0  0  0  0  0
    9.7887  -12.7344   28.3443 C   0  0  0  0  0  0  0  0  0  0  0  0
   10.1204  -14.3045   29.1807 S   0  0  0  0  0  0  0  0  0  0  0  0
   10.8413  -15.4997   28.0730 C   0  0  0  0  0  0  0  0  0  0  0  0
   10.1804  -15.7112   26.7732 C   0  0  0  0  0  0  0  0  0  0  0  0
   10.8427  -16.5405   25.7401 C   0  0  2  0  0  0  0  0  0  0  0  0
    9.8237  -16.7031   24.6716 N   0  0  0  0  0  0  0  0  0  0  0  0
   11.2272  -17.9067   26.1102 C   0  0  0  0  0  0  0  0  0  0  0  0
   10.6005  -19.0606   25.5941 O   0  0  0  0  0  0  0  0  0  0  0  0
   12.1486  -18.1316   26.9185 O   0  0  0  0  0  0  0  0  0  0  0  0
  2  1  1  0
  3  2  1  0
  3  5  1  0
  3  4  1  6
  5  6  2  0
  7  8  1  0
  7  5  1  0
  8  9  1  1
  9 10  1  0
 10 15  2  0
 11 10  1  0
 11 12  2  0
 12 13  1  0
 13 14  2  0
 15 14  1  0
 16  8  1  0
 16 17  2  0
 19 18  1  0
 19 20  1  0
 20 21  1  0
 22 21  1  1
 22 23  1  0
 22 24  1  0
 23 16  1  0
 24 26  2  0
 24 25  1  0
M  END
$$$$
