SFM.pdb
     RDKit          3D

 26 26  0  0  1  0  0  0  0  0999 V2000
   11.4985  -19.0272   21.9164 O   0  0  0  0  0  0  0  0  0  0  0  0
   10.2046  -19.3673   21.4811 C   0  0  0  0  0  0  0  0  0  0  0  0
    9.6786  -18.2470   20.5884 C   0  0  2  0  0  0  0  0  0  0  0  0
   10.6011  -18.0362   19.4946 N   0  0  0  0  0  0  0  0  0  0  0  0
    9.5798  -17.0225   21.3979 C   0  0  0  0  0  0  0  0  0  0  0  0
   10.4043  -16.0891   21.2729 O   0  0  0  0  0  0  0  0  0  0  0  0
    8.5222  -16.8950   22.3461 N   0  0  0  0  0  0  0  0  0  0  0  0
    8.3705  -15.6725   23.0626 C   0  0  1  0  0  0  0  0  0  0  0  0
    7.0079  -15.5189   23.7019 C   0  0  0  0  0  0  0  0  0  0  0  0
    6.9132  -14.2855   24.5132 C   0  0  0  0  0  0  0  0  0  0  0  0
    7.4440  -13.0910   24.0418 C   0  0  0  0  0  0  0  0  0  0  0  0
    7.3510  -11.9283   24.8133 C   0  0  0  0  0  0  0  0  0  0  0  0
    6.7455  -11.9188   26.0401 C   0  0  0  0  0  0  0  0  0  0  0  0
    6.2215  -13.1028   26.5030 C   0  0  0  0  0  0  0  0  0  0  0  0
    6.3063  -14.2598   25.7510 C   0  0  0  0  0  0  0  0  0  0  0  0
    9.3988  -15.5396   24.1566 C   0  0  0  0  0  0  0  0  0  0  0  0
    9.7760  -14.3952   24.5664 O   0  0  0  0  0  0  0  0  0  0  0  0
    9.4281  -13.1850   28.8214 C   0  0  0  0  0  0  0  0  0  0  0  0
   10.8699  -14.2649   28.9941 S   0  0  0  0  0  0  0  0  0  0  0  0
   10.5601  -15.8869   28.3246 C   0  0  0  0  0  0  0  0  0  0  0  0
   10.0430  -15.9694   26.9474 C   0  0  0  0  0  0  0  0  0  0  0  0
   10.8179  -16.6960   25.9153 C   0  0  2  0  0  0  0  0  0  0  0  0
    9.9371  -16.7129   24.7194 N   0  0  0  0  0  0  0  0  0  0  0  0
   11.1373  -18.1043   26.1726 C   0  0  0  0  0  0  0  0  0  0  0  0
   12.3920  -18.5466   26.6425 O   0  0  0  0  0  0  0  0  0  0  0  0
   10.3017  -19.0099   25.9872 O   0  0  0  0  0  0  0  0  0  0  0  0
  2  1  1  0
  3  2  1  0
  3  5  1  0
  3  4  1  6
  5  6  2  0
  7  8  1  0
  7  5  1  0
  8  9  1  1
  9 10  1  0
 10 15  2  0
 11 10  1  0
 11 12  2  0
 12 13  1  0
 13 14  2  0
 15 14  1  0
 16  8  1  0
 16 17  2  0
 19 18  1  0
 19 20  1  0
 20 21  1  0
 22 21  1  1
 22 23  1  0
 22 24  1  0
 23 16  1  0
 24 26  2  0
 24 25  1  0
M  END
$$$$
