SFM.pdb
     RDKit          3D

 26 26  0  0  1  0  0  0  0  0999 V2000
    6.9735  -20.2818   22.0065 O   0  0  0  0  0  0  0  0  0  0  0  0
    6.0895  -20.6473   23.0381 C   0  0  0  0  0  0  0  0  0  0  0  0
    4.9578  -19.6254   23.0977 C   0  0  2  0  0  0  0  0  0  0  0  0
    4.2238  -19.6539   21.8517 N   0  0  0  0  0  0  0  0  0  0  0  0
    5.5512  -18.2936   23.2943 C   0  0  0  0  0  0  0  0  0  0  0  0
    5.6217  -17.4658   22.3581 O   0  0  0  0  0  0  0  0  0  0  0  0
    6.0575  -17.9369   24.5789 N   0  0  0  0  0  0  0  0  0  0  0  0
    6.6413  -16.6505   24.7666 C   0  0  1  0  0  0  0  0  0  0  0  0
    6.6598  -16.2072   26.2131 C   0  0  0  0  0  0  0  0  0  0  0  0
    6.9722  -14.7674   26.3466 C   0  0  0  0  0  0  0  0  0  0  0  0
    5.9792  -13.8124   26.1656 C   0  0  0  0  0  0  0  0  0  0  0  0
    6.2807  -12.4529   26.2935 C   0  0  0  0  0  0  0  0  0  0  0  0
    7.5411  -12.0152   26.5963 C   0  0  0  0  0  0  0  0  0  0  0  0
    8.5209  -12.9633   26.7746 C   0  0  0  0  0  0  0  0  0  0  0  0
    8.2370  -14.3107   26.6511 C   0  0  0  0  0  0  0  0  0  0  0  0
    8.0618  -16.6076   24.2643 C   0  0  0  0  0  0  0  0  0  0  0  0
    8.8278  -17.6178   24.3766 O   0  0  0  0  0  0  0  0  0  0  0  0
    7.0744  -11.8293   19.4392 C   0  0  0  0  0  0  0  0  0  0  0  0
    8.5297  -12.0878   20.4833 S   0  0  0  0  0  0  0  0  0  0  0  0
    8.5529  -13.7258   21.1844 C   0  0  0  0  0  0  0  0  0  0  0  0
    9.6477  -14.0548   22.1140 C   0  0  0  0  0  0  0  0  0  0  0  0
    9.6950  -15.3929   22.7471 C   0  0  2  0  0  0  0  0  0  0  0  0
    8.5274  -15.4213   23.6650 N   0  0  0  0  0  0  0  0  0  0  0  0
   10.8521  -15.7027   23.5937 C   0  0  0  0  0  0  0  0  0  0  0  0
   10.8372  -15.6063   25.0012 O   0  0  0  0  0  0  0  0  0  0  0  0
   11.9372  -16.0768   23.1085 O   0  0  0  0  0  0  0  0  0  0  0  0
  2  1  1  0
  3  2  1  0
  3  5  1  0
  3  4  1  6
  5  6  2  0
  7  8  1  0
  7  5  1  0
  8  9  1  1
  9 10  1  0
 10 15  2  0
 11 10  1  0
 11 12  2  0
 12 13  1  0
 13 14  2  0
 15 14  1  0
 16  8  1  0
 16 17  2  0
 19 18  1  0
 19 20  1  0
 20 21  1  0
 22 21  1  1
 22 23  1  0
 22 24  1  0
 23 16  1  0
 24 26  2  0
 24 25  1  0
M  END
$$$$
