SFM.pdb
     RDKit          3D

 26 26  0  0  1  0  0  0  0  0999 V2000
    8.6935  -19.5006   22.1564 O   0  0  0  0  0  0  0  0  0  0  0  0
    9.1609  -18.8936   20.9765 C   0  0  0  0  0  0  0  0  0  0  0  0
    8.3576  -17.6196   20.7304 C   0  0  2  0  0  0  0  0  0  0  0  0
    8.7819  -17.0220   19.4835 N   0  0  0  0  0  0  0  0  0  0  0  0
    8.6185  -16.6903   21.8408 C   0  0  0  0  0  0  0  0  0  0  0  0
    9.6962  -16.0593   21.9242 O   0  0  0  0  0  0  0  0  0  0  0  0
    7.6227  -16.5037   22.8445 N   0  0  0  0  0  0  0  0  0  0  0  0
    7.9293  -15.7204   23.9949 C   0  0  1  0  0  0  0  0  0  0  0  0
    6.7020  -15.1756   24.6921 C   0  0  0  0  0  0  0  0  0  0  0  0
    7.0521  -14.1945   25.7424 C   0  0  0  0  0  0  0  0  0  0  0  0
    7.1769  -12.8458   25.4317 C   0  0  0  0  0  0  0  0  0  0  0  0
    7.5077  -11.9231   26.4291 C   0  0  0  0  0  0  0  0  0  0  0  0
    7.7181  -12.3024   27.7267 C   0  0  0  0  0  0  0  0  0  0  0  0
    7.5937  -13.6378   28.0301 C   0  0  0  0  0  0  0  0  0  0  0  0
    7.2672  -14.5610   27.0540 C   0  0  0  0  0  0  0  0  0  0  0  0
    8.7111  -16.5116   25.0122 C   0  0  0  0  0  0  0  0  0  0  0  0
    8.2667  -17.6138   25.4679 O   0  0  0  0  0  0  0  0  0  0  0  0
   15.0774  -15.0843   25.5167 C   0  0  0  0  0  0  0  0  0  0  0  0
   14.3377  -16.0626   24.1860 S   0  0  0  0  0  0  0  0  0  0  0  0
   12.6838  -16.5846   24.5955 C   0  0  0  0  0  0  0  0  0  0  0  0
   12.2157  -16.3507   25.9728 C   0  0  0  0  0  0  0  0  0  0  0  0
   10.8467  -16.7609   26.3617 C   0  0  2  0  0  0  0  0  0  0  0  0
    9.9495  -16.0046   25.4510 N   0  0  0  0  0  0  0  0  0  0  0  0
   10.3936  -16.4175   27.7138 C   0  0  0  0  0  0  0  0  0  0  0  0
   10.2297  -15.0921   28.1687 O   0  0  0  0  0  0  0  0  0  0  0  0
   10.1216  -17.2948   28.5560 O   0  0  0  0  0  0  0  0  0  0  0  0
  2  1  1  0
  3  2  1  0
  3  5  1  0
  3  4  1  6
  5  6  2  0
  7  8  1  0
  7  5  1  0
  8  9  1  1
  9 10  1  0
 10 15  2  0
 11 10  1  0
 11 12  2  0
 12 13  1  0
 13 14  2  0
 15 14  1  0
 16  8  1  0
 16 17  2  0
 19 18  1  0
 19 20  1  0
 20 21  1  0
 22 21  1  1
 22 23  1  0
 22 24  1  0
 23 16  1  0
 24 26  2  0
 24 25  1  0
M  END
$$$$
