KWY.pdb
     RDKit          3D

 36 38  0  0  1  0  0  0  0  0999 V2000
   29.2591  -20.7100  -14.6536 N   0  0  0  0  0  0  0  0  0  0  0  0
   27.8480  -20.4666  -14.8041 C   0  0  1  0  0  0  0  0  0  0  0  0
   27.3691  -20.8861  -16.1565 C   0  0  0  0  0  0  0  0  0  0  0  0
   28.3027  -20.5779  -17.2708 C   0  0  0  0  0  0  0  0  0  0  0  0
   28.3726  -19.1577  -17.7116 C   0  0  0  0  0  0  0  0  0  0  0  0
   29.2916  -19.1166  -18.9478 C   0  0  0  0  0  0  0  0  0  0  0  0
   28.5195  -19.4221  -20.1280 N   0  0  0  0  0  0  0  0  0  0  0  0
   27.0716  -21.0765  -13.6955 C   0  0  0  0  0  0  0  0  0  0  0  0
   26.0519  -21.7315  -14.0108 O   0  0  0  0  0  0  0  0  0  0  0  0
   27.4646  -20.9268  -12.3491 N   0  0  0  0  0  0  0  0  0  0  0  0
   26.5537  -21.4778  -11.2557 C   0  0  1  0  0  0  0  0  0  0  0  0
   27.3741  -21.5232  -10.0448 C   0  0  0  0  0  0  0  0  0  0  0  0
   26.9688  -20.8173   -8.8417 C   0  0  0  0  0  0  0  0  0  0  0  0
   25.7618  -20.3264   -8.4308 C   0  0  0  0  0  0  0  0  0  0  0  0
   25.9095  -19.7776   -7.2225 N   0  0  0  0  0  0  0  0  0  0  0  0
   27.1945  -19.8836   -6.7964 C   0  0  0  0  0  0  0  0  0  0  0  0
   27.8181  -19.4877   -5.6353 C   0  0  0  0  0  0  0  0  0  0  0  0
   29.1491  -19.7397   -5.4546 C   0  0  0  0  0  0  0  0  0  0  0  0
   29.8531  -20.3894   -6.4423 C   0  0  0  0  0  0  0  0  0  0  0  0
   29.2178  -20.7770   -7.5960 C   0  0  0  0  0  0  0  0  0  0  0  0
   27.8738  -20.5324   -7.7976 C   0  0  0  0  0  0  0  0  0  0  0  0
   25.3517  -20.6843  -11.3600 C   0  0  0  0  0  0  0  0  0  0  0  0
   25.4881  -19.3816  -11.5348 O   0  0  0  0  0  0  0  0  0  0  0  0
   20.0317  -17.9170  -17.2863 O   0  0  0  0  0  0  0  0  0  0  0  0
   20.8503  -18.5807  -16.3672 C   0  0  0  0  0  0  0  0  0  0  0  0
   21.7649  -17.8276  -15.6515 C   0  0  0  0  0  0  0  0  0  0  0  0
   22.5974  -18.4312  -14.7339 C   0  0  0  0  0  0  0  0  0  0  0  0
   22.5570  -19.8098  -14.4872 C   0  0  0  0  0  0  0  0  0  0  0  0
   23.4859  -20.3352  -13.4861 C   0  0  0  0  0  0  0  0  0  0  0  0
   22.9731  -20.3490  -12.0842 C   0  0  2  0  0  0  0  0  0  0  0  0
   24.0230  -21.0762  -11.3097 N   0  0  0  0  0  0  0  0  0  0  0  0
   21.7188  -21.0824  -11.8808 C   0  0  0  0  0  0  0  0  0  0  0  0
   21.6181  -22.3122  -11.9279 O   0  0  0  0  0  0  0  0  0  0  0  0
   21.6440  -20.5276  -15.2082 C   0  0  0  0  0  0  0  0  0  0  0  0
   20.7975  -19.9315  -16.1376 C   0  0  0  0  0  0  0  0  0  0  0  0
   20.5433  -20.3522  -11.6157 O   0  0  0  0  0  0  0  0  0  0  0  0
  2  1  1  1
  2  3  1  0
  4  3  1  0
  5  4  1  0
  6  5  1  0
  7  6  1  0
  8  9  2  0
  8  2  1  0
 10  8  1  0
 11 10  1  0
 11 12  1  1
 13 12  1  0
 14 13  2  0
 15 14  1  0
 16 15  1  0
 16 21  2  0
 17 16  1  0
 18 17  2  0
 18 19  1  0
 19 20  2  0
 20 21  1  0
 21 13  1  0
 22 23  2  0
 22 11  1  0
 25 24  1  0
 26 25  2  0
 27 26  1  0
 28 34  1  0
 28 27  2  0
 29 28  1  0
 30 29  1  6
 30 31  1  0
 31 22  1  0
 32 30  1  0
 33 32  2  0
 34 35  2  0
 35 25  1  0
 36 32  1  0
M  END
$$$$
