KWY.pdb
     RDKit          3D

 36 38  0  0  1  0  0  0  0  0999 V2000
   28.9122  -21.4258  -13.8119 N   0  0  0  0  0  0  0  0  0  0  0  0
   27.6355  -20.7606  -13.8327 C   0  0  1  0  0  0  0  0  0  0  0  0
   26.9197  -21.0063  -15.1218 C   0  0  0  0  0  0  0  0  0  0  0  0
   27.6405  -20.5366  -16.3334 C   0  0  0  0  0  0  0  0  0  0  0  0
   28.4223  -19.2767  -16.2004 C   0  0  0  0  0  0  0  0  0  0  0  0
   28.9629  -18.9344  -17.6023 C   0  0  0  0  0  0  0  0  0  0  0  0
   29.8824  -17.8268  -17.5027 N   0  0  0  0  0  0  0  0  0  0  0  0
   26.8237  -21.1084  -12.6395 C   0  0  0  0  0  0  0  0  0  0  0  0
   26.1024  -22.1288  -12.7224 O   0  0  0  0  0  0  0  0  0  0  0  0
   26.8637  -20.3270  -11.4659 N   0  0  0  0  0  0  0  0  0  0  0  0
   25.9419  -20.6989  -10.3079 C   0  0  1  0  0  0  0  0  0  0  0  0
   26.5268  -20.0726   -9.1216 C   0  0  0  0  0  0  0  0  0  0  0  0
   27.8385  -20.4679   -8.6388 C   0  0  0  0  0  0  0  0  0  0  0  0
   28.8227  -21.2392   -9.1894 C   0  0  0  0  0  0  0  0  0  0  0  0
   29.8588  -21.2794   -8.3480 N   0  0  0  0  0  0  0  0  0  0  0  0
   29.6045  -20.5496   -7.2315 C   0  0  0  0  0  0  0  0  0  0  0  0
   30.3567  -20.2850   -6.1099 C   0  0  0  0  0  0  0  0  0  0  0  0
   29.8522  -19.4873   -5.1216 C   0  0  0  0  0  0  0  0  0  0  0  0
   28.5905  -18.9561   -5.2612 C   0  0  0  0  0  0  0  0  0  0  0  0
   27.8512  -19.2301   -6.3851 C   0  0  0  0  0  0  0  0  0  0  0  0
   28.3431  -20.0331   -7.3951 C   0  0  0  0  0  0  0  0  0  0  0  0
   24.6182  -20.3823  -10.7905 C   0  0  0  0  0  0  0  0  0  0  0  0
   24.5074  -19.4354  -11.7056 O   0  0  0  0  0  0  0  0  0  0  0  0
   17.9463  -19.8548  -15.9850 O   0  0  0  0  0  0  0  0  0  0  0  0
   19.0195  -20.1636  -15.1434 C   0  0  0  0  0  0  0  0  0  0  0  0
   19.8590  -19.1327  -14.7584 C   0  0  0  0  0  0  0  0  0  0  0  0
   20.9328  -19.3815  -13.9312 C   0  0  0  0  0  0  0  0  0  0  0  0
   21.2191  -20.6658  -13.4500 C   0  0  0  0  0  0  0  0  0  0  0  0
   22.3829  -20.8054  -12.5742 C   0  0  0  0  0  0  0  0  0  0  0  0
   22.1359  -20.5098  -11.1320 C   0  0  2  0  0  0  0  0  0  0  0  0
   23.3931  -20.9306  -10.4439 N   0  0  0  0  0  0  0  0  0  0  0  0
   21.0445  -21.2699  -10.5124 C   0  0  0  0  0  0  0  0  0  0  0  0
   21.1848  -22.3716   -9.9726 O   0  0  0  0  0  0  0  0  0  0  0  0
   20.3729  -21.6636  -13.8465 C   0  0  0  0  0  0  0  0  0  0  0  0
   19.2852  -21.4268  -14.6811 C   0  0  0  0  0  0  0  0  0  0  0  0
   19.7459  -20.7234  -10.5271 O   0  0  0  0  0  0  0  0  0  0  0  0
  2  1  1  6
  2  3  1  0
  4  3  1  0
  5  4  1  0
  6  5  1  0
  7  6  1  0
  8  9  2  0
  8  2  1  0
 10  8  1  0
 11 10  1  0
 11 12  1  1
 13 12  1  0
 14 13  2  0
 15 14  1  0
 16 15  1  0
 16 21  2  0
 17 16  1  0
 18 17  2  0
 18 19  1  0
 19 20  2  0
 20 21  1  0
 21 13  1  0
 22 23  2  0
 22 11  1  0
 25 24  1  0
 26 25  2  0
 27 26  1  0
 28 34  1  0
 28 27  2  0
 29 28  1  0
 30 29  1  6
 30 31  1  0
 31 22  1  0
 32 30  1  0
 33 32  2  0
 34 35  2  0
 35 25  1  0
 36 32  1  0
M  END
$$$$
