KWY.pdb
     RDKit          3D

 36 38  0  0  1  0  0  0  0  0999 V2000
   27.7064  -22.5149  -15.2018 N   0  0  0  0  0  0  0  0  0  0  0  0
   27.4656  -21.2815  -14.4992 C   0  0  1  0  0  0  0  0  0  0  0  0
   26.7330  -20.3037  -15.3605 C   0  0  0  0  0  0  0  0  0  0  0  0
   27.4951  -19.8213  -16.5414 C   0  0  0  0  0  0  0  0  0  0  0  0
   28.6292  -18.8950  -16.2731 C   0  0  0  0  0  0  0  0  0  0  0  0
   29.2022  -18.4794  -17.6418 C   0  0  0  0  0  0  0  0  0  0  0  0
   30.3511  -17.6297  -17.4411 N   0  0  0  0  0  0  0  0  0  0  0  0
   26.7999  -21.5222  -13.1943 C   0  0  0  0  0  0  0  0  0  0  0  0
   25.7950  -22.2694  -13.1998 O   0  0  0  0  0  0  0  0  0  0  0  0
   27.2778  -20.9378  -12.0028 N   0  0  0  0  0  0  0  0  0  0  0  0
   26.4649  -21.1161  -10.7235 C   0  0  1  0  0  0  0  0  0  0  0  0
   27.3409  -20.6797   -9.6356 C   0  0  0  0  0  0  0  0  0  0  0  0
   26.8084  -20.4088   -8.3116 C   0  0  0  0  0  0  0  0  0  0  0  0
   25.5410  -20.4675   -7.8046 C   0  0  0  0  0  0  0  0  0  0  0  0
   25.5805  -20.1448   -6.5095 N   0  0  0  0  0  0  0  0  0  0  0  0
   26.8508  -19.8670   -6.1182 C   0  0  0  0  0  0  0  0  0  0  0  0
   27.3845  -19.5061   -4.9022 C   0  0  0  0  0  0  0  0  0  0  0  0
   28.7299  -19.2983   -4.7814 C   0  0  0  0  0  0  0  0  0  0  0  0
   29.5384  -19.4530   -5.8840 C   0  0  0  0  0  0  0  0  0  0  0  0
   28.9914  -19.8118   -7.0910 C   0  0  0  0  0  0  0  0  0  0  0  0
   27.6349  -20.0270   -7.2338 C   0  0  0  0  0  0  0  0  0  0  0  0
   25.1998  -20.4833  -11.0143 C   0  0  0  0  0  0  0  0  0  0  0  0
   25.2202  -19.3555  -11.7026 O   0  0  0  0  0  0  0  0  0  0  0  0
   20.8620  -24.5751  -15.2507 O   0  0  0  0  0  0  0  0  0  0  0  0
   21.3972  -23.4754  -14.5728 C   0  0  0  0  0  0  0  0  0  0  0  0
   20.5760  -22.3812  -14.3621 C   0  0  0  0  0  0  0  0  0  0  0  0
   21.0529  -21.2701  -13.7009 C   0  0  0  0  0  0  0  0  0  0  0  0
   22.3669  -21.1978  -13.2199 C   0  0  0  0  0  0  0  0  0  0  0  0
   22.7570  -19.9685  -12.5289 C   0  0  0  0  0  0  0  0  0  0  0  0
   22.7308  -20.0382  -11.0380 C   0  0  2  0  0  0  0  0  0  0  0  0
   23.9132  -20.8787  -10.6825 N   0  0  0  0  0  0  0  0  0  0  0  0
   21.5564  -20.7013  -10.4601 C   0  0  0  0  0  0  0  0  0  0  0  0
   21.5886  -21.7939   -9.8856 O   0  0  0  0  0  0  0  0  0  0  0  0
   23.1543  -22.2930  -13.4422 C   0  0  0  0  0  0  0  0  0  0  0  0
   22.6861  -23.4213  -14.1082 C   0  0  0  0  0  0  0  0  0  0  0  0
   20.3029  -20.0657  -10.5601 O   0  0  0  0  0  0  0  0  0  0  0  0
  2  1  1  6
  2  3  1  0
  4  3  1  0
  5  4  1  0
  6  5  1  0
  7  6  1  0
  8  9  2  0
  8  2  1  0
 10  8  1  0
 11 10  1  0
 11 12  1  1
 13 12  1  0
 14 13  2  0
 15 14  1  0
 16 15  1  0
 16 21  2  0
 17 16  1  0
 18 17  2  0
 18 19  1  0
 19 20  2  0
 20 21  1  0
 21 13  1  0
 22 23  2  0
 22 11  1  0
 25 24  1  0
 26 25  2  0
 27 26  1  0
 28 34  1  0
 28 27  2  0
 29 28  1  0
 30 29  1  6
 30 31  1  0
 31 22  1  0
 32 30  1  0
 33 32  2  0
 34 35  2  0
 35 25  1  0
 36 32  1  0
M  END
$$$$
