KWY.pdb
     RDKit          3D

 36 38  0  0  1  0  0  0  0  0999 V2000
   28.6617  -21.6638  -19.7454 N   0  0  0  0  0  0  0  0  0  0  0  0
   28.2982  -22.4957  -18.6280 C   0  0  1  0  0  0  0  0  0  0  0  0
   29.4010  -23.4425  -18.2785 C   0  0  0  0  0  0  0  0  0  0  0  0
   29.5385  -24.6036  -19.1956 C   0  0  0  0  0  0  0  0  0  0  0  0
   28.4976  -25.6631  -19.0942 C   0  0  0  0  0  0  0  0  0  0  0  0
   28.8341  -26.7256  -20.1585 C   0  0  0  0  0  0  0  0  0  0  0  0
   27.8703  -27.7970  -20.0858 N   0  0  0  0  0  0  0  0  0  0  0  0
   27.8400  -21.6827  -17.4736 C   0  0  0  0  0  0  0  0  0  0  0  0
   28.7105  -21.3376  -16.6421 O   0  0  0  0  0  0  0  0  0  0  0  0
   26.4870  -21.3143  -17.3205 N   0  0  0  0  0  0  0  0  0  0  0  0
   26.1169  -20.3340  -16.2111 C   0  0  1  0  0  0  0  0  0  0  0  0
   25.2407  -19.3429  -16.8367 C   0  0  0  0  0  0  0  0  0  0  0  0
   24.9442  -18.0847  -16.1741 C   0  0  0  0  0  0  0  0  0  0  0  0
   23.7783  -17.5505  -15.7027 C   0  0  0  0  0  0  0  0  0  0  0  0
   24.0420  -16.3651  -15.1476 N   0  0  0  0  0  0  0  0  0  0  0  0
   25.3664  -16.0765  -15.2281 C   0  0  0  0  0  0  0  0  0  0  0  0
   26.1050  -14.9993  -14.7946 C   0  0  0  0  0  0  0  0  0  0  0  0
   27.4564  -14.9721  -14.9960 C   0  0  0  0  0  0  0  0  0  0  0  0
   28.0649  -16.0283  -15.6344 C   0  0  0  0  0  0  0  0  0  0  0  0
   27.3149  -17.0954  -16.0628 C   0  0  0  0  0  0  0  0  0  0  0  0
   25.9486  -17.1424  -15.8682 C   0  0  0  0  0  0  0  0  0  0  0  0
   25.6934  -21.1768  -15.1176 C   0  0  0  0  0  0  0  0  0  0  0  0
   25.1067  -22.3226  -15.4158 O   0  0  0  0  0  0  0  0  0  0  0  0
   25.8493  -18.5206   -7.3441 O   0  0  0  0  0  0  0  0  0  0  0  0
   25.9215  -19.4480   -8.3881 C   0  0  0  0  0  0  0  0  0  0  0  0
   26.6981  -19.1273   -9.4879 C   0  0  0  0  0  0  0  0  0  0  0  0
   26.8031  -20.0044  -10.5457 C   0  0  0  0  0  0  0  0  0  0  0  0
   26.1408  -21.2390  -10.5566 C   0  0  0  0  0  0  0  0  0  0  0  0
   26.3328  -22.0881  -11.7327 C   0  0  0  0  0  0  0  0  0  0  0  0
   25.2728  -21.9800  -12.7782 C   0  0  2  0  0  0  0  0  0  0  0  0
   25.8075  -20.9797  -13.7501 N   0  0  0  0  0  0  0  0  0  0  0  0
   23.9811  -21.4629  -12.3127 C   0  0  0  0  0  0  0  0  0  0  0  0
   23.6363  -20.2800  -12.3951 O   0  0  0  0  0  0  0  0  0  0  0  0
   25.3815  -21.5287   -9.4573 C   0  0  0  0  0  0  0  0  0  0  0  0
   25.2667  -20.6528   -8.3825 C   0  0  0  0  0  0  0  0  0  0  0  0
   23.0637  -22.3593  -11.7297 O   0  0  0  0  0  0  0  0  0  0  0  0
  2  1  1  6
  2  3  1  0
  4  3  1  0
  5  4  1  0
  6  5  1  0
  7  6  1  0
  8  9  2  0
  8  2  1  0
 10  8  1  0
 11 10  1  0
 11 12  1  6
 13 12  1  0
 14 13  2  0
 15 14  1  0
 16 15  1  0
 16 21  2  0
 17 16  1  0
 18 17  2  0
 18 19  1  0
 19 20  2  0
 20 21  1  0
 21 13  1  0
 22 23  2  0
 22 11  1  0
 25 24  1  0
 26 25  2  0
 27 26  1  0
 28 34  1  0
 28 27  2  0
 29 28  1  0
 30 29  1  1
 30 31  1  0
 31 22  1  0
 32 30  1  0
 33 32  2  0
 34 35  2  0
 35 25  1  0
 36 32  1  0
M  END
$$$$
