KWY.pdb
     RDKit          3D

 36 38  0  0  1  0  0  0  0  0999 V2000
   26.9138  -16.5631  -18.7641 N   0  0  0  0  0  0  0  0  0  0  0  0
   26.4017  -17.8423  -18.3465 C   0  0  1  0  0  0  0  0  0  0  0  0
   27.4180  -18.5974  -17.5518 C   0  0  0  0  0  0  0  0  0  0  0  0
   28.4810  -19.2495  -18.3599 C   0  0  0  0  0  0  0  0  0  0  0  0
   28.0333  -20.2223  -19.3940 C   0  0  0  0  0  0  0  0  0  0  0  0
   29.3021  -20.7567  -20.0861 C   0  0  0  0  0  0  0  0  0  0  0  0
   28.9344  -21.7803  -21.0343 N   0  0  0  0  0  0  0  0  0  0  0  0
   25.1003  -17.7026  -17.6462 C   0  0  0  0  0  0  0  0  0  0  0  0
   24.9945  -16.7594  -16.8291 O   0  0  0  0  0  0  0  0  0  0  0  0
   24.0314  -18.5899  -17.8904 N   0  0  0  0  0  0  0  0  0  0  0  0
   22.7449  -18.4242  -17.0863 C   0  0  1  0  0  0  0  0  0  0  0  0
   21.6987  -18.1418  -18.0698 C   0  0  0  0  0  0  0  0  0  0  0  0
   20.3214  -17.9369  -17.6565 C   0  0  0  0  0  0  0  0  0  0  0  0
   19.7360  -16.9985  -16.8543 C   0  0  0  0  0  0  0  0  0  0  0  0
   18.4220  -17.2312  -16.8085 N   0  0  0  0  0  0  0  0  0  0  0  0
   18.0947  -18.3105  -17.5648 C   0  0  0  0  0  0  0  0  0  0  0  0
   16.8897  -18.9178  -17.8350 C   0  0  0  0  0  0  0  0  0  0  0  0
   16.8429  -20.0048  -18.6620 C   0  0  0  0  0  0  0  0  0  0  0  0
   18.0084  -20.4815  -19.2167 C   0  0  0  0  0  0  0  0  0  0  0  0
   19.2033  -19.8662  -18.9367 C   0  0  0  0  0  0  0  0  0  0  0  0
   19.2719  -18.7665  -18.1044 C   0  0  0  0  0  0  0  0  0  0  0  0
   22.7157  -19.5786  -16.2190 C   0  0  0  0  0  0  0  0  0  0  0  0
   23.0426  -20.7479  -16.7404 O   0  0  0  0  0  0  0  0  0  0  0  0
   28.8231  -20.5162  -15.4355 O   0  0  0  0  0  0  0  0  0  0  0  0
   27.5336  -20.6578  -14.9136 C   0  0  0  0  0  0  0  0  0  0  0  0
   27.0033  -19.5978  -14.1987 C   0  0  0  0  0  0  0  0  0  0  0  0
   25.7374  -19.6847  -13.6610 C   0  0  0  0  0  0  0  0  0  0  0  0
   24.9427  -20.8289  -13.8106 C   0  0  0  0  0  0  0  0  0  0  0  0
   23.6134  -20.8017  -13.1998 C   0  0  0  0  0  0  0  0  0  0  0  0
   22.4720  -20.9717  -14.1467 C   0  0  2  0  0  0  0  0  0  0  0  0
   22.3930  -19.6694  -14.8740 N   0  0  0  0  0  0  0  0  0  0  0  0
   21.1619  -21.1823  -13.5208 C   0  0  0  0  0  0  0  0  0  0  0  0
   20.2971  -20.3079  -13.4093 O   0  0  0  0  0  0  0  0  0  0  0  0
   25.4923  -21.8592  -14.5214 C   0  0  0  0  0  0  0  0  0  0  0  0
   26.7689  -21.7852  -15.0696 C   0  0  0  0  0  0  0  0  0  0  0  0
   20.8548  -22.4576  -13.0066 O   0  0  0  0  0  0  0  0  0  0  0  0
  2  1  1  1
  2  3  1  0
  4  3  1  0
  5  4  1  0
  6  5  1  0
  7  6  1  0
  8  9  2  0
  8  2  1  0
 10  8  1  0
 11 10  1  0
 11 12  1  6
 13 12  1  0
 14 13  2  0
 15 14  1  0
 16 15  1  0
 16 21  2  0
 17 16  1  0
 18 17  2  0
 18 19  1  0
 19 20  2  0
 20 21  1  0
 21 13  1  0
 22 23  2  0
 22 11  1  0
 25 24  1  0
 26 25  2  0
 27 26  1  0
 28 34  1  0
 28 27  2  0
 29 28  1  0
 30 29  1  1
 30 31  1  0
 31 22  1  0
 32 30  1  0
 33 32  2  0
 34 35  2  0
 35 25  1  0
 36 32  1  0
M  END
$$$$
