CWY.pdb
     RDKit          3D

 33 35  0  0  1  0  0  0  0  0999 V2000
    7.8795  -12.8402   17.9953 N   0  0  0  0  0  0  0  0  0  0  0  0
    8.2186  -14.2229   18.3160 C   0  0  1  0  0  0  0  0  0  0  0  0
    9.4376  -14.5581   17.4899 C   0  0  0  0  0  0  0  0  0  0  0  0
    9.9127  -16.2757   17.7782 S   0  0  0  0  0  0  0  0  0  0  0  0
    8.4682  -14.2853   19.7783 C   0  0  0  0  0  0  0  0  0  0  0  0
    9.3494  -13.5234   20.3117 O   0  0  0  0  0  0  0  0  0  0  0  0
    7.8000  -15.1387   20.6776 N   0  0  0  0  0  0  0  0  0  0  0  0
    8.0644  -15.1967   22.1022 C   0  0  1  0  0  0  0  0  0  0  0  0
    6.8758  -15.7334   22.8543 C   0  0  0  0  0  0  0  0  0  0  0  0
    6.8102  -15.3712   24.2724 C   0  0  0  0  0  0  0  0  0  0  0  0
    6.5545  -16.2817   25.3112 C   0  0  0  0  0  0  0  0  0  0  0  0
    6.5754  -15.6516   26.4895 N   0  0  0  0  0  0  0  0  0  0  0  0
    6.8367  -14.3436   26.2841 C   0  0  0  0  0  0  0  0  0  0  0  0
    6.9533  -13.3075   27.1733 C   0  0  0  0  0  0  0  0  0  0  0  0
    7.2259  -12.0263   26.7126 C   0  0  0  0  0  0  0  0  0  0  0  0
    7.3659  -11.8684   25.3580 C   0  0  0  0  0  0  0  0  0  0  0  0
    7.2507  -12.9065   24.4468 C   0  0  0  0  0  0  0  0  0  0  0  0
    6.9807  -14.1806   24.9018 C   0  0  0  0  0  0  0  0  0  0  0  0
    9.3650  -15.7592   22.4602 C   0  0  0  0  0  0  0  0  0  0  0  0
   10.4366  -15.4763   21.8172 O   0  0  0  0  0  0  0  0  0  0  0  0
   10.1016  -15.4888   30.2389 O   0  0  0  0  0  0  0  0  0  0  0  0
   10.3747  -15.5012   28.8808 C   0  0  0  0  0  0  0  0  0  0  0  0
   10.5375  -14.3006   28.2547 C   0  0  0  0  0  0  0  0  0  0  0  0
   10.8080  -14.2970   26.9128 C   0  0  0  0  0  0  0  0  0  0  0  0
   10.9076  -15.5071   26.2340 C   0  0  0  0  0  0  0  0  0  0  0  0
   11.1832  -15.4790   24.7919 C   0  0  0  0  0  0  0  0  0  0  0  0
   10.8779  -16.8483   24.1529 C   0  0  2  0  0  0  0  0  0  0  0  0
    9.5401  -16.6630   23.5618 N   0  0  0  0  0  0  0  0  0  0  0  0
   10.7993  -17.8459   25.2335 C   0  0  0  0  0  0  0  0  0  0  0  0
    9.7196  -18.3628   25.6234 O   0  0  0  0  0  0  0  0  0  0  0  0
   10.7438  -16.7130   26.8635 C   0  0  0  0  0  0  0  0  0  0  0  0
   10.4692  -16.7101   28.2280 C   0  0  0  0  0  0  0  0  0  0  0  0
   11.9457  -18.2761   25.8911 O   0  0  0  0  0  0  0  0  0  0  0  0
  2  1  1  6
  3  2  1  0
  4  3  1  0
  5  2  1  0
  5  6  2  0
  7  5  1  0
  8  7  1  0
  8  9  1  1
 10  9  1  0
 10 18  1  0
 11 12  1  0
 11 10  2  0
 12 13  1  0
 13 14  2  0
 13 18  1  0
 14 15  1  0
 15 16  2  0
 17 16  1  0
 18 17  2  0
 19  8  1  0
 20 19  2  0
 22 23  2  0
 22 21  1  0
 24 23  1  0
 25 24  2  0
 27 26  1  1
 26 25  1  0
 27 28  1  0
 28 19  1  0
 29 27  1  0
 29 33  1  0
 30 29  2  0
 31 25  1  0
 31 32  2  0
 32 22  1  0
M  END
$$$$
