CWY.pdb
     RDKit          3D

 33 35  0  0  1  0  0  0  0  0999 V2000
   10.8522  -17.6286   18.0287 N   0  0  0  0  0  0  0  0  0  0  0  0
   10.0443  -18.2072   19.0975 C   0  0  1  0  0  0  0  0  0  0  0  0
   10.7305  -19.4933   19.4924 C   0  0  0  0  0  0  0  0  0  0  0  0
   10.6742  -20.6591   18.1152 S   0  0  0  0  0  0  0  0  0  0  0  0
    9.9927  -17.2107   20.1969 C   0  0  0  0  0  0  0  0  0  0  0  0
   11.0716  -16.6607   20.6152 O   0  0  0  0  0  0  0  0  0  0  0  0
    8.8200  -16.7913   20.8544 N   0  0  0  0  0  0  0  0  0  0  0  0
    8.7917  -15.8551   21.9615 C   0  0  1  0  0  0  0  0  0  0  0  0
    7.5411  -15.0174   21.9331 C   0  0  0  0  0  0  0  0  0  0  0  0
    7.4989  -13.9135   22.8955 C   0  0  0  0  0  0  0  0  0  0  0  0
    8.0258  -12.6335   22.6560 C   0  0  0  0  0  0  0  0  0  0  0  0
    7.8182  -11.8459   23.7154 N   0  0  0  0  0  0  0  0  0  0  0  0
    7.1680  -12.5496   24.6658 C   0  0  0  0  0  0  0  0  0  0  0  0
    6.7437  -12.1798   25.9152 C   0  0  0  0  0  0  0  0  0  0  0  0
    6.0899  -13.0988   26.7252 C   0  0  0  0  0  0  0  0  0  0  0  0
    5.9022  -14.3568   26.2138 C   0  0  0  0  0  0  0  0  0  0  0  0
    6.3256  -14.7452   24.9525 C   0  0  0  0  0  0  0  0  0  0  0  0
    6.9748  -13.8341   24.1453 C   0  0  0  0  0  0  0  0  0  0  0  0
    9.1587  -16.4270   23.2554 C   0  0  0  0  0  0  0  0  0  0  0  0
    8.7379  -17.5730   23.6444 O   0  0  0  0  0  0  0  0  0  0  0  0
   12.1358  -16.8165   31.4723 O   0  0  0  0  0  0  0  0  0  0  0  0
   11.8499  -16.4174   30.1768 C   0  0  0  0  0  0  0  0  0  0  0  0
   12.5608  -16.9908   29.1640 C   0  0  0  0  0  0  0  0  0  0  0  0
   12.2891  -16.6064   27.8785 C   0  0  0  0  0  0  0  0  0  0  0  0
   11.3052  -15.6510   27.6458 C   0  0  0  0  0  0  0  0  0  0  0  0
   11.0412  -15.2426   26.2603 C   0  0  0  0  0  0  0  0  0  0  0  0
   10.3142  -16.3639   25.4918 C   0  0  2  0  0  0  0  0  0  0  0  0
   10.0226  -15.7522   24.1824 N   0  0  0  0  0  0  0  0  0  0  0  0
    9.0488  -16.6461   26.1904 C   0  0  0  0  0  0  0  0  0  0  0  0
    7.9930  -15.9851   26.0078 O   0  0  0  0  0  0  0  0  0  0  0  0
   10.5914  -15.0751   28.6638 C   0  0  0  0  0  0  0  0  0  0  0  0
   10.8720  -15.4702   29.9686 C   0  0  0  0  0  0  0  0  0  0  0  0
    8.9583  -17.6852   27.1091 O   0  0  0  0  0  0  0  0  0  0  0  0
  2  1  1  6
  3  2  1  0
  4  3  1  0
  5  2  1  0
  5  6  2  0
  7  5  1  0
  8  7  1  0
  8  9  1  1
 10  9  1  0
 10 18  1  0
 11 12  1  0
 11 10  2  0
 12 13  1  0
 13 14  2  0
 13 18  1  0
 14 15  1  0
 15 16  2  0
 17 16  1  0
 18 17  2  0
 19  8  1  0
 20 19  2  0
 22 23  2  0
 22 21  1  0
 24 23  1  0
 25 24  2  0
 27 26  1  1
 26 25  1  0
 27 28  1  0
 28 19  1  0
 29 27  1  0
 29 33  1  0
 30 29  2  0
 31 25  1  0
 31 32  2  0
 32 22  1  0
M  END
$$$$
