CWY.pdb
     RDKit          3D

 33 35  0  0  1  0  0  0  0  0999 V2000
   11.2639  -16.4731   19.0825 N   0  0  0  0  0  0  0  0  0  0  0  0
   10.6530  -17.4171   20.0128 C   0  0  1  0  0  0  0  0  0  0  0  0
   11.6507  -18.5371   20.1891 C   0  0  0  0  0  0  0  0  0  0  0  0
   11.0115  -19.7382   21.3756 S   0  0  0  0  0  0  0  0  0  0  0  0
   10.3765  -16.6773   21.2700 C   0  0  0  0  0  0  0  0  0  0  0  0
   11.2826  -15.9360   21.7905 O   0  0  0  0  0  0  0  0  0  0  0  0
    9.1598  -16.7119   21.9783 N   0  0  0  0  0  0  0  0  0  0  0  0
    8.9288  -16.0415   23.2433 C   0  0  1  0  0  0  0  0  0  0  0  0
    7.4888  -15.6248   23.3827 C   0  0  0  0  0  0  0  0  0  0  0  0
    7.1547  -14.9127   24.6187 C   0  0  0  0  0  0  0  0  0  0  0  0
    6.6430  -15.5276   25.7733 C   0  0  0  0  0  0  0  0  0  0  0  0
    6.4569  -14.6176   26.7342 N   0  0  0  0  0  0  0  0  0  0  0  0
    6.8254  -13.4055   26.2691 C   0  0  0  0  0  0  0  0  0  0  0  0
    6.8140  -12.1768   26.8756 C   0  0  0  0  0  0  0  0  0  0  0  0
    7.2442  -11.0558   26.1783 C   0  0  0  0  0  0  0  0  0  0  0  0
    7.6664  -11.2490   24.8883 C   0  0  0  0  0  0  0  0  0  0  0  0
    7.6836  -12.4852   24.2618 C   0  0  0  0  0  0  0  0  0  0  0  0
    7.2575  -13.6009   24.9525 C   0  0  0  0  0  0  0  0  0  0  0  0
    9.5274  -16.7000   24.4025 C   0  0  0  0  0  0  0  0  0  0  0  0
    9.5629  -17.9748   24.5264 O   0  0  0  0  0  0  0  0  0  0  0  0
   15.6791  -17.5601   22.6904 O   0  0  0  0  0  0  0  0  0  0  0  0
   14.8042  -17.1397   23.6788 C   0  0  0  0  0  0  0  0  0  0  0  0
   14.6615  -17.9318   24.7798 C   0  0  0  0  0  0  0  0  0  0  0  0
   13.8005  -17.5293   25.7649 C   0  0  0  0  0  0  0  0  0  0  0  0
   13.1028  -16.3352   25.6148 C   0  0  0  0  0  0  0  0  0  0  0  0
   12.1730  -15.9306   26.6769 C   0  0  0  0  0  0  0  0  0  0  0  0
   10.8392  -16.6933   26.5519 C   0  0  2  0  0  0  0  0  0  0  0  0
   10.1263  -15.9694   25.4836 N   0  0  0  0  0  0  0  0  0  0  0  0
   10.1062  -16.5364   27.8197 C   0  0  0  0  0  0  0  0  0  0  0  0
   10.3644  -17.2009   28.8573 O   0  0  0  0  0  0  0  0  0  0  0  0
   13.2463  -15.5398   24.5084 C   0  0  0  0  0  0  0  0  0  0  0  0
   14.1235  -15.9544   23.5103 C   0  0  0  0  0  0  0  0  0  0  0  0
    9.0664  -15.6210   27.9332 O   0  0  0  0  0  0  0  0  0  0  0  0
  2  1  1  6
  3  2  1  0
  4  3  1  0
  5  2  1  0
  5  6  2  0
  7  5  1  0
  8  7  1  0
  8  9  1  1
 10  9  1  0
 10 18  1  0
 11 12  1  0
 11 10  2  0
 12 13  1  0
 13 14  2  0
 13 18  1  0
 14 15  1  0
 15 16  2  0
 17 16  1  0
 18 17  2  0
 19  8  1  0
 20 19  2  0
 22 23  2  0
 22 21  1  0
 24 23  1  0
 25 24  2  0
 27 26  1  1
 26 25  1  0
 27 28  1  0
 28 19  1  0
 29 27  1  0
 29 33  1  0
 30 29  2  0
 31 25  1  0
 31 32  2  0
 32 22  1  0
M  END
$$$$
