CWY.pdb
     RDKit          3D

 33 35  0  0  1  0  0  0  0  0999 V2000
    7.3140  -13.3097   19.6117 N   0  0  0  0  0  0  0  0  0  0  0  0
    7.1954  -14.6611   20.1497 C   0  0  1  0  0  0  0  0  0  0  0  0
    7.4658  -15.5971   18.9957 C   0  0  0  0  0  0  0  0  0  0  0  0
    7.2237  -17.3046   19.5294 S   0  0  0  0  0  0  0  0  0  0  0  0
    8.1875  -14.7847   21.2475 C   0  0  0  0  0  0  0  0  0  0  0  0
    9.3181  -14.1884   21.1604 O   0  0  0  0  0  0  0  0  0  0  0  0
    7.9983  -15.5269   22.4293 N   0  0  0  0  0  0  0  0  0  0  0  0
    9.0350  -15.7837   23.4103 C   0  0  1  0  0  0  0  0  0  0  0  0
    8.4471  -15.9913   24.7807 C   0  0  0  0  0  0  0  0  0  0  0  0
    7.4777  -14.9806   25.2112 C   0  0  0  0  0  0  0  0  0  0  0  0
    6.0857  -15.1694   25.2151 C   0  0  0  0  0  0  0  0  0  0  0  0
    5.4750  -14.0739   25.6763 N   0  0  0  0  0  0  0  0  0  0  0  0
    6.4069  -13.1480   25.9852 C   0  0  0  0  0  0  0  0  0  0  0  0
    6.2717  -11.8787   26.4834 C   0  0  0  0  0  0  0  0  0  0  0  0
    7.3989  -11.1025   26.7180 C   0  0  0  0  0  0  0  0  0  0  0  0
    8.6145  -11.6668   26.4293 C   0  0  0  0  0  0  0  0  0  0  0  0
    8.7669  -12.9489   25.9252 C   0  0  0  0  0  0  0  0  0  0  0  0
    7.6488  -13.7226   25.6918 C   0  0  0  0  0  0  0  0  0  0  0  0
   10.0506  -16.7464   22.9889 C   0  0  0  0  0  0  0  0  0  0  0  0
    9.8138  -17.6604   22.1228 O   0  0  0  0  0  0  0  0  0  0  0  0
   16.1292  -14.6101   17.8711 O   0  0  0  0  0  0  0  0  0  0  0  0
   15.2119  -14.7745   18.8962 C   0  0  0  0  0  0  0  0  0  0  0  0
   14.0167  -15.3566   18.5918 C   0  0  0  0  0  0  0  0  0  0  0  0
   13.1003  -15.5258   19.5946 C   0  0  0  0  0  0  0  0  0  0  0  0
   13.4126  -15.1024   20.8824 C   0  0  0  0  0  0  0  0  0  0  0  0
   12.4086  -15.2798   21.9392 C   0  0  0  0  0  0  0  0  0  0  0  0
   12.5343  -16.6762   22.5800 C   0  0  2  0  0  0  0  0  0  0  0  0
   11.3894  -16.7351   23.5071 N   0  0  0  0  0  0  0  0  0  0  0  0
   13.7883  -16.7102   23.3516 C   0  0  0  0  0  0  0  0  0  0  0  0
   14.8725  -17.1577   22.8942 O   0  0  0  0  0  0  0  0  0  0  0  0
   14.6134  -14.5174   21.1876 C   0  0  0  0  0  0  0  0  0  0  0  0
   15.5412  -14.3484   20.1638 C   0  0  0  0  0  0  0  0  0  0  0  0
   13.8348  -16.2358   24.6572 O   0  0  0  0  0  0  0  0  0  0  0  0
  2  1  1  6
  3  2  1  0
  4  3  1  0
  5  2  1  0
  5  6  2  0
  7  5  1  0
  8  7  1  0
  8  9  1  1
 10  9  1  0
 10 18  1  0
 11 12  1  0
 11 10  2  0
 12 13  1  0
 13 14  2  0
 13 18  1  0
 14 15  1  0
 15 16  2  0
 17 16  1  0
 18 17  2  0
 19  8  1  0
 20 19  2  0
 22 23  2  0
 22 21  1  0
 24 23  1  0
 25 24  2  0
 27 26  1  1
 26 25  1  0
 27 28  1  0
 28 19  1  0
 29 27  1  0
 29 33  1  0
 30 29  2  0
 31 25  1  0
 31 32  2  0
 32 22  1  0
M  END
$$$$
