CWY.pdb
     RDKit          3D

 33 35  0  0  1  0  0  0  0  0999 V2000
    7.4757  -13.2566   18.5663 N   0  0  0  0  0  0  0  0  0  0  0  0
    7.8848  -14.6020   18.9564 C   0  0  1  0  0  0  0  0  0  0  0  0
    8.9958  -14.9930   18.0111 C   0  0  0  0  0  0  0  0  0  0  0  0
    9.4737  -16.7077   18.3122 S   0  0  0  0  0  0  0  0  0  0  0  0
    8.3202  -14.5342   20.3742 C   0  0  0  0  0  0  0  0  0  0  0  0
    9.1131  -13.6039   20.7578 O   0  0  0  0  0  0  0  0  0  0  0  0
    7.9285  -15.4335   21.3848 N   0  0  0  0  0  0  0  0  0  0  0  0
    8.4263  -15.4031   22.7465 C   0  0  1  0  0  0  0  0  0  0  0  0
    7.4752  -16.0921   23.6884 C   0  0  0  0  0  0  0  0  0  0  0  0
    6.7942  -15.2191   24.6481 C   0  0  0  0  0  0  0  0  0  0  0  0
    5.8241  -15.6555   25.5655 C   0  0  0  0  0  0  0  0  0  0  0  0
    5.4044  -14.6299   26.3125 N   0  0  0  0  0  0  0  0  0  0  0  0
    6.0580  -13.5122   25.9318 C   0  0  0  0  0  0  0  0  0  0  0  0
    5.9675  -12.2254   26.3941 C   0  0  0  0  0  0  0  0  0  0  0  0
    6.7530  -11.2294   25.8295 C   0  0  0  0  0  0  0  0  0  0  0  0
    7.5959  -11.6016   24.8143 C   0  0  0  0  0  0  0  0  0  0  0  0
    7.6981  -12.8986   24.3362 C   0  0  0  0  0  0  0  0  0  0  0  0
    6.9195  -13.8904   24.8959 C   0  0  0  0  0  0  0  0  0  0  0  0
    9.8399  -15.7456   22.8885 C   0  0  0  0  0  0  0  0  0  0  0  0
   10.7443  -15.2645   22.1188 O   0  0  0  0  0  0  0  0  0  0  0  0
   10.2130  -16.1044   30.3785 O   0  0  0  0  0  0  0  0  0  0  0  0
   10.6007  -15.8824   29.0672 C   0  0  0  0  0  0  0  0  0  0  0  0
   11.3698  -16.8327   28.4627 C   0  0  0  0  0  0  0  0  0  0  0  0
   11.7605  -16.6272   27.1670 C   0  0  0  0  0  0  0  0  0  0  0  0
   11.3653  -15.4656   26.5115 C   0  0  0  0  0  0  0  0  0  0  0  0
   11.8088  -15.2588   25.1271 C   0  0  0  0  0  0  0  0  0  0  0  0
   11.7315  -16.5753   24.3287 C   0  0  2  0  0  0  0  0  0  0  0  0
   10.3212  -16.6392   23.9038 N   0  0  0  0  0  0  0  0  0  0  0  0
   12.0120  -17.6851   25.2553 C   0  0  0  0  0  0  0  0  0  0  0  0
   11.1185  -18.4303   25.7362 O   0  0  0  0  0  0  0  0  0  0  0  0
   10.5928  -14.5111   27.1194 C   0  0  0  0  0  0  0  0  0  0  0  0
   10.1984  -14.7259   28.4369 C   0  0  0  0  0  0  0  0  0  0  0  0
   13.3130  -17.9702   25.6527 O   0  0  0  0  0  0  0  0  0  0  0  0
  2  1  1  6
  3  2  1  0
  4  3  1  0
  5  2  1  0
  5  6  2  0
  7  5  1  0
  8  7  1  0
  8  9  1  1
 10  9  1  0
 10 18  1  0
 11 12  1  0
 11 10  2  0
 12 13  1  0
 13 14  2  0
 13 18  1  0
 14 15  1  0
 15 16  2  0
 17 16  1  0
 18 17  2  0
 19  8  1  0
 20 19  2  0
 22 23  2  0
 22 21  1  0
 24 23  1  0
 25 24  2  0
 27 26  1  1
 26 25  1  0
 27 28  1  0
 28 19  1  0
 29 27  1  0
 29 33  1  0
 30 29  2  0
 31 25  1  0
 31 32  2  0
 32 22  1  0
M  END
$$$$
