CWY.pdb
     RDKit          3D

 33 35  0  0  1  0  0  0  0  0999 V2000
    7.5523  -17.9734   19.6335 N   0  0  0  0  0  0  0  0  0  0  0  0
    7.8056  -18.1522   21.0595 C   0  0  1  0  0  0  0  0  0  0  0  0
    8.1904  -19.6015   21.2385 C   0  0  0  0  0  0  0  0  0  0  0  0
    9.7590  -19.9206   20.4038 S   0  0  0  0  0  0  0  0  0  0  0  0
    8.8894  -17.2090   21.4341 C   0  0  0  0  0  0  0  0  0  0  0  0
    9.6414  -16.7038   20.5282 O   0  0  0  0  0  0  0  0  0  0  0  0
    9.1847  -16.7962   22.7478 N   0  0  0  0  0  0  0  0  0  0  0  0
   10.2565  -15.8846   23.0987 C   0  0  1  0  0  0  0  0  0  0  0  0
    9.7704  -14.8077   24.0317 C   0  0  0  0  0  0  0  0  0  0  0  0
    8.3965  -14.3510   23.8073 C   0  0  0  0  0  0  0  0  0  0  0  0
    7.3580  -14.4737   24.7453 C   0  0  0  0  0  0  0  0  0  0  0  0
    6.2309  -13.9504   24.2536 N   0  0  0  0  0  0  0  0  0  0  0  0
    6.4707  -13.4769   23.0128 C   0  0  0  0  0  0  0  0  0  0  0  0
    5.6361  -12.8625   22.1164 C   0  0  0  0  0  0  0  0  0  0  0  0
    6.1219  -12.4631   20.8784 C   0  0  0  0  0  0  0  0  0  0  0  0
    7.4443  -12.7141   20.6181 C   0  0  0  0  0  0  0  0  0  0  0  0
    8.3003  -13.3345   21.5145 C   0  0  0  0  0  0  0  0  0  0  0  0
    7.8205  -13.7317   22.7455 C   0  0  0  0  0  0  0  0  0  0  0  0
   11.5167  -16.5319   23.4575 C   0  0  0  0  0  0  0  0  0  0  0  0
   12.6485  -16.1250   23.0156 O   0  0  0  0  0  0  0  0  0  0  0  0
   10.7829  -15.3082   31.5951 O   0  0  0  0  0  0  0  0  0  0  0  0
   10.7242  -15.6555   30.2553 C   0  0  0  0  0  0  0  0  0  0  0  0
   11.0792  -14.7108   29.3380 C   0  0  0  0  0  0  0  0  0  0  0  0
   11.0264  -15.0395   28.0103 C   0  0  0  0  0  0  0  0  0  0  0  0
   10.6156  -16.3159   27.6395 C   0  0  0  0  0  0  0  0  0  0  0  0
   10.5517  -16.6417   26.2091 C   0  0  0  0  0  0  0  0  0  0  0  0
   11.7856  -17.4613   25.7823 C   0  0  2  0  0  0  0  0  0  0  0  0
   11.5815  -17.6651   24.3365 N   0  0  0  0  0  0  0  0  0  0  0  0
   11.7268  -18.7619   26.4708 C   0  0  0  0  0  0  0  0  0  0  0  0
   10.9019  -19.6661   26.1765 O   0  0  0  0  0  0  0  0  0  0  0  0
   10.2588  -17.2646   28.5615 C   0  0  0  0  0  0  0  0  0  0  0  0
   10.3149  -16.9244   29.9100 C   0  0  0  0  0  0  0  0  0  0  0  0
   12.6047  -19.0604   27.5062 O   0  0  0  0  0  0  0  0  0  0  0  0
  2  1  1  6
  3  2  1  0
  4  3  1  0
  5  2  1  0
  5  6  2  0
  7  5  1  0
  8  7  1  0
  8  9  1  1
 10  9  1  0
 10 18  1  0
 11 12  1  0
 11 10  2  0
 12 13  1  0
 13 14  2  0
 13 18  1  0
 14 15  1  0
 15 16  2  0
 17 16  1  0
 18 17  2  0
 19  8  1  0
 20 19  2  0
 22 23  2  0
 22 21  1  0
 24 23  1  0
 25 24  2  0
 27 26  1  1
 26 25  1  0
 27 28  1  0
 28 19  1  0
 29 27  1  0
 29 33  1  0
 30 29  2  0
 31 25  1  0
 31 32  2  0
 32 22  1  0
M  END
$$$$
