CWY.pdb
     RDKit          3D

 33 35  0  0  1  0  0  0  0  0999 V2000
    8.0126  -16.0816   19.5382 N   0  0  0  0  0  0  0  0  0  0  0  0
    7.4938  -16.3736   20.8706 C   0  0  1  0  0  0  0  0  0  0  0  0
    6.9022  -17.7611   20.7954 C   0  0  0  0  0  0  0  0  0  0  0  0
    6.3103  -18.2579   22.4269 S   0  0  0  0  0  0  0  0  0  0  0  0
    8.6339  -16.2747   21.8166 C   0  0  0  0  0  0  0  0  0  0  0  0
    9.8022  -16.6567   21.4551 O   0  0  0  0  0  0  0  0  0  0  0  0
    8.5531  -15.7789   23.1322 N   0  0  0  0  0  0  0  0  0  0  0  0
    9.6072  -15.9019   24.1204 C   0  0  1  0  0  0  0  0  0  0  0  0
    9.4667  -14.8598   25.1978 C   0  0  0  0  0  0  0  0  0  0  0  0
    8.0921  -14.5418   25.5928 C   0  0  0  0  0  0  0  0  0  0  0  0
    7.0809  -15.4986   25.7810 C   0  0  0  0  0  0  0  0  0  0  0  0
    5.9458  -14.8997   26.1536 N   0  0  0  0  0  0  0  0  0  0  0  0
    6.1537  -13.5682   26.2241 C   0  0  0  0  0  0  0  0  0  0  0  0
    5.2999  -12.5488   26.5551 C   0  0  0  0  0  0  0  0  0  0  0  0
    5.7530  -11.2363   26.5509 C   0  0  0  0  0  0  0  0  0  0  0  0
    7.0640  -11.0313   26.2061 C   0  0  0  0  0  0  0  0  0  0  0  0
    7.9391  -12.0519   25.8690 C   0  0  0  0  0  0  0  0  0  0  0  0
    7.4918  -13.3570   25.8731 C   0  0  0  0  0  0  0  0  0  0  0  0
    9.8668  -17.2678   24.5707 C   0  0  0  0  0  0  0  0  0  0  0  0
    8.9573  -18.1702   24.5882 O   0  0  0  0  0  0  0  0  0  0  0  0
   15.4456  -17.7123   21.0851 O   0  0  0  0  0  0  0  0  0  0  0  0
   14.4890  -18.2772   21.9128 C   0  0  0  0  0  0  0  0  0  0  0  0
   13.1815  -18.1648   21.5417 C   0  0  0  0  0  0  0  0  0  0  0  0
   12.2250  -18.7182   22.3496 C   0  0  0  0  0  0  0  0  0  0  0  0
   12.6117  -19.3726   23.5147 C   0  0  0  0  0  0  0  0  0  0  0  0
   11.5678  -19.9453   24.3741 C   0  0  0  0  0  0  0  0  0  0  0  0
   11.3204  -19.0466   25.6019 C   0  0  2  0  0  0  0  0  0  0  0  0
   11.1596  -17.7020   25.0191 N   0  0  0  0  0  0  0  0  0  0  0  0
   12.5337  -19.0742   26.4363 C   0  0  0  0  0  0  0  0  0  0  0  0
   12.9773  -20.1186   26.9816 O   0  0  0  0  0  0  0  0  0  0  0  0
   13.9255  -19.4850   23.8872 C   0  0  0  0  0  0  0  0  0  0  0  0
   14.8934  -18.9205   23.0615 C   0  0  0  0  0  0  0  0  0  0  0  0
   13.2667  -17.9159   26.6666 O   0  0  0  0  0  0  0  0  0  0  0  0
  2  1  1  6
  3  2  1  0
  4  3  1  0
  5  2  1  0
  5  6  2  0
  7  5  1  0
  8  7  1  0
  8  9  1  1
 10  9  1  0
 10 18  1  0
 11 12  1  0
 11 10  2  0
 12 13  1  0
 13 14  2  0
 13 18  1  0
 14 15  1  0
 15 16  2  0
 17 16  1  0
 18 17  2  0
 19  8  1  0
 20 19  2  0
 22 23  2  0
 22 21  1  0
 24 23  1  0
 25 24  2  0
 27 26  1  6
 26 25  1  0
 27 28  1  0
 28 19  1  0
 29 27  1  0
 29 33  1  0
 30 29  2  0
 31 25  1  0
 31 32  2  0
 32 22  1  0
M  END
$$$$
