CWY.pdb
     RDKit          3D

 33 35  0  0  1  0  0  0  0  0999 V2000
   11.5446  -16.4353   18.3092 N   0  0  0  0  0  0  0  0  0  0  0  0
   10.5277  -17.1644   19.0602 C   0  0  1  0  0  0  0  0  0  0  0  0
   11.1230  -18.5180   19.3670 C   0  0  0  0  0  0  0  0  0  0  0  0
   12.5471  -18.3214   20.4590 S   0  0  0  0  0  0  0  0  0  0  0  0
   10.2265  -16.3688   20.2771 C   0  0  0  0  0  0  0  0  0  0  0  0
   11.0474  -15.4690   20.6745 O   0  0  0  0  0  0  0  0  0  0  0  0
    9.0737  -16.5127   21.0732 N   0  0  0  0  0  0  0  0  0  0  0  0
    8.7542  -15.6733   22.2116 C   0  0  1  0  0  0  0  0  0  0  0  0
    7.3286  -15.8742   22.6520 C   0  0  0  0  0  0  0  0  0  0  0  0
    6.9389  -15.1633   23.8724 C   0  0  0  0  0  0  0  0  0  0  0  0
    6.5150  -15.7929   25.0544 C   0  0  0  0  0  0  0  0  0  0  0  0
    6.2467  -14.8782   25.9911 N   0  0  0  0  0  0  0  0  0  0  0  0
    6.4745  -13.6488   25.4831 C   0  0  0  0  0  0  0  0  0  0  0  0
    6.3399  -12.4098   26.0527 C   0  0  0  0  0  0  0  0  0  0  0  0
    6.6352  -11.2717   25.3142 C   0  0  0  0  0  0  0  0  0  0  0  0
    7.0556  -11.4591   24.0228 C   0  0  0  0  0  0  0  0  0  0  0  0
    7.1965  -12.7056   23.4332 C   0  0  0  0  0  0  0  0  0  0  0  0
    6.9044  -13.8381   24.1649 C   0  0  0  0  0  0  0  0  0  0  0  0
    9.7635  -15.6662   23.2685 C   0  0  0  0  0  0  0  0  0  0  0  0
   10.4152  -14.6107   23.5894 O   0  0  0  0  0  0  0  0  0  0  0  0
   11.1596  -15.7944   31.5584 O   0  0  0  0  0  0  0  0  0  0  0  0
   10.7858  -15.8799   30.2271 C   0  0  0  0  0  0  0  0  0  0  0  0
   10.1746  -14.7965   29.6681 C   0  0  0  0  0  0  0  0  0  0  0  0
    9.7996  -14.8663   28.3534 C   0  0  0  0  0  0  0  0  0  0  0  0
   10.0508  -16.0298   27.6334 C   0  0  0  0  0  0  0  0  0  0  0  0
    9.6262  -16.0880   26.2289 C   0  0  0  0  0  0  0  0  0  0  0  0
   10.7366  -16.6968   25.3498 C   0  0  2  0  0  0  0  0  0  0  0  0
   10.0942  -16.8373   24.0302 N   0  0  0  0  0  0  0  0  0  0  0  0
   11.0550  -18.0328   25.8814 C   0  0  0  0  0  0  0  0  0  0  0  0
   10.4392  -19.0782   25.5454 O   0  0  0  0  0  0  0  0  0  0  0  0
   10.6648  -17.1180   28.1956 C   0  0  0  0  0  0  0  0  0  0  0  0
   11.0439  -17.0409   29.5326 C   0  0  0  0  0  0  0  0  0  0  0  0
   12.0797  -18.2069   26.8042 O   0  0  0  0  0  0  0  0  0  0  0  0
  2  1  1  6
  3  2  1  0
  4  3  1  0
  5  2  1  0
  5  6  2  0
  7  5  1  0
  8  7  1  0
  8  9  1  1
 10  9  1  0
 10 18  1  0
 11 12  1  0
 11 10  2  0
 12 13  1  0
 13 14  2  0
 13 18  1  0
 14 15  1  0
 15 16  2  0
 17 16  1  0
 18 17  2  0
 19  8  1  0
 20 19  2  0
 22 23  2  0
 22 21  1  0
 24 23  1  0
 25 24  2  0
 27 26  1  1
 26 25  1  0
 27 28  1  0
 28 19  1  0
 29 27  1  0
 29 33  1  0
 30 29  2  0
 31 25  1  0
 31 32  2  0
 32 22  1  0
M  END
$$$$
