CWY.pdb
     RDKit          3D

 33 35  0  0  1  0  0  0  0  0999 V2000
    8.6136  -19.1786   19.0444 N   0  0  0  0  0  0  0  0  0  0  0  0
    9.7727  -18.3233   18.8104 C   0  0  1  0  0  0  0  0  0  0  0  0
    9.5625  -17.6943   17.4536 C   0  0  0  0  0  0  0  0  0  0  0  0
    7.8346  -17.2037   17.2730 S   0  0  0  0  0  0  0  0  0  0  0  0
    9.8159  -17.3313   19.9143 C   0  0  0  0  0  0  0  0  0  0  0  0
   10.7759  -16.4854   19.9792 O   0  0  0  0  0  0  0  0  0  0  0  0
    8.8607  -17.2242   20.9436 N   0  0  0  0  0  0  0  0  0  0  0  0
    8.9067  -16.2364   22.0044 C   0  0  1  0  0  0  0  0  0  0  0  0
    7.6304  -15.4399   22.0611 C   0  0  0  0  0  0  0  0  0  0  0  0
    7.6317  -14.3115   22.9956 C   0  0  0  0  0  0  0  0  0  0  0  0
    8.1606  -13.0431   22.7048 C   0  0  0  0  0  0  0  0  0  0  0  0
    7.9973  -12.2268   23.7503 N   0  0  0  0  0  0  0  0  0  0  0  0
    7.3752  -12.9000   24.7408 C   0  0  0  0  0  0  0  0  0  0  0  0
    6.9985  -12.4946   25.9944 C   0  0  0  0  0  0  0  0  0  0  0  0
    6.3660  -13.3864   26.8502 C   0  0  0  0  0  0  0  0  0  0  0  0
    6.1496  -14.6552   26.3783 C   0  0  0  0  0  0  0  0  0  0  0  0
    6.5249  -15.0796   25.1133 C   0  0  0  0  0  0  0  0  0  0  0  0
    7.1528  -14.1955   24.2605 C   0  0  0  0  0  0  0  0  0  0  0  0
    9.4172  -16.7331   23.2805 C   0  0  0  0  0  0  0  0  0  0  0  0
    8.6447  -17.0663   24.2469 O   0  0  0  0  0  0  0  0  0  0  0  0
   10.1915  -15.1397   30.8700 O   0  0  0  0  0  0  0  0  0  0  0  0
   10.4099  -15.2199   29.5043 C   0  0  0  0  0  0  0  0  0  0  0  0
    9.9551  -14.1957   28.7271 C   0  0  0  0  0  0  0  0  0  0  0  0
   10.1637  -14.2610   27.3758 C   0  0  0  0  0  0  0  0  0  0  0  0
   10.8272  -15.3603   26.8405 C   0  0  0  0  0  0  0  0  0  0  0  0
   11.0263  -15.4167   25.3867 C   0  0  0  0  0  0  0  0  0  0  0  0
   11.3132  -16.8617   24.9326 C   0  0  2  0  0  0  0  0  0  0  0  0
   10.8196  -16.8917   23.5437 N   0  0  0  0  0  0  0  0  0  0  0  0
   10.4975  -17.7675   25.7592 C   0  0  0  0  0  0  0  0  0  0  0  0
    9.2624  -17.9404   25.5874 O   0  0  0  0  0  0  0  0  0  0  0  0
   11.2837  -16.3891   27.6218 C   0  0  0  0  0  0  0  0  0  0  0  0
   11.0688  -16.3168   28.9951 C   0  0  0  0  0  0  0  0  0  0  0  0
   11.0696  -18.4950   26.7963 O   0  0  0  0  0  0  0  0  0  0  0  0
  2  1  1  1
  3  2  1  0
  4  3  1  0
  5  2  1  0
  5  6  2  0
  7  5  1  0
  8  7  1  0
  8  9  1  1
 10  9  1  0
 10 18  1  0
 11 12  1  0
 11 10  2  0
 12 13  1  0
 13 14  2  0
 13 18  1  0
 14 15  1  0
 15 16  2  0
 17 16  1  0
 18 17  2  0
 19  8  1  0
 20 19  2  0
 22 23  2  0
 22 21  1  0
 24 23  1  0
 25 24  2  0
 27 26  1  1
 26 25  1  0
 27 28  1  0
 28 19  1  0
 29 27  1  0
 29 33  1  0
 30 29  2  0
 31 25  1  0
 31 32  2  0
 32 22  1  0
M  END
$$$$
