KKG.pdb
     RDKit          3D

 23 22  0  0  1  0  0  0  0  0999 V2000
    8.2032  -16.9824   19.1171 N   0  0  0  0  0  0  0  0  0  0  0  0
    8.0435  -17.4707   20.4697 C   0  0  1  0  0  0  0  0  0  0  0  0
    8.9013  -18.6855   20.6753 C   0  0  0  0  0  0  0  0  0  0  0  0
    8.4386  -19.8504   19.8830 C   0  0  0  0  0  0  0  0  0  0  0  0
    8.4907  -21.1853   20.5490 C   0  0  0  0  0  0  0  0  0  0  0  0
    7.8971  -22.2368   19.5980 C   0  0  0  0  0  0  0  0  0  0  0  0
    7.9376  -23.5511   20.1970 N   0  0  0  0  0  0  0  0  0  0  0  0
    8.4363  -16.3766   21.4109 C   0  0  0  0  0  0  0  0  0  0  0  0
    9.5883  -15.8768   21.3665 O   0  0  0  0  0  0  0  0  0  0  0  0
    7.5399  -15.8575   22.3834 N   0  0  0  0  0  0  0  0  0  0  0  0
    7.9783  -14.9788   23.4622 C   0  0  1  0  0  0  0  0  0  0  0  0
    6.8559  -14.2384   24.0893 C   0  0  0  0  0  0  0  0  0  0  0  0
    7.3355  -13.2321   25.0726 C   0  0  0  0  0  0  0  0  0  0  0  0
    6.3164  -12.4122   25.7732 C   0  0  0  0  0  0  0  0  0  0  0  0
    6.8078  -11.3829   26.7230 C   0  0  0  0  0  0  0  0  0  0  0  0
    5.7679  -10.6613   27.3909 N   0  0  0  0  0  0  0  0  0  0  0  0
    8.8281  -15.6618   24.4195 C   0  0  0  0  0  0  0  0  0  0  0  0
    8.4838  -16.2594   25.4688 O   0  0  0  0  0  0  0  0  0  0  0  0
   10.2639  -15.6950   24.1934 N   0  0  0  0  0  0  0  0  0  0  0  0
   11.1607  -16.2447   25.1682 C   0  0  0  0  0  0  0  0  0  0  0  0
   12.5397  -16.2009   24.6510 C   0  0  0  0  0  0  0  0  0  0  0  0
   13.6315  -16.6135   25.3753 O   0  0  0  0  0  0  0  0  0  0  0  0
   12.7633  -15.7627   23.4855 O   0  0  0  0  0  0  0  0  0  0  0  0
  2  1  1  6
  3  2  1  0
  4  3  1  0
  5  4  1  0
  6  5  1  0
  7  6  1  0
  8  9  2  0
  8  2  1  0
 10  8  1  0
 11 10  1  0
 11 12  1  1
 13 12  1  0
 13 14  1  0
 15 14  1  0
 16 15  1  0
 17 11  1  0
 18 17  2  0
 19 17  1  0
 20 19  1  0
 21 20  1  0
 21 22  1  0
 23 21  2  0
M  END
$$$$
