KKG.pdb
     RDKit          3D

 23 22  0  0  1  0  0  0  0  0999 V2000
    7.0957  -20.3266   17.8003 N   0  0  0  0  0  0  0  0  0  0  0  0
    6.6837  -19.7560   19.0645 C   0  0  1  0  0  0  0  0  0  0  0  0
    6.6800  -20.8195   20.1241 C   0  0  0  0  0  0  0  0  0  0  0  0
    7.9265  -21.6226   20.1296 C   0  0  0  0  0  0  0  0  0  0  0  0
    7.9549  -22.8217   21.0182 C   0  0  0  0  0  0  0  0  0  0  0  0
    9.3048  -23.5357   20.8436 C   0  0  0  0  0  0  0  0  0  0  0  0
    9.3826  -24.7007   21.6947 N   0  0  0  0  0  0  0  0  0  0  0  0
    7.6382  -18.6589   19.4152 C   0  0  0  0  0  0  0  0  0  0  0  0
    8.8706  -18.7928   19.2103 O   0  0  0  0  0  0  0  0  0  0  0  0
    7.2037  -17.4325   19.9861 N   0  0  0  0  0  0  0  0  0  0  0  0
    8.1247  -16.3454   20.2995 C   0  0  1  0  0  0  0  0  0  0  0  0
    7.4720  -15.0135   20.2618 C   0  0  0  0  0  0  0  0  0  0  0  0
    8.4657  -13.9081   20.2708 C   0  0  0  0  0  0  0  0  0  0  0  0
    7.9546  -12.5202   20.1512 C   0  0  0  0  0  0  0  0  0  0  0  0
    8.9590  -11.4293   20.0866 C   0  0  0  0  0  0  0  0  0  0  0  0
    8.3947  -10.1270   19.9023 N   0  0  0  0  0  0  0  0  0  0  0  0
    8.8723  -16.5896   21.5187 C   0  0  0  0  0  0  0  0  0  0  0  0
    8.4312  -16.9654   22.6327 O   0  0  0  0  0  0  0  0  0  0  0  0
   10.3130  -16.3939   21.5162 N   0  0  0  0  0  0  0  0  0  0  0  0
   11.0944  -16.5850   22.7035 C   0  0  0  0  0  0  0  0  0  0  0  0
   12.5222  -16.3997   22.3902 C   0  0  0  0  0  0  0  0  0  0  0  0
   13.5153  -16.4433   23.3383 O   0  0  0  0  0  0  0  0  0  0  0  0
   12.8841  -16.1838   21.1974 O   0  0  0  0  0  0  0  0  0  0  0  0
  2  1  1  6
  3  2  1  0
  4  3  1  0
  5  4  1  0
  6  5  1  0
  7  6  1  0
  8  9  2  0
  8  2  1  0
 10  8  1  0
 11 10  1  0
 11 12  1  1
 13 12  1  0
 13 14  1  0
 15 14  1  0
 16 15  1  0
 17 11  1  0
 18 17  2  0
 19 17  1  0
 20 19  1  0
 21 20  1  0
 21 22  1  0
 23 21  2  0
M  END
$$$$
