KKG.pdb
     RDKit          3D

 23 22  0  0  1  0  0  0  0  0999 V2000
    6.5821  -14.6699   19.4069 N   0  0  0  0  0  0  0  0  0  0  0  0
    7.4534  -15.6038   20.0868 C   0  0  1  0  0  0  0  0  0  0  0  0
    8.5956  -15.9788   19.1877 C   0  0  0  0  0  0  0  0  0  0  0  0
    8.2167  -16.9991   18.1805 C   0  0  0  0  0  0  0  0  0  0  0  0
    9.2934  -17.4781   17.2644 C   0  0  0  0  0  0  0  0  0  0  0  0
    8.7205  -18.5818   16.3610 C   0  0  0  0  0  0  0  0  0  0  0  0
    9.6850  -18.9778   15.3607 N   0  0  0  0  0  0  0  0  0  0  0  0
    7.9525  -14.9519   21.3371 C   0  0  0  0  0  0  0  0  0  0  0  0
    8.7821  -14.0099   21.2807 O   0  0  0  0  0  0  0  0  0  0  0  0
    7.5183  -15.3590   22.6273 N   0  0  0  0  0  0  0  0  0  0  0  0
    8.0111  -14.7370   23.8514 C   0  0  1  0  0  0  0  0  0  0  0  0
    6.9162  -14.2977   24.7511 C   0  0  0  0  0  0  0  0  0  0  0  0
    7.1724  -12.9482   25.3192 C   0  0  0  0  0  0  0  0  0  0  0  0
    6.1535  -12.3815   26.2370 C   0  0  0  0  0  0  0  0  0  0  0  0
    6.4363  -11.0492   26.8271 C   0  0  0  0  0  0  0  0  0  0  0  0
    5.4203  -10.5783   27.7183 N   0  0  0  0  0  0  0  0  0  0  0  0
    9.0168  -15.5452   24.5150 C   0  0  0  0  0  0  0  0  0  0  0  0
    8.8874  -16.2396   25.5532 O   0  0  0  0  0  0  0  0  0  0  0  0
   10.3592  -15.6006   23.9595 N   0  0  0  0  0  0  0  0  0  0  0  0
   11.5158  -15.6525   24.8059 C   0  0  0  0  0  0  0  0  0  0  0  0
   11.8039  -17.0526   25.1634 C   0  0  0  0  0  0  0  0  0  0  0  0
   13.0412  -17.6306   25.0156 O   0  0  0  0  0  0  0  0  0  0  0  0
   10.8853  -17.7872   25.6290 O   0  0  0  0  0  0  0  0  0  0  0  0
  2  1  1  6
  3  2  1  0
  4  3  1  0
  5  4  1  0
  6  5  1  0
  7  6  1  0
  8  9  2  0
  8  2  1  0
 10  8  1  0
 11 10  1  0
 11 12  1  1
 13 12  1  0
 13 14  1  0
 15 14  1  0
 16 15  1  0
 17 11  1  0
 18 17  2  0
 19 17  1  0
 20 19  1  0
 21 20  1  0
 21 22  1  0
 23 21  2  0
M  END
$$$$
