KKG.pdb
     RDKit          3D

 23 22  0  0  1  0  0  0  0  0999 V2000
    7.7695  -16.3830   19.0904 N   0  0  0  0  0  0  0  0  0  0  0  0
    7.1386  -16.7460   20.3409 C   0  0  1  0  0  0  0  0  0  0  0  0
    7.3509  -18.2074   20.6110 C   0  0  0  0  0  0  0  0  0  0  0  0
    7.0075  -19.0578   19.4457 C   0  0  0  0  0  0  0  0  0  0  0  0
    6.9814  -20.5335   19.6693 C   0  0  0  0  0  0  0  0  0  0  0  0
    6.5638  -21.2253   18.3619 C   0  0  0  0  0  0  0  0  0  0  0  0
    5.1439  -21.4929   18.3542 N   0  0  0  0  0  0  0  0  0  0  0  0
    7.7398  -15.9115   21.4271 C   0  0  0  0  0  0  0  0  0  0  0  0
    8.9333  -15.5261   21.3520 O   0  0  0  0  0  0  0  0  0  0  0  0
    7.0016  -15.5199   22.5762 N   0  0  0  0  0  0  0  0  0  0  0  0
    7.5853  -14.7176   23.6456 C   0  0  1  0  0  0  0  0  0  0  0  0
    6.6026  -13.8023   24.2761 C   0  0  0  0  0  0  0  0  0  0  0  0
    7.2144  -12.9954   25.3643 C   0  0  0  0  0  0  0  0  0  0  0  0
    6.3372  -12.0508   26.0992 C   0  0  0  0  0  0  0  0  0  0  0  0
    6.9593  -11.2472   27.1810 C   0  0  0  0  0  0  0  0  0  0  0  0
    6.0506  -10.3668   27.8499 N   0  0  0  0  0  0  0  0  0  0  0  0
    8.3220  -15.5235   24.6011 C   0  0  0  0  0  0  0  0  0  0  0  0
    7.8636  -16.2135   25.5447 O   0  0  0  0  0  0  0  0  0  0  0  0
    9.7717  -15.5818   24.5082 N   0  0  0  0  0  0  0  0  0  0  0  0
   10.5458  -16.3845   25.4100 C   0  0  0  0  0  0  0  0  0  0  0  0
   11.9794  -16.2195   25.1118 C   0  0  0  0  0  0  0  0  0  0  0  0
   12.9769  -16.8123   25.8470 O   0  0  0  0  0  0  0  0  0  0  0  0
   12.3428  -15.4983   24.1380 O   0  0  0  0  0  0  0  0  0  0  0  0
  2  1  1  6
  3  2  1  0
  4  3  1  0
  5  4  1  0
  6  5  1  0
  7  6  1  0
  8  9  2  0
  8  2  1  0
 10  8  1  0
 11 10  1  0
 11 12  1  1
 13 12  1  0
 13 14  1  0
 15 14  1  0
 16 15  1  0
 17 11  1  0
 18 17  2  0
 19 17  1  0
 20 19  1  0
 21 20  1  0
 21 22  1  0
 23 21  2  0
M  END
$$$$
