KKG.pdb
     RDKit          3D

 23 22  0  0  1  0  0  0  0  0999 V2000
    7.3534  -21.1280   16.1203 N   0  0  0  0  0  0  0  0  0  0  0  0
    8.2061  -22.2624   16.4021 C   0  0  1  0  0  0  0  0  0  0  0  0
    9.2768  -22.3650   15.3548 C   0  0  0  0  0  0  0  0  0  0  0  0
    9.3778  -21.1424   14.5216 C   0  0  0  0  0  0  0  0  0  0  0  0
   10.4320  -21.1289   13.4650 C   0  0  0  0  0  0  0  0  0  0  0  0
   10.4372  -19.7490   12.7880 C   0  0  0  0  0  0  0  0  0  0  0  0
   11.5079  -19.6555   11.8224 N   0  0  0  0  0  0  0  0  0  0  0  0
    8.8057  -22.0706   17.7589 C   0  0  0  0  0  0  0  0  0  0  0  0
    9.0487  -20.9173   18.1942 O   0  0  0  0  0  0  0  0  0  0  0  0
    9.1227  -23.1655   18.6072 N   0  0  0  0  0  0  0  0  0  0  0  0
    9.5763  -22.9848   19.9819 C   0  0  1  0  0  0  0  0  0  0  0  0
    8.9873  -23.9775   20.9141 C   0  0  0  0  0  0  0  0  0  0  0  0
    7.5037  -23.8924   20.9506 C   0  0  0  0  0  0  0  0  0  0  0  0
    6.7767  -24.8795   21.7865 C   0  0  0  0  0  0  0  0  0  0  0  0
    5.2934  -24.8463   21.7421 C   0  0  0  0  0  0  0  0  0  0  0  0
    4.6630  -25.8442   22.5515 N   0  0  0  0  0  0  0  0  0  0  0  0
   11.0206  -22.8859   20.0782 C   0  0  0  0  0  0  0  0  0  0  0  0
   11.8802  -23.3435   19.2855 O   0  0  0  0  0  0  0  0  0  0  0  0
   11.6077  -22.1828   21.2071 N   0  0  0  0  0  0  0  0  0  0  0  0
   13.0116  -21.8942   21.2586 C   0  0  0  0  0  0  0  0  0  0  0  0
   13.3234  -21.1797   22.5090 C   0  0  0  0  0  0  0  0  0  0  0  0
   14.6018  -20.8623   22.8988 O   0  0  0  0  0  0  0  0  0  0  0  0
   12.3887  -20.8306   23.2867 O   0  0  0  0  0  0  0  0  0  0  0  0
  2  1  1  6
  3  2  1  0
  4  3  1  0
  5  4  1  0
  6  5  1  0
  7  6  1  0
  8  9  2  0
  8  2  1  0
 10  8  1  0
 11 10  1  0
 11 12  1  1
 13 12  1  0
 13 14  1  0
 15 14  1  0
 16 15  1  0
 17 11  1  0
 18 17  2  0
 19 17  1  0
 20 19  1  0
 21 20  1  0
 21 22  1  0
 23 21  2  0
M  END
$$$$
