KKG.pdb
     RDKit          3D

 23 22  0  0  1  0  0  0  0  0999 V2000
    8.3150  -16.4234   18.1739 N   0  0  0  0  0  0  0  0  0  0  0  0
    7.5610  -16.7722   19.3586 C   0  0  1  0  0  0  0  0  0  0  0  0
    7.6286  -18.2547   19.5850 C   0  0  0  0  0  0  0  0  0  0  0  0
    8.5132  -18.9399   18.6119 C   0  0  0  0  0  0  0  0  0  0  0  0
    8.6026  -20.4267   18.7090 C   0  0  0  0  0  0  0  0  0  0  0  0
    9.5814  -20.9351   17.6386 C   0  0  0  0  0  0  0  0  0  0  0  0
    9.8468  -22.3445   17.8142 N   0  0  0  0  0  0  0  0  0  0  0  0
    8.1441  -16.0298   20.5189 C   0  0  0  0  0  0  0  0  0  0  0  0
    9.3881  -15.8945   20.6326 O   0  0  0  0  0  0  0  0  0  0  0  0
    7.3323  -15.4502   21.5308 N   0  0  0  0  0  0  0  0  0  0  0  0
    7.8935  -14.8489   22.7357 C   0  0  1  0  0  0  0  0  0  0  0  0
    6.8774  -14.1301   23.5432 C   0  0  0  0  0  0  0  0  0  0  0  0
    7.4762  -13.4820   24.7394 C   0  0  0  0  0  0  0  0  0  0  0  0
    6.5592  -12.8013   25.6867 C   0  0  0  0  0  0  0  0  0  0  0  0
    7.1642  -12.1838   26.8933 C   0  0  0  0  0  0  0  0  0  0  0  0
    6.2202  -11.5389   27.7543 N   0  0  0  0  0  0  0  0  0  0  0  0
    8.6848  -15.7904   23.5054 C   0  0  0  0  0  0  0  0  0  0  0  0
    8.2788  -16.7616   24.1899 O   0  0  0  0  0  0  0  0  0  0  0  0
   10.1314  -15.6466   23.5275 N   0  0  0  0  0  0  0  0  0  0  0  0
   10.9525  -16.4860   24.3509 C   0  0  0  0  0  0  0  0  0  0  0  0
   12.3601  -16.0657   24.2359 C   0  0  0  0  0  0  0  0  0  0  0  0
   13.3663  -16.5725   25.0218 O   0  0  0  0  0  0  0  0  0  0  0  0
   12.6906  -15.1926   23.3822 O   0  0  0  0  0  0  0  0  0  0  0  0
  2  1  1  6
  3  2  1  0
  4  3  1  0
  5  4  1  0
  6  5  1  0
  7  6  1  0
  8  9  2  0
  8  2  1  0
 10  8  1  0
 11 10  1  0
 11 12  1  1
 13 12  1  0
 13 14  1  0
 15 14  1  0
 16 15  1  0
 17 11  1  0
 18 17  2  0
 19 17  1  0
 20 19  1  0
 21 20  1  0
 21 22  1  0
 23 21  2  0
M  END
$$$$
