KKG.pdb
     RDKit          3D

 23 22  0  0  1  0  0  0  0  0999 V2000
    8.0840  -12.9549   18.3072 N   0  0  0  0  0  0  0  0  0  0  0  0
    7.8605  -14.1599   19.0762 C   0  0  1  0  0  0  0  0  0  0  0  0
    8.6661  -15.2873   18.4986 C   0  0  0  0  0  0  0  0  0  0  0  0
    7.9121  -16.0663   17.4869 C   0  0  0  0  0  0  0  0  0  0  0  0
    7.0920  -17.2092   17.9864 C   0  0  0  0  0  0  0  0  0  0  0  0
    6.5157  -17.9693   16.7812 C   0  0  0  0  0  0  0  0  0  0  0  0
    5.5533  -18.9578   17.2108 N   0  0  0  0  0  0  0  0  0  0  0  0
    8.2605  -13.8913   20.4923 C   0  0  0  0  0  0  0  0  0  0  0  0
    9.3863  -13.4003   20.7575 O   0  0  0  0  0  0  0  0  0  0  0  0
    7.4001  -14.1726   21.5875 N   0  0  0  0  0  0  0  0  0  0  0  0
    7.8001  -13.9545   22.9733 C   0  0  1  0  0  0  0  0  0  0  0  0
    6.6996  -13.4132   23.8083 C   0  0  0  0  0  0  0  0  0  0  0  0
    7.1521  -13.1033   25.1898 C   0  0  0  0  0  0  0  0  0  0  0  0
    6.1788  -12.4594   26.1062 C   0  0  0  0  0  0  0  0  0  0  0  0
    6.6320  -12.1798   27.4917 C   0  0  0  0  0  0  0  0  0  0  0  0
    5.5932  -11.7247   28.3647 N   0  0  0  0  0  0  0  0  0  0  0  0
    8.4466  -15.1179   23.5508 C   0  0  0  0  0  0  0  0  0  0  0  0
    7.9459  -16.2472   23.7760 O   0  0  0  0  0  0  0  0  0  0  0  0
    9.8456  -15.0309   23.9370 N   0  0  0  0  0  0  0  0  0  0  0  0
   10.4606  -16.0419   24.7472 C   0  0  0  0  0  0  0  0  0  0  0  0
   11.5005  -16.7353   23.9668 C   0  0  0  0  0  0  0  0  0  0  0  0
   12.4050  -17.6078   24.5213 O   0  0  0  0  0  0  0  0  0  0  0  0
   11.5937  -16.5352   22.7211 O   0  0  0  0  0  0  0  0  0  0  0  0
  2  1  1  6
  3  2  1  0
  4  3  1  0
  5  4  1  0
  6  5  1  0
  7  6  1  0
  8  9  2  0
  8  2  1  0
 10  8  1  0
 11 10  1  0
 11 12  1  1
 13 12  1  0
 13 14  1  0
 15 14  1  0
 16 15  1  0
 17 11  1  0
 18 17  2  0
 19 17  1  0
 20 19  1  0
 21 20  1  0
 21 22  1  0
 23 21  2  0
M  END
$$$$
