KKG.pdb
     RDKit          3D

 23 22  0  0  1  0  0  0  0  0999 V2000
    7.3786  -15.8263   19.9624 N   0  0  0  0  0  0  0  0  0  0  0  0
    8.3076  -14.7184   20.0183 C   0  0  1  0  0  0  0  0  0  0  0  0
    7.6472  -13.4755   19.4959 C   0  0  0  0  0  0  0  0  0  0  0  0
    8.0049  -13.1902   18.0854 C   0  0  0  0  0  0  0  0  0  0  0  0
    7.2589  -13.9413   17.0330 C   0  0  0  0  0  0  0  0  0  0  0  0
    7.7994  -13.5304   15.6540 C   0  0  0  0  0  0  0  0  0  0  0  0
    7.0219  -14.1358   14.5973 N   0  0  0  0  0  0  0  0  0  0  0  0
    8.7332  -14.5368   21.4407 C   0  0  0  0  0  0  0  0  0  0  0  0
    9.6406  -13.7202   21.7382 O   0  0  0  0  0  0  0  0  0  0  0  0
    8.1405  -15.2662   22.5064 N   0  0  0  0  0  0  0  0  0  0  0  0
    8.5796  -15.1257   23.8904 C   0  0  1  0  0  0  0  0  0  0  0  0
    7.4518  -14.9075   24.8294 C   0  0  0  0  0  0  0  0  0  0  0  0
    7.4165  -13.5118   25.3395 C   0  0  0  0  0  0  0  0  0  0  0  0
    6.3507  -13.1588   26.3097 C   0  0  0  0  0  0  0  0  0  0  0  0
    6.3520  -11.7752   26.8472 C   0  0  0  0  0  0  0  0  0  0  0  0
    5.3562  -11.5369   27.8471 N   0  0  0  0  0  0  0  0  0  0  0  0
    9.4733  -16.1939   24.2971 C   0  0  0  0  0  0  0  0  0  0  0  0
    9.1863  -17.3941   24.5294 O   0  0  0  0  0  0  0  0  0  0  0  0
   10.8870  -15.9045   24.4743 N   0  0  0  0  0  0  0  0  0  0  0  0
   11.7896  -16.8862   25.0017 C   0  0  0  0  0  0  0  0  0  0  0  0
   12.9958  -16.9521   24.1579 C   0  0  0  0  0  0  0  0  0  0  0  0
   14.1603  -17.5651   24.5516 O   0  0  0  0  0  0  0  0  0  0  0  0
   12.9920  -16.4234   23.0086 O   0  0  0  0  0  0  0  0  0  0  0  0
  2  1  1  1
  3  2  1  0
  4  3  1  0
  5  4  1  0
  6  5  1  0
  7  6  1  0
  8  9  2  0
  8  2  1  0
 10  8  1  0
 11 10  1  0
 11 12  1  1
 13 12  1  0
 13 14  1  0
 15 14  1  0
 16 15  1  0
 17 11  1  0
 18 17  2  0
 19 17  1  0
 20 19  1  0
 21 20  1  0
 21 22  1  0
 23 21  2  0
M  END
$$$$
