KKG.pdb
     RDKit          3D

 23 22  0  0  1  0  0  0  0  0999 V2000
    8.7822  -15.4161   18.5899 N   0  0  0  0  0  0  0  0  0  0  0  0
    8.0297  -16.0517   19.6499 C   0  0  1  0  0  0  0  0  0  0  0  0
    8.3114  -17.5262   19.6585 C   0  0  0  0  0  0  0  0  0  0  0  0
    7.1169  -18.3364   19.3187 C   0  0  0  0  0  0  0  0  0  0  0  0
    7.2762  -19.8204   19.3446 C   0  0  0  0  0  0  0  0  0  0  0  0
    5.9571  -20.4681   18.8941 C   0  0  0  0  0  0  0  0  0  0  0  0
    5.9973  -21.8998   19.0849 N   0  0  0  0  0  0  0  0  0  0  0  0
    8.4310  -15.4258   20.9478 C   0  0  0  0  0  0  0  0  0  0  0  0
    9.6407  -15.2031   21.2043 O   0  0  0  0  0  0  0  0  0  0  0  0
    7.4788  -15.0579   21.9362 N   0  0  0  0  0  0  0  0  0  0  0  0
    7.8659  -14.4882   23.2222 C   0  0  1  0  0  0  0  0  0  0  0  0
    6.8117  -13.6219   23.8050 C   0  0  0  0  0  0  0  0  0  0  0  0
    7.2623  -12.9687   25.0619 C   0  0  0  0  0  0  0  0  0  0  0  0
    6.2925  -12.1001   25.7738 C   0  0  0  0  0  0  0  0  0  0  0  0
    6.7612  -11.4316   27.0133 C   0  0  0  0  0  0  0  0  0  0  0  0
    5.7801  -10.5917   27.6300 N   0  0  0  0  0  0  0  0  0  0  0  0
    8.3648  -15.4922   24.1430 C   0  0  0  0  0  0  0  0  0  0  0  0
    7.7144  -16.3897   24.7332 O   0  0  0  0  0  0  0  0  0  0  0  0
    9.7828  -15.5164   24.4628 N   0  0  0  0  0  0  0  0  0  0  0  0
   10.3088  -16.4058   25.4573 C   0  0  0  0  0  0  0  0  0  0  0  0
   11.4405  -17.1628   24.8940 C   0  0  0  0  0  0  0  0  0  0  0  0
   12.6792  -17.2208   25.4849 O   0  0  0  0  0  0  0  0  0  0  0  0
   11.2974  -17.7992   23.8101 O   0  0  0  0  0  0  0  0  0  0  0  0
  2  1  1  6
  3  2  1  0
  4  3  1  0
  5  4  1  0
  6  5  1  0
  7  6  1  0
  8  9  2  0
  8  2  1  0
 10  8  1  0
 11 10  1  0
 11 12  1  1
 13 12  1  0
 13 14  1  0
 15 14  1  0
 16 15  1  0
 17 11  1  0
 18 17  2  0
 19 17  1  0
 20 19  1  0
 21 20  1  0
 21 22  1  0
 23 21  2  0
M  END
$$$$
