YEQ.pdb
     RDKit          3D

 31 31  0  0  1  0  0  0  0  0999 V2000
   16.0543  -17.6117  -18.1248 O   0  0  0  0  0  0  0  0  0  0  0  0
   16.9797  -16.5792  -17.9561 C   0  0  0  0  0  0  0  0  0  0  0  0
   16.9926  -15.5640  -18.8888 C   0  0  0  0  0  0  0  0  0  0  0  0
   17.9087  -14.5199  -18.7423 C   0  0  0  0  0  0  0  0  0  0  0  0
   18.7975  -14.4758  -17.6951 C   0  0  0  0  0  0  0  0  0  0  0  0
   19.7405  -13.3698  -17.5739 C   0  0  0  0  0  0  0  0  0  0  0  0
   20.8049  -13.3551  -18.6412 C   0  0  2  0  0  0  0  0  0  0  0  0
   21.6769  -14.4997  -18.3738 N   0  0  0  0  0  0  0  0  0  0  0  0
   21.5829  -12.1005  -18.4731 C   0  0  0  0  0  0  0  0  0  0  0  0
   22.5502  -12.0766  -17.6750 O   0  0  0  0  0  0  0  0  0  0  0  0
   18.7640  -15.5015  -16.7779 C   0  0  0  0  0  0  0  0  0  0  0  0
   17.8552  -16.5545  -16.9071 C   0  0  0  0  0  0  0  0  0  0  0  0
   21.2603  -10.9199  -19.1952 N   0  0  0  0  0  0  0  0  0  0  0  0
   22.0361   -9.6662  -19.0062 C   0  0  1  0  0  0  0  0  0  0  0  0
   22.2937   -9.1968  -20.4168 C   0  0  0  0  0  0  0  0  0  0  0  0
   23.0158   -7.9086  -20.5514 C   0  0  0  0  0  0  0  0  0  0  0  0
   23.9852   -7.9642  -21.7157 C   0  0  0  0  0  0  0  0  0  0  0  0
   23.5610   -7.9517  -22.8949 O   0  0  0  0  0  0  0  0  0  0  0  0
   21.1949   -8.7567  -18.2373 C   0  0  0  0  0  0  0  0  0  0  0  0
   19.9667   -8.6404  -18.5173 O   0  0  0  0  0  0  0  0  0  0  0  0
   25.3496   -8.0295  -21.5122 O   0  0  0  0  0  0  0  0  0  0  0  0
   20.1634   -8.0845  -12.2700 N   0  0  0  0  0  0  0  0  0  0  0  0
   19.3505   -8.6598  -13.2772 C   0  0  0  0  0  0  0  0  0  0  0  0
   18.4069   -9.4377  -12.9712 O   0  0  0  0  0  0  0  0  0  0  0  0
   19.5802   -8.3609  -14.7061 C   0  0  0  0  0  0  0  0  0  0  0  0
   20.7319   -7.4726  -14.9990 C   0  0  0  0  0  0  0  0  0  0  0  0
   20.8405   -7.0340  -16.4009 C   0  0  2  0  0  0  0  0  0  0  0  0
   21.6741   -7.9785  -17.1664 N   0  0  0  0  0  0  0  0  0  0  0  0
   21.2286   -5.6876  -16.7310 C   0  0  0  0  0  0  0  0  0  0  0  0
   20.3476   -4.7629  -17.2607 O   0  0  0  0  0  0  0  0  0  0  0  0
   22.4083   -5.2891  -16.5578 O   0  0  0  0  0  0  0  0  0  0  0  0
  2  1  1  0
  3  2  2  0
  4  3  1  0
  5 11  1  0
  5  4  2  0
  6  5  1  0
  7  6  1  0
  7  8  1  1
  9  7  1  0
  9 10  2  0
 11 12  2  0
 12  2  1  0
 13  9  1  0
 14 13  1  0
 14 15  1  6
 16 15  1  0
 16 17  1  0
 17 21  1  0
 17 18  2  0
 19 14  1  0
 20 19  2  0
 23 22  1  0
 23 25  1  0
 24 23  2  0
 26 25  1  0
 27 26  1  1
 27 28  1  0
 28 19  1  0
 29 27  1  0
 29 30  1  0
 31 29  2  0
M  END
$$$$
