YEQ.pdb
     RDKit          3D

 31 31  0  0  1  0  0  0  0  0999 V2000
   38.7318   -7.1690   -9.5803 O   0  0  0  0  0  0  0  0  0  0  0  0
   37.9065   -7.0954  -10.7048 C   0  0  0  0  0  0  0  0  0  0  0  0
   37.9083   -5.9243  -11.4323 C   0  0  0  0  0  0  0  0  0  0  0  0
   37.0916   -5.8257  -12.5610 C   0  0  0  0  0  0  0  0  0  0  0  0
   36.2864   -6.8626  -12.9671 C   0  0  0  0  0  0  0  0  0  0  0  0
   35.4462   -6.7242  -14.1511 C   0  0  0  0  0  0  0  0  0  0  0  0
   35.5458   -7.8834  -15.1095 C   0  0  2  0  0  0  0  0  0  0  0  0
   36.9713   -8.0806  -15.3759 N   0  0  0  0  0  0  0  0  0  0  0  0
   34.8669   -7.4775  -16.3673 C   0  0  0  0  0  0  0  0  0  0  0  0
   35.5395   -6.9655  -17.2939 O   0  0  0  0  0  0  0  0  0  0  0  0
   36.3031   -8.0208  -12.2234 C   0  0  0  0  0  0  0  0  0  0  0  0
   37.1131   -8.1387  -11.0914 C   0  0  0  0  0  0  0  0  0  0  0  0
   33.4690   -7.6539  -16.5512 N   0  0  0  0  0  0  0  0  0  0  0  0
   32.7958   -7.2134  -17.8012 C   0  0  1  0  0  0  0  0  0  0  0  0
   32.3302   -8.5067  -18.4234 C   0  0  0  0  0  0  0  0  0  0  0  0
   31.3911   -9.3176  -17.6112 C   0  0  0  0  0  0  0  0  0  0  0  0
   30.8791  -10.4972  -18.4142 C   0  0  0  0  0  0  0  0  0  0  0  0
   31.4458  -10.8319  -19.4807 O   0  0  0  0  0  0  0  0  0  0  0  0
   31.7022   -6.3327  -17.4082 C   0  0  0  0  0  0  0  0  0  0  0  0
   31.0335   -6.5805  -16.3633 O   0  0  0  0  0  0  0  0  0  0  0  0
   29.7845  -11.2291  -17.9975 O   0  0  0  0  0  0  0  0  0  0  0  0
   32.9116   -0.1022  -17.1793 N   0  0  0  0  0  0  0  0  0  0  0  0
   31.9094   -0.8572  -17.8361 C   0  0  0  0  0  0  0  0  0  0  0  0
   31.2563   -0.3589  -18.7923 O   0  0  0  0  0  0  0  0  0  0  0  0
   31.6073   -2.2444  -17.4257 C   0  0  0  0  0  0  0  0  0  0  0  0
   30.5142   -2.9118  -18.1745 C   0  0  0  0  0  0  0  0  0  0  0  0
   30.2235   -4.2933  -17.7544 C   0  0  2  0  0  0  0  0  0  0  0  0
   31.3332   -5.1854  -18.1360 N   0  0  0  0  0  0  0  0  0  0  0  0
   28.9739   -4.9250  -18.0890 C   0  0  0  0  0  0  0  0  0  0  0  0
   27.7671   -4.5363  -17.5373 O   0  0  0  0  0  0  0  0  0  0  0  0
   28.9252   -5.8804  -18.9046 O   0  0  0  0  0  0  0  0  0  0  0  0
  2  1  1  0
  3  2  2  0
  4  3  1  0
  5 11  1  0
  5  4  2  0
  6  5  1  0
  7  6  1  0
  7  8  1  6
  9  7  1  0
  9 10  2  0
 11 12  2  0
 12  2  1  0
 13  9  1  0
 14 13  1  0
 14 15  1  1
 16 15  1  0
 16 17  1  0
 17 21  1  0
 17 18  2  0
 19 14  1  0
 20 19  2  0
 23 22  1  0
 23 25  1  0
 24 23  2  0
 26 25  1  0
 27 26  1  6
 27 28  1  0
 28 19  1  0
 29 27  1  0
 29 30  1  0
 31 29  2  0
M  END
$$$$
