YEQ.pdb
     RDKit          3D

 31 31  0  0  1  0  0  0  0  0999 V2000
   22.6587  -27.7601   -4.2214 O   0  0  0  0  0  0  0  0  0  0  0  0
   22.8319  -28.3774   -2.9805 C   0  0  0  0  0  0  0  0  0  0  0  0
   21.8649  -28.1774   -2.0185 C   0  0  0  0  0  0  0  0  0  0  0  0
   22.0150  -28.7839   -0.7693 C   0  0  0  0  0  0  0  0  0  0  0  0
   23.0991  -29.5743   -0.4719 C   0  0  0  0  0  0  0  0  0  0  0  0
   23.2232  -30.1918    0.8436 C   0  0  0  0  0  0  0  0  0  0  0  0
   22.7590  -31.6252    0.8915 C   0  0  2  0  0  0  0  0  0  0  0  0
   21.3188  -31.6042    0.6318 N   0  0  0  0  0  0  0  0  0  0  0  0
   22.9979  -32.1219    2.2713 C   0  0  0  0  0  0  0  0  0  0  0  0
   22.0711  -32.0698    3.1148 O   0  0  0  0  0  0  0  0  0  0  0  0
   24.0503  -29.7580   -1.4497 C   0  0  0  0  0  0  0  0  0  0  0  0
   23.9179  -29.1599   -2.7053 C   0  0  0  0  0  0  0  0  0  0  0  0
   24.2540  -32.6574    2.6647 N   0  0  0  0  0  0  0  0  0  0  0  0
   24.3854  -33.4927    3.8872 C   0  0  1  0  0  0  0  0  0  0  0  0
   23.4540  -34.6499    3.6232 C   0  0  0  0  0  0  0  0  0  0  0  0
   23.3480  -35.6586    4.7052 C   0  0  0  0  0  0  0  0  0  0  0  0
   22.4167  -36.7816    4.2926 C   0  0  0  0  0  0  0  0  0  0  0  0
   21.1772  -36.6613    4.4335 O   0  0  0  0  0  0  0  0  0  0  0  0
   25.7859  -33.8866    3.9852 C   0  0  0  0  0  0  0  0  0  0  0  0
   26.5278  -33.8486    2.9612 O   0  0  0  0  0  0  0  0  0  0  0  0
   22.9029  -37.9573    3.7553 O   0  0  0  0  0  0  0  0  0  0  0  0
   30.0949  -32.6805    3.6282 N   0  0  0  0  0  0  0  0  0  0  0  0
   30.3145  -32.1260    4.9129 C   0  0  0  0  0  0  0  0  0  0  0  0
   31.4802  -31.8326    5.2925 O   0  0  0  0  0  0  0  0  0  0  0  0
   29.1891  -31.8714    5.8363 C   0  0  0  0  0  0  0  0  0  0  0  0
   27.8786  -32.4284    5.4201 C   0  0  0  0  0  0  0  0  0  0  0  0
   27.7194  -33.8766    5.6365 C   0  0  2  0  0  0  0  0  0  0  0  0
   26.3868  -34.3153    5.1839 N   0  0  0  0  0  0  0  0  0  0  0  0
   28.0032  -34.4730    6.9157 C   0  0  0  0  0  0  0  0  0  0  0  0
   29.0840  -35.3086    7.1289 O   0  0  0  0  0  0  0  0  0  0  0  0
   27.2629  -34.2642    7.9100 O   0  0  0  0  0  0  0  0  0  0  0  0
  2  1  1  0
  3  2  2  0
  4  3  1  0
  5 11  1  0
  5  4  2  0
  6  5  1  0
  7  6  1  0
  7  8  1  1
  9  7  1  0
  9 10  2  0
 11 12  2  0
 12  2  1  0
 13  9  1  0
 14 13  1  0
 14 15  1  6
 16 15  1  0
 16 17  1  0
 17 21  1  0
 17 18  2  0
 19 14  1  0
 20 19  2  0
 23 22  1  0
 23 25  1  0
 24 23  2  0
 26 25  1  0
 27 26  1  1
 27 28  1  0
 28 19  1  0
 29 27  1  0
 29 30  1  0
 31 29  2  0
M  END
$$$$
