YEQ.pdb
     RDKit          3D

 31 31  0  0  1  0  0  0  0  0999 V2000
   29.5306  -11.0184  -16.2947 O   0  0  0  0  0  0  0  0  0  0  0  0
   28.2322  -10.5084  -16.2242 C   0  0  0  0  0  0  0  0  0  0  0  0
   27.7992   -9.6982  -17.2522 C   0  0  0  0  0  0  0  0  0  0  0  0
   26.5047   -9.1757  -17.2050 C   0  0  0  0  0  0  0  0  0  0  0  0
   25.6505   -9.4462  -16.1630 C   0  0  0  0  0  0  0  0  0  0  0  0
   24.3052   -8.8831  -16.1468 C   0  0  0  0  0  0  0  0  0  0  0  0
   23.2107   -9.9128  -16.2646 C   0  0  2  0  0  0  0  0  0  0  0  0
   23.5782  -10.7833  -17.3822 N   0  0  0  0  0  0  0  0  0  0  0  0
   21.9573   -9.1899  -16.6020 C   0  0  0  0  0  0  0  0  0  0  0  0
   21.7800   -8.7757  -17.7726 O   0  0  0  0  0  0  0  0  0  0  0  0
   26.1072  -10.2577  -15.1493 C   0  0  0  0  0  0  0  0  0  0  0  0
   27.3985  -10.7898  -15.1785 C   0  0  0  0  0  0  0  0  0  0  0  0
   20.9477   -8.9530  -15.6305 N   0  0  0  0  0  0  0  0  0  0  0  0
   19.6498   -8.3327  -16.0050 C   0  0  1  0  0  0  0  0  0  0  0  0
   18.6429   -9.1073  -15.1911 C   0  0  0  0  0  0  0  0  0  0  0  0
   17.2259   -8.7010  -15.3528 C   0  0  0  0  0  0  0  0  0  0  0  0
   16.3218   -9.5915  -14.5233 C   0  0  0  0  0  0  0  0  0  0  0  0
   15.3055   -9.1176  -13.9636 O   0  0  0  0  0  0  0  0  0  0  0  0
   19.7300   -6.9236  -15.6392 C   0  0  0  0  0  0  0  0  0  0  0  0
   20.4304   -6.5652  -14.6485 O   0  0  0  0  0  0  0  0  0  0  0  0
   16.5897  -10.9367  -14.3624 O   0  0  0  0  0  0  0  0  0  0  0  0
   21.0635   -2.0197  -18.9151 N   0  0  0  0  0  0  0  0  0  0  0  0
   20.4862   -1.4133  -17.7727 C   0  0  0  0  0  0  0  0  0  0  0  0
   20.5447   -0.1643  -17.6128 O   0  0  0  0  0  0  0  0  0  0  0  0
   19.7975   -2.2224  -16.7455 C   0  0  0  0  0  0  0  0  0  0  0  0
   19.7440   -3.6818  -17.0073 C   0  0  0  0  0  0  0  0  0  0  0  0
   19.0965   -4.4811  -15.9531 C   0  0  2  0  0  0  0  0  0  0  0  0
   19.0617   -5.9027  -16.3415 N   0  0  0  0  0  0  0  0  0  0  0  0
   17.8134   -4.1067  -15.4182 C   0  0  0  0  0  0  0  0  0  0  0  0
   16.6470   -4.7809  -15.7290 O   0  0  0  0  0  0  0  0  0  0  0  0
   17.6935   -3.1277  -14.6388 O   0  0  0  0  0  0  0  0  0  0  0  0
  2  1  1  0
  3  2  2  0
  4  3  1  0
  5 11  1  0
  5  4  2  0
  6  5  1  0
  7  6  1  0
  7  8  1  6
  9  7  1  0
  9 10  2  0
 11 12  2  0
 12  2  1  0
 13  9  1  0
 14 13  1  0
 14 15  1  1
 16 15  1  0
 16 17  1  0
 17 21  1  0
 17 18  2  0
 19 14  1  0
 20 19  2  0
 23 22  1  0
 23 25  1  0
 24 23  2  0
 26 25  1  0
 27 26  1  6
 27 28  1  0
 28 19  1  0
 29 27  1  0
 29 30  1  0
 31 29  2  0
M  END
$$$$
