YEQ.pdb
     RDKit          3D

 31 31  0  0  1  0  0  0  0  0999 V2000
   19.8546  -31.1622  -14.1435 O   0  0  0  0  0  0  0  0  0  0  0  0
   20.7604  -31.7772  -13.2761 C   0  0  0  0  0  0  0  0  0  0  0  0
   21.5279  -32.8108  -13.7694 C   0  0  0  0  0  0  0  0  0  0  0  0
   22.4412  -33.4421  -12.9220 C   0  0  0  0  0  0  0  0  0  0  0  0
   22.5965  -33.0622  -11.6104 C   0  0  0  0  0  0  0  0  0  0  0  0
   23.5601  -33.7443  -10.7540 C   0  0  0  0  0  0  0  0  0  0  0  0
   24.8369  -32.9731  -10.5365 C   0  0  2  0  0  0  0  0  0  0  0  0
   25.5494  -32.9804  -11.8148 N   0  0  0  0  0  0  0  0  0  0  0  0
   25.6367  -33.7164   -9.5288 C   0  0  0  0  0  0  0  0  0  0  0  0
   26.3920  -34.6450   -9.9036 O   0  0  0  0  0  0  0  0  0  0  0  0
   21.8184  -32.0277  -11.1426 C   0  0  0  0  0  0  0  0  0  0  0  0
   20.8993  -31.3838  -11.9748 C   0  0  0  0  0  0  0  0  0  0  0  0
   25.5699  -33.4033   -8.1444 N   0  0  0  0  0  0  0  0  0  0  0  0
   26.3945  -34.1371   -7.1488 C   0  0  1  0  0  0  0  0  0  0  0  0
   26.3034  -33.2750   -5.9140 C   0  0  0  0  0  0  0  0  0  0  0  0
   26.8335  -33.8718   -4.6642 C   0  0  0  0  0  0  0  0  0  0  0  0
   26.7314  -32.8823   -3.5201 C   0  0  0  0  0  0  0  0  0  0  0  0
   26.1029  -31.8078   -3.6655 O   0  0  0  0  0  0  0  0  0  0  0  0
   25.7899  -35.4535   -6.9825 C   0  0  0  0  0  0  0  0  0  0  0  0
   24.5308  -35.5735   -6.9561 O   0  0  0  0  0  0  0  0  0  0  0  0
   27.3221  -33.1342   -2.2974 O   0  0  0  0  0  0  0  0  0  0  0  0
   24.9187  -42.1794   -8.2396 N   0  0  0  0  0  0  0  0  0  0  0  0
   25.4774  -40.8780   -8.2565 C   0  0  0  0  0  0  0  0  0  0  0  0
   25.2602  -40.1008   -9.2249 O   0  0  0  0  0  0  0  0  0  0  0  0
   26.3204  -40.3952   -7.1428 C   0  0  0  0  0  0  0  0  0  0  0  0
   26.8150  -39.0021   -7.2692 C   0  0  0  0  0  0  0  0  0  0  0  0
   25.9397  -37.9738   -6.6812 C   0  0  2  0  0  0  0  0  0  0  0  0
   26.5393  -36.6378   -6.8503 N   0  0  0  0  0  0  0  0  0  0  0  0
   25.4425  -38.1009   -5.3361 C   0  0  0  0  0  0  0  0  0  0  0  0
   24.1347  -38.4475   -5.0509 O   0  0  0  0  0  0  0  0  0  0  0  0
   26.1858  -37.8899   -4.3445 O   0  0  0  0  0  0  0  0  0  0  0  0
  2  1  1  0
  3  2  2  0
  4  3  1  0
  5 11  1  0
  5  4  2  0
  6  5  1  0
  7  6  1  0
  7  8  1  6
  9  7  1  0
  9 10  2  0
 11 12  2  0
 12  2  1  0
 13  9  1  0
 14 13  1  0
 14 15  1  1
 16 15  1  0
 16 17  1  0
 17 21  1  0
 17 18  2  0
 19 14  1  0
 20 19  2  0
 23 22  1  0
 23 25  1  0
 24 23  2  0
 26 25  1  0
 27 26  1  1
 27 28  1  0
 28 19  1  0
 29 27  1  0
 29 30  1  0
 31 29  2  0
M  END
$$$$
