YEQ.pdb
     RDKit          3D

 31 31  0  0  1  0  0  0  0  0999 V2000
    9.6646  -12.6372  -10.3610 O   0  0  0  0  0  0  0  0  0  0  0  0
   10.9150  -12.0622  -10.1224 C   0  0  0  0  0  0  0  0  0  0  0  0
   11.0617  -10.7122  -10.3606 C   0  0  0  0  0  0  0  0  0  0  0  0
   12.3022  -10.1135  -10.1298 C   0  0  0  0  0  0  0  0  0  0  0  0
   13.3807  -10.8317   -9.6720 C   0  0  0  0  0  0  0  0  0  0  0  0
   14.6617  -10.1732   -9.4422 C   0  0  0  0  0  0  0  0  0  0  0  0
   15.6634  -10.3831  -10.5489 C   0  0  2  0  0  0  0  0  0  0  0  0
   16.2073  -11.7296  -10.3668 N   0  0  0  0  0  0  0  0  0  0  0  0
   16.7504   -9.3886  -10.3564 C   0  0  0  0  0  0  0  0  0  0  0  0
   17.4210   -9.4049   -9.2966 O   0  0  0  0  0  0  0  0  0  0  0  0
   13.2079  -12.1778   -9.4421 C   0  0  0  0  0  0  0  0  0  0  0  0
   11.9749  -12.7948   -9.6670 C   0  0  0  0  0  0  0  0  0  0  0  0
   17.0536   -8.4137  -11.3448 N   0  0  0  0  0  0  0  0  0  0  0  0
   17.9223   -7.2480  -11.0348 C   0  0  1  0  0  0  0  0  0  0  0  0
   18.9373   -7.2601  -12.1509 C   0  0  0  0  0  0  0  0  0  0  0  0
   19.8864   -6.1210  -12.1786 C   0  0  0  0  0  0  0  0  0  0  0  0
   20.9532   -6.3462  -13.2320 C   0  0  0  0  0  0  0  0  0  0  0  0
   20.9064   -7.3532  -13.9765 O   0  0  0  0  0  0  0  0  0  0  0  0
   17.0678   -6.0666  -11.0413 C   0  0  0  0  0  0  0  0  0  0  0  0
   15.8651   -6.1567  -11.4234 O   0  0  0  0  0  0  0  0  0  0  0  0
   21.9966   -5.4569  -13.3995 O   0  0  0  0  0  0  0  0  0  0  0  0
   13.7523   -5.0550   -7.2328 N   0  0  0  0  0  0  0  0  0  0  0  0
   13.8991   -3.6693   -7.4862 C   0  0  0  0  0  0  0  0  0  0  0  0
   13.2160   -2.8257   -6.8453 O   0  0  0  0  0  0  0  0  0  0  0  0
   14.8564   -3.1761   -8.4983 C   0  0  0  0  0  0  0  0  0  0  0  0
   15.6539   -4.2189   -9.1895 C   0  0  0  0  0  0  0  0  0  0  0  0
   16.6002   -3.7135  -10.1987 C   0  0  2  0  0  0  0  0  0  0  0  0
   17.5059   -4.7927  -10.6325 N   0  0  0  0  0  0  0  0  0  0  0  0
   17.3681   -2.5183   -9.9656 C   0  0  0  0  0  0  0  0  0  0  0  0
   16.7974   -1.2601   -9.9128 O   0  0  0  0  0  0  0  0  0  0  0  0
   18.6142   -2.5658   -9.8061 O   0  0  0  0  0  0  0  0  0  0  0  0
  2  1  1  0
  3  2  2  0
  4  3  1  0
  5 11  1  0
  5  4  2  0
  6  5  1  0
  7  6  1  0
  7  8  1  1
  9  7  1  0
  9 10  2  0
 11 12  2  0
 12  2  1  0
 13  9  1  0
 14 13  1  0
 14 15  1  6
 16 15  1  0
 16 17  1  0
 17 21  1  0
 17 18  2  0
 19 14  1  0
 20 19  2  0
 23 22  1  0
 23 25  1  0
 24 23  2  0
 26 25  1  0
 27 26  1  1
 27 28  1  0
 28 19  1  0
 29 27  1  0
 29 30  1  0
 31 29  2  0
M  END
$$$$
