YEQ.pdb
     RDKit          3D

 31 31  0  0  1  0  0  0  0  0999 V2000
   25.2984  -20.4776   -7.7139 O   0  0  0  0  0  0  0  0  0  0  0  0
   25.2393  -20.7585   -9.0809 C   0  0  0  0  0  0  0  0  0  0  0  0
   26.4029  -21.1423   -9.7128 C   0  0  0  0  0  0  0  0  0  0  0  0
   26.3700  -21.4287  -11.0795 C   0  0  0  0  0  0  0  0  0  0  0  0
   25.2108  -21.3387  -11.8121 C   0  0  0  0  0  0  0  0  0  0  0  0
   25.2135  -21.6453  -13.2380 C   0  0  0  0  0  0  0  0  0  0  0  0
   26.2612  -20.8965  -14.0215 C   0  0  2  0  0  0  0  0  0  0  0  0
   26.8932  -19.9656  -13.0856 N   0  0  0  0  0  0  0  0  0  0  0  0
   25.5564  -20.1232  -15.0764 C   0  0  0  0  0  0  0  0  0  0  0  0
   24.9872  -19.0467  -14.7759 O   0  0  0  0  0  0  0  0  0  0  0  0
   24.0629  -20.9534  -11.1573 C   0  0  0  0  0  0  0  0  0  0  0  0
   24.0756  -20.6628   -9.7910 C   0  0  0  0  0  0  0  0  0  0  0  0
   25.5088  -20.5712  -16.4241 N   0  0  0  0  0  0  0  0  0  0  0  0
   24.7937  -19.7925  -17.4690 C   0  0  1  0  0  0  0  0  0  0  0  0
   25.8083  -19.6821  -18.5802 C   0  0  0  0  0  0  0  0  0  0  0  0
   25.3582  -18.9743  -19.8032 C   0  0  0  0  0  0  0  0  0  0  0  0
   26.4885  -18.8852  -20.8096 C   0  0  0  0  0  0  0  0  0  0  0  0
   27.6092  -19.3825  -20.5499 O   0  0  0  0  0  0  0  0  0  0  0  0
   23.6110  -20.5612  -17.8382 C   0  0  0  0  0  0  0  0  0  0  0  0
   23.6809  -21.8200  -17.9430 O   0  0  0  0  0  0  0  0  0  0  0  0
   26.3172  -18.2596  -22.0289 O   0  0  0  0  0  0  0  0  0  0  0  0
   21.8146  -21.4617  -13.2710 N   0  0  0  0  0  0  0  0  0  0  0  0
   20.4932  -21.4609  -13.7808 C   0  0  0  0  0  0  0  0  0  0  0  0
   19.5245  -21.7985  -13.0482 O   0  0  0  0  0  0  0  0  0  0  0  0
   20.2139  -21.0605  -15.1757 C   0  0  0  0  0  0  0  0  0  0  0  0
   21.4007  -20.7011  -15.9902 C   0  0  0  0  0  0  0  0  0  0  0  0
   21.1145  -20.3677  -17.3961 C   0  0  2  0  0  0  0  0  0  0  0  0
   22.3553  -19.9761  -18.0890 N   0  0  0  0  0  0  0  0  0  0  0  0
   20.0682  -19.4416  -17.7426 C   0  0  0  0  0  0  0  0  0  0  0  0
   18.8063  -19.8496  -18.1336 O   0  0  0  0  0  0  0  0  0  0  0  0
   20.2619  -18.1998  -17.7134 O   0  0  0  0  0  0  0  0  0  0  0  0
  2  1  1  0
  3  2  2  0
  4  3  1  0
  5 11  1  0
  5  4  2  0
  6  5  1  0
  7  6  1  0
  7  8  1  1
  9  7  1  0
  9 10  2  0
 11 12  2  0
 12  2  1  0
 13  9  1  0
 14 13  1  0
 14 15  1  6
 16 15  1  0
 16 17  1  0
 17 21  1  0
 17 18  2  0
 19 14  1  0
 20 19  2  0
 23 22  1  0
 23 25  1  0
 24 23  2  0
 26 25  1  0
 27 26  1  1
 27 28  1  0
 28 19  1  0
 29 27  1  0
 29 30  1  0
 31 29  2  0
M  END
$$$$
