YEQ.pdb
     RDKit          3D

 31 31  0  0  1  0  0  0  0  0999 V2000
   30.0497  -28.0234  -16.8656 O   0  0  0  0  0  0  0  0  0  0  0  0
   29.6006  -26.7164  -16.6630 C   0  0  0  0  0  0  0  0  0  0  0  0
   28.2589  -26.5260  -16.4095 C   0  0  0  0  0  0  0  0  0  0  0  0
   27.7849  -25.2284  -16.2035 C   0  0  0  0  0  0  0  0  0  0  0  0
   28.6178  -24.1362  -16.2462 C   0  0  0  0  0  0  0  0  0  0  0  0
   28.0879  -22.7953  -16.0264 C   0  0  0  0  0  0  0  0  0  0  0  0
   27.3329  -22.2362  -17.2052 C   0  0  2  0  0  0  0  0  0  0  0  0
   28.3306  -21.9379  -18.2337 N   0  0  0  0  0  0  0  0  0  0  0  0
   26.6962  -20.9689  -16.7623 C   0  0  0  0  0  0  0  0  0  0  0  0
   27.4026  -19.9436  -16.6109 O   0  0  0  0  0  0  0  0  0  0  0  0
   29.9529  -24.3535  -16.5011 C   0  0  0  0  0  0  0  0  0  0  0  0
   30.4461  -25.6438  -16.7098 C   0  0  0  0  0  0  0  0  0  0  0  0
   25.3014  -20.8850  -16.5041 N   0  0  0  0  0  0  0  0  0  0  0  0
   24.5857  -19.5834  -16.5589 C   0  0  1  0  0  0  0  0  0  0  0  0
   24.6958  -19.1832  -18.0095 C   0  0  0  0  0  0  0  0  0  0  0  0
   25.6131  -18.0560  -18.3048 C   0  0  0  0  0  0  0  0  0  0  0  0
   24.8318  -16.8509  -18.7905 C   0  0  0  0  0  0  0  0  0  0  0  0
   24.1992  -16.8992  -19.8713 O   0  0  0  0  0  0  0  0  0  0  0  0
   23.2149  -19.8328  -16.1290 C   0  0  0  0  0  0  0  0  0  0  0  0
   22.5821  -20.8320  -16.5779 O   0  0  0  0  0  0  0  0  0  0  0  0
   24.7954  -15.6774  -18.0632 O   0  0  0  0  0  0  0  0  0  0  0  0
   20.6597  -21.4307  -11.8934 N   0  0  0  0  0  0  0  0  0  0  0  0
   19.5830  -20.5195  -12.0214 C   0  0  0  0  0  0  0  0  0  0  0  0
   18.4328  -20.8256  -11.6062 O   0  0  0  0  0  0  0  0  0  0  0  0
   19.7781  -19.1896  -12.6356 C   0  0  0  0  0  0  0  0  0  0  0  0
   21.1024  -18.9608  -13.2641 C   0  0  0  0  0  0  0  0  0  0  0  0
   21.1829  -19.3084  -14.6932 C   0  0  2  0  0  0  0  0  0  0  0  0
   22.5295  -19.0111  -15.2141 N   0  0  0  0  0  0  0  0  0  0  0  0
   20.1989  -18.8336  -15.6306 C   0  0  0  0  0  0  0  0  0  0  0  0
   18.9185  -19.3509  -15.6984 O   0  0  0  0  0  0  0  0  0  0  0  0
   20.4680  -17.9183  -16.4493 O   0  0  0  0  0  0  0  0  0  0  0  0
  2  1  1  0
  3  2  2  0
  4  3  1  0
  5 11  1  0
  5  4  2  0
  6  5  1  0
  7  6  1  0
  7  8  1  6
  9  7  1  0
  9 10  2  0
 11 12  2  0
 12  2  1  0
 13  9  1  0
 14 13  1  0
 14 15  1  6
 16 15  1  0
 16 17  1  0
 17 21  1  0
 17 18  2  0
 19 14  1  0
 20 19  2  0
 23 22  1  0
 23 25  1  0
 24 23  2  0
 26 25  1  0
 27 26  1  1
 27 28  1  0
 28 19  1  0
 29 27  1  0
 29 30  1  0
 31 29  2  0
M  END
$$$$
