GMG.pdb
     RDKit          3D

 17 16  0  0  1  0  0  0  0  0999 V2000
   28.8007  -19.0437  -16.3278 N   0  0  0  0  0  0  0  0  0  0  0  0
   27.8285  -18.4008  -15.4635 C   0  0  0  0  0  0  0  0  0  0  0  0
   27.1405  -19.4624  -14.7011 C   0  0  0  0  0  0  0  0  0  0  0  0
   27.1371  -20.6779  -15.0971 O   0  0  0  0  0  0  0  0  0  0  0  0
   26.0695  -19.7607   -8.2885 C   0  0  0  0  0  0  0  0  0  0  0  0
   25.4065  -21.3513   -8.8313 S   0  0  0  0  0  0  0  0  0  0  0  0
   25.2457  -21.3970  -10.6318 C   0  0  0  0  0  0  0  0  0  0  0  0
   25.9310  -20.2286  -11.2934 C   0  0  0  0  0  0  0  0  0  0  0  0
   25.7458  -20.2915  -12.7974 C   0  0  2  0  0  0  0  0  0  0  0  0
   26.4371  -19.2233  -13.4851 N   0  0  0  0  0  0  0  0  0  0  0  0
   24.3159  -20.2144  -13.1764 C   0  0  0  0  0  0  0  0  0  0  0  0
   23.7093  -19.1209  -13.0706 O   0  0  0  0  0  0  0  0  0  0  0  0
   23.6039  -21.3478  -13.6595 N   0  0  0  0  0  0  0  0  0  0  0  0
   22.2147  -21.1821  -14.0088 C   0  0  0  0  0  0  0  0  0  0  0  0
   21.3171  -21.7336  -12.9622 C   0  0  0  0  0  0  0  0  0  0  0  0
   21.0085  -21.0123  -11.9771 O   0  0  0  0  0  0  0  0  0  0  0  0
   20.8374  -23.0200  -13.0831 O   0  0  0  0  0  0  0  0  0  0  0  0
  2  1  1  0
  2  3  1  0
  3  4  2  0
  6  5  1  0
  7  6  1  0
  8  7  1  0
  9  8  1  1
 10  3  1  0
 10  9  1  0
 11  9  1  0
 11 12  2  0
 13 11  1  0
 14 13  1  0
 14 15  1  0
 15 16  2  0
 15 17  1  0
M  END
$$$$
