GMG.pdb
     RDKit          3D

 17 16  0  0  1  0  0  0  0  0999 V2000
   23.9029  -10.5847  -19.7154 N   0  0  0  0  0  0  0  0  0  0  0  0
   24.1726   -9.2814  -19.1371 C   0  0  0  0  0  0  0  0  0  0  0  0
   23.1550   -9.0383  -18.0947 C   0  0  0  0  0  0  0  0  0  0  0  0
   21.9362   -8.7919  -18.3914 O   0  0  0  0  0  0  0  0  0  0  0  0
   23.0115  -12.5995  -13.3290 C   0  0  0  0  0  0  0  0  0  0  0  0
   21.5183  -12.5372  -14.3441 S   0  0  0  0  0  0  0  0  0  0  0  0
   21.5094  -11.0547  -15.3793 C   0  0  0  0  0  0  0  0  0  0  0  0
   22.2303   -9.9022  -14.7277 C   0  0  0  0  0  0  0  0  0  0  0  0
   22.4188   -8.7701  -15.7192 C   0  0  2  0  0  0  0  0  0  0  0  0
   23.4430   -9.0577  -16.6992 N   0  0  0  0  0  0  0  0  0  0  0  0
   22.7913   -7.5062  -15.0423 C   0  0  0  0  0  0  0  0  0  0  0  0
   23.9112   -7.4141  -14.4836 O   0  0  0  0  0  0  0  0  0  0  0  0
   21.9140   -6.3864  -15.0051 N   0  0  0  0  0  0  0  0  0  0  0  0
   22.3431   -5.2076  -14.2938 C   0  0  0  0  0  0  0  0  0  0  0  0
   21.3392   -4.1172  -14.3849 C   0  0  0  0  0  0  0  0  0  0  0  0
   21.3074   -3.3981  -15.4184 O   0  0  0  0  0  0  0  0  0  0  0  0
   20.4615   -3.9087  -13.3430 O   0  0  0  0  0  0  0  0  0  0  0  0
  2  1  1  0
  2  3  1  0
  3  4  2  0
  6  5  1  0
  7  6  1  0
  8  7  1  0
  9  8  1  1
 10  3  1  0
 10  9  1  0
 11  9  1  0
 11 12  2  0
 13 11  1  0
 14 13  1  0
 14 15  1  0
 15 16  2  0
 15 17  1  0
M  END
$$$$
