GMG.pdb
     RDKit          3D

 17 16  0  0  1  0  0  0  0  0999 V2000
   21.0786  -19.8872  -10.8395 N   0  0  0  0  0  0  0  0  0  0  0  0
   21.9847  -21.0205  -10.8297 C   0  0  0  0  0  0  0  0  0  0  0  0
   23.3594  -20.4917  -10.9384 C   0  0  0  0  0  0  0  0  0  0  0  0
   23.6496  -19.5364  -11.7368 O   0  0  0  0  0  0  0  0  0  0  0  0
   26.7388  -19.9968   -5.2403 C   0  0  0  0  0  0  0  0  0  0  0  0
   27.6135  -19.9629   -6.8208 S   0  0  0  0  0  0  0  0  0  0  0  0
   26.4466  -19.8293   -8.1955 C   0  0  0  0  0  0  0  0  0  0  0  0
   26.7479  -20.8159   -9.2948 C   0  0  0  0  0  0  0  0  0  0  0  0
   25.8142  -20.5974  -10.4698 C   0  0  2  0  0  0  0  0  0  0  0  0
   24.4544  -20.9937  -10.1770 N   0  0  0  0  0  0  0  0  0  0  0  0
   26.2523  -21.3548  -11.6651 C   0  0  0  0  0  0  0  0  0  0  0  0
   26.2200  -22.6092  -11.6448 O   0  0  0  0  0  0  0  0  0  0  0  0
   26.7115  -20.7012  -12.8427 N   0  0  0  0  0  0  0  0  0  0  0  0
   27.0768  -21.5151  -13.9757 C   0  0  0  0  0  0  0  0  0  0  0  0
   27.3915  -20.6861  -15.1669 C   0  0  0  0  0  0  0  0  0  0  0  0
   27.0889  -19.4636  -15.1601 O   0  0  0  0  0  0  0  0  0  0  0  0
   28.0067  -21.2631  -16.2568 O   0  0  0  0  0  0  0  0  0  0  0  0
  2  1  1  0
  2  3  1  0
  3  4  2  0
  6  5  1  0
  7  6  1  0
  8  7  1  0
  9  8  1  1
 10  3  1  0
 10  9  1  0
 11  9  1  0
 11 12  2  0
 13 11  1  0
 14 13  1  0
 14 15  1  0
 15 16  2  0
 15 17  1  0
M  END
$$$$
