GMG.pdb
     RDKit          3D

 17 16  0  0  1  0  0  0  0  0999 V2000
   14.2744  -13.3347  -13.8590 N   0  0  0  0  0  0  0  0  0  0  0  0
   15.2643  -12.7203  -12.9940 C   0  0  0  0  0  0  0  0  0  0  0  0
   14.7470  -11.3951  -12.5973 C   0  0  0  0  0  0  0  0  0  0  0  0
   13.7998  -10.8249  -13.2392 O   0  0  0  0  0  0  0  0  0  0  0  0
   10.4356   -9.5102   -7.7503 C   0  0  0  0  0  0  0  0  0  0  0  0
   12.2353   -9.3828   -7.8439 S   0  0  0  0  0  0  0  0  0  0  0  0
   12.7849   -9.3333   -9.5659 C   0  0  0  0  0  0  0  0  0  0  0  0
   14.2871   -9.2864   -9.6819 C   0  0  0  0  0  0  0  0  0  0  0  0
   14.7061   -9.3642  -11.1374 C   0  0  2  0  0  0  0  0  0  0  0  0
   15.2519  -10.6571  -11.4876 N   0  0  0  0  0  0  0  0  0  0  0  0
   15.7280   -8.3440  -11.4681 C   0  0  0  0  0  0  0  0  0  0  0  0
   15.7917   -7.2930  -10.7855 O   0  0  0  0  0  0  0  0  0  0  0  0
   16.6451   -8.5190  -12.5420 N   0  0  0  0  0  0  0  0  0  0  0  0
   17.5725   -7.4522  -12.8271 C   0  0  0  0  0  0  0  0  0  0  0  0
   18.4545   -7.7852  -13.9744 C   0  0  0  0  0  0  0  0  0  0  0  0
   18.3162   -8.8960  -14.5516 O   0  0  0  0  0  0  0  0  0  0  0  0
   19.4065   -6.8790  -14.3890 O   0  0  0  0  0  0  0  0  0  0  0  0
  2  1  1  0
  2  3  1  0
  3  4  2  0
  6  5  1  0
  7  6  1  0
  8  7  1  0
  9  8  1  1
 10  3  1  0
 10  9  1  0
 11  9  1  0
 11 12  2  0
 13 11  1  0
 14 13  1  0
 14 15  1  0
 15 16  2  0
 15 17  1  0
M  END
$$$$
