GMG.pdb
     RDKit          3D

 17 16  0  0  1  0  0  0  0  0999 V2000
   12.6144  -13.0599  -12.3742 N   0  0  0  0  0  0  0  0  0  0  0  0
   13.8517  -12.3695  -12.6871 C   0  0  0  0  0  0  0  0  0  0  0  0
   13.6587  -10.9417  -12.3624 C   0  0  0  0  0  0  0  0  0  0  0  0
   12.5313  -10.3623  -12.5288 O   0  0  0  0  0  0  0  0  0  0  0  0
   15.3612   -6.8263   -7.5168 C   0  0  0  0  0  0  0  0  0  0  0  0
   14.1538   -8.1701   -7.4956 S   0  0  0  0  0  0  0  0  0  0  0  0
   13.7880   -8.7286   -9.1760 C   0  0  0  0  0  0  0  0  0  0  0  0
   14.8611   -8.3255  -10.1551 C   0  0  0  0  0  0  0  0  0  0  0  0
   14.4585   -8.7094  -11.5660 C   0  0  2  0  0  0  0  0  0  0  0  0
   14.6937  -10.1086  -11.8471 N   0  0  0  0  0  0  0  0  0  0  0  0
   15.1965   -7.9205  -12.5795 C   0  0  0  0  0  0  0  0  0  0  0  0
   15.0260   -6.6784  -12.6364 O   0  0  0  0  0  0  0  0  0  0  0  0
   16.0980   -8.5299  -13.4965 N   0  0  0  0  0  0  0  0  0  0  0  0
   16.7581   -7.6891  -14.4643 C   0  0  0  0  0  0  0  0  0  0  0  0
   17.9564   -7.0276  -13.8885 C   0  0  0  0  0  0  0  0  0  0  0  0
   18.2199   -7.1917  -12.6679 O   0  0  0  0  0  0  0  0  0  0  0  0
   18.7585   -6.2477  -14.6933 O   0  0  0  0  0  0  0  0  0  0  0  0
  2  1  1  0
  2  3  1  0
  3  4  2  0
  6  5  1  0
  7  6  1  0
  8  7  1  0
  9  8  1  1
 10  3  1  0
 10  9  1  0
 11  9  1  0
 11 12  2  0
 13 11  1  0
 14 13  1  0
 14 15  1  0
 15 16  2  0
 15 17  1  0
M  END
$$$$
