GMG.pdb
     RDKit          3D

 17 16  0  0  1  0  0  0  0  0999 V2000
   17.6894  -11.6152  -15.7225 N   0  0  0  0  0  0  0  0  0  0  0  0
   18.6606  -11.5426  -16.7982 C   0  0  0  0  0  0  0  0  0  0  0  0
   19.9117  -10.9991  -16.2318 C   0  0  0  0  0  0  0  0  0  0  0  0
   20.2674  -11.2478  -15.0294 O   0  0  0  0  0  0  0  0  0  0  0  0
   26.5776  -10.2610  -14.7393 C   0  0  0  0  0  0  0  0  0  0  0  0
   25.1500  -10.7624  -15.7265 S   0  0  0  0  0  0  0  0  0  0  0  0
   24.4817   -9.3560  -16.6458 C   0  0  0  0  0  0  0  0  0  0  0  0
   23.1950   -9.6987  -17.3526 C   0  0  0  0  0  0  0  0  0  0  0  0
   22.0367   -9.6871  -16.3737 C   0  0  2  0  0  0  0  0  0  0  0  0
   20.8076  -10.1684  -16.9652 N   0  0  0  0  0  0  0  0  0  0  0  0
   21.7767   -8.3263  -15.8495 C   0  0  0  0  0  0  0  0  0  0  0  0
   21.1219   -7.5131  -16.5459 O   0  0  0  0  0  0  0  0  0  0  0  0
   22.2488   -7.9091  -14.5736 N   0  0  0  0  0  0  0  0  0  0  0  0
   21.9174   -6.5791  -14.1255 C   0  0  0  0  0  0  0  0  0  0  0  0
   22.8160   -5.5596  -14.7243 C   0  0  0  0  0  0  0  0  0  0  0  0
   22.6966   -4.3558  -14.3741 O   0  0  0  0  0  0  0  0  0  0  0  0
   23.7626   -5.9432  -15.6496 O   0  0  0  0  0  0  0  0  0  0  0  0
  2  1  1  0
  2  3  1  0
  3  4  2  0
  6  5  1  0
  7  6  1  0
  8  7  1  0
  9  8  1  6
 10  3  1  0
 10  9  1  0
 11  9  1  0
 11 12  2  0
 13 11  1  0
 14 13  1  0
 14 15  1  0
 15 16  2  0
 15 17  1  0
M  END
$$$$
