FCA.pdb
     RDKit          3D

 23 23  0  0  1  0  0  0  0  0999 V2000
    5.9483  -18.2167   25.6161 N   0  0  0  0  0  0  0  0  0  0  0  0
    6.3041  -16.8204   25.4726 C   0  0  1  0  0  0  0  0  0  0  0  0
    6.7060  -16.3008   26.8324 C   0  0  0  0  0  0  0  0  0  0  0  0
    6.8416  -14.8237   26.7391 C   0  0  0  0  0  0  0  0  0  0  0  0
    5.7518  -13.9851   26.6297 C   0  0  0  0  0  0  0  0  0  0  0  0
    5.8845  -12.6266   26.5443 C   0  0  0  0  0  0  0  0  0  0  0  0
    7.1447  -12.0339   26.5652 C   0  0  0  0  0  0  0  0  0  0  0  0
    8.2613  -12.8575   26.6749 C   0  0  0  0  0  0  0  0  0  0  0  0
    8.0929  -14.2224   26.7590 C   0  0  0  0  0  0  0  0  0  0  0  0
    7.4078  -16.7340   24.4888 C   0  0  0  0  0  0  0  0  0  0  0  0
    8.3387  -17.5739   24.4967 O   0  0  0  0  0  0  0  0  0  0  0  0
    7.4733  -15.7090   23.4946 N   0  0  0  0  0  0  0  0  0  0  0  0
    8.4842  -15.6390   22.4834 C   0  0  1  0  0  0  0  0  0  0  0  0
    8.1557  -14.5623   21.4950 C   0  0  0  0  0  0  0  0  0  0  0  0
    6.5693  -14.7765   20.6842 S   0  0  0  0  0  0  0  0  0  0  0  0
    9.8541  -15.5204   23.0440 C   0  0  0  0  0  0  0  0  0  0  0  0
   10.2029  -14.5000   23.6934 O   0  0  0  0  0  0  0  0  0  0  0  0
   12.7591  -17.6309   23.9720 C   0  0  0  0  0  0  0  0  0  0  0  0
   12.1555  -16.3681   23.4084 C   0  0  2  0  0  0  0  0  0  0  0  0
   10.8437  -16.5519   22.8772 N   0  0  0  0  0  0  0  0  0  0  0  0
   13.0554  -15.8623   22.3653 C   0  0  0  0  0  0  0  0  0  0  0  0
   12.7381  -15.8050   21.1418 O   0  0  0  0  0  0  0  0  0  0  0  0
   14.3183  -15.4223   22.7242 O   0  0  0  0  0  0  0  0  0  0  0  0
  2  1  1  1
  2 10  1  0
  3  2  1  0
  4  3  1  0
  4  5  2  0
  6  5  1  0
  7  6  2  0
  8  9  2  0
  8  7  1  0
  9  4  1  0
 10 11  2  0
 12 10  1  0
 12 13  1  0
 13 16  1  0
 13 14  1  6
 15 14  1  0
 16 17  2  0
 19 18  1  6
 19 21  1  0
 20 19  1  0
 20 16  1  0
 21 22  2  0
 21 23  1  0
M  END
$$$$
