FCA.pdb
     RDKit          3D

 23 23  0  0  1  0  0  0  0  0999 V2000
    6.7924  -16.9662   26.3391 N   0  0  0  0  0  0  0  0  0  0  0  0
    6.2932  -16.7115   25.0040 C   0  0  1  0  0  0  0  0  0  0  0  0
    5.6017  -15.3690   25.0143 C   0  0  0  0  0  0  0  0  0  0  0  0
    6.4767  -14.4060   25.7327 C   0  0  0  0  0  0  0  0  0  0  0  0
    6.2003  -13.9644   27.0100 C   0  0  0  0  0  0  0  0  0  0  0  0
    7.0102  -13.0781   27.6649 C   0  0  0  0  0  0  0  0  0  0  0  0
    8.1602  -12.5831   27.0546 C   0  0  0  0  0  0  0  0  0  0  0  0
    8.4623  -13.0126   25.7657 C   0  0  0  0  0  0  0  0  0  0  0  0
    7.6253  -13.9063   25.1339 C   0  0  0  0  0  0  0  0  0  0  0  0
    7.4473  -16.7426   24.0763 C   0  0  0  0  0  0  0  0  0  0  0  0
    8.4566  -17.4401   24.3344 O   0  0  0  0  0  0  0  0  0  0  0  0
    7.4755  -15.9943   22.8586 N   0  0  0  0  0  0  0  0  0  0  0  0
    8.5467  -16.0494   21.9107 C   0  0  1  0  0  0  0  0  0  0  0  0
    8.2705  -15.1292   20.7614 C   0  0  0  0  0  0  0  0  0  0  0  0
    6.5247  -14.8504   20.4543 S   0  0  0  0  0  0  0  0  0  0  0  0
    9.8779  -15.8280   22.5305 C   0  0  0  0  0  0  0  0  0  0  0  0
   10.1400  -14.7577   23.1390 O   0  0  0  0  0  0  0  0  0  0  0  0
   12.7294  -17.8278   23.7919 C   0  0  0  0  0  0  0  0  0  0  0  0
   12.1535  -16.5840   23.1612 C   0  0  2  0  0  0  0  0  0  0  0  0
   10.9262  -16.8122   22.4696 N   0  0  0  0  0  0  0  0  0  0  0  0
   13.1568  -16.0369   22.2403 C   0  0  0  0  0  0  0  0  0  0  0  0
   14.2927  -15.6248   22.6153 O   0  0  0  0  0  0  0  0  0  0  0  0
   12.8582  -15.9621   20.8903 O   0  0  0  0  0  0  0  0  0  0  0  0
  2  1  1  1
  2 10  1  0
  3  2  1  0
  4  3  1  0
  4  5  2  0
  6  5  1  0
  7  6  2  0
  8  9  2  0
  8  7  1  0
  9  4  1  0
 10 11  2  0
 12 10  1  0
 12 13  1  0
 13 16  1  0
 13 14  1  6
 15 14  1  0
 16 17  2  0
 19 18  1  6
 19 21  1  0
 20 19  1  0
 20 16  1  0
 21 22  2  0
 21 23  1  0
M  END
$$$$
