FCA.pdb
     RDKit          3D

 23 23  0  0  1  0  0  0  0  0999 V2000
   10.0207  -16.9370   20.2664 N   0  0  0  0  0  0  0  0  0  0  0  0
    9.7718  -16.0576   21.3896 C   0  0  1  0  0  0  0  0  0  0  0  0
    8.2765  -15.9300   21.5578 C   0  0  0  0  0  0  0  0  0  0  0  0
    7.8545  -14.6371   20.9583 C   0  0  0  0  0  0  0  0  0  0  0  0
    7.8839  -13.4502   21.6606 C   0  0  0  0  0  0  0  0  0  0  0  0
    7.4940  -12.2642   21.1023 C   0  0  0  0  0  0  0  0  0  0  0  0
    7.0467  -12.2135   19.7843 C   0  0  0  0  0  0  0  0  0  0  0  0
    7.0071  -13.3971   19.0531 C   0  0  0  0  0  0  0  0  0  0  0  0
    7.4070  -14.5751   19.6455 C   0  0  0  0  0  0  0  0  0  0  0  0
   10.4233  -16.6499   22.5805 C   0  0  0  0  0  0  0  0  0  0  0  0
   11.1369  -17.6754   22.4753 O   0  0  0  0  0  0  0  0  0  0  0  0
   10.2784  -16.0973   23.8909 N   0  0  0  0  0  0  0  0  0  0  0  0
   11.1104  -16.4461   25.0023 C   0  0  1  0  0  0  0  0  0  0  0  0
   11.1948  -15.3025   25.9664 C   0  0  0  0  0  0  0  0  0  0  0  0
    9.5986  -14.6784   26.4981 S   0  0  0  0  0  0  0  0  0  0  0  0
   10.7104  -17.7240   25.6442 C   0  0  0  0  0  0  0  0  0  0  0  0
    9.4969  -18.0135   25.8119 O   0  0  0  0  0  0  0  0  0  0  0  0
   12.2158  -21.0756   26.2960 C   0  0  0  0  0  0  0  0  0  0  0  0
   11.2371  -19.9615   26.5739 C   0  0  2  0  0  0  0  0  0  0  0  0
   11.6758  -18.6876   26.1032 N   0  0  0  0  0  0  0  0  0  0  0  0
   11.0067  -19.9116   28.0224 C   0  0  0  0  0  0  0  0  0  0  0  0
   11.3140  -18.9166   28.7410 O   0  0  0  0  0  0  0  0  0  0  0  0
   10.4243  -21.0016   28.6471 O   0  0  0  0  0  0  0  0  0  0  0  0
  2  1  1  6
  2 10  1  0
  3  2  1  0
  4  3  1  0
  4  5  2  0
  6  5  1  0
  7  6  2  0
  8  9  2  0
  8  7  1  0
  9  4  1  0
 10 11  2  0
 12 10  1  0
 12 13  1  0
 13 16  1  0
 13 14  1  1
 15 14  1  0
 16 17  2  0
 19 18  1  1
 19 21  1  0
 20 19  1  0
 20 16  1  0
 21 22  2  0
 21 23  1  0
M  END
$$$$
