FCA.pdb
     RDKit          3D

 23 23  0  0  1  0  0  0  0  0999 V2000
    6.0798  -18.0072   25.8423 N   0  0  0  0  0  0  0  0  0  0  0  0
    6.3988  -16.6230   25.5615 C   0  0  1  0  0  0  0  0  0  0  0  0
    7.1116  -16.0564   26.7663 C   0  0  0  0  0  0  0  0  0  0  0  0
    7.0019  -14.5752   26.7117 C   0  0  0  0  0  0  0  0  0  0  0  0
    5.7899  -13.9256   26.6030 C   0  0  0  0  0  0  0  0  0  0  0  0
    5.6967  -12.5620   26.5532 C   0  0  0  0  0  0  0  0  0  0  0  0
    6.8409  -11.7700   26.6115 C   0  0  0  0  0  0  0  0  0  0  0  0
    8.0769  -12.4004   26.7214 C   0  0  0  0  0  0  0  0  0  0  0  0
    8.1359  -13.7762   26.7690 C   0  0  0  0  0  0  0  0  0  0  0  0
    7.2408  -16.5912   24.3435 C   0  0  0  0  0  0  0  0  0  0  0  0
    8.1149  -17.4684   24.1473 O   0  0  0  0  0  0  0  0  0  0  0  0
    7.1075  -15.5793   23.3426 N   0  0  0  0  0  0  0  0  0  0  0  0
    7.8872  -15.5334   22.1430 C   0  0  1  0  0  0  0  0  0  0  0  0
    7.4455  -14.3910   21.2805 C   0  0  0  0  0  0  0  0  0  0  0  0
    8.4418  -14.1638   19.8055 S   0  0  0  0  0  0  0  0  0  0  0  0
    9.3490  -15.5380   22.4042 C   0  0  0  0  0  0  0  0  0  0  0  0
    9.8792  -14.6646   23.1395 O   0  0  0  0  0  0  0  0  0  0  0  0
   12.2496  -17.8717   22.2050 C   0  0  0  0  0  0  0  0  0  0  0  0
   11.6192  -16.5020   22.1498 C   0  0  2  0  0  0  0  0  0  0  0  0
   10.2267  -16.5282   21.8382 N   0  0  0  0  0  0  0  0  0  0  0  0
   12.3446  -15.7094   21.1500 C   0  0  0  0  0  0  0  0  0  0  0  0
   11.8057  -15.2551   20.0992 O   0  0  0  0  0  0  0  0  0  0  0  0
   13.6869  -15.4377   21.3544 O   0  0  0  0  0  0  0  0  0  0  0  0
  2  1  1  1
  2 10  1  0
  3  2  1  0
  4  3  1  0
  4  5  2  0
  6  5  1  0
  7  6  2  0
  8  9  2  0
  8  7  1  0
  9  4  1  0
 10 11  2  0
 12 10  1  0
 12 13  1  0
 13 16  1  0
 13 14  1  1
 15 14  1  0
 16 17  2  0
 19 18  1  6
 19 21  1  0
 20 19  1  0
 20 16  1  0
 21 22  2  0
 21 23  1  0
M  END
$$$$
