FCA.pdb
     RDKit          3D

 23 23  0  0  1  0  0  0  0  0999 V2000
    7.2470  -15.7892   21.2018 N   0  0  0  0  0  0  0  0  0  0  0  0
    7.6346  -15.0046   22.3554 C   0  0  1  0  0  0  0  0  0  0  0  0
    6.3771  -14.6056   23.0903 C   0  0  0  0  0  0  0  0  0  0  0  0
    6.7760  -13.8923   24.3317 C   0  0  0  0  0  0  0  0  0  0  0  0
    7.2627  -12.6017   24.3207 C   0  0  0  0  0  0  0  0  0  0  0  0
    7.6278  -11.9516   25.4672 C   0  0  0  0  0  0  0  0  0  0  0  0
    7.5189  -12.5808   26.7050 C   0  0  0  0  0  0  0  0  0  0  0  0
    7.0306  -13.8835   26.7442 C   0  0  0  0  0  0  0  0  0  0  0  0
    6.6716  -14.5100   25.5707 C   0  0  0  0  0  0  0  0  0  0  0  0
    8.5322  -15.8380   23.1880 C   0  0  0  0  0  0  0  0  0  0  0  0
    8.1482  -16.9470   23.6294 O   0  0  0  0  0  0  0  0  0  0  0  0
    9.8603  -15.4338   23.5289 N   0  0  0  0  0  0  0  0  0  0  0  0
   10.7545  -16.2166   24.3268 C   0  0  1  0  0  0  0  0  0  0  0  0
   11.9707  -16.5848   23.5334 C   0  0  0  0  0  0  0  0  0  0  0  0
   11.6104  -17.4799   22.0205 S   0  0  0  0  0  0  0  0  0  0  0  0
   11.0764  -15.5780   25.6282 C   0  0  0  0  0  0  0  0  0  0  0  0
   12.0007  -14.7288   25.7229 O   0  0  0  0  0  0  0  0  0  0  0  0
   10.1475  -14.2716   28.6693 C   0  0  0  0  0  0  0  0  0  0  0  0
   10.8720  -15.4648   28.0967 C   0  0  2  0  0  0  0  0  0  0  0  0
   10.3582  -15.8915   26.8354 N   0  0  0  0  0  0  0  0  0  0  0  0
   10.7857  -16.5581   29.0719 C   0  0  0  0  0  0  0  0  0  0  0  0
   11.2023  -16.4615   30.2627 O   0  0  0  0  0  0  0  0  0  0  0  0
   10.2223  -17.7616   28.6826 O   0  0  0  0  0  0  0  0  0  0  0  0
  2  1  1  6
  2 10  1  0
  3  2  1  0
  4  3  1  0
  4  5  2  0
  6  5  1  0
  7  6  2  0
  8  9  2  0
  8  7  1  0
  9  4  1  0
 10 11  2  0
 12 10  1  0
 12 13  1  0
 13 16  1  0
 13 14  1  6
 15 14  1  0
 16 17  2  0
 19 18  1  1
 19 21  1  0
 20 19  1  0
 20 16  1  0
 21 22  2  0
 21 23  1  0
M  END
$$$$
