FCA.pdb
     RDKit          3D

 23 23  0  0  1  0  0  0  0  0999 V2000
    5.2590  -17.4757   24.3892 N   0  0  0  0  0  0  0  0  0  0  0  0
    6.3637  -16.5560   24.5642 C   0  0  1  0  0  0  0  0  0  0  0  0
    6.3224  -16.0446   25.9845 C   0  0  0  0  0  0  0  0  0  0  0  0
    6.6231  -14.5892   25.9586 C   0  0  0  0  0  0  0  0  0  0  0  0
    5.7007  -13.6354   26.3356 C   0  0  0  0  0  0  0  0  0  0  0  0
    5.9845  -12.2978   26.3092 C   0  0  0  0  0  0  0  0  0  0  0  0
    7.2348  -11.8458   25.8940 C   0  0  0  0  0  0  0  0  0  0  0  0
    8.1841  -12.7877   25.5082 C   0  0  0  0  0  0  0  0  0  0  0  0
    7.8660  -14.1277   25.5466 C   0  0  0  0  0  0  0  0  0  0  0  0
    7.6149  -17.2908   24.2671 C   0  0  0  0  0  0  0  0  0  0  0  0
    7.8315  -18.4164   24.7751 O   0  0  0  0  0  0  0  0  0  0  0  0
    8.6262  -16.7690   23.4020 N   0  0  0  0  0  0  0  0  0  0  0  0
    9.7999  -17.4921   23.0165 C   0  0  1  0  0  0  0  0  0  0  0  0
   10.3592  -16.9331   21.7441 C   0  0  0  0  0  0  0  0  0  0  0  0
   11.0097  -15.2684   21.9034 S   0  0  0  0  0  0  0  0  0  0  0  0
   10.8046  -17.5850   24.1060 C   0  0  0  0  0  0  0  0  0  0  0  0
   11.1240  -16.5721   24.7817 O   0  0  0  0  0  0  0  0  0  0  0  0
   12.6308  -20.2050   26.1002 C   0  0  0  0  0  0  0  0  0  0  0  0
   12.4429  -18.8438   25.4769 C   0  0  2  0  0  0  0  0  0  0  0  0
   11.4586  -18.8217   24.4436 N   0  0  0  0  0  0  0  0  0  0  0  0
   13.7394  -18.4051   24.9473 C   0  0  0  0  0  0  0  0  0  0  0  0
   14.0146  -18.3843   23.7125 O   0  0  0  0  0  0  0  0  0  0  0  0
   14.7201  -17.9905   25.8326 O   0  0  0  0  0  0  0  0  0  0  0  0
  2  1  1  1
  2 10  1  0
  3  2  1  0
  4  3  1  0
  4  5  2  0
  6  5  1  0
  7  6  2  0
  8  9  2  0
  8  7  1  0
  9  4  1  0
 10 11  2  0
 12 10  1  0
 12 13  1  0
 13 16  1  0
 13 14  1  6
 15 14  1  0
 16 17  2  0
 19 18  1  6
 19 21  1  0
 20 19  1  0
 20 16  1  0
 21 22  2  0
 21 23  1  0
M  END
$$$$
