FCA.pdb
     RDKit          3D

 23 23  0  0  1  0  0  0  0  0999 V2000
    5.9748  -16.7408   24.9477 N   0  0  0  0  0  0  0  0  0  0  0  0
    7.1934  -15.9920   24.7216 C   0  0  1  0  0  0  0  0  0  0  0  0
    7.6423  -15.4232   26.0466 C   0  0  0  0  0  0  0  0  0  0  0  0
    7.1744  -14.0147   26.1251 C   0  0  0  0  0  0  0  0  0  0  0  0
    7.9767  -12.9472   25.7792 C   0  0  0  0  0  0  0  0  0  0  0  0
    7.5393  -11.6536   25.8540 C   0  0  0  0  0  0  0  0  0  0  0  0
    6.2480  -11.3653   26.2890 C   0  0  0  0  0  0  0  0  0  0  0  0
    5.4177  -12.4243   26.6443 C   0  0  0  0  0  0  0  0  0  0  0  0
    5.8893  -13.7159   26.5573 C   0  0  0  0  0  0  0  0  0  0  0  0
    8.1918  -16.9185   24.1400 C   0  0  0  0  0  0  0  0  0  0  0  0
    7.8282  -17.9708   23.5635 O   0  0  0  0  0  0  0  0  0  0  0  0
    9.5984  -16.6706   24.2014 N   0  0  0  0  0  0  0  0  0  0  0  0
   10.5168  -17.0111   23.1575 C   0  0  1  0  0  0  0  0  0  0  0  0
   10.0554  -16.4373   21.8529 C   0  0  0  0  0  0  0  0  0  0  0  0
   11.0529  -16.9319   20.4457 S   0  0  0  0  0  0  0  0  0  0  0  0
   11.9213  -16.6595   23.4871 C   0  0  0  0  0  0  0  0  0  0  0  0
   12.3040  -15.4603   23.4988 O   0  0  0  0  0  0  0  0  0  0  0  0
   15.1242  -18.4126   24.5472 C   0  0  0  0  0  0  0  0  0  0  0  0
   14.2254  -17.2573   24.1813 C   0  0  2  0  0  0  0  0  0  0  0  0
   12.9077  -17.6576   23.8065 N   0  0  0  0  0  0  0  0  0  0  0  0
   14.8599  -16.5200   23.0824 C   0  0  0  0  0  0  0  0  0  0  0  0
   14.4950  -16.6221   21.8752 O   0  0  0  0  0  0  0  0  0  0  0  0
   15.9121  -15.6660   23.3669 O   0  0  0  0  0  0  0  0  0  0  0  0
  2  1  1  1
  2 10  1  0
  3  2  1  0
  4  3  1  0
  4  5  2  0
  6  5  1  0
  7  6  2  0
  8  9  2  0
  8  7  1  0
  9  4  1  0
 10 11  2  0
 12 10  1  0
 12 13  1  0
 13 16  1  0
 13 14  1  6
 15 14  1  0
 16 17  2  0
 19 18  1  6
 19 21  1  0
 20 19  1  0
 20 16  1  0
 21 22  2  0
 21 23  1  0
M  END
$$$$
