FCA.pdb
     RDKit          3D

 23 23  0  0  1  0  0  0  0  0999 V2000
    7.3514  -15.3296   20.7840 N   0  0  0  0  0  0  0  0  0  0  0  0
    7.6566  -14.5928   21.9925 C   0  0  1  0  0  0  0  0  0  0  0  0
    6.4066  -13.8605   22.4189 C   0  0  0  0  0  0  0  0  0  0  0  0
    6.7099  -13.1241   23.6738 C   0  0  0  0  0  0  0  0  0  0  0  0
    7.3841  -11.9207   23.6822 C   0  0  0  0  0  0  0  0  0  0  0  0
    7.6597  -11.2488   24.8410 C   0  0  0  0  0  0  0  0  0  0  0  0
    7.2625  -11.7649   26.0721 C   0  0  0  0  0  0  0  0  0  0  0  0
    6.5804  -12.9779   26.0919 C   0  0  0  0  0  0  0  0  0  0  0  0
    6.3187  -13.6294   24.9064 C   0  0  0  0  0  0  0  0  0  0  0  0
    8.1140  -15.5654   23.0116 C   0  0  0  0  0  0  0  0  0  0  0  0
    7.4464  -16.5984   23.2546 O   0  0  0  0  0  0  0  0  0  0  0  0
    9.3180  -15.3853   23.7608 N   0  0  0  0  0  0  0  0  0  0  0  0
    9.8474  -16.3565   24.6694 C   0  0  1  0  0  0  0  0  0  0  0  0
   10.9622  -17.1194   24.0218 C   0  0  0  0  0  0  0  0  0  0  0  0
   11.7317  -18.3357   25.0936 S   0  0  0  0  0  0  0  0  0  0  0  0
   10.2228  -15.7741   25.9827 C   0  0  0  0  0  0  0  0  0  0  0  0
   10.9282  -14.7338   26.0529 O   0  0  0  0  0  0  0  0  0  0  0  0
    9.1723  -15.1990   29.2989 C   0  0  0  0  0  0  0  0  0  0  0  0
   10.2695  -15.8083   28.4615 C   0  0  2  0  0  0  0  0  0  0  0  0
    9.8060  -16.3597   27.2295 N   0  0  0  0  0  0  0  0  0  0  0  0
   10.9271  -16.8472   29.2629 C   0  0  0  0  0  0  0  0  0  0  0  0
   11.0043  -18.0577   28.9028 O   0  0  0  0  0  0  0  0  0  0  0  0
   11.4959  -16.4990   30.4764 O   0  0  0  0  0  0  0  0  0  0  0  0
  2  1  1  6
  2 10  1  0
  3  2  1  0
  4  3  1  0
  4  5  2  0
  6  5  1  0
  7  6  2  0
  8  9  2  0
  8  7  1  0
  9  4  1  0
 10 11  2  0
 12 10  1  0
 12 13  1  0
 13 16  1  0
 13 14  1  6
 15 14  1  0
 16 17  2  0
 19 18  1  1
 19 21  1  0
 20 19  1  0
 20 16  1  0
 21 22  2  0
 21 23  1  0
M  END
$$$$
