FCA.pdb
     RDKit          3D

 23 23  0  0  1  0  0  0  0  0999 V2000
    8.1738  -16.6818   16.1992 N   0  0  0  0  0  0  0  0  0  0  0  0
    8.4748  -15.8214   17.3244 C   0  0  1  0  0  0  0  0  0  0  0  0
    7.3523  -14.8200   17.4574 C   0  0  0  0  0  0  0  0  0  0  0  0
    7.5687  -14.0496   18.7099 C   0  0  0  0  0  0  0  0  0  0  0  0
    8.3304  -12.9003   18.7505 C   0  0  0  0  0  0  0  0  0  0  0  0
    8.5251  -12.1966   19.9069 C   0  0  0  0  0  0  0  0  0  0  0  0
    7.9517  -12.6233   21.1023 C   0  0  0  0  0  0  0  0  0  0  0  0
    7.1783  -13.7803   21.0891 C   0  0  0  0  0  0  0  0  0  0  0  0
    7.0019  -14.4659   19.9070 C   0  0  0  0  0  0  0  0  0  0  0  0
    8.6095  -16.6781   18.5251 C   0  0  0  0  0  0  0  0  0  0  0  0
    7.8125  -17.6244   18.7281 O   0  0  0  0  0  0  0  0  0  0  0  0
    9.6350  -16.4789   19.5008 N   0  0  0  0  0  0  0  0  0  0  0  0
    9.9243  -17.4011   20.5568 C   0  0  1  0  0  0  0  0  0  0  0  0
   10.7537  -18.5369   20.0410 C   0  0  0  0  0  0  0  0  0  0  0  0
   11.3439  -19.6481   21.3204 S   0  0  0  0  0  0  0  0  0  0  0  0
   10.5110  -16.7441   21.7523 C   0  0  0  0  0  0  0  0  0  0  0  0
   11.4963  -15.9678   21.6476 O   0  0  0  0  0  0  0  0  0  0  0  0
    9.7185  -16.2126   25.4019 C   0  0  0  0  0  0  0  0  0  0  0  0
   10.6152  -16.3225   24.1935 C   0  0  2  0  0  0  0  0  0  0  0  0
    9.9915  -16.9569   23.0775 N   0  0  0  0  0  0  0  0  0  0  0  0
   11.8180  -17.0651   24.5879 C   0  0  0  0  0  0  0  0  0  0  0  0
   12.1067  -18.2110   24.1358 O   0  0  0  0  0  0  0  0  0  0  0  0
   12.6897  -16.4945   25.5001 O   0  0  0  0  0  0  0  0  0  0  0  0
  2  1  1  6
  2 10  1  0
  3  2  1  0
  4  3  1  0
  4  5  2  0
  6  5  1  0
  7  6  2  0
  8  9  2  0
  8  7  1  0
  9  4  1  0
 10 11  2  0
 12 10  1  0
 12 13  1  0
 13 16  1  0
 13 14  1  6
 15 14  1  0
 16 17  2  0
 19 18  1  1
 19 21  1  0
 20 19  1  0
 20 16  1  0
 21 22  2  0
 21 23  1  0
M  END
$$$$
