FCA.pdb
     RDKit          3D

 23 23  0  0  1  0  0  0  0  0999 V2000
    5.7992  -17.9986   24.8647 N   0  0  0  0  0  0  0  0  0  0  0  0
    6.2635  -16.6306   24.9645 C   0  0  1  0  0  0  0  0  0  0  0  0
    6.2475  -16.2394   26.4230 C   0  0  0  0  0  0  0  0  0  0  0  0
    6.4778  -14.7735   26.5090 C   0  0  0  0  0  0  0  0  0  0  0  0
    5.5066  -13.8506   26.1806 C   0  0  0  0  0  0  0  0  0  0  0  0
    5.7258  -12.5031   26.2622 C   0  0  0  0  0  0  0  0  0  0  0  0
    6.9569  -12.0088   26.6865 C   0  0  0  0  0  0  0  0  0  0  0  0
    7.9544  -12.9189   27.0239 C   0  0  0  0  0  0  0  0  0  0  0  0
    7.7010  -14.2700   26.9306 C   0  0  0  0  0  0  0  0  0  0  0  0
    7.6235  -16.5712   24.3811 C   0  0  0  0  0  0  0  0  0  0  0  0
    8.4135  -17.5374   24.5008 O   0  0  0  0  0  0  0  0  0  0  0  0
    8.1031  -15.4320   23.6629 N   0  0  0  0  0  0  0  0  0  0  0  0
    9.3590  -15.3894   22.9773 C   0  0  1  0  0  0  0  0  0  0  0  0
    9.3903  -14.2350   22.0231 C   0  0  0  0  0  0  0  0  0  0  0  0
    8.0105  -14.1995   20.8765 S   0  0  0  0  0  0  0  0  0  0  0  0
   10.5218  -15.4170   23.9003 C   0  0  0  0  0  0  0  0  0  0  0  0
   11.7006  -15.3883   23.4595 O   0  0  0  0  0  0  0  0  0  0  0  0
   11.2887  -14.7866   27.4984 C   0  0  0  0  0  0  0  0  0  0  0  0
   11.5196  -15.4634   26.1698 C   0  0  2  0  0  0  0  0  0  0  0  0
   10.3659  -15.4773   25.3298 N   0  0  0  0  0  0  0  0  0  0  0  0
   11.9685  -16.8357   26.4324 C   0  0  0  0  0  0  0  0  0  0  0  0
   11.3434  -17.8600   26.0312 O   0  0  0  0  0  0  0  0  0  0  0  0
   13.1333  -17.0341   27.1544 O   0  0  0  0  0  0  0  0  0  0  0  0
  2  1  1  1
  2 10  1  0
  3  2  1  0
  4  3  1  0
  4  5  2  0
  6  5  1  0
  7  6  2  0
  8  9  2  0
  8  7  1  0
  9  4  1  0
 10 11  2  0
 12 10  1  0
 12 13  1  0
 13 16  1  0
 13 14  1  1
 15 14  1  0
 16 17  2  0
 19 18  1  1
 19 21  1  0
 20 19  1  0
 20 16  1  0
 21 22  2  0
 21 23  1  0
M  END
$$$$
