GCL.pdb
     RDKit          3D

 19 18  0  0  1  0  0  0  0  0999 V2000
   28.5430  -22.3302  -15.6306 N   0  0  0  0  0  0  0  0  0  0  0  0
   27.9167  -21.1522  -15.1279 C   0  0  0  0  0  0  0  0  0  0  0  0
   26.8554  -21.4952  -14.1526 C   0  0  0  0  0  0  0  0  0  0  0  0
   25.9914  -22.3444  -14.4775 O   0  0  0  0  0  0  0  0  0  0  0  0
   26.7760  -20.9003  -12.8616 N   0  0  0  0  0  0  0  0  0  0  0  0
   25.7118  -21.2318  -11.9344 C   0  0  1  0  0  0  0  0  0  0  0  0
   26.1586  -20.7739  -10.5398 C   0  0  0  0  0  0  0  0  0  0  0  0
   24.9004  -21.0781   -9.3059 S   0  0  0  0  0  0  0  0  0  0  0  0
   24.4539  -20.5166  -12.2790 C   0  0  0  0  0  0  0  0  0  0  0  0
   24.4971  -19.2642  -12.3587 O   0  0  0  0  0  0  0  0  0  0  0  0
   22.6064  -18.7511  -15.3206 C   0  0  0  0  0  0  0  0  0  0  0  0
   22.4608  -20.2851  -15.2923 C   0  0  2  0  0  0  0  0  0  0  0  0
   22.0254  -20.7189  -16.6563 C   0  0  0  0  0  0  0  0  0  0  0  0
   21.5392  -20.6994  -14.2020 C   0  0  0  0  0  0  0  0  0  0  0  0
   22.0546  -20.3916  -12.8358 C   0  0  2  0  0  0  0  0  0  0  0  0
   23.2324  -21.1822  -12.5161 N   0  0  0  0  0  0  0  0  0  0  0  0
   21.0734  -20.6344  -11.7709 C   0  0  0  0  0  0  0  0  0  0  0  0
   20.0121  -19.7646  -11.5558 O   0  0  0  0  0  0  0  0  0  0  0  0
   21.1696  -21.6572  -11.0071 O   0  0  0  0  0  0  0  0  0  0  0  0
  1  2  1  0
  2  3  1  0
  3  4  2  0
  5  3  1  0
  5  6  1  0
  6  9  1  0
  6  7  1  1
  8  7  1  0
  9 10  2  0
 12 14  1  0
 12 11  1  6
 13 12  1  0
 15 14  1  6
 15 17  1  0
 16  9  1  0
 16 15  1  0
 17 19  2  0
 17 18  1  0
M  END
$$$$
