GCL.pdb
     RDKit          3D

 19 18  0  0  1  0  0  0  0  0999 V2000
   27.4779  -16.1554  -17.2384 N   0  0  0  0  0  0  0  0  0  0  0  0
   28.0347  -17.0394  -16.2682 C   0  0  0  0  0  0  0  0  0  0  0  0
   27.4486  -18.3945  -16.3925 C   0  0  0  0  0  0  0  0  0  0  0  0
   26.4675  -18.5579  -17.1566 O   0  0  0  0  0  0  0  0  0  0  0  0
   27.9535  -19.5189  -15.6800 N   0  0  0  0  0  0  0  0  0  0  0  0
   27.2811  -20.8031  -15.7083 C   0  0  1  0  0  0  0  0  0  0  0  0
   28.3137  -21.8529  -16.1393 C   0  0  0  0  0  0  0  0  0  0  0  0
   29.0010  -21.4871  -17.7493 S   0  0  0  0  0  0  0  0  0  0  0  0
   26.7724  -21.1754  -14.3610 C   0  0  0  0  0  0  0  0  0  0  0  0
   27.6149  -21.3508  -13.4465 O   0  0  0  0  0  0  0  0  0  0  0  0
   25.7868  -19.4667   -9.5910 C   0  0  0  0  0  0  0  0  0  0  0  0
   25.4344  -20.7636  -10.3454 C   0  0  2  0  0  0  0  0  0  0  0  0
   26.0851  -21.8966   -9.6166 C   0  0  0  0  0  0  0  0  0  0  0  0
   25.8286  -20.6567  -11.7746 C   0  0  0  0  0  0  0  0  0  0  0  0
   24.9844  -21.4794  -12.6897 C   0  0  2  0  0  0  0  0  0  0  0  0
   25.3997  -21.3365  -14.0759 N   0  0  0  0  0  0  0  0  0  0  0  0
   23.5569  -21.1408  -12.6329 C   0  0  0  0  0  0  0  0  0  0  0  0
   22.7342  -21.6483  -11.6355 O   0  0  0  0  0  0  0  0  0  0  0  0
   23.0281  -20.3671  -13.5050 O   0  0  0  0  0  0  0  0  0  0  0  0
  1  2  1  0
  2  3  1  0
  3  4  2  0
  5  3  1  0
  5  6  1  0
  6  9  1  0
  6  7  1  1
  8  7  1  0
  9 10  2  0
 12 14  1  0
 12 11  1  1
 13 12  1  0
 15 14  1  1
 15 17  1  0
 16  9  1  0
 16 15  1  0
 17 19  2  0
 17 18  1  0
M  END
$$$$
