GCL.pdb
     RDKit          3D

 19 18  0  0  1  0  0  0  0  0999 V2000
   23.9668  -25.6595  -15.0139 N   0  0  0  0  0  0  0  0  0  0  0  0
   23.4080  -24.8177  -14.0080 C   0  0  0  0  0  0  0  0  0  0  0  0
   23.2741  -23.4265  -14.5000 C   0  0  0  0  0  0  0  0  0  0  0  0
   23.8021  -23.1227  -15.5964 O   0  0  0  0  0  0  0  0  0  0  0  0
   22.5706  -22.4204  -13.7792 N   0  0  0  0  0  0  0  0  0  0  0  0
   22.5002  -21.0521  -14.2535 C   0  0  1  0  0  0  0  0  0  0  0  0
   21.2222  -20.4307  -13.6751 C   0  0  0  0  0  0  0  0  0  0  0  0
   21.0301  -20.8034  -11.9366 S   0  0  0  0  0  0  0  0  0  0  0  0
   23.6627  -20.2556  -13.7771 C   0  0  0  0  0  0  0  0  0  0  0  0
   23.4322  -19.2833  -13.0166 O   0  0  0  0  0  0  0  0  0  0  0  0
   25.3854  -19.7672  -10.5719 C   0  0  0  0  0  0  0  0  0  0  0  0
   25.8705  -21.0150  -11.3355 C   0  0  2  0  0  0  0  0  0  0  0  0
   26.5151  -21.9269  -10.3399 C   0  0  0  0  0  0  0  0  0  0  0  0
   26.7584  -20.6227  -12.4612 C   0  0  0  0  0  0  0  0  0  0  0  0
   26.0726  -19.8069  -13.5058 C   0  0  2  0  0  0  0  0  0  0  0  0
   24.9944  -20.5468  -14.1419 N   0  0  0  0  0  0  0  0  0  0  0  0
   26.9690  -19.3512  -14.5756 C   0  0  0  0  0  0  0  0  0  0  0  0
   28.0978  -18.5916  -14.2961 O   0  0  0  0  0  0  0  0  0  0  0  0
   26.7338  -19.6405  -15.8001 O   0  0  0  0  0  0  0  0  0  0  0  0
  1  2  1  0
  2  3  1  0
  3  4  2  0
  5  3  1  0
  5  6  1  0
  6  9  1  0
  6  7  1  1
  8  7  1  0
  9 10  2  0
 12 14  1  0
 12 11  1  1
 13 12  1  0
 15 14  1  1
 15 17  1  0
 16  9  1  0
 16 15  1  0
 17 19  2  0
 17 18  1  0
M  END
$$$$
