GCL.pdb
     RDKit          3D

 19 18  0  0  1  0  0  0  0  0999 V2000
   17.4709  -14.3408  -19.1797 N   0  0  0  0  0  0  0  0  0  0  0  0
   17.1227  -12.9986  -18.8481 C   0  0  0  0  0  0  0  0  0  0  0  0
   18.2402  -12.0743  -19.1516 C   0  0  0  0  0  0  0  0  0  0  0  0
   18.8008  -12.1551  -20.2707 O   0  0  0  0  0  0  0  0  0  0  0  0
   18.7037  -11.0979  -18.2250 N   0  0  0  0  0  0  0  0  0  0  0  0
   19.6836  -10.0971  -18.5995 C   0  0  1  0  0  0  0  0  0  0  0  0
   19.0730   -9.2562  -19.7282 C   0  0  0  0  0  0  0  0  0  0  0  0
   20.1384   -7.8982  -20.1960 S   0  0  0  0  0  0  0  0  0  0  0  0
   19.9935   -9.1927  -17.4599 C   0  0  0  0  0  0  0  0  0  0  0  0
   19.0340   -8.7863  -16.7591 O   0  0  0  0  0  0  0  0  0  0  0  0
   21.7835  -10.1355  -13.6896 C   0  0  0  0  0  0  0  0  0  0  0  0
   22.8396   -9.9252  -14.7922 C   0  0  2  0  0  0  0  0  0  0  0  0
   24.1561  -10.3770  -14.2434 C   0  0  0  0  0  0  0  0  0  0  0  0
   22.8300   -8.5138  -15.2583 C   0  0  0  0  0  0  0  0  0  0  0  0
   21.5374   -8.0988  -15.8781 C   0  0  2  0  0  0  0  0  0  0  0  0
   21.3050   -8.7805  -17.1413 N   0  0  0  0  0  0  0  0  0  0  0  0
   21.4523   -6.6579  -16.1466 C   0  0  0  0  0  0  0  0  0  0  0  0
   21.3290   -5.7376  -15.1136 O   0  0  0  0  0  0  0  0  0  0  0  0
   21.4877   -6.2078  -17.3444 O   0  0  0  0  0  0  0  0  0  0  0  0
  1  2  1  0
  2  3  1  0
  3  4  2  0
  5  3  1  0
  5  6  1  0
  6  9  1  0
  6  7  1  6
  8  7  1  0
  9 10  2  0
 12 14  1  0
 12 11  1  1
 13 12  1  0
 15 14  1  6
 15 17  1  0
 16  9  1  0
 16 15  1  0
 17 19  2  0
 17 18  1  0
M  END
$$$$
