KYP.pdb
     RDKit          3D

 29 30  0  0  1  0  0  0  0  0999 V2000
   11.5719  -16.7576   19.8067 N   0  0  0  0  0  0  0  0  0  0  0  0
   10.7002  -17.3574   20.7867 C   0  0  1  0  0  0  0  0  0  0  0  0
   11.2303  -18.7016   21.2632 C   0  0  0  0  0  0  0  0  0  0  0  0
   12.7122  -18.6667   21.4680 C   0  0  0  0  0  0  0  0  0  0  0  0
   13.3195  -19.9494   21.8924 C   0  0  0  0  0  0  0  0  0  0  0  0
   14.7979  -19.9388   22.1338 C   0  0  0  0  0  0  0  0  0  0  0  0
   15.2606  -21.2292   22.5158 N   0  0  0  0  0  0  0  0  0  0  0  0
   10.5386  -16.4617   21.9433 C   0  0  0  0  0  0  0  0  0  0  0  0
   11.4290  -15.6321   22.2975 O   0  0  0  0  0  0  0  0  0  0  0  0
    5.8249  -11.4239   27.6437 O   0  0  0  0  0  0  0  0  0  0  0  0
    6.2809  -12.3351   26.7006 C   0  0  0  0  0  0  0  0  0  0  0  0
    6.1132  -13.6804   26.9064 C   0  0  0  0  0  0  0  0  0  0  0  0
    6.5704  -14.5782   25.9631 C   0  0  0  0  0  0  0  0  0  0  0  0
    7.2057  -14.2059   24.7871 C   0  0  0  0  0  0  0  0  0  0  0  0
    7.6824  -15.1554   23.7830 C   0  0  0  0  0  0  0  0  0  0  0  0
    9.1320  -15.5303   23.8295 C   0  0  2  0  0  0  0  0  0  0  0  0
    9.3658  -16.4994   22.7082 N   0  0  0  0  0  0  0  0  0  0  0  0
    9.6242  -16.1720   25.0331 C   0  0  0  0  0  0  0  0  0  0  0  0
   10.0997  -17.3711   24.8861 O   0  0  0  0  0  0  0  0  0  0  0  0
    7.3527  -12.8219   24.6233 C   0  0  0  0  0  0  0  0  0  0  0  0
    6.9076  -11.9062   25.5460 C   0  0  0  0  0  0  0  0  0  0  0  0
    9.6783  -15.6994   26.3486 N   0  0  0  0  0  0  0  0  0  0  0  0
    8.9941  -14.5435   26.8818 C   0  0  0  0  0  0  0  0  0  0  0  0
   10.1493  -13.8372   27.5820 C   0  0  0  0  0  0  0  0  0  0  0  0
   11.1080  -14.9319   27.9888 C   0  0  0  0  0  0  0  0  0  0  0  0
   10.4448  -16.1868   27.4736 C   0  0  1  0  0  0  0  0  0  0  0  0
    9.6596  -16.8801   28.5008 C   0  0  0  0  0  0  0  0  0  0  0  0
   10.2783  -17.4121   29.4487 O   0  0  0  0  0  0  0  0  0  0  0  0
    8.2805  -17.0000   28.5173 O   0  0  0  0  0  0  0  0  0  0  0  0
  2  1  1  6
  2  3  1  0
  3  4  1  0
  4  5  1  0
  6  7  1  0
  6  5  1  0
  8  2  1  0
  8  9  2  0
 10 11  1  0
 11 21  2  0
 12 11  1  0
 12 13  2  0
 13 14  1  0
 14 20  2  0
 14 15  1  0
 16 15  1  1
 16 17  1  0
 17  8  1  0
 18 16  1  0
 19 18  2  0
 21 20  1  0
 22 18  1  0
 22 26  1  0
 23 24  1  0
 23 22  1  0
 24 25  1  0
 26 25  1  0
 27 29  1  0
 26 27  1  1
 28 27  2  0
M  END
$$$$
