KYP.pdb
     RDKit          3D

 29 30  0  0  1  0  0  0  0  0999 V2000
    4.0815  -20.3737   22.2611 N   0  0  0  0  0  0  0  0  0  0  0  0
    5.2306  -20.1781   23.1104 C   0  0  1  0  0  0  0  0  0  0  0  0
    6.4285  -20.9842   22.6305 C   0  0  0  0  0  0  0  0  0  0  0  0
    6.3466  -21.2703   21.1640 C   0  0  0  0  0  0  0  0  0  0  0  0
    7.4571  -22.0849   20.6185 C   0  0  0  0  0  0  0  0  0  0  0  0
    7.4917  -22.2523   19.1303 C   0  0  0  0  0  0  0  0  0  0  0  0
    8.7705  -21.9084   18.6090 N   0  0  0  0  0  0  0  0  0  0  0  0
    5.5932  -18.7525   23.1593 C   0  0  0  0  0  0  0  0  0  0  0  0
    5.3342  -17.9466   22.2159 O   0  0  0  0  0  0  0  0  0  0  0  0
    7.8197  -11.0075   27.0945 O   0  0  0  0  0  0  0  0  0  0  0  0
    7.5431  -12.3319   26.7831 C   0  0  0  0  0  0  0  0  0  0  0  0
    6.2552  -12.7985   26.8440 C   0  0  0  0  0  0  0  0  0  0  0  0
    5.9906  -14.1169   26.5330 C   0  0  0  0  0  0  0  0  0  0  0  0
    6.9629  -15.0304   26.1516 C   0  0  0  0  0  0  0  0  0  0  0  0
    6.6829  -16.4246   25.8133 C   0  0  0  0  0  0  0  0  0  0  0  0
    6.6253  -16.7776   24.3586 C   0  0  2  0  0  0  0  0  0  0  0  0
    6.2526  -18.2287   24.2785 N   0  0  0  0  0  0  0  0  0  0  0  0
    7.8382  -16.6238   23.5789 C   0  0  0  0  0  0  0  0  0  0  0  0
    8.5516  -17.6964   23.4173 O   0  0  0  0  0  0  0  0  0  0  0  0
    8.2615  -14.5055   26.1044 C   0  0  0  0  0  0  0  0  0  0  0  0
    8.5532  -13.1978   26.4091 C   0  0  0  0  0  0  0  0  0  0  0  0
    8.3709  -15.4907   22.9553 N   0  0  0  0  0  0  0  0  0  0  0  0
    7.9842  -14.1165   23.1804 C   0  0  0  0  0  0  0  0  0  0  0  0
    7.7798  -13.6482   21.7442 C   0  0  0  0  0  0  0  0  0  0  0  0
    8.7154  -14.4879   20.9061 C   0  0  0  0  0  0  0  0  0  0  0  0
    9.3744  -15.3936   21.9187 C   0  0  1  0  0  0  0  0  0  0  0  0
   10.6786  -14.8938   22.3678 C   0  0  0  0  0  0  0  0  0  0  0  0
   11.5851  -14.7779   21.5140 O   0  0  0  0  0  0  0  0  0  0  0  0
   11.0009  -14.5338   23.6652 O   0  0  0  0  0  0  0  0  0  0  0  0
  2  1  1  6
  2  3  1  0
  3  4  1  0
  4  5  1  0
  6  7  1  0
  6  5  1  0
  8  2  1  0
  8  9  2  0
 10 11  1  0
 11 21  2  0
 12 11  1  0
 12 13  2  0
 13 14  1  0
 14 20  2  0
 14 15  1  0
 16 15  1  1
 16 17  1  0
 17  8  1  0
 18 16  1  0
 19 18  2  0
 21 20  1  0
 22 18  1  0
 22 26  1  0
 23 24  1  0
 23 22  1  0
 24 25  1  0
 26 25  1  0
 27 29  1  0
 26 27  1  1
 28 27  2  0
M  END
$$$$
