KEM.pdb
     RDKit          3D

 27 26  0  0  1  0  0  0  0  0999 V2000
    5.9201  -16.6176   21.8269 N   0  0  0  0  0  0  0  0  0  0  0  0
    7.2686  -16.1707   21.6311 C   0  0  1  0  0  0  0  0  0  0  0  0
    7.4314  -14.7110   21.3772 C   0  0  0  0  0  0  0  0  0  0  0  0
    7.6427  -14.2979   19.9725 C   0  0  0  0  0  0  0  0  0  0  0  0
    8.0217  -12.8799   19.7398 C   0  0  0  0  0  0  0  0  0  0  0  0
    8.1656  -12.5242   18.2773 C   0  0  0  0  0  0  0  0  0  0  0  0
    8.8881  -13.5551   17.5496 N   0  0  0  0  0  0  0  0  0  0  0  0
    8.0924  -16.5133   22.8527 C   0  0  0  0  0  0  0  0  0  0  0  0
    7.5038  -16.4566   23.9789 O   0  0  0  0  0  0  0  0  0  0  0  0
    9.4463  -16.8772   22.7477 N   0  0  0  0  0  0  0  0  0  0  0  0
   10.2619  -17.2188   23.8529 C   0  0  1  0  0  0  0  0  0  0  0  0
   11.5773  -17.7498   23.3855 C   0  0  0  0  0  0  0  0  0  0  0  0
   12.3271  -18.2540   24.6138 C   0  0  0  0  0  0  0  0  0  0  0  0
   13.6630  -18.7732   24.2237 C   0  0  0  0  0  0  0  0  0  0  0  0
   14.6933  -18.4230   24.8496 O   0  0  0  0  0  0  0  0  0  0  0  0
   10.4175  -16.1492   24.8888 C   0  0  0  0  0  0  0  0  0  0  0  0
   10.8945  -15.0152   24.6931 O   0  0  0  0  0  0  0  0  0  0  0  0
   13.8063  -19.6529   23.1644 O   0  0  0  0  0  0  0  0  0  0  0  0
    6.3895  -12.1292   26.2599 C   0  0  0  0  0  0  0  0  0  0  0  0
    7.0532  -12.7150   27.8224 S   0  0  0  0  0  0  0  0  0  0  0  0
    8.7201  -13.3595   27.6123 C   0  0  0  0  0  0  0  0  0  0  0  0
    8.7749  -14.8301   27.4674 C   0  0  0  0  0  0  0  0  0  0  0  0
   10.1085  -15.4469   27.2601 C   0  0  2  0  0  0  0  0  0  0  0  0
    9.9745  -16.4905   26.1897 N   0  0  0  0  0  0  0  0  0  0  0  0
   10.7654  -16.0923   28.3881 C   0  0  0  0  0  0  0  0  0  0  0  0
   11.3778  -15.2989   29.3810 O   0  0  0  0  0  0  0  0  0  0  0  0
   10.8518  -17.3174   28.5839 O   0  0  0  0  0  0  0  0  0  0  0  0
  2  1  1  1
  3  2  1  0
  4  3  1  0
  4  5  1  0
  5  6  1  0
  7  6  1  0
  8  2  1  0
  8  9  2  0
 10  8  1  0
 11 10  1  0
 11 12  1  6
 12 13  1  0
 13 14  1  0
 14 18  1  0
 15 14  2  0
 16 11  1  0
 17 16  2  0
 20 19  1  0
 20 21  1  0
 21 22  1  0
 23 22  1  1
 23 24  1  0
 24 16  1  0
 25 23  1  0
 25 26  1  0
 27 25  2  0
M  END
$$$$
