KEM.pdb
     RDKit          3D

 27 26  0  0  1  0  0  0  0  0999 V2000
    6.1833  -17.3118   21.7889 N   0  0  0  0  0  0  0  0  0  0  0  0
    7.5684  -17.2834   21.4187 C   0  0  1  0  0  0  0  0  0  0  0  0
    7.9433  -16.2510   20.4111 C   0  0  0  0  0  0  0  0  0  0  0  0
    7.9300  -14.8424   20.8629 C   0  0  0  0  0  0  0  0  0  0  0  0
    8.1167  -13.8011   19.8192 C   0  0  0  0  0  0  0  0  0  0  0  0
    8.0606  -12.3889   20.3565 C   0  0  0  0  0  0  0  0  0  0  0  0
    8.1775  -11.4100   19.2876 N   0  0  0  0  0  0  0  0  0  0  0  0
    8.4116  -17.0418   22.6511 C   0  0  0  0  0  0  0  0  0  0  0  0
    7.8138  -16.5897   23.6787 O   0  0  0  0  0  0  0  0  0  0  0  0
    9.7927  -17.3046   22.6597 N   0  0  0  0  0  0  0  0  0  0  0  0
   10.6346  -17.0770   23.7745 C   0  0  1  0  0  0  0  0  0  0  0  0
   12.0696  -17.1354   23.3645 C   0  0  0  0  0  0  0  0  0  0  0  0
   12.9096  -17.0526   24.6343 C   0  0  0  0  0  0  0  0  0  0  0  0
   14.3556  -17.0405   24.2946 C   0  0  0  0  0  0  0  0  0  0  0  0
   15.0218  -18.1044   24.2946 O   0  0  0  0  0  0  0  0  0  0  0  0
   10.3221  -15.8498   24.5730 C   0  0  0  0  0  0  0  0  0  0  0  0
   10.4822  -14.6757   24.1891 O   0  0  0  0  0  0  0  0  0  0  0  0
   15.0036  -15.8608   23.9707 O   0  0  0  0  0  0  0  0  0  0  0  0
    5.9904  -12.5106   25.7212 C   0  0  0  0  0  0  0  0  0  0  0  0
    6.4886  -12.4784   27.4463 S   0  0  0  0  0  0  0  0  0  0  0  0
    8.1341  -13.1765   27.6540 C   0  0  0  0  0  0  0  0  0  0  0  0
    8.4248  -14.2971   26.7340 C   0  0  0  0  0  0  0  0  0  0  0  0
    9.7699  -14.9184   26.8178 C   0  0  2  0  0  0  0  0  0  0  0  0
    9.8023  -16.0814   25.8697 N   0  0  0  0  0  0  0  0  0  0  0  0
   10.2317  -15.4197   28.1046 C   0  0  0  0  0  0  0  0  0  0  0  0
   10.4505  -14.5141   29.1639 O   0  0  0  0  0  0  0  0  0  0  0  0
   10.4654  -16.6078   28.3880 O   0  0  0  0  0  0  0  0  0  0  0  0
  2  1  1  1
  3  2  1  0
  4  3  1  0
  4  5  1  0
  5  6  1  0
  7  6  1  0
  8  2  1  0
  8  9  2  0
 10  8  1  0
 11 10  1  0
 11 12  1  6
 12 13  1  0
 13 14  1  0
 14 18  1  0
 15 14  2  0
 16 11  1  0
 17 16  2  0
 20 19  1  0
 20 21  1  0
 21 22  1  0
 23 22  1  1
 23 24  1  0
 24 16  1  0
 25 23  1  0
 25 26  1  0
 27 25  2  0
M  END
$$$$
