KEM.pdb
     RDKit          3D

 27 26  0  0  1  0  0  0  0  0999 V2000
    9.7664  -14.8361   18.1366 N   0  0  0  0  0  0  0  0  0  0  0  0
    9.0971  -14.0292   19.1151 C   0  0  1  0  0  0  0  0  0  0  0  0
    7.7553  -13.5169   18.7167 C   0  0  0  0  0  0  0  0  0  0  0  0
    7.1696  -14.0739   17.4777 C   0  0  0  0  0  0  0  0  0  0  0  0
    7.9961  -13.9849   16.2458 C   0  0  0  0  0  0  0  0  0  0  0  0
    7.3262  -14.5719   15.0240 C   0  0  0  0  0  0  0  0  0  0  0  0
    8.1688  -14.4464   13.8457 N   0  0  0  0  0  0  0  0  0  0  0  0
    8.9181  -14.8290   20.3866 C   0  0  0  0  0  0  0  0  0  0  0  0
    7.9173  -14.5366   21.1150 O   0  0  0  0  0  0  0  0  0  0  0  0
    9.8172  -15.8482   20.7465 N   0  0  0  0  0  0  0  0  0  0  0  0
    9.6800  -16.6523   21.9031 C   0  0  1  0  0  0  0  0  0  0  0  0
   10.6453  -17.7914   21.8634 C   0  0  0  0  0  0  0  0  0  0  0  0
   10.3434  -18.6004   20.6067 C   0  0  0  0  0  0  0  0  0  0  0  0
   11.3585  -19.6698   20.4273 C   0  0  0  0  0  0  0  0  0  0  0  0
   12.3105  -19.7908   21.2366 O   0  0  0  0  0  0  0  0  0  0  0  0
    9.7260  -15.9147   23.2051 C   0  0  0  0  0  0  0  0  0  0  0  0
   10.6185  -15.1198   23.5560 O   0  0  0  0  0  0  0  0  0  0  0  0
   11.2818  -20.5573   19.3675 O   0  0  0  0  0  0  0  0  0  0  0  0
    6.6071  -10.9485   27.5612 C   0  0  0  0  0  0  0  0  0  0  0  0
    6.8776  -11.8914   26.0568 S   0  0  0  0  0  0  0  0  0  0  0  0
    7.0244  -13.6485   26.4163 C   0  0  0  0  0  0  0  0  0  0  0  0
    7.3708  -14.4697   25.2364 C   0  0  0  0  0  0  0  0  0  0  0  0
    8.5702  -15.3377   25.3365 C   0  0  2  0  0  0  0  0  0  0  0  0
    8.6474  -16.1663   24.0874 N   0  0  0  0  0  0  0  0  0  0  0  0
    8.6740  -16.2640   26.4553 C   0  0  0  0  0  0  0  0  0  0  0  0
    8.8791  -15.7596   27.7567 O   0  0  0  0  0  0  0  0  0  0  0  0
    8.5991  -17.5036   26.3907 O   0  0  0  0  0  0  0  0  0  0  0  0
  2  1  1  6
  3  2  1  0
  4  3  1  0
  4  5  1  0
  5  6  1  0
  7  6  1  0
  8  2  1  0
  8  9  2  0
 10  8  1  0
 11 10  1  0
 11 12  1  1
 12 13  1  0
 13 14  1  0
 14 18  1  0
 15 14  2  0
 16 11  1  0
 17 16  2  0
 20 19  1  0
 20 21  1  0
 21 22  1  0
 23 22  1  1
 23 24  1  0
 24 16  1  0
 25 23  1  0
 25 26  1  0
 27 25  2  0
M  END
$$$$
