KEM.pdb
     RDKit          3D

 27 26  0  0  1  0  0  0  0  0999 V2000
    7.0152  -16.9863   20.5641 N   0  0  0  0  0  0  0  0  0  0  0  0
    8.2129  -16.2850   20.9246 C   0  0  1  0  0  0  0  0  0  0  0  0
    8.1555  -14.8019   20.7867 C   0  0  0  0  0  0  0  0  0  0  0  0
    8.3319  -14.2515   19.4249 C   0  0  0  0  0  0  0  0  0  0  0  0
    8.2416  -12.7751   19.2810 C   0  0  0  0  0  0  0  0  0  0  0  0
    8.5126  -12.2864   17.8760 C   0  0  0  0  0  0  0  0  0  0  0  0
    7.9976  -13.2153   16.8830 N   0  0  0  0  0  0  0  0  0  0  0  0
    8.5603  -16.5935   22.3642 C   0  0  0  0  0  0  0  0  0  0  0  0
    7.6426  -16.4213   23.2279 O   0  0  0  0  0  0  0  0  0  0  0  0
    9.8390  -17.0491   22.7303 N   0  0  0  0  0  0  0  0  0  0  0  0
   10.2311  -17.3194   24.0631 C   0  0  1  0  0  0  0  0  0  0  0  0
   11.3994  -18.2496   24.0842 C   0  0  0  0  0  0  0  0  0  0  0  0
   11.6735  -18.6032   25.5419 C   0  0  0  0  0  0  0  0  0  0  0  0
   12.8837  -19.4584   25.6449 C   0  0  0  0  0  0  0  0  0  0  0  0
   13.9933  -19.0505   25.2226 O   0  0  0  0  0  0  0  0  0  0  0  0
   10.4502  -16.1137   24.9233 C   0  0  0  0  0  0  0  0  0  0  0  0
   11.1402  -15.1224   24.6186 O   0  0  0  0  0  0  0  0  0  0  0  0
   12.8200  -20.7219   26.2069 O   0  0  0  0  0  0  0  0  0  0  0  0
    5.7053  -13.1189   26.6744 C   0  0  0  0  0  0  0  0  0  0  0  0
    6.9400  -12.0460   27.4157 S   0  0  0  0  0  0  0  0  0  0  0  0
    8.4620  -12.9479   27.7448 C   0  0  0  0  0  0  0  0  0  0  0  0
    8.6171  -14.1703   26.9274 C   0  0  0  0  0  0  0  0  0  0  0  0
    9.9030  -14.9036   27.0322 C   0  0  2  0  0  0  0  0  0  0  0  0
    9.8031  -16.1368   26.1826 N   0  0  0  0  0  0  0  0  0  0  0  0
   10.3558  -15.3406   28.3454 C   0  0  0  0  0  0  0  0  0  0  0  0
   10.7340  -14.3778   29.3047 O   0  0  0  0  0  0  0  0  0  0  0  0
   10.4513  -16.5181   28.7341 O   0  0  0  0  0  0  0  0  0  0  0  0
  2  1  1  1
  3  2  1  0
  4  3  1  0
  4  5  1  0
  5  6  1  0
  7  6  1  0
  8  2  1  0
  8  9  2  0
 10  8  1  0
 11 10  1  0
 11 12  1  6
 12 13  1  0
 13 14  1  0
 14 18  1  0
 15 14  2  0
 16 11  1  0
 17 16  2  0
 20 19  1  0
 20 21  1  0
 21 22  1  0
 23 22  1  1
 23 24  1  0
 24 16  1  0
 25 23  1  0
 25 26  1  0
 27 25  2  0
M  END
$$$$
