KEM.pdb
     RDKit          3D

 27 26  0  0  1  0  0  0  0  0999 V2000
    7.2139  -17.3268   20.5038 N   0  0  0  0  0  0  0  0  0  0  0  0
    8.3468  -16.5200   20.8528 C   0  0  1  0  0  0  0  0  0  0  0  0
    8.1062  -15.0491   20.8744 C   0  0  0  0  0  0  0  0  0  0  0  0
    8.1661  -14.3445   19.5750 C   0  0  0  0  0  0  0  0  0  0  0  0
    8.0421  -12.8639   19.6082 C   0  0  0  0  0  0  0  0  0  0  0  0
    8.1052  -12.2206   18.2413 C   0  0  0  0  0  0  0  0  0  0  0  0
    7.6731  -13.1409   17.2018 N   0  0  0  0  0  0  0  0  0  0  0  0
    8.8422  -16.9187   22.2254 C   0  0  0  0  0  0  0  0  0  0  0  0
    7.9606  -17.1220   23.1194 O   0  0  0  0  0  0  0  0  0  0  0  0
   10.2140  -17.0576   22.5000 N   0  0  0  0  0  0  0  0  0  0  0  0
   10.7366  -17.3898   23.7727 C   0  0  1  0  0  0  0  0  0  0  0  0
   12.0860  -18.0151   23.6350 C   0  0  0  0  0  0  0  0  0  0  0  0
   12.5015  -18.5099   25.0162 C   0  0  0  0  0  0  0  0  0  0  0  0
   13.8160  -19.1976   24.9422 C   0  0  0  0  0  0  0  0  0  0  0  0
   14.2290  -19.6733   23.8564 O   0  0  0  0  0  0  0  0  0  0  0  0
   10.7249  -16.2814   24.7790 C   0  0  0  0  0  0  0  0  0  0  0  0
   11.3138  -15.1901   24.6613 O   0  0  0  0  0  0  0  0  0  0  0  0
   14.6165  -19.3315   26.0637 O   0  0  0  0  0  0  0  0  0  0  0  0
    6.4029  -11.2235   26.1595 C   0  0  0  0  0  0  0  0  0  0  0  0
    6.5525  -12.9656   26.5698 S   0  0  0  0  0  0  0  0  0  0  0  0
    8.2775  -13.4776   26.5835 C   0  0  0  0  0  0  0  0  0  0  0  0
    8.4714  -14.9042   26.9209 C   0  0  0  0  0  0  0  0  0  0  0  0
    9.8641  -15.4157   26.9518 C   0  0  2  0  0  0  0  0  0  0  0  0
    9.9704  -16.5294   25.9513 N   0  0  0  0  0  0  0  0  0  0  0  0
   10.3932  -15.9333   28.2059 C   0  0  0  0  0  0  0  0  0  0  0  0
   10.8680  -15.0329   29.1827 O   0  0  0  0  0  0  0  0  0  0  0  0
   10.4778  -17.1316   28.5274 O   0  0  0  0  0  0  0  0  0  0  0  0
  2  1  1  1
  3  2  1  0
  4  3  1  0
  4  5  1  0
  5  6  1  0
  7  6  1  0
  8  2  1  0
  8  9  2  0
 10  8  1  0
 11 10  1  0
 11 12  1  6
 12 13  1  0
 13 14  1  0
 14 18  1  0
 15 14  2  0
 16 11  1  0
 17 16  2  0
 20 19  1  0
 20 21  1  0
 21 22  1  0
 23 22  1  1
 23 24  1  0
 24 16  1  0
 25 23  1  0
 25 26  1  0
 27 25  2  0
M  END
$$$$
