KEM.pdb
     RDKit          3D

 27 26  0  0  1  0  0  0  0  0999 V2000
   10.2007  -14.1998   18.5965 N   0  0  0  0  0  0  0  0  0  0  0  0
    9.1352  -13.7772   19.4582 C   0  0  1  0  0  0  0  0  0  0  0  0
    7.7977  -13.6516   18.8123 C   0  0  0  0  0  0  0  0  0  0  0  0
    7.7820  -13.3965   17.3553 C   0  0  0  0  0  0  0  0  0  0  0  0
    7.8816  -14.5823   16.4652 C   0  0  0  0  0  0  0  0  0  0  0  0
    7.8441  -14.2390   14.9931 C   0  0  0  0  0  0  0  0  0  0  0  0
    9.0107  -14.7582   14.2977 N   0  0  0  0  0  0  0  0  0  0  0  0
    8.9965  -14.7578   20.6017 C   0  0  0  0  0  0  0  0  0  0  0  0
    7.9418  -14.6741   21.3076 O   0  0  0  0  0  0  0  0  0  0  0  0
    9.9883  -15.7170   20.8716 N   0  0  0  0  0  0  0  0  0  0  0  0
    9.9488  -16.6084   21.9703 C   0  0  1  0  0  0  0  0  0  0  0  0
   11.0378  -17.6243   21.8567 C   0  0  0  0  0  0  0  0  0  0  0  0
   11.2172  -17.9355   20.3748 C   0  0  0  0  0  0  0  0  0  0  0  0
   12.3573  -18.8673   20.1793 C   0  0  0  0  0  0  0  0  0  0  0  0
   13.4989  -18.5824   20.6168 O   0  0  0  0  0  0  0  0  0  0  0  0
    9.9157  -15.9606   23.3197 C   0  0  0  0  0  0  0  0  0  0  0  0
   10.8475  -15.3151   23.8362 O   0  0  0  0  0  0  0  0  0  0  0  0
   12.1916  -20.0691   19.5125 O   0  0  0  0  0  0  0  0  0  0  0  0
    6.2658  -11.1297   27.5377 C   0  0  0  0  0  0  0  0  0  0  0  0
    6.6183  -12.0450   26.0333 S   0  0  0  0  0  0  0  0  0  0  0  0
    6.8159  -13.7999   26.3791 C   0  0  0  0  0  0  0  0  0  0  0  0
    7.2383  -14.5932   25.2048 C   0  0  0  0  0  0  0  0  0  0  0  0
    8.5405  -15.2997   25.2903 C   0  0  2  0  0  0  0  0  0  0  0  0
    8.7073  -16.1152   24.0414 N   0  0  0  0  0  0  0  0  0  0  0  0
    8.7766  -16.2017   26.4089 C   0  0  0  0  0  0  0  0  0  0  0  0
    9.1168  -15.6686   27.6700 O   0  0  0  0  0  0  0  0  0  0  0  0
    8.7096  -17.4430   26.3770 O   0  0  0  0  0  0  0  0  0  0  0  0
  2  1  1  6
  3  2  1  0
  4  3  1  0
  4  5  1  0
  5  6  1  0
  7  6  1  0
  8  2  1  0
  8  9  2  0
 10  8  1  0
 11 10  1  0
 11 12  1  1
 12 13  1  0
 13 14  1  0
 14 18  1  0
 15 14  2  0
 16 11  1  0
 17 16  2  0
 20 19  1  0
 20 21  1  0
 21 22  1  0
 23 22  1  1
 23 24  1  0
 24 16  1  0
 25 23  1  0
 25 26  1  0
 27 25  2  0
M  END
$$$$
