KEM.pdb
     RDKit          3D

 27 26  0  0  1  0  0  0  0  0999 V2000
    7.0131  -17.3937   19.4739 N   0  0  0  0  0  0  0  0  0  0  0  0
    7.7601  -16.3158   20.0539 C   0  0  1  0  0  0  0  0  0  0  0  0
    6.9707  -15.0994   20.3988 C   0  0  0  0  0  0  0  0  0  0  0  0
    7.0558  -13.9604   19.4587 C   0  0  0  0  0  0  0  0  0  0  0  0
    8.3950  -13.6586   18.8896 C   0  0  0  0  0  0  0  0  0  0  0  0
    8.4357  -12.3800   18.0833 C   0  0  0  0  0  0  0  0  0  0  0  0
    9.7513  -12.1602   17.5043 N   0  0  0  0  0  0  0  0  0  0  0  0
    8.4305  -16.7961   21.3220 C   0  0  0  0  0  0  0  0  0  0  0  0
    7.6831  -17.3283   22.2029 O   0  0  0  0  0  0  0  0  0  0  0  0
    9.8161  -16.6599   21.5177 N   0  0  0  0  0  0  0  0  0  0  0  0
   10.4663  -16.8845   22.7546 C   0  0  1  0  0  0  0  0  0  0  0  0
   11.9470  -16.9320   22.5640 C   0  0  0  0  0  0  0  0  0  0  0  0
   12.2425  -18.0511   21.5714 C   0  0  0  0  0  0  0  0  0  0  0  0
   13.6507  -17.9676   21.1063 C   0  0  0  0  0  0  0  0  0  0  0  0
   13.9844  -18.4332   19.9894 O   0  0  0  0  0  0  0  0  0  0  0  0
   10.0665  -15.9632   23.8649 C   0  0  0  0  0  0  0  0  0  0  0  0
   10.2581  -14.7326   23.8894 O   0  0  0  0  0  0  0  0  0  0  0  0
   14.6278  -17.3765   21.8890 O   0  0  0  0  0  0  0  0  0  0  0  0
    6.2726  -11.9062   27.8096 C   0  0  0  0  0  0  0  0  0  0  0  0
    7.2791  -12.9008   26.7037 S   0  0  0  0  0  0  0  0  0  0  0  0
    6.6181  -14.5681   26.5567 C   0  0  0  0  0  0  0  0  0  0  0  0
    7.4042  -15.4422   25.6596 C   0  0  0  0  0  0  0  0  0  0  0  0
    8.8276  -15.6755   26.0083 C   0  0  2  0  0  0  0  0  0  0  0  0
    9.4181  -16.5772   24.9638 N   0  0  0  0  0  0  0  0  0  0  0  0
    9.1448  -16.2721   27.2982 C   0  0  0  0  0  0  0  0  0  0  0  0
    9.2208  -15.4505   28.4426 O   0  0  0  0  0  0  0  0  0  0  0  0
    9.3662  -17.4765   27.5149 O   0  0  0  0  0  0  0  0  0  0  0  0
  2  1  1  1
  3  2  1  0
  4  3  1  0
  4  5  1  0
  5  6  1  0
  7  6  1  0
  8  2  1  0
  8  9  2  0
 10  8  1  0
 11 10  1  0
 11 12  1  6
 12 13  1  0
 13 14  1  0
 14 18  1  0
 15 14  2  0
 16 11  1  0
 17 16  2  0
 20 19  1  0
 20 21  1  0
 21 22  1  0
 23 22  1  6
 23 24  1  0
 24 16  1  0
 25 23  1  0
 25 26  1  0
 27 25  2  0
M  END
$$$$
