KEM.pdb
     RDKit          3D

 27 26  0  0  1  0  0  0  0  0999 V2000
    6.1658  -17.0775   20.6986 N   0  0  0  0  0  0  0  0  0  0  0  0
    7.2981  -16.2269   20.9234 C   0  0  1  0  0  0  0  0  0  0  0  0
    6.9813  -14.8049   21.2385 C   0  0  0  0  0  0  0  0  0  0  0  0
    6.9007  -13.8703   20.0947 C   0  0  0  0  0  0  0  0  0  0  0  0
    8.1402  -13.6758   19.2983 C   0  0  0  0  0  0  0  0  0  0  0  0
    7.9689  -12.7257   18.1345 C   0  0  0  0  0  0  0  0  0  0  0  0
    9.2304  -12.4936   17.4496 N   0  0  0  0  0  0  0  0  0  0  0  0
    8.1162  -16.7746   22.0719 C   0  0  0  0  0  0  0  0  0  0  0  0
    7.5015  -16.9947   23.1635 O   0  0  0  0  0  0  0  0  0  0  0  0
    9.4926  -17.0281   21.9386 N   0  0  0  0  0  0  0  0  0  0  0  0
   10.3466  -17.3489   23.0208 C   0  0  1  0  0  0  0  0  0  0  0  0
   11.6981  -17.7404   22.5200 C   0  0  0  0  0  0  0  0  0  0  0  0
   12.4892  -18.2699   23.7111 C   0  0  0  0  0  0  0  0  0  0  0  0
   13.8913  -18.5547   23.3117 C   0  0  0  0  0  0  0  0  0  0  0  0
   14.8449  -17.9235   23.8293 O   0  0  0  0  0  0  0  0  0  0  0  0
   10.4197  -16.3198   24.1058 C   0  0  0  0  0  0  0  0  0  0  0  0
   10.8755  -15.1673   23.9813 O   0  0  0  0  0  0  0  0  0  0  0  0
   14.1818  -19.5195   22.3623 O   0  0  0  0  0  0  0  0  0  0  0  0
    7.1183  -11.1530   27.7917 C   0  0  0  0  0  0  0  0  0  0  0  0
    7.3432  -12.4317   26.5508 S   0  0  0  0  0  0  0  0  0  0  0  0
    8.4423  -13.7242   27.1507 C   0  0  0  0  0  0  0  0  0  0  0  0
    8.7974  -14.7266   26.1232 C   0  0  0  0  0  0  0  0  0  0  0  0
    9.8729  -15.6937   26.4553 C   0  0  2  0  0  0  0  0  0  0  0  0
    9.9194  -16.7259   25.3667 N   0  0  0  0  0  0  0  0  0  0  0  0
    9.7966  -16.4220   27.7140 C   0  0  0  0  0  0  0  0  0  0  0  0
    9.3166  -17.7486   27.7199 O   0  0  0  0  0  0  0  0  0  0  0  0
   10.1207  -15.9880   28.8334 O   0  0  0  0  0  0  0  0  0  0  0  0
  2  1  1  1
  3  2  1  0
  4  3  1  0
  4  5  1  0
  5  6  1  0
  7  6  1  0
  8  2  1  0
  8  9  2  0
 10  8  1  0
 11 10  1  0
 11 12  1  6
 12 13  1  0
 13 14  1  0
 14 18  1  0
 15 14  2  0
 16 11  1  0
 17 16  2  0
 20 19  1  0
 20 21  1  0
 21 22  1  0
 23 22  1  6
 23 24  1  0
 24 16  1  0
 25 23  1  0
 25 26  1  0
 27 25  2  0
M  END
$$$$
