KEM.pdb
     RDKit          3D

 27 26  0  0  1  0  0  0  0  0999 V2000
    7.2427  -17.0418   20.1693 N   0  0  0  0  0  0  0  0  0  0  0  0
    8.1428  -16.0026   20.5771 C   0  0  1  0  0  0  0  0  0  0  0  0
    7.5602  -14.6317   20.6296 C   0  0  0  0  0  0  0  0  0  0  0  0
    7.0865  -14.0589   19.3505 C   0  0  0  0  0  0  0  0  0  0  0  0
    7.9913  -14.1927   18.1793 C   0  0  0  0  0  0  0  0  0  0  0  0
    7.4126  -13.6312   16.9002 C   0  0  0  0  0  0  0  0  0  0  0  0
    7.7756  -12.2345   16.7225 N   0  0  0  0  0  0  0  0  0  0  0  0
    8.6826  -16.3191   21.9543 C   0  0  0  0  0  0  0  0  0  0  0  0
    7.8589  -16.2666   22.9221 O   0  0  0  0  0  0  0  0  0  0  0  0
   10.0329  -16.6553   22.1550 N   0  0  0  0  0  0  0  0  0  0  0  0
   10.5945  -16.9541   23.4194 C   0  0  1  0  0  0  0  0  0  0  0  0
   12.0222  -17.3669   23.2712 C   0  0  0  0  0  0  0  0  0  0  0  0
   12.0447  -18.6288   22.4155 C   0  0  0  0  0  0  0  0  0  0  0  0
   13.4423  -19.0909   22.2172 C   0  0  0  0  0  0  0  0  0  0  0  0
   13.6872  -20.1114   21.5284 O   0  0  0  0  0  0  0  0  0  0  0  0
   10.4148  -15.8983   24.4656 C   0  0  0  0  0  0  0  0  0  0  0  0
   10.5076  -14.6702   24.2786 O   0  0  0  0  0  0  0  0  0  0  0  0
   14.5068  -18.4114   22.7842 O   0  0  0  0  0  0  0  0  0  0  0  0
    7.2699  -11.4993   25.5395 C   0  0  0  0  0  0  0  0  0  0  0  0
    6.6847  -12.6741   26.7654 S   0  0  0  0  0  0  0  0  0  0  0  0
    8.0438  -13.6613   27.4107 C   0  0  0  0  0  0  0  0  0  0  0  0
    8.6513  -14.5633   26.4088 C   0  0  0  0  0  0  0  0  0  0  0  0
    9.8397  -15.3475   26.8272 C   0  0  2  0  0  0  0  0  0  0  0  0
   10.1151  -16.3723   25.7658 N   0  0  0  0  0  0  0  0  0  0  0  0
    9.7961  -16.0644   28.0940 C   0  0  0  0  0  0  0  0  0  0  0  0
    9.9303  -17.4687   28.1014 O   0  0  0  0  0  0  0  0  0  0  0  0
    9.6471  -15.5567   29.2194 O   0  0  0  0  0  0  0  0  0  0  0  0
  2  1  1  1
  3  2  1  0
  4  3  1  0
  4  5  1  0
  5  6  1  0
  7  6  1  0
  8  2  1  0
  8  9  2  0
 10  8  1  0
 11 10  1  0
 11 12  1  6
 12 13  1  0
 13 14  1  0
 14 18  1  0
 15 14  2  0
 16 11  1  0
 17 16  2  0
 20 19  1  0
 20 21  1  0
 21 22  1  0
 23 22  1  6
 23 24  1  0
 24 16  1  0
 25 23  1  0
 25 26  1  0
 27 25  2  0
M  END
$$$$
