EKA.pdb
     RDKit          3D

 24 23  0  0  1  0  0  0  0  0999 V2000
   12.1818  -14.9845   16.1790 N   0  0  0  0  0  0  0  0  0  0  0  0
   12.8008  -16.0793   16.9624 C   0  0  1  0  0  0  0  0  0  0  0  0
   14.1625  -15.6299   17.3746 C   0  0  0  0  0  0  0  0  0  0  0  0
   14.2876  -14.2513   17.9060 C   0  0  0  0  0  0  0  0  0  0  0  0
   15.6409  -13.8965   18.3883 C   0  0  0  0  0  0  0  0  0  0  0  0
   16.4278  -13.2797   17.6363 O   0  0  0  0  0  0  0  0  0  0  0  0
   11.9063  -16.3907   18.1177 C   0  0  0  0  0  0  0  0  0  0  0  0
   11.0877  -15.4954   18.5189 O   0  0  0  0  0  0  0  0  0  0  0  0
   16.0374  -14.2528   19.6875 O   0  0  0  0  0  0  0  0  0  0  0  0
   11.8876  -17.6141   18.8146 N   0  0  0  0  0  0  0  0  0  0  0  0
   10.9224  -17.8630   19.9095 C   0  0  1  0  0  0  0  0  0  0  0  0
   10.8017  -19.3828   19.9171 C   0  0  0  0  0  0  0  0  0  0  0  0
    9.6691  -19.9363   19.1647 C   0  0  0  0  0  0  0  0  0  0  0  0
    9.6857  -21.4345   19.1300 C   0  0  0  0  0  0  0  0  0  0  0  0
    8.5829  -22.1156   18.4025 C   0  0  0  0  0  0  0  0  0  0  0  0
    8.6568  -23.5413   18.3535 N   0  0  0  0  0  0  0  0  0  0  0  0
   11.4404  -17.2847   21.1408 C   0  0  0  0  0  0  0  0  0  0  0  0
   12.7097  -17.2801   21.3379 O   0  0  0  0  0  0  0  0  0  0  0  0
   10.2804  -15.3905   24.2026 C   0  0  0  0  0  0  0  0  0  0  0  0
   11.2958  -16.1668   23.3960 C   0  0  2  0  0  0  0  0  0  0  0  0
   10.7017  -16.7012   22.1893 N   0  0  0  0  0  0  0  0  0  0  0  0
   11.8999  -17.1785   24.2500 C   0  0  0  0  0  0  0  0  0  0  0  0
   12.6485  -16.8573   25.1976 O   0  0  0  0  0  0  0  0  0  0  0  0
   11.6556  -18.5176   24.0273 O   0  0  0  0  0  0  0  0  0  0  0  0
  2  1  1  1
  2  7  1  0
  2  3  1  0
  3  4  1  0
  4  5  1  0
  5  9  1  0
  6  5  2  0
  7  8  2  0
 10 11  1  0
 10  7  1  0
 11 12  1  1
 12 13  1  0
 13 14  1  0
 14 15  1  0
 16 15  1  0
 17 18  2  0
 17 11  1  0
 20 19  1  1
 20 21  1  0
 21 17  1  0
 22 20  1  0
 22 24  1  0
 23 22  2  0
M  END
$$$$
