EKA.pdb
     RDKit          3D

 24 23  0  0  1  0  0  0  0  0999 V2000
    9.8668  -16.8888   19.9930 N   0  0  0  0  0  0  0  0  0  0  0  0
   10.5261  -17.4034   21.2161 C   0  0  1  0  0  0  0  0  0  0  0  0
   11.8985  -16.8208   21.2724 C   0  0  0  0  0  0  0  0  0  0  0  0
   12.9033  -17.3644   20.3272 C   0  0  0  0  0  0  0  0  0  0  0  0
   14.2559  -16.7790   20.4605 C   0  0  0  0  0  0  0  0  0  0  0  0
   14.9724  -17.0842   21.4396 O   0  0  0  0  0  0  0  0  0  0  0  0
    9.6802  -17.0378   22.3920 C   0  0  0  0  0  0  0  0  0  0  0  0
    8.8749  -16.0514   22.2857 O   0  0  0  0  0  0  0  0  0  0  0  0
   14.7306  -15.8836   19.4885 O   0  0  0  0  0  0  0  0  0  0  0  0
    9.6944  -17.7040   23.6323 N   0  0  0  0  0  0  0  0  0  0  0  0
    8.7950  -17.2976   24.7361 C   0  0  1  0  0  0  0  0  0  0  0  0
    8.4142  -18.6299   25.3721 C   0  0  0  0  0  0  0  0  0  0  0  0
    7.6471  -18.5443   26.6209 C   0  0  0  0  0  0  0  0  0  0  0  0
    7.4000  -19.8905   27.2313 C   0  0  0  0  0  0  0  0  0  0  0  0
    6.6310  -19.9360   28.5026 C   0  0  0  0  0  0  0  0  0  0  0  0
    6.3647  -21.2395   29.0226 N   0  0  0  0  0  0  0  0  0  0  0  0
    9.5057  -16.3813   25.6159 C   0  0  0  0  0  0  0  0  0  0  0  0
   10.7491  -16.5936   25.8589 O   0  0  0  0  0  0  0  0  0  0  0  0
    9.0216  -13.1040   27.4375 C   0  0  0  0  0  0  0  0  0  0  0  0
    9.7640  -14.3852   27.1342 C   0  0  2  0  0  0  0  0  0  0  0  0
    8.9885  -15.2408   26.2619 N   0  0  0  0  0  0  0  0  0  0  0  0
   10.1433  -15.0166   28.3893 C   0  0  0  0  0  0  0  0  0  0  0  0
    9.6630  -16.1201   28.7255 O   0  0  0  0  0  0  0  0  0  0  0  0
   11.0449  -14.4047   29.2350 O   0  0  0  0  0  0  0  0  0  0  0  0
  2  1  1  6
  2  7  1  0
  2  3  1  0
  3  4  1  0
  4  5  1  0
  5  9  1  0
  6  5  2  0
  7  8  2  0
 10 11  1  0
 10  7  1  0
 11 12  1  1
 12 13  1  0
 13 14  1  0
 14 15  1  0
 16 15  1  0
 17 18  2  0
 17 11  1  0
 20 19  1  1
 20 21  1  0
 21 17  1  0
 22 20  1  0
 22 24  1  0
 23 22  2  0
M  END
$$$$
