EKA.pdb
     RDKit          3D

 24 23  0  0  1  0  0  0  0  0999 V2000
    8.8955  -13.2801   18.3736 N   0  0  0  0  0  0  0  0  0  0  0  0
    9.1321  -14.7104   18.6798 C   0  0  1  0  0  0  0  0  0  0  0  0
   10.6052  -14.9448   18.6470 C   0  0  0  0  0  0  0  0  0  0  0  0
   11.4732  -13.8694   19.1840 C   0  0  0  0  0  0  0  0  0  0  0  0
   12.9235  -14.1565   19.1184 C   0  0  0  0  0  0  0  0  0  0  0  0
   13.6802  -13.3952   18.4758 O   0  0  0  0  0  0  0  0  0  0  0  0
    8.5150  -15.0125   20.0064 C   0  0  0  0  0  0  0  0  0  0  0  0
    8.2011  -14.0397   20.7730 O   0  0  0  0  0  0  0  0  0  0  0  0
   13.4455  -15.2817   19.7769 O   0  0  0  0  0  0  0  0  0  0  0  0
    8.2425  -16.3059   20.4918 N   0  0  0  0  0  0  0  0  0  0  0  0
    7.4130  -16.5169   21.7001 C   0  0  1  0  0  0  0  0  0  0  0  0
    7.0730  -18.0012   21.6236 C   0  0  0  0  0  0  0  0  0  0  0  0
    6.2976  -18.5366   22.7494 C   0  0  0  0  0  0  0  0  0  0  0  0
    5.9614  -19.9862   22.5716 C   0  0  0  0  0  0  0  0  0  0  0  0
    5.0869  -20.6175   23.5945 C   0  0  0  0  0  0  0  0  0  0  0  0
    4.9144  -22.0307   23.4792 N   0  0  0  0  0  0  0  0  0  0  0  0
    8.1765  -16.1245   22.8757 C   0  0  0  0  0  0  0  0  0  0  0  0
    9.4286  -16.4069   22.9248 O   0  0  0  0  0  0  0  0  0  0  0  0
    7.8562  -14.1710   26.0902 C   0  0  0  0  0  0  0  0  0  0  0  0
    8.4921  -15.2205   25.2080 C   0  0  2  0  0  0  0  0  0  0  0  0
    7.7037  -15.4433   24.0150 N   0  0  0  0  0  0  0  0  0  0  0  0
    8.7164  -16.4234   25.9959 C   0  0  0  0  0  0  0  0  0  0  0  0
    9.5348  -16.4309   26.9401 O   0  0  0  0  0  0  0  0  0  0  0  0
    8.0255  -17.5832   25.7127 O   0  0  0  0  0  0  0  0  0  0  0  0
  2  1  1  1
  2  7  1  0
  2  3  1  0
  3  4  1  0
  4  5  1  0
  5  9  1  0
  6  5  2  0
  7  8  2  0
 10 11  1  0
 10  7  1  0
 11 12  1  1
 12 13  1  0
 13 14  1  0
 14 15  1  0
 16 15  1  0
 17 18  2  0
 17 11  1  0
 20 19  1  1
 20 21  1  0
 21 17  1  0
 22 20  1  0
 22 24  1  0
 23 22  2  0
M  END
$$$$
