EKA.pdb
     RDKit          3D

 24 23  0  0  1  0  0  0  0  0999 V2000
   12.2103  -15.4605   19.0025 N   0  0  0  0  0  0  0  0  0  0  0  0
   12.1253  -16.6330   19.9044 C   0  0  1  0  0  0  0  0  0  0  0  0
   13.3180  -16.6050   20.8003 C   0  0  0  0  0  0  0  0  0  0  0  0
   14.4356  -15.7119   20.4107 C   0  0  0  0  0  0  0  0  0  0  0  0
   15.4474  -15.4923   21.4682 C   0  0  0  0  0  0  0  0  0  0  0  0
   15.3014  -16.0270   22.5897 O   0  0  0  0  0  0  0  0  0  0  0  0
   10.8290  -16.5608   20.6437 C   0  0  0  0  0  0  0  0  0  0  0  0
   10.2993  -15.4152   20.8431 O   0  0  0  0  0  0  0  0  0  0  0  0
   16.5671  -14.6851   21.2097 O   0  0  0  0  0  0  0  0  0  0  0  0
   10.1265  -17.6721   21.1476 N   0  0  0  0  0  0  0  0  0  0  0  0
    8.9028  -17.5050   21.9643 C   0  0  1  0  0  0  0  0  0  0  0  0
    8.2324  -18.8699   21.8549 C   0  0  0  0  0  0  0  0  0  0  0  0
    7.0531  -19.0712   22.7059 C   0  0  0  0  0  0  0  0  0  0  0  0
    6.4576  -20.4365   22.5410 C   0  0  0  0  0  0  0  0  0  0  0  0
    5.2177  -20.7402   23.3025 C   0  0  0  0  0  0  0  0  0  0  0  0
    4.6228  -22.0123   23.0413 N   0  0  0  0  0  0  0  0  0  0  0  0
    9.2818  -17.1166   23.3150 C   0  0  0  0  0  0  0  0  0  0  0  0
   10.2686  -17.7153   23.8788 O   0  0  0  0  0  0  0  0  0  0  0  0
    8.3910  -14.6136   26.0108 C   0  0  0  0  0  0  0  0  0  0  0  0
    9.0628  -15.8642   25.4922 C   0  0  2  0  0  0  0  0  0  0  0  0
    8.6853  -16.1255   24.1197 N   0  0  0  0  0  0  0  0  0  0  0  0
    8.7726  -16.9642   26.3998 C   0  0  0  0  0  0  0  0  0  0  0  0
    9.2994  -17.0208   27.5315 O   0  0  0  0  0  0  0  0  0  0  0  0
    7.9057  -17.9694   26.0248 O   0  0  0  0  0  0  0  0  0  0  0  0
  2  1  1  6
  2  7  1  0
  2  3  1  0
  3  4  1  0
  4  5  1  0
  5  9  1  0
  6  5  2  0
  7  8  2  0
 10 11  1  0
 10  7  1  0
 11 12  1  1
 12 13  1  0
 13 14  1  0
 14 15  1  0
 16 15  1  0
 17 18  2  0
 17 11  1  0
 20 19  1  1
 20 21  1  0
 21 17  1  0
 22 20  1  0
 22 24  1  0
 23 22  2  0
M  END
$$$$
