EKA.pdb
     RDKit          3D

 24 23  0  0  1  0  0  0  0  0999 V2000
    9.3375  -15.9571   20.2758 N   0  0  0  0  0  0  0  0  0  0  0  0
    9.7286  -17.0227   21.2280 C   0  0  1  0  0  0  0  0  0  0  0  0
   11.2160  -17.0055   21.3440 C   0  0  0  0  0  0  0  0  0  0  0  0
   11.8277  -15.8393   22.0252 C   0  0  0  0  0  0  0  0  0  0  0  0
   13.2970  -15.9181   22.1837 C   0  0  0  0  0  0  0  0  0  0  0  0
   13.8133  -15.7203   23.3060 O   0  0  0  0  0  0  0  0  0  0  0  0
    9.0317  -16.7692   22.5250 C   0  0  0  0  0  0  0  0  0  0  0  0
    8.5216  -15.6162   22.7324 O   0  0  0  0  0  0  0  0  0  0  0  0
   14.1064  -16.2145   21.0751 O   0  0  0  0  0  0  0  0  0  0  0  0
    8.8849  -17.7143   23.5584 N   0  0  0  0  0  0  0  0  0  0  0  0
    8.1634  -17.3839   24.8084 C   0  0  1  0  0  0  0  0  0  0  0  0
    7.9481  -18.7512   25.4478 C   0  0  0  0  0  0  0  0  0  0  0  0
    7.3671  -18.7403   26.7960 C   0  0  0  0  0  0  0  0  0  0  0  0
    7.2928  -20.1118   27.3956 C   0  0  0  0  0  0  0  0  0  0  0  0
    6.8506  -20.2183   28.8107 C   0  0  0  0  0  0  0  0  0  0  0  0
    6.7831  -21.5417   29.3438 N   0  0  0  0  0  0  0  0  0  0  0  0
    8.9706  -16.4620   25.5941 C   0  0  0  0  0  0  0  0  0  0  0  0
   10.2272  -16.6940   25.7244 O   0  0  0  0  0  0  0  0  0  0  0  0
    8.7468  -13.1163   27.3304 C   0  0  0  0  0  0  0  0  0  0  0  0
    9.4028  -14.4484   27.0484 C   0  0  2  0  0  0  0  0  0  0  0  0
    8.5374  -15.2963   26.2568 N   0  0  0  0  0  0  0  0  0  0  0  0
    9.8147  -15.0455   28.3100 C   0  0  0  0  0  0  0  0  0  0  0  0
   10.6125  -14.4568   29.0705 O   0  0  0  0  0  0  0  0  0  0  0  0
    9.3290  -16.2791   28.6908 O   0  0  0  0  0  0  0  0  0  0  0  0
  2  1  1  6
  2  7  1  0
  2  3  1  0
  3  4  1  0
  4  5  1  0
  5  9  1  0
  6  5  2  0
  7  8  2  0
 10 11  1  0
 10  7  1  0
 11 12  1  1
 12 13  1  0
 13 14  1  0
 14 15  1  0
 16 15  1  0
 17 18  2  0
 17 11  1  0
 20 19  1  1
 20 21  1  0
 21 17  1  0
 22 20  1  0
 22 24  1  0
 23 22  2  0
M  END
$$$$
