EKA.pdb
     RDKit          3D

 24 23  0  0  1  0  0  0  0  0999 V2000
   11.6570  -18.9016   19.1318 N   0  0  0  0  0  0  0  0  0  0  0  0
   12.7085  -18.3367   20.0097 C   0  0  1  0  0  0  0  0  0  0  0  0
   13.8241  -17.8658   19.1380 C   0  0  0  0  0  0  0  0  0  0  0  0
   13.4742  -16.9439   18.0306 C   0  0  0  0  0  0  0  0  0  0  0  0
   14.6172  -16.5334   17.1850 C   0  0  0  0  0  0  0  0  0  0  0  0
   14.4260  -15.7849   16.2010 O   0  0  0  0  0  0  0  0  0  0  0  0
   12.0976  -17.2465   20.8284 C   0  0  0  0  0  0  0  0  0  0  0  0
   12.8510  -16.5662   21.6045 O   0  0  0  0  0  0  0  0  0  0  0  0
   15.9116  -16.9848   17.4895 O   0  0  0  0  0  0  0  0  0  0  0  0
   10.7337  -16.8971   20.8148 N   0  0  0  0  0  0  0  0  0  0  0  0
   10.2091  -15.8046   21.6655 C   0  0  1  0  0  0  0  0  0  0  0  0
    8.9264  -15.4008   20.9473 C   0  0  0  0  0  0  0  0  0  0  0  0
    9.0940  -14.4981   19.8017 C   0  0  0  0  0  0  0  0  0  0  0  0
    7.7880  -14.1510   19.1538 C   0  0  0  0  0  0  0  0  0  0  0  0
    7.8245  -13.2284   17.9888 C   0  0  0  0  0  0  0  0  0  0  0  0
    6.5755  -13.0043   17.3330 N   0  0  0  0  0  0  0  0  0  0  0  0
   10.0201  -16.3050   23.0193 C   0  0  0  0  0  0  0  0  0  0  0  0
    9.7877  -17.5566   23.1912 O   0  0  0  0  0  0  0  0  0  0  0  0
    9.7588  -15.0595   26.5848 C   0  0  0  0  0  0  0  0  0  0  0  0
    9.8306  -16.1375   25.5278 C   0  0  2  0  0  0  0  0  0  0  0  0
   10.0634  -15.5663   24.2186 N   0  0  0  0  0  0  0  0  0  0  0  0
    8.6281  -16.9533   25.6064 C   0  0  0  0  0  0  0  0  0  0  0  0
    7.6825  -16.7844   24.8073 O   0  0  0  0  0  0  0  0  0  0  0  0
    8.5101  -17.9330   26.5701 O   0  0  0  0  0  0  0  0  0  0  0  0
  2  1  1  6
  2  7  1  0
  2  3  1  0
  3  4  1  0
  4  5  1  0
  5  9  1  0
  6  5  2  0
  7  8  2  0
 10 11  1  0
 10  7  1  0
 11 12  1  6
 12 13  1  0
 13 14  1  0
 14 15  1  0
 16 15  1  0
 17 18  2  0
 17 11  1  0
 20 19  1  1
 20 21  1  0
 21 17  1  0
 22 20  1  0
 22 24  1  0
 23 22  2  0
M  END
$$$$
