EKA.pdb
     RDKit          3D

 24 23  0  0  1  0  0  0  0  0999 V2000
    8.4180  -12.7148   18.8005 N   0  0  0  0  0  0  0  0  0  0  0  0
    8.5691  -14.1808   18.6482 C   0  0  1  0  0  0  0  0  0  0  0  0
    9.9312  -14.4429   18.0984 C   0  0  0  0  0  0  0  0  0  0  0  0
   11.0840  -13.9173   18.8686 C   0  0  0  0  0  0  0  0  0  0  0  0
   12.4082  -14.2237   18.2835 C   0  0  0  0  0  0  0  0  0  0  0  0
   12.4833  -14.9001   17.2337 O   0  0  0  0  0  0  0  0  0  0  0  0
    8.3375  -14.8154   19.9807 C   0  0  0  0  0  0  0  0  0  0  0  0
    8.5480  -14.1241   21.0345 O   0  0  0  0  0  0  0  0  0  0  0  0
   13.5755  -13.7548   18.9077 O   0  0  0  0  0  0  0  0  0  0  0  0
    7.8956  -16.1378   20.1769 N   0  0  0  0  0  0  0  0  0  0  0  0
    7.6361  -16.6707   21.5338 C   0  0  1  0  0  0  0  0  0  0  0  0
    6.9382  -17.9963   21.2504 C   0  0  0  0  0  0  0  0  0  0  0  0
    6.6891  -18.8485   22.4196 C   0  0  0  0  0  0  0  0  0  0  0  0
    5.8859  -20.0663   22.0764 C   0  0  0  0  0  0  0  0  0  0  0  0
    5.6408  -21.0537   23.1601 C   0  0  0  0  0  0  0  0  0  0  0  0
    4.8272  -22.1740   22.8090 N   0  0  0  0  0  0  0  0  0  0  0  0
    8.8986  -16.7853   22.2492 C   0  0  0  0  0  0  0  0  0  0  0  0
    9.9895  -16.5069   21.6307 O   0  0  0  0  0  0  0  0  0  0  0  0
   10.8832  -15.6636   24.2604 C   0  0  0  0  0  0  0  0  0  0  0  0
   10.3558  -17.0798   24.2854 C   0  0  2  0  0  0  0  0  0  0  0  0
    9.0904  -17.1751   23.5897 N   0  0  0  0  0  0  0  0  0  0  0  0
   10.3019  -17.5366   25.6661 C   0  0  0  0  0  0  0  0  0  0  0  0
   11.3423  -17.6426   26.3500 O   0  0  0  0  0  0  0  0  0  0  0  0
    9.0943  -17.8626   26.2476 O   0  0  0  0  0  0  0  0  0  0  0  0
  2  1  1  1
  2  7  1  0
  2  3  1  0
  3  4  1  0
  4  5  1  0
  5  9  1  0
  6  5  2  0
  7  8  2  0
 10 11  1  0
 10  7  1  0
 11 12  1  6
 12 13  1  0
 13 14  1  0
 14 15  1  0
 16 15  1  0
 17 18  2  0
 17 11  1  0
 20 19  1  1
 20 21  1  0
 21 17  1  0
 22 20  1  0
 22 24  1  0
 23 22  2  0
M  END
$$$$
