AKT.pdb
     RDKit          3D

 22 21  0  0  1  0  0  0  0  0999 V2000
   22.3848  -12.2451  -19.8388 C   0  0  0  0  0  0  0  0  0  0  0  0
   22.2251  -12.2333  -18.3366 C   0  0  2  0  0  0  0  0  0  0  0  0
   21.4705  -13.4152  -17.9634 N   0  0  0  0  0  0  0  0  0  0  0  0
   21.4846  -11.0224  -17.8673 C   0  0  0  0  0  0  0  0  0  0  0  0
   21.3728  -10.0032  -18.5851 O   0  0  0  0  0  0  0  0  0  0  0  0
   20.8791  -10.9870  -16.5833 N   0  0  0  0  0  0  0  0  0  0  0  0
   20.1127   -9.8863  -16.0571 C   0  0  1  0  0  0  0  0  0  0  0  0
   18.9277  -10.3393  -15.2555 C   0  0  0  0  0  0  0  0  0  0  0  0
   17.6177   -9.7536  -15.6154 C   0  0  0  0  0  0  0  0  0  0  0  0
   16.4415  -10.1765  -14.8066 C   0  0  0  0  0  0  0  0  0  0  0  0
   15.1893   -9.3920  -15.2234 C   0  0  0  0  0  0  0  0  0  0  0  0
   14.0051   -9.9054  -14.5985 N   0  0  0  0  0  0  0  0  0  0  0  0
   20.9255   -8.8433  -15.4042 C   0  0  0  0  0  0  0  0  0  0  0  0
   21.7525   -9.1744  -14.4841 O   0  0  0  0  0  0  0  0  0  0  0  0
   23.6120   -6.9392  -16.6331 C   0  0  0  0  0  0  0  0  0  0  0  0
   22.6833   -5.8592  -16.0905 C   0  0  1  0  0  0  0  0  0  0  0  0
   21.9406   -5.3623  -17.1450 O   0  0  0  0  0  0  0  0  0  0  0  0
   21.7760   -6.5235  -15.0688 C   0  0  2  0  0  0  0  0  0  0  0  0
   20.8710   -7.4599  -15.7185 N   0  0  0  0  0  0  0  0  0  0  0  0
   20.9715   -5.5254  -14.3409 C   0  0  0  0  0  0  0  0  0  0  0  0
   19.7355   -5.4778  -14.5235 O   0  0  0  0  0  0  0  0  0  0  0  0
   21.5144   -4.6155  -13.4458 O   0  0  0  0  0  0  0  0  0  0  0  0
  2  1  1  6
  2  3  1  0
  4  2  1  0
  4  5  2  0
  6  4  1  0
  7  6  1  0
  7 13  1  0
  7  8  1  1
  9 10  1  0
  9  8  1  0
 10 11  1  0
 11 12  1  0
 13 19  1  0
 13 14  2  0
 16 15  1  6
 16 17  1  0
 18 16  1  0
 18 19  1  6
 20 22  1  0
 20 18  1  0
 21 20  2  0
M  END
$$$$
