AKT.pdb
     RDKit          3D

 22 21  0  0  1  0  0  0  0  0999 V2000
   23.7357  -11.0923  -19.5628 C   0  0  0  0  0  0  0  0  0  0  0  0
   22.5402  -11.6277  -18.8100 C   0  0  2  0  0  0  0  0  0  0  0  0
   21.7363  -12.3929  -19.7448 N   0  0  0  0  0  0  0  0  0  0  0  0
   21.7022  -10.5263  -18.2450 C   0  0  0  0  0  0  0  0  0  0  0  0
   21.0790   -9.7314  -18.9842 O   0  0  0  0  0  0  0  0  0  0  0  0
   21.5838  -10.3431  -16.8418 N   0  0  0  0  0  0  0  0  0  0  0  0
   20.8468   -9.2829  -16.2024 C   0  0  1  0  0  0  0  0  0  0  0  0
   19.8159   -9.7959  -15.2400 C   0  0  0  0  0  0  0  0  0  0  0  0
   18.5593  -10.3137  -15.8246 C   0  0  0  0  0  0  0  0  0  0  0  0
   17.5020  -10.7558  -14.8742 C   0  0  0  0  0  0  0  0  0  0  0  0
   16.3114  -11.3586  -15.6333 C   0  0  0  0  0  0  0  0  0  0  0  0
   15.3185  -11.8815  -14.7405 N   0  0  0  0  0  0  0  0  0  0  0  0
   21.6914   -8.1989  -15.6676 C   0  0  0  0  0  0  0  0  0  0  0  0
   22.7546   -8.4926  -15.0168 O   0  0  0  0  0  0  0  0  0  0  0  0
   23.5962   -3.7579  -15.6467 C   0  0  0  0  0  0  0  0  0  0  0  0
   22.6360   -4.7451  -16.2999 C   0  0  1  0  0  0  0  0  0  0  0  0
   23.2657   -5.2905  -17.4029 O   0  0  0  0  0  0  0  0  0  0  0  0
   22.3375   -5.8233  -15.2720 C   0  0  2  0  0  0  0  0  0  0  0  0
   21.4213   -6.8133  -15.8183 N   0  0  0  0  0  0  0  0  0  0  0  0
   21.7334   -5.2487  -14.0562 C   0  0  0  0  0  0  0  0  0  0  0  0
   20.5257   -4.9247  -14.0618 O   0  0  0  0  0  0  0  0  0  0  0  0
   22.4387   -5.0410  -12.8802 O   0  0  0  0  0  0  0  0  0  0  0  0
  2  1  1  6
  2  3  1  0
  4  2  1  0
  4  5  2  0
  6  4  1  0
  7  6  1  0
  7 13  1  0
  7  8  1  1
  9 10  1  0
  9  8  1  0
 10 11  1  0
 11 12  1  0
 13 19  1  0
 13 14  2  0
 16 15  1  1
 16 17  1  0
 18 16  1  0
 18 19  1  6
 20 22  1  0
 20 18  1  0
 21 20  2  0
M  END
$$$$
