AKT.pdb
     RDKit          3D

 22 21  0  0  1  0  0  0  0  0999 V2000
   20.7235  -11.0617  -20.1774 C   0  0  0  0  0  0  0  0  0  0  0  0
   21.6371  -10.6478  -19.0476 C   0  0  2  0  0  0  0  0  0  0  0  0
   21.9232  -11.8295  -18.2555 N   0  0  0  0  0  0  0  0  0  0  0  0
   20.9998   -9.6217  -18.1669 C   0  0  0  0  0  0  0  0  0  0  0  0
   20.6357   -8.5102  -18.6124 O   0  0  0  0  0  0  0  0  0  0  0  0
   20.7844   -9.8747  -16.7862 N   0  0  0  0  0  0  0  0  0  0  0  0
   20.2506   -8.9262  -15.8421 C   0  0  1  0  0  0  0  0  0  0  0  0
   19.2901   -9.5534  -14.8746 C   0  0  0  0  0  0  0  0  0  0  0  0
   17.9575   -9.9193  -15.4028 C   0  0  0  0  0  0  0  0  0  0  0  0
   17.0477  -10.6636  -14.4891 C   0  0  0  0  0  0  0  0  0  0  0  0
   15.7500  -11.0476  -15.2141 C   0  0  0  0  0  0  0  0  0  0  0  0
   14.8558  -11.7733  -14.3597 N   0  0  0  0  0  0  0  0  0  0  0  0
   21.2678   -8.0622  -15.2148 C   0  0  0  0  0  0  0  0  0  0  0  0
   22.2853   -8.5966  -14.6497 O   0  0  0  0  0  0  0  0  0  0  0  0
   23.3103   -5.4228  -16.8009 C   0  0  0  0  0  0  0  0  0  0  0  0
   22.7404   -4.7647  -15.5497 C   0  0  1  0  0  0  0  0  0  0  0  0
   21.6460   -4.0077  -15.9235 O   0  0  0  0  0  0  0  0  0  0  0  0
   22.3173   -5.8823  -14.6115 C   0  0  2  0  0  0  0  0  0  0  0  0
   21.2171   -6.6437  -15.1840 N   0  0  0  0  0  0  0  0  0  0  0  0
   21.8866   -5.3489  -13.3064 C   0  0  0  0  0  0  0  0  0  0  0  0
   20.6982   -5.4904  -12.9442 O   0  0  0  0  0  0  0  0  0  0  0  0
   22.7384   -4.6847  -12.4363 O   0  0  0  0  0  0  0  0  0  0  0  0
  2  1  1  6
  2  3  1  0
  4  2  1  0
  4  5  2  0
  6  4  1  0
  7  6  1  0
  7 13  1  0
  7  8  1  1
  9 10  1  0
  9  8  1  0
 10 11  1  0
 11 12  1  0
 13 19  1  0
 13 14  2  0
 16 15  1  6
 16 17  1  0
 18 16  1  0
 18 19  1  6
 20 22  1  0
 20 18  1  0
 21 20  2  0
M  END
$$$$
