AKT.pdb
     RDKit          3D

 22 21  0  0  1  0  0  0  0  0999 V2000
   18.8693  -12.1347  -18.5122 C   0  0  0  0  0  0  0  0  0  0  0  0
   19.5964  -11.6686  -17.2727 C   0  0  2  0  0  0  0  0  0  0  0  0
   19.0565  -12.4012  -16.1424 N   0  0  0  0  0  0  0  0  0  0  0  0
   19.4031  -10.2057  -17.0337 C   0  0  0  0  0  0  0  0  0  0  0  0
   19.8462   -9.3472  -17.8294 O   0  0  0  0  0  0  0  0  0  0  0  0
   18.7058   -9.7372  -15.8887 N   0  0  0  0  0  0  0  0  0  0  0  0
   18.4877   -8.3518  -15.5590 C   0  0  1  0  0  0  0  0  0  0  0  0
   17.0903   -8.0855  -15.0812 C   0  0  0  0  0  0  0  0  0  0  0  0
   16.7509   -6.6801  -14.7673 C   0  0  0  0  0  0  0  0  0  0  0  0
   15.3553   -6.4018  -14.3299 C   0  0  0  0  0  0  0  0  0  0  0  0
   15.1723   -4.9079  -14.0263 C   0  0  0  0  0  0  0  0  0  0  0  0
   13.8106   -4.5909  -13.7073 N   0  0  0  0  0  0  0  0  0  0  0  0
   19.5419   -7.7597  -14.7146 C   0  0  0  0  0  0  0  0  0  0  0  0
   19.7359   -8.2200  -13.5353 O   0  0  0  0  0  0  0  0  0  0  0  0
   22.9954   -8.1020  -14.8380 C   0  0  0  0  0  0  0  0  0  0  0  0
   22.8240   -6.5884  -14.8920 C   0  0  1  0  0  0  0  0  0  0  0  0
   22.8271   -6.2031  -16.2194 O   0  0  0  0  0  0  0  0  0  0  0  0
   21.4851   -6.2681  -14.2494 C   0  0  2  0  0  0  0  0  0  0  0  0
   20.3894   -6.6911  -15.1088 N   0  0  0  0  0  0  0  0  0  0  0  0
   21.3476   -4.8225  -13.9950 C   0  0  0  0  0  0  0  0  0  0  0  0
   20.5201   -4.1564  -14.6545 O   0  0  0  0  0  0  0  0  0  0  0  0
   22.0970   -4.1412  -13.0474 O   0  0  0  0  0  0  0  0  0  0  0  0
  2  1  1  6
  2  3  1  0
  4  2  1  0
  4  5  2  0
  6  4  1  0
  7  6  1  0
  7 13  1  0
  7  8  1  1
  9 10  1  0
  9  8  1  0
 10 11  1  0
 11 12  1  0
 13 19  1  0
 13 14  2  0
 16 15  1  6
 16 17  1  0
 18 16  1  0
 18 19  1  6
 20 22  1  0
 20 18  1  0
 21 20  2  0
M  END
$$$$
