AKT.pdb
     RDKit          3D

 22 21  0  0  1  0  0  0  0  0999 V2000
   24.1459  -11.4706  -18.7306 C   0  0  0  0  0  0  0  0  0  0  0  0
   22.7327  -11.8011  -18.3111 C   0  0  2  0  0  0  0  0  0  0  0  0
   22.0480  -12.3556  -19.4642 N   0  0  0  0  0  0  0  0  0  0  0  0
   21.9925  -10.5866  -17.8511 C   0  0  0  0  0  0  0  0  0  0  0  0
   21.8613   -9.5815  -18.5854 O   0  0  0  0  0  0  0  0  0  0  0  0
   21.4094  -10.5313  -16.5574 N   0  0  0  0  0  0  0  0  0  0  0  0
   20.6055   -9.4464  -16.0550 C   0  0  1  0  0  0  0  0  0  0  0  0
   19.4993   -9.9161  -15.1562 C   0  0  0  0  0  0  0  0  0  0  0  0
   18.4772  -10.7965  -15.7635 C   0  0  0  0  0  0  0  0  0  0  0  0
   17.3835  -11.2776  -14.8751 C   0  0  0  0  0  0  0  0  0  0  0  0
   16.3378  -12.0607  -15.6816 C   0  0  0  0  0  0  0  0  0  0  0  0
   15.3176  -12.6130  -14.8388 N   0  0  0  0  0  0  0  0  0  0  0  0
   21.3858   -8.3158  -15.5187 C   0  0  0  0  0  0  0  0  0  0  0  0
   22.4164   -8.5497  -14.7954 O   0  0  0  0  0  0  0  0  0  0  0  0
   22.6643   -3.5671  -15.3162 C   0  0  0  0  0  0  0  0  0  0  0  0
   21.7293   -4.5947  -15.9432 C   0  0  1  0  0  0  0  0  0  0  0  0
   22.0632   -4.7206  -17.2785 O   0  0  0  0  0  0  0  0  0  0  0  0
   21.9561   -5.9078  -15.2133 C   0  0  2  0  0  0  0  0  0  0  0  0
   21.0857   -6.9465  -15.7436 N   0  0  0  0  0  0  0  0  0  0  0  0
   21.6910   -5.7685  -13.7697 C   0  0  0  0  0  0  0  0  0  0  0  0
   22.6424   -5.5603  -12.9855 O   0  0  0  0  0  0  0  0  0  0  0  0
   20.4223   -5.8562  -13.2163 O   0  0  0  0  0  0  0  0  0  0  0  0
  2  1  1  6
  2  3  1  0
  4  2  1  0
  4  5  2  0
  6  4  1  0
  7  6  1  0
  7 13  1  0
  7  8  1  1
  9 10  1  0
  9  8  1  0
 10 11  1  0
 11 12  1  0
 13 19  1  0
 13 14  2  0
 16 15  1  1
 16 17  1  0
 18 16  1  0
 18 19  1  6
 20 22  1  0
 20 18  1  0
 21 20  2  0
M  END
$$$$
