RAN.pdb
     RDKit          3D

 25 24  0  0  1  0  0  0  0  0999 V2000
    8.3475  -15.1986   16.5327 N   0  0  0  0  0  0  0  0  0  0  0  0
    7.9253  -13.9307   16.0454 C   0  0  0  0  0  0  0  0  0  0  0  0
    7.2648  -13.8286   14.9457 N   0  0  0  0  0  0  0  0  0  0  0  0
    8.2227  -12.7293   16.7673 N   0  0  0  0  0  0  0  0  0  0  0  0
    7.9513  -12.6099   18.1873 C   0  0  0  0  0  0  0  0  0  0  0  0
    7.2502  -13.8013   18.7435 C   0  0  0  0  0  0  0  0  0  0  0  0
    8.1133  -14.9376   19.1588 C   0  0  0  0  0  0  0  0  0  0  0  0
    9.4608  -14.5826   19.6918 C   0  0  2  0  0  0  0  0  0  0  0  0
   10.1980  -13.8102   18.7433 N   0  0  0  0  0  0  0  0  0  0  0  0
   10.1952  -15.7667   20.2119 C   0  0  0  0  0  0  0  0  0  0  0  0
    9.7356  -16.9284   20.0031 O   0  0  0  0  0  0  0  0  0  0  0  0
    6.9464  -12.8943   14.6251 C   0  0  0  0  0  0  0  0  0  0  0  0
   12.6690  -14.3431   19.3444 C   0  0  2  0  0  0  0  0  0  0  0  0
   12.6790  -15.5248   20.2910 N   0  0  0  0  0  0  0  0  0  0  0  0
   11.4053  -15.7051   20.9449 C   0  0  0  0  0  0  0  0  0  0  0  0
   13.7521  -15.3688   21.3025 O   0  0  0  0  0  0  0  0  0  0  0  0
   14.9292  -15.1884   20.9292 N   0  0  0  0  0  0  0  0  0  0  0  0
   12.9224  -18.8772   24.7646 C   0  0  0  0  0  0  0  0  0  0  0  0
   12.5440  -18.9724   23.3965 O   0  0  0  0  0  0  0  0  0  0  0  0
   12.1568  -20.0662   22.9263 C   0  0  0  0  0  0  0  0  0  0  0  0
   12.6188  -17.7565   22.5522 C   0  0  1  0  0  0  0  0  0  0  0  0
   13.3480  -16.6927   23.3502 N   0  0  0  0  0  0  0  0  0  0  0  0
   13.3974  -15.4312   22.6826 C   0  0  0  0  0  0  0  0  0  0  0  0
   14.7274  -17.1841   23.5644 O   0  0  0  0  0  0  0  0  0  0  0  0
   15.5254  -17.6717   22.5329 O   0  0  0  0  0  0  0  0  0  0  0  0
  1  2  1  0
  2  3  2  0
  4  5  1  0
  4  2  1  0
  6  7  1  0
  6  5  1  0
  7  8  1  0
  8  9  1  6
 10  8  1  0
 10 11  2  0
 13 12  1  6
 13 14  1  0
 14 10  1  0
 15 13  1  0
 16 15  2  0
 18 17  1  0
 19 18  2  0
 20 18  1  0
 21 20  1  1
 21 22  1  0
 22 15  1  0
 23 24  1  0
 23 21  1  0
 25 23  2  0
M  END
$$$$
