RAN.pdb
     RDKit          3D

 25 24  0  0  1  0  0  0  0  0999 V2000
    7.0856  -11.9453   17.5266 N   0  0  0  0  0  0  0  0  0  0  0  0
    7.6665  -13.2275   17.7306 C   0  0  0  0  0  0  0  0  0  0  0  0
    7.3641  -14.2216   16.9713 N   0  0  0  0  0  0  0  0  0  0  0  0
    8.6077  -13.4486   18.7880 N   0  0  0  0  0  0  0  0  0  0  0  0
    8.7591  -14.7504   19.4099 C   0  0  0  0  0  0  0  0  0  0  0  0
    7.5951  -15.1219   20.2628 C   0  0  0  0  0  0  0  0  0  0  0  0
    7.6726  -16.4412   20.9426 C   0  0  0  0  0  0  0  0  0  0  0  0
    6.4807  -16.8407   21.7462 C   0  0  2  0  0  0  0  0  0  0  0  0
    5.4009  -15.9274   21.5469 N   0  0  0  0  0  0  0  0  0  0  0  0
    6.8150  -17.0825   23.1751 C   0  0  0  0  0  0  0  0  0  0  0  0
    6.9828  -16.0972   23.9530 O   0  0  0  0  0  0  0  0  0  0  0  0
    7.7268  -15.1673   17.1981 C   0  0  0  0  0  0  0  0  0  0  0  0
    6.6368  -19.6014   25.8514 C   0  0  1  0  0  0  0  0  0  0  0  0
    7.4138  -18.5251   25.1230 N   0  0  0  0  0  0  0  0  0  0  0  0
    6.9665  -18.3630   23.7606 C   0  0  0  0  0  0  0  0  0  0  0  0
    8.8654  -18.8273   25.1489 O   0  0  0  0  0  0  0  0  0  0  0  0
    9.3645  -19.5307   24.2469 N   0  0  0  0  0  0  0  0  0  0  0  0
   11.4601  -18.1564   23.8045 C   0  0  0  0  0  0  0  0  0  0  0  0
   12.1770  -17.3187   24.7036 O   0  0  0  0  0  0  0  0  0  0  0  0
   12.9631  -16.4502   24.2618 C   0  0  0  0  0  0  0  0  0  0  0  0
   11.9710  -17.4988   26.1603 C   0  0  2  0  0  0  0  0  0  0  0  0
   11.0226  -18.6680   26.3445 N   0  0  0  0  0  0  0  0  0  0  0  0
    9.6494  -18.2975   26.2160 C   0  0  0  0  0  0  0  0  0  0  0  0
   11.2570  -19.2031   27.7043 O   0  0  0  0  0  0  0  0  0  0  0  0
   12.4604  -19.7874   28.0901 O   0  0  0  0  0  0  0  0  0  0  0  0
  1  2  1  0
  2  3  2  0
  4  5  1  0
  4  2  1  0
  6  7  1  0
  6  5  1  0
  7  8  1  0
  8  9  1  1
 10  8  1  0
 10 11  2  0
 13 12  1  1
 13 14  1  0
 14 10  1  0
 15 13  1  0
 16 15  2  0
 18 17  1  0
 19 18  2  0
 20 18  1  0
 21 20  1  6
 21 22  1  0
 22 15  1  0
 23 24  1  0
 23 21  1  0
 25 23  2  0
M  END
$$$$
