RAN.pdb
     RDKit          3D

 25 24  0  0  1  0  0  0  0  0999 V2000
    5.6818  -25.4917   19.8931 N   0  0  0  0  0  0  0  0  0  0  0  0
    5.2722  -25.0394   18.6082 C   0  0  0  0  0  0  0  0  0  0  0  0
    4.9840  -25.8735   17.6716 N   0  0  0  0  0  0  0  0  0  0  0  0
    5.1671  -23.6397   18.3205 N   0  0  0  0  0  0  0  0  0  0  0  0
    5.5818  -22.6340   19.2802 C   0  0  0  0  0  0  0  0  0  0  0  0
    7.0456  -22.6684   19.5566 C   0  0  0  0  0  0  0  0  0  0  0  0
    7.7146  -21.3516   19.7221 C   0  0  0  0  0  0  0  0  0  0  0  0
    9.1128  -21.2527   19.2110 C   0  0  2  0  0  0  0  0  0  0  0  0
    9.2753  -22.0183   18.0163 N   0  0  0  0  0  0  0  0  0  0  0  0
   10.1231  -21.5467   20.2622 C   0  0  0  0  0  0  0  0  0  0  0  0
   10.2914  -22.7403   20.6509 O   0  0  0  0  0  0  0  0  0  0  0  0
    4.8072  -25.5227   16.7109 C   0  0  0  0  0  0  0  0  0  0  0  0
   12.7924  -19.8031   22.2983 C   0  0  2  0  0  0  0  0  0  0  0  0
   11.7990  -20.9059   21.9984 N   0  0  0  0  0  0  0  0  0  0  0  0
   10.9411  -20.5738   20.8866 C   0  0  0  0  0  0  0  0  0  0  0  0
   10.9819  -21.2070   23.1987 O   0  0  0  0  0  0  0  0  0  0  0  0
    9.8176  -20.7648   23.2782 N   0  0  0  0  0  0  0  0  0  0  0  0
    9.6842  -25.1843   27.0851 C   0  0  0  0  0  0  0  0  0  0  0  0
    9.2719  -24.0844   26.2824 O   0  0  0  0  0  0  0  0  0  0  0  0
    8.2619  -23.4170   26.6020 C   0  0  0  0  0  0  0  0  0  0  0  0
   10.0604  -23.7530   25.0720 C   0  0  2  0  0  0  0  0  0  0  0  0
   10.7617  -22.4338   25.3330 N   0  0  0  0  0  0  0  0  0  0  0  0
   11.5618  -22.0004   24.2324 C   0  0  0  0  0  0  0  0  0  0  0  0
   11.6284  -22.6329   26.5160 O   0  0  0  0  0  0  0  0  0  0  0  0
   11.1597  -22.5301   27.8229 O   0  0  0  0  0  0  0  0  0  0  0  0
  1  2  1  0
  2  3  2  0
  4  5  1  0
  4  2  1  0
  6  7  1  0
  6  5  1  0
  7  8  1  0
  8  9  1  6
 10  8  1  0
 10 11  2  0
 13 12  1  6
 13 14  1  0
 14 10  1  0
 15 13  1  0
 16 15  2  0
 18 17  1  0
 19 18  2  0
 20 18  1  0
 21 20  1  6
 21 22  1  0
 22 15  1  0
 23 24  1  0
 23 21  1  0
 25 23  2  0
M  END
$$$$
