RAN.pdb
     RDKit          3D

 25 24  0  0  1  0  0  0  0  0999 V2000
    8.3024  -12.6044   17.0764 N   0  0  0  0  0  0  0  0  0  0  0  0
    8.0603  -13.7880   16.3256 C   0  0  0  0  0  0  0  0  0  0  0  0
    7.9491  -13.7501   15.0441 N   0  0  0  0  0  0  0  0  0  0  0  0
    7.9349  -15.0585   16.9760 N   0  0  0  0  0  0  0  0  0  0  0  0
    8.3342  -15.2469   18.3578 C   0  0  0  0  0  0  0  0  0  0  0  0
    8.2154  -14.0020   19.1681 C   0  0  0  0  0  0  0  0  0  0  0  0
    7.3401  -14.0785   20.3667 C   0  0  0  0  0  0  0  0  0  0  0  0
    7.6858  -15.1267   21.3706 C   0  0  2  0  0  0  0  0  0  0  0  0
    6.7244  -16.1828   21.3582 N   0  0  0  0  0  0  0  0  0  0  0  0
    7.9438  -14.5568   22.7199 C   0  0  0  0  0  0  0  0  0  0  0  0
    8.8966  -13.7378   22.8807 O   0  0  0  0  0  0  0  0  0  0  0  0
    7.8449  -14.6359   14.5133 C   0  0  0  0  0  0  0  0  0  0  0  0
    6.1859  -13.7220   25.8052 C   0  0  2  0  0  0  0  0  0  0  0  0
    7.4544  -14.2195   25.1449 N   0  0  0  0  0  0  0  0  0  0  0  0
    7.1901  -14.8610   23.8795 C   0  0  0  0  0  0  0  0  0  0  0  0
    8.1761  -15.1505   26.0457 O   0  0  0  0  0  0  0  0  0  0  0  0
    8.5001  -14.7733   27.1904 N   0  0  0  0  0  0  0  0  0  0  0  0
    6.1718  -18.9740   25.8520 C   0  0  0  0  0  0  0  0  0  0  0  0
    7.2256  -18.7816   26.7882 O   0  0  0  0  0  0  0  0  0  0  0  0
    6.9650  -18.6018   27.9995 C   0  0  0  0  0  0  0  0  0  0  0  0
    8.6241  -18.7997   26.2976 C   0  0  2  0  0  0  0  0  0  0  0  0
    9.1639  -17.3867   26.4098 N   0  0  0  0  0  0  0  0  0  0  0  0
    8.4784  -16.4596   25.5671 C   0  0  0  0  0  0  0  0  0  0  0  0
   10.5901  -17.4376   26.0180 O   0  0  0  0  0  0  0  0  0  0  0  0
   11.5277  -18.2282   26.6770 O   0  0  0  0  0  0  0  0  0  0  0  0
  1  2  1  0
  2  3  2  0
  4  5  1  0
  4  2  1  0
  6  7  1  0
  6  5  1  0
  7  8  1  0
  8  9  1  1
 10  8  1  0
 10 11  2  0
 13 12  1  6
 13 14  1  0
 14 10  1  0
 15 13  1  0
 16 15  2  0
 18 17  1  0
 19 18  2  0
 20 18  1  0
 21 20  1  1
 21 22  1  0
 22 15  1  0
 23 24  1  0
 23 21  1  0
 25 23  2  0
M  END
$$$$
