RAN.pdb
     RDKit          3D

 25 24  0  0  1  0  0  0  0  0999 V2000
    7.6346  -13.2654   15.9599 N   0  0  0  0  0  0  0  0  0  0  0  0
    7.7698  -13.8335   14.6629 C   0  0  0  0  0  0  0  0  0  0  0  0
    7.0741  -13.3980   13.6717 N   0  0  0  0  0  0  0  0  0  0  0  0
    8.6871  -14.9076   14.4226 N   0  0  0  0  0  0  0  0  0  0  0  0
    9.2503  -15.6831   15.5115 C   0  0  0  0  0  0  0  0  0  0  0  0
    8.2696  -16.6294   16.1142 C   0  0  0  0  0  0  0  0  0  0  0  0
    8.8098  -17.5887   17.1125 C   0  0  0  0  0  0  0  0  0  0  0  0
   10.1933  -17.3218   17.6030 C   0  0  2  0  0  0  0  0  0  0  0  0
   11.1581  -17.6017   16.5879 N   0  0  0  0  0  0  0  0  0  0  0  0
   10.4717  -17.9858   18.9045 C   0  0  0  0  0  0  0  0  0  0  0  0
    9.8839  -19.0705   19.1909 O   0  0  0  0  0  0  0  0  0  0  0  0
    7.2023  -13.8202   12.7323 C   0  0  0  0  0  0  0  0  0  0  0  0
   13.4879  -18.2707   18.9269 C   0  0  1  0  0  0  0  0  0  0  0  0
   12.6217  -18.1511   20.1630 N   0  0  0  0  0  0  0  0  0  0  0  0
   11.3681  -17.4931   19.8838 C   0  0  0  0  0  0  0  0  0  0  0  0
   13.3472  -17.4284   21.2356 O   0  0  0  0  0  0  0  0  0  0  0  0
   14.5103  -17.7707   21.5314 N   0  0  0  0  0  0  0  0  0  0  0  0
   11.8359  -16.5768   25.8610 C   0  0  0  0  0  0  0  0  0  0  0  0
   10.6869  -16.4943   25.0260 O   0  0  0  0  0  0  0  0  0  0  0  0
    9.5448  -16.4224   25.5341 C   0  0  0  0  0  0  0  0  0  0  0  0
   10.8752  -16.4951   23.5559 C   0  0  2  0  0  0  0  0  0  0  0  0
   12.3677  -16.4612   23.2884 N   0  0  0  0  0  0  0  0  0  0  0  0
   12.6827  -16.3551   21.8995 C   0  0  0  0  0  0  0  0  0  0  0  0
   12.9297  -17.7230   23.8197 O   0  0  0  0  0  0  0  0  0  0  0  0
   13.8932  -17.7579   24.8241 O   0  0  0  0  0  0  0  0  0  0  0  0
  1  2  1  0
  2  3  2  0
  4  5  1  0
  4  2  1  0
  6  7  1  0
  6  5  1  0
  7  8  1  0
  8  9  1  6
 10  8  1  0
 10 11  2  0
 13 12  1  6
 13 14  1  0
 14 10  1  0
 15 13  1  0
 16 15  2  0
 18 17  1  0
 19 18  2  0
 20 18  1  0
 21 20  1  1
 21 22  1  0
 22 15  1  0
 23 24  1  0
 23 21  1  0
 25 23  2  0
M  END
$$$$
