RAN.pdb
     RDKit          3D

 25 24  0  0  1  0  0  0  0  0999 V2000
    8.0227  -13.6703   14.9829 N   0  0  0  0  0  0  0  0  0  0  0  0
    8.7275  -13.8782   16.2008 C   0  0  0  0  0  0  0  0  0  0  0  0
    9.5995  -14.8182   16.3109 N   0  0  0  0  0  0  0  0  0  0  0  0
    8.4872  -13.0445   17.3409 N   0  0  0  0  0  0  0  0  0  0  0  0
    7.3518  -13.2643   18.2166 C   0  0  0  0  0  0  0  0  0  0  0  0
    7.6263  -14.2764   19.2752 C   0  0  0  0  0  0  0  0  0  0  0  0
    8.2102  -13.7618   20.5413 C   0  0  0  0  0  0  0  0  0  0  0  0
    8.4102  -14.7619   21.6303 C   0  0  2  0  0  0  0  0  0  0  0  0
    7.4438  -15.8100   21.5451 N   0  0  0  0  0  0  0  0  0  0  0  0
    8.5013  -14.1281   22.9727 C   0  0  0  0  0  0  0  0  0  0  0  0
    9.4105  -13.2765   23.2013 O   0  0  0  0  0  0  0  0  0  0  0  0
   10.1284  -14.9240   17.1977 C   0  0  0  0  0  0  0  0  0  0  0  0
    6.5254  -13.5475   26.0691 C   0  0  2  0  0  0  0  0  0  0  0  0
    7.8339  -13.8246   25.3594 N   0  0  0  0  0  0  0  0  0  0  0  0
    7.6292  -14.4041   24.0538 C   0  0  0  0  0  0  0  0  0  0  0  0
    8.6905  -14.7133   26.1813 O   0  0  0  0  0  0  0  0  0  0  0  0
    8.5917  -14.6863   27.4251 N   0  0  0  0  0  0  0  0  0  0  0  0
   11.2149  -17.1915   28.7377 C   0  0  0  0  0  0  0  0  0  0  0  0
   10.2036  -18.0200   28.1764 O   0  0  0  0  0  0  0  0  0  0  0  0
    9.9735  -19.1493   28.6655 C   0  0  0  0  0  0  0  0  0  0  0  0
    9.4383  -17.5169   27.0112 C   0  0  2  0  0  0  0  0  0  0  0  0
   10.3368  -16.5551   26.2576 N   0  0  0  0  0  0  0  0  0  0  0  0
    9.6080  -15.5777   25.5140 C   0  0  0  0  0  0  0  0  0  0  0  0
   11.1520  -17.3665   25.3262 O   0  0  0  0  0  0  0  0  0  0  0  0
   11.0402  -17.2694   23.9419 O   0  0  0  0  0  0  0  0  0  0  0  0
  1  2  1  0
  2  3  2  0
  4  5  1  0
  4  2  1  0
  6  7  1  0
  6  5  1  0
  7  8  1  0
  8  9  1  1
 10  8  1  0
 10 11  2  0
 13 12  1  6
 13 14  1  0
 14 10  1  0
 15 13  1  0
 16 15  2  0
 18 17  1  0
 19 18  2  0
 20 18  1  0
 21 20  1  1
 21 22  1  0
 22 15  1  0
 23 24  1  0
 23 21  1  0
 25 23  2  0
M  END
$$$$
