RAN.pdb
     RDKit          3D

 25 24  0  0  1  0  0  0  0  0999 V2000
    7.6292  -14.2572   19.4511 N   0  0  0  0  0  0  0  0  0  0  0  0
    7.7579  -13.6582   18.1674 C   0  0  0  0  0  0  0  0  0  0  0  0
    7.7191  -12.3799   18.0245 N   0  0  0  0  0  0  0  0  0  0  0  0
    7.9363  -14.4626   16.9953 N   0  0  0  0  0  0  0  0  0  0  0  0
    7.9037  -15.9116   17.0565 C   0  0  0  0  0  0  0  0  0  0  0  0
    9.1411  -16.4925   17.6497 C   0  0  0  0  0  0  0  0  0  0  0  0
   10.0526  -17.1966   16.7105 C   0  0  0  0  0  0  0  0  0  0  0  0
   10.9342  -18.2427   17.3059 C   0  0  2  0  0  0  0  0  0  0  0  0
   11.0212  -18.0911   18.7233 N   0  0  0  0  0  0  0  0  0  0  0  0
   12.2525  -18.3295   16.6228 C   0  0  0  0  0  0  0  0  0  0  0  0
   12.3180  -18.7989   15.4483 O   0  0  0  0  0  0  0  0  0  0  0  0
    7.7151  -11.9718   17.0703 C   0  0  0  0  0  0  0  0  0  0  0  0
   14.4987  -17.0134   15.1518 C   0  0  1  0  0  0  0  0  0  0  0  0
   14.6908  -17.8375   16.4074 N   0  0  0  0  0  0  0  0  0  0  0  0
   13.4823  -17.9182   17.1919 C   0  0  0  0  0  0  0  0  0  0  0  0
   15.7934  -17.2810   17.2282 O   0  0  0  0  0  0  0  0  0  0  0  0
   16.9290  -17.1506   16.7274 N   0  0  0  0  0  0  0  0  0  0  0  0
   14.2611  -13.5425   18.5524 C   0  0  0  0  0  0  0  0  0  0  0  0
   15.5984  -14.0045   18.7014 O   0  0  0  0  0  0  0  0  0  0  0  0
   16.4701  -13.6875   17.8604 C   0  0  0  0  0  0  0  0  0  0  0  0
   15.9289  -14.8609   19.8650 C   0  0  2  0  0  0  0  0  0  0  0  0
   16.4773  -16.1684   19.3265 N   0  0  0  0  0  0  0  0  0  0  0  0
   15.5143  -16.9101   18.5768 C   0  0  0  0  0  0  0  0  0  0  0  0
   16.9066  -16.9695   20.4945 O   0  0  0  0  0  0  0  0  0  0  0  0
   17.8384  -16.5136   21.4231 O   0  0  0  0  0  0  0  0  0  0  0  0
  1  2  1  0
  2  3  2  0
  4  5  1  0
  4  2  1  0
  6  7  1  0
  6  5  1  0
  7  8  1  0
  8  9  1  1
 10  8  1  0
 10 11  2  0
 13 12  1  6
 13 14  1  0
 14 10  1  0
 15 13  1  0
 16 15  2  0
 18 17  1  0
 19 18  2  0
 20 18  1  0
 21 20  1  6
 21 22  1  0
 22 15  1  0
 23 24  1  0
 23 21  1  0
 25 23  2  0
M  END
$$$$
