LSG.pdb
     RDKit          3D

 19 18  0  0  1  0  0  0  0  0999 V2000
    9.4970  -13.6911   19.6505 C   0  0  0  0  0  0  0  0  0  0  0  0
    7.9630  -13.5262   19.7858 C   0  0  2  0  0  0  0  0  0  0  0  0
    7.6704  -12.1100   19.3468 C   0  0  0  0  0  0  0  0  0  0  0  0
    7.5725  -13.7558   21.2077 C   0  0  0  0  0  0  0  0  0  0  0  0
    7.7972  -15.1684   21.6172 C   0  0  2  0  0  0  0  0  0  0  0  0
    6.8062  -15.9486   20.8139 N   0  0  0  0  0  0  0  0  0  0  0  0
    7.4851  -15.4939   23.0091 C   0  0  0  0  0  0  0  0  0  0  0  0
    6.5812  -14.8897   23.6357 O   0  0  0  0  0  0  0  0  0  0  0  0
    6.1620  -18.4258   24.3560 O   0  0  0  0  0  0  0  0  0  0  0  0
    6.4995  -17.3997   25.2380 C   0  0  0  0  0  0  0  0  0  0  0  0
    7.9094  -16.9101   25.0460 C   0  0  2  0  0  0  0  0  0  0  0  0
    8.1846  -16.4967   23.6908 N   0  0  0  0  0  0  0  0  0  0  0  0
    8.8485  -17.9453   25.4826 C   0  0  0  0  0  0  0  0  0  0  0  0
    9.0083  -18.9896   24.7981 O   0  0  0  0  0  0  0  0  0  0  0  0
    9.6125  -17.8087   26.6930 N   0  0  0  0  0  0  0  0  0  0  0  0
   10.4226  -18.9112   27.1026 C   0  0  0  0  0  0  0  0  0  0  0  0
   11.7429  -18.9529   26.4810 C   0  0  0  0  0  0  0  0  0  0  0  0
   12.1537  -18.1109   25.4602 O   0  0  0  0  0  0  0  0  0  0  0  0
   12.5716  -19.8061   26.8912 O   0  0  0  0  0  0  0  0  0  0  0  0
  2  1  1  1
  2  3  1  0
  2  4  1  0
  5  4  1  0
  5  6  1  6
  7  8  2  0
  7  5  1  0
  9 10  1  0
 11 10  1  6
 11 12  1  0
 12  7  1  0
 13 11  1  0
 13 15  1  0
 14 13  2  0
 16 15  1  0
 16 17  1  0
 17 19  2  0
 17 18  1  0
M  END
$$$$
