LSG.pdb
     RDKit          3D

 19 18  0  0  1  0  0  0  0  0999 V2000
    8.9075  -12.0529   19.3067 C   0  0  0  0  0  0  0  0  0  0  0  0
    8.6115  -13.5115   18.8780 C   0  0  2  0  0  0  0  0  0  0  0  0
    7.1125  -13.5817   18.6986 C   0  0  0  0  0  0  0  0  0  0  0  0
    9.0840  -14.4384   19.9478 C   0  0  0  0  0  0  0  0  0  0  0  0
   10.4625  -14.1023   20.3956 C   0  0  2  0  0  0  0  0  0  0  0  0
   11.3416  -14.6016   19.2938 N   0  0  0  0  0  0  0  0  0  0  0  0
   10.9386  -14.7951   21.5930 C   0  0  0  0  0  0  0  0  0  0  0  0
   11.9071  -15.5917   21.5467 O   0  0  0  0  0  0  0  0  0  0  0  0
    8.7356  -14.7068   25.2826 O   0  0  0  0  0  0  0  0  0  0  0  0
   10.1247  -14.5837   25.2877 C   0  0  0  0  0  0  0  0  0  0  0  0
   10.7657  -15.1961   24.0718 C   0  0  2  0  0  0  0  0  0  0  0  0
   10.3300  -14.5892   22.8368 N   0  0  0  0  0  0  0  0  0  0  0  0
   10.5193  -16.6395   24.0657 C   0  0  0  0  0  0  0  0  0  0  0  0
    9.6242  -17.1295   23.3286 O   0  0  0  0  0  0  0  0  0  0  0  0
   11.2806  -17.5382   24.8904 N   0  0  0  0  0  0  0  0  0  0  0  0
   11.0151  -18.9371   24.7802 C   0  0  0  0  0  0  0  0  0  0  0  0
   11.7668  -19.7689   25.7154 C   0  0  0  0  0  0  0  0  0  0  0  0
   11.6363  -21.1445   25.8178 O   0  0  0  0  0  0  0  0  0  0  0  0
   12.5909  -19.2105   26.4848 O   0  0  0  0  0  0  0  0  0  0  0  0
  2  1  1  1
  2  3  1  0
  2  4  1  0
  5  4  1  0
  5  6  1  6
  7  8  2  0
  7  5  1  0
  9 10  1  0
 11 10  1  1
 11 12  1  0
 12  7  1  0
 13 11  1  0
 13 15  1  0
 14 13  2  0
 16 15  1  0
 16 17  1  0
 17 19  2  0
 17 18  1  0
M  END
$$$$
