LSG.pdb
     RDKit          3D

 19 18  0  0  1  0  0  0  0  0999 V2000
    7.4849  -12.1730   19.9735 C   0  0  0  0  0  0  0  0  0  0  0  0
    8.4827  -13.3563   19.9196 C   0  0  2  0  0  0  0  0  0  0  0  0
    9.8421  -12.7274   19.7183 C   0  0  0  0  0  0  0  0  0  0  0  0
    8.1146  -14.2517   18.7840 C   0  0  0  0  0  0  0  0  0  0  0  0
    8.9412  -15.4887   18.7702 C   0  0  2  0  0  0  0  0  0  0  0  0
    8.3640  -16.3072   17.6599 N   0  0  0  0  0  0  0  0  0  0  0  0
    8.8414  -16.3444   19.9528 C   0  0  0  0  0  0  0  0  0  0  0  0
    7.7489  -16.8539   20.3016 O   0  0  0  0  0  0  0  0  0  0  0  0
   11.8652  -18.7558   21.1302 O   0  0  0  0  0  0  0  0  0  0  0  0
   10.5669  -18.8383   21.6324 C   0  0  0  0  0  0  0  0  0  0  0  0
    9.9602  -17.4868   21.8964 C   0  0  2  0  0  0  0  0  0  0  0  0
    9.9662  -16.6281   20.7363 N   0  0  0  0  0  0  0  0  0  0  0  0
   10.6491  -16.8551   23.0237 C   0  0  0  0  0  0  0  0  0  0  0  0
   11.6079  -16.0647   22.8218 O   0  0  0  0  0  0  0  0  0  0  0  0
   10.2609  -17.1109   24.3842 N   0  0  0  0  0  0  0  0  0  0  0  0
   11.0425  -16.5250   25.4260 C   0  0  0  0  0  0  0  0  0  0  0  0
   11.7084  -17.4903   26.2957 C   0  0  0  0  0  0  0  0  0  0  0  0
   11.9200  -17.3048   27.6524 O   0  0  0  0  0  0  0  0  0  0  0  0
   12.1219  -18.5659   25.7908 O   0  0  0  0  0  0  0  0  0  0  0  0
  2  1  1  6
  2  3  1  0
  2  4  1  0
  5  4  1  0
  5  6  1  6
  7  8  2  0
  7  5  1  0
  9 10  1  0
 11 10  1  6
 11 12  1  0
 12  7  1  0
 13 11  1  0
 13 15  1  0
 14 13  2  0
 16 15  1  0
 16 17  1  0
 17 19  2  0
 17 18  1  0
M  END
$$$$
