LSG.pdb
     RDKit          3D

 19 18  0  0  1  0  0  0  0  0999 V2000
    6.1583  -12.3915   25.1144 C   0  0  0  0  0  0  0  0  0  0  0  0
    6.3344  -13.0306   26.5142 C   0  0  2  0  0  0  0  0  0  0  0  0
    6.8085  -11.9104   27.4111 C   0  0  0  0  0  0  0  0  0  0  0  0
    7.3399  -14.1295   26.4242 C   0  0  0  0  0  0  0  0  0  0  0  0
    6.9989  -15.0986   25.3479 C   0  0  2  0  0  0  0  0  0  0  0  0
    6.1214  -16.1052   26.0208 N   0  0  0  0  0  0  0  0  0  0  0  0
    8.1116  -15.8792   24.8065 C   0  0  0  0  0  0  0  0  0  0  0  0
    8.6761  -16.7715   25.4846 O   0  0  0  0  0  0  0  0  0  0  0  0
    9.8060  -15.0248   20.8947 O   0  0  0  0  0  0  0  0  0  0  0  0
    9.7149  -16.3120   21.4232 C   0  0  0  0  0  0  0  0  0  0  0  0
    9.7267  -16.3234   22.9279 C   0  0  2  0  0  0  0  0  0  0  0  0
    8.5839  -15.6588   23.5072 N   0  0  0  0  0  0  0  0  0  0  0  0
   10.9785  -15.7364   23.4100 C   0  0  0  0  0  0  0  0  0  0  0  0
   10.9742  -14.6259   24.0028 O   0  0  0  0  0  0  0  0  0  0  0  0
   12.2418  -16.3980   23.2264 N   0  0  0  0  0  0  0  0  0  0  0  0
   13.4198  -15.7329   23.6843 C   0  0  0  0  0  0  0  0  0  0  0  0
   14.6620  -16.4486   23.4082 C   0  0  0  0  0  0  0  0  0  0  0  0
   15.9260  -15.9638   23.7032 O   0  0  0  0  0  0  0  0  0  0  0  0
   14.5926  -17.5820   22.8664 O   0  0  0  0  0  0  0  0  0  0  0  0
  2  1  1  6
  2  3  1  0
  2  4  1  0
  5  4  1  0
  5  6  1  1
  7  8  2  0
  7  5  1  0
  9 10  1  0
 11 10  1  6
 11 12  1  0
 12  7  1  0
 13 11  1  0
 13 15  1  0
 14 13  2  0
 16 15  1  0
 16 17  1  0
 17 19  2  0
 17 18  1  0
M  END
$$$$
