LSG.pdb
     RDKit          3D

 19 18  0  0  1  0  0  0  0  0999 V2000
    8.8978  -13.4201   19.0577 C   0  0  0  0  0  0  0  0  0  0  0  0
    7.7132  -13.5608   20.0454 C   0  0  2  0  0  0  0  0  0  0  0  0
    7.0536  -12.2014   20.0786 C   0  0  0  0  0  0  0  0  0  0  0  0
    8.2408  -13.9518   21.3854 C   0  0  0  0  0  0  0  0  0  0  0  0
    8.8188  -15.3226   21.3689 C   0  0  2  0  0  0  0  0  0  0  0  0
    7.6697  -16.2043   20.9970 N   0  0  0  0  0  0  0  0  0  0  0  0
    9.2841  -15.8420   22.6551 C   0  0  0  0  0  0  0  0  0  0  0  0
    8.5839  -15.7450   23.6920 O   0  0  0  0  0  0  0  0  0  0  0  0
   11.6683  -19.0226   22.8402 O   0  0  0  0  0  0  0  0  0  0  0  0
   11.1458  -18.4976   24.0217 C   0  0  0  0  0  0  0  0  0  0  0  0
   11.0686  -16.9949   24.0045 C   0  0  2  0  0  0  0  0  0  0  0  0
   10.5293  -16.4706   22.7726 N   0  0  0  0  0  0  0  0  0  0  0  0
   12.3936  -16.4357   24.2803 C   0  0  0  0  0  0  0  0  0  0  0  0
   12.9725  -16.6784   25.3715 O   0  0  0  0  0  0  0  0  0  0  0  0
   13.0729  -15.6000   23.3277 N   0  0  0  0  0  0  0  0  0  0  0  0
   14.3619  -15.0947   23.6781 C   0  0  0  0  0  0  0  0  0  0  0  0
   15.4707  -15.9785   23.3305 C   0  0  0  0  0  0  0  0  0  0  0  0
   16.8087  -15.6425   23.4597 O   0  0  0  0  0  0  0  0  0  0  0  0
   15.2060  -17.1241   22.8828 O   0  0  0  0  0  0  0  0  0  0  0  0
  2  1  1  6
  2  3  1  0
  2  4  1  0
  5  4  1  0
  5  6  1  1
  7  8  2  0
  7  5  1  0
  9 10  1  0
 11 10  1  6
 11 12  1  0
 12  7  1  0
 13 11  1  0
 13 15  1  0
 14 13  2  0
 16 15  1  0
 16 17  1  0
 17 19  2  0
 17 18  1  0
M  END
$$$$
