LSG.pdb
     RDKit          3D

 19 18  0  0  1  0  0  0  0  0999 V2000
    5.5601  -12.6275   25.6719 C   0  0  0  0  0  0  0  0  0  0  0  0
    6.3217  -13.0643   26.9479 C   0  0  2  0  0  0  0  0  0  0  0  0
    6.9734  -11.8076   27.4773 C   0  0  0  0  0  0  0  0  0  0  0  0
    7.3329  -14.0985   26.5808 C   0  0  0  0  0  0  0  0  0  0  0  0
    6.7799  -15.0895   25.6186 C   0  0  2  0  0  0  0  0  0  0  0  0
    6.2667  -16.1972   26.4821 N   0  0  0  0  0  0  0  0  0  0  0  0
    7.7460  -15.7312   24.7269 C   0  0  0  0  0  0  0  0  0  0  0  0
    8.5537  -16.5939   25.1490 O   0  0  0  0  0  0  0  0  0  0  0  0
    8.4416  -14.4428   20.5775 O   0  0  0  0  0  0  0  0  0  0  0  0
    8.3381  -15.7696   20.9940 C   0  0  0  0  0  0  0  0  0  0  0  0
    8.7478  -15.9606   22.4294 C   0  0  2  0  0  0  0  0  0  0  0  0
    7.8001  -15.4063   23.3663 N   0  0  0  0  0  0  0  0  0  0  0  0
   10.0834  -15.3963   22.6341 C   0  0  0  0  0  0  0  0  0  0  0  0
   10.2189  -14.2180   23.0558 O   0  0  0  0  0  0  0  0  0  0  0  0
   11.2733  -16.1573   22.3649 N   0  0  0  0  0  0  0  0  0  0  0  0
   12.5318  -15.5808   22.7161 C   0  0  0  0  0  0  0  0  0  0  0  0
   13.6842  -16.4320   22.4353 C   0  0  0  0  0  0  0  0  0  0  0  0
   15.0024  -16.0538   22.6327 O   0  0  0  0  0  0  0  0  0  0  0  0
   13.4790  -17.5883   21.9838 O   0  0  0  0  0  0  0  0  0  0  0  0
  2  1  1  6
  2  3  1  0
  2  4  1  0
  5  4  1  0
  5  6  1  1
  7  8  2  0
  7  5  1  0
  9 10  1  0
 11 10  1  6
 11 12  1  0
 12  7  1  0
 13 11  1  0
 13 15  1  0
 14 13  2  0
 16 15  1  0
 16 17  1  0
 17 19  2  0
 17 18  1  0
M  END
$$$$
