LSG.pdb
     RDKit          3D

 19 18  0  0  1  0  0  0  0  0999 V2000
    3.2353  -20.1976   21.7678 C   0  0  0  0  0  0  0  0  0  0  0  0
    4.4295  -21.1580   21.9926 C   0  0  2  0  0  0  0  0  0  0  0  0
    3.8229  -22.4367   22.5229 C   0  0  0  0  0  0  0  0  0  0  0  0
    5.3697  -20.5436   22.9750 C   0  0  0  0  0  0  0  0  0  0  0  0
    6.0154  -19.3208   22.4257 C   0  0  2  0  0  0  0  0  0  0  0  0
    6.7553  -19.8032   21.2191 N   0  0  0  0  0  0  0  0  0  0  0  0
    7.0398  -18.6997   23.2655 C   0  0  0  0  0  0  0  0  0  0  0  0
    8.2468  -19.0321   23.1792 O   0  0  0  0  0  0  0  0  0  0  0  0
    5.9283  -15.6271   25.9629 O   0  0  0  0  0  0  0  0  0  0  0  0
    7.2479  -15.7060   25.5192 C   0  0  0  0  0  0  0  0  0  0  0  0
    7.6412  -17.1009   25.1140 C   0  0  2  0  0  0  0  0  0  0  0  0
    6.7078  -17.7068   24.1948 N   0  0  0  0  0  0  0  0  0  0  0  0
    7.8132  -17.9260   26.3114 C   0  0  0  0  0  0  0  0  0  0  0  0
    6.8145  -18.4419   26.8779 O   0  0  0  0  0  0  0  0  0  0  0  0
    9.1119  -18.1741   26.8763 N   0  0  0  0  0  0  0  0  0  0  0  0
    9.1908  -18.9993   28.0393 C   0  0  0  0  0  0  0  0  0  0  0  0
   10.5503  -19.2542   28.5065 C   0  0  0  0  0  0  0  0  0  0  0  0
   10.8632  -19.9871   29.6399 O   0  0  0  0  0  0  0  0  0  0  0  0
   11.5099  -18.7819   27.8438 O   0  0  0  0  0  0  0  0  0  0  0  0
  2  1  1  1
  2  3  1  0
  2  4  1  0
  5  4  1  0
  5  6  1  6
  7  8  2  0
  7  5  1  0
  9 10  1  0
 11 10  1  1
 11 12  1  0
 12  7  1  0
 13 11  1  0
 13 15  1  0
 14 13  2  0
 16 15  1  0
 16 17  1  0
 17 19  2  0
 17 18  1  0
M  END
$$$$
