YEA.pdb
     RDKit          3D

 27 27  0  0  1  0  0  0  0  0999 V2000
   29.1774  -20.0094   -3.2507 O   0  0  0  0  0  0  0  0  0  0  0  0
   28.5942  -19.8092   -4.4895 C   0  0  0  0  0  0  0  0  0  0  0  0
   27.7738  -18.7317   -4.7517 C   0  0  0  0  0  0  0  0  0  0  0  0
   27.2446  -18.6197   -6.0056 C   0  0  0  0  0  0  0  0  0  0  0  0
   27.4863  -19.5238   -7.0202 C   0  0  0  0  0  0  0  0  0  0  0  0
   26.8690  -19.3287   -8.3481 C   0  0  0  0  0  0  0  0  0  0  0  0
   26.2921  -20.6056   -8.9191 C   0  0  2  0  0  0  0  0  0  0  0  0
   27.4400  -21.3825   -9.4198 N   0  0  0  0  0  0  0  0  0  0  0  0
   25.3525  -20.3704  -10.0365 C   0  0  0  0  0  0  0  0  0  0  0  0
   24.4622  -19.4939   -9.8981 O   0  0  0  0  0  0  0  0  0  0  0  0
   28.3018  -20.5824   -6.7358 C   0  0  0  0  0  0  0  0  0  0  0  0
   28.8562  -20.7308   -5.4804 C   0  0  0  0  0  0  0  0  0  0  0  0
   25.4360  -21.1127  -11.2585 N   0  0  0  0  0  0  0  0  0  0  0  0
   24.6924  -20.6836  -12.4399 C   0  0  1  0  0  0  0  0  0  0  0  0
   25.1434  -21.4474  -13.6476 C   0  0  0  0  0  0  0  0  0  0  0  0
   26.3706  -20.9326  -14.3104 C   0  0  0  0  0  0  0  0  0  0  0  0
   27.2580  -21.9640  -14.8554 C   0  0  0  0  0  0  0  0  0  0  0  0
   26.8087  -22.9148  -15.5343 O   0  0  0  0  0  0  0  0  0  0  0  0
   23.2407  -21.0393  -12.2442 C   0  0  0  0  0  0  0  0  0  0  0  0
   22.9862  -22.1569  -11.7344 O   0  0  0  0  0  0  0  0  0  0  0  0
   28.6313  -21.9471  -14.6532 O   0  0  0  0  0  0  0  0  0  0  0  0
   20.0028  -19.1793  -12.5971 C   0  0  0  0  0  0  0  0  0  0  0  0
   20.7871  -20.4697  -12.3468 C   0  0  2  0  0  0  0  0  0  0  0  0
   22.1760  -20.1946  -12.5988 N   0  0  0  0  0  0  0  0  0  0  0  0
   20.2535  -21.5326  -13.2177 C   0  0  0  0  0  0  0  0  0  0  0  0
   19.0954  -22.2215  -12.9155 O   0  0  0  0  0  0  0  0  0  0  0  0
   20.8659  -21.8272  -14.2703 O   0  0  0  0  0  0  0  0  0  0  0  0
  2  3  2  0
  2  1  1  0
  4  3  1  0
  5  4  2  0
  6  5  1  0
  7  9  1  0
  7  6  1  0
  7  8  1  6
  9 10  2  0
 11  5  1  0
 11 12  2  0
 12  2  1  0
 13  9  1  0
 13 14  1  0
 14 15  1  6
 15 16  1  0
 17 18  2  0
 17 16  1  0
 19 24  1  0
 19 14  1  0
 20 19  2  0
 21 17  1  0
 23 22  1  6
 23 24  1  0
 25 23  1  0
 25 26  1  0
 27 25  2  0
M  END
$$$$
