YEA.pdb
     RDKit          3D

 27 27  0  0  1  0  0  0  0  0999 V2000
   21.3901  -20.0296  -14.0216 O   0  0  0  0  0  0  0  0  0  0  0  0
   21.2502  -18.7745  -14.5870 C   0  0  0  0  0  0  0  0  0  0  0  0
   21.4452  -18.5474  -15.9336 C   0  0  0  0  0  0  0  0  0  0  0  0
   21.2837  -17.2736  -16.3984 C   0  0  0  0  0  0  0  0  0  0  0  0
   20.9371  -16.2057  -15.5955 C   0  0  0  0  0  0  0  0  0  0  0  0
   20.7872  -14.8576  -16.1807 C   0  0  0  0  0  0  0  0  0  0  0  0
   19.3399  -14.4486  -16.3460 C   0  0  2  0  0  0  0  0  0  0  0  0
   18.7698  -15.3657  -17.3489 N   0  0  0  0  0  0  0  0  0  0  0  0
   19.1795  -13.0590  -16.8259 C   0  0  0  0  0  0  0  0  0  0  0  0
   19.2822  -12.8336  -18.0582 O   0  0  0  0  0  0  0  0  0  0  0  0
   20.7496  -16.4560  -14.2656 C   0  0  0  0  0  0  0  0  0  0  0  0
   20.9033  -17.7301  -13.7571 C   0  0  0  0  0  0  0  0  0  0  0  0
   18.9127  -11.9781  -15.9249 N   0  0  0  0  0  0  0  0  0  0  0  0
   18.6889  -10.6270  -16.4321 C   0  0  1  0  0  0  0  0  0  0  0  0
   17.3464  -10.1217  -15.9991 C   0  0  0  0  0  0  0  0  0  0  0  0
   16.1783  -10.8870  -16.5092 C   0  0  0  0  0  0  0  0  0  0  0  0
   14.8737  -10.4065  -16.0447 C   0  0  0  0  0  0  0  0  0  0  0  0
   14.7788   -9.4126  -15.2897 O   0  0  0  0  0  0  0  0  0  0  0  0
   19.7010   -9.7067  -15.7987 C   0  0  0  0  0  0  0  0  0  0  0  0
   19.9639   -9.8890  -14.5858 O   0  0  0  0  0  0  0  0  0  0  0  0
   13.6821  -11.0178  -16.4101 O   0  0  0  0  0  0  0  0  0  0  0  0
   21.8035   -6.8352  -17.0157 C   0  0  0  0  0  0  0  0  0  0  0  0
   21.3332   -7.7892  -15.9149 C   0  0  2  0  0  0  0  0  0  0  0  0
   20.3535   -8.6719  -16.4886 N   0  0  0  0  0  0  0  0  0  0  0  0
   20.7951   -6.9993  -14.7925 C   0  0  0  0  0  0  0  0  0  0  0  0
   19.4410   -6.7901  -14.6204 O   0  0  0  0  0  0  0  0  0  0  0  0
   21.5871   -6.4971  -13.9617 O   0  0  0  0  0  0  0  0  0  0  0  0
  2  3  2  0
  2  1  1  0
  4  3  1  0
  5  4  2  0
  6  5  1  0
  7  9  1  0
  7  6  1  0
  7  8  1  6
  9 10  2  0
 11  5  1  0
 11 12  2  0
 12  2  1  0
 13  9  1  0
 13 14  1  0
 14 15  1  1
 15 16  1  0
 17 18  2  0
 17 16  1  0
 19 24  1  0
 19 14  1  0
 20 19  2  0
 21 17  1  0
 23 22  1  6
 23 24  1  0
 25 23  1  0
 25 26  1  0
 27 25  2  0
M  END
$$$$
