YEA.pdb
     RDKit          3D

 27 27  0  0  1  0  0  0  0  0999 V2000
   24.1455  -21.9955   -8.4203 O   0  0  0  0  0  0  0  0  0  0  0  0
   24.8631  -21.4306   -9.4598 C   0  0  0  0  0  0  0  0  0  0  0  0
   26.1096  -20.8696   -9.2748 C   0  0  0  0  0  0  0  0  0  0  0  0
   26.7401  -20.3365  -10.3625 C   0  0  0  0  0  0  0  0  0  0  0  0
   26.1983  -20.3293  -11.6320 C   0  0  0  0  0  0  0  0  0  0  0  0
   26.9479  -19.7270  -12.7534 C   0  0  0  0  0  0  0  0  0  0  0  0
   26.7632  -20.4799  -14.0528 C   0  0  2  0  0  0  0  0  0  0  0  0
   27.9822  -21.2886  -14.2312 N   0  0  0  0  0  0  0  0  0  0  0  0
   26.6066  -19.5899  -15.2233 C   0  0  0  0  0  0  0  0  0  0  0  0
   27.6388  -19.1016  -15.7489 O   0  0  0  0  0  0  0  0  0  0  0  0
   24.9627  -20.8906  -11.7896 C   0  0  0  0  0  0  0  0  0  0  0  0
   24.2930  -21.4399  -10.7147 C   0  0  0  0  0  0  0  0  0  0  0  0
   25.3175  -19.2770  -15.7634 N   0  0  0  0  0  0  0  0  0  0  0  0
   25.1883  -18.3587  -16.8915 C   0  0  1  0  0  0  0  0  0  0  0  0
   24.4713  -19.0231  -18.0271 C   0  0  0  0  0  0  0  0  0  0  0  0
   24.3377  -18.2098  -19.2645 C   0  0  0  0  0  0  0  0  0  0  0  0
   25.4986  -18.2491  -20.1585 C   0  0  0  0  0  0  0  0  0  0  0  0
   26.4805  -18.9865  -19.9159 O   0  0  0  0  0  0  0  0  0  0  0  0
   24.3144  -17.2053  -16.4691 C   0  0  0  0  0  0  0  0  0  0  0  0
   23.2896  -17.4761  -15.7982 O   0  0  0  0  0  0  0  0  0  0  0  0
   25.5760  -17.4807  -21.3120 O   0  0  0  0  0  0  0  0  0  0  0  0
   24.6589  -13.4764  -16.5659 C   0  0  0  0  0  0  0  0  0  0  0  0
   23.8274  -14.7367  -16.3146 C   0  0  2  0  0  0  0  0  0  0  0  0
   24.5866  -15.8640  -16.7847 N   0  0  0  0  0  0  0  0  0  0  0  0
   22.5305  -14.6014  -17.0022 C   0  0  0  0  0  0  0  0  0  0  0  0
   22.2143  -15.3320  -18.1306 O   0  0  0  0  0  0  0  0  0  0  0  0
   21.6802  -13.7979  -16.5536 O   0  0  0  0  0  0  0  0  0  0  0  0
  2  3  2  0
  2  1  1  0
  4  3  1  0
  5  4  2  0
  6  5  1  0
  7  9  1  0
  7  6  1  0
  7  8  1  6
  9 10  2  0
 11  5  1  0
 11 12  2  0
 12  2  1  0
 13  9  1  0
 13 14  1  0
 14 15  1  6
 15 16  1  0
 17 18  2  0
 17 16  1  0
 19 24  1  0
 19 14  1  0
 20 19  2  0
 21 17  1  0
 23 22  1  6
 23 24  1  0
 25 23  1  0
 25 26  1  0
 27 25  2  0
M  END
$$$$
