YEA.pdb
     RDKit          3D

 27 27  0  0  1  0  0  0  0  0999 V2000
   11.6096  -14.0036  -11.2946 O   0  0  0  0  0  0  0  0  0  0  0  0
   12.3680  -12.8468  -11.3295 C   0  0  0  0  0  0  0  0  0  0  0  0
   12.2723  -11.8738  -10.3565 C   0  0  0  0  0  0  0  0  0  0  0  0
   13.0625  -10.7667  -10.4776 C   0  0  0  0  0  0  0  0  0  0  0  0
   13.9483  -10.5706  -11.5178 C   0  0  0  0  0  0  0  0  0  0  0  0
   14.7634   -9.3398  -11.5740 C   0  0  0  0  0  0  0  0  0  0  0  0
   16.2500   -9.6200  -11.5442 C   0  0  2  0  0  0  0  0  0  0  0  0
   16.5428  -10.1194  -10.1890 N   0  0  0  0  0  0  0  0  0  0  0  0
   17.0734   -8.4180  -11.7971 C   0  0  0  0  0  0  0  0  0  0  0  0
   17.2566   -7.6064  -10.8548 O   0  0  0  0  0  0  0  0  0  0  0  0
   14.0249  -11.5484  -12.4690 C   0  0  0  0  0  0  0  0  0  0  0  0
   13.2427  -12.6825  -12.3821 C   0  0  0  0  0  0  0  0  0  0  0  0
   17.6591   -8.1634  -13.0791 N   0  0  0  0  0  0  0  0  0  0  0  0
   18.3837   -6.9207  -13.3305 C   0  0  1  0  0  0  0  0  0  0  0  0
   19.5134   -7.1581  -14.2859 C   0  0  0  0  0  0  0  0  0  0  0  0
   20.6732   -7.9067  -13.7339 C   0  0  0  0  0  0  0  0  0  0  0  0
   21.7826   -8.1066  -14.6707 C   0  0  0  0  0  0  0  0  0  0  0  0
   22.6591   -7.2284  -14.8363 O   0  0  0  0  0  0  0  0  0  0  0  0
   17.4526   -5.9580  -14.0224 C   0  0  0  0  0  0  0  0  0  0  0  0
   16.8119   -6.3883  -15.0114 O   0  0  0  0  0  0  0  0  0  0  0  0
   21.9245   -9.2667  -15.4197 O   0  0  0  0  0  0  0  0  0  0  0  0
   15.7480   -2.8270  -13.1670 C   0  0  0  0  0  0  0  0  0  0  0  0
   16.3891   -3.6849  -14.2605 C   0  0  2  0  0  0  0  0  0  0  0  0
   17.2700   -4.6246  -13.6208 N   0  0  0  0  0  0  0  0  0  0  0  0
   17.0937   -2.8046  -15.2101 C   0  0  0  0  0  0  0  0  0  0  0  0
   16.4250   -1.9070  -16.0190 O   0  0  0  0  0  0  0  0  0  0  0  0
   18.3424   -2.8668  -15.2923 O   0  0  0  0  0  0  0  0  0  0  0  0
  2  3  2  0
  2  1  1  0
  4  3  1  0
  5  4  2  0
  6  5  1  0
  7  9  1  0
  7  6  1  0
  7  8  1  1
  9 10  2  0
 11  5  1  0
 11 12  2  0
 12  2  1  0
 13  9  1  0
 13 14  1  0
 14 15  1  6
 15 16  1  0
 17 18  2  0
 17 16  1  0
 19 24  1  0
 19 14  1  0
 20 19  2  0
 21 17  1  0
 23 22  1  1
 23 24  1  0
 25 23  1  0
 25 26  1  0
 27 25  2  0
M  END
$$$$
