YEA.pdb
     RDKit          3D

 27 27  0  0  1  0  0  0  0  0999 V2000
   30.1242  -13.1109  -16.7532 O   0  0  0  0  0  0  0  0  0  0  0  0
   29.0896  -12.1934  -16.7026 C   0  0  0  0  0  0  0  0  0  0  0  0
   27.9573  -12.4015  -15.9428 C   0  0  0  0  0  0  0  0  0  0  0  0
   26.9901  -11.4375  -15.9572 C   0  0  0  0  0  0  0  0  0  0  0  0
   27.0853  -10.2709  -16.6886 C   0  0  0  0  0  0  0  0  0  0  0  0
   25.9888   -9.2816  -16.6502 C   0  0  0  0  0  0  0  0  0  0  0  0
   24.7079   -9.8029  -17.2639 C   0  0  2  0  0  0  0  0  0  0  0  0
   25.0139  -10.0677  -18.6810 N   0  0  0  0  0  0  0  0  0  0  0  0
   23.5921   -8.8352  -17.1905 C   0  0  0  0  0  0  0  0  0  0  0  0
   23.3785   -8.0887  -18.1790 O   0  0  0  0  0  0  0  0  0  0  0  0
   28.2161  -10.0880  -17.4332 C   0  0  0  0  0  0  0  0  0  0  0  0
   29.2166  -11.0391  -17.4451 C   0  0  0  0  0  0  0  0  0  0  0  0
   22.7600   -8.7331  -16.0292 N   0  0  0  0  0  0  0  0  0  0  0  0
   21.5853   -7.8655  -16.0318 C   0  0  1  0  0  0  0  0  0  0  0  0
   20.4899   -8.4661  -15.2044 C   0  0  0  0  0  0  0  0  0  0  0  0
   19.1834   -7.7586  -15.2596 C   0  0  0  0  0  0  0  0  0  0  0  0
   18.1057   -8.3897  -14.4924 C   0  0  0  0  0  0  0  0  0  0  0  0
   17.5478   -9.4353  -14.8952 O   0  0  0  0  0  0  0  0  0  0  0  0
   21.9498   -6.5682  -15.3560 C   0  0  0  0  0  0  0  0  0  0  0  0
   22.5638   -6.6412  -14.2646 O   0  0  0  0  0  0  0  0  0  0  0  0
   17.6463   -7.8713  -13.2893 O   0  0  0  0  0  0  0  0  0  0  0  0
   21.5647   -2.9305  -16.2309 C   0  0  0  0  0  0  0  0  0  0  0  0
   22.0924   -4.0515  -15.3321 C   0  0  2  0  0  0  0  0  0  0  0  0
   21.6410   -5.3022  -15.8799 N   0  0  0  0  0  0  0  0  0  0  0  0
   21.6122   -3.8300  -13.9561 C   0  0  0  0  0  0  0  0  0  0  0  0
   22.2351   -2.9532  -13.0899 O   0  0  0  0  0  0  0  0  0  0  0  0
   20.6048   -4.4549  -13.5508 O   0  0  0  0  0  0  0  0  0  0  0  0
  2  3  2  0
  2  1  1  0
  4  3  1  0
  5  4  2  0
  6  5  1  0
  7  9  1  0
  7  6  1  0
  7  8  1  6
  9 10  2  0
 11  5  1  0
 11 12  2  0
 12  2  1  0
 13  9  1  0
 13 14  1  0
 14 15  1  1
 15 16  1  0
 17 18  2  0
 17 16  1  0
 19 24  1  0
 19 14  1  0
 20 19  2  0
 21 17  1  0
 23 22  1  6
 23 24  1  0
 25 23  1  0
 25 26  1  0
 27 25  2  0
M  END
$$$$
