YEA.pdb
     RDKit          3D

 27 27  0  0  1  0  0  0  0  0999 V2000
    9.3653  -11.4255  -10.2222 O   0  0  0  0  0  0  0  0  0  0  0  0
   10.6267  -10.9005  -10.0033 C   0  0  0  0  0  0  0  0  0  0  0  0
   11.2544  -10.9789   -8.7774 C   0  0  0  0  0  0  0  0  0  0  0  0
   12.4996  -10.4309   -8.6591 C   0  0  0  0  0  0  0  0  0  0  0  0
   13.1606   -9.8055   -9.6968 C   0  0  0  0  0  0  0  0  0  0  0  0
   14.5062   -9.2353   -9.4807 C   0  0  0  0  0  0  0  0  0  0  0  0
   15.5569   -9.8592  -10.3729 C   0  0  2  0  0  0  0  0  0  0  0  0
   15.7909  -11.2134   -9.8405 N   0  0  0  0  0  0  0  0  0  0  0  0
   16.8368   -9.1185  -10.3697 C   0  0  0  0  0  0  0  0  0  0  0  0
   17.6120   -9.2634   -9.3909 O   0  0  0  0  0  0  0  0  0  0  0  0
   12.5182   -9.7404  -10.9009 C   0  0  0  0  0  0  0  0  0  0  0  0
   11.2588  -10.2825  -11.0608 C   0  0  0  0  0  0  0  0  0  0  0  0
   17.2060   -8.2498  -11.4469 N   0  0  0  0  0  0  0  0  0  0  0  0
   18.2567   -7.2514  -11.2685 C   0  0  1  0  0  0  0  0  0  0  0  0
   19.1752   -7.2417  -12.4524 C   0  0  0  0  0  0  0  0  0  0  0  0
   20.2839   -6.2528  -12.3955 C   0  0  0  0  0  0  0  0  0  0  0  0
   21.1425   -6.2176  -13.5830 C   0  0  0  0  0  0  0  0  0  0  0  0
   21.4215   -7.2620  -14.2139 O   0  0  0  0  0  0  0  0  0  0  0  0
   17.6162   -5.8873  -11.2311 C   0  0  0  0  0  0  0  0  0  0  0  0
   16.8822   -5.5701  -12.1976 O   0  0  0  0  0  0  0  0  0  0  0  0
   21.6895   -5.0388  -14.0712 O   0  0  0  0  0  0  0  0  0  0  0  0
   17.5383   -3.0634   -8.7504 C   0  0  0  0  0  0  0  0  0  0  0  0
   17.1719   -3.6766  -10.1042 C   0  0  2  0  0  0  0  0  0  0  0  0
   17.7979   -4.9688  -10.1842 N   0  0  0  0  0  0  0  0  0  0  0  0
   17.6114   -2.7672  -11.1780 C   0  0  0  0  0  0  0  0  0  0  0  0
   16.7867   -1.7908  -11.7009 O   0  0  0  0  0  0  0  0  0  0  0  0
   18.7718   -2.8776  -11.6375 O   0  0  0  0  0  0  0  0  0  0  0  0
  2  3  2  0
  2  1  1  0
  4  3  1  0
  5  4  2  0
  6  5  1  0
  7  9  1  0
  7  6  1  0
  7  8  1  1
  9 10  2  0
 11  5  1  0
 11 12  2  0
 12  2  1  0
 13  9  1  0
 13 14  1  0
 14 15  1  6
 15 16  1  0
 17 18  2  0
 17 16  1  0
 19 24  1  0
 19 14  1  0
 20 19  2  0
 21 17  1  0
 23 22  1  1
 23 24  1  0
 25 23  1  0
 25 26  1  0
 27 25  2  0
M  END
$$$$
