YEA.pdb
     RDKit          3D

 27 27  0  0  1  0  0  0  0  0999 V2000
   20.4646  -29.6711  -14.7503 O   0  0  0  0  0  0  0  0  0  0  0  0
   21.5795  -29.8242  -15.5554 C   0  0  0  0  0  0  0  0  0  0  0  0
   22.6652  -30.5845  -15.1732 C   0  0  0  0  0  0  0  0  0  0  0  0
   23.7192  -30.6758  -16.0366 C   0  0  0  0  0  0  0  0  0  0  0  0
   23.7556  -30.0502  -17.2664 C   0  0  0  0  0  0  0  0  0  0  0  0
   24.9391  -30.1988  -18.1378 C   0  0  0  0  0  0  0  0  0  0  0  0
   26.0541  -29.2407  -17.7797 C   0  0  2  0  0  0  0  0  0  0  0  0
   25.5931  -27.9051  -18.1988 N   0  0  0  0  0  0  0  0  0  0  0  0
   27.3258  -29.5440  -18.4707 C   0  0  0  0  0  0  0  0  0  0  0  0
   27.6250  -28.8814  -19.4962 O   0  0  0  0  0  0  0  0  0  0  0  0
   22.6686  -29.3029  -17.6222 C   0  0  0  0  0  0  0  0  0  0  0  0
   21.5833  -29.1860  -16.7771 C   0  0  0  0  0  0  0  0  0  0  0  0
   28.2125  -30.5656  -18.0002 N   0  0  0  0  0  0  0  0  0  0  0  0
   29.4389  -30.8775  -18.7292 C   0  0  1  0  0  0  0  0  0  0  0  0
   30.5884  -31.0260  -17.7795 C   0  0  0  0  0  0  0  0  0  0  0  0
   31.9046  -31.3170  -18.4066 C   0  0  0  0  0  0  0  0  0  0  0  0
   33.0402  -31.3362  -17.4801 C   0  0  0  0  0  0  0  0  0  0  0  0
   34.1976  -31.6007  -17.8767 O   0  0  0  0  0  0  0  0  0  0  0  0
   29.2717  -32.2224  -19.3893 C   0  0  0  0  0  0  0  0  0  0  0  0
   28.5960  -33.0835  -18.7766 O   0  0  0  0  0  0  0  0  0  0  0  0
   32.9004  -31.0656  -16.1257 O   0  0  0  0  0  0  0  0  0  0  0  0
   29.0778  -33.5632  -22.6795 C   0  0  0  0  0  0  0  0  0  0  0  0
   29.6750  -33.8232  -21.2944 C   0  0  2  0  0  0  0  0  0  0  0  0
   29.8263  -32.5534  -20.6365 N   0  0  0  0  0  0  0  0  0  0  0  0
   30.9559  -34.5362  -21.4500 C   0  0  0  0  0  0  0  0  0  0  0  0
   32.1387  -33.8769  -21.7205 O   0  0  0  0  0  0  0  0  0  0  0  0
   30.9807  -35.7835  -21.3342 O   0  0  0  0  0  0  0  0  0  0  0  0
  2  3  2  0
  2  1  1  0
  4  3  1  0
  5  4  2  0
  6  5  1  0
  7  9  1  0
  7  6  1  0
  7  8  1  6
  9 10  2  0
 11  5  1  0
 11 12  2  0
 12  2  1  0
 13  9  1  0
 13 14  1  0
 14 15  1  1
 15 16  1  0
 17 18  2  0
 17 16  1  0
 19 24  1  0
 19 14  1  0
 20 19  2  0
 21 17  1  0
 23 22  1  6
 23 24  1  0
 25 23  1  0
 25 26  1  0
 27 25  2  0
M  END
$$$$
