YEA.pdb
     RDKit          3D

 27 27  0  0  1  0  0  0  0  0999 V2000
   17.6140  -15.6065  -20.3690 O   0  0  0  0  0  0  0  0  0  0  0  0
   17.6733  -14.6108  -19.4100 C   0  0  0  0  0  0  0  0  0  0  0  0
   17.5354  -14.8760  -18.0634 C   0  0  0  0  0  0  0  0  0  0  0  0
   17.6087  -13.8264  -17.1929 C   0  0  0  0  0  0  0  0  0  0  0  0
   17.8126  -12.5196  -17.5875 C   0  0  0  0  0  0  0  0  0  0  0  0
   17.8746  -11.4426  -16.5782 C   0  0  0  0  0  0  0  0  0  0  0  0
   19.2815  -10.9353  -16.3489 C   0  0  2  0  0  0  0  0  0  0  0  0
   20.0078  -12.0344  -15.6884 N   0  0  0  0  0  0  0  0  0  0  0  0
   19.3341   -9.7399  -15.4800 C   0  0  0  0  0  0  0  0  0  0  0  0
   19.0625   -9.8719  -14.2598 O   0  0  0  0  0  0  0  0  0  0  0  0
   17.9460  -12.2824  -18.9264 C   0  0  0  0  0  0  0  0  0  0  0  0
   17.8780  -13.3167  -19.8382 C   0  0  0  0  0  0  0  0  0  0  0  0
   19.6841   -8.4501  -15.9952 N   0  0  0  0  0  0  0  0  0  0  0  0
   19.7717   -7.2946  -15.1065 C   0  0  1  0  0  0  0  0  0  0  0  0
   21.1252   -6.6596  -15.2062 C   0  0  0  0  0  0  0  0  0  0  0  0
   21.3165   -5.4273  -14.3968 C   0  0  0  0  0  0  0  0  0  0  0  0
   22.6292   -4.7912  -14.5396 C   0  0  0  0  0  0  0  0  0  0  0  0
   22.7364   -3.5591  -14.7331 O   0  0  0  0  0  0  0  0  0  0  0  0
   18.7906   -6.2532  -15.5812 C   0  0  0  0  0  0  0  0  0  0  0  0
   18.8796   -5.8818  -16.7761 O   0  0  0  0  0  0  0  0  0  0  0  0
   23.8156   -5.5087  -14.4695 O   0  0  0  0  0  0  0  0  0  0  0  0
   15.6585   -4.7286  -14.2566 C   0  0  0  0  0  0  0  0  0  0  0  0
   16.8803   -4.6591  -15.1760 C   0  0  2  0  0  0  0  0  0  0  0  0
   17.7977   -5.6873  -14.7648 N   0  0  0  0  0  0  0  0  0  0  0  0
   17.4679   -3.3097  -15.0924 C   0  0  0  0  0  0  0  0  0  0  0  0
   18.7400   -3.0885  -14.6026 O   0  0  0  0  0  0  0  0  0  0  0  0
   16.7966   -2.3242  -15.4770 O   0  0  0  0  0  0  0  0  0  0  0  0
  2  3  2  0
  2  1  1  0
  4  3  1  0
  5  4  2  0
  6  5  1  0
  7  9  1  0
  7  6  1  0
  7  8  1  1
  9 10  2  0
 11  5  1  0
 11 12  2  0
 12  2  1  0
 13  9  1  0
 13 14  1  0
 14 15  1  6
 15 16  1  0
 17 18  2  0
 17 16  1  0
 19 24  1  0
 19 14  1  0
 20 19  2  0
 21 17  1  0
 23 22  1  1
 23 24  1  0
 25 23  1  0
 25 26  1  0
 27 25  2  0
M  END
$$$$
