YEA.pdb
     RDKit          3D

 27 27  0  0  1  0  0  0  0  0999 V2000
   34.2038  -33.2383   -8.7176 O   0  0  0  0  0  0  0  0  0  0  0  0
   33.5964  -33.5025   -7.5028 C   0  0  0  0  0  0  0  0  0  0  0  0
   32.3552  -32.9978   -7.1748 C   0  0  0  0  0  0  0  0  0  0  0  0
   31.8378  -33.3145   -5.9514 C   0  0  0  0  0  0  0  0  0  0  0  0
   32.4882  -34.1096   -5.0295 C   0  0  0  0  0  0  0  0  0  0  0  0
   31.8571  -34.3992   -3.7256 C   0  0  0  0  0  0  0  0  0  0  0  0
   31.2248  -35.7728   -3.6732 C   0  0  2  0  0  0  0  0  0  0  0  0
   29.9364  -35.6549   -4.3790 N   0  0  0  0  0  0  0  0  0  0  0  0
   30.9712  -36.2440   -2.2947 C   0  0  0  0  0  0  0  0  0  0  0  0
   29.8772  -35.9485   -1.7506 O   0  0  0  0  0  0  0  0  0  0  0  0
   33.7161  -34.5972   -5.3775 C   0  0  0  0  0  0  0  0  0  0  0  0
   34.2732  -34.2999   -6.6051 C   0  0  0  0  0  0  0  0  0  0  0  0
   31.9359  -37.0212   -1.5759 N   0  0  0  0  0  0  0  0  0  0  0  0
   31.5996  -37.6108   -0.2828 C   0  0  1  0  0  0  0  0  0  0  0  0
   32.3464  -38.8944   -0.0832 C   0  0  0  0  0  0  0  0  0  0  0  0
   31.7653  -40.0856   -0.7568 C   0  0  0  0  0  0  0  0  0  0  0  0
   32.4151  -41.3584   -0.4311 C   0  0  0  0  0  0  0  0  0  0  0  0
   31.9938  -42.0837    0.4980 O   0  0  0  0  0  0  0  0  0  0  0  0
   32.0776  -36.6812    0.8033 C   0  0  0  0  0  0  0  0  0  0  0  0
   33.1806  -36.1103    0.6272 O   0  0  0  0  0  0  0  0  0  0  0  0
   33.5218  -41.8282   -1.1252 O   0  0  0  0  0  0  0  0  0  0  0  0
   30.6174  -35.3987    4.0197 C   0  0  0  0  0  0  0  0  0  0  0  0
   31.7617  -35.5007    3.0082 C   0  0  2  0  0  0  0  0  0  0  0  0
   31.3604  -36.4268    1.9838 N   0  0  0  0  0  0  0  0  0  0  0  0
   32.9859  -35.9281    3.7096 C   0  0  0  0  0  0  0  0  0  0  0  0
   33.6113  -37.1287    3.4363 O   0  0  0  0  0  0  0  0  0  0  0  0
   33.4824  -35.1821    4.5852 O   0  0  0  0  0  0  0  0  0  0  0  0
  2  3  2  0
  2  1  1  0
  4  3  1  0
  5  4  2  0
  6  5  1  0
  7  9  1  0
  7  6  1  0
  7  8  1  6
  9 10  2  0
 11  5  1  0
 11 12  2  0
 12  2  1  0
 13  9  1  0
 13 14  1  0
 14 15  1  1
 15 16  1  0
 17 18  2  0
 17 16  1  0
 19 24  1  0
 19 14  1  0
 20 19  2  0
 21 17  1  0
 23 22  1  1
 23 24  1  0
 25 23  1  0
 25 26  1  0
 27 25  2  0
M  END
$$$$
