YEA.pdb
     RDKit          3D

 27 27  0  0  1  0  0  0  0  0999 V2000
   30.4939  -11.6112  -17.5149 O   0  0  0  0  0  0  0  0  0  0  0  0
   29.3127  -11.2726  -16.8786 C   0  0  0  0  0  0  0  0  0  0  0  0
   28.6310  -12.1591  -16.0710 C   0  0  0  0  0  0  0  0  0  0  0  0
   27.4733  -11.7324  -15.4858 C   0  0  0  0  0  0  0  0  0  0  0  0
   26.9514  -10.4664  -15.6589 C   0  0  0  0  0  0  0  0  0  0  0  0
   25.6892  -10.0883  -14.9908 C   0  0  0  0  0  0  0  0  0  0  0  0
   24.4845  -10.2214  -15.8965 C   0  0  2  0  0  0  0  0  0  0  0  0
   24.6206  -11.5275  -16.5654 N   0  0  0  0  0  0  0  0  0  0  0  0
   24.4124   -9.1637  -16.9274 C   0  0  0  0  0  0  0  0  0  0  0  0
   24.9667   -9.3677  -18.0369 O   0  0  0  0  0  0  0  0  0  0  0  0
   27.6447   -9.6069  -16.4633 C   0  0  0  0  0  0  0  0  0  0  0  0
   28.8191  -10.0004  -17.0729 C   0  0  0  0  0  0  0  0  0  0  0  0
   23.7315   -7.9263  -16.6893 N   0  0  0  0  0  0  0  0  0  0  0  0
   23.6446   -6.9132  -17.7375 C   0  0  1  0  0  0  0  0  0  0  0  0
   22.4092   -7.1171  -18.5606 C   0  0  0  0  0  0  0  0  0  0  0  0
   22.5695   -7.9928  -19.7513 C   0  0  0  0  0  0  0  0  0  0  0  0
   22.0880   -7.4182  -21.0108 C   0  0  0  0  0  0  0  0  0  0  0  0
   22.4326   -6.2713  -21.3752 O   0  0  0  0  0  0  0  0  0  0  0  0
   23.4879   -5.5639  -17.0840 C   0  0  0  0  0  0  0  0  0  0  0  0
   22.8700   -5.5217  -15.9931 O   0  0  0  0  0  0  0  0  0  0  0  0
   21.2324   -8.1034  -21.8625 O   0  0  0  0  0  0  0  0  0  0  0  0
   24.6510   -2.0787  -17.8834 C   0  0  0  0  0  0  0  0  0  0  0  0
   23.8736   -3.0735  -17.0181 C   0  0  2  0  0  0  0  0  0  0  0  0
   23.9915   -4.3707  -17.6276 N   0  0  0  0  0  0  0  0  0  0  0  0
   22.4738   -2.6242  -16.9096 C   0  0  0  0  0  0  0  0  0  0  0  0
   22.0703   -1.6867  -15.9794 O   0  0  0  0  0  0  0  0  0  0  0  0
   21.6144   -3.1046  -17.6845 O   0  0  0  0  0  0  0  0  0  0  0  0
  2  3  2  0
  2  1  1  0
  4  3  1  0
  5  4  2  0
  6  5  1  0
  7  9  1  0
  7  6  1  0
  7  8  1  6
  9 10  2  0
 11  5  1  0
 11 12  2  0
 12  2  1  0
 13  9  1  0
 13 14  1  0
 14 15  1  6
 15 16  1  0
 17 18  2  0
 17 16  1  0
 19 24  1  0
 19 14  1  0
 20 19  2  0
 21 17  1  0
 23 22  1  6
 23 24  1  0
 25 23  1  0
 25 26  1  0
 27 25  2  0
M  END
$$$$
