TAL.pdb
     RDKit          3D

 21 20  0  0  1  0  0  0  0  0999 V2000
    5.9185  -18.1474   23.9054 C   0  0  0  0  0  0  0  0  0  0  0  0
    6.8081  -19.0721   23.0802 C   0  0  1  0  0  0  0  0  0  0  0  0
    6.1305  -20.3000   23.0432 O   0  0  0  0  0  0  0  0  0  0  0  0
    6.9688  -18.5069   21.6884 C   0  0  2  0  0  0  0  0  0  0  0  0
    7.5975  -19.5569   20.8747 N   0  0  0  0  0  0  0  0  0  0  0  0
    7.8500  -17.3042   21.7248 C   0  0  0  0  0  0  0  0  0  0  0  0
    9.0528  -17.4531   22.0113 O   0  0  0  0  0  0  0  0  0  0  0  0
    7.1588  -13.6462   21.1236 C   0  0  0  0  0  0  0  0  0  0  0  0
    8.0134  -14.7865   21.5502 C   0  0  2  0  0  0  0  0  0  0  0  0
    7.3245  -16.0391   21.4416 N   0  0  0  0  0  0  0  0  0  0  0  0
    8.5926  -14.6074   22.9272 C   0  0  0  0  0  0  0  0  0  0  0  0
    9.8215  -14.3700   22.9994 O   0  0  0  0  0  0  0  0  0  0  0  0
    6.2283  -11.7896   27.2093 C   0  0  0  0  0  0  0  0  0  0  0  0
    7.4859  -12.4956   26.7978 C   0  0  2  0  0  0  0  0  0  0  0  0
    8.2934  -11.6822   25.7994 C   0  0  0  0  0  0  0  0  0  0  0  0
    7.3208  -13.9099   26.3885 C   0  0  0  0  0  0  0  0  0  0  0  0
    8.2924  -14.4757   25.4284 C   0  0  2  0  0  0  0  0  0  0  0  0
    7.7970  -14.6977   24.0976 N   0  0  0  0  0  0  0  0  0  0  0  0
    8.7413  -15.7986   26.0186 C   0  0  0  0  0  0  0  0  0  0  0  0
    8.5733  -16.9990   25.3926 O   0  0  0  0  0  0  0  0  0  0  0  0
    9.3013  -15.7633   27.1614 O   0  0  0  0  0  0  0  0  0  0  0  0
  2  1  1  1
  3  2  1  0
  4  2  1  0
  4  6  1  0
  4  5  1  6
  6 10  1  0
  7  6  2  0
  9  8  1  1
 10  9  1  0
 11  9  1  0
 11 12  2  0
 14 15  1  6
 14 13  1  0
 16 14  1  0
 17 18  1  0
 17 16  1  1
 18 11  1  0
 19 17  1  0
 20 19  1  0
 21 19  2  0
M  END
$$$$
