TAL.pdb
     RDKit          3D

 21 20  0  0  1  0  0  0  0  0999 V2000
    7.6406  -19.1680   24.2713 C   0  0  0  0  0  0  0  0  0  0  0  0
    8.5564  -19.7132   23.1796 C   0  0  1  0  0  0  0  0  0  0  0  0
    8.3347  -21.0985   23.1698 O   0  0  0  0  0  0  0  0  0  0  0  0
    8.1776  -19.1008   21.8516 C   0  0  2  0  0  0  0  0  0  0  0  0
    8.8482  -19.8944   20.8122 N   0  0  0  0  0  0  0  0  0  0  0  0
    8.6504  -17.6877   21.7881 C   0  0  0  0  0  0  0  0  0  0  0  0
    9.8733  -17.4630   21.8586 O   0  0  0  0  0  0  0  0  0  0  0  0
    6.8330  -14.4210   21.3201 C   0  0  0  0  0  0  0  0  0  0  0  0
    8.0218  -15.2405   21.6772 C   0  0  2  0  0  0  0  0  0  0  0  0
    7.7292  -16.6438   21.6524 N   0  0  0  0  0  0  0  0  0  0  0  0
    8.6411  -14.8420   22.9892 C   0  0  0  0  0  0  0  0  0  0  0  0
    9.7050  -14.1809   22.9370 O   0  0  0  0  0  0  0  0  0  0  0  0
    7.9577  -11.6534   25.9401 C   0  0  0  0  0  0  0  0  0  0  0  0
    6.9381  -12.7516   26.0032 C   0  0  2  0  0  0  0  0  0  0  0  0
    5.7228  -12.3521   26.8239 C   0  0  0  0  0  0  0  0  0  0  0  0
    7.4612  -14.0901   26.3632 C   0  0  0  0  0  0  0  0  0  0  0  0
    8.5069  -14.6844   25.5033 C   0  0  2  0  0  0  0  0  0  0  0  0
    8.0582  -15.1891   24.2345 N   0  0  0  0  0  0  0  0  0  0  0  0
    9.1110  -15.8213   26.3048 C   0  0  0  0  0  0  0  0  0  0  0  0
    9.8058  -15.6398   27.4647 O   0  0  0  0  0  0  0  0  0  0  0  0
    8.9498  -16.9998   25.8513 O   0  0  0  0  0  0  0  0  0  0  0  0
  2  1  1  1
  3  2  1  0
  4  2  1  0
  4  6  1  0
  4  5  1  6
  6 10  1  0
  7  6  2  0
  9  8  1  1
 10  9  1  0
 11  9  1  0
 11 12  2  0
 14 15  1  1
 14 13  1  0
 16 14  1  0
 17 18  1  0
 17 16  1  1
 18 11  1  0
 19 17  1  0
 20 19  1  0
 21 19  2  0
M  END
$$$$
