TAL.pdb
     RDKit          3D

 21 20  0  0  1  0  0  0  0  0999 V2000
    9.6497  -12.5092   20.3274 C   0  0  0  0  0  0  0  0  0  0  0  0
    8.5548  -12.9217   19.3483 C   0  0  1  0  0  0  0  0  0  0  0  0
    8.8299  -12.2153   18.1678 O   0  0  0  0  0  0  0  0  0  0  0  0
    8.6270  -14.4118   19.1101 C   0  0  2  0  0  0  0  0  0  0  0  0
    7.6925  -14.7118   18.0162 N   0  0  0  0  0  0  0  0  0  0  0  0
    8.2126  -15.1458   20.3404 C   0  0  0  0  0  0  0  0  0  0  0  0
    7.0327  -15.0468   20.7265 O   0  0  0  0  0  0  0  0  0  0  0  0
    9.5902  -17.9630   22.2654 C   0  0  0  0  0  0  0  0  0  0  0  0
    8.9034  -16.6437   22.2576 C   0  0  2  0  0  0  0  0  0  0  0  0
    9.1397  -15.9265   21.0389 N   0  0  0  0  0  0  0  0  0  0  0  0
    9.2382  -15.7966   23.4551 C   0  0  0  0  0  0  0  0  0  0  0  0
   10.3497  -15.2168   23.4472 O   0  0  0  0  0  0  0  0  0  0  0  0
    8.0188  -11.9109   25.2038 C   0  0  0  0  0  0  0  0  0  0  0  0
    7.0109  -12.9720   25.5322 C   0  0  2  0  0  0  0  0  0  0  0  0
    5.7389  -12.3845   26.1213 C   0  0  0  0  0  0  0  0  0  0  0  0
    7.5255  -14.1249   26.3075 C   0  0  0  0  0  0  0  0  0  0  0  0
    8.6468  -14.9028   25.7387 C   0  0  2  0  0  0  0  0  0  0  0  0
    8.3467  -15.6499   24.5481 N   0  0  0  0  0  0  0  0  0  0  0  0
    9.0863  -15.8609   26.8290 C   0  0  0  0  0  0  0  0  0  0  0  0
    9.7096  -15.4634   27.9755 O   0  0  0  0  0  0  0  0  0  0  0  0
    8.8519  -17.0982   26.6424 O   0  0  0  0  0  0  0  0  0  0  0  0
  2  1  1  1
  3  2  1  0
  4  2  1  0
  4  6  1  0
  4  5  1  6
  6 10  1  0
  7  6  2  0
  9  8  1  6
 10  9  1  0
 11  9  1  0
 11 12  2  0
 14 15  1  1
 14 13  1  0
 16 14  1  0
 17 18  1  0
 17 16  1  1
 18 11  1  0
 19 17  1  0
 20 19  1  0
 21 19  2  0
M  END
$$$$
