TAL.pdb
     RDKit          3D

 21 20  0  0  1  0  0  0  0  0999 V2000
   11.5685  -18.6054   21.7540 C   0  0  0  0  0  0  0  0  0  0  0  0
   12.0510  -17.6562   20.6614 C   0  0  1  0  0  0  0  0  0  0  0  0
   12.9679  -18.4007   19.9042 O   0  0  0  0  0  0  0  0  0  0  0  0
   10.8777  -17.2277   19.8117 C   0  0  2  0  0  0  0  0  0  0  0  0
   11.4312  -16.5015   18.6602 N   0  0  0  0  0  0  0  0  0  0  0  0
    9.9848  -16.3244   20.5934 C   0  0  0  0  0  0  0  0  0  0  0  0
   10.4143  -15.2054   20.9312 O   0  0  0  0  0  0  0  0  0  0  0  0
    6.3681  -16.5417   21.5781 C   0  0  0  0  0  0  0  0  0  0  0  0
    7.7486  -16.0097   21.7321 C   0  0  2  0  0  0  0  0  0  0  0  0
    8.6925  -16.7370   20.9350 N   0  0  0  0  0  0  0  0  0  0  0  0
    8.1968  -15.9373   23.1665 C   0  0  0  0  0  0  0  0  0  0  0  0
    9.2175  -16.5962   23.4761 O   0  0  0  0  0  0  0  0  0  0  0  0
    8.3794  -12.0571   26.2260 C   0  0  0  0  0  0  0  0  0  0  0  0
    7.0745  -12.7615   26.0011 C   0  0  2  0  0  0  0  0  0  0  0  0
    5.9035  -11.9888   26.5858 C   0  0  0  0  0  0  0  0  0  0  0  0
    7.0532  -14.1986   26.3609 C   0  0  0  0  0  0  0  0  0  0  0  0
    7.8399  -15.1365   25.5319 C   0  0  2  0  0  0  0  0  0  0  0  0
    7.5078  -15.1621   24.1338 N   0  0  0  0  0  0  0  0  0  0  0  0
    7.6068  -16.5135   26.1232 C   0  0  0  0  0  0  0  0  0  0  0  0
    6.8519  -17.4756   25.5185 O   0  0  0  0  0  0  0  0  0  0  0  0
    8.1535  -16.7625   27.2456 O   0  0  0  0  0  0  0  0  0  0  0  0
  2  1  1  1
  3  2  1  0
  4  2  1  0
  4  6  1  0
  4  5  1  6
  6 10  1  0
  7  6  2  0
  9  8  1  1
 10  9  1  0
 11  9  1  0
 11 12  2  0
 14 15  1  1
 14 13  1  0
 16 14  1  0
 17 18  1  0
 17 16  1  1
 18 11  1  0
 19 17  1  0
 20 19  1  0
 21 19  2  0
M  END
$$$$
