TAL.pdb
     RDKit          3D

 21 20  0  0  1  0  0  0  0  0999 V2000
   11.0776  -13.7785   20.2932 C   0  0  0  0  0  0  0  0  0  0  0  0
    9.9467  -13.0800   19.5444 C   0  0  1  0  0  0  0  0  0  0  0  0
   10.5327  -12.5836   18.3703 O   0  0  0  0  0  0  0  0  0  0  0  0
    8.8631  -14.0815   19.2201 C   0  0  2  0  0  0  0  0  0  0  0  0
    7.8467  -13.3668   18.4352 N   0  0  0  0  0  0  0  0  0  0  0  0
    8.2534  -14.5990   20.4789 C   0  0  0  0  0  0  0  0  0  0  0  0
    7.4555  -13.8717   21.0996 O   0  0  0  0  0  0  0  0  0  0  0  0
    8.3468  -17.9580   22.1570 C   0  0  0  0  0  0  0  0  0  0  0  0
    8.1123  -16.4892   22.1534 C   0  0  2  0  0  0  0  0  0  0  0  0
    8.5794  -15.8775   20.9438 N   0  0  0  0  0  0  0  0  0  0  0  0
    8.6816  -15.7974   23.3621 C   0  0  0  0  0  0  0  0  0  0  0  0
    9.9054  -15.5267   23.3371 O   0  0  0  0  0  0  0  0  0  0  0  0
    7.7471  -11.7830   25.4083 C   0  0  0  0  0  0  0  0  0  0  0  0
    6.7720  -12.8317   25.8542 C   0  0  2  0  0  0  0  0  0  0  0  0
    5.6587  -12.2463   26.7075 C   0  0  0  0  0  0  0  0  0  0  0  0
    7.3703  -14.0511   26.4460 C   0  0  0  0  0  0  0  0  0  0  0  0
    8.3781  -14.7880   25.6539 C   0  0  2  0  0  0  0  0  0  0  0  0
    7.8823  -15.4590   24.4836 N   0  0  0  0  0  0  0  0  0  0  0  0
    8.9824  -15.8120   26.5953 C   0  0  0  0  0  0  0  0  0  0  0  0
   10.0316  -15.5459   27.4256 O   0  0  0  0  0  0  0  0  0  0  0  0
    8.4678  -16.9764   26.5928 O   0  0  0  0  0  0  0  0  0  0  0  0
  2  1  1  1
  3  2  1  0
  4  2  1  0
  4  6  1  0
  4  5  1  6
  6 10  1  0
  7  6  2  0
  9  8  1  6
 10  9  1  0
 11  9  1  0
 11 12  2  0
 14 15  1  1
 14 13  1  0
 16 14  1  0
 17 18  1  0
 17 16  1  1
 18 11  1  0
 19 17  1  0
 20 19  1  0
 21 19  2  0
M  END
$$$$
