TAL.pdb
     RDKit          3D

 21 20  0  0  1  0  0  0  0  0999 V2000
    8.2576  -12.3996   18.9343 C   0  0  0  0  0  0  0  0  0  0  0  0
    8.4884  -13.2080   20.2074 C   0  0  1  0  0  0  0  0  0  0  0  0
    7.8104  -12.5085   21.2170 O   0  0  0  0  0  0  0  0  0  0  0  0
    7.9117  -14.5938   20.0360 C   0  0  2  0  0  0  0  0  0  0  0  0
    6.4876  -14.4234   19.7158 N   0  0  0  0  0  0  0  0  0  0  0  0
    8.0526  -15.3654   21.3045 C   0  0  0  0  0  0  0  0  0  0  0  0
    7.1195  -15.3360   22.1287 O   0  0  0  0  0  0  0  0  0  0  0  0
   10.7197  -17.6958   22.5795 C   0  0  0  0  0  0  0  0  0  0  0  0
    9.5261  -16.8251   22.7518 C   0  0  2  0  0  0  0  0  0  0  0  0
    9.2147  -16.1035   21.5527 N   0  0  0  0  0  0  0  0  0  0  0  0
    9.6397  -15.8934   23.9276 C   0  0  0  0  0  0  0  0  0  0  0  0
    9.5920  -14.6644   23.6845 O   0  0  0  0  0  0  0  0  0  0  0  0
    8.7060  -12.7321   26.4950 C   0  0  0  0  0  0  0  0  0  0  0  0
    7.7693  -13.7350   25.8896 C   0  0  2  0  0  0  0  0  0  0  0  0
    6.3223  -13.2749   25.9586 C   0  0  0  0  0  0  0  0  0  0  0  0
    7.9508  -15.1341   26.3420 C   0  0  0  0  0  0  0  0  0  0  0  0
    9.3271  -15.6683   26.4207 C   0  0  2  0  0  0  0  0  0  0  0  0
    9.7915  -16.3691   25.2549 N   0  0  0  0  0  0  0  0  0  0  0  0
    9.3416  -16.6130   27.6069 C   0  0  0  0  0  0  0  0  0  0  0  0
    9.8577  -16.2841   28.8262 O   0  0  0  0  0  0  0  0  0  0  0  0
    8.8412  -17.7705   27.4323 O   0  0  0  0  0  0  0  0  0  0  0  0
  2  1  1  6
  3  2  1  0
  4  2  1  0
  4  6  1  0
  4  5  1  1
  6 10  1  0
  7  6  2  0
  9  8  1  6
 10  9  1  0
 11  9  1  0
 11 12  2  0
 14 15  1  1
 14 13  1  0
 16 14  1  0
 17 18  1  0
 17 16  1  6
 18 11  1  0
 19 17  1  0
 20 19  1  0
 21 19  2  0
M  END
$$$$
