TAL.pdb
     RDKit          3D

 21 20  0  0  1  0  0  0  0  0999 V2000
   10.9662  -13.7828   20.0502 C   0  0  0  0  0  0  0  0  0  0  0  0
    9.7742  -13.0253   19.4733 C   0  0  1  0  0  0  0  0  0  0  0  0
   10.2250  -12.5027   18.2518 O   0  0  0  0  0  0  0  0  0  0  0  0
    8.6262  -13.9828   19.2550 C   0  0  2  0  0  0  0  0  0  0  0  0
    7.5796  -13.2346   18.5445 N   0  0  0  0  0  0  0  0  0  0  0  0
    8.1012  -14.4574   20.5678 C   0  0  0  0  0  0  0  0  0  0  0  0
    7.4121  -13.6784   21.2528 O   0  0  0  0  0  0  0  0  0  0  0  0
    8.0308  -17.8490   22.1682 C   0  0  0  0  0  0  0  0  0  0  0  0
    7.9015  -16.3679   22.2130 C   0  0  2  0  0  0  0  0  0  0  0  0
    8.3841  -15.7538   21.0107 N   0  0  0  0  0  0  0  0  0  0  0  0
    8.5453  -15.7554   23.4271 C   0  0  0  0  0  0  0  0  0  0  0  0
    9.7794  -15.5427   23.3687 O   0  0  0  0  0  0  0  0  0  0  0  0
    7.7407  -11.7894   25.3942 C   0  0  0  0  0  0  0  0  0  0  0  0
    6.8063  -12.8381   25.9201 C   0  0  2  0  0  0  0  0  0  0  0  0
    5.6886  -12.2358   26.7557 C   0  0  0  0  0  0  0  0  0  0  0  0
    7.4519  -14.0002   26.5740 C   0  0  0  0  0  0  0  0  0  0  0  0
    8.3711  -14.8318   25.7681 C   0  0  2  0  0  0  0  0  0  0  0  0
    7.8026  -15.4265   24.5896 N   0  0  0  0  0  0  0  0  0  0  0  0
    8.8602  -15.9301   26.6924 C   0  0  0  0  0  0  0  0  0  0  0  0
    8.6614  -17.2588   26.4554 O   0  0  0  0  0  0  0  0  0  0  0  0
    9.4863  -15.5696   27.7406 O   0  0  0  0  0  0  0  0  0  0  0  0
  2  1  1  6
  3  2  1  0
  4  2  1  0
  4  6  1  0
  4  5  1  1
  6 10  1  0
  7  6  2  0
  9  8  1  6
 10  9  1  0
 11  9  1  0
 11 12  2  0
 14 15  1  1
 14 13  1  0
 16 14  1  0
 17 18  1  0
 17 16  1  1
 18 11  1  0
 19 17  1  0
 20 19  1  0
 21 19  2  0
M  END
$$$$
