TAL.pdb
     RDKit          3D

 21 20  0  0  1  0  0  0  0  0999 V2000
    6.0174  -18.0746   24.2770 C   0  0  0  0  0  0  0  0  0  0  0  0
    6.7287  -19.0906   23.3886 C   0  0  1  0  0  0  0  0  0  0  0  0
    6.0045  -20.2828   23.5383 O   0  0  0  0  0  0  0  0  0  0  0  0
    6.6924  -18.6184   21.9541 C   0  0  2  0  0  0  0  0  0  0  0  0
    7.0348  -19.7773   21.1177 N   0  0  0  0  0  0  0  0  0  0  0  0
    7.6971  -17.5357   21.7479 C   0  0  0  0  0  0  0  0  0  0  0  0
    8.9048  -17.8385   21.7195 O   0  0  0  0  0  0  0  0  0  0  0  0
    7.4104  -13.8572   21.0410 C   0  0  0  0  0  0  0  0  0  0  0  0
    8.1184  -15.0473   21.5842 C   0  0  2  0  0  0  0  0  0  0  0  0
    7.2794  -16.2098   21.5911 N   0  0  0  0  0  0  0  0  0  0  0  0
    8.7189  -14.8078   22.9428 C   0  0  0  0  0  0  0  0  0  0  0  0
    9.8112  -14.1936   22.9802 O   0  0  0  0  0  0  0  0  0  0  0  0
    8.1237  -11.8111   26.0849 C   0  0  0  0  0  0  0  0  0  0  0  0
    7.0637  -12.8662   25.9716 C   0  0  2  0  0  0  0  0  0  0  0  0
    5.7793  -12.4590   26.6750 C   0  0  0  0  0  0  0  0  0  0  0  0
    7.4934  -14.2433   26.3092 C   0  0  0  0  0  0  0  0  0  0  0  0
    8.5179  -14.8827   25.4563 C   0  0  2  0  0  0  0  0  0  0  0  0
    8.0887  -15.2486   24.1343 N   0  0  0  0  0  0  0  0  0  0  0  0
    8.9604  -16.1293   26.1979 C   0  0  0  0  0  0  0  0  0  0  0  0
    9.6339  -16.1016   27.3839 O   0  0  0  0  0  0  0  0  0  0  0  0
    8.6787  -17.2510   25.6658 O   0  0  0  0  0  0  0  0  0  0  0  0
  2  1  1  1
  3  2  1  0
  4  2  1  0
  4  6  1  0
  4  5  1  6
  6 10  1  0
  7  6  2  0
  9  8  1  1
 10  9  1  0
 11  9  1  0
 11 12  2  0
 14 15  1  1
 14 13  1  0
 16 14  1  0
 17 18  1  0
 17 16  1  1
 18 11  1  0
 19 17  1  0
 20 19  1  0
 21 19  2  0
M  END
$$$$
