TAL.pdb
     RDKit          3D

 21 20  0  0  1  0  0  0  0  0999 V2000
    4.9259  -19.3867   23.8054 C   0  0  0  0  0  0  0  0  0  0  0  0
    6.2513  -18.6329   23.8585 C   0  0  1  0  0  0  0  0  0  0  0  0
    6.8856  -19.0834   25.0260 O   0  0  0  0  0  0  0  0  0  0  0  0
    7.0733  -18.9723   22.6373 C   0  0  2  0  0  0  0  0  0  0  0  0
    7.3275  -20.4189   22.6862 N   0  0  0  0  0  0  0  0  0  0  0  0
    8.3682  -18.2331   22.6725 C   0  0  0  0  0  0  0  0  0  0  0  0
    9.3720  -18.8078   23.1339 O   0  0  0  0  0  0  0  0  0  0  0  0
    9.4746  -14.9353   21.2747 C   0  0  0  0  0  0  0  0  0  0  0  0
    9.5857  -16.0582   22.2438 C   0  0  2  0  0  0  0  0  0  0  0  0
    8.4413  -16.9205   22.1944 N   0  0  0  0  0  0  0  0  0  0  0  0
    9.8544  -15.5991   23.6511 C   0  0  0  0  0  0  0  0  0  0  0  0
   11.0147  -15.1983   23.9055 O   0  0  0  0  0  0  0  0  0  0  0  0
    7.9661  -12.0983   25.8223 C   0  0  0  0  0  0  0  0  0  0  0  0
    7.1622  -13.3616   25.9085 C   0  0  2  0  0  0  0  0  0  0  0  0
    5.7513  -13.1041   26.4118 C   0  0  0  0  0  0  0  0  0  0  0  0
    7.8223  -14.4938   26.5994 C   0  0  0  0  0  0  0  0  0  0  0  0
    9.0275  -15.0827   25.9778 C   0  0  2  0  0  0  0  0  0  0  0  0
    8.8508  -15.6114   24.6530 N   0  0  0  0  0  0  0  0  0  0  0  0
    9.4720  -16.1991   26.9031 C   0  0  0  0  0  0  0  0  0  0  0  0
    9.5434  -17.5080   26.5251 O   0  0  0  0  0  0  0  0  0  0  0  0
    9.7897  -15.8744   28.0923 O   0  0  0  0  0  0  0  0  0  0  0  0
  2  1  1  6
  3  2  1  0
  4  2  1  0
  4  6  1  0
  4  5  1  1
  6 10  1  0
  7  6  2  0
  9  8  1  6
 10  9  1  0
 11  9  1  0
 11 12  2  0
 14 15  1  1
 14 13  1  0
 16 14  1  0
 17 18  1  0
 17 16  1  1
 18 11  1  0
 19 17  1  0
 20 19  1  0
 21 19  2  0
M  END
$$$$
