NKP.pdb
     RDKit          3D

 25 25  0  0  1  0  0  0  0  0999 V2000
    8.6836  -12.5126   17.7379 N   0  0  0  0  0  0  0  0  0  0  0  0
    8.0632  -13.7396   18.0885 C   0  0  0  0  0  0  0  0  0  0  0  0
    8.1419  -14.6774   17.2295 O   0  0  0  0  0  0  0  0  0  0  0  0
    7.3501  -13.9463   19.3879 C   0  0  0  0  0  0  0  0  0  0  0  0
    8.3878  -14.2636   20.4438 C   0  0  2  0  0  0  0  0  0  0  0  0
    9.0043  -15.5118   20.0484 N   0  0  0  0  0  0  0  0  0  0  0  0
    7.8131  -14.3880   21.7847 C   0  0  0  0  0  0  0  0  0  0  0  0
    7.2862  -13.3716   22.3280 O   0  0  0  0  0  0  0  0  0  0  0  0
    7.8615  -15.6360   22.4362 N   0  0  0  0  0  0  0  0  0  0  0  0
    7.3438  -15.7748   23.7799 C   0  0  1  0  0  0  0  0  0  0  0  0
    7.4066  -17.2512   24.1878 C   0  0  0  0  0  0  0  0  0  0  0  0
    7.1766  -17.4073   25.6684 C   0  0  0  0  0  0  0  0  0  0  0  0
    7.2179  -18.8752   26.0064 C   0  0  0  0  0  0  0  0  0  0  0  0
    7.0036  -19.1660   27.4715 C   0  0  0  0  0  0  0  0  0  0  0  0
    7.0338  -20.6119   27.6426 N   0  0  0  0  0  0  0  0  0  0  0  0
    8.2509  -15.0488   24.6938 C   0  0  0  0  0  0  0  0  0  0  0  0
    9.4867  -15.1385   24.5081 O   0  0  0  0  0  0  0  0  0  0  0  0
    7.7718  -14.2656   25.7558 N   0  0  0  0  0  0  0  0  0  0  0  0
    6.4022  -13.9357   26.1529 C   0  0  0  0  0  0  0  0  0  0  0  0
    6.5074  -12.6047   26.8208 C   0  0  0  0  0  0  0  0  0  0  0  0
    7.9532  -12.2556   26.8060 C   0  0  0  0  0  0  0  0  0  0  0  0
    8.6594  -13.5881   26.7211 C   0  0  1  0  0  0  0  0  0  0  0  0
    8.6756  -14.3132   28.0085 C   0  0  0  0  0  0  0  0  0  0  0  0
    9.5499  -13.8639   28.9837 O   0  0  0  0  0  0  0  0  0  0  0  0
    7.9511  -15.3020   28.2678 O   0  0  0  0  0  0  0  0  0  0  0  0
  1  2  1  0
  2  3  2  0
  4  2  1  0
  5  4  1  0
  5  6  1  6
  7  5  1  0
  7  8  2  0
  9  7  1  0
 10  9  1  0
 10 11  1  1
 12 11  1  0
 13 12  1  0
 13 14  1  0
 14 15  1  0
 16 10  1  0
 17 16  2  0
 18 16  1  0
 18 19  1  0
 20 19  1  0
 21 20  1  0
 22 21  1  0
 22 18  1  0
 22 23  1  1
 24 23  1  0
 25 23  2  0
M  END
$$$$
