NKP.pdb
     RDKit          3D

 25 25  0  0  1  0  0  0  0  0999 V2000
   11.6166  -14.6137   11.3142 N   0  0  0  0  0  0  0  0  0  0  0  0
   10.7036  -15.4319   12.0286 C   0  0  0  0  0  0  0  0  0  0  0  0
   10.6291  -16.6493   11.6599 O   0  0  0  0  0  0  0  0  0  0  0  0
    9.8635  -14.9181   13.1556 C   0  0  0  0  0  0  0  0  0  0  0  0
    9.0615  -16.0785   13.7057 C   0  0  2  0  0  0  0  0  0  0  0  0
    8.0887  -16.4204   12.6901 N   0  0  0  0  0  0  0  0  0  0  0  0
    8.3845  -15.7548   14.9630 C   0  0  0  0  0  0  0  0  0  0  0  0
    7.6939  -14.6949   15.0379 O   0  0  0  0  0  0  0  0  0  0  0  0
    8.5191  -16.6314   16.0573 N   0  0  0  0  0  0  0  0  0  0  0  0
    7.8283  -16.3559   17.2982 C   0  0  1  0  0  0  0  0  0  0  0  0
    7.4646  -17.6844   17.9712 C   0  0  0  0  0  0  0  0  0  0  0  0
    6.3126  -18.3461   17.2607 C   0  0  0  0  0  0  0  0  0  0  0  0
    5.9658  -19.6168   17.9927 C   0  0  0  0  0  0  0  0  0  0  0  0
    4.7874  -20.3528   17.4042 C   0  0  0  0  0  0  0  0  0  0  0  0
    4.5405  -21.5239   18.2339 N   0  0  0  0  0  0  0  0  0  0  0  0
    8.7759  -15.6731   18.2042 C   0  0  0  0  0  0  0  0  0  0  0  0
   10.0038  -15.8560   18.0359 O   0  0  0  0  0  0  0  0  0  0  0  0
    8.3435  -14.8299   19.2401 N   0  0  0  0  0  0  0  0  0  0  0  0
    6.9928  -14.4947   19.6935 C   0  0  0  0  0  0  0  0  0  0  0  0
    7.1116  -13.1220   20.2682 C   0  0  0  0  0  0  0  0  0  0  0  0
    8.5476  -12.7538   20.1480 C   0  0  0  0  0  0  0  0  0  0  0  0
    9.2718  -14.0788   20.1075 C   0  0  1  0  0  0  0  0  0  0  0  0
    9.3738  -14.7189   21.4355 C   0  0  0  0  0  0  0  0  0  0  0  0
   10.3576  -14.2569   22.2934 O   0  0  0  0  0  0  0  0  0  0  0  0
    8.6291  -15.6470   21.8277 O   0  0  0  0  0  0  0  0  0  0  0  0
  1  2  1  0
  2  3  2  0
  4  2  1  0
  5  4  1  0
  5  6  1  6
  7  5  1  0
  7  8  2  0
  9  7  1  0
 10  9  1  0
 10 11  1  1
 12 11  1  0
 13 12  1  0
 13 14  1  0
 14 15  1  0
 16 10  1  0
 17 16  2  0
 18 16  1  0
 18 19  1  0
 20 19  1  0
 21 20  1  0
 22 21  1  0
 22 18  1  0
 22 23  1  1
 24 23  1  0
 25 23  2  0
M  END
$$$$
