NKP.pdb
     RDKit          3D

 25 25  0  0  1  0  0  0  0  0999 V2000
    9.1283  -14.1727   17.8927 N   0  0  0  0  0  0  0  0  0  0  0  0
    8.9817  -13.0343   18.7271 C   0  0  0  0  0  0  0  0  0  0  0  0
    9.4982  -11.9509   18.2993 O   0  0  0  0  0  0  0  0  0  0  0  0
    8.2654  -13.0775   20.0404 C   0  0  0  0  0  0  0  0  0  0  0  0
    7.7492  -14.4862   20.2437 C   0  0  2  0  0  0  0  0  0  0  0  0
    6.6908  -14.6771   19.2752 N   0  0  0  0  0  0  0  0  0  0  0  0
    7.2402  -14.7141   21.5976 C   0  0  0  0  0  0  0  0  0  0  0  0
    6.1784  -14.1282   21.9653 O   0  0  0  0  0  0  0  0  0  0  0  0
    7.9455  -15.5796   22.4564 N   0  0  0  0  0  0  0  0  0  0  0  0
    7.4607  -15.8271   23.7968 C   0  0  1  0  0  0  0  0  0  0  0  0
    7.4871  -17.3362   24.0651 C   0  0  0  0  0  0  0  0  0  0  0  0
    7.1336  -17.6307   25.4997 C   0  0  0  0  0  0  0  0  0  0  0  0
    7.1861  -19.1221   25.7085 C   0  0  0  0  0  0  0  0  0  0  0  0
    6.8683  -19.5478   27.1209 C   0  0  0  0  0  0  0  0  0  0  0  0
    6.7853  -21.0017   27.1346 N   0  0  0  0  0  0  0  0  0  0  0  0
    8.4154  -15.2162   24.7456 C   0  0  0  0  0  0  0  0  0  0  0  0
    9.6425  -15.3496   24.5307 O   0  0  0  0  0  0  0  0  0  0  0  0
    7.9906  -14.4943   25.8723 N   0  0  0  0  0  0  0  0  0  0  0  0
    6.6503  -14.2960   26.4260 C   0  0  0  0  0  0  0  0  0  0  0  0
    6.7109  -12.9701   27.1094 C   0  0  0  0  0  0  0  0  0  0  0  0
    8.1089  -12.4905   26.9431 C   0  0  0  0  0  0  0  0  0  0  0  0
    8.9170  -13.7519   26.7492 C   0  0  1  0  0  0  0  0  0  0  0  0
    9.1421  -14.4898   28.0095 C   0  0  0  0  0  0  0  0  0  0  0  0
    8.4347  -15.6654   28.1965 O   0  0  0  0  0  0  0  0  0  0  0  0
    9.9283  -14.1178   28.9113 O   0  0  0  0  0  0  0  0  0  0  0  0
  1  2  1  0
  2  3  2  0
  4  2  1  0
  5  4  1  0
  5  6  1  6
  7  5  1  0
  7  8  2  0
  9  7  1  0
 10  9  1  0
 10 11  1  1
 12 11  1  0
 13 12  1  0
 13 14  1  0
 14 15  1  0
 16 10  1  0
 17 16  2  0
 18 16  1  0
 18 19  1  0
 20 19  1  0
 21 20  1  0
 22 21  1  0
 22 18  1  0
 22 23  1  1
 24 23  1  0
 25 23  2  0
M  END
$$$$
