NKP.pdb
     RDKit          3D

 25 25  0  0  1  0  0  0  0  0999 V2000
    9.5851  -13.9946   19.8764 N   0  0  0  0  0  0  0  0  0  0  0  0
    8.3967  -13.8489   19.1150 C   0  0  0  0  0  0  0  0  0  0  0  0
    8.4056  -12.9380   18.2240 O   0  0  0  0  0  0  0  0  0  0  0  0
    7.1870  -14.7041   19.3268 C   0  0  0  0  0  0  0  0  0  0  0  0
    7.5207  -15.7281   20.3909 C   0  0  2  0  0  0  0  0  0  0  0  0
    7.0224  -16.9976   19.9066 N   0  0  0  0  0  0  0  0  0  0  0  0
    6.9208  -15.4136   21.6890 C   0  0  0  0  0  0  0  0  0  0  0  0
    5.7513  -14.9271   21.7277 O   0  0  0  0  0  0  0  0  0  0  0  0
    7.6607  -15.6605   22.8619 N   0  0  0  0  0  0  0  0  0  0  0  0
    7.0779  -15.3923   24.1586 C   0  0  1  0  0  0  0  0  0  0  0  0
    6.4797  -16.6900   24.7137 C   0  0  0  0  0  0  0  0  0  0  0  0
    7.5619  -17.6980   25.0005 C   0  0  0  0  0  0  0  0  0  0  0  0
    6.9191  -18.9478   25.5442 C   0  0  0  0  0  0  0  0  0  0  0  0
    7.9105  -19.9961   25.9862 C   0  0  0  0  0  0  0  0  0  0  0  0
    7.1534  -21.1362   26.4841 N   0  0  0  0  0  0  0  0  0  0  0  0
    8.1703  -15.0081   25.0774 C   0  0  0  0  0  0  0  0  0  0  0  0
    9.3338  -15.3955   24.8205 O   0  0  0  0  0  0  0  0  0  0  0  0
    7.9445  -14.2258   26.2210 N   0  0  0  0  0  0  0  0  0  0  0  0
    6.7062  -13.6580   26.7566 C   0  0  0  0  0  0  0  0  0  0  0  0
    7.1338  -12.4287   27.4878 C   0  0  0  0  0  0  0  0  0  0  0  0
    8.6151  -12.3769   27.3646 C   0  0  0  0  0  0  0  0  0  0  0  0
    9.0228  -13.8141   27.1408 C   0  0  1  0  0  0  0  0  0  0  0  0
    8.9860  -14.6213   28.3780 C   0  0  0  0  0  0  0  0  0  0  0  0
    9.9842  -14.4037   29.3126 O   0  0  0  0  0  0  0  0  0  0  0  0
    8.1124  -15.4836   28.6292 O   0  0  0  0  0  0  0  0  0  0  0  0
  1  2  1  0
  2  3  2  0
  4  2  1  0
  5  4  1  0
  5  6  1  6
  7  5  1  0
  7  8  2  0
  9  7  1  0
 10  9  1  0
 10 11  1  1
 12 11  1  0
 13 12  1  0
 13 14  1  0
 14 15  1  0
 16 10  1  0
 17 16  2  0
 18 16  1  0
 18 19  1  0
 20 19  1  0
 21 20  1  0
 22 21  1  0
 22 18  1  0
 22 23  1  1
 24 23  1  0
 25 23  2  0
M  END
$$$$
