NKP.pdb
     RDKit          3D

 25 25  0  0  1  0  0  0  0  0999 V2000
    8.4890  -12.3549   17.6978 N   0  0  0  0  0  0  0  0  0  0  0  0
    7.9493  -13.6378   17.9738 C   0  0  0  0  0  0  0  0  0  0  0  0
    8.1526  -14.5367   17.0939 O   0  0  0  0  0  0  0  0  0  0  0  0
    7.1805  -13.9438   19.2208 C   0  0  0  0  0  0  0  0  0  0  0  0
    8.1758  -14.1550   20.3420 C   0  0  2  0  0  0  0  0  0  0  0  0
    8.9784  -15.2990   19.9655 N   0  0  0  0  0  0  0  0  0  0  0  0
    7.5317  -14.3951   21.6348 C   0  0  0  0  0  0  0  0  0  0  0  0
    6.7152  -13.5380   22.0871 O   0  0  0  0  0  0  0  0  0  0  0  0
    7.8373  -15.5742   22.3424 N   0  0  0  0  0  0  0  0  0  0  0  0
    7.3488  -15.7591   23.6915 C   0  0  1  0  0  0  0  0  0  0  0  0
    7.3946  -17.2519   24.0374 C   0  0  0  0  0  0  0  0  0  0  0  0
    7.0664  -17.4745   25.4908 C   0  0  0  0  0  0  0  0  0  0  0  0
    7.1935  -18.9460   25.7896 C   0  0  0  0  0  0  0  0  0  0  0  0
    6.9814  -19.2896   27.2436 C   0  0  0  0  0  0  0  0  0  0  0  0
    7.3010  -20.7002   27.4139 N   0  0  0  0  0  0  0  0  0  0  0  0
    8.2899  -15.0868   24.6120 C   0  0  0  0  0  0  0  0  0  0  0  0
    9.5195  -15.1987   24.3993 O   0  0  0  0  0  0  0  0  0  0  0  0
    7.8495  -14.3302   25.7095 N   0  0  0  0  0  0  0  0  0  0  0  0
    6.4957  -14.0451   26.1874 C   0  0  0  0  0  0  0  0  0  0  0  0
    6.6006  -12.7193   26.8657 C   0  0  0  0  0  0  0  0  0  0  0  0
    8.0326  -12.3279   26.7741 C   0  0  0  0  0  0  0  0  0  0  0  0
    8.7707  -13.6382   26.6320 C   0  0  1  0  0  0  0  0  0  0  0  0
    8.8805  -14.3771   27.9069 C   0  0  0  0  0  0  0  0  0  0  0  0
    9.8176  -13.9327   28.8242 O   0  0  0  0  0  0  0  0  0  0  0  0
    8.1817  -15.3736   28.2045 O   0  0  0  0  0  0  0  0  0  0  0  0
  1  2  1  0
  2  3  2  0
  4  2  1  0
  5  4  1  0
  5  6  1  6
  7  5  1  0
  7  8  2  0
  9  7  1  0
 10  9  1  0
 10 11  1  1
 12 11  1  0
 13 12  1  0
 13 14  1  0
 14 15  1  0
 16 10  1  0
 17 16  2  0
 18 16  1  0
 18 19  1  0
 20 19  1  0
 21 20  1  0
 22 21  1  0
 22 18  1  0
 22 23  1  1
 24 23  1  0
 25 23  2  0
M  END
$$$$
