NKP.pdb
     RDKit          3D

 25 25  0  0  1  0  0  0  0  0999 V2000
   12.6294  -15.9598   19.3370 N   0  0  0  0  0  0  0  0  0  0  0  0
   12.4502  -14.5550   19.4242 C   0  0  0  0  0  0  0  0  0  0  0  0
   13.2156  -13.8423   18.6964 O   0  0  0  0  0  0  0  0  0  0  0  0
   11.4271  -13.9209   20.3135 C   0  0  0  0  0  0  0  0  0  0  0  0
   10.0882  -14.5612   20.0141 C   0  0  2  0  0  0  0  0  0  0  0  0
    9.6313  -13.9879   18.7663 N   0  0  0  0  0  0  0  0  0  0  0  0
    9.0990  -14.3273   21.0680 C   0  0  0  0  0  0  0  0  0  0  0  0
    8.5515  -13.1881   21.1599 O   0  0  0  0  0  0  0  0  0  0  0  0
    8.7819  -15.3763   21.9530 N   0  0  0  0  0  0  0  0  0  0  0  0
    7.8516  -15.1549   23.0386 C   0  0  1  0  0  0  0  0  0  0  0  0
    7.0075  -16.4191   23.2366 C   0  0  0  0  0  0  0  0  0  0  0  0
    6.0752  -16.6277   22.0717 C   0  0  0  0  0  0  0  0  0  0  0  0
    5.4103  -17.9711   22.2261 C   0  0  0  0  0  0  0  0  0  0  0  0
    4.5382  -18.3537   21.0556 C   0  0  0  0  0  0  0  0  0  0  0  0
    3.9912  -19.6757   21.3275 N   0  0  0  0  0  0  0  0  0  0  0  0
    8.6349  -14.9756   24.2793 C   0  0  0  0  0  0  0  0  0  0  0  0
    9.7817  -15.4764   24.3418 O   0  0  0  0  0  0  0  0  0  0  0  0
    8.1358  -14.2642   25.3819 N   0  0  0  0  0  0  0  0  0  0  0  0
    6.8486  -13.5963   25.5802 C   0  0  0  0  0  0  0  0  0  0  0  0
    7.1360  -12.4882   26.5384 C   0  0  0  0  0  0  0  0  0  0  0  0
    8.5807  -12.6043   26.8728 C   0  0  0  0  0  0  0  0  0  0  0  0
    8.9072  -14.0579   26.6231 C   0  0  1  0  0  0  0  0  0  0  0  0
    8.4155  -14.9495   27.6939 C   0  0  0  0  0  0  0  0  0  0  0  0
    9.1461  -14.9999   28.8691 O   0  0  0  0  0  0  0  0  0  0  0  0
    7.3853  -15.6567   27.6023 O   0  0  0  0  0  0  0  0  0  0  0  0
  1  2  1  0
  2  3  2  0
  4  2  1  0
  5  4  1  0
  5  6  1  6
  7  5  1  0
  7  8  2  0
  9  7  1  0
 10  9  1  0
 10 11  1  1
 12 11  1  0
 13 12  1  0
 13 14  1  0
 14 15  1  0
 16 10  1  0
 17 16  2  0
 18 16  1  0
 18 19  1  0
 20 19  1  0
 21 20  1  0
 22 21  1  0
 22 18  1  0
 22 23  1  1
 24 23  1  0
 25 23  2  0
M  END
$$$$
