NKP.pdb
     RDKit          3D

 25 25  0  0  1  0  0  0  0  0999 V2000
    7.1890  -13.1008   17.0842 N   0  0  0  0  0  0  0  0  0  0  0  0
    7.9484  -13.5126   18.2097 C   0  0  0  0  0  0  0  0  0  0  0  0
    9.0163  -14.1625   17.9628 O   0  0  0  0  0  0  0  0  0  0  0  0
    7.5399  -13.2134   19.6180 C   0  0  0  0  0  0  0  0  0  0  0  0
    8.4305  -14.0165   20.5423 C   0  0  2  0  0  0  0  0  0  0  0  0
    8.6377  -15.2965   19.8995 N   0  0  0  0  0  0  0  0  0  0  0  0
    7.8439  -14.2087   21.8700 C   0  0  0  0  0  0  0  0  0  0  0  0
    7.4625  -13.1961   22.5296 O   0  0  0  0  0  0  0  0  0  0  0  0
    7.7191  -15.5160   22.3796 N   0  0  0  0  0  0  0  0  0  0  0  0
    7.3136  -15.7250   23.7525 C   0  0  1  0  0  0  0  0  0  0  0  0
    7.3770  -17.2239   24.0677 C   0  0  0  0  0  0  0  0  0  0  0  0
    7.0998  -17.4758   25.5269 C   0  0  0  0  0  0  0  0  0  0  0  0
    7.1655  -18.9604   25.7767 C   0  0  0  0  0  0  0  0  0  0  0  0
    6.7709  -19.3572   27.1781 C   0  0  0  0  0  0  0  0  0  0  0  0
    6.8655  -20.8076   27.2683 N   0  0  0  0  0  0  0  0  0  0  0  0
    8.3109  -15.0708   24.6258 C   0  0  0  0  0  0  0  0  0  0  0  0
    9.5271  -15.2261   24.3679 O   0  0  0  0  0  0  0  0  0  0  0  0
    7.9381  -14.2845   25.7274 N   0  0  0  0  0  0  0  0  0  0  0  0
    6.6134  -13.9115   26.2259 C   0  0  0  0  0  0  0  0  0  0  0  0
    6.8143  -12.5935   26.8975 C   0  0  0  0  0  0  0  0  0  0  0  0
    8.2668  -12.2953   26.7814 C   0  0  0  0  0  0  0  0  0  0  0  0
    8.9167  -13.6507   26.6324 C   0  0  1  0  0  0  0  0  0  0  0  0
    8.9995  -14.3918   27.9080 C   0  0  0  0  0  0  0  0  0  0  0  0
    9.9446  -13.9736   28.8296 O   0  0  0  0  0  0  0  0  0  0  0  0
    8.2714  -15.3679   28.2027 O   0  0  0  0  0  0  0  0  0  0  0  0
  1  2  1  0
  2  3  2  0
  4  2  1  0
  5  4  1  0
  5  6  1  6
  7  5  1  0
  7  8  2  0
  9  7  1  0
 10  9  1  0
 10 11  1  1
 12 11  1  0
 13 12  1  0
 13 14  1  0
 14 15  1  0
 16 10  1  0
 17 16  2  0
 18 16  1  0
 18 19  1  0
 20 19  1  0
 21 20  1  0
 22 21  1  0
 22 18  1  0
 22 23  1  1
 24 23  1  0
 25 23  2  0
M  END
$$$$
