NKP.pdb
     RDKit          3D

 25 25  0  0  1  0  0  0  0  0999 V2000
    9.2141  -12.4821   18.1094 N   0  0  0  0  0  0  0  0  0  0  0  0
    8.2832  -13.5502   18.1849 C   0  0  0  0  0  0  0  0  0  0  0  0
    8.2243  -14.3201   17.1712 O   0  0  0  0  0  0  0  0  0  0  0  0
    7.4079  -13.7813   19.3766 C   0  0  0  0  0  0  0  0  0  0  0  0
    8.0974  -14.7879   20.2731 C   0  0  2  0  0  0  0  0  0  0  0  0
    8.0740  -16.0495   19.5643 N   0  0  0  0  0  0  0  0  0  0  0  0
    7.4432  -14.9296   21.5753 C   0  0  0  0  0  0  0  0  0  0  0  0
    6.2121  -14.6489   21.6822 O   0  0  0  0  0  0  0  0  0  0  0  0
    8.2009  -15.3747   22.6763 N   0  0  0  0  0  0  0  0  0  0  0  0
    7.5841  -15.5027   23.9787 C   0  0  1  0  0  0  0  0  0  0  0  0
    7.5810  -16.9808   24.3850 C   0  0  0  0  0  0  0  0  0  0  0  0
    6.6129  -17.7660   23.5390 C   0  0  0  0  0  0  0  0  0  0  0  0
    6.6258  -19.1995   24.0034 C   0  0  0  0  0  0  0  0  0  0  0  0
    5.7546  -20.1125   23.1761 C   0  0  0  0  0  0  0  0  0  0  0  0
    6.0228  -21.4799   23.5992 N   0  0  0  0  0  0  0  0  0  0  0  0
    8.4403  -14.8008   24.9581 C   0  0  0  0  0  0  0  0  0  0  0  0
    9.6837  -14.8525   24.8130 O   0  0  0  0  0  0  0  0  0  0  0  0
    7.9050  -14.0813   26.0382 N   0  0  0  0  0  0  0  0  0  0  0  0
    6.5203  -13.7260   26.3524 C   0  0  0  0  0  0  0  0  0  0  0  0
    6.6181  -12.4551   27.1295 C   0  0  0  0  0  0  0  0  0  0  0  0
    8.0717  -12.1661   27.2548 C   0  0  0  0  0  0  0  0  0  0  0  0
    8.7351  -13.5165   27.1200 C   0  0  1  0  0  0  0  0  0  0  0  0
    8.6217  -14.3372   28.3435 C   0  0  0  0  0  0  0  0  0  0  0  0
    9.4324  -14.0022   29.4149 O   0  0  0  0  0  0  0  0  0  0  0  0
    7.8421  -15.3101   28.4678 O   0  0  0  0  0  0  0  0  0  0  0  0
  1  2  1  0
  2  3  2  0
  4  2  1  0
  5  4  1  0
  5  6  1  6
  7  5  1  0
  7  8  2  0
  9  7  1  0
 10  9  1  0
 10 11  1  1
 12 11  1  0
 13 12  1  0
 13 14  1  0
 14 15  1  0
 16 10  1  0
 17 16  2  0
 18 16  1  0
 18 19  1  0
 20 19  1  0
 21 20  1  0
 22 21  1  0
 22 18  1  0
 22 23  1  1
 24 23  1  0
 25 23  2  0
M  END
$$$$
