PSL.pdb
     RDKit          3D

 22 22  0  0  1  0  0  0  0  0999 V2000
    8.9641  -14.8832   18.7946 N   0  0  0  0  0  0  0  0  0  0  0  0
    8.9686  -14.1355   17.5310 C   0  0  0  0  0  0  0  0  0  0  0  0
    7.8356  -13.1495   17.6874 C   0  0  0  0  0  0  0  0  0  0  0  0
    7.4713  -13.1788   19.1718 C   0  0  0  0  0  0  0  0  0  0  0  0
    8.7302  -13.8344   19.7451 C   0  0  1  0  0  0  0  0  0  0  0  0
    8.4035  -14.3475   21.0923 C   0  0  0  0  0  0  0  0  0  0  0  0
    8.0666  -13.4866   21.9607 O   0  0  0  0  0  0  0  0  0  0  0  0
    9.3593  -18.1062   22.9541 O   0  0  0  0  0  0  0  0  0  0  0  0
    8.0575  -17.6395   22.9162 C   0  0  0  0  0  0  0  0  0  0  0  0
    7.9810  -16.1346   22.7322 C   0  0  2  0  0  0  0  0  0  0  0  0
    8.4480  -15.7194   21.4488 N   0  0  0  0  0  0  0  0  0  0  0  0
    8.6331  -15.4326   23.8540 C   0  0  0  0  0  0  0  0  0  0  0  0
    9.8033  -15.0334   23.7163 O   0  0  0  0  0  0  0  0  0  0  0  0
    7.6838  -11.6675   25.6738 C   0  0  0  0  0  0  0  0  0  0  0  0
    6.7582  -12.7929   26.1735 C   0  0  2  0  0  0  0  0  0  0  0  0
    5.5967  -12.1559   26.8263 C   0  0  0  0  0  0  0  0  0  0  0  0
    7.5652  -13.7279   26.9642 C   0  0  0  0  0  0  0  0  0  0  0  0
    8.5295  -14.5919   26.2266 C   0  0  2  0  0  0  0  0  0  0  0  0
    7.9682  -15.2093   25.0572 N   0  0  0  0  0  0  0  0  0  0  0  0
    9.1054  -15.6650   27.0637 C   0  0  0  0  0  0  0  0  0  0  0  0
    8.8818  -16.8641   26.7774 O   0  0  0  0  0  0  0  0  0  0  0  0
    9.8907  -15.3953   28.1630 O   0  0  0  0  0  0  0  0  0  0  0  0
  2  1  1  0
  3  4  1  0
  3  2  1  0
  4  5  1  0
  5  1  1  0
  5  6  1  1
  7  6  2  0
  8  9  1  0
 10  9  1  1
 10 11  1  0
 10 12  1  0
 11  6  1  0
 12 19  1  0
 13 12  2  0
 15 14  1  1
 16 15  1  0
 17 15  1  0
 18 17  1  1
 19 18  1  0
 20 18  1  0
 20 22  1  0
 21 20  2  0
M  END
$$$$
