PSL.pdb
     RDKit          3D

 22 22  0  0  1  0  0  0  0  0999 V2000
    8.0195  -15.0212   18.4430 N   0  0  0  0  0  0  0  0  0  0  0  0
    8.2816  -14.0166   17.4049 C   0  0  0  0  0  0  0  0  0  0  0  0
    7.9420  -12.7056   18.0729 C   0  0  0  0  0  0  0  0  0  0  0  0
    7.8248  -13.0256   19.5632 C   0  0  0  0  0  0  0  0  0  0  0  0
    8.5505  -14.3726   19.6073 C   0  0  1  0  0  0  0  0  0  0  0  0
    8.1709  -15.0537   20.8631 C   0  0  0  0  0  0  0  0  0  0  0  0
    6.9558  -14.9595   21.2144 O   0  0  0  0  0  0  0  0  0  0  0  0
   10.5046  -17.8558   23.1160 O   0  0  0  0  0  0  0  0  0  0  0  0
    9.1244  -17.7613   23.1173 C   0  0  0  0  0  0  0  0  0  0  0  0
    8.6356  -16.3390   22.9109 C   0  0  2  0  0  0  0  0  0  0  0  0
    9.0770  -15.7870   21.6708 N   0  0  0  0  0  0  0  0  0  0  0  0
    8.9548  -15.4971   24.0796 C   0  0  0  0  0  0  0  0  0  0  0  0
    9.9981  -14.8195   24.0670 O   0  0  0  0  0  0  0  0  0  0  0  0
    8.1941  -11.7991   26.1128 C   0  0  0  0  0  0  0  0  0  0  0  0
    6.9742  -12.7397   26.1091 C   0  0  2  0  0  0  0  0  0  0  0  0
    5.7949  -11.9395   26.4964 C   0  0  0  0  0  0  0  0  0  0  0  0
    7.3046  -13.9159   26.9202 C   0  0  0  0  0  0  0  0  0  0  0  0
    8.4078  -14.7927   26.4357 C   0  0  2  0  0  0  0  0  0  0  0  0
    8.1160  -15.4464   25.1902 N   0  0  0  0  0  0  0  0  0  0  0  0
    8.7886  -15.8379   27.4087 C   0  0  0  0  0  0  0  0  0  0  0  0
    8.4394  -17.0253   27.2136 O   0  0  0  0  0  0  0  0  0  0  0  0
    9.5239  -15.5544   28.5386 O   0  0  0  0  0  0  0  0  0  0  0  0
  2  1  1  0
  3  4  1  0
  3  2  1  0
  4  5  1  0
  5  1  1  0
  5  6  1  1
  7  6  2  0
  8  9  1  0
 10  9  1  1
 10 11  1  0
 10 12  1  0
 11  6  1  0
 12 19  1  0
 13 12  2  0
 15 14  1  1
 16 15  1  0
 17 15  1  0
 18 17  1  1
 19 18  1  0
 20 18  1  0
 20 22  1  0
 21 20  2  0
M  END
$$$$
