PSL.pdb
     RDKit          3D

 22 22  0  0  1  0  0  0  0  0999 V2000
    9.1418  -14.8036   18.7197 N   0  0  0  0  0  0  0  0  0  0  0  0
    9.2470  -14.0171   17.4843 C   0  0  0  0  0  0  0  0  0  0  0  0
    8.0631  -13.0818   17.5462 C   0  0  0  0  0  0  0  0  0  0  0  0
    7.5468  -13.1719   18.9823 C   0  0  0  0  0  0  0  0  0  0  0  0
    8.7653  -13.7950   19.6680 C   0  0  1  0  0  0  0  0  0  0  0  0
    8.3211  -14.3624   20.9586 C   0  0  0  0  0  0  0  0  0  0  0  0
    7.8634  -13.5424   21.8111 O   0  0  0  0  0  0  0  0  0  0  0  0
    9.1142  -18.2794   22.5963 O   0  0  0  0  0  0  0  0  0  0  0  0
    7.8505  -17.7172   22.6248 C   0  0  0  0  0  0  0  0  0  0  0  0
    7.8823  -16.2022   22.5348 C   0  0  2  0  0  0  0  0  0  0  0  0
    8.3813  -15.7427   21.2789 N   0  0  0  0  0  0  0  0  0  0  0  0
    8.5799  -15.6196   23.6969 C   0  0  0  0  0  0  0  0  0  0  0  0
    9.7782  -15.3046   23.5845 O   0  0  0  0  0  0  0  0  0  0  0  0
    7.7716  -11.8070   25.8805 C   0  0  0  0  0  0  0  0  0  0  0  0
    6.7857  -12.9537   26.1743 C   0  0  2  0  0  0  0  0  0  0  0  0
    5.6074  -12.3661   26.8432 C   0  0  0  0  0  0  0  0  0  0  0  0
    7.5174  -14.0141   26.8746 C   0  0  0  0  0  0  0  0  0  0  0  0
    8.4966  -14.8085   26.0806 C   0  0  2  0  0  0  0  0  0  0  0  0
    7.9271  -15.4166   24.9102 N   0  0  0  0  0  0  0  0  0  0  0  0
    9.1489  -15.8776   26.8652 C   0  0  0  0  0  0  0  0  0  0  0  0
    9.8226  -15.5814   27.8792 O   0  0  0  0  0  0  0  0  0  0  0  0
    9.0438  -17.2074   26.5210 O   0  0  0  0  0  0  0  0  0  0  0  0
  2  1  1  0
  3  4  1  0
  3  2  1  0
  4  5  1  0
  5  1  1  0
  5  6  1  1
  7  6  2  0
  8  9  1  0
 10  9  1  6
 10 11  1  0
 10 12  1  0
 11  6  1  0
 12 19  1  0
 13 12  2  0
 15 14  1  1
 16 15  1  0
 17 15  1  0
 18 17  1  1
 19 18  1  0
 20 18  1  0
 20 22  1  0
 21 20  2  0
M  END
$$$$
