PSL.pdb
     RDKit          3D

 22 22  0  0  1  0  0  0  0  0999 V2000
    7.8377  -14.9853   17.6001 N   0  0  0  0  0  0  0  0  0  0  0  0
    8.1964  -13.9583   16.6140 C   0  0  0  0  0  0  0  0  0  0  0  0
    8.2097  -12.6763   17.4119 C   0  0  0  0  0  0  0  0  0  0  0  0
    8.1819  -13.1082   18.8781 C   0  0  0  0  0  0  0  0  0  0  0  0
    8.6097  -14.5711   18.7362 C   0  0  1  0  0  0  0  0  0  0  0  0
    8.2269  -15.2800   19.9754 C   0  0  0  0  0  0  0  0  0  0  0  0
    6.9870  -15.4762   20.1567 O   0  0  0  0  0  0  0  0  0  0  0  0
   10.5896  -17.6949   22.5726 O   0  0  0  0  0  0  0  0  0  0  0  0
    9.2109  -17.6553   22.4653 C   0  0  0  0  0  0  0  0  0  0  0  0
    8.6859  -16.2582   22.1877 C   0  0  2  0  0  0  0  0  0  0  0  0
    9.1558  -15.7380   20.9442 N   0  0  0  0  0  0  0  0  0  0  0  0
    8.9351  -15.3640   23.3344 C   0  0  0  0  0  0  0  0  0  0  0  0
    9.9521  -14.6475   23.3298 O   0  0  0  0  0  0  0  0  0  0  0  0
    5.6004  -12.1641   27.2038 C   0  0  0  0  0  0  0  0  0  0  0  0
    7.0090  -12.7582   27.0145 C   0  0  2  0  0  0  0  0  0  0  0  0
    7.9698  -11.6367   27.0281 C   0  0  0  0  0  0  0  0  0  0  0  0
    6.9812  -13.6267   25.8332 C   0  0  0  0  0  0  0  0  0  0  0  0
    8.1925  -14.4512   25.5619 C   0  0  2  0  0  0  0  0  0  0  0  0
    8.0591  -15.3067   24.4156 N   0  0  0  0  0  0  0  0  0  0  0  0
    8.5860  -15.2989   26.7067 C   0  0  0  0  0  0  0  0  0  0  0  0
    8.0829  -16.4389   26.8377 O   0  0  0  0  0  0  0  0  0  0  0  0
    9.4984  -14.8794   27.6498 O   0  0  0  0  0  0  0  0  0  0  0  0
  2  1  1  0
  3  4  1  0
  3  2  1  0
  4  5  1  0
  5  1  1  0
  5  6  1  1
  7  6  2  0
  8  9  1  0
 10  9  1  1
 10 11  1  0
 10 12  1  0
 11  6  1  0
 12 19  1  0
 13 12  2  0
 15 14  1  6
 16 15  1  0
 17 15  1  0
 18 17  1  1
 19 18  1  0
 20 18  1  0
 20 22  1  0
 21 20  2  0
M  END
$$$$
