PSL.pdb
     RDKit          3D

 22 22  0  0  1  0  0  0  0  0999 V2000
    8.1605  -14.9677   18.1583 N   0  0  0  0  0  0  0  0  0  0  0  0
    8.5025  -13.9944   17.1135 C   0  0  0  0  0  0  0  0  0  0  0  0
    8.1386  -12.6620   17.7238 C   0  0  0  0  0  0  0  0  0  0  0  0
    7.9215  -12.9404   19.2113 C   0  0  0  0  0  0  0  0  0  0  0  0
    8.6244  -14.2945   19.3372 C   0  0  1  0  0  0  0  0  0  0  0  0
    8.1556  -14.9369   20.5831 C   0  0  0  0  0  0  0  0  0  0  0  0
    6.9260  -14.8015   20.8631 O   0  0  0  0  0  0  0  0  0  0  0  0
    8.1354  -18.3465   23.8243 O   0  0  0  0  0  0  0  0  0  0  0  0
    8.6422  -17.7719   22.6724 C   0  0  0  0  0  0  0  0  0  0  0  0
    8.4460  -16.2671   22.6344 C   0  0  2  0  0  0  0  0  0  0  0  0
    8.9935  -15.6771   21.4556 N   0  0  0  0  0  0  0  0  0  0  0  0
    8.9209  -15.6419   23.8835 C   0  0  0  0  0  0  0  0  0  0  0  0
   10.1304  -15.3760   24.0022 O   0  0  0  0  0  0  0  0  0  0  0  0
    7.9460  -11.6928   25.9566 C   0  0  0  0  0  0  0  0  0  0  0  0
    6.8150  -12.7383   25.9853 C   0  0  2  0  0  0  0  0  0  0  0  0
    5.5902  -12.0552   26.4484 C   0  0  0  0  0  0  0  0  0  0  0  0
    7.2871  -13.8979   26.7488 C   0  0  0  0  0  0  0  0  0  0  0  0
    8.3976  -14.6982   26.1600 C   0  0  2  0  0  0  0  0  0  0  0  0
    8.0467  -15.3454   24.9263 N   0  0  0  0  0  0  0  0  0  0  0  0
    8.9141  -15.7364   27.0762 C   0  0  0  0  0  0  0  0  0  0  0  0
    8.5038  -16.9158   26.9735 O   0  0  0  0  0  0  0  0  0  0  0  0
    9.8435  -15.4549   28.0533 O   0  0  0  0  0  0  0  0  0  0  0  0
  2  1  1  0
  3  4  1  0
  3  2  1  0
  4  5  1  0
  5  1  1  0
  5  6  1  1
  7  6  2  0
  8  9  1  0
 10  9  1  1
 10 11  1  0
 10 12  1  0
 11  6  1  0
 12 19  1  0
 13 12  2  0
 15 14  1  1
 16 15  1  0
 17 15  1  0
 18 17  1  1
 19 18  1  0
 20 18  1  0
 20 22  1  0
 21 20  2  0
M  END
$$$$
