PSL.pdb
     RDKit          3D

 22 22  0  0  1  0  0  0  0  0999 V2000
    9.0473  -15.2012   18.2228 N   0  0  0  0  0  0  0  0  0  0  0  0
    9.3411  -14.4840   16.9758 C   0  0  0  0  0  0  0  0  0  0  0  0
    8.2720  -13.4197   16.9074 C   0  0  0  0  0  0  0  0  0  0  0  0
    7.6355  -13.3911   18.2970 C   0  0  0  0  0  0  0  0  0  0  0  0
    8.7151  -14.1180   19.1028 C   0  0  1  0  0  0  0  0  0  0  0  0
    8.1067  -14.5774   20.3691 C   0  0  0  0  0  0  0  0  0  0  0  0
    7.7597  -13.6761   21.1913 O   0  0  0  0  0  0  0  0  0  0  0  0
    8.2722  -18.4700   22.1958 O   0  0  0  0  0  0  0  0  0  0  0  0
    7.0765  -17.7831   22.0850 C   0  0  0  0  0  0  0  0  0  0  0  0
    7.2743  -16.2855   21.9347 C   0  0  2  0  0  0  0  0  0  0  0  0
    7.8986  -15.9411   20.6981 N   0  0  0  0  0  0  0  0  0  0  0  0
    7.9537  -15.7223   23.1169 C   0  0  0  0  0  0  0  0  0  0  0  0
    9.1684  -15.4629   23.0470 O   0  0  0  0  0  0  0  0  0  0  0  0
    5.7821  -12.1756   27.5458 C   0  0  0  0  0  0  0  0  0  0  0  0
    7.0599  -12.8807   27.0527 C   0  0  2  0  0  0  0  0  0  0  0  0
    8.1043  -11.8485   26.8952 C   0  0  0  0  0  0  0  0  0  0  0  0
    6.7094  -13.6898   25.8810 C   0  0  0  0  0  0  0  0  0  0  0  0
    7.7286  -14.6596   25.3900 C   0  0  2  0  0  0  0  0  0  0  0  0
    7.2659  -15.4767   24.3027 N   0  0  0  0  0  0  0  0  0  0  0  0
    8.2253  -15.5649   26.4472 C   0  0  0  0  0  0  0  0  0  0  0  0
    7.6398  -16.6521   26.6600 O   0  0  0  0  0  0  0  0  0  0  0  0
    9.3235  -15.2567   27.2197 O   0  0  0  0  0  0  0  0  0  0  0  0
  2  1  1  0
  3  4  1  0
  3  2  1  0
  4  5  1  0
  5  1  1  0
  5  6  1  1
  7  6  2  0
  8  9  1  0
 10  9  1  1
 10 11  1  0
 10 12  1  0
 11  6  1  0
 12 19  1  0
 13 12  2  0
 15 14  1  6
 16 15  1  0
 17 15  1  0
 18 17  1  1
 19 18  1  0
 20 18  1  0
 20 22  1  0
 21 20  2  0
M  END
$$$$
