TWF.pdb
     RDKit          3D

 33 35  0  0  1  0  0  0  0  0999 V2000
   13.2866  -17.0743   18.6665 C   0  0  0  0  0  0  0  0  0  0  0  0
   12.6605  -16.8846   20.0060 C   0  0  1  0  0  0  0  0  0  0  0  0
   13.6298  -16.9684   21.0239 O   0  0  0  0  0  0  0  0  0  0  0  0
   11.8420  -15.6279   20.1315 C   0  0  2  0  0  0  0  0  0  0  0  0
   12.7235  -14.5090   19.8618 N   0  0  0  0  0  0  0  0  0  0  0  0
   11.2147  -15.4516   21.4438 C   0  0  0  0  0  0  0  0  0  0  0  0
   11.7869  -14.7587   22.3394 O   0  0  0  0  0  0  0  0  0  0  0  0
    9.9647  -16.0173   21.8113 N   0  0  0  0  0  0  0  0  0  0  0  0
    9.4093  -15.9147   23.1561 C   0  0  1  0  0  0  0  0  0  0  0  0
    7.8999  -15.9210   23.0889 C   0  0  0  0  0  0  0  0  0  0  0  0
    7.2165  -15.3923   24.2688 C   0  0  0  0  0  0  0  0  0  0  0  0
    6.4988  -16.2441   25.1245 C   0  0  0  0  0  0  0  0  0  0  0  0
    6.0177  -15.4845   26.1181 N   0  0  0  0  0  0  0  0  0  0  0  0
    6.3770  -14.1947   25.9614 C   0  0  0  0  0  0  0  0  0  0  0  0
    6.1191  -13.0632   26.7111 C   0  0  0  0  0  0  0  0  0  0  0  0
    6.6281  -11.8647   26.2772 C   0  0  0  0  0  0  0  0  0  0  0  0
    7.3797  -11.7676   25.1264 C   0  0  0  0  0  0  0  0  0  0  0  0
    7.6231  -12.9061   24.3978 C   0  0  0  0  0  0  0  0  0  0  0  0
    7.1380  -14.1339   24.7871 C   0  0  0  0  0  0  0  0  0  0  0  0
    9.9289  -16.8966   24.1029 C   0  0  0  0  0  0  0  0  0  0  0  0
   10.3892  -18.0316   23.7558 O   0  0  0  0  0  0  0  0  0  0  0  0
    9.9722  -16.6576   25.5251 N   0  0  0  0  0  0  0  0  0  0  0  0
   10.5379  -17.6437   26.4438 C   0  0  1  0  0  0  0  0  0  0  0  0
   10.1197  -17.1094   27.8300 C   0  0  0  0  0  0  0  0  0  0  0  0
   10.0510  -15.6606   27.9021 C   0  0  0  0  0  0  0  0  0  0  0  0
   11.2038  -14.9165   27.9444 C   0  0  0  0  0  0  0  0  0  0  0  0
   11.2136  -13.5452   28.0023 C   0  0  0  0  0  0  0  0  0  0  0  0
   10.0019  -12.8896   28.0185 C   0  0  0  0  0  0  0  0  0  0  0  0
    8.8390  -13.6281   27.9763 C   0  0  0  0  0  0  0  0  0  0  0  0
    8.8429  -15.0129   27.9178 C   0  0  0  0  0  0  0  0  0  0  0  0
    9.8954  -18.9697   26.3099 C   0  0  0  0  0  0  0  0  0  0  0  0
    8.8191  -19.0594   25.4049 O   0  0  0  0  0  0  0  0  0  0  0  0
   10.2661  -19.9781   26.9550 O   0  0  0  0  0  0  0  0  0  0  0  0
  2  3  1  0
  2  1  1  6
  4  2  1  0
  4  5  1  1
  6  4  1  0
  6  7  2  0
  8  6  1  0
  9  8  1  0
  9 10  1  6
 11 10  1  0
 12 11  2  0
 13 14  1  0
 13 12  1  0
 14 19  2  0
 15 14  1  0
 15 16  2  0
 16 17  1  0
 17 18  2  0
 19 11  1  0
 19 18  1  0
 20  9  1  0
 21 20  2  0
 22 20  1  0
 23 31  1  0
 23 22  1  0
 24 25  1  0
 23 24  1  1
 25 26  2  0
 26 27  1  0
 28 27  2  0
 29 28  1  0
 30 25  1  0
 30 29  2  0
 31 32  1  0
 33 31  2  0
M  END
$$$$
