TWF.pdb
     RDKit          3D

 33 35  0  0  1  0  0  0  0  0999 V2000
    8.6496  -18.1399   17.2522 C   0  0  0  0  0  0  0  0  0  0  0  0
    9.0151  -17.6756   18.6208 C   0  0  1  0  0  0  0  0  0  0  0  0
   10.3632  -17.2712   18.6648 O   0  0  0  0  0  0  0  0  0  0  0  0
    8.1059  -16.6115   19.1739 C   0  0  2  0  0  0  0  0  0  0  0  0
    8.1386  -15.4929   18.2522 N   0  0  0  0  0  0  0  0  0  0  0  0
    8.4719  -16.1508   20.5157 C   0  0  0  0  0  0  0  0  0  0  0  0
    9.1435  -15.0849   20.6661 O   0  0  0  0  0  0  0  0  0  0  0  0
    8.1214  -16.8289   21.7136 N   0  0  0  0  0  0  0  0  0  0  0  0
    8.5177  -16.3622   23.0375 C   0  0  1  0  0  0  0  0  0  0  0  0
    7.4859  -16.7813   24.0585 C   0  0  0  0  0  0  0  0  0  0  0  0
    6.9298  -15.6993   24.8701 C   0  0  0  0  0  0  0  0  0  0  0  0
    5.8735  -15.9419   25.7635 C   0  0  0  0  0  0  0  0  0  0  0  0
    5.6066  -14.7810   26.3773 N   0  0  0  0  0  0  0  0  0  0  0  0
    6.4216  -13.8010   25.9387 C   0  0  0  0  0  0  0  0  0  0  0  0
    6.5198  -12.4619   26.2650 C   0  0  0  0  0  0  0  0  0  0  0  0
    7.4674  -11.7035   25.6243 C   0  0  0  0  0  0  0  0  0  0  0  0
    8.3104  -12.2413   24.6763 C   0  0  0  0  0  0  0  0  0  0  0  0
    8.1943  -13.5749   24.3687 C   0  0  0  0  0  0  0  0  0  0  0  0
    7.2625  -14.3819   24.9810 C   0  0  0  0  0  0  0  0  0  0  0  0
    9.8734  -16.7340   23.4304 C   0  0  0  0  0  0  0  0  0  0  0  0
   10.5033  -17.7215   22.9316 O   0  0  0  0  0  0  0  0  0  0  0  0
   10.6238  -16.0014   24.4214 N   0  0  0  0  0  0  0  0  0  0  0  0
   11.9512  -16.4414   24.8469 C   0  0  1  0  0  0  0  0  0  0  0  0
   12.4344  -15.2792   25.7400 C   0  0  0  0  0  0  0  0  0  0  0  0
   11.4334  -14.8101   26.6818 C   0  0  0  0  0  0  0  0  0  0  0  0
   11.7348  -14.7134   28.0176 C   0  0  0  0  0  0  0  0  0  0  0  0
   10.8423  -14.2687   28.9609 C   0  0  0  0  0  0  0  0  0  0  0  0
    9.5830  -13.9028   28.5385 C   0  0  0  0  0  0  0  0  0  0  0  0
    9.2712  -13.9962   27.1992 C   0  0  0  0  0  0  0  0  0  0  0  0
   10.1818  -14.4469   26.2565 C   0  0  0  0  0  0  0  0  0  0  0  0
   11.8940  -17.6307   25.7251 C   0  0  0  0  0  0  0  0  0  0  0  0
   10.6108  -18.1228   26.0361 O   0  0  0  0  0  0  0  0  0  0  0  0
   12.9160  -18.1919   26.1846 O   0  0  0  0  0  0  0  0  0  0  0  0
  2  3  1  0
  2  1  1  6
  4  2  1  0
  4  5  1  6
  6  4  1  0
  6  7  2  0
  8  6  1  0
  9  8  1  0
  9 10  1  1
 11 10  1  0
 12 11  2  0
 13 14  1  0
 13 12  1  0
 14 19  2  0
 15 14  1  0
 15 16  2  0
 16 17  1  0
 17 18  2  0
 19 11  1  0
 19 18  1  0
 20  9  1  0
 21 20  2  0
 22 20  1  0
 23 31  1  0
 23 22  1  0
 24 25  1  0
 23 24  1  1
 25 26  2  0
 26 27  1  0
 28 27  2  0
 29 28  1  0
 30 25  1  0
 30 29  2  0
 31 32  1  0
 33 31  2  0
M  END
$$$$
