TWF.pdb
     RDKit          3D

 33 35  0  0  1  0  0  0  0  0999 V2000
    8.3889  -21.2957   22.2683 C   0  0  0  0  0  0  0  0  0  0  0  0
    9.1272  -20.0561   22.6433 C   0  0  1  0  0  0  0  0  0  0  0  0
   10.4604  -20.3555   22.9835 O   0  0  0  0  0  0  0  0  0  0  0  0
    9.0577  -18.9616   21.6128 C   0  0  2  0  0  0  0  0  0  0  0  0
    9.6466  -19.4783   20.3929 N   0  0  0  0  0  0  0  0  0  0  0  0
    9.7448  -17.7280   22.0035 C   0  0  0  0  0  0  0  0  0  0  0  0
   10.8717  -17.4351   21.4995 O   0  0  0  0  0  0  0  0  0  0  0  0
    9.2306  -16.7928   22.9410 N   0  0  0  0  0  0  0  0  0  0  0  0
    9.9991  -15.6551   23.4334 C   0  0  1  0  0  0  0  0  0  0  0  0
    9.1993  -14.3846   23.2635 C   0  0  0  0  0  0  0  0  0  0  0  0
    8.1928  -14.4130   22.2030 C   0  0  0  0  0  0  0  0  0  0  0  0
    6.9956  -15.1288   22.3684 C   0  0  0  0  0  0  0  0  0  0  0  0
    6.2726  -14.9430   21.2557 N   0  0  0  0  0  0  0  0  0  0  0  0
    6.9243  -14.1532   20.3790 C   0  0  0  0  0  0  0  0  0  0  0  0
    6.5906  -13.6947   19.1190 C   0  0  0  0  0  0  0  0  0  0  0  0
    7.4886  -12.8941   18.4586 C   0  0  0  0  0  0  0  0  0  0  0  0
    8.6984  -12.5433   19.0172 C   0  0  0  0  0  0  0  0  0  0  0  0
    9.0079  -13.0109   20.2710 C   0  0  0  0  0  0  0  0  0  0  0  0
    8.1443  -13.8159   20.9785 C   0  0  0  0  0  0  0  0  0  0  0  0
   10.5131  -15.8127   24.7904 C   0  0  0  0  0  0  0  0  0  0  0  0
   11.4183  -15.0695   25.2893 O   0  0  0  0  0  0  0  0  0  0  0  0
   10.0277  -16.8293   25.6920 N   0  0  0  0  0  0  0  0  0  0  0  0
   10.5462  -16.9468   27.0535 C   0  0  1  0  0  0  0  0  0  0  0  0
    9.3569  -16.4833   27.9211 C   0  0  0  0  0  0  0  0  0  0  0  0
    9.0027  -15.0879   27.7306 C   0  0  0  0  0  0  0  0  0  0  0  0
    7.8112  -14.7535   27.1366 C   0  0  0  0  0  0  0  0  0  0  0  0
    7.4079  -13.4571   26.9347 C   0  0  0  0  0  0  0  0  0  0  0  0
    8.2461  -12.4463   27.3516 C   0  0  0  0  0  0  0  0  0  0  0  0
    9.4445  -12.7722   27.9492 C   0  0  0  0  0  0  0  0  0  0  0  0
    9.8401  -14.0857   28.1474 C   0  0  0  0  0  0  0  0  0  0  0  0
   10.8042  -18.3523   27.4371 C   0  0  0  0  0  0  0  0  0  0  0  0
   11.3617  -18.5646   28.7136 O   0  0  0  0  0  0  0  0  0  0  0  0
   10.5516  -19.3238   26.6868 O   0  0  0  0  0  0  0  0  0  0  0  0
  2  3  1  0
  2  1  1  6
  4  2  1  0
  4  5  1  6
  6  4  1  0
  6  7  2  0
  8  6  1  0
  9  8  1  0
  9 10  1  1
 11 10  1  0
 12 11  2  0
 13 14  1  0
 13 12  1  0
 14 19  2  0
 15 14  1  0
 15 16  2  0
 16 17  1  0
 17 18  2  0
 19 11  1  0
 19 18  1  0
 20  9  1  0
 21 20  2  0
 22 20  1  0
 23 31  1  0
 23 22  1  0
 24 25  1  0
 23 24  1  1
 25 26  2  0
 26 27  1  0
 28 27  2  0
 29 28  1  0
 30 25  1  0
 30 29  2  0
 31 32  1  0
 33 31  2  0
M  END
$$$$
