TWF.pdb
     RDKit          3D

 33 35  0  0  1  0  0  0  0  0999 V2000
   10.1936  -17.8463   18.9575 C   0  0  0  0  0  0  0  0  0  0  0  0
    9.4843  -16.6519   18.4166 C   0  0  1  0  0  0  0  0  0  0  0  0
    9.2097  -16.8158   17.0452 O   0  0  0  0  0  0  0  0  0  0  0  0
    8.2451  -16.2722   19.1815 C   0  0  2  0  0  0  0  0  0  0  0  0
    7.5931  -15.2060   18.4466 N   0  0  0  0  0  0  0  0  0  0  0  0
    8.5017  -15.8334   20.5557 C   0  0  0  0  0  0  0  0  0  0  0  0
    9.1258  -14.7512   20.7767 O   0  0  0  0  0  0  0  0  0  0  0  0
    8.0912  -16.5516   21.7105 N   0  0  0  0  0  0  0  0  0  0  0  0
    8.4343  -16.1400   23.0671 C   0  0  1  0  0  0  0  0  0  0  0  0
    7.3579  -16.5907   24.0268 C   0  0  0  0  0  0  0  0  0  0  0  0
    6.6826  -15.5209   24.7606 C   0  0  0  0  0  0  0  0  0  0  0  0
    5.6139  -15.8074   25.6257 C   0  0  0  0  0  0  0  0  0  0  0  0
    5.2283  -14.6446   26.1686 N   0  0  0  0  0  0  0  0  0  0  0  0
    5.9781  -13.6223   25.7107 C   0  0  0  0  0  0  0  0  0  0  0  0
    5.9534  -12.2655   25.9710 C   0  0  0  0  0  0  0  0  0  0  0  0
    6.8616  -11.4625   25.3275 C   0  0  0  0  0  0  0  0  0  0  0  0
    7.7838  -11.9732   24.4401 C   0  0  0  0  0  0  0  0  0  0  0  0
    7.7894  -13.3251   24.1976 C   0  0  0  0  0  0  0  0  0  0  0  0
    6.9021  -14.1766   24.8158 C   0  0  0  0  0  0  0  0  0  0  0  0
    9.7699  -16.5375   23.5015 C   0  0  0  0  0  0  0  0  0  0  0  0
   10.3421  -17.6093   23.1213 O   0  0  0  0  0  0  0  0  0  0  0  0
   10.5649  -15.7371   24.4011 N   0  0  0  0  0  0  0  0  0  0  0  0
   11.9188  -16.1380   24.7789 C   0  0  1  0  0  0  0  0  0  0  0  0
   12.3418  -15.0401   25.7778 C   0  0  0  0  0  0  0  0  0  0  0  0
   11.4800  -14.9459   26.9429 C   0  0  0  0  0  0  0  0  0  0  0  0
   11.7829  -15.6470   28.0835 C   0  0  0  0  0  0  0  0  0  0  0  0
   11.0201  -15.5968   29.2235 C   0  0  0  0  0  0  0  0  0  0  0  0
    9.8956  -14.8008   29.2151 C   0  0  0  0  0  0  0  0  0  0  0  0
    9.5833  -14.0930   28.0745 C   0  0  0  0  0  0  0  0  0  0  0  0
   10.3622  -14.1523   26.9296 C   0  0  0  0  0  0  0  0  0  0  0  0
   11.9373  -17.4069   25.5395 C   0  0  0  0  0  0  0  0  0  0  0  0
   10.6848  -17.9685   25.8579 O   0  0  0  0  0  0  0  0  0  0  0  0
   12.9955  -17.9752   25.8967 O   0  0  0  0  0  0  0  0  0  0  0  0
  2  3  1  0
  2  1  1  1
  4  2  1  0
  4  5  1  6
  6  4  1  0
  6  7  2  0
  8  6  1  0
  9  8  1  0
  9 10  1  1
 11 10  1  0
 12 11  2  0
 13 14  1  0
 13 12  1  0
 14 19  2  0
 15 14  1  0
 15 16  2  0
 16 17  1  0
 17 18  2  0
 19 11  1  0
 19 18  1  0
 20  9  1  0
 21 20  2  0
 22 20  1  0
 23 31  1  0
 23 22  1  0
 24 25  1  0
 23 24  1  1
 25 26  2  0
 26 27  1  0
 28 27  2  0
 29 28  1  0
 30 25  1  0
 30 29  2  0
 31 32  1  0
 33 31  2  0
M  END
$$$$
