TWF.pdb
     RDKit          3D

 33 35  0  0  1  0  0  0  0  0999 V2000
   14.4984  -16.9608   17.5125 C   0  0  0  0  0  0  0  0  0  0  0  0
   13.8584  -16.8223   18.8517 C   0  0  1  0  0  0  0  0  0  0  0  0
   14.8207  -16.9218   19.8749 O   0  0  0  0  0  0  0  0  0  0  0  0
   13.0187  -15.5833   19.0084 C   0  0  2  0  0  0  0  0  0  0  0  0
   13.8846  -14.4427   18.7827 N   0  0  0  0  0  0  0  0  0  0  0  0
   12.3764  -15.4583   20.3193 C   0  0  0  0  0  0  0  0  0  0  0  0
   12.9396  -14.8038   21.2489 O   0  0  0  0  0  0  0  0  0  0  0  0
   11.1206  -16.0347   20.6489 N   0  0  0  0  0  0  0  0  0  0  0  0
   10.5787  -16.0407   22.0031 C   0  0  1  0  0  0  0  0  0  0  0  0
    9.1028  -16.3618   21.9628 C   0  0  0  0  0  0  0  0  0  0  0  0
    8.3189  -15.5925   20.9973 C   0  0  0  0  0  0  0  0  0  0  0  0
    7.3276  -16.2137   20.2198 C   0  0  0  0  0  0  0  0  0  0  0  0
    6.7692  -15.2589   19.4633 N   0  0  0  0  0  0  0  0  0  0  0  0
    7.3352  -14.0586   19.6998 C   0  0  0  0  0  0  0  0  0  0  0  0
    7.1043  -12.8042   19.1684 C   0  0  0  0  0  0  0  0  0  0  0  0
    7.8681  -11.7562   19.6176 C   0  0  0  0  0  0  0  0  0  0  0  0
    8.8463  -11.9261   20.5731 C   0  0  0  0  0  0  0  0  0  0  0  0
    9.0575  -13.1822   21.0869 C   0  0  0  0  0  0  0  0  0  0  0  0
    8.3201  -14.2683   20.6734 C   0  0  0  0  0  0  0  0  0  0  0  0
   11.3073  -16.8861   22.9437 C   0  0  0  0  0  0  0  0  0  0  0  0
   12.5512  -17.1381   22.8435 O   0  0  0  0  0  0  0  0  0  0  0  0
   10.6742  -17.5071   24.0819 N   0  0  0  0  0  0  0  0  0  0  0  0
   10.7892  -16.9333   25.4213 C   0  0  1  0  0  0  0  0  0  0  0  0
   10.0161  -15.6031   25.2986 C   0  0  0  0  0  0  0  0  0  0  0  0
    9.9373  -14.8556   26.5412 C   0  0  0  0  0  0  0  0  0  0  0  0
    8.8001  -14.1526   26.8523 C   0  0  0  0  0  0  0  0  0  0  0  0
    8.6525  -13.4338   28.0123 C   0  0  0  0  0  0  0  0  0  0  0  0
    9.7026  -13.4219   28.9042 C   0  0  0  0  0  0  0  0  0  0  0  0
   10.8486  -14.1249   28.6006 C   0  0  0  0  0  0  0  0  0  0  0  0
   10.9848  -14.8472   27.4254 C   0  0  0  0  0  0  0  0  0  0  0  0
   10.0667  -17.7297   26.4375 C   0  0  0  0  0  0  0  0  0  0  0  0
    8.8216  -18.2639   26.0505 O   0  0  0  0  0  0  0  0  0  0  0  0
   10.5129  -17.9346   27.5905 O   0  0  0  0  0  0  0  0  0  0  0  0
  2  3  1  0
  2  1  1  6
  4  2  1  0
  4  5  1  1
  6  4  1  0
  6  7  2  0
  8  6  1  0
  9  8  1  0
  9 10  1  6
 11 10  1  0
 12 11  2  0
 13 14  1  0
 13 12  1  0
 14 19  2  0
 15 14  1  0
 15 16  2  0
 16 17  1  0
 17 18  2  0
 19 11  1  0
 19 18  1  0
 20  9  1  0
 21 20  2  0
 22 20  1  0
 23 31  1  0
 23 22  1  0
 24 25  1  0
 23 24  1  6
 25 26  2  0
 26 27  1  0
 28 27  2  0
 29 28  1  0
 30 25  1  0
 30 29  2  0
 31 32  1  0
 33 31  2  0
M  END
$$$$
