TWF.pdb
     RDKit          3D

 33 35  0  0  1  0  0  0  0  0999 V2000
    8.8433  -22.7935   20.3490 C   0  0  0  0  0  0  0  0  0  0  0  0
    9.1024  -21.4498   20.9403 C   0  0  1  0  0  0  0  0  0  0  0  0
   10.4805  -21.2605   21.1591 O   0  0  0  0  0  0  0  0  0  0  0  0
    8.5101  -20.3079   20.1592 C   0  0  2  0  0  0  0  0  0  0  0  0
    9.0393  -20.3855   18.8116 N   0  0  0  0  0  0  0  0  0  0  0  0
    8.7969  -18.9861   20.7222 C   0  0  0  0  0  0  0  0  0  0  0  0
    9.7524  -18.2882   20.2643 O   0  0  0  0  0  0  0  0  0  0  0  0
    8.0611  -18.3965   21.7847 N   0  0  0  0  0  0  0  0  0  0  0  0
    8.4406  -17.1353   22.4116 C   0  0  1  0  0  0  0  0  0  0  0  0
    7.2098  -16.2931   22.6542 C   0  0  0  0  0  0  0  0  0  0  0  0
    7.4643  -14.9128   23.0648 C   0  0  0  0  0  0  0  0  0  0  0  0
    8.1788  -14.0361   22.2319 C   0  0  0  0  0  0  0  0  0  0  0  0
    8.2224  -12.8518   22.8572 N   0  0  0  0  0  0  0  0  0  0  0  0
    7.5826  -12.9044   24.0425 C   0  0  0  0  0  0  0  0  0  0  0  0
    7.3715  -11.9556   25.0246 C   0  0  0  0  0  0  0  0  0  0  0  0
    6.6734  -12.3248   26.1471 C   0  0  0  0  0  0  0  0  0  0  0  0
    6.1860  -13.6030   26.3131 C   0  0  0  0  0  0  0  0  0  0  0  0
    6.4080  -14.5288   25.3231 C   0  0  0  0  0  0  0  0  0  0  0  0
    7.1007  -14.2127   24.1765 C   0  0  0  0  0  0  0  0  0  0  0  0
    9.2634  -17.2772   23.6087 C   0  0  0  0  0  0  0  0  0  0  0  0
    8.8783  -17.8877   24.6574 O   0  0  0  0  0  0  0  0  0  0  0  0
   10.5988  -16.7387   23.7022 N   0  0  0  0  0  0  0  0  0  0  0  0
   11.1234  -16.2250   24.9660 C   0  0  1  0  0  0  0  0  0  0  0  0
   10.0176  -15.2557   25.4346 C   0  0  0  0  0  0  0  0  0  0  0  0
   10.1223  -14.8813   26.8338 C   0  0  0  0  0  0  0  0  0  0  0  0
   10.2983  -15.8458   27.7946 C   0  0  0  0  0  0  0  0  0  0  0  0
   10.4156  -15.5636   29.1328 C   0  0  0  0  0  0  0  0  0  0  0  0
   10.3524  -14.2439   29.5236 C   0  0  0  0  0  0  0  0  0  0  0  0
   10.1760  -13.2684   28.5661 C   0  0  0  0  0  0  0  0  0  0  0  0
   10.0590  -13.5668   27.2177 C   0  0  0  0  0  0  0  0  0  0  0  0
   11.2104  -17.2738   26.0059 C   0  0  0  0  0  0  0  0  0  0  0  0
   12.2792  -18.1851   25.8934 O   0  0  0  0  0  0  0  0  0  0  0  0
   10.3907  -17.3724   26.9487 O   0  0  0  0  0  0  0  0  0  0  0  0
  2  3  1  0
  2  1  1  6
  4  2  1  0
  4  5  1  6
  6  4  1  0
  6  7  2  0
  8  6  1  0
  9  8  1  0
  9 10  1  1
 11 10  1  0
 12 11  2  0
 13 14  1  0
 13 12  1  0
 14 19  2  0
 15 14  1  0
 15 16  2  0
 16 17  1  0
 17 18  2  0
 19 11  1  0
 19 18  1  0
 20  9  1  0
 21 20  2  0
 22 20  1  0
 23 31  1  0
 23 22  1  0
 24 25  1  0
 23 24  1  1
 25 26  2  0
 26 27  1  0
 28 27  2  0
 29 28  1  0
 30 25  1  0
 30 29  2  0
 31 32  1  0
 33 31  2  0
M  END
$$$$
