IDF.pdb
     RDKit          3D

 28 28  0  0  1  0  0  0  0  0999 V2000
   28.5225  -17.1483  -17.2172 C   0  0  0  0  0  0  0  0  0  0  0  0
   28.5077  -18.4736  -16.4866 C   0  0  0  0  0  0  0  0  0  0  0  0
   27.6029  -18.4287  -15.2761 C   0  0  2  0  0  0  0  0  0  0  0  0
   28.0545  -17.3672  -14.2993 C   0  0  0  0  0  0  0  0  0  0  0  0
   27.5714  -19.7417  -14.5424 C   0  0  2  0  0  0  0  0  0  0  0  0
   27.1903  -20.8420  -15.4004 N   0  0  0  0  0  0  0  0  0  0  0  0
   26.7234  -19.7209  -13.3501 C   0  0  0  0  0  0  0  0  0  0  0  0
   27.1039  -19.1008  -12.3322 O   0  0  0  0  0  0  0  0  0  0  0  0
   25.4793  -20.4120  -13.3815 N   0  0  0  0  0  0  0  0  0  0  0  0
   24.6859  -20.5149  -12.2007 C   0  0  1  0  0  0  0  0  0  0  0  0
   23.5728  -21.5237  -12.2929 C   0  0  0  0  0  0  0  0  0  0  0  0
   22.6325  -21.3989  -11.1620 C   0  0  0  0  0  0  0  0  0  0  0  0
   22.5634  -20.3108  -10.5061 O   0  0  0  0  0  0  0  0  0  0  0  0
   25.5510  -20.8169  -11.0330 C   0  0  0  0  0  0  0  0  0  0  0  0
   26.5522  -21.5951  -11.1709 O   0  0  0  0  0  0  0  0  0  0  0  0
   21.7787  -22.4033  -10.7282 O   0  0  0  0  0  0  0  0  0  0  0  0
   25.3504  -20.2966   -9.7391 N   0  0  0  0  0  0  0  0  0  0  0  0
   26.1720  -20.6502   -8.6076 C   0  0  1  0  0  0  0  0  0  0  0  0
   27.1751  -19.5734   -8.2690 C   0  0  0  0  0  0  0  0  0  0  0  0
   27.8621  -19.7990   -6.9699 C   0  0  0  0  0  0  0  0  0  0  0  0
   28.9112  -20.7234   -6.8706 C   0  0  0  0  0  0  0  0  0  0  0  0
   29.5520  -20.9454   -5.6721 C   0  0  0  0  0  0  0  0  0  0  0  0
   29.1915  -20.2726   -4.5271 C   0  0  0  0  0  0  0  0  0  0  0  0
   28.1625  -19.3606   -4.6065 C   0  0  0  0  0  0  0  0  0  0  0  0
   27.5086  -19.1312   -5.8192 C   0  0  0  0  0  0  0  0  0  0  0  0
   25.2957  -20.8640   -7.4504 C   0  0  0  0  0  0  0  0  0  0  0  0
   23.9412  -20.6184   -7.5371 O   0  0  0  0  0  0  0  0  0  0  0  0
   25.7673  -21.2705   -6.3721 O   0  0  0  0  0  0  0  0  0  0  0  0
  2  1  1  0
  3  5  1  0
  3  2  1  0
  3  4  1  1
  5  6  1  6
  7  5  1  0
  7  8  2  0
  9  7  1  0
 10  9  1  0
 10 11  1  6
 12 11  1  0
 12 16  1  0
 13 12  2  0
 14 10  1  0
 15 14  2  0
 17 14  1  0
 18 17  1  0
 18 26  1  0
 18 19  1  1
 20 25  2  0
 20 19  1  0
 21 20  1  0
 22 23  1  0
 22 21  2  0
 23 24  2  0
 24 25  1  0
 26 28  2  0
 26 27  1  0
M  END
$$$$
