IDF.pdb
     RDKit          3D

 28 28  0  0  1  0  0  0  0  0999 V2000
   16.3395  -21.1749  -13.6181 C   0  0  0  0  0  0  0  0  0  0  0  0
   17.5341  -20.3967  -13.1104 C   0  0  0  0  0  0  0  0  0  0  0  0
   18.8314  -20.9673  -13.6374 C   0  0  2  0  0  0  0  0  0  0  0  0
   19.0140  -22.4009  -13.1942 C   0  0  0  0  0  0  0  0  0  0  0  0
   20.0276  -20.1868  -13.1651 C   0  0  2  0  0  0  0  0  0  0  0  0
   19.8332  -18.7582  -13.2820 N   0  0  0  0  0  0  0  0  0  0  0  0
   21.2737  -20.5771  -13.8255 C   0  0  0  0  0  0  0  0  0  0  0  0
   21.6351  -21.7747  -13.8046 O   0  0  0  0  0  0  0  0  0  0  0  0
   22.0465  -19.5756  -14.4785 N   0  0  0  0  0  0  0  0  0  0  0  0
   23.2452  -19.9290  -15.1657 C   0  0  1  0  0  0  0  0  0  0  0  0
   23.3340  -19.3873  -16.5672 C   0  0  0  0  0  0  0  0  0  0  0  0
   24.6121  -19.7515  -17.2095 C   0  0  0  0  0  0  0  0  0  0  0  0
   25.1163  -20.9042  -17.0202 O   0  0  0  0  0  0  0  0  0  0  0  0
   24.4273  -19.4985  -14.3779 C   0  0  0  0  0  0  0  0  0  0  0  0
   24.3988  -18.3901  -13.7474 O   0  0  0  0  0  0  0  0  0  0  0  0
   25.3478  -18.9155  -18.0376 O   0  0  0  0  0  0  0  0  0  0  0  0
   25.6204  -20.2394  -14.2653 N   0  0  0  0  0  0  0  0  0  0  0  0
   26.4358  -20.2506  -13.0755 C   0  0  1  0  0  0  0  0  0  0  0  0
   25.6623  -20.6887  -11.8548 C   0  0  0  0  0  0  0  0  0  0  0  0
   26.4529  -20.6059  -10.5983 C   0  0  0  0  0  0  0  0  0  0  0  0
   26.0860  -19.7103   -9.5842 C   0  0  0  0  0  0  0  0  0  0  0  0
   26.8129  -19.6202   -8.4181 C   0  0  0  0  0  0  0  0  0  0  0  0
   27.9246  -20.4015   -8.2001 C   0  0  0  0  0  0  0  0  0  0  0  0
   28.2994  -21.2870   -9.1861 C   0  0  0  0  0  0  0  0  0  0  0  0
   27.5663  -21.3830  -10.3710 C   0  0  0  0  0  0  0  0  0  0  0  0
   27.5513  -21.1793  -13.2898 C   0  0  0  0  0  0  0  0  0  0  0  0
   28.8544  -20.7740  -13.0890 O   0  0  0  0  0  0  0  0  0  0  0  0
   27.3331  -22.3485  -13.6580 O   0  0  0  0  0  0  0  0  0  0  0  0
  2  1  1  0
  3  5  1  0
  3  2  1  0
  3  4  1  1
  5  6  1  6
  7  5  1  0
  7  8  2  0
  9  7  1  0
 10  9  1  0
 10 11  1  6
 12 11  1  0
 12 16  1  0
 13 12  2  0
 14 10  1  0
 15 14  2  0
 17 14  1  0
 18 17  1  0
 18 26  1  0
 18 19  1  1
 20 25  2  0
 20 19  1  0
 21 20  1  0
 22 23  1  0
 22 21  2  0
 23 24  2  0
 24 25  1  0
 26 28  2  0
 26 27  1  0
M  END
$$$$
