IDF.pdb
     RDKit          3D

 28 28  0  0  1  0  0  0  0  0999 V2000
   15.5711  -14.5501  -15.2005 C   0  0  0  0  0  0  0  0  0  0  0  0
   16.3375  -14.3775  -16.4942 C   0  0  0  0  0  0  0  0  0  0  0  0
   17.4984  -13.4233  -16.3269 C   0  0  2  0  0  0  0  0  0  0  0  0
   17.0165  -12.0434  -15.9414 C   0  0  0  0  0  0  0  0  0  0  0  0
   18.3084  -13.2892  -17.5876 C   0  0  2  0  0  0  0  0  0  0  0  0
   18.9070  -14.5421  -17.9925 N   0  0  0  0  0  0  0  0  0  0  0  0
   19.3331  -12.2473  -17.5117 C   0  0  0  0  0  0  0  0  0  0  0  0
   20.4743  -12.5331  -17.0858 O   0  0  0  0  0  0  0  0  0  0  0  0
   19.0008  -10.9272  -17.9280 N   0  0  0  0  0  0  0  0  0  0  0  0
   19.9921   -9.9019  -17.9210 C   0  0  1  0  0  0  0  0  0  0  0  0
   20.0441   -9.0869  -19.1854 C   0  0  0  0  0  0  0  0  0  0  0  0
   21.1260   -8.0839  -19.1402 C   0  0  0  0  0  0  0  0  0  0  0  0
   22.3306   -8.4516  -18.9597 O   0  0  0  0  0  0  0  0  0  0  0  0
   19.7932   -9.0119  -16.7498 C   0  0  0  0  0  0  0  0  0  0  0  0
   18.6113   -8.7409  -16.3538 O   0  0  0  0  0  0  0  0  0  0  0  0
   20.9429   -6.7157  -19.2826 O   0  0  0  0  0  0  0  0  0  0  0  0
   20.8390   -8.4209  -16.0136 N   0  0  0  0  0  0  0  0  0  0  0  0
   20.6188   -7.5551  -14.8811 C   0  0  1  0  0  0  0  0  0  0  0  0
   21.5398   -7.8749  -13.7278 C   0  0  0  0  0  0  0  0  0  0  0  0
   22.8827   -8.3430  -14.1618 C   0  0  0  0  0  0  0  0  0  0  0  0
   23.3067   -9.6490  -13.8797 C   0  0  0  0  0  0  0  0  0  0  0  0
   24.5500  -10.0930  -14.2714 C   0  0  0  0  0  0  0  0  0  0  0  0
   25.4242   -9.2776  -14.9530 C   0  0  0  0  0  0  0  0  0  0  0  0
   25.0238   -7.9911  -15.2385 C   0  0  0  0  0  0  0  0  0  0  0  0
   23.7641   -7.5349  -14.8438 C   0  0  0  0  0  0  0  0  0  0  0  0
   20.8533   -6.1707  -15.3067 C   0  0  0  0  0  0  0  0  0  0  0  0
   20.5594   -5.1161  -14.4677 O   0  0  0  0  0  0  0  0  0  0  0  0
   21.3214   -5.9315  -16.4354 O   0  0  0  0  0  0  0  0  0  0  0  0
  2  1  1  0
  3  5  1  0
  3  2  1  0
  3  4  1  6
  5  6  1  1
  7  5  1  0
  7  8  2  0
  9  7  1  0
 10  9  1  0
 10 11  1  6
 12 11  1  0
 12 16  1  0
 13 12  2  0
 14 10  1  0
 15 14  2  0
 17 14  1  0
 18 17  1  0
 18 26  1  0
 18 19  1  1
 20 25  2  0
 20 19  1  0
 21 20  1  0
 22 23  1  0
 22 21  2  0
 23 24  2  0
 24 25  1  0
 26 28  2  0
 26 27  1  0
M  END
$$$$
