IDF.pdb
     RDKit          3D

 28 28  0  0  1  0  0  0  0  0999 V2000
   21.0083  -13.4552  -23.5781 C   0  0  0  0  0  0  0  0  0  0  0  0
   20.1175  -12.2442  -23.4030 C   0  0  0  0  0  0  0  0  0  0  0  0
   20.6663  -11.2995  -22.3578 C   0  0  2  0  0  0  0  0  0  0  0  0
   20.6738  -11.9460  -20.9914 C   0  0  0  0  0  0  0  0  0  0  0  0
   19.8612  -10.0324  -22.2598 C   0  0  2  0  0  0  0  0  0  0  0  0
   19.8229   -9.3072  -23.5107 N   0  0  0  0  0  0  0  0  0  0  0  0
   20.3013   -9.1463  -21.1817 C   0  0  0  0  0  0  0  0  0  0  0  0
   21.1016   -8.2180  -21.4329 O   0  0  0  0  0  0  0  0  0  0  0  0
   19.8027   -9.3665  -19.8666 N   0  0  0  0  0  0  0  0  0  0  0  0
   20.1948   -8.5077  -18.7976 C   0  0  1  0  0  0  0  0  0  0  0  0
   19.0466   -7.9735  -17.9841 C   0  0  0  0  0  0  0  0  0  0  0  0
   19.5184   -7.1295  -16.8689 C   0  0  0  0  0  0  0  0  0  0  0  0
   20.2322   -6.1026  -17.1028 O   0  0  0  0  0  0  0  0  0  0  0  0
   21.1625   -9.2058  -17.9149 C   0  0  0  0  0  0  0  0  0  0  0  0
   20.9720  -10.4293  -17.6085 O   0  0  0  0  0  0  0  0  0  0  0  0
   19.2432   -7.3628  -15.5288 O   0  0  0  0  0  0  0  0  0  0  0  0
   22.3149   -8.6075  -17.3680 N   0  0  0  0  0  0  0  0  0  0  0  0
   23.2407   -9.3085  -16.5124 C   0  0  1  0  0  0  0  0  0  0  0  0
   24.5466   -9.6114  -17.2077 C   0  0  0  0  0  0  0  0  0  0  0  0
   25.5166  -10.3356  -16.3444 C   0  0  0  0  0  0  0  0  0  0  0  0
   26.5685   -9.6478  -15.7235 C   0  0  0  0  0  0  0  0  0  0  0  0
   27.4766  -10.3077  -14.9259 C   0  0  0  0  0  0  0  0  0  0  0  0
   27.3904  -11.6634  -14.7058 C   0  0  0  0  0  0  0  0  0  0  0  0
   26.3630  -12.3550  -15.3083 C   0  0  0  0  0  0  0  0  0  0  0  0
   25.4389  -11.6913  -16.1184 C   0  0  0  0  0  0  0  0  0  0  0  0
   23.5104   -8.4695  -15.3394 C   0  0  0  0  0  0  0  0  0  0  0  0
   23.6861   -9.0350  -14.0937 O   0  0  0  0  0  0  0  0  0  0  0  0
   23.5829   -7.2319  -15.4558 O   0  0  0  0  0  0  0  0  0  0  0  0
  2  1  1  0
  3  5  1  0
  3  2  1  0
  3  4  1  1
  5  6  1  6
  7  5  1  0
  7  8  2  0
  9  7  1  0
 10  9  1  0
 10 11  1  1
 12 11  1  0
 12 16  1  0
 13 12  2  0
 14 10  1  0
 15 14  2  0
 17 14  1  0
 18 17  1  0
 18 26  1  0
 18 19  1  6
 20 25  2  0
 20 19  1  0
 21 20  1  0
 22 23  1  0
 22 21  2  0
 23 24  2  0
 24 25  1  0
 26 28  2  0
 26 27  1  0
M  END
$$$$
