IDF.pdb
     RDKit          3D

 28 28  0  0  1  0  0  0  0  0999 V2000
   29.0695  -23.0559  -23.2331 C   0  0  0  0  0  0  0  0  0  0  0  0
   28.0301  -22.5847  -22.2391 C   0  0  0  0  0  0  0  0  0  0  0  0
   28.0904  -23.3812  -20.9553 C   0  0  2  0  0  0  0  0  0  0  0  0
   27.9051  -24.8574  -21.2226 C   0  0  0  0  0  0  0  0  0  0  0  0
   27.0311  -22.9576  -19.9747 C   0  0  2  0  0  0  0  0  0  0  0  0
   27.1801  -21.5780  -19.5661 N   0  0  0  0  0  0  0  0  0  0  0  0
   26.9509  -23.8217  -18.7965 C   0  0  0  0  0  0  0  0  0  0  0  0
   27.7389  -23.6394  -17.8419 O   0  0  0  0  0  0  0  0  0  0  0  0
   25.9710  -24.8539  -18.7688 N   0  0  0  0  0  0  0  0  0  0  0  0
   25.8805  -25.7271  -17.6447 C   0  0  1  0  0  0  0  0  0  0  0  0
   24.4761  -26.1455  -17.3016 C   0  0  0  0  0  0  0  0  0  0  0  0
   23.6863  -25.0148  -16.7759 C   0  0  0  0  0  0  0  0  0  0  0  0
   24.0983  -24.3643  -15.7629 O   0  0  0  0  0  0  0  0  0  0  0  0
   26.7293  -26.9250  -17.8633 C   0  0  0  0  0  0  0  0  0  0  0  0
   27.0206  -27.2867  -19.0514 O   0  0  0  0  0  0  0  0  0  0  0  0
   22.4820  -24.5758  -17.3077 O   0  0  0  0  0  0  0  0  0  0  0  0
   27.2583  -27.7239  -16.8303 N   0  0  0  0  0  0  0  0  0  0  0  0
   28.1412  -28.8400  -17.0659 C   0  0  1  0  0  0  0  0  0  0  0  0
   29.1021  -29.0617  -15.9224 C   0  0  0  0  0  0  0  0  0  0  0  0
   29.9550  -30.2669  -16.0981 C   0  0  0  0  0  0  0  0  0  0  0  0
   31.1279  -30.2035  -16.8632 C   0  0  0  0  0  0  0  0  0  0  0  0
   31.9236  -31.3137  -17.0379 C   0  0  0  0  0  0  0  0  0  0  0  0
   31.6027  -32.5262  -16.4718 C   0  0  0  0  0  0  0  0  0  0  0  0
   30.4536  -32.6065  -15.7168 C   0  0  0  0  0  0  0  0  0  0  0  0
   29.6424  -31.4840  -15.5360 C   0  0  0  0  0  0  0  0  0  0  0  0
   27.3236  -30.0457  -17.2402 C   0  0  0  0  0  0  0  0  0  0  0  0
   27.6385  -30.9771  -18.2077 O   0  0  0  0  0  0  0  0  0  0  0  0
   26.3314  -30.2420  -16.5140 O   0  0  0  0  0  0  0  0  0  0  0  0
  2  1  1  0
  3  5  1  0
  3  2  1  0
  3  4  1  6
  5  6  1  1
  7  5  1  0
  7  8  2  0
  9  7  1  0
 10  9  1  0
 10 11  1  6
 12 11  1  0
 12 16  1  0
 13 12  2  0
 14 10  1  0
 15 14  2  0
 17 14  1  0
 18 17  1  0
 18 26  1  0
 18 19  1  1
 20 25  2  0
 20 19  1  0
 21 20  1  0
 22 23  1  0
 22 21  2  0
 23 24  2  0
 24 25  1  0
 26 28  2  0
 26 27  1  0
M  END
$$$$
