IDF.pdb
     RDKit          3D

 28 28  0  0  1  0  0  0  0  0999 V2000
   20.1308  -13.6996  -17.0829 C   0  0  0  0  0  0  0  0  0  0  0  0
   20.3046  -12.3041  -17.6424 C   0  0  0  0  0  0  0  0  0  0  0  0
   20.1096  -11.2512  -16.5749 C   0  0  2  0  0  0  0  0  0  0  0  0
   18.7216  -11.3298  -15.9814 C   0  0  0  0  0  0  0  0  0  0  0  0
   20.2997   -9.8583  -17.1107 C   0  0  2  0  0  0  0  0  0  0  0  0
   21.5486   -9.7095  -17.8250 N   0  0  0  0  0  0  0  0  0  0  0  0
   20.1837   -8.8206  -16.0855 C   0  0  0  0  0  0  0  0  0  0  0  0
   19.2176   -8.8425  -15.2908 O   0  0  0  0  0  0  0  0  0  0  0  0
   21.1810   -7.8069  -16.0202 N   0  0  0  0  0  0  0  0  0  0  0  0
   21.0167   -6.6945  -15.1429 C   0  0  1  0  0  0  0  0  0  0  0  0
   22.3070   -6.1474  -14.5940 C   0  0  0  0  0  0  0  0  0  0  0  0
   22.0667   -5.0567  -13.6289 C   0  0  0  0  0  0  0  0  0  0  0  0
   21.4593   -5.2932  -12.5362 O   0  0  0  0  0  0  0  0  0  0  0  0
   20.2572   -5.6176  -15.8261 C   0  0  0  0  0  0  0  0  0  0  0  0
   20.6868   -5.1409  -16.9285 O   0  0  0  0  0  0  0  0  0  0  0  0
   22.4594   -3.7382  -13.8111 O   0  0  0  0  0  0  0  0  0  0  0  0
   19.0586   -5.0587  -15.3401 N   0  0  0  0  0  0  0  0  0  0  0  0
   18.4346   -3.8956  -15.9219 C   0  0  1  0  0  0  0  0  0  0  0  0
   17.1889   -4.2433  -16.7015 C   0  0  0  0  0  0  0  0  0  0  0  0
   17.4773   -4.8498  -18.0281 C   0  0  0  0  0  0  0  0  0  0  0  0
   17.7944   -4.0397  -19.1273 C   0  0  0  0  0  0  0  0  0  0  0  0
   18.0583   -4.5886  -20.3623 C   0  0  0  0  0  0  0  0  0  0  0  0
   18.0220   -5.9487  -20.5687 C   0  0  0  0  0  0  0  0  0  0  0  0
   17.7119   -6.7597  -19.4995 C   0  0  0  0  0  0  0  0  0  0  0  0
   17.4433   -6.2089  -18.2444 C   0  0  0  0  0  0  0  0  0  0  0  0
   18.0751   -2.9746  -14.8378 C   0  0  0  0  0  0  0  0  0  0  0  0
   17.6005   -1.7097  -15.1160 O   0  0  0  0  0  0  0  0  0  0  0  0
   18.1960   -3.3258  -13.6494 O   0  0  0  0  0  0  0  0  0  0  0  0
  2  1  1  0
  3  5  1  0
  3  2  1  0
  3  4  1  6
  5  6  1  1
  7  5  1  0
  7  8  2  0
  9  7  1  0
 10  9  1  0
 10 11  1  6
 12 11  1  0
 12 16  1  0
 13 12  2  0
 14 10  1  0
 15 14  2  0
 17 14  1  0
 18 17  1  0
 18 26  1  0
 18 19  1  1
 20 25  2  0
 20 19  1  0
 21 20  1  0
 22 23  1  0
 22 21  2  0
 23 24  2  0
 24 25  1  0
 26 28  2  0
 26 27  1  0
M  END
$$$$
