FQQ.pdb
     RDKit          3D

 30 30  0  0  1  0  0  0  0  0999 V2000
   21.7349  -21.0302  -14.3103 N   0  0  0  0  0  0  0  0  0  0  0  0
   21.4580  -20.2444  -13.1284 C   0  0  1  0  0  0  0  0  0  0  0  0
   20.0209  -19.7345  -13.3079 C   0  0  0  0  0  0  0  0  0  0  0  0
   19.9436  -18.7647  -14.4315 C   0  0  0  0  0  0  0  0  0  0  0  0
   20.4135  -17.4687  -14.3658 C   0  0  0  0  0  0  0  0  0  0  0  0
   20.3222  -16.5927  -15.4368 C   0  0  0  0  0  0  0  0  0  0  0  0
   19.7379  -17.0431  -16.6090 C   0  0  0  0  0  0  0  0  0  0  0  0
   19.2644  -18.3272  -16.6951 C   0  0  0  0  0  0  0  0  0  0  0  0
   19.3638  -19.1711  -15.6315 C   0  0  0  0  0  0  0  0  0  0  0  0
   21.4186  -21.1510  -11.9549 C   0  0  0  0  0  0  0  0  0  0  0  0
   20.8637  -22.2840  -12.1263 O   0  0  0  0  0  0  0  0  0  0  0  0
   25.9788  -21.5070   -9.9706 N   0  0  0  0  0  0  0  0  0  0  0  0
   25.3222  -20.4461   -9.2418 C   0  0  0  0  0  0  0  0  0  0  0  0
   26.0047  -19.4287   -9.0477 O   0  0  0  0  0  0  0  0  0  0  0  0
   23.9548  -20.5790   -8.7706 C   0  0  0  0  0  0  0  0  0  0  0  0
   23.2171  -21.8344   -8.9466 C   0  0  0  0  0  0  0  0  0  0  0  0
   21.8574  -21.6921   -9.5895 C   0  0  2  0  0  0  0  0  0  0  0  0
   21.9629  -20.8008  -10.6950 N   0  0  0  0  0  0  0  0  0  0  0  0
   20.7952  -21.4377   -8.6279 C   0  0  0  0  0  0  0  0  0  0  0  0
   20.1594  -20.3252   -8.5661 O   0  0  0  0  0  0  0  0  0  0  0  0
   17.7195  -24.4987  -11.2779 N   0  0  0  0  0  0  0  0  0  0  0  0
   16.7802  -24.5967  -10.2328 C   0  0  0  0  0  0  0  0  0  0  0  0
   15.6887  -25.1613  -10.4419 O   0  0  0  0  0  0  0  0  0  0  0  0
   17.1704  -23.9965   -8.9002 C   0  0  0  0  0  0  0  0  0  0  0  0
   18.5686  -23.4494   -8.9705 C   0  0  0  0  0  0  0  0  0  0  0  0
   19.0122  -22.9506   -7.6538 C   0  0  2  0  0  0  0  0  0  0  0  0
   20.3533  -22.4016   -7.6692 N   0  0  0  0  0  0  0  0  0  0  0  0
   18.9110  -23.9247   -6.5570 C   0  0  0  0  0  0  0  0  0  0  0  0
   17.7788  -24.2304   -5.8307 O   0  0  0  0  0  0  0  0  0  0  0  0
   19.9504  -24.5965   -6.1811 O   0  0  0  0  0  0  0  0  0  0  0  0
  2  3  1  0
  2  1  1  6
  3  4  1  0
  4  5  2  0
  5  6  1  0
  7  6  2  0
  8  7  1  0
  9  4  1  0
  9  8  2  0
 10 18  1  0
 10  2  1  0
 11 10  2  0
 13 12  1  0
 14 13  2  0
 15 13  1  0
 16 15  1  0
 17 16  1  1
 17 18  1  0
 19 20  2  0
 19 17  1  0
 21 22  1  0
 22 23  2  0
 24 22  1  0
 24 25  1  0
 26 25  1  6
 26 28  1  0
 26 27  1  0
 27 19  1  0
 28 29  1  0
 30 28  2  0
M  END
$$$$
