FQQ.pdb
     RDKit          3D

 30 30  0  0  1  0  0  0  0  0999 V2000
   28.7932  -20.7265   -9.1564 N   0  0  0  0  0  0  0  0  0  0  0  0
   27.3733  -20.7979   -8.8916 C   0  0  1  0  0  0  0  0  0  0  0  0
   27.0346  -19.5007   -8.1434 C   0  0  0  0  0  0  0  0  0  0  0  0
   27.5881  -19.5293   -6.7644 C   0  0  0  0  0  0  0  0  0  0  0  0
   27.3179  -20.5225   -5.8449 C   0  0  0  0  0  0  0  0  0  0  0  0
   27.8535  -20.5133   -4.5660 C   0  0  0  0  0  0  0  0  0  0  0  0
   28.6879  -19.4673   -4.2081 C   0  0  0  0  0  0  0  0  0  0  0  0
   28.9692  -18.4703   -5.1066 C   0  0  0  0  0  0  0  0  0  0  0  0
   28.4325  -18.4984   -6.3574 C   0  0  0  0  0  0  0  0  0  0  0  0
   26.6460  -20.7187  -10.1820 C   0  0  0  0  0  0  0  0  0  0  0  0
   27.1133  -19.9166  -11.0534 O   0  0  0  0  0  0  0  0  0  0  0  0
   24.7892  -25.3287  -13.8773 N   0  0  0  0  0  0  0  0  0  0  0  0
   24.2849  -24.1029  -14.4526 C   0  0  0  0  0  0  0  0  0  0  0  0
   23.8387  -24.1974  -15.6061 O   0  0  0  0  0  0  0  0  0  0  0  0
   24.3100  -22.8503  -13.7179 C   0  0  0  0  0  0  0  0  0  0  0  0
   24.8610  -22.7852  -12.3603 C   0  0  0  0  0  0  0  0  0  0  0  0
   24.8597  -21.4099  -11.7350 C   0  0  2  0  0  0  0  0  0  0  0  0
   25.4872  -21.4847  -10.4591 N   0  0  0  0  0  0  0  0  0  0  0  0
   23.5625  -20.7539  -11.8019 C   0  0  0  0  0  0  0  0  0  0  0  0
   22.7390  -20.7306  -10.8186 O   0  0  0  0  0  0  0  0  0  0  0  0
   20.8485  -15.5993  -15.1395 N   0  0  0  0  0  0  0  0  0  0  0  0
   20.2042  -16.8421  -15.2954 C   0  0  0  0  0  0  0  0  0  0  0  0
   19.5884  -17.0839  -16.3519 O   0  0  0  0  0  0  0  0  0  0  0  0
   20.3067  -17.8180  -14.1441 C   0  0  0  0  0  0  0  0  0  0  0  0
   21.6435  -18.5047  -14.1674 C   0  0  0  0  0  0  0  0  0  0  0  0
   21.7807  -19.4419  -13.0352 C   0  0  2  0  0  0  0  0  0  0  0  0
   23.0860  -20.0672  -12.9616 N   0  0  0  0  0  0  0  0  0  0  0  0
   20.7493  -20.4880  -12.9696 C   0  0  0  0  0  0  0  0  0  0  0  0
   19.5644  -20.4313  -12.2657 O   0  0  0  0  0  0  0  0  0  0  0  0
   20.9050  -21.6008  -13.6102 O   0  0  0  0  0  0  0  0  0  0  0  0
  2  3  1  0
  2  1  1  6
  3  4  1  0
  4  5  2  0
  5  6  1  0
  7  6  2  0
  8  7  1  0
  9  4  1  0
  9  8  2  0
 10 18  1  0
 10  2  1  0
 11 10  2  0
 13 12  1  0
 14 13  2  0
 15 13  1  0
 16 15  1  0
 17 16  1  1
 17 18  1  0
 19 20  2  0
 19 17  1  0
 21 22  1  0
 22 23  2  0
 24 22  1  0
 24 25  1  0
 26 25  1  6
 26 28  1  0
 26 27  1  0
 27 19  1  0
 28 29  1  0
 30 28  2  0
M  END
$$$$
