FQQ.pdb
     RDKit          3D

 30 30  0  0  1  0  0  0  0  0999 V2000
   24.8121  -19.5202  -15.2631 N   0  0  0  0  0  0  0  0  0  0  0  0
   24.2035  -20.8189  -15.0784 C   0  0  1  0  0  0  0  0  0  0  0  0
   25.1788  -21.6007  -14.1868 C   0  0  0  0  0  0  0  0  0  0  0  0
   26.3571  -22.0562  -14.9698 C   0  0  0  0  0  0  0  0  0  0  0  0
   27.5538  -21.3714  -15.0320 C   0  0  0  0  0  0  0  0  0  0  0  0
   28.6312  -21.8291  -15.7753 C   0  0  0  0  0  0  0  0  0  0  0  0
   28.4922  -23.0158  -16.4760 C   0  0  0  0  0  0  0  0  0  0  0  0
   27.3116  -23.7117  -16.4277 C   0  0  0  0  0  0  0  0  0  0  0  0
   26.2659  -23.2444  -15.6918 C   0  0  0  0  0  0  0  0  0  0  0  0
   22.9684  -20.6535  -14.2735 C   0  0  0  0  0  0  0  0  0  0  0  0
   23.0581  -19.9271  -13.2317 O   0  0  0  0  0  0  0  0  0  0  0  0
   19.0409  -17.3654  -13.6202 N   0  0  0  0  0  0  0  0  0  0  0  0
   18.1751  -18.4626  -13.2534 C   0  0  0  0  0  0  0  0  0  0  0  0
   17.2167  -18.1667  -12.5238 O   0  0  0  0  0  0  0  0  0  0  0  0
   18.4263  -19.8172  -13.7131 C   0  0  0  0  0  0  0  0  0  0  0  0
   19.6347  -20.1398  -14.4793 C   0  0  0  0  0  0  0  0  0  0  0  0
   20.5891  -21.0917  -13.7970 C   0  0  2  0  0  0  0  0  0  0  0  0
   21.7372  -21.2609  -14.6220 N   0  0  0  0  0  0  0  0  0  0  0  0
   19.9388  -22.2970  -13.3052 C   0  0  0  0  0  0  0  0  0  0  0  0
   19.6123  -23.2761  -14.0669 O   0  0  0  0  0  0  0  0  0  0  0  0
   19.2034  -24.1890   -7.3228 N   0  0  0  0  0  0  0  0  0  0  0  0
   18.6903  -25.3074   -8.0083 C   0  0  0  0  0  0  0  0  0  0  0  0
   18.3640  -26.3234   -7.3640 O   0  0  0  0  0  0  0  0  0  0  0  0
   18.5683  -25.1948   -9.5119 C   0  0  0  0  0  0  0  0  0  0  0  0
   19.0024  -23.8285   -9.9637 C   0  0  0  0  0  0  0  0  0  0  0  0
   19.0061  -23.7308  -11.4367 C   0  0  2  0  0  0  0  0  0  0  0  0
   19.6104  -22.5096  -11.9302 N   0  0  0  0  0  0  0  0  0  0  0  0
   17.6902  -23.8988  -12.0712 C   0  0  0  0  0  0  0  0  0  0  0  0
   17.1925  -25.0534  -12.6387 O   0  0  0  0  0  0  0  0  0  0  0  0
   16.8665  -22.9041  -12.1418 O   0  0  0  0  0  0  0  0  0  0  0  0
  2  3  1  0
  2  1  1  1
  3  4  1  0
  4  5  2  0
  5  6  1  0
  7  6  2  0
  8  7  1  0
  9  4  1  0
  9  8  2  0
 10 18  1  0
 10  2  1  0
 11 10  2  0
 13 12  1  0
 14 13  2  0
 15 13  1  0
 16 15  1  0
 17 16  1  6
 17 18  1  0
 19 20  2  0
 19 17  1  0
 21 22  1  0
 22 23  2  0
 24 22  1  0
 24 25  1  0
 26 25  1  1
 26 28  1  0
 26 27  1  0
 27 19  1  0
 28 29  1  0
 30 28  2  0
M  END
$$$$
