FQQ.pdb
     RDKit          3D

 30 30  0  0  1  0  0  0  0  0999 V2000
   28.3265  -21.7744  -11.0696 N   0  0  0  0  0  0  0  0  0  0  0  0
   27.0673  -21.1874  -10.6680 C   0  0  1  0  0  0  0  0  0  0  0  0
   27.4293  -19.8199  -10.0711 C   0  0  0  0  0  0  0  0  0  0  0  0
   27.8989  -19.9661   -8.6686 C   0  0  0  0  0  0  0  0  0  0  0  0
   29.2233  -20.1161   -8.3100 C   0  0  0  0  0  0  0  0  0  0  0  0
   29.6220  -20.2505   -6.9888 C   0  0  0  0  0  0  0  0  0  0  0  0
   28.6505  -20.2320   -6.0017 C   0  0  0  0  0  0  0  0  0  0  0  0
   27.3290  -20.0841   -6.3366 C   0  0  0  0  0  0  0  0  0  0  0  0
   26.9589  -19.9539   -7.6402 C   0  0  0  0  0  0  0  0  0  0  0  0
   26.2707  -20.8961  -11.8849 C   0  0  0  0  0  0  0  0  0  0  0  0
   26.9231  -20.6656  -12.9537 O   0  0  0  0  0  0  0  0  0  0  0  0
   26.1646  -24.5562  -14.8214 N   0  0  0  0  0  0  0  0  0  0  0  0
   24.8178  -24.1035  -14.5591 C   0  0  0  0  0  0  0  0  0  0  0  0
   23.9219  -24.7115  -15.1643 O   0  0  0  0  0  0  0  0  0  0  0  0
   24.5475  -23.0052  -13.6480 C   0  0  0  0  0  0  0  0  0  0  0  0
   24.5153  -21.6198  -14.1282 C   0  0  0  0  0  0  0  0  0  0  0  0
   24.1397  -20.5910  -13.0876 C   0  0  2  0  0  0  0  0  0  0  0  0
   24.8545  -20.8690  -11.8879 N   0  0  0  0  0  0  0  0  0  0  0  0
   22.7027  -20.3909  -12.9756 C   0  0  0  0  0  0  0  0  0  0  0  0
   21.9965  -20.9023  -12.0347 O   0  0  0  0  0  0  0  0  0  0  0  0
   19.5506  -15.9611  -13.7508 N   0  0  0  0  0  0  0  0  0  0  0  0
   18.3843  -16.7424  -13.8652 C   0  0  0  0  0  0  0  0  0  0  0  0
   17.2982  -16.2838  -13.4605 O   0  0  0  0  0  0  0  0  0  0  0  0
   18.5347  -18.1142  -14.4851 C   0  0  0  0  0  0  0  0  0  0  0  0
   19.9862  -18.4076  -14.7426 C   0  0  0  0  0  0  0  0  0  0  0  0
   20.5234  -19.3539  -13.7452 C   0  0  2  0  0  0  0  0  0  0  0  0
   21.9436  -19.6012  -13.8941 N   0  0  0  0  0  0  0  0  0  0  0  0
   19.8219  -20.6444  -13.6762 C   0  0  0  0  0  0  0  0  0  0  0  0
   18.8174  -20.9881  -12.7956 O   0  0  0  0  0  0  0  0  0  0  0  0
   20.1292  -21.6001  -14.4919 O   0  0  0  0  0  0  0  0  0  0  0  0
  2  3  1  0
  2  1  1  6
  3  4  1  0
  4  5  2  0
  5  6  1  0
  7  6  2  0
  8  7  1  0
  9  4  1  0
  9  8  2  0
 10 18  1  0
 10  2  1  0
 11 10  2  0
 13 12  1  0
 14 13  2  0
 15 13  1  0
 16 15  1  0
 17 16  1  6
 17 18  1  0
 19 20  2  0
 19 17  1  0
 21 22  1  0
 22 23  2  0
 24 22  1  0
 24 25  1  0
 26 25  1  6
 26 28  1  0
 26 27  1  0
 27 19  1  0
 28 29  1  0
 30 28  2  0
M  END
$$$$
