FQQ.pdb
     RDKit          3D

 30 30  0  0  1  0  0  0  0  0999 V2000
   26.4883  -24.0456  -16.9923 N   0  0  0  0  0  0  0  0  0  0  0  0
   26.0586  -25.2347  -16.2903 C   0  0  1  0  0  0  0  0  0  0  0  0
   24.5250  -25.2156  -16.3613 C   0  0  0  0  0  0  0  0  0  0  0  0
   23.9771  -24.0697  -15.5895 C   0  0  0  0  0  0  0  0  0  0  0  0
   24.0537  -23.9573  -14.2160 C   0  0  0  0  0  0  0  0  0  0  0  0
   23.5290  -22.8717  -13.5314 C   0  0  0  0  0  0  0  0  0  0  0  0
   22.9086  -21.8701  -14.2598 C   0  0  0  0  0  0  0  0  0  0  0  0
   22.8217  -21.9624  -15.6252 C   0  0  0  0  0  0  0  0  0  0  0  0
   23.3435  -23.0372  -16.2778 C   0  0  0  0  0  0  0  0  0  0  0  0
   26.4818  -26.4239  -17.0694 C   0  0  0  0  0  0  0  0  0  0  0  0
   27.0762  -26.2023  -18.1733 O   0  0  0  0  0  0  0  0  0  0  0  0
   31.4080  -28.2863  -16.9510 N   0  0  0  0  0  0  0  0  0  0  0  0
   30.7828  -29.3957  -17.6337 C   0  0  0  0  0  0  0  0  0  0  0  0
   31.5603  -30.2301  -18.1214 O   0  0  0  0  0  0  0  0  0  0  0  0
   29.3387  -29.5099  -17.7373 C   0  0  0  0  0  0  0  0  0  0  0  0
   28.4579  -28.5467  -17.0683 C   0  0  0  0  0  0  0  0  0  0  0  0
   26.9805  -28.8355  -17.1960 C   0  0  2  0  0  0  0  0  0  0  0  0
   26.2500  -27.7511  -16.6322 N   0  0  0  0  0  0  0  0  0  0  0  0
   26.6217  -30.1774  -16.7622 C   0  0  0  0  0  0  0  0  0  0  0  0
   26.8721  -30.6223  -15.5854 O   0  0  0  0  0  0  0  0  0  0  0  0
   22.7847  -31.6219  -14.1782 N   0  0  0  0  0  0  0  0  0  0  0  0
   22.9444  -32.4893  -15.2764 C   0  0  0  0  0  0  0  0  0  0  0  0
   22.9059  -33.7218  -15.0935 O   0  0  0  0  0  0  0  0  0  0  0  0
   23.1564  -31.8503  -16.6311 C   0  0  0  0  0  0  0  0  0  0  0  0
   24.0834  -32.6944  -17.4602 C   0  0  0  0  0  0  0  0  0  0  0  0
   25.4952  -32.4162  -17.1305 C   0  0  2  0  0  0  0  0  0  0  0  0
   25.9505  -31.1225  -17.5988 N   0  0  0  0  0  0  0  0  0  0  0  0
   26.4484  -33.4439  -17.5750 C   0  0  0  0  0  0  0  0  0  0  0  0
   26.8065  -34.5851  -16.8880 O   0  0  0  0  0  0  0  0  0  0  0  0
   27.0508  -33.3283  -18.7137 O   0  0  0  0  0  0  0  0  0  0  0  0
  2  3  1  0
  2  1  1  6
  3  4  1  0
  4  5  2  0
  5  6  1  0
  7  6  2  0
  8  7  1  0
  9  4  1  0
  9  8  2  0
 10 18  1  0
 10  2  1  0
 11 10  2  0
 13 12  1  0
 14 13  2  0
 15 13  1  0
 16 15  1  0
 17 16  1  1
 17 18  1  0
 19 20  2  0
 19 17  1  0
 21 22  1  0
 22 23  2  0
 24 22  1  0
 24 25  1  0
 26 25  1  6
 26 28  1  0
 26 27  1  0
 27 19  1  0
 28 29  1  0
 30 28  2  0
M  END
$$$$
