FQQ.pdb
     RDKit          3D

 30 30  0  0  1  0  0  0  0  0999 V2000
   27.9065  -21.1541  -14.3927 N   0  0  0  0  0  0  0  0  0  0  0  0
   26.9385  -21.3254  -13.3321 C   0  0  1  0  0  0  0  0  0  0  0  0
   27.2632  -20.2305  -12.3059 C   0  0  0  0  0  0  0  0  0  0  0  0
   28.5033  -20.5628  -11.5571 C   0  0  0  0  0  0  0  0  0  0  0  0
   29.7626  -20.1286  -11.9184 C   0  0  0  0  0  0  0  0  0  0  0  0
   30.8968  -20.4610  -11.1935 C   0  0  0  0  0  0  0  0  0  0  0  0
   30.7510  -21.2566  -10.0691 C   0  0  0  0  0  0  0  0  0  0  0  0
   29.5087  -21.6987   -9.6928 C   0  0  0  0  0  0  0  0  0  0  0  0
   28.4079  -21.3608  -10.4189 C   0  0  0  0  0  0  0  0  0  0  0  0
   25.5926  -20.9939  -13.8606 C   0  0  0  0  0  0  0  0  0  0  0  0
   25.5236  -20.0212  -14.6791 O   0  0  0  0  0  0  0  0  0  0  0  0
   23.7120  -25.2636  -15.9934 N   0  0  0  0  0  0  0  0  0  0  0  0
   22.9619  -25.1475  -14.7639 C   0  0  0  0  0  0  0  0  0  0  0  0
   22.7211  -26.2159  -14.1815 O   0  0  0  0  0  0  0  0  0  0  0  0
   22.5223  -23.8587  -14.2589 C   0  0  0  0  0  0  0  0  0  0  0  0
   22.8135  -22.6234  -14.9940 C   0  0  0  0  0  0  0  0  0  0  0  0
   23.1825  -21.4386  -14.1324 C   0  0  2  0  0  0  0  0  0  0  0  0
   24.4254  -21.7062  -13.4912 N   0  0  0  0  0  0  0  0  0  0  0  0
   22.0856  -20.9792  -13.2938 C   0  0  0  0  0  0  0  0  0  0  0  0
   22.1924  -20.8256  -12.0247 O   0  0  0  0  0  0  0  0  0  0  0  0
   20.2102  -16.7839  -16.1431 N   0  0  0  0  0  0  0  0  0  0  0  0
   19.8719  -16.1795  -14.9167 C   0  0  0  0  0  0  0  0  0  0  0  0
   19.2831  -15.0809  -14.9176 O   0  0  0  0  0  0  0  0  0  0  0  0
   20.2556  -16.9225  -13.6560 C   0  0  0  0  0  0  0  0  0  0  0  0
   20.9366  -18.2158  -14.0064 C   0  0  0  0  0  0  0  0  0  0  0  0
   20.1423  -19.3754  -13.5552 C   0  0  2  0  0  0  0  0  0  0  0  0
   20.7912  -20.6475  -13.8018 N   0  0  0  0  0  0  0  0  0  0  0  0
   18.7722  -19.4310  -14.0861 C   0  0  0  0  0  0  0  0  0  0  0  0
   18.3920  -19.8750  -15.3356 O   0  0  0  0  0  0  0  0  0  0  0  0
   17.7744  -19.0368  -13.3636 O   0  0  0  0  0  0  0  0  0  0  0  0
  2  3  1  0
  2  1  1  6
  3  4  1  0
  4  5  2  0
  5  6  1  0
  7  6  2  0
  8  7  1  0
  9  4  1  0
  9  8  2  0
 10 18  1  0
 10  2  1  0
 11 10  2  0
 13 12  1  0
 14 13  2  0
 15 13  1  0
 16 15  1  0
 17 16  1  1
 17 18  1  0
 19 20  2  0
 19 17  1  0
 21 22  1  0
 22 23  2  0
 24 22  1  0
 24 25  1  0
 26 25  1  6
 26 28  1  0
 26 27  1  0
 27 19  1  0
 28 29  1  0
 30 28  2  0
M  END
$$$$
