ADY.pdb
     RDKit          3D

 26 26  0  0  1  0  0  0  0  0999 V2000
   28.0182  -17.9557  -21.2456 C   0  0  0  0  0  0  0  0  0  0  0  0
   27.5295  -19.1029  -20.4201 C   0  0  2  0  0  0  0  0  0  0  0  0
   26.9604  -20.1863  -21.1477 N   0  0  0  0  0  0  0  0  0  0  0  0
   26.6024  -18.5669  -19.3443 C   0  0  0  0  0  0  0  0  0  0  0  0
   27.0469  -17.6234  -18.6886 O   0  0  0  0  0  0  0  0  0  0  0  0
   25.3482  -19.1113  -19.1277 N   0  0  0  0  0  0  0  0  0  0  0  0
   24.3576  -18.7214  -18.1930 C   0  0  1  0  0  0  0  0  0  0  0  0
   23.0093  -18.3229  -18.7075 C   0  0  0  0  0  0  0  0  0  0  0  0
   22.2185  -19.5314  -19.0108 C   0  0  0  0  0  0  0  0  0  0  0  0
   21.2791  -19.8795  -18.2184 O   0  0  0  0  0  0  0  0  0  0  0  0
   24.3742  -19.4649  -16.9326 C   0  0  0  0  0  0  0  0  0  0  0  0
   24.5930  -20.7318  -16.9612 O   0  0  0  0  0  0  0  0  0  0  0  0
   22.4281  -20.3340  -20.1221 O   0  0  0  0  0  0  0  0  0  0  0  0
   25.0848  -21.7001   -8.4590 O   0  0  0  0  0  0  0  0  0  0  0  0
   25.1379  -21.1331   -9.7148 C   0  0  0  0  0  0  0  0  0  0  0  0
   25.9620  -21.6527  -10.7060 C   0  0  0  0  0  0  0  0  0  0  0  0
   25.9977  -21.0680  -11.9540 C   0  0  0  0  0  0  0  0  0  0  0  0
   25.2272  -19.9662  -12.2508 C   0  0  0  0  0  0  0  0  0  0  0  0
   25.2563  -19.3330  -13.5746 C   0  0  0  0  0  0  0  0  0  0  0  0
   24.1540  -19.7574  -14.4897 C   0  0  2  0  0  0  0  0  0  0  0  0
   24.1647  -18.8915  -15.6553 N   0  0  0  0  0  0  0  0  0  0  0  0
   22.8124  -19.7925  -13.8553 C   0  0  0  0  0  0  0  0  0  0  0  0
   21.9573  -18.7220  -13.9735 O   0  0  0  0  0  0  0  0  0  0  0  0
   24.4146  -19.4597  -11.2618 C   0  0  0  0  0  0  0  0  0  0  0  0
   24.3585  -20.0217  -10.0086 C   0  0  0  0  0  0  0  0  0  0  0  0
   22.4512  -20.7992  -13.2081 O   0  0  0  0  0  0  0  0  0  0  0  0
  2  3  1  0
  2  1  1  6
  4  2  1  0
  5  4  2  0
  6  4  1  0
  7  6  1  0
  7  8  1  6
  9  8  1  0
  9 10  2  0
 11  7  1  0
 11 21  1  0
 12 11  2  0
 13  9  1  0
 15 14  1  0
 16 15  2  0
 17 16  1  0
 18 24  1  0
 18 17  2  0
 19 18  1  0
 20 19  1  1
 20 21  1  0
 20 22  1  0
 22 26  2  0
 22 23  1  0
 24 25  2  0
 25 15  1  0
M  END
$$$$
