ADY.pdb
     RDKit          3D

 26 26  0  0  1  0  0  0  0  0999 V2000
   21.9056  -18.5605  -17.6849 C   0  0  0  0  0  0  0  0  0  0  0  0
   23.1498  -18.3080  -16.8944 C   0  0  2  0  0  0  0  0  0  0  0  0
   24.0755  -17.3973  -17.4781 N   0  0  0  0  0  0  0  0  0  0  0  0
   23.7814  -19.6429  -16.5433 C   0  0  0  0  0  0  0  0  0  0  0  0
   22.9875  -20.5522  -16.2965 O   0  0  0  0  0  0  0  0  0  0  0  0
   25.1550  -19.8106  -16.5074 N   0  0  0  0  0  0  0  0  0  0  0  0
   25.9037  -20.9390  -16.0912 C   0  0  1  0  0  0  0  0  0  0  0  0
   27.1315  -21.3050  -16.8659 C   0  0  0  0  0  0  0  0  0  0  0  0
   27.7119  -22.5455  -16.3162 C   0  0  0  0  0  0  0  0  0  0  0  0
   26.9398  -23.4221  -15.7996 O   0  0  0  0  0  0  0  0  0  0  0  0
   25.9729  -21.1312  -14.6421 C   0  0  0  0  0  0  0  0  0  0  0  0
   26.9726  -20.6428  -13.9974 O   0  0  0  0  0  0  0  0  0  0  0  0
   29.0684  -22.8332  -16.3219 O   0  0  0  0  0  0  0  0  0  0  0  0
   26.4959  -19.8173   -6.5035 O   0  0  0  0  0  0  0  0  0  0  0  0
   26.4399  -20.0693   -7.8581 C   0  0  0  0  0  0  0  0  0  0  0  0
   27.4557  -19.6541   -8.7110 C   0  0  0  0  0  0  0  0  0  0  0  0
   27.3769  -19.9179  -10.0619 C   0  0  0  0  0  0  0  0  0  0  0  0
   26.3029  -20.5922  -10.5982 C   0  0  0  0  0  0  0  0  0  0  0  0
   26.2055  -20.8786  -12.0345 C   0  0  0  0  0  0  0  0  0  0  0  0
   24.9716  -21.6187  -12.4372 C   0  0  2  0  0  0  0  0  0  0  0  0
   25.0080  -21.8262  -13.8739 N   0  0  0  0  0  0  0  0  0  0  0  0
   23.7047  -20.9688  -12.0173 C   0  0  0  0  0  0  0  0  0  0  0  0
   23.2388  -21.1154  -10.7318 O   0  0  0  0  0  0  0  0  0  0  0  0
   25.3026  -20.9987   -9.7446 C   0  0  0  0  0  0  0  0  0  0  0  0
   25.3541  -20.7497   -8.3937 C   0  0  0  0  0  0  0  0  0  0  0  0
   23.0523  -20.2817  -12.8328 O   0  0  0  0  0  0  0  0  0  0  0  0
  2  3  1  0
  2  1  1  6
  4  2  1  0
  5  4  2  0
  6  4  1  0
  7  6  1  0
  7  8  1  1
  9  8  1  0
  9 10  2  0
 11  7  1  0
 11 21  1  0
 12 11  2  0
 13  9  1  0
 15 14  1  0
 16 15  2  0
 17 16  1  0
 18 24  1  0
 18 17  2  0
 19 18  1  0
 20 19  1  6
 20 21  1  0
 20 22  1  0
 22 26  2  0
 22 23  1  0
 24 25  2  0
 25 15  1  0
M  END
$$$$
