ADY.pdb
     RDKit          3D

 26 26  0  0  1  0  0  0  0  0999 V2000
   20.6689  -15.9248  -17.7336 C   0  0  0  0  0  0  0  0  0  0  0  0
   21.5140  -17.1564  -17.6586 C   0  0  2  0  0  0  0  0  0  0  0  0
   21.1155  -18.2287  -18.5062 N   0  0  0  0  0  0  0  0  0  0  0  0
   21.6378  -17.5726  -16.2040 C   0  0  0  0  0  0  0  0  0  0  0  0
   21.9319  -16.6680  -15.4210 O   0  0  0  0  0  0  0  0  0  0  0  0
   21.4315  -18.8809  -15.8019 N   0  0  0  0  0  0  0  0  0  0  0  0
   21.4970  -19.4328  -14.4987 C   0  0  1  0  0  0  0  0  0  0  0  0
   20.3130  -20.1918  -13.9856 C   0  0  0  0  0  0  0  0  0  0  0  0
   19.1875  -19.2631  -13.7652 C   0  0  0  0  0  0  0  0  0  0  0  0
   19.3054  -18.3317  -12.8993 O   0  0  0  0  0  0  0  0  0  0  0  0
   22.8114  -19.9491  -14.1145 C   0  0  0  0  0  0  0  0  0  0  0  0
   23.4431  -20.7125  -14.9340 O   0  0  0  0  0  0  0  0  0  0  0  0
   17.9830  -19.3319  -14.4489 O   0  0  0  0  0  0  0  0  0  0  0  0
   30.5928  -21.3271  -10.2032 O   0  0  0  0  0  0  0  0  0  0  0  0
   29.3466  -20.8576  -10.5612 C   0  0  0  0  0  0  0  0  0  0  0  0
   29.1763  -20.0397  -11.6719 C   0  0  0  0  0  0  0  0  0  0  0  0
   27.9200  -19.5829  -12.0093 C   0  0  0  0  0  0  0  0  0  0  0  0
   26.8118  -19.9199  -11.2652 C   0  0  0  0  0  0  0  0  0  0  0  0
   25.4689  -19.4397  -11.6123 C   0  0  0  0  0  0  0  0  0  0  0  0
   24.7531  -20.2756  -12.6229 C   0  0  2  0  0  0  0  0  0  0  0  0
   23.4596  -19.6709  -12.8870 N   0  0  0  0  0  0  0  0  0  0  0  0
   24.6142  -21.7047  -12.2459 C   0  0  0  0  0  0  0  0  0  0  0  0
   25.5702  -22.6201  -12.6191 O   0  0  0  0  0  0  0  0  0  0  0  0
   26.9919  -20.7304  -10.1672 C   0  0  0  0  0  0  0  0  0  0  0  0
   28.2322  -21.2006   -9.8067 C   0  0  0  0  0  0  0  0  0  0  0  0
   23.6241  -22.0852  -11.5843 O   0  0  0  0  0  0  0  0  0  0  0  0
  2  3  1  0
  2  1  1  1
  4  2  1  0
  5  4  2  0
  6  4  1  0
  7  6  1  0
  7  8  1  6
  9  8  1  0
  9 10  2  0
 11  7  1  0
 11 21  1  0
 12 11  2  0
 13  9  1  0
 15 14  1  0
 16 15  2  0
 17 16  1  0
 18 24  1  0
 18 17  2  0
 19 18  1  0
 20 19  1  1
 20 21  1  0
 20 22  1  0
 22 26  2  0
 22 23  1  0
 24 25  2  0
 25 15  1  0
M  END
$$$$
