ADY.pdb
     RDKit          3D

 26 26  0  0  1  0  0  0  0  0999 V2000
   14.7700  -19.9847  -17.8397 C   0  0  0  0  0  0  0  0  0  0  0  0
   16.2048  -19.7071  -17.5223 C   0  0  2  0  0  0  0  0  0  0  0  0
   16.9063  -20.7614  -16.8717 N   0  0  0  0  0  0  0  0  0  0  0  0
   16.2897  -18.3924  -16.7682 C   0  0  0  0  0  0  0  0  0  0  0  0
   15.4040  -17.5772  -17.0301 O   0  0  0  0  0  0  0  0  0  0  0  0
   17.2982  -18.1426  -15.8534 N   0  0  0  0  0  0  0  0  0  0  0  0
   17.5408  -16.9721  -15.0931 C   0  0  1  0  0  0  0  0  0  0  0  0
   18.1614  -17.1178  -13.7385 C   0  0  0  0  0  0  0  0  0  0  0  0
   17.4644  -18.1791  -12.9864 C   0  0  0  0  0  0  0  0  0  0  0  0
   16.2092  -18.0744  -12.7745 O   0  0  0  0  0  0  0  0  0  0  0  0
   17.9596  -15.8072  -15.8737 C   0  0  0  0  0  0  0  0  0  0  0  0
   18.8895  -15.9482  -16.7506 O   0  0  0  0  0  0  0  0  0  0  0  0
   18.0912  -19.3088  -12.4826 O   0  0  0  0  0  0  0  0  0  0  0  0
   18.3519  -10.1304  -22.1171 O   0  0  0  0  0  0  0  0  0  0  0  0
   18.1521  -11.0720  -21.1298 C   0  0  0  0  0  0  0  0  0  0  0  0
   19.0911  -12.0660  -20.8811 C   0  0  0  0  0  0  0  0  0  0  0  0
   18.8685  -12.9963  -19.8883 C   0  0  0  0  0  0  0  0  0  0  0  0
   17.7237  -12.9675  -19.1238 C   0  0  0  0  0  0  0  0  0  0  0  0
   17.4733  -13.9523  -18.0646 C   0  0  0  0  0  0  0  0  0  0  0  0
   17.8061  -13.4797  -16.6868 C   0  0  2  0  0  0  0  0  0  0  0  0
   17.4129  -14.5081  -15.7401 N   0  0  0  0  0  0  0  0  0  0  0  0
   17.2151  -12.1649  -16.3323 C   0  0  0  0  0  0  0  0  0  0  0  0
   17.7529  -11.0016  -16.8311 O   0  0  0  0  0  0  0  0  0  0  0  0
   16.8004  -11.9789  -19.3785 C   0  0  0  0  0  0  0  0  0  0  0  0
   16.9954  -11.0383  -20.3617 C   0  0  0  0  0  0  0  0  0  0  0  0
   16.2214  -12.1077  -15.5759 O   0  0  0  0  0  0  0  0  0  0  0  0
  2  3  1  0
  2  1  1  1
  4  2  1  0
  5  4  2  0
  6  4  1  0
  7  6  1  0
  7  8  1  1
  9  8  1  0
  9 10  2  0
 11  7  1  0
 11 21  1  0
 12 11  2  0
 13  9  1  0
 15 14  1  0
 16 15  2  0
 17 16  1  0
 18 24  1  0
 18 17  2  0
 19 18  1  0
 20 19  1  6
 20 21  1  0
 20 22  1  0
 22 26  2  0
 22 23  1  0
 24 25  2  0
 25 15  1  0
M  END
$$$$
