ADY.pdb
     RDKit          3D

 26 26  0  0  1  0  0  0  0  0999 V2000
   28.4659  -18.8555  -16.4088 C   0  0  0  0  0  0  0  0  0  0  0  0
   27.3833  -19.5294  -17.1900 C   0  0  2  0  0  0  0  0  0  0  0  0
   27.0392  -18.9104  -18.4251 N   0  0  0  0  0  0  0  0  0  0  0  0
   26.1844  -19.7341  -16.2817 C   0  0  0  0  0  0  0  0  0  0  0  0
   25.4887  -18.7345  -16.0951 O   0  0  0  0  0  0  0  0  0  0  0  0
   25.9060  -20.9640  -15.7109 N   0  0  0  0  0  0  0  0  0  0  0  0
   24.8953  -21.3047  -14.7785 C   0  0  1  0  0  0  0  0  0  0  0  0
   23.7822  -22.1990  -15.2286 C   0  0  0  0  0  0  0  0  0  0  0  0
   22.7291  -22.2368  -14.1955 C   0  0  0  0  0  0  0  0  0  0  0  0
   22.6632  -23.2385  -13.4058 O   0  0  0  0  0  0  0  0  0  0  0  0
   25.3643  -21.4979  -13.4058 C   0  0  0  0  0  0  0  0  0  0  0  0
   26.0251  -22.5630  -13.1188 O   0  0  0  0  0  0  0  0  0  0  0  0
   21.7846  -21.2373  -14.0172 O   0  0  0  0  0  0  0  0  0  0  0  0
   28.6943  -20.1880   -5.4295 O   0  0  0  0  0  0  0  0  0  0  0  0
   28.2529  -20.1617   -6.7356 C   0  0  0  0  0  0  0  0  0  0  0  0
   28.8368  -20.9624   -7.7100 C   0  0  0  0  0  0  0  0  0  0  0  0
   28.3778  -20.9182   -9.0092 C   0  0  0  0  0  0  0  0  0  0  0  0
   27.3403  -20.0898   -9.3743 C   0  0  0  0  0  0  0  0  0  0  0  0
   26.8426  -20.0317  -10.7538 C   0  0  0  0  0  0  0  0  0  0  0  0
   25.6640  -20.9090  -11.0256 C   0  0  2  0  0  0  0  0  0  0  0  0
   25.1457  -20.5879  -12.3435 N   0  0  0  0  0  0  0  0  0  0  0  0
   24.5986  -20.8381   -9.9943 C   0  0  0  0  0  0  0  0  0  0  0  0
   24.7013  -21.5700   -8.8346 O   0  0  0  0  0  0  0  0  0  0  0  0
   26.7694  -19.3010   -8.4013 C   0  0  0  0  0  0  0  0  0  0  0  0
   27.2061  -19.3240   -7.0982 C   0  0  0  0  0  0  0  0  0  0  0  0
   23.5989  -20.1097  -10.1748 O   0  0  0  0  0  0  0  0  0  0  0  0
  2  3  1  0
  2  1  1  1
  4  2  1  0
  5  4  2  0
  6  4  1  0
  7  6  1  0
  7  8  1  6
  9  8  1  0
  9 10  2  0
 11  7  1  0
 11 21  1  0
 12 11  2  0
 13  9  1  0
 15 14  1  0
 16 15  2  0
 17 16  1  0
 18 24  1  0
 18 17  2  0
 19 18  1  0
 20 19  1  1
 20 21  1  0
 20 22  1  0
 22 26  2  0
 22 23  1  0
 24 25  2  0
 25 15  1  0
M  END
$$$$
