ADY.pdb
     RDKit          3D

 26 26  0  0  1  0  0  0  0  0999 V2000
   22.6449   -9.6031  -18.5829 C   0  0  0  0  0  0  0  0  0  0  0  0
   21.4994  -10.4954  -18.9409 C   0  0  2  0  0  0  0  0  0  0  0  0
   20.5153   -9.9211  -19.7946 N   0  0  0  0  0  0  0  0  0  0  0  0
   20.9087  -11.0637  -17.6632 C   0  0  0  0  0  0  0  0  0  0  0  0
   21.7099  -11.6345  -16.9214 O   0  0  0  0  0  0  0  0  0  0  0  0
   19.5622  -10.9408  -17.3670 N   0  0  0  0  0  0  0  0  0  0  0  0
   18.8387  -11.4754  -16.2725 C   0  0  1  0  0  0  0  0  0  0  0  0
   17.5693  -10.7986  -15.8582 C   0  0  0  0  0  0  0  0  0  0  0  0
   17.8526   -9.3978  -15.4904 C   0  0  0  0  0  0  0  0  0  0  0  0
   17.4380   -8.4562  -16.2473 O   0  0  0  0  0  0  0  0  0  0  0  0
   18.8519  -12.9360  -16.1808 C   0  0  0  0  0  0  0  0  0  0  0  0
   18.6936  -13.6275  -17.2533 O   0  0  0  0  0  0  0  0  0  0  0  0
   18.5531   -9.0233  -14.3538 O   0  0  0  0  0  0  0  0  0  0  0  0
   20.2653  -20.5860  -11.9219 O   0  0  0  0  0  0  0  0  0  0  0  0
   20.2974  -19.3436  -12.5192 C   0  0  0  0  0  0  0  0  0  0  0  0
   20.0061  -18.1904  -11.8002 C   0  0  0  0  0  0  0  0  0  0  0  0
   20.0448  -16.9595  -12.4200 C   0  0  0  0  0  0  0  0  0  0  0  0
   20.3695  -16.8387  -13.7525 C   0  0  0  0  0  0  0  0  0  0  0  0
   20.4134  -15.5350  -14.4252 C   0  0  0  0  0  0  0  0  0  0  0  0
   19.1220  -15.1145  -15.0482 C   0  0  2  0  0  0  0  0  0  0  0  0
   19.0288  -13.6670  -14.9813 N   0  0  0  0  0  0  0  0  0  0  0  0
   17.9213  -15.7607  -14.4611 C   0  0  0  0  0  0  0  0  0  0  0  0
   17.5602  -17.0331  -14.8376 O   0  0  0  0  0  0  0  0  0  0  0  0
   20.6562  -17.9872  -14.4552 C   0  0  0  0  0  0  0  0  0  0  0  0
   20.6254  -19.2277  -13.8638 C   0  0  0  0  0  0  0  0  0  0  0  0
   17.2297  -15.1496  -13.6179 O   0  0  0  0  0  0  0  0  0  0  0  0
  2  3  1  0
  2  1  1  1
  4  2  1  0
  5  4  2  0
  6  4  1  0
  7  6  1  0
  7  8  1  6
  9  8  1  0
  9 10  2  0
 11  7  1  0
 11 21  1  0
 12 11  2  0
 13  9  1  0
 15 14  1  0
 16 15  2  0
 17 16  1  0
 18 24  1  0
 18 17  2  0
 19 18  1  0
 20 19  1  1
 20 21  1  0
 20 22  1  0
 22 26  2  0
 22 23  1  0
 24 25  2  0
 25 15  1  0
M  END
$$$$
