LFF.pdb
     RDKit          3D

 31 32  0  0  1  0  0  0  0  0999 V2000
    7.7002  -23.0576   24.1336 C   0  0  0  0  0  0  0  0  0  0  0  0
    6.8060  -22.1164   23.3082 C   0  0  1  0  0  0  0  0  0  0  0  0
    5.4933  -22.0546   24.0099 C   0  0  0  0  0  0  0  0  0  0  0  0
    7.5527  -20.8415   23.1869 C   0  0  0  0  0  0  0  0  0  0  0  0
    6.8659  -19.7316   22.4548 C   0  0  2  0  0  0  0  0  0  0  0  0
    6.0249  -20.1170   21.3763 N   0  0  0  0  0  0  0  0  0  0  0  0
    7.7820  -18.6651   22.0169 C   0  0  0  0  0  0  0  0  0  0  0  0
    8.8943  -18.8769   21.4710 O   0  0  0  0  0  0  0  0  0  0  0  0
    7.4045  -17.3153   22.2144 N   0  0  0  0  0  0  0  0  0  0  0  0
    8.2451  -16.2098   21.7693 C   0  0  1  0  0  0  0  0  0  0  0  0
    7.3846  -14.9785   21.5721 C   0  0  0  0  0  0  0  0  0  0  0  0
    7.2016  -14.1892   22.7967 C   0  0  0  0  0  0  0  0  0  0  0  0
    7.7173  -12.8984   22.8289 C   0  0  0  0  0  0  0  0  0  0  0  0
    7.5595  -12.1253   23.9573 C   0  0  0  0  0  0  0  0  0  0  0  0
    6.8903  -12.6485   25.0376 C   0  0  0  0  0  0  0  0  0  0  0  0
    6.3826  -13.9342   24.9912 C   0  0  0  0  0  0  0  0  0  0  0  0
    6.5321  -14.7310   23.8593 C   0  0  0  0  0  0  0  0  0  0  0  0
    9.3155  -16.0000   22.7735 C   0  0  0  0  0  0  0  0  0  0  0  0
   10.3201  -15.2820   22.5361 O   0  0  0  0  0  0  0  0  0  0  0  0
    9.2448  -16.6095   24.0557 N   0  0  0  0  0  0  0  0  0  0  0  0
    9.9925  -16.0169   25.1785 C   0  0  1  0  0  0  0  0  0  0  0  0
    9.0543  -16.0431   26.3399 C   0  0  0  0  0  0  0  0  0  0  0  0
    9.6771  -15.4779   27.5347 C   0  0  0  0  0  0  0  0  0  0  0  0
   10.4673  -16.2033   28.4065 C   0  0  0  0  0  0  0  0  0  0  0  0
   11.0265  -15.5802   29.4930 C   0  0  0  0  0  0  0  0  0  0  0  0
   10.8307  -14.2394   29.7566 C   0  0  0  0  0  0  0  0  0  0  0  0
   10.0505  -13.5246   28.8949 C   0  0  0  0  0  0  0  0  0  0  0  0
    9.4850  -14.1315   27.8055 C   0  0  0  0  0  0  0  0  0  0  0  0
   11.1608  -16.8704   25.4554 C   0  0  0  0  0  0  0  0  0  0  0  0
   11.0615  -18.2464   25.2973 O   0  0  0  0  0  0  0  0  0  0  0  0
   12.2474  -16.4059   25.8300 O   0  0  0  0  0  0  0  0  0  0  0  0
  2  1  1  1
  3  2  1  0
  4  5  1  0
  4  2  1  0
  5  7  1  0
  5  6  1  6
  7  8  2  0
  9 10  1  0
  9  7  1  0
 11 12  1  0
 10 11  1  1
 12 17  2  0
 13 14  2  0
 13 12  1  0
 14 15  1  0
 15 16  2  0
 17 16  1  0
 18 20  1  0
 18 10  1  0
 19 18  2  0
 21 20  1  0
 21 22  1  1
 23 22  1  0
 23 24  2  0
 25 24  1  0
 26 25  2  0
 27 28  2  0
 27 26  1  0
 28 23  1  0
 29 21  1  0
 30 29  1  0
 31 29  2  0
M  END
$$$$
