LFF.pdb
     RDKit          3D

 31 32  0  0  1  0  0  0  0  0999 V2000
    8.1989  -13.0160   17.6884 C   0  0  0  0  0  0  0  0  0  0  0  0
    7.9703  -14.3503   18.4192 C   0  0  1  0  0  0  0  0  0  0  0  0
    7.2319  -15.2318   17.4720 C   0  0  0  0  0  0  0  0  0  0  0  0
    9.3093  -14.8171   18.8512 C   0  0  0  0  0  0  0  0  0  0  0  0
    9.3398  -15.8583   19.9257 C   0  0  2  0  0  0  0  0  0  0  0  0
    8.2712  -16.7948   19.9228 N   0  0  0  0  0  0  0  0  0  0  0  0
    9.5097  -15.2992   21.2772 C   0  0  0  0  0  0  0  0  0  0  0  0
   10.4260  -14.4995   21.5949 O   0  0  0  0  0  0  0  0  0  0  0  0
    8.5966  -15.6734   22.2921 N   0  0  0  0  0  0  0  0  0  0  0  0
    8.4643  -14.9079   23.5263 C   0  0  1  0  0  0  0  0  0  0  0  0
    7.0626  -15.0851   24.0737 C   0  0  0  0  0  0  0  0  0  0  0  0
    6.6908  -14.0736   25.0709 C   0  0  0  0  0  0  0  0  0  0  0  0
    5.8834  -14.4647   26.1332 C   0  0  0  0  0  0  0  0  0  0  0  0
    5.5194  -13.5458   27.0919 C   0  0  0  0  0  0  0  0  0  0  0  0
    5.9645  -12.2505   26.9792 C   0  0  0  0  0  0  0  0  0  0  0  0
    6.7673  -11.8759   25.9170 C   0  0  0  0  0  0  0  0  0  0  0  0
    7.1458  -12.7906   24.9381 C   0  0  0  0  0  0  0  0  0  0  0  0
    9.5071  -15.3644   24.4761 C   0  0  0  0  0  0  0  0  0  0  0  0
   10.5218  -14.6688   24.7363 O   0  0  0  0  0  0  0  0  0  0  0  0
    9.3972  -16.6192   25.1350 N   0  0  0  0  0  0  0  0  0  0  0  0
   10.5645  -17.1628   25.8512 C   0  0  1  0  0  0  0  0  0  0  0  0
   10.1865  -17.1516   27.2957 C   0  0  0  0  0  0  0  0  0  0  0  0
   10.3333  -15.8160   27.8697 C   0  0  0  0  0  0  0  0  0  0  0  0
   11.5416  -15.2826   28.2771 C   0  0  0  0  0  0  0  0  0  0  0  0
   11.5835  -14.0098   28.7867 C   0  0  0  0  0  0  0  0  0  0  0  0
   10.4531  -13.2274   28.9117 C   0  0  0  0  0  0  0  0  0  0  0  0
    9.2610  -13.7553   28.5088 C   0  0  0  0  0  0  0  0  0  0  0  0
    9.2020  -15.0243   27.9978 C   0  0  0  0  0  0  0  0  0  0  0  0
   10.7794  -18.5477   25.3975 C   0  0  0  0  0  0  0  0  0  0  0  0
    9.8855  -19.1271   24.5066 O   0  0  0  0  0  0  0  0  0  0  0  0
   11.7398  -19.2302   25.7829 O   0  0  0  0  0  0  0  0  0  0  0  0
  2  1  1  6
  3  2  1  0
  4  5  1  0
  4  2  1  0
  5  7  1  0
  5  6  1  1
  7  8  2  0
  9 10  1  0
  9  7  1  0
 11 12  1  0
 10 11  1  1
 12 17  2  0
 13 14  2  0
 13 12  1  0
 14 15  1  0
 15 16  2  0
 17 16  1  0
 18 20  1  0
 18 10  1  0
 19 18  2  0
 21 20  1  0
 21 22  1  1
 23 22  1  0
 23 24  2  0
 25 24  1  0
 26 25  2  0
 27 28  2  0
 27 26  1  0
 28 23  1  0
 29 21  1  0
 30 29  1  0
 31 29  2  0
M  END
$$$$
