LFF.pdb
     RDKit          3D

 31 32  0  0  1  0  0  0  0  0999 V2000
    8.2867  -21.1504   17.2924 C   0  0  0  0  0  0  0  0  0  0  0  0
    7.8560  -21.1100   18.7687 C   0  0  1  0  0  0  0  0  0  0  0  0
    8.0841  -22.4772   19.3149 C   0  0  0  0  0  0  0  0  0  0  0  0
    8.6295  -20.0101   19.3927 C   0  0  0  0  0  0  0  0  0  0  0  0
    8.3966  -19.7731   20.8519 C   0  0  2  0  0  0  0  0  0  0  0  0
    7.2005  -20.3167   21.3931 N   0  0  0  0  0  0  0  0  0  0  0  0
    8.5235  -18.3591   21.2423 C   0  0  0  0  0  0  0  0  0  0  0  0
    9.2676  -17.5337   20.6549 O   0  0  0  0  0  0  0  0  0  0  0  0
    7.7705  -17.8829   22.3424 N   0  0  0  0  0  0  0  0  0  0  0  0
    7.9895  -16.5559   22.9060 C   0  0  1  0  0  0  0  0  0  0  0  0
    6.6587  -15.9708   23.3328 C   0  0  0  0  0  0  0  0  0  0  0  0
    6.7814  -14.6893   24.0390 C   0  0  0  0  0  0  0  0  0  0  0  0
    7.2673  -13.5946   23.3328 C   0  0  0  0  0  0  0  0  0  0  0  0
    7.3901  -12.3745   23.9592 C   0  0  0  0  0  0  0  0  0  0  0  0
    7.0273  -12.2619   25.2799 C   0  0  0  0  0  0  0  0  0  0  0  0
    6.5454  -13.3597   25.9697 C   0  0  0  0  0  0  0  0  0  0  0  0
    6.4141  -14.6012   25.3536 C   0  0  0  0  0  0  0  0  0  0  0  0
    8.9450  -16.6762   24.0332 C   0  0  0  0  0  0  0  0  0  0  0  0
    8.6251  -17.2160   25.1229 O   0  0  0  0  0  0  0  0  0  0  0  0
   10.2726  -16.1804   23.9226 N   0  0  0  0  0  0  0  0  0  0  0  0
   10.9963  -15.7776   25.1411 C   0  0  1  0  0  0  0  0  0  0  0  0
   10.2743  -16.4370   26.2697 C   0  0  0  0  0  0  0  0  0  0  0  0
   10.2034  -15.5595   27.4357 C   0  0  0  0  0  0  0  0  0  0  0  0
   10.4401  -15.9807   28.7308 C   0  0  0  0  0  0  0  0  0  0  0  0
   10.3695  -15.0778   29.7609 C   0  0  0  0  0  0  0  0  0  0  0  0
   10.0676  -13.7464   29.5560 C   0  0  0  0  0  0  0  0  0  0  0  0
    9.8344  -13.3322   28.2769 C   0  0  0  0  0  0  0  0  0  0  0  0
    9.9010  -14.2208   27.2373 C   0  0  0  0  0  0  0  0  0  0  0  0
   12.3723  -16.2959   25.0521 C   0  0  0  0  0  0  0  0  0  0  0  0
   12.6027  -17.5456   24.4922 O   0  0  0  0  0  0  0  0  0  0  0  0
   13.3504  -15.6541   25.4624 O   0  0  0  0  0  0  0  0  0  0  0  0
  2  1  1  6
  3  2  1  0
  4  5  1  0
  4  2  1  0
  5  7  1  0
  5  6  1  6
  7  8  2  0
  9 10  1  0
  9  7  1  0
 11 12  1  0
 10 11  1  1
 12 17  2  0
 13 14  2  0
 13 12  1  0
 14 15  1  0
 15 16  2  0
 17 16  1  0
 18 20  1  0
 18 10  1  0
 19 18  2  0
 21 20  1  0
 21 22  1  1
 23 22  1  0
 23 24  2  0
 25 24  1  0
 26 25  2  0
 27 28  2  0
 27 26  1  0
 28 23  1  0
 29 21  1  0
 30 29  1  0
 31 29  2  0
M  END
$$$$
