LFF.pdb
     RDKit          3D

 31 32  0  0  1  0  0  0  0  0999 V2000
    7.9518  -18.6758   16.7516 C   0  0  0  0  0  0  0  0  0  0  0  0
    8.1122  -19.0759   18.2284 C   0  0  1  0  0  0  0  0  0  0  0  0
    8.7821  -20.4065   18.2373 C   0  0  0  0  0  0  0  0  0  0  0  0
    8.8430  -17.9622   18.8790 C   0  0  0  0  0  0  0  0  0  0  0  0
    8.9925  -18.0392   20.3661 C   0  0  2  0  0  0  0  0  0  0  0  0
    8.1406  -18.9582   21.0359 N   0  0  0  0  0  0  0  0  0  0  0  0
    8.9292  -16.7259   21.0290 C   0  0  0  0  0  0  0  0  0  0  0  0
    9.4291  -15.6755   20.5527 O   0  0  0  0  0  0  0  0  0  0  0  0
    8.2706  -16.6208   22.2775 N   0  0  0  0  0  0  0  0  0  0  0  0
    8.1982  -15.3582   23.0037 C   0  0  1  0  0  0  0  0  0  0  0  0
    6.8720  -15.2785   23.7320 C   0  0  0  0  0  0  0  0  0  0  0  0
    6.7363  -14.0825   24.5729 C   0  0  0  0  0  0  0  0  0  0  0  0
    6.3547  -14.2524   25.8991 C   0  0  0  0  0  0  0  0  0  0  0  0
    6.2235  -13.1551   26.7205 C   0  0  0  0  0  0  0  0  0  0  0  0
    6.4742  -11.9041   26.2096 C   0  0  0  0  0  0  0  0  0  0  0  0
    6.8531  -11.7505   24.8883 C   0  0  0  0  0  0  0  0  0  0  0  0
    6.9911  -12.8477   24.0426 C   0  0  0  0  0  0  0  0  0  0  0  0
    9.3576  -15.2788   23.9243 C   0  0  0  0  0  0  0  0  0  0  0  0
    9.8779  -14.1805   24.2472 O   0  0  0  0  0  0  0  0  0  0  0  0
    9.9302  -16.4542   24.4821 N   0  0  0  0  0  0  0  0  0  0  0  0
   11.1896  -16.3536   25.2403 C   0  0  1  0  0  0  0  0  0  0  0  0
   10.8738  -16.8656   26.6070 C   0  0  0  0  0  0  0  0  0  0  0  0
   10.6107  -15.7678   27.5345 C   0  0  0  0  0  0  0  0  0  0  0  0
   10.5408  -14.4404   27.1553 C   0  0  0  0  0  0  0  0  0  0  0  0
   10.2684  -13.4800   28.0959 C   0  0  0  0  0  0  0  0  0  0  0  0
   10.0580  -13.7875   29.4251 C   0  0  0  0  0  0  0  0  0  0  0  0
   10.1271  -15.0983   29.7979 C   0  0  0  0  0  0  0  0  0  0  0  0
   10.3979  -16.0694   28.8713 C   0  0  0  0  0  0  0  0  0  0  0  0
   12.1870  -17.2240   24.5943 C   0  0  0  0  0  0  0  0  0  0  0  0
   13.4876  -17.2595   25.0796 O   0  0  0  0  0  0  0  0  0  0  0  0
   11.9112  -17.9385   23.6194 O   0  0  0  0  0  0  0  0  0  0  0  0
  2  1  1  6
  3  2  1  0
  4  5  1  0
  4  2  1  0
  5  7  1  0
  5  6  1  1
  7  8  2  0
  9 10  1  0
  9  7  1  0
 11 12  1  0
 10 11  1  1
 12 17  2  0
 13 14  2  0
 13 12  1  0
 14 15  1  0
 15 16  2  0
 17 16  1  0
 18 20  1  0
 18 10  1  0
 19 18  2  0
 21 20  1  0
 21 22  1  1
 23 22  1  0
 23 24  2  0
 25 24  1  0
 26 25  2  0
 27 28  2  0
 27 26  1  0
 28 23  1  0
 29 21  1  0
 30 29  1  0
 31 29  2  0
M  END
$$$$
