LFF.pdb
     RDKit          3D

 31 32  0  0  1  0  0  0  0  0999 V2000
   10.1410  -17.8286   16.5708 C   0  0  0  0  0  0  0  0  0  0  0  0
    9.7187  -18.4540   17.9115 C   0  0  1  0  0  0  0  0  0  0  0  0
    9.8626  -19.9286   17.7559 C   0  0  0  0  0  0  0  0  0  0  0  0
   10.5619  -17.8122   18.9482 C   0  0  0  0  0  0  0  0  0  0  0  0
   10.1997  -18.0933   20.3728 C   0  0  2  0  0  0  0  0  0  0  0  0
    9.0472  -18.8980   20.5804 N   0  0  0  0  0  0  0  0  0  0  0  0
   10.1191  -16.8818   21.2057 C   0  0  0  0  0  0  0  0  0  0  0  0
   10.9931  -15.9783   21.2154 O   0  0  0  0  0  0  0  0  0  0  0  0
    8.9983  -16.7071   22.0524 N   0  0  0  0  0  0  0  0  0  0  0  0
    8.8828  -15.5610   22.9469 C   0  0  1  0  0  0  0  0  0  0  0  0
    7.4364  -15.4039   23.3698 C   0  0  0  0  0  0  0  0  0  0  0  0
    7.2184  -14.3004   24.3136 C   0  0  0  0  0  0  0  0  0  0  0  0
    7.6838  -13.0372   23.9654 C   0  0  0  0  0  0  0  0  0  0  0  0
    7.4920  -11.9761   24.8217 C   0  0  0  0  0  0  0  0  0  0  0  0
    6.8395  -12.1879   26.0125 C   0  0  0  0  0  0  0  0  0  0  0  0
    6.3820  -13.4499   26.3455 C   0  0  0  0  0  0  0  0  0  0  0  0
    6.5664  -14.5349   25.4928 C   0  0  0  0  0  0  0  0  0  0  0  0
    9.7920  -15.7709   24.0989 C   0  0  0  0  0  0  0  0  0  0  0  0
   10.5318  -14.8544   24.5393 O   0  0  0  0  0  0  0  0  0  0  0  0
    9.8618  -17.0298   24.7555 N   0  0  0  0  0  0  0  0  0  0  0  0
   10.8211  -17.2163   25.8582 C   0  0  1  0  0  0  0  0  0  0  0  0
   10.0024  -17.1929   27.1068 C   0  0  0  0  0  0  0  0  0  0  0  0
   10.0019  -15.8636   27.7131 C   0  0  0  0  0  0  0  0  0  0  0  0
   11.1270  -15.2586   28.2411 C   0  0  0  0  0  0  0  0  0  0  0  0
   11.0325  -13.9976   28.7724 C   0  0  0  0  0  0  0  0  0  0  0  0
    9.8436  -13.2966   28.8026 C   0  0  0  0  0  0  0  0  0  0  0  0
    8.7339  -13.8952   28.2809 C   0  0  0  0  0  0  0  0  0  0  0  0
    8.8112  -15.1535   27.7465 C   0  0  0  0  0  0  0  0  0  0  0  0
   11.4569  -18.5353   25.6974 C   0  0  0  0  0  0  0  0  0  0  0  0
   11.0366  -19.3832   24.6813 O   0  0  0  0  0  0  0  0  0  0  0  0
   12.3665  -18.9280   26.4425 O   0  0  0  0  0  0  0  0  0  0  0  0
  2  1  1  6
  3  2  1  0
  4  5  1  0
  4  2  1  0
  5  7  1  0
  5  6  1  6
  7  8  2  0
  9 10  1  0
  9  7  1  0
 11 12  1  0
 10 11  1  1
 12 17  2  0
 13 14  2  0
 13 12  1  0
 14 15  1  0
 15 16  2  0
 17 16  1  0
 18 20  1  0
 18 10  1  0
 19 18  2  0
 21 20  1  0
 21 22  1  1
 23 22  1  0
 23 24  2  0
 25 24  1  0
 26 25  2  0
 27 28  2  0
 27 26  1  0
 28 23  1  0
 29 21  1  0
 30 29  1  0
 31 29  2  0
M  END
$$$$
