LFF.pdb
     RDKit          3D

 31 32  0  0  1  0  0  0  0  0999 V2000
    9.7766  -17.8373   15.5658 C   0  0  0  0  0  0  0  0  0  0  0  0
    9.6087  -18.5448   16.9215 C   0  0  1  0  0  0  0  0  0  0  0  0
   10.6767  -19.5809   16.9946 C   0  0  0  0  0  0  0  0  0  0  0  0
    9.6495  -17.4780   17.9499 C   0  0  0  0  0  0  0  0  0  0  0  0
    9.5231  -17.9177   19.3748 C   0  0  2  0  0  0  0  0  0  0  0  0
    8.4168  -18.7566   19.6770 N   0  0  0  0  0  0  0  0  0  0  0  0
    9.5837  -16.8054   20.3377 C   0  0  0  0  0  0  0  0  0  0  0  0
   10.4287  -15.8764   20.2833 O   0  0  0  0  0  0  0  0  0  0  0  0
    8.6427  -16.7633   21.3943 N   0  0  0  0  0  0  0  0  0  0  0  0
    8.6974  -15.7392   22.4311 C   0  0  1  0  0  0  0  0  0  0  0  0
    7.2864  -15.3261   22.7973 C   0  0  0  0  0  0  0  0  0  0  0  0
    7.2220  -14.4185   23.9497 C   0  0  0  0  0  0  0  0  0  0  0  0
    7.7371  -13.1352   23.8042 C   0  0  0  0  0  0  0  0  0  0  0  0
    7.6884  -12.2533   24.8605 C   0  0  0  0  0  0  0  0  0  0  0  0
    7.1276  -12.6618   26.0468 C   0  0  0  0  0  0  0  0  0  0  0  0
    6.6191  -13.9415   26.1769 C   0  0  0  0  0  0  0  0  0  0  0  0
    6.6591  -14.8471   25.1203 C   0  0  0  0  0  0  0  0  0  0  0  0
    9.4489  -16.2818   23.5881 C   0  0  0  0  0  0  0  0  0  0  0  0
    9.1953  -17.4127   24.0761 O   0  0  0  0  0  0  0  0  0  0  0  0
   10.4954  -15.5356   24.1952 N   0  0  0  0  0  0  0  0  0  0  0  0
   11.2078  -16.1027   25.3537 C   0  0  1  0  0  0  0  0  0  0  0  0
   11.7008  -14.9278   26.1324 C   0  0  0  0  0  0  0  0  0  0  0  0
   10.9754  -14.7876   27.3928 C   0  0  0  0  0  0  0  0  0  0  0  0
   10.0450  -13.7953   27.6385 C   0  0  0  0  0  0  0  0  0  0  0  0
    9.3989  -13.7561   28.8478 C   0  0  0  0  0  0  0  0  0  0  0  0
    9.6420  -14.6794   29.8447 C   0  0  0  0  0  0  0  0  0  0  0  0
   10.5607  -15.6585   29.6006 C   0  0  0  0  0  0  0  0  0  0  0  0
   11.2144  -15.7118   28.3986 C   0  0  0  0  0  0  0  0  0  0  0  0
   10.2415  -16.8704   26.1579 C   0  0  0  0  0  0  0  0  0  0  0  0
    8.9141  -16.4660   26.2106 O   0  0  0  0  0  0  0  0  0  0  0  0
   10.5672  -17.8791   26.8008 O   0  0  0  0  0  0  0  0  0  0  0  0
  2  1  1  6
  3  2  1  0
  4  5  1  0
  4  2  1  0
  5  7  1  0
  5  6  1  6
  7  8  2  0
  9 10  1  0
  9  7  1  0
 11 12  1  0
 10 11  1  1
 12 17  2  0
 13 14  2  0
 13 12  1  0
 14 15  1  0
 15 16  2  0
 17 16  1  0
 18 20  1  0
 18 10  1  0
 19 18  2  0
 21 20  1  0
 21 22  1  1
 23 22  1  0
 23 24  2  0
 25 24  1  0
 26 25  2  0
 27 28  2  0
 27 26  1  0
 28 23  1  0
 29 21  1  0
 30 29  1  0
 31 29  2  0
M  END
$$$$
