LFF.pdb
     RDKit          3D

 31 32  0  0  1  0  0  0  0  0999 V2000
   10.9951  -19.5960   19.3904 C   0  0  0  0  0  0  0  0  0  0  0  0
   10.2333  -19.7077   20.7223 C   0  0  1  0  0  0  0  0  0  0  0  0
   10.6821  -20.9758   21.3628 C   0  0  0  0  0  0  0  0  0  0  0  0
   10.5156  -18.4554   21.4636 C   0  0  0  0  0  0  0  0  0  0  0  0
    9.7264  -17.2487   21.0626 C   0  0  2  0  0  0  0  0  0  0  0  0
   10.0360  -16.6896   19.7936 N   0  0  0  0  0  0  0  0  0  0  0  0
    9.7168  -16.1897   22.0856 C   0  0  0  0  0  0  0  0  0  0  0  0
   10.6333  -15.3408   22.2244 O   0  0  0  0  0  0  0  0  0  0  0  0
    8.6184  -16.1076   22.9747 N   0  0  0  0  0  0  0  0  0  0  0  0
    8.5690  -15.1180   24.0448 C   0  0  1  0  0  0  0  0  0  0  0  0
    7.1571  -14.5806   24.1606 C   0  0  0  0  0  0  0  0  0  0  0  0
    6.9846  -13.6176   25.2556 C   0  0  0  0  0  0  0  0  0  0  0  0
    7.5362  -12.3498   25.1077 C   0  0  0  0  0  0  0  0  0  0  0  0
    7.3894  -11.4174   26.1102 C   0  0  0  0  0  0  0  0  0  0  0  0
    6.6954  -11.7606   27.2457 C   0  0  0  0  0  0  0  0  0  0  0  0
    6.1521  -13.0255   27.3787 C   0  0  0  0  0  0  0  0  0  0  0  0
    6.2900  -13.9816   26.3762 C   0  0  0  0  0  0  0  0  0  0  0  0
    9.0382  -15.7571   25.2975 C   0  0  0  0  0  0  0  0  0  0  0  0
    8.5177  -16.8115   25.7430 O   0  0  0  0  0  0  0  0  0  0  0  0
   10.1057  -15.1953   26.0495 N   0  0  0  0  0  0  0  0  0  0  0  0
   10.6111  -15.9136   27.2326 C   0  0  1  0  0  0  0  0  0  0  0  0
   12.0769  -16.0799   27.0018 C   0  0  0  0  0  0  0  0  0  0  0  0
   12.3363  -16.9872   25.8863 C   0  0  0  0  0  0  0  0  0  0  0  0
   12.5839  -16.5656   24.5934 C   0  0  0  0  0  0  0  0  0  0  0  0
   12.8370  -17.4926   23.6147 C   0  0  0  0  0  0  0  0  0  0  0  0
   12.8551  -18.8491   23.8700 C   0  0  0  0  0  0  0  0  0  0  0  0
   12.6107  -19.2638   25.1469 C   0  0  0  0  0  0  0  0  0  0  0  0
   12.3564  -18.3512   26.1356 C   0  0  0  0  0  0  0  0  0  0  0  0
   10.3804  -15.0692   28.4174 C   0  0  0  0  0  0  0  0  0  0  0  0
   10.6726  -15.5625   29.6822 O   0  0  0  0  0  0  0  0  0  0  0  0
    9.9289  -13.9177   28.3332 O   0  0  0  0  0  0  0  0  0  0  0  0
  2  1  1  6
  3  2  1  0
  4  5  1  0
  4  2  1  0
  5  7  1  0
  5  6  1  6
  7  8  2  0
  9 10  1  0
  9  7  1  0
 11 12  1  0
 10 11  1  1
 12 17  2  0
 13 14  2  0
 13 12  1  0
 14 15  1  0
 15 16  2  0
 17 16  1  0
 18 20  1  0
 18 10  1  0
 19 18  2  0
 21 20  1  0
 21 22  1  6
 23 22  1  0
 23 24  2  0
 25 24  1  0
 26 25  2  0
 27 28  2  0
 27 26  1  0
 28 23  1  0
 29 21  1  0
 30 29  1  0
 31 29  2  0
M  END
$$$$
