LFF.pdb
     RDKit          3D

 31 32  0  0  1  0  0  0  0  0999 V2000
    6.5684  -20.8361   27.0577 C   0  0  0  0  0  0  0  0  0  0  0  0
    6.1868  -19.9125   25.8881 C   0  0  1  0  0  0  0  0  0  0  0  0
    7.1158  -18.7492   25.9454 C   0  0  0  0  0  0  0  0  0  0  0  0
    6.2485  -20.7496   24.6662 C   0  0  0  0  0  0  0  0  0  0  0  0
    5.8686  -20.0847   23.3804 C   0  0  2  0  0  0  0  0  0  0  0  0
    5.6730  -20.9420   22.2643 N   0  0  0  0  0  0  0  0  0  0  0  0
    6.7643  -18.9770   23.0079 C   0  0  0  0  0  0  0  0  0  0  0  0
    8.0186  -19.0592   23.0087 O   0  0  0  0  0  0  0  0  0  0  0  0
    6.1971  -17.7384   22.6235 N   0  0  0  0  0  0  0  0  0  0  0  0
    7.0210  -16.6259   22.1647 C   0  0  1  0  0  0  0  0  0  0  0  0
    6.1601  -15.6626   21.3731 C   0  0  0  0  0  0  0  0  0  0  0  0
    6.9211  -14.5711   20.7523 C   0  0  0  0  0  0  0  0  0  0  0  0
    7.7476  -14.8762   19.6765 C   0  0  0  0  0  0  0  0  0  0  0  0
    8.4717  -13.8780   19.0639 C   0  0  0  0  0  0  0  0  0  0  0  0
    8.3625  -12.5902   19.5312 C   0  0  0  0  0  0  0  0  0  0  0  0
    7.5362  -12.3017   20.6022 C   0  0  0  0  0  0  0  0  0  0  0  0
    6.7963  -13.2972   21.2343 C   0  0  0  0  0  0  0  0  0  0  0  0
    7.6484  -15.9876   23.3466 C   0  0  0  0  0  0  0  0  0  0  0  0
    7.0069  -15.2197   24.1081 O   0  0  0  0  0  0  0  0  0  0  0  0
    9.0135  -16.2227   23.6661 N   0  0  0  0  0  0  0  0  0  0  0  0
    9.6985  -15.3236   24.6112 C   0  0  1  0  0  0  0  0  0  0  0  0
    9.0278  -15.5428   25.9271 C   0  0  0  0  0  0  0  0  0  0  0  0
    8.1900  -14.4021   26.2894 C   0  0  0  0  0  0  0  0  0  0  0  0
    8.6418  -13.0962   26.3243 C   0  0  0  0  0  0  0  0  0  0  0  0
    7.7743  -12.0873   26.6575 C   0  0  0  0  0  0  0  0  0  0  0  0
    6.4494  -12.3244   26.9641 C   0  0  0  0  0  0  0  0  0  0  0  0
    6.0049  -13.6141   26.9291 C   0  0  0  0  0  0  0  0  0  0  0  0
    6.8579  -14.6328   26.5983 C   0  0  0  0  0  0  0  0  0  0  0  0
   11.1119  -15.7307   24.6921 C   0  0  0  0  0  0  0  0  0  0  0  0
   11.5380  -16.8750   24.0308 O   0  0  0  0  0  0  0  0  0  0  0  0
   11.9520  -15.0853   25.3359 O   0  0  0  0  0  0  0  0  0  0  0  0
  2  1  1  1
  3  2  1  0
  4  5  1  0
  4  2  1  0
  5  7  1  0
  5  6  1  6
  7  8  2  0
  9 10  1  0
  9  7  1  0
 11 12  1  0
 10 11  1  1
 12 17  2  0
 13 14  2  0
 13 12  1  0
 14 15  1  0
 15 16  2  0
 17 16  1  0
 18 20  1  0
 18 10  1  0
 19 18  2  0
 21 20  1  0
 21 22  1  1
 23 22  1  0
 23 24  2  0
 25 24  1  0
 26 25  2  0
 27 28  2  0
 27 26  1  0
 28 23  1  0
 29 21  1  0
 30 29  1  0
 31 29  2  0
M  END
$$$$
