LFF.pdb
     RDKit          3D

 31 32  0  0  1  0  0  0  0  0999 V2000
    8.3665  -12.5529   17.4379 C   0  0  0  0  0  0  0  0  0  0  0  0
    8.1709  -13.9375   18.0792 C   0  0  1  0  0  0  0  0  0  0  0  0
    7.5515  -14.8039   17.0376 C   0  0  0  0  0  0  0  0  0  0  0  0
    9.5041  -14.3516   18.5780 C   0  0  0  0  0  0  0  0  0  0  0  0
    9.5457  -15.5764   19.4369 C   0  0  2  0  0  0  0  0  0  0  0  0
    8.5594  -16.5638   19.1704 N   0  0  0  0  0  0  0  0  0  0  0  0
    9.5772  -15.2789   20.8786 C   0  0  0  0  0  0  0  0  0  0  0  0
   10.4845  -14.6117   21.4370 O   0  0  0  0  0  0  0  0  0  0  0  0
    8.5323  -15.7651   21.7004 N   0  0  0  0  0  0  0  0  0  0  0  0
    8.4393  -15.4137   23.1127 C   0  0  1  0  0  0  0  0  0  0  0  0
    6.9858  -15.1840   23.4736 C   0  0  0  0  0  0  0  0  0  0  0  0
    6.8010  -14.5421   24.7811 C   0  0  0  0  0  0  0  0  0  0  0  0
    7.2034  -13.2190   24.9256 C   0  0  0  0  0  0  0  0  0  0  0  0
    7.0399  -12.5811   26.1349 C   0  0  0  0  0  0  0  0  0  0  0  0
    6.4780  -13.2697   27.1831 C   0  0  0  0  0  0  0  0  0  0  0  0
    6.0823  -14.5855   27.0246 C   0  0  0  0  0  0  0  0  0  0  0  0
    6.2394  -15.2472   25.8098 C   0  0  0  0  0  0  0  0  0  0  0  0
    9.0573  -16.5010   23.9089 C   0  0  0  0  0  0  0  0  0  0  0  0
    8.8815  -17.7142   23.6291 O   0  0  0  0  0  0  0  0  0  0  0  0
    9.8806  -16.2088   25.0303 N   0  0  0  0  0  0  0  0  0  0  0  0
   10.6608  -17.2918   25.6543 C   0  0  1  0  0  0  0  0  0  0  0  0
   11.8650  -16.6298   26.2385 C   0  0  0  0  0  0  0  0  0  0  0  0
   11.4856  -15.5814   27.1826 C   0  0  0  0  0  0  0  0  0  0  0  0
   11.1334  -14.2987   26.8069 C   0  0  0  0  0  0  0  0  0  0  0  0
   10.7719  -13.3866   27.7655 C   0  0  0  0  0  0  0  0  0  0  0  0
   10.7446  -13.7001   29.1095 C   0  0  0  0  0  0  0  0  0  0  0  0
   11.0924  -14.9669   29.4788 C   0  0  0  0  0  0  0  0  0  0  0  0
   11.4556  -15.8894   28.5344 C   0  0  0  0  0  0  0  0  0  0  0  0
    9.8448  -17.8890   26.7256 C   0  0  0  0  0  0  0  0  0  0  0  0
   10.3183  -18.9972   27.4155 O   0  0  0  0  0  0  0  0  0  0  0  0
    8.7348  -17.4376   27.0434 O   0  0  0  0  0  0  0  0  0  0  0  0
  2  1  1  6
  3  2  1  0
  4  5  1  0
  4  2  1  0
  5  7  1  0
  5  6  1  1
  7  8  2  0
  9 10  1  0
  9  7  1  0
 11 12  1  0
 10 11  1  1
 12 17  2  0
 13 14  2  0
 13 12  1  0
 14 15  1  0
 15 16  2  0
 17 16  1  0
 18 20  1  0
 18 10  1  0
 19 18  2  0
 21 20  1  0
 21 22  1  1
 23 22  1  0
 23 24  2  0
 25 24  1  0
 26 25  2  0
 27 28  2  0
 27 26  1  0
 28 23  1  0
 29 21  1  0
 30 29  1  0
 31 29  2  0
M  END
$$$$
