LFF.pdb
     RDKit          3D

 31 32  0  0  1  0  0  0  0  0999 V2000
    7.8332  -12.5915   17.4828 C   0  0  0  0  0  0  0  0  0  0  0  0
    7.8357  -14.0491   17.9748 C   0  0  1  0  0  0  0  0  0  0  0  0
    7.9653  -14.9059   16.7630 C   0  0  0  0  0  0  0  0  0  0  0  0
    8.9278  -14.1442   18.9728 C   0  0  0  0  0  0  0  0  0  0  0  0
    8.8302  -15.2590   19.9664 C   0  0  2  0  0  0  0  0  0  0  0  0
    7.6198  -16.0031   19.9581 N   0  0  0  0  0  0  0  0  0  0  0  0
    9.1526  -14.8459   21.3425 C   0  0  0  0  0  0  0  0  0  0  0  0
   10.1849  -14.2013   21.6572 O   0  0  0  0  0  0  0  0  0  0  0  0
    8.2589  -15.1862   22.3860 N   0  0  0  0  0  0  0  0  0  0  0  0
    8.4933  -14.7704   23.7640 C   0  0  1  0  0  0  0  0  0  0  0  0
    7.1618  -14.6148   24.4701 C   0  0  0  0  0  0  0  0  0  0  0  0
    7.2648  -13.9498   25.7752 C   0  0  0  0  0  0  0  0  0  0  0  0
    7.0052  -12.5853   25.8389 C   0  0  0  0  0  0  0  0  0  0  0  0
    7.0850  -11.9281   27.0463 C   0  0  0  0  0  0  0  0  0  0  0  0
    7.4221  -12.6390   28.1730 C   0  0  0  0  0  0  0  0  0  0  0  0
    7.6775  -13.9961   28.0944 C   0  0  0  0  0  0  0  0  0  0  0  0
    7.6018  -14.6779   26.8829 C   0  0  0  0  0  0  0  0  0  0  0  0
    9.3678  -15.7749   24.4154 C   0  0  0  0  0  0  0  0  0  0  0  0
    9.2294  -17.0085   24.2151 O   0  0  0  0  0  0  0  0  0  0  0  0
   10.4066  -15.3760   25.3001 N   0  0  0  0  0  0  0  0  0  0  0  0
   11.2901  -16.4004   25.8838 C   0  0  1  0  0  0  0  0  0  0  0  0
   12.5738  -15.6975   26.1802 C   0  0  0  0  0  0  0  0  0  0  0  0
   13.5322  -16.5956   26.8202 C   0  0  0  0  0  0  0  0  0  0  0  0
   14.4447  -17.3677   26.1261 C   0  0  0  0  0  0  0  0  0  0  0  0
   15.3200  -18.1672   26.8160 C   0  0  0  0  0  0  0  0  0  0  0  0
   15.3283  -18.2345   28.1947 C   0  0  0  0  0  0  0  0  0  0  0  0
   14.4269  -17.4716   28.8786 C   0  0  0  0  0  0  0  0  0  0  0  0
   13.5464  -16.6680   28.2050 C   0  0  0  0  0  0  0  0  0  0  0  0
   10.6771  -16.8786   27.1350 C   0  0  0  0  0  0  0  0  0  0  0  0
   10.8504  -18.1998   27.5259 O   0  0  0  0  0  0  0  0  0  0  0  0
   10.0017  -16.1404   27.8668 O   0  0  0  0  0  0  0  0  0  0  0  0
  2  1  1  6
  3  2  1  0
  4  5  1  0
  4  2  1  0
  5  7  1  0
  5  6  1  1
  7  8  2  0
  9 10  1  0
  9  7  1  0
 11 12  1  0
 10 11  1  1
 12 17  2  0
 13 14  2  0
 13 12  1  0
 14 15  1  0
 15 16  2  0
 17 16  1  0
 18 20  1  0
 18 10  1  0
 19 18  2  0
 21 20  1  0
 21 22  1  1
 23 22  1  0
 23 24  2  0
 25 24  1  0
 26 25  2  0
 27 28  2  0
 27 26  1  0
 28 23  1  0
 29 21  1  0
 30 29  1  0
 31 29  2  0
M  END
$$$$
