DHK.pdb
     RDKit          3D

 28 28  0  0  1  0  0  0  0  0999 V2000
   27.9171  -22.5388  -17.4596 N   0  0  0  0  0  0  0  0  0  0  0  0
   27.9735  -21.2975  -16.7386 C   0  0  1  0  0  0  0  0  0  0  0  0
   27.5665  -20.1899  -17.6938 C   0  0  0  0  0  0  0  0  0  0  0  0
   28.7021  -19.7300  -18.5236 C   0  0  0  0  0  0  0  0  0  0  0  0
   29.8959  -20.1236  -18.3347 O   0  0  0  0  0  0  0  0  0  0  0  0
   27.0251  -21.3464  -15.6014 C   0  0  0  0  0  0  0  0  0  0  0  0
   25.8987  -21.9264  -15.7728 O   0  0  0  0  0  0  0  0  0  0  0  0
   28.5074  -18.8276  -19.5695 O   0  0  0  0  0  0  0  0  0  0  0  0
   27.3187  -20.7759  -14.3346 N   0  0  0  0  0  0  0  0  0  0  0  0
   26.3752  -20.8828  -13.2793 C   0  0  1  0  0  0  0  0  0  0  0  0
   26.8092  -20.4306  -11.9395 C   0  0  0  0  0  0  0  0  0  0  0  0
   25.8389  -20.6044  -10.8647 C   0  0  0  0  0  0  0  0  0  0  0  0
   24.6209  -21.2370  -10.9541 C   0  0  0  0  0  0  0  0  0  0  0  0
   24.0176  -21.1843   -9.7391 N   0  0  0  0  0  0  0  0  0  0  0  0
   24.8397  -20.5324   -8.9057 C   0  0  0  0  0  0  0  0  0  0  0  0
   25.9371  -20.1861   -9.5953 N   0  0  0  0  0  0  0  0  0  0  0  0
   25.0930  -20.1462  -13.6164 C   0  0  0  0  0  0  0  0  0  0  0  0
   25.1411  -19.0914  -14.3087 O   0  0  0  0  0  0  0  0  0  0  0  0
   23.8242  -20.5861  -13.1877 N   0  0  0  0  0  0  0  0  0  0  0  0
   22.5805  -19.9625  -13.7020 C   0  0  1  0  0  0  0  0  0  0  0  0
   22.4957  -20.1213  -15.1755 C   0  0  0  0  0  0  0  0  0  0  0  0
   21.2407  -19.5055  -15.7173 C   0  0  0  0  0  0  0  0  0  0  0  0
   21.0687  -19.7406  -17.2023 C   0  0  0  0  0  0  0  0  0  0  0  0
   19.8076  -19.0011  -17.6426 C   0  0  0  0  0  0  0  0  0  0  0  0
   19.6310  -19.2147  -19.0647 N   0  0  0  0  0  0  0  0  0  0  0  0
   21.4219  -20.5100  -12.9913 C   0  0  0  0  0  0  0  0  0  0  0  0
   21.4723  -21.7335  -12.6071 O   0  0  0  0  0  0  0  0  0  0  0  0
   20.2901  -19.8009  -12.7098 O   0  0  0  0  0  0  0  0  0  0  0  0
  2  6  1  0
  2  1  1  6
  3  4  1  0
  3  2  1  0
  4  5  2  0
  6  7  2  0
  8  4  1  0
  9 10  1  0
  9  6  1  0
 11 12  1  0
 10 11  1  1
 12 16  1  0
 13 12  2  0
 13 14  1  0
 14 15  1  0
 16 15  2  0
 17 18  2  0
 17 10  1  0
 19 17  1  0
 20 19  1  0
 20 26  1  0
 20 21  1  6
 22 23  1  0
 22 21  1  0
 24 23  1  0
 24 25  1  0
 26 27  2  0
 26 28  1  0
M  END
$$$$
