DHK.pdb
     RDKit          3D

 28 28  0  0  1  0  0  0  0  0999 V2000
   15.9208  -12.9964  -14.2332 N   0  0  0  0  0  0  0  0  0  0  0  0
   15.5485  -11.6121  -14.3280 C   0  0  1  0  0  0  0  0  0  0  0  0
   14.1006  -11.4923  -13.8876 C   0  0  0  0  0  0  0  0  0  0  0  0
   13.1615  -11.8867  -14.9611 C   0  0  0  0  0  0  0  0  0  0  0  0
   11.9018  -11.9213  -14.7945 O   0  0  0  0  0  0  0  0  0  0  0  0
   16.4095  -10.8091  -13.4286 C   0  0  0  0  0  0  0  0  0  0  0  0
   16.6213  -11.2403  -12.2438 O   0  0  0  0  0  0  0  0  0  0  0  0
   13.6274  -12.2436  -16.2266 O   0  0  0  0  0  0  0  0  0  0  0  0
   17.0052   -9.5844  -13.8311 N   0  0  0  0  0  0  0  0  0  0  0  0
   17.8783   -8.9019  -12.9439 C   0  0  1  0  0  0  0  0  0  0  0  0
   19.1288   -8.3571  -13.5160 C   0  0  0  0  0  0  0  0  0  0  0  0
   20.0088   -7.6676  -12.5794 C   0  0  0  0  0  0  0  0  0  0  0  0
   20.7751   -8.2478  -11.5956 C   0  0  0  0  0  0  0  0  0  0  0  0
   21.4480   -7.2682  -10.9394 N   0  0  0  0  0  0  0  0  0  0  0  0
   21.1107   -6.0987  -11.4997 C   0  0  0  0  0  0  0  0  0  0  0  0
   20.2407   -6.3507  -12.4893 N   0  0  0  0  0  0  0  0  0  0  0  0
   17.1631   -7.7630  -12.2425 C   0  0  0  0  0  0  0  0  0  0  0  0
   16.5703   -6.8819  -12.9254 O   0  0  0  0  0  0  0  0  0  0  0  0
   17.1257   -7.6334  -10.8393 N   0  0  0  0  0  0  0  0  0  0  0  0
   16.3612   -6.5416  -10.1885 C   0  0  1  0  0  0  0  0  0  0  0  0
   15.5944   -7.0681   -9.0316 C   0  0  0  0  0  0  0  0  0  0  0  0
   14.3064   -7.6956   -9.4734 C   0  0  0  0  0  0  0  0  0  0  0  0
   13.5737   -8.3837   -8.3421 C   0  0  0  0  0  0  0  0  0  0  0  0
   12.2955   -8.9861   -8.9204 C   0  0  0  0  0  0  0  0  0  0  0  0
   11.6054   -9.6888   -7.8577 N   0  0  0  0  0  0  0  0  0  0  0  0
   17.2674   -5.4458   -9.8344 C   0  0  0  0  0  0  0  0  0  0  0  0
   16.7578   -4.3774   -9.3388 O   0  0  0  0  0  0  0  0  0  0  0  0
   18.6219   -5.4886   -9.9970 O   0  0  0  0  0  0  0  0  0  0  0  0
  2  6  1  0
  2  1  1  1
  3  4  1  0
  3  2  1  0
  4  5  2  0
  6  7  2  0
  8  4  1  0
  9 10  1  0
  9  6  1  0
 11 12  1  0
 10 11  1  6
 12 16  1  0
 13 12  2  0
 13 14  1  0
 14 15  1  0
 16 15  2  0
 17 18  2  0
 17 10  1  0
 19 17  1  0
 20 19  1  0
 20 26  1  0
 20 21  1  1
 22 23  1  0
 22 21  1  0
 24 23  1  0
 24 25  1  0
 26 27  2  0
 26 28  1  0
M  END
$$$$
