DHK.pdb
     RDKit          3D

 28 28  0  0  1  0  0  0  0  0999 V2000
   19.7099   -8.0714  -13.6300 N   0  0  0  0  0  0  0  0  0  0  0  0
   19.5889   -7.5450  -12.2988 C   0  0  1  0  0  0  0  0  0  0  0  0
   19.9231   -6.0651  -12.3555 C   0  0  0  0  0  0  0  0  0  0  0  0
   21.3608   -5.8323  -12.6174 C   0  0  0  0  0  0  0  0  0  0  0  0
   22.2098   -6.7761  -12.6826 O   0  0  0  0  0  0  0  0  0  0  0  0
   18.1964   -7.7221  -11.8251 C   0  0  0  0  0  0  0  0  0  0  0  0
   17.2406   -7.4529  -12.6305 O   0  0  0  0  0  0  0  0  0  0  0  0
   21.8556   -4.5420  -12.8082 O   0  0  0  0  0  0  0  0  0  0  0  0
   17.8849   -8.1772  -10.5165 N   0  0  0  0  0  0  0  0  0  0  0  0
   16.5276   -8.3102  -10.1225 C   0  0  1  0  0  0  0  0  0  0  0  0
   16.1122   -9.6170   -9.5678 C   0  0  0  0  0  0  0  0  0  0  0  0
   16.0491  -10.7204  -10.5195 C   0  0  0  0  0  0  0  0  0  0  0  0
   16.2538  -10.6446  -11.8774 C   0  0  0  0  0  0  0  0  0  0  0  0
   16.1034  -11.8860  -12.4059 N   0  0  0  0  0  0  0  0  0  0  0  0
   15.8105  -12.7223  -11.4007 C   0  0  0  0  0  0  0  0  0  0  0  0
   15.7798  -12.0084  -10.2654 N   0  0  0  0  0  0  0  0  0  0  0  0
   16.1447   -7.2439   -9.1140 C   0  0  0  0  0  0  0  0  0  0  0  0
   16.8519   -7.0770   -8.0815 O   0  0  0  0  0  0  0  0  0  0  0  0
   15.0170   -6.4130   -9.2720 N   0  0  0  0  0  0  0  0  0  0  0  0
   14.5398   -5.5469   -8.1665 C   0  0  1  0  0  0  0  0  0  0  0  0
   14.7875   -4.1188   -8.4872 C   0  0  0  0  0  0  0  0  0  0  0  0
   14.2471   -3.2195   -7.4161 C   0  0  0  0  0  0  0  0  0  0  0  0
   14.4587   -1.7529   -7.7232 C   0  0  0  0  0  0  0  0  0  0  0  0
   13.9362   -0.9530   -6.5323 C   0  0  0  0  0  0  0  0  0  0  0  0
   14.1376    0.4548   -6.8094 N   0  0  0  0  0  0  0  0  0  0  0  0
   13.1337   -5.8419   -7.8783 C   0  0  0  0  0  0  0  0  0  0  0  0
   12.6671   -5.4976   -6.7335 O   0  0  0  0  0  0  0  0  0  0  0  0
   12.2857   -6.4598   -8.7513 O   0  0  0  0  0  0  0  0  0  0  0  0
  2  6  1  0
  2  1  1  6
  3  4  1  0
  3  2  1  0
  4  5  2  0
  6  7  2  0
  8  4  1  0
  9 10  1  0
  9  6  1  0
 11 12  1  0
 10 11  1  1
 12 16  1  0
 13 12  2  0
 13 14  1  0
 14 15  1  0
 16 15  2  0
 17 18  2  0
 17 10  1  0
 19 17  1  0
 20 19  1  0
 20 26  1  0
 20 21  1  6
 22 23  1  0
 22 21  1  0
 24 23  1  0
 24 25  1  0
 26 27  2  0
 26 28  1  0
M  END
$$$$
