DHK.pdb
     RDKit          3D

 28 28  0  0  1  0  0  0  0  0999 V2000
   23.6763  -24.0103  -14.0563 N   0  0  0  0  0  0  0  0  0  0  0  0
   23.8199  -22.7199  -13.4413 C   0  0  1  0  0  0  0  0  0  0  0  0
   25.2308  -22.6264  -12.8887 C   0  0  0  0  0  0  0  0  0  0  0  0
   25.3301  -21.6412  -11.7890 C   0  0  0  0  0  0  0  0  0  0  0  0
   24.8164  -21.8358  -10.6427 O   0  0  0  0  0  0  0  0  0  0  0  0
   23.6144  -21.6644  -14.4604 C   0  0  0  0  0  0  0  0  0  0  0  0
   23.4191  -22.0190  -15.6731 O   0  0  0  0  0  0  0  0  0  0  0  0
   26.0053  -20.4335  -11.9665 O   0  0  0  0  0  0  0  0  0  0  0  0
   23.6263  -20.2804  -14.1424 N   0  0  0  0  0  0  0  0  0  0  0  0
   23.4389  -19.3207  -15.1714 C   0  0  1  0  0  0  0  0  0  0  0  0
   22.6787  -18.1003  -14.8238 C   0  0  0  0  0  0  0  0  0  0  0  0
   21.2476  -18.2823  -14.6095 C   0  0  0  0  0  0  0  0  0  0  0  0
   20.5425  -19.4564  -14.7356 C   0  0  0  0  0  0  0  0  0  0  0  0
   19.2378  -19.2078  -14.4548 N   0  0  0  0  0  0  0  0  0  0  0  0
   19.1272  -17.9056  -14.1590 C   0  0  0  0  0  0  0  0  0  0  0  0
   20.3468  -17.3553  -14.2555 N   0  0  0  0  0  0  0  0  0  0  0  0
   24.7674  -18.8798  -15.7556 C   0  0  0  0  0  0  0  0  0  0  0  0
   25.7144  -18.5598  -14.9843 O   0  0  0  0  0  0  0  0  0  0  0  0
   25.0048  -18.8064  -17.1432 N   0  0  0  0  0  0  0  0  0  0  0  0
   26.2932  -19.2528  -17.7270 C   0  0  1  0  0  0  0  0  0  0  0  0
   26.6092  -20.6335  -17.2828 C   0  0  0  0  0  0  0  0  0  0  0  0
   27.8947  -21.1171  -17.8840 C   0  0  0  0  0  0  0  0  0  0  0  0
   28.2534  -22.5203  -17.4450 C   0  0  0  0  0  0  0  0  0  0  0  0
   29.6115  -22.8604  -18.0541 C   0  0  0  0  0  0  0  0  0  0  0  0
   30.0831  -24.0901  -17.4502 N   0  0  0  0  0  0  0  0  0  0  0  0
   26.2532  -19.1065  -19.1845 C   0  0  0  0  0  0  0  0  0  0  0  0
   27.2352  -18.5124  -19.7586 O   0  0  0  0  0  0  0  0  0  0  0  0
   25.2371  -19.5633  -19.9730 O   0  0  0  0  0  0  0  0  0  0  0  0
  2  6  1  0
  2  1  1  6
  3  4  1  0
  3  2  1  0
  4  5  2  0
  6  7  2  0
  8  4  1  0
  9 10  1  0
  9  6  1  0
 11 12  1  0
 10 11  1  1
 12 16  1  0
 13 12  2  0
 13 14  1  0
 14 15  1  0
 16 15  2  0
 17 18  2  0
 17 10  1  0
 19 17  1  0
 20 19  1  0
 20 26  1  0
 20 21  1  6
 22 23  1  0
 22 21  1  0
 24 23  1  0
 24 25  1  0
 26 27  2  0
 26 28  1  0
M  END
$$$$
