DHK.pdb
     RDKit          3D

 28 28  0  0  1  0  0  0  0  0999 V2000
   25.7494  -22.8972  -19.1593 N   0  0  0  0  0  0  0  0  0  0  0  0
   24.3670  -22.5221  -19.0501 C   0  0  1  0  0  0  0  0  0  0  0  0
   23.5392  -23.7942  -19.0864 C   0  0  0  0  0  0  0  0  0  0  0  0
   23.4927  -24.3855  -20.4421 C   0  0  0  0  0  0  0  0  0  0  0  0
   24.0621  -23.8516  -21.4454 O   0  0  0  0  0  0  0  0  0  0  0  0
   24.1477  -21.8231  -17.7624 C   0  0  0  0  0  0  0  0  0  0  0  0
   23.4114  -22.3863  -16.8819 O   0  0  0  0  0  0  0  0  0  0  0  0
   22.8094  -25.5778  -20.6818 O   0  0  0  0  0  0  0  0  0  0  0  0
   24.7217  -20.5574  -17.4708 N   0  0  0  0  0  0  0  0  0  0  0  0
   24.4634  -19.9395  -16.2191 C   0  0  1  0  0  0  0  0  0  0  0  0
   25.5355  -19.0926  -15.6522 C   0  0  0  0  0  0  0  0  0  0  0  0
   26.8243  -19.7461  -15.4545 C   0  0  0  0  0  0  0  0  0  0  0  0
   27.1066  -21.0779  -15.6497 C   0  0  0  0  0  0  0  0  0  0  0  0
   28.4150  -21.2887  -15.3552 N   0  0  0  0  0  0  0  0  0  0  0  0
   28.9417  -20.1141  -14.9833 C   0  0  0  0  0  0  0  0  0  0  0  0
   27.9726  -19.1886  -15.0465 N   0  0  0  0  0  0  0  0  0  0  0  0
   23.2007  -19.1011  -16.2743 C   0  0  0  0  0  0  0  0  0  0  0  0
   23.0771  -18.2143  -17.1645 O   0  0  0  0  0  0  0  0  0  0  0  0
   22.1362  -19.2627  -15.3644 N   0  0  0  0  0  0  0  0  0  0  0  0
   20.9055  -18.4413  -15.4677 C   0  0  1  0  0  0  0  0  0  0  0  0
   19.9617  -19.0473  -16.4402 C   0  0  0  0  0  0  0  0  0  0  0  0
   18.7513  -18.1839  -16.6332 C   0  0  0  0  0  0  0  0  0  0  0  0
   17.7737  -18.7637  -17.6324 C   0  0  0  0  0  0  0  0  0  0  0  0
   16.6462  -17.7504  -17.8147 C   0  0  0  0  0  0  0  0  0  0  0  0
   15.8057  -18.2001  -18.9058 N   0  0  0  0  0  0  0  0  0  0  0  0
   20.3245  -18.2507  -14.1361 C   0  0  0  0  0  0  0  0  0  0  0  0
   20.5840  -19.1252  -13.2335 O   0  0  0  0  0  0  0  0  0  0  0  0
   19.5240  -17.1999  -13.7924 O   0  0  0  0  0  0  0  0  0  0  0  0
  2  6  1  0
  2  1  1  1
  3  4  1  0
  3  2  1  0
  4  5  2  0
  6  7  2  0
  8  4  1  0
  9 10  1  0
  9  6  1  0
 11 12  1  0
 10 11  1  6
 12 16  1  0
 13 12  2  0
 13 14  1  0
 14 15  1  0
 16 15  2  0
 17 18  2  0
 17 10  1  0
 19 17  1  0
 20 19  1  0
 20 26  1  0
 20 21  1  6
 22 23  1  0
 22 21  1  0
 24 23  1  0
 24 25  1  0
 26 27  2  0
 26 28  1  0
M  END
$$$$
