DHK.pdb
     RDKit          3D

 28 28  0  0  1  0  0  0  0  0999 V2000
   21.2165  -18.3197  -17.1056 N   0  0  0  0  0  0  0  0  0  0  0  0
   21.3478  -18.2958  -15.6751 C   0  0  1  0  0  0  0  0  0  0  0  0
   22.4561  -17.3176  -15.3296 C   0  0  0  0  0  0  0  0  0  0  0  0
   23.7631  -17.7473  -15.8746 C   0  0  0  0  0  0  0  0  0  0  0  0
   24.0357  -18.9621  -16.1307 O   0  0  0  0  0  0  0  0  0  0  0  0
   20.0745  -17.8372  -15.0725 C   0  0  0  0  0  0  0  0  0  0  0  0
   20.0207  -17.6873  -13.8039 O   0  0  0  0  0  0  0  0  0  0  0  0
   24.7713  -16.8194  -16.1364 O   0  0  0  0  0  0  0  0  0  0  0  0
   18.9171  -17.5594  -15.8470 N   0  0  0  0  0  0  0  0  0  0  0  0
   17.7495  -17.0598  -15.2128 C   0  0  1  0  0  0  0  0  0  0  0  0
   17.2799  -15.7193  -15.6256 C   0  0  0  0  0  0  0  0  0  0  0  0
   18.0864  -14.5941  -15.1668 C   0  0  0  0  0  0  0  0  0  0  0  0
   18.2515  -14.1803  -13.8656 C   0  0  0  0  0  0  0  0  0  0  0  0
   19.0729  -13.0994  -13.8580 N   0  0  0  0  0  0  0  0  0  0  0  0
   19.4154  -12.8409  -15.1273 C   0  0  0  0  0  0  0  0  0  0  0  0
   18.8142  -13.7493  -15.9103 N   0  0  0  0  0  0  0  0  0  0  0  0
   16.5868  -18.0204  -15.3743 C   0  0  0  0  0  0  0  0  0  0  0  0
   16.2759  -18.4381  -16.5245 O   0  0  0  0  0  0  0  0  0  0  0  0
   15.8189  -18.4800  -14.2853 N   0  0  0  0  0  0  0  0  0  0  0  0
   14.7258  -19.4642  -14.4768 C   0  0  1  0  0  0  0  0  0  0  0  0
   14.5314  -20.2650  -13.2420 C   0  0  0  0  0  0  0  0  0  0  0  0
   13.4757  -21.3121  -13.4339 C   0  0  0  0  0  0  0  0  0  0  0  0
   13.3372  -22.2280  -12.2372 C   0  0  0  0  0  0  0  0  0  0  0  0
   12.2055  -23.2084  -12.5361 C   0  0  0  0  0  0  0  0  0  0  0  0
   11.8968  -23.9284  -11.3173 N   0  0  0  0  0  0  0  0  0  0  0  0
   13.5109  -18.7747  -14.9191 C   0  0  0  0  0  0  0  0  0  0  0  0
   13.2457  -17.6293  -14.4047 O   0  0  0  0  0  0  0  0  0  0  0  0
   12.6414  -19.2725  -15.8460 O   0  0  0  0  0  0  0  0  0  0  0  0
  2  6  1  0
  2  1  1  6
  3  4  1  0
  3  2  1  0
  4  5  2  0
  6  7  2  0
  8  4  1  0
  9 10  1  0
  9  6  1  0
 11 12  1  0
 10 11  1  6
 12 16  1  0
 13 12  2  0
 13 14  1  0
 14 15  1  0
 16 15  2  0
 17 18  2  0
 17 10  1  0
 19 17  1  0
 20 19  1  0
 20 26  1  0
 20 21  1  1
 22 23  1  0
 22 21  1  0
 24 23  1  0
 24 25  1  0
 26 27  2  0
 26 28  1  0
M  END
$$$$
