DHK.pdb
     RDKit          3D

 28 28  0  0  1  0  0  0  0  0999 V2000
   21.5392  -15.5456  -18.0107 N   0  0  0  0  0  0  0  0  0  0  0  0
   21.7416  -15.8134  -16.6139 C   0  0  1  0  0  0  0  0  0  0  0  0
   20.5383  -15.2743  -15.8614 C   0  0  0  0  0  0  0  0  0  0  0  0
   20.6587  -13.8243  -15.5915 C   0  0  0  0  0  0  0  0  0  0  0  0
   21.7040  -13.1572  -15.8708 O   0  0  0  0  0  0  0  0  0  0  0  0
   21.8443  -17.2764  -16.4040 C   0  0  0  0  0  0  0  0  0  0  0  0
   21.0480  -18.0412  -17.0487 O   0  0  0  0  0  0  0  0  0  0  0  0
   19.6096  -13.1135  -15.0083 O   0  0  0  0  0  0  0  0  0  0  0  0
   22.7892  -17.8583  -15.5178 N   0  0  0  0  0  0  0  0  0  0  0  0
   22.8559  -19.2704  -15.3890 C   0  0  1  0  0  0  0  0  0  0  0  0
   24.1311  -19.8431  -14.9056 C   0  0  0  0  0  0  0  0  0  0  0  0
   24.1686  -21.2957  -14.7803 C   0  0  0  0  0  0  0  0  0  0  0  0
   23.1554  -22.1719  -15.0919 C   0  0  0  0  0  0  0  0  0  0  0  0
   23.5822  -23.4343  -14.8326 N   0  0  0  0  0  0  0  0  0  0  0  0
   24.8364  -23.3513  -14.3683 C   0  0  0  0  0  0  0  0  0  0  0  0
   25.1814  -22.0552  -14.3403 N   0  0  0  0  0  0  0  0  0  0  0  0
   21.7518  -19.7893  -14.4877 C   0  0  0  0  0  0  0  0  0  0  0  0
   21.6447  -19.3449  -13.3107 O   0  0  0  0  0  0  0  0  0  0  0  0
   20.8205  -20.7624  -14.9034 N   0  0  0  0  0  0  0  0  0  0  0  0
   19.7603  -21.2517  -13.9886 C   0  0  1  0  0  0  0  0  0  0  0  0
   18.4294  -21.1414  -14.6367 C   0  0  0  0  0  0  0  0  0  0  0  0
   17.7063  -19.9075  -14.1868 C   0  0  0  0  0  0  0  0  0  0  0  0
   16.3808  -19.7175  -14.8919 C   0  0  0  0  0  0  0  0  0  0  0  0
   15.7684  -18.4165  -14.3786 C   0  0  0  0  0  0  0  0  0  0  0  0
   14.5541  -18.1618  -15.1267 N   0  0  0  0  0  0  0  0  0  0  0  0
   20.0790  -22.6111  -13.5440 C   0  0  0  0  0  0  0  0  0  0  0  0
   20.5325  -23.4395  -14.4129 O   0  0  0  0  0  0  0  0  0  0  0  0
   19.9254  -23.0540  -12.2621 O   0  0  0  0  0  0  0  0  0  0  0  0
  2  6  1  0
  2  1  1  6
  3  4  1  0
  3  2  1  0
  4  5  2  0
  6  7  2  0
  8  4  1  0
  9 10  1  0
  9  6  1  0
 11 12  1  0
 10 11  1  1
 12 16  1  0
 13 12  2  0
 13 14  1  0
 14 15  1  0
 16 15  2  0
 17 18  2  0
 17 10  1  0
 19 17  1  0
 20 19  1  0
 20 26  1  0
 20 21  1  6
 22 23  1  0
 22 21  1  0
 24 23  1  0
 24 25  1  0
 26 27  2  0
 26 28  1  0
M  END
$$$$
