DHK.pdb
     RDKit          3D

 28 28  0  0  1  0  0  0  0  0999 V2000
   23.3553  -20.9119  -16.0511 N   0  0  0  0  0  0  0  0  0  0  0  0
   24.0462  -20.2147  -15.0022 C   0  0  1  0  0  0  0  0  0  0  0  0
   24.5299  -18.8916  -15.5681 C   0  0  0  0  0  0  0  0  0  0  0  0
   25.3785  -19.0793  -16.7658 C   0  0  0  0  0  0  0  0  0  0  0  0
   25.6686  -20.2264  -17.2303 O   0  0  0  0  0  0  0  0  0  0  0  0
   23.1115  -19.9634  -13.8806 C   0  0  0  0  0  0  0  0  0  0  0  0
   23.5116  -19.2401  -12.9052 O   0  0  0  0  0  0  0  0  0  0  0  0
   25.9060  -17.9841  -17.4501 O   0  0  0  0  0  0  0  0  0  0  0  0
   21.7943  -20.4932  -13.8482 N   0  0  0  0  0  0  0  0  0  0  0  0
   20.9944  -20.3191  -12.6885 C   0  0  1  0  0  0  0  0  0  0  0  0
   19.9323  -19.2915  -12.7510 C   0  0  0  0  0  0  0  0  0  0  0  0
   19.9289  -18.4526  -13.9441 C   0  0  0  0  0  0  0  0  0  0  0  0
   20.8520  -18.4731  -14.9634 C   0  0  0  0  0  0  0  0  0  0  0  0
   20.4975  -17.5411  -15.8847 N   0  0  0  0  0  0  0  0  0  0  0  0
   19.3762  -16.9487  -15.4521 C   0  0  0  0  0  0  0  0  0  0  0  0
   19.0409  -17.5063  -14.2789 N   0  0  0  0  0  0  0  0  0  0  0  0
   20.3426  -21.6243  -12.2737 C   0  0  0  0  0  0  0  0  0  0  0  0
   20.2822  -22.5818  -13.0946 O   0  0  0  0  0  0  0  0  0  0  0  0
   19.7886  -21.8284  -10.9937 N   0  0  0  0  0  0  0  0  0  0  0  0
   19.0886  -23.0906  -10.6516 C   0  0  1  0  0  0  0  0  0  0  0  0
   19.0240  -23.2609   -9.1783 C   0  0  0  0  0  0  0  0  0  0  0  0
   18.3574  -24.5521   -8.8092 C   0  0  0  0  0  0  0  0  0  0  0  0
   18.1941  -24.7184   -7.3139 C   0  0  0  0  0  0  0  0  0  0  0  0
   17.4893  -26.0513   -7.0731 C   0  0  0  0  0  0  0  0  0  0  0  0
   17.2580  -26.1902   -5.6496 N   0  0  0  0  0  0  0  0  0  0  0  0
   17.7737  -23.1180  -11.2976 C   0  0  0  0  0  0  0  0  0  0  0  0
   17.0991  -22.0272  -11.3398 O   0  0  0  0  0  0  0  0  0  0  0  0
   17.2191  -24.2312  -11.8599 O   0  0  0  0  0  0  0  0  0  0  0  0
  2  6  1  0
  2  1  1  6
  3  4  1  0
  3  2  1  0
  4  5  2  0
  6  7  2  0
  8  4  1  0
  9 10  1  0
  9  6  1  0
 11 12  1  0
 10 11  1  6
 12 16  1  0
 13 12  2  0
 13 14  1  0
 14 15  1  0
 16 15  2  0
 17 18  2  0
 17 10  1  0
 19 17  1  0
 20 19  1  0
 20 26  1  0
 20 21  1  1
 22 23  1  0
 22 21  1  0
 24 23  1  0
 24 25  1  0
 26 27  2  0
 26 28  1  0
M  END
$$$$
