DHK.pdb
     RDKit          3D

 28 28  0  0  1  0  0  0  0  0999 V2000
   22.9455   -8.1642  -16.6357 N   0  0  0  0  0  0  0  0  0  0  0  0
   21.9969   -7.3083  -15.9789 C   0  0  1  0  0  0  0  0  0  0  0  0
   22.7611   -6.4433  -14.9928 C   0  0  0  0  0  0  0  0  0  0  0  0
   21.8538   -5.6845  -14.1035 C   0  0  0  0  0  0  0  0  0  0  0  0
   20.6520   -5.4132  -14.4165 O   0  0  0  0  0  0  0  0  0  0  0  0
   21.3332   -6.4470  -16.9851 C   0  0  0  0  0  0  0  0  0  0  0  0
   22.0639   -5.7128  -17.7347 O   0  0  0  0  0  0  0  0  0  0  0  0
   22.2866   -5.2261  -12.8591 O   0  0  0  0  0  0  0  0  0  0  0  0
   19.9231   -6.4062  -17.1475 N   0  0  0  0  0  0  0  0  0  0  0  0
   19.3568   -5.6185  -18.1839 C   0  0  1  0  0  0  0  0  0  0  0  0
   18.4184   -6.2934  -19.1067 C   0  0  0  0  0  0  0  0  0  0  0  0
   19.0071   -7.2863  -19.9982 C   0  0  0  0  0  0  0  0  0  0  0  0
   20.3182   -7.3437  -20.4096 C   0  0  0  0  0  0  0  0  0  0  0  0
   20.4646   -8.4117  -21.2349 N   0  0  0  0  0  0  0  0  0  0  0  0
   19.2706   -9.0110  -21.3388 C   0  0  0  0  0  0  0  0  0  0  0  0
   18.3969   -8.3234  -20.5881 N   0  0  0  0  0  0  0  0  0  0  0  0
   18.6469   -4.4026  -17.6198 C   0  0  0  0  0  0  0  0  0  0  0  0
   17.9649   -4.5110  -16.5628 O   0  0  0  0  0  0  0  0  0  0  0  0
   18.7093   -3.1318  -18.2268 N   0  0  0  0  0  0  0  0  0  0  0  0
   18.0638   -1.9503  -17.6043 C   0  0  1  0  0  0  0  0  0  0  0  0
   18.7596   -0.7058  -18.0172 C   0  0  0  0  0  0  0  0  0  0  0  0
   18.1784    0.4947  -17.3324 C   0  0  0  0  0  0  0  0  0  0  0  0
   18.8593    1.7843  -17.7366 C   0  0  0  0  0  0  0  0  0  0  0  0
   18.2650    2.9049  -16.8867 C   0  0  0  0  0  0  0  0  0  0  0  0
   19.0448    4.1052  -17.1109 N   0  0  0  0  0  0  0  0  0  0  0  0
   16.6322   -1.9465  -17.9170 C   0  0  0  0  0  0  0  0  0  0  0  0
   15.8888   -1.0799  -17.3310 O   0  0  0  0  0  0  0  0  0  0  0  0
   16.0370   -2.8062  -18.7942 O   0  0  0  0  0  0  0  0  0  0  0  0
  2  6  1  0
  2  1  1  6
  3  4  1  0
  3  2  1  0
  4  5  2  0
  6  7  2  0
  8  4  1  0
  9 10  1  0
  9  6  1  0
 11 12  1  0
 10 11  1  1
 12 16  1  0
 13 12  2  0
 13 14  1  0
 14 15  1  0
 16 15  2  0
 17 18  2  0
 17 10  1  0
 19 17  1  0
 20 19  1  0
 20 26  1  0
 20 21  1  6
 22 23  1  0
 22 21  1  0
 24 23  1  0
 24 25  1  0
 26 27  2  0
 26 28  1  0
M  END
$$$$
