DHK.pdb
     RDKit          3D

 28 28  0  0  1  0  0  0  0  0999 V2000
   23.5854   -7.5657  -19.1251 N   0  0  0  0  0  0  0  0  0  0  0  0
   22.1993   -7.8519  -19.3714 C   0  0  1  0  0  0  0  0  0  0  0  0
   22.0689   -9.3484  -19.5908 C   0  0  0  0  0  0  0  0  0  0  0  0
   22.7781   -9.7925  -20.8113 C   0  0  0  0  0  0  0  0  0  0  0  0
   23.3378  -10.9298  -20.9063 O   0  0  0  0  0  0  0  0  0  0  0  0
   21.3977   -7.4509  -18.1917 C   0  0  0  0  0  0  0  0  0  0  0  0
   20.1303   -7.6143  -18.2329 O   0  0  0  0  0  0  0  0  0  0  0  0
   22.8639   -8.9661  -21.9319 O   0  0  0  0  0  0  0  0  0  0  0  0
   21.9812   -6.8946  -17.0227 N   0  0  0  0  0  0  0  0  0  0  0  0
   21.1465   -6.4307  -15.9723 C   0  0  1  0  0  0  0  0  0  0  0  0
   21.4862   -6.8658  -14.6000 C   0  0  0  0  0  0  0  0  0  0  0  0
   21.2928   -8.2834  -14.3165 C   0  0  0  0  0  0  0  0  0  0  0  0
   20.7722   -9.2268  -15.1711 C   0  0  0  0  0  0  0  0  0  0  0  0
   20.7556  -10.4246  -14.5323 N   0  0  0  0  0  0  0  0  0  0  0  0
   21.2551  -10.2361  -13.3033 C   0  0  0  0  0  0  0  0  0  0  0  0
   21.5765   -8.9392  -13.1827 N   0  0  0  0  0  0  0  0  0  0  0  0
   21.0692   -4.9159  -15.9647 C   0  0  0  0  0  0  0  0  0  0  0  0
   22.0577   -4.2372  -16.3600 O   0  0  0  0  0  0  0  0  0  0  0  0
   19.9282   -4.2116  -15.5296 N   0  0  0  0  0  0  0  0  0  0  0  0
   19.6734   -2.8170  -15.9657 C   0  0  1  0  0  0  0  0  0  0  0  0
   19.6810   -2.7310  -17.4477 C   0  0  0  0  0  0  0  0  0  0  0  0
   19.4776   -1.3198  -17.9113 C   0  0  0  0  0  0  0  0  0  0  0  0
   19.5077   -1.1903  -19.4188 C   0  0  0  0  0  0  0  0  0  0  0  0
   19.2994    0.2836  -19.7586 C   0  0  0  0  0  0  0  0  0  0  0  0
   19.2956    0.4192  -21.2011 N   0  0  0  0  0  0  0  0  0  0  0  0
   18.4306   -2.3289  -15.3620 C   0  0  0  0  0  0  0  0  0  0  0  0
   17.4227   -3.1226  -15.3302 O   0  0  0  0  0  0  0  0  0  0  0  0
   18.2756   -1.0820  -14.8290 O   0  0  0  0  0  0  0  0  0  0  0  0
  2  6  1  0
  2  1  1  1
  3  4  1  0
  3  2  1  0
  4  5  2  0
  6  7  2  0
  8  4  1  0
  9 10  1  0
  9  6  1  0
 11 12  1  0
 10 11  1  1
 12 16  1  0
 13 12  2  0
 13 14  1  0
 14 15  1  0
 16 15  2  0
 17 18  2  0
 17 10  1  0
 19 17  1  0
 20 19  1  0
 20 26  1  0
 20 21  1  6
 22 23  1  0
 22 21  1  0
 24 23  1  0
 24 25  1  0
 26 27  2  0
 26 28  1  0
M  END
$$$$
