QSH.pdb
     RDKit          3D

 26 26  0  0  1  0  0  0  0  0999 V2000
   15.1128  -14.2016   18.0357 N   0  0  0  0  0  0  0  0  0  0  0  0
   14.3094  -15.0539   18.8197 C   0  0  0  0  0  0  0  0  0  0  0  0
   14.7787  -16.1209   19.2777 O   0  0  0  0  0  0  0  0  0  0  0  0
   12.8898  -14.6855   19.1086 C   0  0  0  0  0  0  0  0  0  0  0  0
   12.0485  -15.0074   17.9210 C   0  0  0  0  0  0  0  0  0  0  0  0
   11.6021  -16.4536   17.9282 C   0  0  2  0  0  0  0  0  0  0  0  0
   10.8623  -16.6067   16.6591 N   0  0  0  0  0  0  0  0  0  0  0  0
   10.6833  -16.8127   19.0047 C   0  0  0  0  0  0  0  0  0  0  0  0
    9.4826  -16.3584   19.0107 O   0  0  0  0  0  0  0  0  0  0  0  0
   11.2679  -19.9233   21.8699 O   0  0  0  0  0  0  0  0  0  0  0  0
   10.0481  -19.5709   21.3200 C   0  0  0  0  0  0  0  0  0  0  0  0
    9.9839  -18.0978   21.0302 C   0  0  2  0  0  0  0  0  0  0  0  0
   10.9751  -17.6515   20.0998 N   0  0  0  0  0  0  0  0  0  0  0  0
   10.0136  -17.3231   22.3079 C   0  0  0  0  0  0  0  0  0  0  0  0
   11.0654  -16.7541   22.7024 O   0  0  0  0  0  0  0  0  0  0  0  0
    8.8537  -17.2104   23.1076 N   0  0  0  0  0  0  0  0  0  0  0  0
    8.7724  -16.4472   24.3368 C   0  0  1  0  0  0  0  0  0  0  0  0
    7.5650  -15.5610   24.3752 C   0  0  0  0  0  0  0  0  0  0  0  0
    7.5931  -14.6795   23.1855 C   0  0  0  0  0  0  0  0  0  0  0  0
    8.4526  -13.6400   22.9492 C   0  0  0  0  0  0  0  0  0  0  0  0
    8.1400  -13.0958   21.7625 N   0  0  0  0  0  0  0  0  0  0  0  0
    7.1003  -13.7917   21.2743 C   0  0  0  0  0  0  0  0  0  0  0  0
    6.7625  -14.7611   22.1416 N   0  0  0  0  0  0  0  0  0  0  0  0
    8.8893  -17.2938   25.5353 C   0  0  0  0  0  0  0  0  0  0  0  0
    8.9162  -16.6917   26.7816 O   0  0  0  0  0  0  0  0  0  0  0  0
    8.9671  -18.5466   25.4822 O   0  0  0  0  0  0  0  0  0  0  0  0
  1  2  1  0
  2  4  1  0
  2  3  2  0
  4  5  1  0
  6  5  1  0
  6  8  1  0
  6  7  1  6
  8  9  2  0
 10 11  1  0
 12 11  1  1
 12 14  1  0
 13  8  1  0
 13 12  1  0
 14 15  2  0
 16 17  1  0
 16 14  1  0
 17 24  1  0
 17 18  1  1
 19 18  1  0
 20 19  2  0
 21 22  1  0
 21 20  1  0
 22 23  2  0
 23 19  1  0
 24 26  2  0
 24 25  1  0
M  END
$$$$
