QSH.pdb
     RDKit          3D

 26 26  0  0  1  0  0  0  0  0999 V2000
   11.7086  -16.5922   13.8324 N   0  0  0  0  0  0  0  0  0  0  0  0
   10.7576  -16.4163   12.8072 C   0  0  0  0  0  0  0  0  0  0  0  0
   11.0934  -16.5328   11.6062 O   0  0  0  0  0  0  0  0  0  0  0  0
    9.3400  -16.0897   13.1511 C   0  0  0  0  0  0  0  0  0  0  0  0
    9.1921  -16.0501   14.6337 C   0  0  0  0  0  0  0  0  0  0  0  0
    8.9091  -17.4232   15.2039 C   0  0  2  0  0  0  0  0  0  0  0  0
    7.5411  -17.7294   14.7391 N   0  0  0  0  0  0  0  0  0  0  0  0
    8.8918  -17.4968   16.6621 C   0  0  0  0  0  0  0  0  0  0  0  0
    8.0918  -16.7553   17.3390 O   0  0  0  0  0  0  0  0  0  0  0  0
    9.8056  -19.7810   20.8176 O   0  0  0  0  0  0  0  0  0  0  0  0
   10.1302  -19.6702   19.4770 C   0  0  0  0  0  0  0  0  0  0  0  0
    9.5861  -18.4003   18.8858 C   0  0  2  0  0  0  0  0  0  0  0  0
    9.6939  -18.3379   17.4604 N   0  0  0  0  0  0  0  0  0  0  0  0
   10.2069  -17.2170   19.5552 C   0  0  0  0  0  0  0  0  0  0  0  0
   11.0489  -16.4960   18.9580 O   0  0  0  0  0  0  0  0  0  0  0  0
    9.8599  -16.8779   20.8827 N   0  0  0  0  0  0  0  0  0  0  0  0
   10.4457  -15.7853   21.6330 C   0  0  1  0  0  0  0  0  0  0  0  0
    9.4216  -14.7809   22.0654 C   0  0  0  0  0  0  0  0  0  0  0  0
    8.9720  -14.0273   20.8725 C   0  0  0  0  0  0  0  0  0  0  0  0
    9.3971  -14.1958   19.5818 C   0  0  0  0  0  0  0  0  0  0  0  0
    8.7491  -13.3127   18.8056 N   0  0  0  0  0  0  0  0  0  0  0  0
    7.9352  -12.6087   19.6090 C   0  0  0  0  0  0  0  0  0  0  0  0
    8.0684  -13.0424   20.8740 N   0  0  0  0  0  0  0  0  0  0  0  0
   11.2839  -16.2529   22.7491 C   0  0  0  0  0  0  0  0  0  0  0  0
   12.1336  -15.3547   23.3718 O   0  0  0  0  0  0  0  0  0  0  0  0
   11.2662  -17.4373   23.1675 O   0  0  0  0  0  0  0  0  0  0  0  0
  1  2  1  0
  2  4  1  0
  2  3  2  0
  4  5  1  0
  6  5  1  0
  6  8  1  0
  6  7  1  6
  8  9  2  0
 10 11  1  0
 12 11  1  1
 12 14  1  0
 13  8  1  0
 13 12  1  0
 14 15  2  0
 16 17  1  0
 16 14  1  0
 17 24  1  0
 17 18  1  1
 19 18  1  0
 20 19  2  0
 21 22  1  0
 21 20  1  0
 22 23  2  0
 23 19  1  0
 24 26  2  0
 24 25  1  0
M  END
$$$$
