QSH.pdb
     RDKit          3D

 26 26  0  0  1  0  0  0  0  0999 V2000
    6.1905  -17.5766   15.1954 N   0  0  0  0  0  0  0  0  0  0  0  0
    7.1176  -17.7629   14.1503 C   0  0  0  0  0  0  0  0  0  0  0  0
    6.7400  -18.2063   13.0415 O   0  0  0  0  0  0  0  0  0  0  0  0
    8.5594  -17.4301   14.3623 C   0  0  0  0  0  0  0  0  0  0  0  0
    8.7480  -16.9335   15.7550 C   0  0  0  0  0  0  0  0  0  0  0  0
    8.4715  -15.4493   15.8611 C   0  0  2  0  0  0  0  0  0  0  0  0
    9.3300  -14.8494   14.8198 N   0  0  0  0  0  0  0  0  0  0  0  0
    8.8503  -14.8381   17.1319 C   0  0  0  0  0  0  0  0  0  0  0  0
   10.0683  -14.8823   17.5349 O   0  0  0  0  0  0  0  0  0  0  0  0
    7.5405  -13.0845   21.4903 O   0  0  0  0  0  0  0  0  0  0  0  0
    7.1882  -13.2794   20.1665 C   0  0  0  0  0  0  0  0  0  0  0  0
    8.2976  -13.9388   19.3967 C   0  0  2  0  0  0  0  0  0  0  0  0
    7.9865  -14.1623   18.0181 N   0  0  0  0  0  0  0  0  0  0  0  0
    8.7301  -15.1892   20.0919 C   0  0  0  0  0  0  0  0  0  0  0  0
    8.2561  -16.3112   19.7727 O   0  0  0  0  0  0  0  0  0  0  0  0
    9.6878  -15.1401   21.1302 N   0  0  0  0  0  0  0  0  0  0  0  0
   10.4317  -16.2838   21.6185 C   0  0  1  0  0  0  0  0  0  0  0  0
   11.0906  -17.0470   20.5102 C   0  0  0  0  0  0  0  0  0  0  0  0
   10.5408  -18.4220   20.4972 C   0  0  0  0  0  0  0  0  0  0  0  0
    9.6086  -18.9458   21.3527 C   0  0  0  0  0  0  0  0  0  0  0  0
    9.3881  -20.2236   21.0050 N   0  0  0  0  0  0  0  0  0  0  0  0
   10.1753  -20.4833   19.9485 C   0  0  0  0  0  0  0  0  0  0  0  0
   10.8823  -19.3843   19.6347 N   0  0  0  0  0  0  0  0  0  0  0  0
   11.3707  -15.9283   22.6948 C   0  0  0  0  0  0  0  0  0  0  0  0
   11.9525  -16.9406   23.4387 O   0  0  0  0  0  0  0  0  0  0  0  0
   11.6723  -14.7412   22.9743 O   0  0  0  0  0  0  0  0  0  0  0  0
  1  2  1  0
  2  4  1  0
  2  3  2  0
  4  5  1  0
  6  5  1  0
  6  8  1  0
  6  7  1  6
  8  9  2  0
 10 11  1  0
 12 11  1  1
 12 14  1  0
 13  8  1  0
 13 12  1  0
 14 15  2  0
 16 17  1  0
 16 14  1  0
 17 24  1  0
 17 18  1  6
 19 18  1  0
 20 19  2  0
 21 22  1  0
 21 20  1  0
 22 23  2  0
 23 19  1  0
 24 26  2  0
 24 25  1  0
M  END
$$$$
