QSH.pdb
     RDKit          3D

 26 26  0  0  1  0  0  0  0  0999 V2000
    7.6239  -12.5941   20.1418 N   0  0  0  0  0  0  0  0  0  0  0  0
    8.0724  -13.3148   19.0167 C   0  0  0  0  0  0  0  0  0  0  0  0
    7.8970  -12.8600   17.8630 O   0  0  0  0  0  0  0  0  0  0  0  0
    8.7620  -14.6288   19.1973 C   0  0  0  0  0  0  0  0  0  0  0  0
    8.8859  -14.9210   20.6537 C   0  0  0  0  0  0  0  0  0  0  0  0
    9.5697  -16.2484   20.9008 C   0  0  2  0  0  0  0  0  0  0  0  0
    8.8975  -17.1769   19.9696 N   0  0  0  0  0  0  0  0  0  0  0  0
    9.3986  -16.7925   22.2450 C   0  0  0  0  0  0  0  0  0  0  0  0
    8.2817  -16.6547   22.8626 O   0  0  0  0  0  0  0  0  0  0  0  0
   11.6212  -19.8589   23.8669 O   0  0  0  0  0  0  0  0  0  0  0  0
   10.3675  -19.5348   24.3548 C   0  0  0  0  0  0  0  0  0  0  0  0
   10.1166  -18.0552   24.2781 C   0  0  2  0  0  0  0  0  0  0  0  0
   10.3706  -17.4956   22.9859 N   0  0  0  0  0  0  0  0  0  0  0  0
   10.8697  -17.3515   25.3604 C   0  0  0  0  0  0  0  0  0  0  0  0
   12.0182  -16.8778   25.1551 O   0  0  0  0  0  0  0  0  0  0  0  0
   10.3057  -17.2003   26.6475 N   0  0  0  0  0  0  0  0  0  0  0  0
   11.0254  -16.7213   27.8104 C   0  0  1  0  0  0  0  0  0  0  0  0
   10.1822  -15.8324   28.6727 C   0  0  0  0  0  0  0  0  0  0  0  0
    9.7225  -14.6863   27.8553 C   0  0  0  0  0  0  0  0  0  0  0  0
   10.0413  -14.4237   26.5497 C   0  0  0  0  0  0  0  0  0  0  0  0
    9.4247  -13.2883   26.1852 N   0  0  0  0  0  0  0  0  0  0  0  0
    8.7349  -12.8569   27.2536 C   0  0  0  0  0  0  0  0  0  0  0  0
    8.9144  -13.7089   28.2774 N   0  0  0  0  0  0  0  0  0  0  0  0
   11.6571  -17.8115   28.5715 C   0  0  0  0  0  0  0  0  0  0  0  0
   11.4543  -19.1190   28.1639 O   0  0  0  0  0  0  0  0  0  0  0  0
   12.3768  -17.6121   29.5816 O   0  0  0  0  0  0  0  0  0  0  0  0
  1  2  1  0
  2  4  1  0
  2  3  2  0
  4  5  1  0
  6  5  1  0
  6  8  1  0
  6  7  1  6
  8  9  2  0
 10 11  1  0
 12 11  1  6
 12 14  1  0
 13  8  1  0
 13 12  1  0
 14 15  2  0
 16 17  1  0
 16 14  1  0
 17 24  1  0
 17 18  1  1
 19 18  1  0
 20 19  2  0
 21 22  1  0
 21 20  1  0
 22 23  2  0
 23 19  1  0
 24 26  2  0
 24 25  1  0
M  END
$$$$
