QSH.pdb
     RDKit          3D

 26 26  0  0  1  0  0  0  0  0999 V2000
   14.3326  -17.6788   13.0129 N   0  0  0  0  0  0  0  0  0  0  0  0
   12.9287  -17.7134   13.1324 C   0  0  0  0  0  0  0  0  0  0  0  0
   12.2035  -17.5174   12.1303 O   0  0  0  0  0  0  0  0  0  0  0  0
   12.2984  -17.9858   14.4603 C   0  0  0  0  0  0  0  0  0  0  0  0
   13.3682  -18.2093   15.4739 C   0  0  0  0  0  0  0  0  0  0  0  0
   12.7904  -18.5674   16.8261 C   0  0  2  0  0  0  0  0  0  0  0  0
   11.3824  -18.1296   16.7418 N   0  0  0  0  0  0  0  0  0  0  0  0
   13.3884  -17.8681   17.9599 C   0  0  0  0  0  0  0  0  0  0  0  0
   14.5647  -18.1815   18.3676 O   0  0  0  0  0  0  0  0  0  0  0  0
   13.9423  -14.0055   18.7495 O   0  0  0  0  0  0  0  0  0  0  0  0
   13.2131  -14.6406   19.7393 C   0  0  0  0  0  0  0  0  0  0  0  0
   13.4715  -16.1209   19.7443 C   0  0  2  0  0  0  0  0  0  0  0  0
   12.7932  -16.8261   18.7002 N   0  0  0  0  0  0  0  0  0  0  0  0
   13.1785  -16.6871   21.0961 C   0  0  0  0  0  0  0  0  0  0  0  0
   12.0126  -17.0354   21.4196 O   0  0  0  0  0  0  0  0  0  0  0  0
   14.2109  -16.8458   22.0483 N   0  0  0  0  0  0  0  0  0  0  0  0
   14.0215  -17.3605   23.3895 C   0  0  1  0  0  0  0  0  0  0  0  0
   14.9048  -18.5364   23.6757 C   0  0  0  0  0  0  0  0  0  0  0  0
   14.4974  -19.6538   22.7932 C   0  0  0  0  0  0  0  0  0  0  0  0
   13.4799  -19.6523   21.8767 C   0  0  0  0  0  0  0  0  0  0  0  0
   13.4382  -20.8596   21.2911 N   0  0  0  0  0  0  0  0  0  0  0  0
   14.4179  -21.5955   21.8408 C   0  0  0  0  0  0  0  0  0  0  0  0
   15.0681  -20.8619   22.7602 N   0  0  0  0  0  0  0  0  0  0  0  0
   14.1281  -16.3115   24.4167 C   0  0  0  0  0  0  0  0  0  0  0  0
   13.7807  -16.6137   25.7223 O   0  0  0  0  0  0  0  0  0  0  0  0
   14.5217  -15.1455   24.1644 O   0  0  0  0  0  0  0  0  0  0  0  0
  1  2  1  0
  2  4  1  0
  2  3  2  0
  4  5  1  0
  6  5  1  0
  6  8  1  0
  6  7  1  6
  8  9  2  0
 10 11  1  0
 12 11  1  1
 12 14  1  0
 13  8  1  0
 13 12  1  0
 14 15  2  0
 16 17  1  0
 16 14  1  0
 17 24  1  0
 17 18  1  1
 19 18  1  0
 20 19  2  0
 21 22  1  0
 21 20  1  0
 22 23  2  0
 23 19  1  0
 24 26  2  0
 24 25  1  0
M  END
$$$$
