QSH.pdb
     RDKit          3D

 26 26  0  0  1  0  0  0  0  0999 V2000
   13.7429  -15.9769   18.7891 N   0  0  0  0  0  0  0  0  0  0  0  0
   13.4204  -14.6485   19.1326 C   0  0  0  0  0  0  0  0  0  0  0  0
   14.3276  -13.8204   19.3773 O   0  0  0  0  0  0  0  0  0  0  0  0
   11.9896  -14.2220   19.2055 C   0  0  0  0  0  0  0  0  0  0  0  0
   11.1173  -15.3630   18.8069 C   0  0  0  0  0  0  0  0  0  0  0  0
    9.6510  -14.9924   18.8658 C   0  0  2  0  0  0  0  0  0  0  0  0
    9.5911  -13.6633   18.2245 N   0  0  0  0  0  0  0  0  0  0  0  0
    9.1036  -14.8429   20.2112 C   0  0  0  0  0  0  0  0  0  0  0  0
    9.2394  -13.7360   20.8469 O   0  0  0  0  0  0  0  0  0  0  0  0
    6.9084  -17.7856   22.3986 O   0  0  0  0  0  0  0  0  0  0  0  0
    6.5889  -16.4416   22.4766 C   0  0  0  0  0  0  0  0  0  0  0  0
    7.7879  -15.5778   22.2043 C   0  0  2  0  0  0  0  0  0  0  0  0
    8.3992  -15.8269   20.9349 N   0  0  0  0  0  0  0  0  0  0  0  0
    8.7609  -15.6818   23.3340 C   0  0  0  0  0  0  0  0  0  0  0  0
    9.8388  -16.3209   23.2109 O   0  0  0  0  0  0  0  0  0  0  0  0
    8.4913  -15.0604   24.5746 N   0  0  0  0  0  0  0  0  0  0  0  0
    9.3162  -15.1941   25.7585 C   0  0  1  0  0  0  0  0  0  0  0  0
    8.7948  -14.3857   26.9072 C   0  0  0  0  0  0  0  0  0  0  0  0
    9.7552  -14.4931   28.0293 C   0  0  0  0  0  0  0  0  0  0  0  0
   11.1195  -14.5728   27.9427 C   0  0  0  0  0  0  0  0  0  0  0  0
   11.6165  -14.6632   29.1865 N   0  0  0  0  0  0  0  0  0  0  0  0
   10.5707  -14.6397   30.0286 C   0  0  0  0  0  0  0  0  0  0  0  0
    9.4303  -14.5360   29.3251 N   0  0  0  0  0  0  0  0  0  0  0  0
    9.5582  -16.5999   26.1217 C   0  0  0  0  0  0  0  0  0  0  0  0
    8.4936  -17.4850   26.1230 O   0  0  0  0  0  0  0  0  0  0  0  0
   10.6928  -17.0396   26.4337 O   0  0  0  0  0  0  0  0  0  0  0  0
  1  2  1  0
  2  4  1  0
  2  3  2  0
  4  5  1  0
  6  5  1  0
  6  8  1  0
  6  7  1  6
  8  9  2  0
 10 11  1  0
 12 11  1  1
 12 14  1  0
 13  8  1  0
 13 12  1  0
 14 15  2  0
 16 17  1  0
 16 14  1  0
 17 24  1  0
 17 18  1  1
 19 18  1  0
 20 19  2  0
 21 22  1  0
 21 20  1  0
 22 23  2  0
 23 19  1  0
 24 26  2  0
 24 25  1  0
M  END
$$$$
