QSH.pdb
     RDKit          3D

 26 26  0  0  1  0  0  0  0  0999 V2000
    7.0584  -13.3017   16.2568 N   0  0  0  0  0  0  0  0  0  0  0  0
    8.2262  -13.4363   17.0345 C   0  0  0  0  0  0  0  0  0  0  0  0
    9.2509  -13.9689   16.5500 O   0  0  0  0  0  0  0  0  0  0  0  0
    8.2457  -12.9415   18.4449 C   0  0  0  0  0  0  0  0  0  0  0  0
    7.6441  -13.9746   19.3351 C   0  0  0  0  0  0  0  0  0  0  0  0
    8.4822  -15.2342   19.3751 C   0  0  2  0  0  0  0  0  0  0  0  0
    7.9155  -16.0761   18.3021 N   0  0  0  0  0  0  0  0  0  0  0  0
    8.3893  -16.0009   20.6143 C   0  0  0  0  0  0  0  0  0  0  0  0
    7.2739  -16.5293   20.9674 O   0  0  0  0  0  0  0  0  0  0  0  0
   10.0096  -19.2360   23.5574 O   0  0  0  0  0  0  0  0  0  0  0  0
   10.2048  -18.3656   22.4996 C   0  0  0  0  0  0  0  0  0  0  0  0
    9.3307  -17.1496   22.6236 C   0  0  2  0  0  0  0  0  0  0  0  0
    9.4422  -16.2467   21.5192 N   0  0  0  0  0  0  0  0  0  0  0  0
    9.5740  -16.4759   23.9354 C   0  0  0  0  0  0  0  0  0  0  0  0
   10.5402  -15.6842   24.0937 O   0  0  0  0  0  0  0  0  0  0  0  0
    8.7188  -16.7137   25.0353 N   0  0  0  0  0  0  0  0  0  0  0  0
    8.8761  -16.1137   26.3449 C   0  0  1  0  0  0  0  0  0  0  0  0
    7.5777  -15.6101   26.8976 C   0  0  0  0  0  0  0  0  0  0  0  0
    7.2645  -14.3151   26.2511 C   0  0  0  0  0  0  0  0  0  0  0  0
    8.1199  -13.5240   25.5317 C   0  0  0  0  0  0  0  0  0  0  0  0
    7.4462  -12.4368   25.1236 N   0  0  0  0  0  0  0  0  0  0  0  0
    6.1914  -12.5571   25.5865 C   0  0  0  0  0  0  0  0  0  0  0  0
    6.0759  -13.7043   26.2769 N   0  0  0  0  0  0  0  0  0  0  0  0
    9.5870  -16.9935   27.2869 C   0  0  0  0  0  0  0  0  0  0  0  0
    9.8793  -16.5214   28.5551 O   0  0  0  0  0  0  0  0  0  0  0  0
    9.9450  -18.1614   26.9938 O   0  0  0  0  0  0  0  0  0  0  0  0
  1  2  1  0
  2  4  1  0
  2  3  2  0
  4  5  1  0
  6  5  1  0
  6  8  1  0
  6  7  1  6
  8  9  2  0
 10 11  1  0
 12 11  1  6
 12 14  1  0
 13  8  1  0
 13 12  1  0
 14 15  2  0
 16 17  1  0
 16 14  1  0
 17 24  1  0
 17 18  1  1
 19 18  1  0
 20 19  2  0
 21 22  1  0
 21 20  1  0
 22 23  2  0
 23 19  1  0
 24 26  2  0
 24 25  1  0
M  END
$$$$
