QSH.pdb
     RDKit          3D

 26 26  0  0  1  0  0  0  0  0999 V2000
   16.6232  -13.0012   18.9405 N   0  0  0  0  0  0  0  0  0  0  0  0
   15.9991  -13.9823   18.1440 C   0  0  0  0  0  0  0  0  0  0  0  0
   16.6881  -14.7861   17.4749 O   0  0  0  0  0  0  0  0  0  0  0  0
   14.5075  -14.0674   18.0956 C   0  0  0  0  0  0  0  0  0  0  0  0
   14.0878  -15.4721   18.3647 C   0  0  0  0  0  0  0  0  0  0  0  0
   12.5920  -15.6469   18.2139 C   0  0  2  0  0  0  0  0  0  0  0  0
   12.0720  -14.2652   18.1723 N   0  0  0  0  0  0  0  0  0  0  0  0
   11.9314  -16.3191   19.3292 C   0  0  0  0  0  0  0  0  0  0  0  0
   11.5795  -15.6547   20.3697 O   0  0  0  0  0  0  0  0  0  0  0  0
   11.2163  -20.4736   19.6152 O   0  0  0  0  0  0  0  0  0  0  0  0
   10.3192  -19.6110   20.2201 C   0  0  0  0  0  0  0  0  0  0  0  0
   10.9565  -18.2847   20.5247 C   0  0  2  0  0  0  0  0  0  0  0  0
   11.6125  -17.6907   19.4003 N   0  0  0  0  0  0  0  0  0  0  0  0
   11.8598  -18.4107   21.7087 C   0  0  0  0  0  0  0  0  0  0  0  0
   13.1032  -18.2432   21.6022 O   0  0  0  0  0  0  0  0  0  0  0  0
   11.3351  -18.7225   22.9834 N   0  0  0  0  0  0  0  0  0  0  0  0
   12.1367  -19.0346   24.1496 C   0  0  1  0  0  0  0  0  0  0  0  0
   11.4429  -18.6741   25.4277 C   0  0  0  0  0  0  0  0  0  0  0  0
   11.0328  -17.2530   25.3531 C   0  0  0  0  0  0  0  0  0  0  0  0
   11.3768  -16.3447   24.3877 C   0  0  0  0  0  0  0  0  0  0  0  0
   10.8039  -15.1692   24.6914 N   0  0  0  0  0  0  0  0  0  0  0  0
   10.1159  -15.3516   25.8302 C   0  0  0  0  0  0  0  0  0  0  0  0
   10.2534  -16.6246   26.2385 N   0  0  0  0  0  0  0  0  0  0  0  0
   12.6235  -20.4237   24.1443 C   0  0  0  0  0  0  0  0  0  0  0  0
   13.8708  -20.6992   24.6782 O   0  0  0  0  0  0  0  0  0  0  0  0
   11.9574  -21.3796   23.6745 O   0  0  0  0  0  0  0  0  0  0  0  0
  1  2  1  0
  2  4  1  0
  2  3  2  0
  4  5  1  0
  6  5  1  0
  6  8  1  0
  6  7  1  1
  8  9  2  0
 10 11  1  0
 12 11  1  6
 12 14  1  0
 13  8  1  0
 13 12  1  0
 14 15  2  0
 16 17  1  0
 16 14  1  0
 17 24  1  0
 17 18  1  1
 19 18  1  0
 20 19  2  0
 21 22  1  0
 21 20  1  0
 22 23  2  0
 23 19  1  0
 24 26  2  0
 24 25  1  0
M  END
$$$$
