QSH.pdb
     RDKit          3D

 26 26  0  0  1  0  0  0  0  0999 V2000
   10.5371  -11.5520   11.4618 N   0  0  0  0  0  0  0  0  0  0  0  0
    9.2729  -12.1602   11.3259 C   0  0  0  0  0  0  0  0  0  0  0  0
    8.5325  -11.8708   10.3580 O   0  0  0  0  0  0  0  0  0  0  0  0
    8.8104  -13.1566   12.3397 C   0  0  0  0  0  0  0  0  0  0  0  0
    9.2765  -14.5148   11.9400 C   0  0  0  0  0  0  0  0  0  0  0  0
    8.8627  -15.5662   12.9470 C   0  0  2  0  0  0  0  0  0  0  0  0
    7.4040  -15.6932   12.7537 N   0  0  0  0  0  0  0  0  0  0  0  0
    9.0788  -15.2040   14.3449 C   0  0  0  0  0  0  0  0  0  0  0  0
   10.2324  -14.8020   14.7394 O   0  0  0  0  0  0  0  0  0  0  0  0
    7.9706  -14.0702   18.8336 O   0  0  0  0  0  0  0  0  0  0  0  0
    7.5076  -14.2737   17.5456 C   0  0  0  0  0  0  0  0  0  0  0  0
    8.4423  -15.1500   16.7605 C   0  0  2  0  0  0  0  0  0  0  0  0
    8.1127  -15.2421   15.3712 N   0  0  0  0  0  0  0  0  0  0  0  0
    8.5517  -16.4920   17.4091 C   0  0  0  0  0  0  0  0  0  0  0  0
    7.8936  -17.4781   16.9847 O   0  0  0  0  0  0  0  0  0  0  0  0
    9.4025  -16.6861   18.5209 N   0  0  0  0  0  0  0  0  0  0  0  0
   10.4621  -17.6726   18.5841 C   0  0  1  0  0  0  0  0  0  0  0  0
   11.3739  -17.6024   17.3973 C   0  0  0  0  0  0  0  0  0  0  0  0
   12.3179  -18.7415   17.4642 C   0  0  0  0  0  0  0  0  0  0  0  0
   12.3352  -19.7450   18.3958 C   0  0  0  0  0  0  0  0  0  0  0  0
   13.3500  -20.5739   18.1039 N   0  0  0  0  0  0  0  0  0  0  0  0
   13.9505  -20.0863   17.0062 C   0  0  0  0  0  0  0  0  0  0  0  0
   13.3227  -18.9655   16.6117 N   0  0  0  0  0  0  0  0  0  0  0  0
   11.1937  -17.6336   19.8609 C   0  0  0  0  0  0  0  0  0  0  0  0
   11.9709  -16.5262   20.1549 O   0  0  0  0  0  0  0  0  0  0  0  0
   11.1476  -18.5640   20.7037 O   0  0  0  0  0  0  0  0  0  0  0  0
  1  2  1  0
  2  4  1  0
  2  3  2  0
  4  5  1  0
  6  5  1  0
  6  8  1  0
  6  7  1  1
  8  9  2  0
 10 11  1  0
 12 11  1  1
 12 14  1  0
 13  8  1  0
 13 12  1  0
 14 15  2  0
 16 17  1  0
 16 14  1  0
 17 24  1  0
 17 18  1  6
 19 18  1  0
 20 19  2  0
 21 22  1  0
 21 20  1  0
 22 23  2  0
 23 19  1  0
 24 26  2  0
 24 25  1  0
M  END
$$$$
