WFV.pdb
     RDKit          3D

 33 35  0  0  1  0  0  0  0  0999 V2000
   27.3870  -20.1963  -19.0777 N   0  0  0  0  0  0  0  0  0  0  0  0
   26.9870  -19.2101  -18.0935 C   0  0  1  0  0  0  0  0  0  0  0  0
   25.8594  -18.3395  -18.6008 C   0  0  0  0  0  0  0  0  0  0  0  0
   26.1886  -17.5917  -19.8257 C   0  0  0  0  0  0  0  0  0  0  0  0
   25.7802  -17.8698  -21.1132 C   0  0  0  0  0  0  0  0  0  0  0  0
   26.3213  -16.9256  -21.8980 N   0  0  0  0  0  0  0  0  0  0  0  0
   27.0506  -16.0663  -21.1673 C   0  0  0  0  0  0  0  0  0  0  0  0
   27.7879  -14.9419  -21.5300 C   0  0  0  0  0  0  0  0  0  0  0  0
   28.4463  -14.2408  -20.5423 C   0  0  0  0  0  0  0  0  0  0  0  0
   28.3751  -14.6454  -19.2266 C   0  0  0  0  0  0  0  0  0  0  0  0
   27.6522  -15.7527  -18.8502 C   0  0  0  0  0  0  0  0  0  0  0  0
   26.9909  -16.4581  -19.8367 C   0  0  0  0  0  0  0  0  0  0  0  0
   26.4670  -19.8943  -16.8772 C   0  0  0  0  0  0  0  0  0  0  0  0
   25.8722  -20.9929  -16.9783 O   0  0  0  0  0  0  0  0  0  0  0  0
   26.6364  -19.3182  -15.6068 N   0  0  0  0  0  0  0  0  0  0  0  0
   26.1422  -20.0671  -14.4334 C   0  0  1  0  0  0  0  0  0  0  0  0
   27.0549  -19.7072  -13.3178 C   0  0  0  0  0  0  0  0  0  0  0  0
   26.6477  -20.0972  -11.9678 C   0  0  0  0  0  0  0  0  0  0  0  0
   26.8934  -21.3685  -11.4923 C   0  0  0  0  0  0  0  0  0  0  0  0
   26.5453  -21.7618  -10.2222 C   0  0  0  0  0  0  0  0  0  0  0  0
   25.9297  -20.8672   -9.3844 C   0  0  0  0  0  0  0  0  0  0  0  0
   25.6632  -19.5795   -9.8194 C   0  0  0  0  0  0  0  0  0  0  0  0
   26.0315  -19.2187  -11.1145 C   0  0  0  0  0  0  0  0  0  0  0  0
   24.7313  -19.7791  -14.3154 C   0  0  0  0  0  0  0  0  0  0  0  0
   24.3463  -18.5703  -14.5070 O   0  0  0  0  0  0  0  0  0  0  0  0
   21.4125  -22.1544  -15.0319 C   0  0  0  0  0  0  0  0  0  0  0  0
   21.3465  -20.6594  -14.8178 C   0  0  2  0  0  0  0  0  0  0  0  0
   21.7349  -19.9810  -16.1136 C   0  0  0  0  0  0  0  0  0  0  0  0
   22.3186  -20.2089  -13.7432 C   0  0  2  0  0  0  0  0  0  0  0  0
   23.6632  -20.6652  -14.0124 N   0  0  0  0  0  0  0  0  0  0  0  0
   21.8562  -20.8042  -12.4734 C   0  0  0  0  0  0  0  0  0  0  0  0
   22.4680  -21.8850  -11.8512 O   0  0  0  0  0  0  0  0  0  0  0  0
   20.8403  -20.3452  -11.8614 O   0  0  0  0  0  0  0  0  0  0  0  0
  2  3  1  0
  2  1  1  6
  4  3  1  0
  5  4  2  0
  6  5  1  0
  7 12  2  0
  7  6  1  0
  8  7  1  0
  9  8  2  0
  9 10  1  0
 10 11  2  0
 11 12  1  0
 12  4  1  0
 13  2  1  0
 13 14  2  0
 15 13  1  0
 16 15  1  0
 16 17  1  1
 18 19  2  0
 18 17  1  0
 20 19  1  0
 21 20  2  0
 22 21  1  0
 22 23  2  0
 23 18  1  0
 24 16  1  0
 25 24  2  0
 27 28  1  6
 27 26  1  0
 29 27  1  0
 29 30  1  6
 30 24  1  0
 31 32  1  0
 31 29  1  0
 33 31  2  0
M  END
$$$$
