WFV.pdb
     RDKit          3D

 33 35  0  0  1  0  0  0  0  0999 V2000
   25.7963  -21.8824  -12.7021 N   0  0  0  0  0  0  0  0  0  0  0  0
   25.4429  -20.8409  -11.7579 C   0  0  1  0  0  0  0  0  0  0  0  0
   23.9542  -20.8066  -11.4947 C   0  0  0  0  0  0  0  0  0  0  0  0
   23.2092  -19.9171  -12.4011 C   0  0  0  0  0  0  0  0  0  0  0  0
   23.6097  -19.4519  -13.6360 C   0  0  0  0  0  0  0  0  0  0  0  0
   22.6149  -18.6763  -14.0932 N   0  0  0  0  0  0  0  0  0  0  0  0
   21.6072  -18.6305  -13.2063 C   0  0  0  0  0  0  0  0  0  0  0  0
   20.3821  -17.9688  -13.2354 C   0  0  0  0  0  0  0  0  0  0  0  0
   19.5325  -18.1109  -12.1592 C   0  0  0  0  0  0  0  0  0  0  0  0
   19.8894  -18.8905  -11.0800 C   0  0  0  0  0  0  0  0  0  0  0  0
   21.0943  -19.5509  -11.0339 C   0  0  0  0  0  0  0  0  0  0  0  0
   21.9488  -19.4113  -12.1102 C   0  0  0  0  0  0  0  0  0  0  0  0
   26.0897  -21.1114  -10.4440 C   0  0  0  0  0  0  0  0  0  0  0  0
   26.2007  -22.2882  -10.0270 O   0  0  0  0  0  0  0  0  0  0  0  0
   26.5810  -20.0544   -9.6593 N   0  0  0  0  0  0  0  0  0  0  0  0
   27.2579  -20.3886   -8.3896 C   0  0  1  0  0  0  0  0  0  0  0  0
   28.4055  -19.4504   -8.2908 C   0  0  0  0  0  0  0  0  0  0  0  0
   29.0755  -19.3470   -6.9944 C   0  0  0  0  0  0  0  0  0  0  0  0
   29.8727  -20.3698   -6.5242 C   0  0  0  0  0  0  0  0  0  0  0  0
   30.5349  -20.2968   -5.3222 C   0  0  0  0  0  0  0  0  0  0  0  0
   30.4079  -19.1705   -4.5499 C   0  0  0  0  0  0  0  0  0  0  0  0
   29.6177  -18.1183   -4.9821 C   0  0  0  0  0  0  0  0  0  0  0  0
   28.9621  -18.2302   -6.2071 C   0  0  0  0  0  0  0  0  0  0  0  0
   26.2452  -20.3802   -7.3591 C   0  0  0  0  0  0  0  0  0  0  0  0
   25.2809  -19.5413   -7.4706 O   0  0  0  0  0  0  0  0  0  0  0  0
   25.0220  -23.3546   -4.5982 C   0  0  0  0  0  0  0  0  0  0  0  0
   24.2736  -22.0723   -4.8831 C   0  0  2  0  0  0  0  0  0  0  0  0
   23.4581  -22.2736   -6.1420 C   0  0  0  0  0  0  0  0  0  0  0  0
   25.2255  -20.9149   -5.1213 C   0  0  2  0  0  0  0  0  0  0  0  0
   26.1479  -21.1934   -6.1985 N   0  0  0  0  0  0  0  0  0  0  0  0
   25.9907  -20.7283   -3.8721 C   0  0  0  0  0  0  0  0  0  0  0  0
   25.4381  -20.2786   -2.6797 O   0  0  0  0  0  0  0  0  0  0  0  0
   27.2367  -20.9767   -3.8189 O   0  0  0  0  0  0  0  0  0  0  0  0
  2  3  1  0
  2  1  1  6
  4  3  1  0
  5  4  2  0
  6  5  1  0
  7 12  2  0
  7  6  1  0
  8  7  1  0
  9  8  2  0
  9 10  1  0
 10 11  2  0
 11 12  1  0
 12  4  1  0
 13  2  1  0
 13 14  2  0
 15 13  1  0
 16 15  1  0
 16 17  1  1
 18 19  2  0
 18 17  1  0
 20 19  1  0
 21 20  2  0
 22 21  1  0
 22 23  2  0
 23 18  1  0
 24 16  1  0
 25 24  2  0
 27 28  1  6
 27 26  1  0
 29 27  1  0
 29 30  1  6
 30 24  1  0
 31 32  1  0
 31 29  1  0
 33 31  2  0
M  END
$$$$
