WFV.pdb
     RDKit          3D

 33 35  0  0  1  0  0  0  0  0999 V2000
   26.4464  -22.1186  -16.1923 N   0  0  0  0  0  0  0  0  0  0  0  0
   26.5904  -20.9324  -15.3718 C   0  0  1  0  0  0  0  0  0  0  0  0
   25.6518  -19.8313  -15.8115 C   0  0  0  0  0  0  0  0  0  0  0  0
   26.0382  -19.1898  -17.0792 C   0  0  0  0  0  0  0  0  0  0  0  0
   25.3624  -19.2320  -18.2806 C   0  0  0  0  0  0  0  0  0  0  0  0
   26.0833  -18.5079  -19.1502 N   0  0  0  0  0  0  0  0  0  0  0  0
   27.1803  -18.0116  -18.5549 C   0  0  0  0  0  0  0  0  0  0  0  0
   28.2126  -17.2133  -19.0415 C   0  0  0  0  0  0  0  0  0  0  0  0
   29.2263  -16.8522  -18.1799 C   0  0  0  0  0  0  0  0  0  0  0  0
   29.2164  -17.2727  -16.8673 C   0  0  0  0  0  0  0  0  0  0  0  0
   28.2058  -18.0610  -16.3697 C   0  0  0  0  0  0  0  0  0  0  0  0
   27.1879  -18.4252  -17.2295 C   0  0  0  0  0  0  0  0  0  0  0  0
   26.2275  -21.2477  -13.9623 C   0  0  0  0  0  0  0  0  0  0  0  0
   25.2878  -22.0398  -13.7160 O   0  0  0  0  0  0  0  0  0  0  0  0
   26.9316  -20.6629  -12.8962 N   0  0  0  0  0  0  0  0  0  0  0  0
   26.4455  -20.9117  -11.5236 C   0  0  1  0  0  0  0  0  0  0  0  0
   27.4795  -20.3377  -10.6245 C   0  0  0  0  0  0  0  0  0  0  0  0
   27.1663  -20.2783   -9.1967 C   0  0  0  0  0  0  0  0  0  0  0  0
   26.4425  -19.2276   -8.6724 C   0  0  0  0  0  0  0  0  0  0  0  0
   26.1109  -19.1512   -7.3408 C   0  0  0  0  0  0  0  0  0  0  0  0
   26.5078  -20.1501   -6.4889 C   0  0  0  0  0  0  0  0  0  0  0  0
   27.2365  -21.2247   -6.9713 C   0  0  0  0  0  0  0  0  0  0  0  0
   27.5532  -21.2661   -8.3281 C   0  0  0  0  0  0  0  0  0  0  0  0
   25.0927  -20.4083  -11.4598 C   0  0  0  0  0  0  0  0  0  0  0  0
   24.8990  -19.1689  -11.7289 O   0  0  0  0  0  0  0  0  0  0  0  0
   20.4115  -20.1767  -12.2935 C   0  0  0  0  0  0  0  0  0  0  0  0
   21.7704  -20.8381  -12.3285 C   0  0  2  0  0  0  0  0  0  0  0  0
   21.5643  -22.3372  -12.3126 C   0  0  0  0  0  0  0  0  0  0  0  0
   22.6006  -20.4661  -11.1140 C   0  0  2  0  0  0  0  0  0  0  0  0
   23.8972  -21.1040  -11.1362 N   0  0  0  0  0  0  0  0  0  0  0  0
   21.8560  -20.9362   -9.9286 C   0  0  0  0  0  0  0  0  0  0  0  0
   22.3498  -21.8564   -9.0127 O   0  0  0  0  0  0  0  0  0  0  0  0
   20.6850  -20.5106   -9.6741 O   0  0  0  0  0  0  0  0  0  0  0  0
  2  3  1  0
  2  1  1  6
  4  3  1  0
  5  4  2  0
  6  5  1  0
  7 12  2  0
  7  6  1  0
  8  7  1  0
  9  8  2  0
  9 10  1  0
 10 11  2  0
 11 12  1  0
 12  4  1  0
 13  2  1  0
 13 14  2  0
 15 13  1  0
 16 15  1  0
 16 17  1  1
 18 19  2  0
 18 17  1  0
 20 19  1  0
 21 20  2  0
 22 21  1  0
 22 23  2  0
 23 18  1  0
 24 16  1  0
 25 24  2  0
 27 28  1  1
 27 26  1  0
 29 27  1  0
 29 30  1  6
 30 24  1  0
 31 32  1  0
 31 29  1  0
 33 31  2  0
M  END
$$$$
