WFV.pdb
     RDKit          3D

 33 35  0  0  1  0  0  0  0  0999 V2000
   27.9167  -19.6777  -10.1642 N   0  0  0  0  0  0  0  0  0  0  0  0
   27.1476  -20.8983  -10.0235 C   0  0  1  0  0  0  0  0  0  0  0  0
   26.2676  -20.8659   -8.7942 C   0  0  0  0  0  0  0  0  0  0  0  0
   26.8551  -20.1339   -7.6598 C   0  0  0  0  0  0  0  0  0  0  0  0
   26.5795  -18.8426   -7.2618 C   0  0  0  0  0  0  0  0  0  0  0  0
   27.3469  -18.6017   -6.1878 N   0  0  0  0  0  0  0  0  0  0  0  0
   28.0923  -19.6787   -5.8899 C   0  0  0  0  0  0  0  0  0  0  0  0
   29.0239  -19.9049   -4.8798 C   0  0  0  0  0  0  0  0  0  0  0  0
   29.6441  -21.1346   -4.8208 C   0  0  0  0  0  0  0  0  0  0  0  0
   29.3474  -22.1164   -5.7416 C   0  0  0  0  0  0  0  0  0  0  0  0
   28.4307  -21.9109   -6.7454 C   0  0  0  0  0  0  0  0  0  0  0  0
   27.8068  -20.6801   -6.8083 C   0  0  0  0  0  0  0  0  0  0  0  0
   26.2297  -21.0523  -11.1860 C   0  0  0  0  0  0  0  0  0  0  0  0
   25.9663  -20.0675  -11.9153 O   0  0  0  0  0  0  0  0  0  0  0  0
   25.6503  -22.2987  -11.4777 N   0  0  0  0  0  0  0  0  0  0  0  0
   24.9246  -22.4450  -12.7560 C   0  0  1  0  0  0  0  0  0  0  0  0
   25.0145  -23.8868  -13.1025 C   0  0  0  0  0  0  0  0  0  0  0  0
   24.1986  -24.3581  -14.2216 C   0  0  0  0  0  0  0  0  0  0  0  0
   23.0079  -25.0190  -14.0025 C   0  0  0  0  0  0  0  0  0  0  0  0
   22.2055  -25.4550  -15.0296 C   0  0  0  0  0  0  0  0  0  0  0  0
   22.5904  -25.2318  -16.3270 C   0  0  0  0  0  0  0  0  0  0  0  0
   23.7785  -24.5721  -16.5945 C   0  0  0  0  0  0  0  0  0  0  0  0
   24.5648  -24.1453  -15.5256 C   0  0  0  0  0  0  0  0  0  0  0  0
   23.6253  -21.8401  -12.5727 C   0  0  0  0  0  0  0  0  0  0  0  0
   23.1052  -21.8763  -11.4004 O   0  0  0  0  0  0  0  0  0  0  0  0
   22.1505  -18.2876  -13.6638 C   0  0  0  0  0  0  0  0  0  0  0  0
   21.1855  -19.4019  -13.9992 C   0  0  2  0  0  0  0  0  0  0  0  0
   19.7922  -18.9464  -13.6233 C   0  0  0  0  0  0  0  0  0  0  0  0
   21.4956  -20.6610  -13.2111 C   0  0  2  0  0  0  0  0  0  0  0  0
   22.8059  -21.1819  -13.5283 N   0  0  0  0  0  0  0  0  0  0  0  0
   20.4781  -21.6621  -13.5895 C   0  0  0  0  0  0  0  0  0  0  0  0
   19.4107  -22.0321  -12.7812 O   0  0  0  0  0  0  0  0  0  0  0  0
   20.5258  -22.2590  -14.7114 O   0  0  0  0  0  0  0  0  0  0  0  0
  2  3  1  0
  2  1  1  6
  4  3  1  0
  5  4  2  0
  6  5  1  0
  7 12  2  0
  7  6  1  0
  8  7  1  0
  9  8  2  0
  9 10  1  0
 10 11  2  0
 11 12  1  0
 12  4  1  0
 13  2  1  0
 13 14  2  0
 15 13  1  0
 16 15  1  0
 16 17  1  1
 18 19  2  0
 18 17  1  0
 20 19  1  0
 21 20  2  0
 22 21  1  0
 22 23  2  0
 23 18  1  0
 24 16  1  0
 25 24  2  0
 27 28  1  1
 27 26  1  0
 29 27  1  0
 29 30  1  6
 30 24  1  0
 31 32  1  0
 31 29  1  0
 33 31  2  0
M  END
$$$$
