WFV.pdb
     RDKit          3D

 33 35  0  0  1  0  0  0  0  0999 V2000
   27.8548  -21.5471  -17.0203 N   0  0  0  0  0  0  0  0  0  0  0  0
   27.1845  -20.5573  -16.2005 C   0  0  1  0  0  0  0  0  0  0  0  0
   25.7296  -20.4063  -16.5839 C   0  0  0  0  0  0  0  0  0  0  0  0
   25.4899  -19.3951  -17.6269 C   0  0  0  0  0  0  0  0  0  0  0  0
   26.0596  -19.3329  -18.8813 C   0  0  0  0  0  0  0  0  0  0  0  0
   25.5471  -18.2472  -19.4803 N   0  0  0  0  0  0  0  0  0  0  0  0
   24.6822  -17.6226  -18.6642 C   0  0  0  0  0  0  0  0  0  0  0  0
   23.9140  -16.4742  -18.8391 C   0  0  0  0  0  0  0  0  0  0  0  0
   23.1003  -16.0638  -17.8047 C   0  0  0  0  0  0  0  0  0  0  0  0
   23.0499  -16.7753  -16.6253 C   0  0  0  0  0  0  0  0  0  0  0  0
   23.8011  -17.9109  -16.4349 C   0  0  0  0  0  0  0  0  0  0  0  0
   24.6178  -18.3258  -17.4687 C   0  0  0  0  0  0  0  0  0  0  0  0
   27.1946  -20.9922  -14.7762 C   0  0  0  0  0  0  0  0  0  0  0  0
   26.9908  -22.1938  -14.4832 O   0  0  0  0  0  0  0  0  0  0  0  0
   27.4315  -20.0641  -13.7482 N   0  0  0  0  0  0  0  0  0  0  0  0
   27.2471  -20.5118  -12.3526 C   0  0  1  0  0  0  0  0  0  0  0  0
   28.2731  -19.7843  -11.5620 C   0  0  0  0  0  0  0  0  0  0  0  0
   28.1460  -19.8222  -10.1050 C   0  0  0  0  0  0  0  0  0  0  0  0
   27.3808  -18.8904   -9.4351 C   0  0  0  0  0  0  0  0  0  0  0  0
   27.2210  -18.9098   -8.0702 C   0  0  0  0  0  0  0  0  0  0  0  0
   27.8398  -19.8868   -7.3329 C   0  0  0  0  0  0  0  0  0  0  0  0
   28.6183  -20.8434   -7.9632 C   0  0  0  0  0  0  0  0  0  0  0  0
   28.7560  -20.7901   -9.3493 C   0  0  0  0  0  0  0  0  0  0  0  0
   25.8491  -20.3319  -12.0353 C   0  0  0  0  0  0  0  0  0  0  0  0
   25.3043  -19.2094  -12.3342 O   0  0  0  0  0  0  0  0  0  0  0  0
   22.8236  -23.0977  -12.0709 C   0  0  0  0  0  0  0  0  0  0  0  0
   22.6073  -21.6016  -12.0578 C   0  0  2  0  0  0  0  0  0  0  0  0
   22.8554  -21.0783  -13.4560 C   0  0  0  0  0  0  0  0  0  0  0  0
   23.5772  -20.9085  -11.1190 C   0  0  2  0  0  0  0  0  0  0  0  0
   24.9495  -21.2450  -11.4231 N   0  0  0  0  0  0  0  0  0  0  0  0
   23.2601  -21.3785   -9.7555 C   0  0  0  0  0  0  0  0  0  0  0  0
   22.0871  -21.0702   -9.0782 O   0  0  0  0  0  0  0  0  0  0  0  0
   24.0696  -22.1140   -9.1066 O   0  0  0  0  0  0  0  0  0  0  0  0
  2  3  1  0
  2  1  1  6
  4  3  1  0
  5  4  2  0
  6  5  1  0
  7 12  2  0
  7  6  1  0
  8  7  1  0
  9  8  2  0
  9 10  1  0
 10 11  2  0
 11 12  1  0
 12  4  1  0
 13  2  1  0
 13 14  2  0
 15 13  1  0
 16 15  1  0
 16 17  1  1
 18 19  2  0
 18 17  1  0
 20 19  1  0
 21 20  2  0
 22 21  1  0
 22 23  2  0
 23 18  1  0
 24 16  1  0
 25 24  2  0
 27 28  1  6
 27 26  1  0
 29 27  1  0
 29 30  1  6
 30 24  1  0
 31 32  1  0
 31 29  1  0
 33 31  2  0
M  END
$$$$
