WFV.pdb
     RDKit          3D

 33 35  0  0  1  0  0  0  0  0999 V2000
   27.9429  -20.0971   -9.7255 N   0  0  0  0  0  0  0  0  0  0  0  0
   26.7711  -20.9231   -9.5115 C   0  0  1  0  0  0  0  0  0  0  0  0
   26.1144  -20.6279   -8.1817 C   0  0  0  0  0  0  0  0  0  0  0  0
   26.9339  -19.7971   -7.2838 C   0  0  0  0  0  0  0  0  0  0  0  0
   27.3162  -18.4854   -7.4712 C   0  0  0  0  0  0  0  0  0  0  0  0
   28.0510  -18.1449   -6.4015 N   0  0  0  0  0  0  0  0  0  0  0  0
   28.1499  -19.1785   -5.5493 C   0  0  0  0  0  0  0  0  0  0  0  0
   28.7987  -19.3043   -4.3234 C   0  0  0  0  0  0  0  0  0  0  0  0
   28.7244  -20.5111   -3.6612 C   0  0  0  0  0  0  0  0  0  0  0  0
   28.0235  -21.5676   -4.2018 C   0  0  0  0  0  0  0  0  0  0  0  0
   27.3771  -21.4616   -5.4106 C   0  0  0  0  0  0  0  0  0  0  0  0
   27.4489  -20.2541   -6.0776 C   0  0  0  0  0  0  0  0  0  0  0  0
   25.7487  -20.6268  -10.5530 C   0  0  0  0  0  0  0  0  0  0  0  0
   25.3223  -19.4576  -10.7024 O   0  0  0  0  0  0  0  0  0  0  0  0
   25.2520  -21.6507  -11.3772 N   0  0  0  0  0  0  0  0  0  0  0  0
   24.4910  -21.2640  -12.5827 C   0  0  1  0  0  0  0  0  0  0  0  0
   25.3946  -21.5389  -13.7295 C   0  0  0  0  0  0  0  0  0  0  0  0
   26.4337  -20.5494  -14.0147 C   0  0  0  0  0  0  0  0  0  0  0  0
   26.1049  -19.2592  -14.3751 C   0  0  0  0  0  0  0  0  0  0  0  0
   27.0545  -18.2983  -14.6278 C   0  0  0  0  0  0  0  0  0  0  0  0
   28.3836  -18.6198  -14.5215 C   0  0  0  0  0  0  0  0  0  0  0  0
   28.7605  -19.9034  -14.1625 C   0  0  0  0  0  0  0  0  0  0  0  0
   27.7677  -20.8499  -13.9143 C   0  0  0  0  0  0  0  0  0  0  0  0
   23.2154  -21.9384  -12.5083 C   0  0  0  0  0  0  0  0  0  0  0  0
   23.2063  -23.1692  -12.1460 O   0  0  0  0  0  0  0  0  0  0  0  0
   19.2894  -20.1855  -12.9902 C   0  0  0  0  0  0  0  0  0  0  0  0
   19.5670  -21.3666  -12.0884 C   0  0  2  0  0  0  0  0  0  0  0  0
   19.9600  -20.8364  -10.7266 C   0  0  0  0  0  0  0  0  0  0  0  0
   20.7155  -22.2082  -12.6131 C   0  0  2  0  0  0  0  0  0  0  0  0
   21.9190  -21.4259  -12.7812 N   0  0  0  0  0  0  0  0  0  0  0  0
   20.2955  -22.7293  -13.9294 C   0  0  0  0  0  0  0  0  0  0  0  0
   19.3756  -23.7554  -14.1038 O   0  0  0  0  0  0  0  0  0  0  0  0
   20.7686  -22.2519  -15.0090 O   0  0  0  0  0  0  0  0  0  0  0  0
  2  3  1  0
  2  1  1  6
  4  3  1  0
  5  4  2  0
  6  5  1  0
  7 12  2  0
  7  6  1  0
  8  7  1  0
  9  8  2  0
  9 10  1  0
 10 11  2  0
 11 12  1  0
 12  4  1  0
 13  2  1  0
 13 14  2  0
 15 13  1  0
 16 15  1  0
 16 17  1  6
 18 19  2  0
 18 17  1  0
 20 19  1  0
 21 20  2  0
 22 21  1  0
 22 23  2  0
 23 18  1  0
 24 16  1  0
 25 24  2  0
 27 28  1  1
 27 26  1  0
 29 27  1  0
 29 30  1  6
 30 24  1  0
 31 32  1  0
 31 29  1  0
 33 31  2  0
M  END
$$$$
