WFV.pdb
     RDKit          3D

 33 35  0  0  1  0  0  0  0  0999 V2000
   28.0270  -22.2719  -16.3838 N   0  0  0  0  0  0  0  0  0  0  0  0
   27.0532  -21.2323  -16.1151 C   0  0  1  0  0  0  0  0  0  0  0  0
   25.9350  -21.2373  -17.1331 C   0  0  0  0  0  0  0  0  0  0  0  0
   26.2986  -20.6228  -18.4208 C   0  0  0  0  0  0  0  0  0  0  0  0
   27.3504  -20.9632  -19.2451 C   0  0  0  0  0  0  0  0  0  0  0  0
   27.2907  -20.1379  -20.3014 N   0  0  0  0  0  0  0  0  0  0  0  0
   26.2522  -19.2943  -20.1823 C   0  0  0  0  0  0  0  0  0  0  0  0
   25.7915  -18.2757  -21.0128 C   0  0  0  0  0  0  0  0  0  0  0  0
   24.6776  -17.5631  -20.6231 C   0  0  0  0  0  0  0  0  0  0  0  0
   24.0362  -17.8539  -19.4382 C   0  0  0  0  0  0  0  0  0  0  0  0
   24.4768  -18.8557  -18.6061 C   0  0  0  0  0  0  0  0  0  0  0  0
   25.5926  -19.5723  -18.9926 C   0  0  0  0  0  0  0  0  0  0  0  0
   26.4110  -21.4729  -14.7932 C   0  0  0  0  0  0  0  0  0  0  0  0
   26.1964  -22.6439  -14.4011 O   0  0  0  0  0  0  0  0  0  0  0  0
   26.0395  -20.3939  -13.9733 N   0  0  0  0  0  0  0  0  0  0  0  0
   25.4429  -20.6961  -12.6562 C   0  0  1  0  0  0  0  0  0  0  0  0
   26.2504  -19.9346  -11.6688 C   0  0  0  0  0  0  0  0  0  0  0  0
   27.5967  -20.4297  -11.3813 C   0  0  0  0  0  0  0  0  0  0  0  0
   28.6646  -20.0888  -12.1851 C   0  0  0  0  0  0  0  0  0  0  0  0
   29.9457  -20.5170  -11.9317 C   0  0  0  0  0  0  0  0  0  0  0  0
   30.1869  -21.3141  -10.8419 C   0  0  0  0  0  0  0  0  0  0  0  0
   29.1448  -21.6817  -10.0069 C   0  0  0  0  0  0  0  0  0  0  0  0
   27.8595  -21.2272  -10.2974 C   0  0  0  0  0  0  0  0  0  0  0  0
   24.0265  -20.4329  -12.7667 C   0  0  0  0  0  0  0  0  0  0  0  0
   23.6596  -19.2572  -13.1262 O   0  0  0  0  0  0  0  0  0  0  0  0
   20.8723  -23.2305  -13.2557 C   0  0  0  0  0  0  0  0  0  0  0  0
   20.7915  -21.7689  -13.6331 C   0  0  2  0  0  0  0  0  0  0  0  0
   21.4224  -21.6000  -14.9983 C   0  0  0  0  0  0  0  0  0  0  0  0
   21.5561  -20.8991  -12.6525 C   0  0  2  0  0  0  0  0  0  0  0  0
   22.9358  -21.3125  -12.5333 N   0  0  0  0  0  0  0  0  0  0  0  0
   20.8951  -21.0530  -11.3410 C   0  0  0  0  0  0  0  0  0  0  0  0
   19.6769  -20.4737  -11.0096 O   0  0  0  0  0  0  0  0  0  0  0  0
   21.4225  -21.7461  -10.4143 O   0  0  0  0  0  0  0  0  0  0  0  0
  2  3  1  0
  2  1  1  6
  4  3  1  0
  5  4  2  0
  6  5  1  0
  7 12  2  0
  7  6  1  0
  8  7  1  0
  9  8  2  0
  9 10  1  0
 10 11  2  0
 11 12  1  0
 12  4  1  0
 13  2  1  0
 13 14  2  0
 15 13  1  0
 16 15  1  0
 16 17  1  1
 18 19  2  0
 18 17  1  0
 20 19  1  0
 21 20  2  0
 22 21  1  0
 22 23  2  0
 23 18  1  0
 24 16  1  0
 25 24  2  0
 27 28  1  6
 27 26  1  0
 29 27  1  0
 29 30  1  1
 30 24  1  0
 31 32  1  0
 31 29  1  0
 33 31  2  0
M  END
$$$$
