WFV.pdb
     RDKit          3D

 33 35  0  0  1  0  0  0  0  0999 V2000
   26.5620  -21.7522  -12.9703 N   0  0  0  0  0  0  0  0  0  0  0  0
   25.8185  -20.8765  -12.0864 C   0  0  1  0  0  0  0  0  0  0  0  0
   24.3285  -21.1142  -12.1873 C   0  0  0  0  0  0  0  0  0  0  0  0
   23.7460  -20.7065  -13.4767 C   0  0  0  0  0  0  0  0  0  0  0  0
   24.0255  -21.2236  -14.7241 C   0  0  0  0  0  0  0  0  0  0  0  0
   23.2626  -20.5486  -15.5974 N   0  0  0  0  0  0  0  0  0  0  0  0
   22.5161  -19.6314  -14.9604 C   0  0  0  0  0  0  0  0  0  0  0  0
   21.5867  -18.7085  -15.4336 C   0  0  0  0  0  0  0  0  0  0  0  0
   20.9633  -17.8789  -14.5260 C   0  0  0  0  0  0  0  0  0  0  0  0
   21.2549  -17.9628  -13.1814 C   0  0  0  0  0  0  0  0  0  0  0  0
   22.1694  -18.8676  -12.6964 C   0  0  0  0  0  0  0  0  0  0  0  0
   22.7964  -19.7008  -13.6023 C   0  0  0  0  0  0  0  0  0  0  0  0
   26.1878  -21.1573  -10.6712 C   0  0  0  0  0  0  0  0  0  0  0  0
   26.0414  -22.3091  -10.1989 O   0  0  0  0  0  0  0  0  0  0  0  0
   26.7024  -20.1382   -9.8522 N   0  0  0  0  0  0  0  0  0  0  0  0
   27.1020  -20.4901   -8.4743 C   0  0  1  0  0  0  0  0  0  0  0  0
   28.1682  -19.5222   -8.1091 C   0  0  0  0  0  0  0  0  0  0  0  0
   28.6019  -19.5001   -6.7121 C   0  0  0  0  0  0  0  0  0  0  0  0
   29.2841  -20.5664   -6.1641 C   0  0  0  0  0  0  0  0  0  0  0  0
   29.7261  -20.5700   -4.8628 C   0  0  0  0  0  0  0  0  0  0  0  0
   29.4874  -19.4790   -4.0668 C   0  0  0  0  0  0  0  0  0  0  0  0
   28.8059  -18.3853   -4.5747 C   0  0  0  0  0  0  0  0  0  0  0  0
   28.3737  -18.4197   -5.8994 C   0  0  0  0  0  0  0  0  0  0  0  0
   25.8919  -20.5418   -7.6866 C   0  0  0  0  0  0  0  0  0  0  0  0
   24.9584  -19.7062   -7.9630 O   0  0  0  0  0  0  0  0  0  0  0  0
   22.9990  -22.7958   -7.3548 C   0  0  0  0  0  0  0  0  0  0  0  0
   23.5016  -22.5629   -5.9482 C   0  0  2  0  0  0  0  0  0  0  0  0
   22.3015  -22.3957   -5.0416 C   0  0  0  0  0  0  0  0  0  0  0  0
   24.3363  -21.2988   -5.8589 C   0  0  2  0  0  0  0  0  0  0  0  0
   25.5633  -21.4132   -6.6139 N   0  0  0  0  0  0  0  0  0  0  0  0
   24.6679  -21.1069   -4.4328 C   0  0  0  0  0  0  0  0  0  0  0  0
   25.9445  -21.2480   -3.9038 O   0  0  0  0  0  0  0  0  0  0  0  0
   23.7741  -20.7922   -3.5847 O   0  0  0  0  0  0  0  0  0  0  0  0
  2  3  1  0
  2  1  1  6
  4  3  1  0
  5  4  2  0
  6  5  1  0
  7 12  2  0
  7  6  1  0
  8  7  1  0
  9  8  2  0
  9 10  1  0
 10 11  2  0
 11 12  1  0
 12  4  1  0
 13  2  1  0
 13 14  2  0
 15 13  1  0
 16 15  1  0
 16 17  1  1
 18 19  2  0
 18 17  1  0
 20 19  1  0
 21 20  2  0
 22 21  1  0
 22 23  2  0
 23 18  1  0
 24 16  1  0
 25 24  2  0
 27 28  1  1
 27 26  1  0
 29 27  1  0
 29 30  1  6
 30 24  1  0
 31 32  1  0
 31 29  1  0
 33 31  2  0
M  END
$$$$
