WFV.pdb
     RDKit          3D

 33 35  0  0  1  0  0  0  0  0999 V2000
   24.0125  -21.5349  -14.4476 N   0  0  0  0  0  0  0  0  0  0  0  0
   24.0055  -20.4257  -13.5145 C   0  0  1  0  0  0  0  0  0  0  0  0
   22.6042  -19.9174  -13.2609 C   0  0  0  0  0  0  0  0  0  0  0  0
   21.9480  -19.3579  -14.4543 C   0  0  0  0  0  0  0  0  0  0  0  0
   20.7657  -19.7702  -15.0322 C   0  0  0  0  0  0  0  0  0  0  0  0
   20.5610  -18.9745  -16.0930 N   0  0  0  0  0  0  0  0  0  0  0  0
   21.5569  -18.0810  -16.2112 C   0  0  0  0  0  0  0  0  0  0  0  0
   21.7805  -17.0663  -17.1386 C   0  0  0  0  0  0  0  0  0  0  0  0
   22.9128  -16.2914  -17.0050 C   0  0  0  0  0  0  0  0  0  0  0  0
   23.8019  -16.5176  -15.9763 C   0  0  0  0  0  0  0  0  0  0  0  0
   23.5976  -17.5145  -15.0519 C   0  0  0  0  0  0  0  0  0  0  0  0
   22.4642  -18.2934  -15.1820 C   0  0  0  0  0  0  0  0  0  0  0  0
   24.5286  -20.8746  -12.1944 C   0  0  0  0  0  0  0  0  0  0  0  0
   24.2654  -22.0245  -11.7706 O   0  0  0  0  0  0  0  0  0  0  0  0
   25.3201  -20.0174  -11.4113 N   0  0  0  0  0  0  0  0  0  0  0  0
   25.7650  -20.4992  -10.0877 C   0  0  1  0  0  0  0  0  0  0  0  0
   26.9714  -19.6979   -9.7569 C   0  0  0  0  0  0  0  0  0  0  0  0
   27.4822  -19.7910   -8.3892 C   0  0  0  0  0  0  0  0  0  0  0  0
   27.2330  -18.7936   -7.4695 C   0  0  0  0  0  0  0  0  0  0  0  0
   27.6777  -18.8590   -6.1707 C   0  0  0  0  0  0  0  0  0  0  0  0
   28.3977  -19.9513   -5.7589 C   0  0  0  0  0  0  0  0  0  0  0  0
   28.6718  -20.9771   -6.6482 C   0  0  0  0  0  0  0  0  0  0  0  0
   28.2036  -20.8739   -7.9571 C   0  0  0  0  0  0  0  0  0  0  0  0
   24.6163  -20.4441   -9.2131 C   0  0  0  0  0  0  0  0  0  0  0  0
   23.9269  -19.3623   -9.1934 O   0  0  0  0  0  0  0  0  0  0  0  0
   22.2596  -23.5640   -7.6839 C   0  0  0  0  0  0  0  0  0  0  0  0
   21.8495  -22.1091   -7.6635 C   0  0  2  0  0  0  0  0  0  0  0  0
   21.2817  -21.7614   -9.0225 C   0  0  0  0  0  0  0  0  0  0  0  0
   23.0374  -21.2008   -7.4054 C   0  0  2  0  0  0  0  0  0  0  0  0
   24.1113  -21.4453   -8.3411 N   0  0  0  0  0  0  0  0  0  0  0  0
   23.5143  -21.5003   -6.0403 C   0  0  0  0  0  0  0  0  0  0  0  0
   24.7433  -22.0809   -5.7542 O   0  0  0  0  0  0  0  0  0  0  0  0
   22.8027  -21.2347   -5.0203 O   0  0  0  0  0  0  0  0  0  0  0  0
  2  3  1  0
  2  1  1  6
  4  3  1  0
  5  4  2  0
  6  5  1  0
  7 12  2  0
  7  6  1  0
  8  7  1  0
  9  8  2  0
  9 10  1  0
 10 11  2  0
 11 12  1  0
 12  4  1  0
 13  2  1  0
 13 14  2  0
 15 13  1  0
 16 15  1  0
 16 17  1  1
 18 19  2  0
 18 17  1  0
 20 19  1  0
 21 20  2  0
 22 21  1  0
 22 23  2  0
 23 18  1  0
 24 16  1  0
 25 24  2  0
 27 28  1  6
 27 26  1  0
 29 27  1  0
 29 30  1  6
 30 24  1  0
 31 32  1  0
 31 29  1  0
 33 31  2  0
M  END
$$$$
