WFV.pdb
     RDKit          3D

 33 35  0  0  1  0  0  0  0  0999 V2000
   26.4956  -21.7121  -13.0920 N   0  0  0  0  0  0  0  0  0  0  0  0
   26.3886  -20.5492  -12.2333 C   0  0  1  0  0  0  0  0  0  0  0  0
   25.0407  -19.8771  -12.3679 C   0  0  0  0  0  0  0  0  0  0  0  0
   24.7935  -19.2985  -13.6991 C   0  0  0  0  0  0  0  0  0  0  0  0
   23.7383  -19.5644  -14.5463 C   0  0  0  0  0  0  0  0  0  0  0  0
   23.9280  -18.8117  -15.6407 N   0  0  0  0  0  0  0  0  0  0  0  0
   25.0514  -18.0847  -15.5240 C   0  0  0  0  0  0  0  0  0  0  0  0
   25.6529  -17.1715  -16.3865 C   0  0  0  0  0  0  0  0  0  0  0  0
   26.8263  -16.5668  -15.9893 C   0  0  0  0  0  0  0  0  0  0  0  0
   27.3896  -16.8608  -14.7661 C   0  0  0  0  0  0  0  0  0  0  0  0
   26.8100  -17.7595  -13.9020 C   0  0  0  0  0  0  0  0  0  0  0  0
   25.6340  -18.3678  -14.2959 C   0  0  0  0  0  0  0  0  0  0  0  0
   26.5045  -20.9632  -10.8075 C   0  0  0  0  0  0  0  0  0  0  0  0
   26.3140  -22.1584  -10.4813 O   0  0  0  0  0  0  0  0  0  0  0  0
   26.8272  -20.0223   -9.8151 N   0  0  0  0  0  0  0  0  0  0  0  0
   27.0605  -20.5140   -8.4418 C   0  0  1  0  0  0  0  0  0  0  0  0
   28.2121  -19.7288   -7.9277 C   0  0  0  0  0  0  0  0  0  0  0  0
   28.4620  -19.7728   -6.4869 C   0  0  0  0  0  0  0  0  0  0  0  0
   29.1534  -20.8224   -5.9186 C   0  0  0  0  0  0  0  0  0  0  0  0
   29.4258  -20.8848   -4.5729 C   0  0  0  0  0  0  0  0  0  0  0  0
   29.0004  -19.8722   -3.7514 C   0  0  0  0  0  0  0  0  0  0  0  0
   28.3023  -18.7982   -4.2784 C   0  0  0  0  0  0  0  0  0  0  0  0
   28.0457  -18.7713   -5.6482 C   0  0  0  0  0  0  0  0  0  0  0  0
   25.7931  -20.4478   -7.7513 C   0  0  0  0  0  0  0  0  0  0  0  0
   25.0108  -19.4679   -8.0231 O   0  0  0  0  0  0  0  0  0  0  0  0
   22.8289  -22.6388   -7.8560 C   0  0  0  0  0  0  0  0  0  0  0  0
   23.0673  -22.3685   -6.3879 C   0  0  2  0  0  0  0  0  0  0  0  0
   21.7302  -22.0831   -5.7390 C   0  0  0  0  0  0  0  0  0  0  0  0
   23.9558  -21.1554   -6.1837 C   0  0  2  0  0  0  0  0  0  0  0  0
   25.2581  -21.3389   -6.7830 N   0  0  0  0  0  0  0  0  0  0  0  0
   24.1192  -20.9873   -4.7258 C   0  0  0  0  0  0  0  0  0  0  0  0
   23.3110  -20.1760   -3.9396 O   0  0  0  0  0  0  0  0  0  0  0  0
   25.0382  -21.5952   -4.0909 O   0  0  0  0  0  0  0  0  0  0  0  0
  2  3  1  0
  2  1  1  6
  4  3  1  0
  5  4  2  0
  6  5  1  0
  7 12  2  0
  7  6  1  0
  8  7  1  0
  9  8  2  0
  9 10  1  0
 10 11  2  0
 11 12  1  0
 12  4  1  0
 13  2  1  0
 13 14  2  0
 15 13  1  0
 16 15  1  0
 16 17  1  1
 18 19  2  0
 18 17  1  0
 20 19  1  0
 21 20  2  0
 22 21  1  0
 22 23  2  0
 23 18  1  0
 24 16  1  0
 25 24  2  0
 27 28  1  1
 27 26  1  0
 29 27  1  0
 29 30  1  6
 30 24  1  0
 31 32  1  0
 31 29  1  0
 33 31  2  0
M  END
$$$$
