FGE.pdb
     RDKit          3D

 25 25  0  0  1  0  0  0  0  0999 V2000
    6.6793  -15.6007   25.0503 N   0  0  0  0  0  0  0  0  0  0  0  0
    7.6680  -14.9004   24.2510 C   0  0  1  0  0  0  0  0  0  0  0  0
    8.4417  -13.9790   25.1528 C   0  0  0  0  0  0  0  0  0  0  0  0
    7.4314  -13.0877   25.8365 C   0  0  0  0  0  0  0  0  0  0  0  0
    6.4291  -12.4834   25.1162 C   0  0  0  0  0  0  0  0  0  0  0  0
    5.5330  -11.6813   25.7640 C   0  0  0  0  0  0  0  0  0  0  0  0
    5.6092  -11.4609   27.1327 C   0  0  0  0  0  0  0  0  0  0  0  0
    6.6118  -12.0631   27.8643 C   0  0  0  0  0  0  0  0  0  0  0  0
    7.5003  -12.8648   27.1894 C   0  0  0  0  0  0  0  0  0  0  0  0
    8.4745  -15.8822   23.5256 C   0  0  0  0  0  0  0  0  0  0  0  0
    9.3924  -15.5194   22.7465 O   0  0  0  0  0  0  0  0  0  0  0  0
    8.2676  -17.3012   23.6585 N   0  0  0  0  0  0  0  0  0  0  0  0
    8.9352  -18.2862   22.8696 C   0  0  0  0  0  0  0  0  0  0  0  0
   10.2515  -18.7135   23.4058 C   0  0  0  0  0  0  0  0  0  0  0  0
   10.7960  -19.7569   22.9961 O   0  0  0  0  0  0  0  0  0  0  0  0
   10.8903  -17.9296   24.3884 N   0  0  0  0  0  0  0  0  0  0  0  0
   12.0525  -18.3699   25.1653 C   0  0  1  0  0  0  0  0  0  0  0  0
   13.2139  -17.5788   24.7029 C   0  0  0  0  0  0  0  0  0  0  0  0
   13.4725  -17.5077   23.2410 C   0  0  0  0  0  0  0  0  0  0  0  0
   14.7326  -16.7629   22.9942 C   0  0  0  0  0  0  0  0  0  0  0  0
   15.4366  -16.2718   23.9216 O   0  0  0  0  0  0  0  0  0  0  0  0
   11.8033  -18.5585   26.5752 C   0  0  0  0  0  0  0  0  0  0  0  0
   12.6833  -19.1282   27.4877 O   0  0  0  0  0  0  0  0  0  0  0  0
   15.1502  -16.6045   21.6835 O   0  0  0  0  0  0  0  0  0  0  0  0
   10.6874  -18.1875   27.0434 O   0  0  0  0  0  0  0  0  0  0  0  0
  2  1  1  1
  2 10  1  0
  3  2  1  0
  4  3  1  0
  4  9  2  0
  5  4  1  0
  6  5  2  0
  6  7  1  0
  7  8  2  0
  8  9  1  0
 10 11  2  0
 12 13  1  0
 12 10  1  0
 13 14  1  0
 14 16  1  0
 15 14  2  0
 16 17  1  0
 17 22  1  0
 17 18  1  1
 19 18  1  0
 19 20  1  0
 20 21  2  0
 20 24  1  0
 22 25  2  0
 22 23  1  0
M  END
$$$$
