FGE.pdb
     RDKit          3D

 25 25  0  0  1  0  0  0  0  0999 V2000
    6.6526  -15.9203   25.2901 N   0  0  0  0  0  0  0  0  0  0  0  0
    7.0836  -15.0072   24.2475 C   0  0  1  0  0  0  0  0  0  0  0  0
    8.0557  -14.0284   24.8454 C   0  0  0  0  0  0  0  0  0  0  0  0
    7.2657  -13.1469   25.7843 C   0  0  0  0  0  0  0  0  0  0  0  0
    6.0608  -12.6121   25.3959 C   0  0  0  0  0  0  0  0  0  0  0  0
    5.3723  -11.8171   26.2676 C   0  0  0  0  0  0  0  0  0  0  0  0
    5.8592  -11.5354   27.5370 C   0  0  0  0  0  0  0  0  0  0  0  0
    7.0678  -12.0676   27.9359 C   0  0  0  0  0  0  0  0  0  0  0  0
    7.7407  -12.8638   27.0408 C   0  0  0  0  0  0  0  0  0  0  0  0
    7.5978  -15.7834   23.1189 C   0  0  0  0  0  0  0  0  0  0  0  0
    7.8994  -16.9972   23.2499 O   0  0  0  0  0  0  0  0  0  0  0  0
    7.7868  -15.2117   21.8106 N   0  0  0  0  0  0  0  0  0  0  0  0
    8.5431  -15.8277   20.7681 C   0  0  0  0  0  0  0  0  0  0  0  0
    9.9819  -16.0137   21.0808 C   0  0  0  0  0  0  0  0  0  0  0  0
   10.8523  -15.3475   20.4879 O   0  0  0  0  0  0  0  0  0  0  0  0
   10.3654  -16.9543   22.0589 N   0  0  0  0  0  0  0  0  0  0  0  0
   11.7560  -17.2925   22.3750 C   0  0  1  0  0  0  0  0  0  0  0  0
   11.7876  -17.7454   23.7830 C   0  0  0  0  0  0  0  0  0  0  0  0
   11.1106  -16.9024   24.8027 C   0  0  0  0  0  0  0  0  0  0  0  0
   11.1127  -17.6050   26.1103 C   0  0  0  0  0  0  0  0  0  0  0  0
   11.2579  -18.8553   26.2213 O   0  0  0  0  0  0  0  0  0  0  0  0
   12.4487  -18.0330   21.3466 C   0  0  0  0  0  0  0  0  0  0  0  0
   11.8573  -18.6522   20.2518 O   0  0  0  0  0  0  0  0  0  0  0  0
   10.9488  -16.8473   27.2576 O   0  0  0  0  0  0  0  0  0  0  0  0
   13.7060  -18.1494   21.4331 O   0  0  0  0  0  0  0  0  0  0  0  0
  2  1  1  1
  2 10  1  0
  3  2  1  0
  4  3  1  0
  4  9  2  0
  5  4  1  0
  6  5  2  0
  6  7  1  0
  7  8  2  0
  8  9  1  0
 10 11  2  0
 12 13  1  0
 12 10  1  0
 13 14  1  0
 14 16  1  0
 15 14  2  0
 16 17  1  0
 17 22  1  0
 17 18  1  1
 19 18  1  0
 19 20  1  0
 20 21  2  0
 20 24  1  0
 22 25  2  0
 22 23  1  0
M  END
$$$$
