FGE.pdb
     RDKit          3D

 25 25  0  0  1  0  0  0  0  0999 V2000
    6.7365  -15.2983   23.6256 N   0  0  0  0  0  0  0  0  0  0  0  0
    7.8776  -14.4454   23.3484 C   0  0  1  0  0  0  0  0  0  0  0  0
    8.6188  -14.2105   24.6354 C   0  0  0  0  0  0  0  0  0  0  0  0
    7.7939  -13.2352   25.4423 C   0  0  0  0  0  0  0  0  0  0  0  0
    7.9592  -11.8799   25.2853 C   0  0  0  0  0  0  0  0  0  0  0  0
    7.1995  -11.0247   26.0318 C   0  0  0  0  0  0  0  0  0  0  0  0
    6.2638  -11.4901   26.9459 C   0  0  0  0  0  0  0  0  0  0  0  0
    6.0906  -12.8488   27.1105 C   0  0  0  0  0  0  0  0  0  0  0  0
    6.8669  -13.6878   26.3480 C   0  0  0  0  0  0  0  0  0  0  0  0
    8.6702  -15.0460   22.2753 C   0  0  0  0  0  0  0  0  0  0  0  0
    9.6900  -14.4677   21.8203 O   0  0  0  0  0  0  0  0  0  0  0  0
    8.3342  -16.3159   21.6850 N   0  0  0  0  0  0  0  0  0  0  0  0
    9.0566  -16.9166   20.6100 C   0  0  0  0  0  0  0  0  0  0  0  0
   10.4700  -17.2412   20.9256 C   0  0  0  0  0  0  0  0  0  0  0  0
   11.3525  -16.3635   20.8641 O   0  0  0  0  0  0  0  0  0  0  0  0
   10.8153  -18.5565   21.2985 N   0  0  0  0  0  0  0  0  0  0  0  0
   12.0946  -18.9302   21.9083 C   0  0  1  0  0  0  0  0  0  0  0  0
   12.0090  -18.5949   23.3467 C   0  0  0  0  0  0  0  0  0  0  0  0
   13.1573  -18.9582   24.2175 C   0  0  0  0  0  0  0  0  0  0  0  0
   12.8796  -18.5301   25.6115 C   0  0  0  0  0  0  0  0  0  0  0  0
   12.8479  -19.3333   26.5865 O   0  0  0  0  0  0  0  0  0  0  0  0
   12.6221  -20.2040   21.4784 C   0  0  0  0  0  0  0  0  0  0  0  0
   11.8811  -21.2553   20.9518 O   0  0  0  0  0  0  0  0  0  0  0  0
   12.6469  -17.1855   25.8463 O   0  0  0  0  0  0  0  0  0  0  0  0
   13.8664  -20.4077   21.5893 O   0  0  0  0  0  0  0  0  0  0  0  0
  2  1  1  1
  2 10  1  0
  3  2  1  0
  4  3  1  0
  4  9  2  0
  5  4  1  0
  6  5  2  0
  6  7  1  0
  7  8  2  0
  8  9  1  0
 10 11  2  0
 12 13  1  0
 12 10  1  0
 13 14  1  0
 14 16  1  0
 15 14  2  0
 16 17  1  0
 17 22  1  0
 17 18  1  1
 19 18  1  0
 19 20  1  0
 20 21  2  0
 20 24  1  0
 22 25  2  0
 22 23  1  0
M  END
$$$$
