FGE.pdb
     RDKit          3D

 25 25  0  0  1  0  0  0  0  0999 V2000
    6.2683  -16.7065   25.4534 N   0  0  0  0  0  0  0  0  0  0  0  0
    7.0991  -15.7732   24.7149 C   0  0  1  0  0  0  0  0  0  0  0  0
    7.9517  -15.0173   25.6959 C   0  0  0  0  0  0  0  0  0  0  0  0
    7.2902  -13.6752   25.9056 C   0  0  0  0  0  0  0  0  0  0  0  0
    8.0030  -12.5106   25.7498 C   0  0  0  0  0  0  0  0  0  0  0  0
    7.3761  -11.3135   25.9491 C   0  0  0  0  0  0  0  0  0  0  0  0
    6.0360  -11.2433   26.3055 C   0  0  0  0  0  0  0  0  0  0  0  0
    5.3122  -12.4069   26.4643 C   0  0  0  0  0  0  0  0  0  0  0  0
    5.9657  -13.5978   26.2582 C   0  0  0  0  0  0  0  0  0  0  0  0
    7.8367  -16.5055   23.6853 C   0  0  0  0  0  0  0  0  0  0  0  0
    8.2320  -17.6827   23.8838 O   0  0  0  0  0  0  0  0  0  0  0  0
    8.1495  -15.9301   22.4027 N   0  0  0  0  0  0  0  0  0  0  0  0
    9.1017  -16.4761   21.4897 C   0  0  0  0  0  0  0  0  0  0  0  0
   10.5004  -16.4724   21.9859 C   0  0  0  0  0  0  0  0  0  0  0  0
   11.3030  -15.5931   21.6173 O   0  0  0  0  0  0  0  0  0  0  0  0
   10.9231  -17.4746   22.8832 N   0  0  0  0  0  0  0  0  0  0  0  0
   12.2785  -17.5689   23.4328 C   0  0  1  0  0  0  0  0  0  0  0  0
   12.1841  -18.3163   24.7061 C   0  0  0  0  0  0  0  0  0  0  0  0
   11.3139  -17.7638   25.7768 C   0  0  0  0  0  0  0  0  0  0  0  0
   11.3002  -18.6919   26.9352 C   0  0  0  0  0  0  0  0  0  0  0  0
   12.0517  -19.7045   27.0168 O   0  0  0  0  0  0  0  0  0  0  0  0
   13.3040  -17.8855   22.4665 C   0  0  0  0  0  0  0  0  0  0  0  0
   14.6576  -17.5965   22.5926 O   0  0  0  0  0  0  0  0  0  0  0  0
   10.4208  -18.4277   27.9717 O   0  0  0  0  0  0  0  0  0  0  0  0
   12.9626  -18.4708   21.3974 O   0  0  0  0  0  0  0  0  0  0  0  0
  2  1  1  1
  2 10  1  0
  3  2  1  0
  4  3  1  0
  4  9  2  0
  5  4  1  0
  6  5  2  0
  6  7  1  0
  7  8  2  0
  8  9  1  0
 10 11  2  0
 12 13  1  0
 12 10  1  0
 13 14  1  0
 14 16  1  0
 15 14  2  0
 16 17  1  0
 17 22  1  0
 17 18  1  1
 19 18  1  0
 19 20  1  0
 20 21  2  0
 20 24  1  0
 22 25  2  0
 22 23  1  0
M  END
$$$$
