FGE.pdb
     RDKit          3D

 25 25  0  0  1  0  0  0  0  0999 V2000
    6.3234  -15.6759   23.6810 N   0  0  0  0  0  0  0  0  0  0  0  0
    6.5959  -14.5788   22.7707 C   0  0  1  0  0  0  0  0  0  0  0  0
    5.9908  -13.3264   23.3416 C   0  0  0  0  0  0  0  0  0  0  0  0
    6.5571  -13.1630   24.7327 C   0  0  0  0  0  0  0  0  0  0  0  0
    5.9004  -13.6831   25.8222 C   0  0  0  0  0  0  0  0  0  0  0  0
    6.4377  -13.5159   27.0669 C   0  0  0  0  0  0  0  0  0  0  0  0
    7.6314  -12.8335   27.2595 C   0  0  0  0  0  0  0  0  0  0  0  0
    8.2980  -12.3079   26.1721 C   0  0  0  0  0  0  0  0  0  0  0  0
    7.7367  -12.4894   24.9311 C   0  0  0  0  0  0  0  0  0  0  0  0
    8.0361  -14.5154   22.5208 C   0  0  0  0  0  0  0  0  0  0  0  0
    8.5301  -13.6122   21.7985 O   0  0  0  0  0  0  0  0  0  0  0  0
    8.9595  -15.4696   23.0784 N   0  0  0  0  0  0  0  0  0  0  0  0
   10.3714  -15.4357   22.8693 C   0  0  0  0  0  0  0  0  0  0  0  0
   11.0996  -16.6137   23.4027 C   0  0  0  0  0  0  0  0  0  0  0  0
   11.6538  -17.4208   22.6315 O   0  0  0  0  0  0  0  0  0  0  0  0
   11.1637  -16.8198   24.7961 N   0  0  0  0  0  0  0  0  0  0  0  0
   11.8923  -17.9207   25.4327 C   0  0  1  0  0  0  0  0  0  0  0  0
   13.2212  -17.9978   24.7871 C   0  0  0  0  0  0  0  0  0  0  0  0
   14.2067  -16.9269   25.0886 C   0  0  0  0  0  0  0  0  0  0  0  0
   15.4686  -17.1904   24.3526 C   0  0  0  0  0  0  0  0  0  0  0  0
   15.6485  -18.2162   23.6370 O   0  0  0  0  0  0  0  0  0  0  0  0
   11.7664  -17.9802   26.8701 C   0  0  0  0  0  0  0  0  0  0  0  0
   11.1331  -17.0371   27.6708 O   0  0  0  0  0  0  0  0  0  0  0  0
   16.4913  -16.2629   24.4593 O   0  0  0  0  0  0  0  0  0  0  0  0
   12.2778  -18.9654   27.4782 O   0  0  0  0  0  0  0  0  0  0  0  0
  2  1  1  1
  2 10  1  0
  3  2  1  0
  4  3  1  0
  4  9  2  0
  5  4  1  0
  6  5  2  0
  6  7  1  0
  7  8  2  0
  8  9  1  0
 10 11  2  0
 12 13  1  0
 12 10  1  0
 13 14  1  0
 14 16  1  0
 15 14  2  0
 16 17  1  0
 17 22  1  0
 17 18  1  1
 19 18  1  0
 19 20  1  0
 20 21  2  0
 20 24  1  0
 22 25  2  0
 22 23  1  0
M  END
$$$$
