FGE.pdb
     RDKit          3D

 25 25  0  0  1  0  0  0  0  0999 V2000
    5.9054  -16.8841   25.1873 N   0  0  0  0  0  0  0  0  0  0  0  0
    6.8530  -15.8349   24.8589 C   0  0  1  0  0  0  0  0  0  0  0  0
    7.3724  -15.2456   26.1410 C   0  0  0  0  0  0  0  0  0  0  0  0
    6.9903  -13.7839   26.1357 C   0  0  0  0  0  0  0  0  0  0  0  0
    7.9509  -12.8090   26.0107 C   0  0  0  0  0  0  0  0  0  0  0  0
    7.5727  -11.4964   26.0119 C   0  0  0  0  0  0  0  0  0  0  0  0
    6.2416  -11.1218   26.1363 C   0  0  0  0  0  0  0  0  0  0  0  0
    5.2702  -12.0932   26.2623 C   0  0  0  0  0  0  0  0  0  0  0  0
    5.6763  -13.4058   26.2584 C   0  0  0  0  0  0  0  0  0  0  0  0
    7.8758  -16.3808   23.9665 C   0  0  0  0  0  0  0  0  0  0  0  0
    8.4366  -17.4782   24.2167 O   0  0  0  0  0  0  0  0  0  0  0  0
    8.2952  -15.7035   22.7667 N   0  0  0  0  0  0  0  0  0  0  0  0
    9.4766  -16.0283   22.0338 C   0  0  0  0  0  0  0  0  0  0  0  0
   10.7300  -15.9542   22.8252 C   0  0  0  0  0  0  0  0  0  0  0  0
   11.0116  -14.9285   23.4747 O   0  0  0  0  0  0  0  0  0  0  0  0
   11.6093  -17.0564   22.8408 N   0  0  0  0  0  0  0  0  0  0  0  0
   12.9281  -17.0482   23.4802 C   0  0  1  0  0  0  0  0  0  0  0  0
   12.9050  -18.0748   24.5453 C   0  0  0  0  0  0  0  0  0  0  0  0
   11.8344  -17.9905   25.5728 C   0  0  0  0  0  0  0  0  0  0  0  0
   12.0008  -19.0899   26.5562 C   0  0  0  0  0  0  0  0  0  0  0  0
   12.8594  -20.0079   26.4259 O   0  0  0  0  0  0  0  0  0  0  0  0
   14.0438  -16.9575   22.5679 C   0  0  0  0  0  0  0  0  0  0  0  0
   15.3529  -16.6425   22.9126 O   0  0  0  0  0  0  0  0  0  0  0  0
   11.1736  -19.1021   27.6665 O   0  0  0  0  0  0  0  0  0  0  0  0
   13.8339  -17.1714   21.3382 O   0  0  0  0  0  0  0  0  0  0  0  0
  2  1  1  1
  2 10  1  0
  3  2  1  0
  4  3  1  0
  4  9  2  0
  5  4  1  0
  6  5  2  0
  6  7  1  0
  7  8  2  0
  8  9  1  0
 10 11  2  0
 12 13  1  0
 12 10  1  0
 13 14  1  0
 14 16  1  0
 15 14  2  0
 16 17  1  0
 17 22  1  0
 17 18  1  6
 19 18  1  0
 19 20  1  0
 20 21  2  0
 20 24  1  0
 22 25  2  0
 22 23  1  0
M  END
$$$$
