FGE.pdb
     RDKit          3D

 25 25  0  0  1  0  0  0  0  0999 V2000
    8.5053  -14.7980   21.7791 N   0  0  0  0  0  0  0  0  0  0  0  0
    8.1536  -14.4792   23.1507 C   0  0  1  0  0  0  0  0  0  0  0  0
    7.5755  -13.0916   23.1826 C   0  0  0  0  0  0  0  0  0  0  0  0
    7.2723  -12.7783   24.6292 C   0  0  0  0  0  0  0  0  0  0  0  0
    8.2721  -12.3822   25.4849 C   0  0  0  0  0  0  0  0  0  0  0  0
    7.9653  -12.1087   26.7876 C   0  0  0  0  0  0  0  0  0  0  0  0
    6.6681  -12.2208   27.2696 C   0  0  0  0  0  0  0  0  0  0  0  0
    5.6577  -12.6178   26.4183 C   0  0  0  0  0  0  0  0  0  0  0  0
    5.9922  -12.8870   25.1131 C   0  0  0  0  0  0  0  0  0  0  0  0
    7.2789  -15.5292   23.6733 C   0  0  0  0  0  0  0  0  0  0  0  0
    6.0658  -15.5851   23.3470 O   0  0  0  0  0  0  0  0  0  0  0  0
    7.7484  -16.5455   24.5792 N   0  0  0  0  0  0  0  0  0  0  0  0
    6.9247  -17.5766   25.1240 C   0  0  0  0  0  0  0  0  0  0  0  0
    7.6281  -18.5003   26.0486 C   0  0  0  0  0  0  0  0  0  0  0  0
    6.9925  -19.3467   26.7064 O   0  0  0  0  0  0  0  0  0  0  0  0
    9.0293  -18.4174   26.1824 N   0  0  0  0  0  0  0  0  0  0  0  0
    9.8115  -19.1958   27.1470 C   0  0  1  0  0  0  0  0  0  0  0  0
   11.1776  -19.3314   26.5956 C   0  0  0  0  0  0  0  0  0  0  0  0
   11.3441  -19.2684   25.1201 C   0  0  0  0  0  0  0  0  0  0  0  0
   12.7870  -19.3391   24.7787 C   0  0  0  0  0  0  0  0  0  0  0  0
   13.6980  -19.4344   25.6492 O   0  0  0  0  0  0  0  0  0  0  0  0
    9.6073  -18.8299   28.5291 C   0  0  0  0  0  0  0  0  0  0  0  0
    9.9568  -19.5974   29.6338 O   0  0  0  0  0  0  0  0  0  0  0  0
   13.1430  -19.2998   23.4411 O   0  0  0  0  0  0  0  0  0  0  0  0
    9.0548  -17.7196   28.7818 O   0  0  0  0  0  0  0  0  0  0  0  0
  2  1  1  6
  2 10  1  0
  3  2  1  0
  4  3  1  0
  4  9  2  0
  5  4  1  0
  6  5  2  0
  6  7  1  0
  7  8  2  0
  8  9  1  0
 10 11  2  0
 12 13  1  0
 12 10  1  0
 13 14  1  0
 14 16  1  0
 15 14  2  0
 16 17  1  0
 17 22  1  0
 17 18  1  6
 19 18  1  0
 19 20  1  0
 20 21  2  0
 20 24  1  0
 22 25  2  0
 22 23  1  0
M  END
$$$$
