DQE.pdb
     RDKit          3D

 27 26  0  0  1  0  0  0  0  0999 V2000
   26.6355  -20.7919  -10.1264 N   0  0  0  0  0  0  0  0  0  0  0  0
   25.3441  -20.8062  -10.7513 C   0  0  1  0  0  0  0  0  0  0  0  0
   24.2761  -20.1933   -9.8736 C   0  0  0  0  0  0  0  0  0  0  0  0
   24.1819  -20.9304   -8.5651 C   0  0  0  0  0  0  0  0  0  0  0  0
   25.0078  -21.8336   -8.2793 O   0  0  0  0  0  0  0  0  0  0  0  0
   25.4043  -20.1761  -12.0805 C   0  0  0  0  0  0  0  0  0  0  0  0
   25.9237  -19.0217  -12.2136 O   0  0  0  0  0  0  0  0  0  0  0  0
   23.1635  -20.5840   -7.6928 O   0  0  0  0  0  0  0  0  0  0  0  0
   27.5812  -22.3488  -17.0561 N   0  0  0  0  0  0  0  0  0  0  0  0
   26.6189  -23.0775  -16.3219 C   0  0  0  0  0  0  0  0  0  0  0  0
   26.5612  -24.3239  -16.3940 O   0  0  0  0  0  0  0  0  0  0  0  0
   25.6244  -22.3658  -15.4218 C   0  0  0  0  0  0  0  0  0  0  0  0
   25.9215  -20.9016  -15.4559 C   0  0  0  0  0  0  0  0  0  0  0  0
   24.9984  -20.1225  -14.5880 C   0  0  2  0  0  0  0  0  0  0  0  0
   24.9128  -20.7736  -13.2641 N   0  0  0  0  0  0  0  0  0  0  0  0
   23.6758  -19.9124  -15.1448 C   0  0  0  0  0  0  0  0  0  0  0  0
   22.7691  -20.7843  -14.8952 O   0  0  0  0  0  0  0  0  0  0  0  0
   23.2814  -18.8148  -15.9432 N   0  0  0  0  0  0  0  0  0  0  0  0
   21.8884  -18.6304  -16.3334 C   0  0  1  0  0  0  0  0  0  0  0  0
   21.7322  -17.3041  -17.0625 C   0  0  0  0  0  0  0  0  0  0  0  0
   20.3199  -16.9323  -17.3434 C   0  0  0  0  0  0  0  0  0  0  0  0
   20.1560  -15.6598  -18.0633 C   0  0  0  0  0  0  0  0  0  0  0  0
   21.0531  -14.8911  -18.4388 O   0  0  0  0  0  0  0  0  0  0  0  0
   21.5143  -19.7172  -17.2628 C   0  0  0  0  0  0  0  0  0  0  0  0
   22.4442  -20.2496  -18.1736 O   0  0  0  0  0  0  0  0  0  0  0  0
   18.8404  -15.2780  -18.3548 O   0  0  0  0  0  0  0  0  0  0  0  0
   20.3712  -20.1873  -17.2633 O   0  0  0  0  0  0  0  0  0  0  0  0
  2  3  1  0
  2  6  1  0
  2  1  1  1
  4  5  2  0
  4  3  1  0
  6  7  2  0
  8  4  1  0
 10  9  1  0
 10 12  1  0
 11 10  2  0
 13 12  1  0
 14 13  1  6
 15 14  1  0
 15  6  1  0
 16 17  2  0
 16 14  1  0
 18 16  1  0
 19 18  1  0
 19 20  1  6
 21 20  1  0
 21 22  1  0
 22 26  1  0
 23 22  2  0
 24 19  1  0
 25 24  1  0
 27 24  2  0
M  END
$$$$
