DQE.pdb
     RDKit          3D

 27 26  0  0  1  0  0  0  0  0999 V2000
   20.1806  -14.1528  -15.7652 N   0  0  0  0  0  0  0  0  0  0  0  0
   20.1535  -13.5927  -17.0857 C   0  0  1  0  0  0  0  0  0  0  0  0
   19.2440  -14.3631  -18.0163 C   0  0  0  0  0  0  0  0  0  0  0  0
   19.5716  -15.8312  -17.9779 C   0  0  0  0  0  0  0  0  0  0  0  0
   19.5018  -16.4738  -16.9001 O   0  0  0  0  0  0  0  0  0  0  0  0
   19.8168  -12.1604  -17.0345 C   0  0  0  0  0  0  0  0  0  0  0  0
   19.8070  -11.4712  -18.1046 O   0  0  0  0  0  0  0  0  0  0  0  0
   19.9496  -16.4466  -19.1596 O   0  0  0  0  0  0  0  0  0  0  0  0
   15.4651   -9.6040  -13.6930 N   0  0  0  0  0  0  0  0  0  0  0  0
   15.4442  -10.4909  -14.7924 C   0  0  0  0  0  0  0  0  0  0  0  0
   14.4127  -11.1343  -15.0824 O   0  0  0  0  0  0  0  0  0  0  0  0
   16.6775  -10.6890  -15.6559 C   0  0  0  0  0  0  0  0  0  0  0  0
   17.8087   -9.9280  -15.0437 C   0  0  0  0  0  0  0  0  0  0  0  0
   19.0606  -10.0508  -15.8374 C   0  0  2  0  0  0  0  0  0  0  0  0
   19.4915  -11.4644  -15.8474 N   0  0  0  0  0  0  0  0  0  0  0  0
   20.1411   -9.1865  -15.4025 C   0  0  0  0  0  0  0  0  0  0  0  0
   21.0155   -9.6694  -14.5983 O   0  0  0  0  0  0  0  0  0  0  0  0
   20.3306   -7.8417  -15.7940 N   0  0  0  0  0  0  0  0  0  0  0  0
   21.4283   -7.0482  -15.2534 C   0  0  1  0  0  0  0  0  0  0  0  0
   21.4667   -5.6917  -15.9412 C   0  0  0  0  0  0  0  0  0  0  0  0
   22.4471   -4.7425  -15.3499 C   0  0  0  0  0  0  0  0  0  0  0  0
   22.4542   -3.4083  -15.9697 C   0  0  0  0  0  0  0  0  0  0  0  0
   22.6796   -3.1360  -17.1579 O   0  0  0  0  0  0  0  0  0  0  0  0
   21.1833   -6.8304  -13.8121 C   0  0  0  0  0  0  0  0  0  0  0  0
   22.2486   -6.7110  -12.9016 O   0  0  0  0  0  0  0  0  0  0  0  0
   22.1754   -2.3296  -15.1212 O   0  0  0  0  0  0  0  0  0  0  0  0
   20.0326   -6.7473  -13.3687 O   0  0  0  0  0  0  0  0  0  0  0  0
  2  3  1  0
  2  6  1  0
  2  1  1  1
  4  5  2  0
  4  3  1  0
  6  7  2  0
  8  4  1  0
 10  9  1  0
 10 12  1  0
 11 10  2  0
 13 12  1  0
 14 13  1  1
 15 14  1  0
 15  6  1  0
 16 17  2  0
 16 14  1  0
 18 16  1  0
 19 18  1  0
 19 20  1  6
 21 20  1  0
 21 22  1  0
 22 26  1  0
 23 22  2  0
 24 19  1  0
 25 24  1  0
 27 24  2  0
M  END
$$$$
