DQE.pdb
     RDKit          3D

 27 26  0  0  1  0  0  0  0  0999 V2000
   18.8993  -12.4011  -15.5506 N   0  0  0  0  0  0  0  0  0  0  0  0
   18.0425  -11.2551  -15.4457 C   0  0  1  0  0  0  0  0  0  0  0  0
   16.5804  -11.6363  -15.3865 C   0  0  0  0  0  0  0  0  0  0  0  0
   16.1922  -12.4282  -16.6057 C   0  0  0  0  0  0  0  0  0  0  0  0
   16.5948  -12.0850  -17.7457 O   0  0  0  0  0  0  0  0  0  0  0  0
   18.4456  -10.4086  -14.3106 C   0  0  0  0  0  0  0  0  0  0  0  0
   18.5664  -10.9171  -13.1500 O   0  0  0  0  0  0  0  0  0  0  0  0
   15.3831  -13.5387  -16.4322 O   0  0  0  0  0  0  0  0  0  0  0  0
   22.1093   -5.4850  -14.6293 N   0  0  0  0  0  0  0  0  0  0  0  0
   21.9048   -5.5557  -13.2333 C   0  0  0  0  0  0  0  0  0  0  0  0
   22.5870   -4.8654  -12.4458 O   0  0  0  0  0  0  0  0  0  0  0  0
   20.8474   -6.4748  -12.6474 C   0  0  0  0  0  0  0  0  0  0  0  0
   20.2304   -7.2549  -13.7628 C   0  0  0  0  0  0  0  0  0  0  0  0
   19.2076   -8.2178  -13.2739 C   0  0  2  0  0  0  0  0  0  0  0  0
   18.7190   -9.0249  -14.4113 N   0  0  0  0  0  0  0  0  0  0  0  0
   18.1003   -7.6141  -12.5578 C   0  0  0  0  0  0  0  0  0  0  0  0
   17.2363   -6.9472  -13.2312 O   0  0  0  0  0  0  0  0  0  0  0  0
   17.8736   -7.6992  -11.1653 N   0  0  0  0  0  0  0  0  0  0  0  0
   16.7048   -7.0772  -10.5539 C   0  0  1  0  0  0  0  0  0  0  0  0
   15.7728   -8.1541  -10.0188 C   0  0  0  0  0  0  0  0  0  0  0  0
   14.5282   -7.6232   -9.4016 C   0  0  0  0  0  0  0  0  0  0  0  0
   13.5946   -8.6560   -8.9264 C   0  0  0  0  0  0  0  0  0  0  0  0
   12.5057   -8.4780   -8.3612 O   0  0  0  0  0  0  0  0  0  0  0  0
   17.1564   -6.2480   -9.4166 C   0  0  0  0  0  0  0  0  0  0  0  0
   16.2918   -5.3283   -8.7966 O   0  0  0  0  0  0  0  0  0  0  0  0
   13.9817   -9.9854   -9.1372 O   0  0  0  0  0  0  0  0  0  0  0  0
   18.3089   -6.3419   -8.9801 O   0  0  0  0  0  0  0  0  0  0  0  0
  2  3  1  0
  2  6  1  0
  2  1  1  1
  4  5  2  0
  4  3  1  0
  6  7  2  0
  8  4  1  0
 10  9  1  0
 10 12  1  0
 11 10  2  0
 13 12  1  0
 14 13  1  6
 15 14  1  0
 15  6  1  0
 16 17  2  0
 16 14  1  0
 18 16  1  0
 19 18  1  0
 19 20  1  1
 21 20  1  0
 21 22  1  0
 22 26  1  0
 23 22  2  0
 24 19  1  0
 25 24  1  0
 27 24  2  0
M  END
$$$$
