DQE.pdb
     RDKit          3D

 27 26  0  0  1  0  0  0  0  0999 V2000
   22.6024  -17.9093  -17.1091 N   0  0  0  0  0  0  0  0  0  0  0  0
   22.5640  -18.0743  -15.6845 C   0  0  1  0  0  0  0  0  0  0  0  0
   21.5603  -17.1534  -15.0278 C   0  0  0  0  0  0  0  0  0  0  0  0
   20.2346  -17.2279  -15.7357 C   0  0  0  0  0  0  0  0  0  0  0  0
   20.1341  -17.8095  -16.8453 O   0  0  0  0  0  0  0  0  0  0  0  0
   22.3408  -19.4863  -15.3320 C   0  0  0  0  0  0  0  0  0  0  0  0
   21.7242  -20.2530  -16.1395 O   0  0  0  0  0  0  0  0  0  0  0  0
   19.1372  -16.6392  -15.1296 O   0  0  0  0  0  0  0  0  0  0  0  0
   25.5131  -23.4137  -15.7593 N   0  0  0  0  0  0  0  0  0  0  0  0
   24.8686  -23.3661  -14.5031 C   0  0  0  0  0  0  0  0  0  0  0  0
   24.2816  -24.3681  -14.0411 O   0  0  0  0  0  0  0  0  0  0  0  0
   24.8704  -22.0930  -13.6754 C   0  0  0  0  0  0  0  0  0  0  0  0
   23.5800  -22.0164  -12.9255 C   0  0  0  0  0  0  0  0  0  0  0  0
   22.4750  -21.4821  -13.7655 C   0  0  2  0  0  0  0  0  0  0  0  0
   22.7729  -20.0795  -14.1234 N   0  0  0  0  0  0  0  0  0  0  0  0
   21.1556  -21.5931  -13.1735 C   0  0  0  0  0  0  0  0  0  0  0  0
   20.8037  -20.7118  -12.3109 O   0  0  0  0  0  0  0  0  0  0  0  0
   20.2004  -22.5924  -13.4680 N   0  0  0  0  0  0  0  0  0  0  0  0
   18.8541  -22.5340  -12.9105 C   0  0  1  0  0  0  0  0  0  0  0  0
   17.8446  -22.9651  -13.9640 C   0  0  0  0  0  0  0  0  0  0  0  0
   16.4398  -22.9966  -13.4768 C   0  0  0  0  0  0  0  0  0  0  0  0
   15.4681  -23.5175  -14.4508 C   0  0  0  0  0  0  0  0  0  0  0  0
   14.2529  -23.2768  -14.4978 O   0  0  0  0  0  0  0  0  0  0  0  0
   18.7747  -23.4801  -11.7776 C   0  0  0  0  0  0  0  0  0  0  0  0
   17.8355  -23.3043  -10.7457 O   0  0  0  0  0  0  0  0  0  0  0  0
   15.9750  -24.3796  -15.4312 O   0  0  0  0  0  0  0  0  0  0  0  0
   19.5339  -24.4529  -11.7080 O   0  0  0  0  0  0  0  0  0  0  0  0
  2  3  1  0
  2  6  1  0
  2  1  1  6
  4  5  2  0
  4  3  1  0
  6  7  2  0
  8  4  1  0
 10  9  1  0
 10 12  1  0
 11 10  2  0
 13 12  1  0
 14 13  1  1
 15 14  1  0
 15  6  1  0
 16 17  2  0
 16 14  1  0
 18 16  1  0
 19 18  1  0
 19 20  1  6
 21 20  1  0
 21 22  1  0
 22 26  1  0
 23 22  2  0
 24 19  1  0
 25 24  1  0
 27 24  2  0
M  END
$$$$
