DQE.pdb
     RDKit          3D

 27 26  0  0  1  0  0  0  0  0999 V2000
   13.9454  -11.4274  -12.6151 N   0  0  0  0  0  0  0  0  0  0  0  0
   15.3402  -11.3005  -12.3042 C   0  0  1  0  0  0  0  0  0  0  0  0
   16.2137  -12.0808  -13.2606 C   0  0  0  0  0  0  0  0  0  0  0  0
   15.9683  -13.5580  -13.1132 C   0  0  0  0  0  0  0  0  0  0  0  0
   15.3853  -14.0108  -12.0960 O   0  0  0  0  0  0  0  0  0  0  0  0
   15.7268   -9.8820  -12.2251 C   0  0  0  0  0  0  0  0  0  0  0  0
   15.4179   -9.0856  -13.1688 O   0  0  0  0  0  0  0  0  0  0  0  0
   16.4023  -14.3960  -14.1268 O   0  0  0  0  0  0  0  0  0  0  0  0
   15.5942   -6.3177   -7.3554 N   0  0  0  0  0  0  0  0  0  0  0  0
   16.1763   -5.4097   -8.2678 C   0  0  0  0  0  0  0  0  0  0  0  0
   16.3090   -4.2010   -7.9787 O   0  0  0  0  0  0  0  0  0  0  0  0
   16.6590   -5.8770   -9.6296 C   0  0  0  0  0  0  0  0  0  0  0  0
   16.3812   -7.3404   -9.7515 C   0  0  0  0  0  0  0  0  0  0  0  0
   16.7873   -7.8789  -11.0772 C   0  0  2  0  0  0  0  0  0  0  0  0
   16.4401   -9.3138  -11.1445 N   0  0  0  0  0  0  0  0  0  0  0  0
   18.1825   -7.6706  -11.4144 C   0  0  0  0  0  0  0  0  0  0  0  0
   19.0718   -8.2444  -10.6902 O   0  0  0  0  0  0  0  0  0  0  0  0
   18.6639   -6.8888  -12.4890 N   0  0  0  0  0  0  0  0  0  0  0  0
   20.0790   -6.8845  -12.8414 C   0  0  1  0  0  0  0  0  0  0  0  0
   20.2333   -6.6551  -14.3375 C   0  0  0  0  0  0  0  0  0  0  0  0
   21.6381   -6.4341  -14.7727 C   0  0  0  0  0  0  0  0  0  0  0  0
   21.7918   -6.1219  -16.2021 C   0  0  0  0  0  0  0  0  0  0  0  0
   22.7920   -5.6497  -16.7620 O   0  0  0  0  0  0  0  0  0  0  0  0
   20.7355   -5.7668  -12.1309 C   0  0  0  0  0  0  0  0  0  0  0  0
   22.1193   -5.7751  -11.8801 O   0  0  0  0  0  0  0  0  0  0  0  0
   20.6844   -6.3885  -17.0170 O   0  0  0  0  0  0  0  0  0  0  0  0
   20.0831   -4.7934  -11.7379 O   0  0  0  0  0  0  0  0  0  0  0  0
  2  3  1  0
  2  6  1  0
  2  1  1  6
  4  5  2  0
  4  3  1  0
  6  7  2  0
  8  4  1  0
 10  9  1  0
 10 12  1  0
 11 10  2  0
 13 12  1  0
 14 13  1  1
 15 14  1  0
 15  6  1  0
 16 17  2  0
 16 14  1  0
 18 16  1  0
 19 18  1  0
 19 20  1  6
 21 20  1  0
 21 22  1  0
 22 26  1  0
 23 22  2  0
 24 19  1  0
 25 24  1  0
 27 24  2  0
M  END
$$$$
