DQE.pdb
     RDKit          3D

 27 26  0  0  1  0  0  0  0  0999 V2000
   27.5971  -21.0498  -17.2477 N   0  0  0  0  0  0  0  0  0  0  0  0
   27.1225  -20.1723  -16.2167 C   0  0  1  0  0  0  0  0  0  0  0  0
   26.5301  -18.8985  -16.7762 C   0  0  0  0  0  0  0  0  0  0  0  0
   27.5629  -18.1380  -17.5632 C   0  0  0  0  0  0  0  0  0  0  0  0
   27.3153  -17.7456  -18.7312 O   0  0  0  0  0  0  0  0  0  0  0  0
   26.1879  -20.8783  -15.3246 C   0  0  0  0  0  0  0  0  0  0  0  0
   25.2860  -21.6303  -15.8159 O   0  0  0  0  0  0  0  0  0  0  0  0
   28.7856  -17.8865  -16.9634 O   0  0  0  0  0  0  0  0  0  0  0  0
   26.7543  -21.3270   -9.1327 N   0  0  0  0  0  0  0  0  0  0  0  0
   25.7427  -20.3908   -9.4424 C   0  0  0  0  0  0  0  0  0  0  0  0
   25.3130  -19.5962   -8.5786 O   0  0  0  0  0  0  0  0  0  0  0  0
   25.1463  -20.3226  -10.8372 C   0  0  0  0  0  0  0  0  0  0  0  0
   25.7090  -21.4463  -11.6460 C   0  0  0  0  0  0  0  0  0  0  0  0
   25.2090  -21.4333  -13.0467 C   0  0  2  0  0  0  0  0  0  0  0  0
   26.2138  -20.7836  -13.9140 N   0  0  0  0  0  0  0  0  0  0  0  0
   23.9062  -20.8197  -13.2195 C   0  0  0  0  0  0  0  0  0  0  0  0
   23.8332  -19.5395  -13.1990 O   0  0  0  0  0  0  0  0  0  0  0  0
   22.6891  -21.5098  -13.4202 N   0  0  0  0  0  0  0  0  0  0  0  0
   21.4517  -20.7885  -13.6943 C   0  0  1  0  0  0  0  0  0  0  0  0
   20.9711  -21.1126  -15.1010 C   0  0  0  0  0  0  0  0  0  0  0  0
   19.7101  -20.4225  -15.4822 C   0  0  0  0  0  0  0  0  0  0  0  0
   19.2292  -20.7353  -16.8369 C   0  0  0  0  0  0  0  0  0  0  0  0
   18.1588  -20.3804  -17.3519 O   0  0  0  0  0  0  0  0  0  0  0  0
   20.4221  -21.2435  -12.7364 C   0  0  0  0  0  0  0  0  0  0  0  0
   19.2913  -20.4566  -12.4534 O   0  0  0  0  0  0  0  0  0  0  0  0
   20.0760  -21.5206  -17.6290 O   0  0  0  0  0  0  0  0  0  0  0  0
   20.5288  -22.3304  -12.1577 O   0  0  0  0  0  0  0  0  0  0  0  0
  2  3  1  0
  2  6  1  0
  2  1  1  6
  4  5  2  0
  4  3  1  0
  6  7  2  0
  8  4  1  0
 10  9  1  0
 10 12  1  0
 11 10  2  0
 13 12  1  0
 14 13  1  1
 15 14  1  0
 15  6  1  0
 16 17  2  0
 16 14  1  0
 18 16  1  0
 19 18  1  0
 19 20  1  6
 21 20  1  0
 21 22  1  0
 22 26  1  0
 23 22  2  0
 24 19  1  0
 25 24  1  0
 27 24  2  0
M  END
$$$$
