CYE.pdb
     RDKit          3D

 28 28  0  0  1  0  0  0  0  0999 V2000
    7.7369  -14.8037   19.3028 N   0  0  0  0  0  0  0  0  0  0  0  0
    7.2349  -15.4532   20.5146 C   0  0  1  0  0  0  0  0  0  0  0  0
    7.0519  -16.9236   20.1590 C   0  0  0  0  0  0  0  0  0  0  0  0
    6.4718  -17.8860   21.5710 S   0  0  0  0  0  0  0  0  0  0  0  0
    8.1927  -15.2831   21.6164 C   0  0  0  0  0  0  0  0  0  0  0  0
    9.3727  -14.9485   21.3205 O   0  0  0  0  0  0  0  0  0  0  0  0
   10.3435  -13.9863   30.2447 O   0  0  0  0  0  0  0  0  0  0  0  0
    9.7169  -14.1196   29.0062 C   0  0  0  0  0  0  0  0  0  0  0  0
    9.0622  -13.0735   28.4033 C   0  0  0  0  0  0  0  0  0  0  0  0
    8.4558  -13.2675   27.1666 C   0  0  0  0  0  0  0  0  0  0  0  0
    8.4733  -14.4666   26.4995 C   0  0  0  0  0  0  0  0  0  0  0  0
    7.8404  -14.6713   25.1949 C   0  0  0  0  0  0  0  0  0  0  0  0
    8.7285  -15.1177   24.0744 C   0  0  2  0  0  0  0  0  0  0  0  0
    7.8211  -15.4828   22.9539 N   0  0  0  0  0  0  0  0  0  0  0  0
    9.5799  -16.2731   24.3436 C   0  0  0  0  0  0  0  0  0  0  0  0
   10.4832  -16.1511   25.2611 O   0  0  0  0  0  0  0  0  0  0  0  0
    9.1468  -15.5189   27.1338 C   0  0  0  0  0  0  0  0  0  0  0  0
    9.7435  -15.3160   28.3578 C   0  0  0  0  0  0  0  0  0  0  0  0
    9.5271  -17.5361   23.7116 N   0  0  0  0  0  0  0  0  0  0  0  0
   10.7237  -18.3418   23.6049 C   0  0  1  0  0  0  0  0  0  0  0  0
   11.7973  -17.5686   22.8514 C   0  0  0  0  0  0  0  0  0  0  0  0
   13.1287  -17.6834   23.5000 C   0  0  0  0  0  0  0  0  0  0  0  0
   14.2479  -17.4293   22.5590 C   0  0  0  0  0  0  0  0  0  0  0  0
   14.1351  -17.7845   21.3726 O   0  0  0  0  0  0  0  0  0  0  0  0
   11.1515  -18.7869   24.9436 C   0  0  0  0  0  0  0  0  0  0  0  0
   11.0813  -18.0196   25.9364 O   0  0  0  0  0  0  0  0  0  0  0  0
   15.3977  -16.8101   22.9839 O   0  0  0  0  0  0  0  0  0  0  0  0
   11.6533  -20.0529   25.2265 O   0  0  0  0  0  0  0  0  0  0  0  0
  2  1  1  6
  3  2  1  0
  3  4  1  0
  5  6  2  0
  5  2  1  0
  8  7  1  0
  9  8  2  0
 10  9  1  0
 11 10  2  0
 11 17  1  0
 12 11  1  0
 13 12  1  1
 13 14  1  0
 14  5  1  0
 15 19  1  0
 15 13  1  0
 16 15  2  0
 17 18  2  0
 18  8  1  0
 20 19  1  0
 20 25  1  0
 20 21  1  1
 22 21  1  0
 23 22  1  0
 23 24  2  0
 25 28  1  0
 26 25  2  0
 27 23  1  0
M  END
$$$$
