CYE.pdb
     RDKit          3D

 28 28  0  0  1  0  0  0  0  0999 V2000
    7.7253  -12.7847   18.1777 N   0  0  0  0  0  0  0  0  0  0  0  0
    7.3054  -13.8938   19.0355 C   0  0  1  0  0  0  0  0  0  0  0  0
    7.7561  -15.1664   18.3288 C   0  0  0  0  0  0  0  0  0  0  0  0
    7.4202  -16.6366   19.3199 S   0  0  0  0  0  0  0  0  0  0  0  0
    7.9226  -13.7708   20.3639 C   0  0  0  0  0  0  0  0  0  0  0  0
    9.1386  -13.4384   20.4164 O   0  0  0  0  0  0  0  0  0  0  0  0
    8.1876  -13.7744   29.3566 O   0  0  0  0  0  0  0  0  0  0  0  0
    7.8245  -13.7979   28.0105 C   0  0  0  0  0  0  0  0  0  0  0  0
    7.2613  -14.9057   27.4259 C   0  0  0  0  0  0  0  0  0  0  0  0
    6.9198  -14.8691   26.0780 C   0  0  0  0  0  0  0  0  0  0  0  0
    7.1163  -13.7691   25.2814 C   0  0  0  0  0  0  0  0  0  0  0  0
    6.7523  -13.7265   23.8636 C   0  0  0  0  0  0  0  0  0  0  0  0
    7.8494  -13.9782   22.8754 C   0  0  2  0  0  0  0  0  0  0  0  0
    7.1966  -14.0116   21.5393 N   0  0  0  0  0  0  0  0  0  0  0  0
    8.5895  -15.2271   23.0333 C   0  0  0  0  0  0  0  0  0  0  0  0
    8.0418  -16.3091   22.5838 O   0  0  0  0  0  0  0  0  0  0  0  0
    7.6921  -12.6512   25.8994 C   0  0  0  0  0  0  0  0  0  0  0  0
    8.0263  -12.6983   27.2342 C   0  0  0  0  0  0  0  0  0  0  0  0
    9.8619  -15.3946   23.6249 N   0  0  0  0  0  0  0  0  0  0  0  0
   10.4738  -16.7047   23.6654 C   0  0  1  0  0  0  0  0  0  0  0  0
   11.8524  -16.6471   23.0217 C   0  0  0  0  0  0  0  0  0  0  0  0
   12.5369  -17.9653   23.0466 C   0  0  0  0  0  0  0  0  0  0  0  0
   13.8777  -17.9262   22.4115 C   0  0  0  0  0  0  0  0  0  0  0  0
   14.0494  -17.2232   21.4001 O   0  0  0  0  0  0  0  0  0  0  0  0
   10.4935  -17.2081   25.0509 C   0  0  0  0  0  0  0  0  0  0  0  0
   10.2133  -16.4570   26.0188 O   0  0  0  0  0  0  0  0  0  0  0  0
   14.9221  -18.6540   22.9271 O   0  0  0  0  0  0  0  0  0  0  0  0
   10.8101  -18.5149   25.4066 O   0  0  0  0  0  0  0  0  0  0  0  0
  2  1  1  6
  3  2  1  0
  3  4  1  0
  5  6  2  0
  5  2  1  0
  8  7  1  0
  9  8  2  0
 10  9  1  0
 11 10  2  0
 11 17  1  0
 12 11  1  0
 13 12  1  1
 13 14  1  0
 14  5  1  0
 15 19  1  0
 15 13  1  0
 16 15  2  0
 17 18  2  0
 18  8  1  0
 20 19  1  0
 20 25  1  0
 20 21  1  1
 22 21  1  0
 23 22  1  0
 23 24  2  0
 25 28  1  0
 26 25  2  0
 27 23  1  0
M  END
$$$$
