CYE.pdb
     RDKit          3D

 28 28  0  0  1  0  0  0  0  0999 V2000
    7.5375  -12.7061   19.0004 N   0  0  0  0  0  0  0  0  0  0  0  0
    7.1843  -13.7619   19.9505 C   0  0  1  0  0  0  0  0  0  0  0  0
    7.3285  -15.0758   19.1924 C   0  0  0  0  0  0  0  0  0  0  0  0
    7.0732  -16.5010   20.2695 S   0  0  0  0  0  0  0  0  0  0  0  0
    8.0771  -13.7152   21.1173 C   0  0  0  0  0  0  0  0  0  0  0  0
    9.2434  -13.2660   20.9448 O   0  0  0  0  0  0  0  0  0  0  0  0
   10.1839  -14.7098   29.8159 O   0  0  0  0  0  0  0  0  0  0  0  0
    9.5565  -14.5436   28.5817 C   0  0  0  0  0  0  0  0  0  0  0  0
    9.1713  -13.3091   28.1193 C   0  0  0  0  0  0  0  0  0  0  0  0
    8.5491  -13.2063   26.8795 C   0  0  0  0  0  0  0  0  0  0  0  0
    8.2924  -14.2875   26.0744 C   0  0  0  0  0  0  0  0  0  0  0  0
    7.6427  -14.1809   24.7663 C   0  0  0  0  0  0  0  0  0  0  0  0
    8.5389  -14.0263   23.5761 C   0  0  2  0  0  0  0  0  0  0  0  0
    7.6596  -14.1514   22.3830 N   0  0  0  0  0  0  0  0  0  0  0  0
    9.6082  -15.0112   23.4381 C   0  0  0  0  0  0  0  0  0  0  0  0
   10.7313  -14.7631   24.0293 O   0  0  0  0  0  0  0  0  0  0  0  0
    8.6940  -15.5363   26.5668 C   0  0  0  0  0  0  0  0  0  0  0  0
    9.3089  -15.6266   27.7953 C   0  0  0  0  0  0  0  0  0  0  0  0
    9.5564  -16.2310   22.7263 N   0  0  0  0  0  0  0  0  0  0  0  0
   10.5816  -17.2310   22.9297 C   0  0  1  0  0  0  0  0  0  0  0  0
   10.6119  -17.6440   24.3949 C   0  0  0  0  0  0  0  0  0  0  0  0
   11.6112  -18.7120   24.6546 C   0  0  0  0  0  0  0  0  0  0  0  0
   11.6406  -19.1350   26.0769 C   0  0  0  0  0  0  0  0  0  0  0  0
   12.6313  -19.7523   26.5056 O   0  0  0  0  0  0  0  0  0  0  0  0
   10.3729  -18.3606   22.0057 C   0  0  0  0  0  0  0  0  0  0  0  0
    9.2407  -18.5967   21.5140 O   0  0  0  0  0  0  0  0  0  0  0  0
   10.5913  -18.8527   26.9168 O   0  0  0  0  0  0  0  0  0  0  0  0
   11.3725  -19.2396   21.6026 O   0  0  0  0  0  0  0  0  0  0  0  0
  2  1  1  6
  3  2  1  0
  3  4  1  0
  5  6  2  0
  5  2  1  0
  8  7  1  0
  9  8  2  0
 10  9  1  0
 11 10  2  0
 11 17  1  0
 12 11  1  0
 13 12  1  1
 13 14  1  0
 14  5  1  0
 15 19  1  0
 15 13  1  0
 16 15  2  0
 17 18  2  0
 18  8  1  0
 20 19  1  0
 20 25  1  0
 20 21  1  1
 22 21  1  0
 23 22  1  0
 23 24  2  0
 25 28  1  0
 26 25  2  0
 27 23  1  0
M  END
$$$$
