CYE.pdb
     RDKit          3D

 28 28  0  0  1  0  0  0  0  0999 V2000
    8.4696  -12.9954   17.7551 N   0  0  0  0  0  0  0  0  0  0  0  0
    7.8770  -13.9804   18.6612 C   0  0  1  0  0  0  0  0  0  0  0  0
    8.3810  -15.3400   18.1927 C   0  0  0  0  0  0  0  0  0  0  0  0
    7.9223  -16.6550   19.3402 S   0  0  0  0  0  0  0  0  0  0  0  0
    8.2838  -13.7060   20.0467 C   0  0  0  0  0  0  0  0  0  0  0  0
    9.4352  -13.2256   20.2349 O   0  0  0  0  0  0  0  0  0  0  0  0
    7.2139  -12.7215   28.9123 O   0  0  0  0  0  0  0  0  0  0  0  0
    7.0559  -12.9625   27.5480 C   0  0  0  0  0  0  0  0  0  0  0  0
    6.6456  -14.1809   27.0649 C   0  0  0  0  0  0  0  0  0  0  0  0
    6.5061  -14.3612   25.6928 C   0  0  0  0  0  0  0  0  0  0  0  0
    6.7592  -13.3735   24.7743 C   0  0  0  0  0  0  0  0  0  0  0  0
    6.6075  -13.5596   23.3297 C   0  0  0  0  0  0  0  0  0  0  0  0
    7.8650  -13.7241   22.5327 C   0  0  2  0  0  0  0  0  0  0  0  0
    7.4318  -13.9644   21.1303 N   0  0  0  0  0  0  0  0  0  0  0  0
    8.7362  -14.8307   22.9185 C   0  0  0  0  0  0  0  0  0  0  0  0
    9.2565  -14.7992   24.1020 O   0  0  0  0  0  0  0  0  0  0  0  0
    7.1766  -12.1396   25.2902 C   0  0  0  0  0  0  0  0  0  0  0  0
    7.3114  -11.9720   26.6501 C   0  0  0  0  0  0  0  0  0  0  0  0
    9.0787  -15.9577   22.1375 N   0  0  0  0  0  0  0  0  0  0  0  0
    9.8993  -17.0064   22.7023 C   0  0  1  0  0  0  0  0  0  0  0  0
    9.9311  -18.1988   21.7560 C   0  0  0  0  0  0  0  0  0  0  0  0
   10.7834  -19.3004   22.2725 C   0  0  0  0  0  0  0  0  0  0  0  0
   10.8571  -20.4526   21.3399 C   0  0  0  0  0  0  0  0  0  0  0  0
    9.8061  -21.0179   20.9902 O   0  0  0  0  0  0  0  0  0  0  0  0
   11.2371  -16.4788   23.0269 C   0  0  0  0  0  0  0  0  0  0  0  0
   11.7459  -15.5437   22.3590 O   0  0  0  0  0  0  0  0  0  0  0  0
   12.0665  -20.8962   20.8638 O   0  0  0  0  0  0  0  0  0  0  0  0
   12.0341  -16.9464   24.0664 O   0  0  0  0  0  0  0  0  0  0  0  0
  2  1  1  6
  3  2  1  0
  3  4  1  0
  5  6  2  0
  5  2  1  0
  8  7  1  0
  9  8  2  0
 10  9  1  0
 11 10  2  0
 11 17  1  0
 12 11  1  0
 13 12  1  1
 13 14  1  0
 14  5  1  0
 15 19  1  0
 15 13  1  0
 16 15  2  0
 17 18  2  0
 18  8  1  0
 20 19  1  0
 20 25  1  0
 20 21  1  6
 22 21  1  0
 23 22  1  0
 23 24  2  0
 25 28  1  0
 26 25  2  0
 27 23  1  0
M  END
$$$$
