CYE.pdb
     RDKit          3D

 28 28  0  0  1  0  0  0  0  0999 V2000
    7.4296  -13.0528   17.7704 N   0  0  0  0  0  0  0  0  0  0  0  0
    7.1159  -13.8881   18.9307 C   0  0  1  0  0  0  0  0  0  0  0  0
    7.1168  -15.3261   18.4267 C   0  0  0  0  0  0  0  0  0  0  0  0
    8.7731  -15.8708   17.9615 S   0  0  0  0  0  0  0  0  0  0  0  0
    8.1193  -13.6892   19.9862 C   0  0  0  0  0  0  0  0  0  0  0  0
    8.8240  -12.6439   19.9352 O   0  0  0  0  0  0  0  0  0  0  0  0
    6.4690  -12.1368   28.2677 O   0  0  0  0  0  0  0  0  0  0  0  0
    6.6168  -12.5135   26.9332 C   0  0  0  0  0  0  0  0  0  0  0  0
    6.0468  -13.6574   26.4305 C   0  0  0  0  0  0  0  0  0  0  0  0
    6.2295  -13.9808   25.0900 C   0  0  0  0  0  0  0  0  0  0  0  0
    6.9604  -13.2087   24.2224 C   0  0  0  0  0  0  0  0  0  0  0  0
    7.1493  -13.5445   22.8096 C   0  0  0  0  0  0  0  0  0  0  0  0
    8.4478  -14.1903   22.4351 C   0  0  2  0  0  0  0  0  0  0  0  0
    8.2972  -14.6208   21.0193 N   0  0  0  0  0  0  0  0  0  0  0  0
    8.8348  -15.3648   23.2118 C   0  0  0  0  0  0  0  0  0  0  0  0
    8.0796  -16.4116   23.1317 O   0  0  0  0  0  0  0  0  0  0  0  0
    7.5324  -12.0471   24.7576 C   0  0  0  0  0  0  0  0  0  0  0  0
    7.3452  -11.7365   26.0858 C   0  0  0  0  0  0  0  0  0  0  0  0
    9.9637  -15.4968   24.0517 N   0  0  0  0  0  0  0  0  0  0  0  0
   10.4168  -16.8106   24.4528 C   0  0  1  0  0  0  0  0  0  0  0  0
   11.9039  -16.9524   24.1584 C   0  0  0  0  0  0  0  0  0  0  0  0
   12.4657  -18.2125   24.7092 C   0  0  0  0  0  0  0  0  0  0  0  0
   13.9180  -18.3575   24.4405 C   0  0  0  0  0  0  0  0  0  0  0  0
   14.4650  -17.5870   23.6320 O   0  0  0  0  0  0  0  0  0  0  0  0
   10.0727  -17.0517   25.8659 C   0  0  0  0  0  0  0  0  0  0  0  0
    9.8505  -16.0969   26.6523 O   0  0  0  0  0  0  0  0  0  0  0  0
   14.6571  -19.3275   25.0720 O   0  0  0  0  0  0  0  0  0  0  0  0
    9.9626  -18.3126   26.4427 O   0  0  0  0  0  0  0  0  0  0  0  0
  2  1  1  6
  3  2  1  0
  3  4  1  0
  5  6  2  0
  5  2  1  0
  8  7  1  0
  9  8  2  0
 10  9  1  0
 11 10  2  0
 11 17  1  0
 12 11  1  0
 13 12  1  1
 13 14  1  0
 14  5  1  0
 15 19  1  0
 15 13  1  0
 16 15  2  0
 17 18  2  0
 18  8  1  0
 20 19  1  0
 20 25  1  0
 20 21  1  1
 22 21  1  0
 23 22  1  0
 23 24  2  0
 25 28  1  0
 26 25  2  0
 27 23  1  0
M  END
$$$$
