CYE.pdb
     RDKit          3D

 28 28  0  0  1  0  0  0  0  0999 V2000
    9.6889  -16.7426   18.0064 N   0  0  0  0  0  0  0  0  0  0  0  0
    8.5220  -16.8018   18.8880 C   0  0  1  0  0  0  0  0  0  0  0  0
    8.2256  -18.2821   19.0950 C   0  0  0  0  0  0  0  0  0  0  0  0
    9.5170  -19.0945   20.0586 S   0  0  0  0  0  0  0  0  0  0  0  0
    8.8134  -16.1300   20.1625 C   0  0  0  0  0  0  0  0  0  0  0  0
   10.0238  -15.9235   20.4526 O   0  0  0  0  0  0  0  0  0  0  0  0
    6.7722  -12.2012   28.0087 O   0  0  0  0  0  0  0  0  0  0  0  0
    6.7818  -12.7656   26.7336 C   0  0  0  0  0  0  0  0  0  0  0  0
    6.3065  -14.0314   26.4923 C   0  0  0  0  0  0  0  0  0  0  0  0
    6.3424  -14.5406   25.1984 C   0  0  0  0  0  0  0  0  0  0  0  0
    6.8345  -13.8388   24.1268 C   0  0  0  0  0  0  0  0  0  0  0  0
    6.8679  -14.3708   22.7629 C   0  0  0  0  0  0  0  0  0  0  0  0
    8.0943  -15.1324   22.3634 C   0  0  2  0  0  0  0  0  0  0  0  0
    7.7913  -15.7275   21.0343 N   0  0  0  0  0  0  0  0  0  0  0  0
    8.4983  -16.2206   23.2494 C   0  0  0  0  0  0  0  0  0  0  0  0
    8.3756  -17.4299   22.8077 O   0  0  0  0  0  0  0  0  0  0  0  0
    7.3137  -12.5502   24.3970 C   0  0  0  0  0  0  0  0  0  0  0  0
    7.2735  -12.0560   25.6814 C   0  0  0  0  0  0  0  0  0  0  0  0
    9.0245  -16.1049   24.5559 N   0  0  0  0  0  0  0  0  0  0  0  0
   10.0758  -16.9968   24.9936 C   0  0  1  0  0  0  0  0  0  0  0  0
   11.2020  -17.0042   23.9690 C   0  0  0  0  0  0  0  0  0  0  0  0
   12.3896  -17.7568   24.4484 C   0  0  0  0  0  0  0  0  0  0  0  0
   13.4868  -17.7919   23.4496 C   0  0  0  0  0  0  0  0  0  0  0  0
   14.3844  -16.9330   23.5044 O   0  0  0  0  0  0  0  0  0  0  0  0
   10.5186  -16.6252   26.3498 C   0  0  0  0  0  0  0  0  0  0  0  0
   10.3227  -15.4695   26.8030 O   0  0  0  0  0  0  0  0  0  0  0  0
   13.5189  -18.7572   22.4732 O   0  0  0  0  0  0  0  0  0  0  0  0
   11.1694  -17.4868   27.2264 O   0  0  0  0  0  0  0  0  0  0  0  0
  2  1  1  6
  3  2  1  0
  3  4  1  0
  5  6  2  0
  5  2  1  0
  8  7  1  0
  9  8  2  0
 10  9  1  0
 11 10  2  0
 11 17  1  0
 12 11  1  0
 13 12  1  1
 13 14  1  0
 14  5  1  0
 15 19  1  0
 15 13  1  0
 16 15  2  0
 17 18  2  0
 18  8  1  0
 20 19  1  0
 20 25  1  0
 20 21  1  6
 22 21  1  0
 23 22  1  0
 23 24  2  0
 25 28  1  0
 26 25  2  0
 27 23  1  0
M  END
$$$$
