EIP.pdb
     RDKit          3D

 25 25  0  0  1  0  0  0  0  0999 V2000
    7.5913  -15.6187   20.9557 N   0  0  0  0  0  0  0  0  0  0  0  0
    8.6868  -16.1261   21.6898 C   0  0  1  0  0  0  0  0  0  0  0  0
    9.9390  -16.1639   20.8624 C   0  0  0  0  0  0  0  0  0  0  0  0
   10.6718  -17.4430   20.8867 C   0  0  0  0  0  0  0  0  0  0  0  0
   11.9050  -17.5736   20.1299 C   0  0  0  0  0  0  0  0  0  0  0  0
   12.0684  -17.6972   18.9039 O   0  0  0  0  0  0  0  0  0  0  0  0
    9.0200  -15.3154   22.9127 C   0  0  0  0  0  0  0  0  0  0  0  0
   10.0522  -14.6174   22.8872 O   0  0  0  0  0  0  0  0  0  0  0  0
   13.1065  -17.5604   20.8797 O   0  0  0  0  0  0  0  0  0  0  0  0
    5.2662  -12.6019   25.6618 C   0  0  0  0  0  0  0  0  0  0  0  0
    6.5872  -12.9506   25.0005 C   0  0  0  0  0  0  0  0  0  0  0  0
    7.3338  -13.9547   25.8001 C   0  0  2  0  0  0  0  0  0  0  0  0
    7.5924  -13.2930   27.1632 C   0  0  0  0  0  0  0  0  0  0  0  0
    8.6538  -14.4220   25.2353 C   0  0  2  0  0  0  0  0  0  0  0  0
    8.2286  -15.3022   24.0862 N   0  0  0  0  0  0  0  0  0  0  0  0
    9.3477  -15.3402   26.1432 C   0  0  0  0  0  0  0  0  0  0  0  0
    9.0591  -16.6037   25.9567 O   0  0  0  0  0  0  0  0  0  0  0  0
   10.2803  -15.0535   27.1717 N   0  0  0  0  0  0  0  0  0  0  0  0
   10.7720  -13.8346   27.7465 C   0  0  0  0  0  0  0  0  0  0  0  0
   10.9482  -14.2517   29.2239 C   0  0  0  0  0  0  0  0  0  0  0  0
   11.7983  -15.5094   28.9671 C   0  0  0  0  0  0  0  0  0  0  0  0
   11.0121  -16.1429   27.8645 C   0  0  1  0  0  0  0  0  0  0  0  0
   10.0230  -17.0535   28.4704 C   0  0  0  0  0  0  0  0  0  0  0  0
    8.7933  -16.7399   28.4524 O   0  0  0  0  0  0  0  0  0  0  0  0
   10.3468  -18.2404   29.0630 O   0  0  0  0  0  0  0  0  0  0  0  0
  2  1  1  6
  2  7  1  0
  3  2  1  0
  4  3  1  0
  5  4  1  0
  6  5  2  0
  7  8  2  0
  9  5  1  0
 11 10  1  0
 11 12  1  0
 12 13  1  1
 14 12  1  0
 15  7  1  0
 14 15  1  6
 16 14  1  0
 16 17  2  0
 18 16  1  0
 19 18  1  0
 20 19  1  0
 21 22  1  0
 21 20  1  0
 22 18  1  0
 22 23  1  1
 24 23  2  0
 25 23  1  0
M  END
$$$$
