EIP.pdb
     RDKit          3D

 25 25  0  0  1  0  0  0  0  0999 V2000
    9.8066  -15.7362   20.2952 N   0  0  0  0  0  0  0  0  0  0  0  0
    9.3237  -16.3342   21.4808 C   0  0  1  0  0  0  0  0  0  0  0  0
   10.0883  -17.5796   21.8249 C   0  0  0  0  0  0  0  0  0  0  0  0
   10.3886  -18.4689   20.6879 C   0  0  0  0  0  0  0  0  0  0  0  0
   11.0182  -19.7547   20.9343 C   0  0  0  0  0  0  0  0  0  0  0  0
   12.2073  -20.0896   20.7969 O   0  0  0  0  0  0  0  0  0  0  0  0
    9.4178  -15.4409   22.6879 C   0  0  0  0  0  0  0  0  0  0  0  0
   10.2977  -14.5583   22.6940 O   0  0  0  0  0  0  0  0  0  0  0  0
   10.1709  -20.7902   21.3989 O   0  0  0  0  0  0  0  0  0  0  0  0
    5.5869  -12.7829   26.3862 C   0  0  0  0  0  0  0  0  0  0  0  0
    7.0427  -13.2091   26.3279 C   0  0  0  0  0  0  0  0  0  0  0  0
    7.2672  -14.1875   25.2336 C   0  0  2  0  0  0  0  0  0  0  0  0
    6.5353  -15.4689   25.6639 C   0  0  0  0  0  0  0  0  0  0  0  0
    8.7031  -14.5361   24.9233 C   0  0  2  0  0  0  0  0  0  0  0  0
    8.5650  -15.5477   23.8125 N   0  0  0  0  0  0  0  0  0  0  0  0
    9.3342  -15.2911   26.0098 C   0  0  0  0  0  0  0  0  0  0  0  0
    9.3125  -16.5903   25.8472 O   0  0  0  0  0  0  0  0  0  0  0  0
    9.9631  -14.8154   27.1879 N   0  0  0  0  0  0  0  0  0  0  0  0
   10.0185  -13.5329   27.8281 C   0  0  0  0  0  0  0  0  0  0  0  0
   10.0258  -13.9435   29.3177 C   0  0  0  0  0  0  0  0  0  0  0  0
   11.1985  -14.9377   29.2359 C   0  0  0  0  0  0  0  0  0  0  0  0
   10.8100  -15.7096   28.0159 C   0  0  1  0  0  0  0  0  0  0  0  0
    9.9914  -16.8599   28.4418 C   0  0  0  0  0  0  0  0  0  0  0  0
    8.7556  -16.8869   28.1534 O   0  0  0  0  0  0  0  0  0  0  0  0
   10.4836  -17.9245   29.1411 O   0  0  0  0  0  0  0  0  0  0  0  0
  2  1  1  6
  2  7  1  0
  3  2  1  0
  4  3  1  0
  5  4  1  0
  6  5  2  0
  7  8  2  0
  9  5  1  0
 11 10  1  0
 11 12  1  0
 12 13  1  1
 14 12  1  0
 15  7  1  0
 14 15  1  6
 16 14  1  0
 16 17  2  0
 18 16  1  0
 19 18  1  0
 20 19  1  0
 21 22  1  0
 21 20  1  0
 22 18  1  0
 22 23  1  1
 24 23  2  0
 25 23  1  0
M  END
$$$$
