EIP.pdb
     RDKit          3D

 25 25  0  0  1  0  0  0  0  0999 V2000
    9.6749  -15.8859   20.3112 N   0  0  0  0  0  0  0  0  0  0  0  0
    9.1475  -16.4047   21.5149 C   0  0  1  0  0  0  0  0  0  0  0  0
    9.7912  -17.7094   21.8856 C   0  0  0  0  0  0  0  0  0  0  0  0
   11.2624  -17.7353   21.7914 C   0  0  0  0  0  0  0  0  0  0  0  0
   11.9708  -18.9815   22.0269 C   0  0  0  0  0  0  0  0  0  0  0  0
   12.6526  -19.6616   21.2409 O   0  0  0  0  0  0  0  0  0  0  0  0
    9.3386  -15.4950   22.6980 C   0  0  0  0  0  0  0  0  0  0  0  0
   10.3252  -14.7337   22.6959 O   0  0  0  0  0  0  0  0  0  0  0  0
   11.8844  -19.5155   23.3358 O   0  0  0  0  0  0  0  0  0  0  0  0
    5.7689  -12.5117   26.4948 C   0  0  0  0  0  0  0  0  0  0  0  0
    7.2191  -12.8866   26.2484 C   0  0  0  0  0  0  0  0  0  0  0  0
    7.3231  -13.9858   25.2554 C   0  0  2  0  0  0  0  0  0  0  0  0
    6.5632  -15.1735   25.8676 C   0  0  0  0  0  0  0  0  0  0  0  0
    8.7168  -14.4417   24.8959 C   0  0  2  0  0  0  0  0  0  0  0  0
    8.4625  -15.4569   23.8092 N   0  0  0  0  0  0  0  0  0  0  0  0
    9.3351  -15.2243   25.9702 C   0  0  0  0  0  0  0  0  0  0  0  0
    9.2078  -16.5206   25.8351 O   0  0  0  0  0  0  0  0  0  0  0  0
   10.0485  -14.7782   27.1112 N   0  0  0  0  0  0  0  0  0  0  0  0
   10.2769  -13.4854   27.6892 C   0  0  0  0  0  0  0  0  0  0  0  0
   10.2739  -13.8278   29.1959 C   0  0  0  0  0  0  0  0  0  0  0  0
   11.3140  -14.9614   29.1361 C   0  0  0  0  0  0  0  0  0  0  0  0
   10.8018  -15.7325   27.9622 C   0  0  1  0  0  0  0  0  0  0  0  0
    9.8608  -16.7536   28.4587 C   0  0  0  0  0  0  0  0  0  0  0  0
   10.3084  -17.7617   29.0866 O   0  0  0  0  0  0  0  0  0  0  0  0
    8.5078  -16.6869   28.2862 O   0  0  0  0  0  0  0  0  0  0  0  0
  2  1  1  6
  2  7  1  0
  3  2  1  0
  4  3  1  0
  5  4  1  0
  6  5  2  0
  7  8  2  0
  9  5  1  0
 11 10  1  0
 11 12  1  0
 12 13  1  1
 14 12  1  0
 15  7  1  0
 14 15  1  6
 16 14  1  0
 16 17  2  0
 18 16  1  0
 19 18  1  0
 20 19  1  0
 21 22  1  0
 21 20  1  0
 22 18  1  0
 22 23  1  1
 24 23  2  0
 25 23  1  0
M  END
$$$$
