EIP.pdb
     RDKit          3D

 25 25  0  0  1  0  0  0  0  0999 V2000
    9.2841  -15.0849   20.0587 N   0  0  0  0  0  0  0  0  0  0  0  0
    9.4426  -15.9143   21.1915 C   0  0  1  0  0  0  0  0  0  0  0  0
   10.6760  -16.7640   21.0884 C   0  0  0  0  0  0  0  0  0  0  0  0
   10.9184  -17.6640   22.2308 C   0  0  0  0  0  0  0  0  0  0  0  0
   12.0855  -18.5289   22.2230 C   0  0  0  0  0  0  0  0  0  0  0  0
   12.4389  -19.3839   23.0532 O   0  0  0  0  0  0  0  0  0  0  0  0
    9.5682  -15.1528   22.4831 C   0  0  0  0  0  0  0  0  0  0  0  0
   10.2665  -14.1205   22.4868 O   0  0  0  0  0  0  0  0  0  0  0  0
   12.9603  -18.3935   21.1174 O   0  0  0  0  0  0  0  0  0  0  0  0
    5.8629  -12.6325   25.8856 C   0  0  0  0  0  0  0  0  0  0  0  0
    6.8984  -12.9934   24.8361 C   0  0  0  0  0  0  0  0  0  0  0  0
    7.4241  -14.3645   25.0567 C   0  0  2  0  0  0  0  0  0  0  0  0
    7.0972  -14.7057   26.5194 C   0  0  0  0  0  0  0  0  0  0  0  0
    8.9045  -14.5639   24.8367 C   0  0  2  0  0  0  0  0  0  0  0  0
    8.9392  -15.5432   23.6895 N   0  0  0  0  0  0  0  0  0  0  0  0
    9.5326  -15.2945   25.9415 C   0  0  0  0  0  0  0  0  0  0  0  0
    9.5519  -16.5946   25.7864 O   0  0  0  0  0  0  0  0  0  0  0  0
   10.1208  -14.7945   27.1306 N   0  0  0  0  0  0  0  0  0  0  0  0
   10.1736  -13.4943   27.7343 C   0  0  0  0  0  0  0  0  0  0  0  0
   10.1113  -13.8596   29.2344 C   0  0  0  0  0  0  0  0  0  0  0  0
   11.2674  -14.8764   29.2314 C   0  0  0  0  0  0  0  0  0  0  0  0
   10.9155  -15.6779   28.0196 C   0  0  1  0  0  0  0  0  0  0  0  0
   10.0584  -16.8002   28.4443 C   0  0  0  0  0  0  0  0  0  0  0  0
    8.8257  -16.7929   28.1419 O   0  0  0  0  0  0  0  0  0  0  0  0
   10.5108  -17.8735   29.1571 O   0  0  0  0  0  0  0  0  0  0  0  0
  2  1  1  6
  2  7  1  0
  3  2  1  0
  4  3  1  0
  5  4  1  0
  6  5  2  0
  7  8  2  0
  9  5  1  0
 11 10  1  0
 11 12  1  0
 12 13  1  1
 14 12  1  0
 15  7  1  0
 14 15  1  6
 16 14  1  0
 16 17  2  0
 18 16  1  0
 19 18  1  0
 20 19  1  0
 21 22  1  0
 21 20  1  0
 22 18  1  0
 22 23  1  1
 24 23  2  0
 25 23  1  0
M  END
$$$$
