GFD.pdb
     RDKit          3D

 24 24  0  0  1  0  0  0  0  0999 V2000
   27.3383  -24.0004  -17.4465 N   0  0  0  0  0  0  0  0  0  0  0  0
   27.1507  -22.6569  -16.9378 C   0  0  0  0  0  0  0  0  0  0  0  0
   26.2501  -22.6610  -15.7507 C   0  0  0  0  0  0  0  0  0  0  0  0
   25.6347  -23.6815  -15.3715 O   0  0  0  0  0  0  0  0  0  0  0  0
   26.0923  -21.4592  -15.0329 N   0  0  0  0  0  0  0  0  0  0  0  0
   25.2386  -21.3397  -13.8848 C   0  0  1  0  0  0  0  0  0  0  0  0
   25.7275  -20.3722  -12.8712 C   0  0  0  0  0  0  0  0  0  0  0  0
   24.9636  -20.4505  -11.5881 C   0  0  0  0  0  0  0  0  0  0  0  0
   25.5276  -21.0798  -10.5011 C   0  0  0  0  0  0  0  0  0  0  0  0
   24.8558  -21.1756   -9.2880 C   0  0  0  0  0  0  0  0  0  0  0  0
   23.5958  -20.6415   -9.1294 C   0  0  0  0  0  0  0  0  0  0  0  0
   23.0271  -20.0111  -10.2132 C   0  0  0  0  0  0  0  0  0  0  0  0
   23.7032  -19.9144  -11.4352 C   0  0  0  0  0  0  0  0  0  0  0  0
   23.8226  -21.0558  -14.2205 C   0  0  0  0  0  0  0  0  0  0  0  0
   23.4236  -20.0648  -14.8839 O   0  0  0  0  0  0  0  0  0  0  0  0
   22.8375  -21.9696  -13.7621 N   0  0  0  0  0  0  0  0  0  0  0  0
   21.4133  -21.6948  -14.0674 C   0  0  1  0  0  0  0  0  0  0  0  0
   20.8823  -22.9884  -14.6443 C   0  0  0  0  0  0  0  0  0  0  0  0
   19.4904  -22.9523  -15.0643 C   0  0  0  0  0  0  0  0  0  0  0  0
   18.8824  -21.8669  -15.1722 O   0  0  0  0  0  0  0  0  0  0  0  0
   20.6803  -21.3997  -12.8198 C   0  0  0  0  0  0  0  0  0  0  0  0
   20.0909  -20.3094  -12.6772 O   0  0  0  0  0  0  0  0  0  0  0  0
   18.8190  -24.1239  -15.3509 O   0  0  0  0  0  0  0  0  0  0  0  0
   20.6468  -22.3319  -11.8106 O   0  0  0  0  0  0  0  0  0  0  0  0
  2  1  1  0
  3  2  1  0
  3  5  1  0
  4  3  2  0
  6  5  1  0
  6 14  1  0
  6  7  1  1
  8  7  1  0
  8 13  2  0
  9  8  1  0
 10  9  2  0
 10 11  1  0
 11 12  2  0
 12 13  1  0
 14 16  1  0
 15 14  2  0
 16 17  1  0
 17 18  1  1
 17 21  1  0
 19 18  1  0
 20 19  2  0
 21 24  1  0
 22 21  2  0
 23 19  1  0
M  END
$$$$
