GFD.pdb
     RDKit          3D

 24 24  0  0  1  0  0  0  0  0999 V2000
   25.5730  -24.9064  -13.2907 N   0  0  0  0  0  0  0  0  0  0  0  0
   24.2526  -24.3801  -13.0098 C   0  0  0  0  0  0  0  0  0  0  0  0
   24.2799  -22.8920  -12.9383 C   0  0  0  0  0  0  0  0  0  0  0  0
   23.2716  -22.2095  -12.6532 O   0  0  0  0  0  0  0  0  0  0  0  0
   25.4980  -22.2367  -13.2052 N   0  0  0  0  0  0  0  0  0  0  0  0
   25.6239  -20.8074  -13.2519 C   0  0  1  0  0  0  0  0  0  0  0  0
   26.9486  -20.3065  -12.8081 C   0  0  0  0  0  0  0  0  0  0  0  0
   27.1860  -20.5279  -11.3484 C   0  0  0  0  0  0  0  0  0  0  0  0
   28.2854  -21.2509  -10.9428 C   0  0  0  0  0  0  0  0  0  0  0  0
   28.5473  -21.4809   -9.5973 C   0  0  0  0  0  0  0  0  0  0  0  0
   27.7124  -20.9910   -8.6170 C   0  0  0  0  0  0  0  0  0  0  0  0
   26.6115  -20.2674   -9.0170 C   0  0  0  0  0  0  0  0  0  0  0  0
   26.3472  -20.0356  -10.3720 C   0  0  0  0  0  0  0  0  0  0  0  0
   25.2696  -20.2192  -14.5660 C   0  0  0  0  0  0  0  0  0  0  0  0
   25.7112  -20.6139  -15.6753 O   0  0  0  0  0  0  0  0  0  0  0  0
   24.3618  -19.1277  -14.5797 N   0  0  0  0  0  0  0  0  0  0  0  0
   23.7046  -18.7633  -15.8574 C   0  0  1  0  0  0  0  0  0  0  0  0
   22.4159  -19.5553  -15.8718 C   0  0  0  0  0  0  0  0  0  0  0  0
   21.6116  -19.4049  -17.0742 C   0  0  0  0  0  0  0  0  0  0  0  0
   22.0132  -18.7083  -18.0297 O   0  0  0  0  0  0  0  0  0  0  0  0
   23.3730  -17.3242  -15.8586 C   0  0  0  0  0  0  0  0  0  0  0  0
   22.9866  -16.7649  -14.8125 O   0  0  0  0  0  0  0  0  0  0  0  0
   20.3869  -20.0335  -17.1759 O   0  0  0  0  0  0  0  0  0  0  0  0
   23.4916  -16.5970  -17.0187 O   0  0  0  0  0  0  0  0  0  0  0  0
  2  1  1  0
  3  2  1  0
  3  5  1  0
  4  3  2  0
  6  5  1  0
  6 14  1  0
  6  7  1  6
  8  7  1  0
  8 13  2  0
  9  8  1  0
 10  9  2  0
 10 11  1  0
 11 12  2  0
 12 13  1  0
 14 16  1  0
 15 14  2  0
 16 17  1  0
 17 18  1  1
 17 21  1  0
 19 18  1  0
 20 19  2  0
 21 24  1  0
 22 21  2  0
 23 19  1  0
M  END
$$$$
