GFD.pdb
     RDKit          3D

 24 24  0  0  1  0  0  0  0  0999 V2000
   31.4570  -22.4797  -10.0913 N   0  0  0  0  0  0  0  0  0  0  0  0
   30.7970  -21.2137   -9.8447 C   0  0  0  0  0  0  0  0  0  0  0  0
   29.3886  -21.4270   -9.4072 C   0  0  0  0  0  0  0  0  0  0  0  0
   28.8645  -22.5605   -9.3419 O   0  0  0  0  0  0  0  0  0  0  0  0
   28.6245  -20.2972   -9.0549 N   0  0  0  0  0  0  0  0  0  0  0  0
   27.2337  -20.3707   -8.7065 C   0  0  1  0  0  0  0  0  0  0  0  0
   26.8627  -19.5353   -7.5373 C   0  0  0  0  0  0  0  0  0  0  0  0
   27.7220  -19.8051   -6.3436 C   0  0  0  0  0  0  0  0  0  0  0  0
   27.5177  -20.9500   -5.6066 C   0  0  0  0  0  0  0  0  0  0  0  0
   28.2925  -21.2432   -4.4905 C   0  0  0  0  0  0  0  0  0  0  0  0
   29.2975  -20.3948   -4.0803 C   0  0  0  0  0  0  0  0  0  0  0  0
   29.5061  -19.2484   -4.8138 C   0  0  0  0  0  0  0  0  0  0  0  0
   28.7260  -18.9526   -5.9378 C   0  0  0  0  0  0  0  0  0  0  0  0
   26.3187  -20.0970   -9.8406 C   0  0  0  0  0  0  0  0  0  0  0  0
   26.2905  -19.0283  -10.5027 O   0  0  0  0  0  0  0  0  0  0  0  0
   25.4031  -21.1160  -10.2133 N   0  0  0  0  0  0  0  0  0  0  0  0
   24.5742  -20.9207  -11.4266 C   0  0  1  0  0  0  0  0  0  0  0  0
   24.7487  -22.1930  -12.2260 C   0  0  0  0  0  0  0  0  0  0  0  0
   24.0579  -22.2183  -13.5056 C   0  0  0  0  0  0  0  0  0  0  0  0
   23.4060  -21.2291  -13.9006 O   0  0  0  0  0  0  0  0  0  0  0  0
   23.1524  -20.7935  -11.0481 C   0  0  0  0  0  0  0  0  0  0  0  0
   22.7769  -21.0928   -9.8966 O   0  0  0  0  0  0  0  0  0  0  0  0
   24.1138  -23.3423  -14.3049 O   0  0  0  0  0  0  0  0  0  0  0  0
   22.2382  -20.3421  -11.9695 O   0  0  0  0  0  0  0  0  0  0  0  0
  2  1  1  0
  3  2  1  0
  3  5  1  0
  4  3  2  0
  6  5  1  0
  6 14  1  0
  6  7  1  1
  8  7  1  0
  8 13  2  0
  9  8  1  0
 10  9  2  0
 10 11  1  0
 11 12  2  0
 12 13  1  0
 14 16  1  0
 15 14  2  0
 16 17  1  0
 17 18  1  6
 17 21  1  0
 19 18  1  0
 20 19  2  0
 21 24  1  0
 22 21  2  0
 23 19  1  0
M  END
$$$$
