ADH.pdb
     RDKit          3D

 24 24  0  0  1  0  0  0  0  0999 V2000
    7.5858  -12.7241   18.8688 C   0  0  0  0  0  0  0  0  0  0  0  0
    8.6037  -13.0692   19.9353 C   0  0  2  0  0  0  0  0  0  0  0  0
    9.8969  -13.2575   19.3111 N   0  0  0  0  0  0  0  0  0  0  0  0
    8.1821  -14.3515   20.5973 C   0  0  0  0  0  0  0  0  0  0  0  0
    7.0543  -14.3674   21.1752 O   0  0  0  0  0  0  0  0  0  0  0  0
    9.0189  -15.4958   20.5726 N   0  0  0  0  0  0  0  0  0  0  0  0
    8.4937  -16.7403   21.1590 C   0  0  1  0  0  0  0  0  0  0  0  0
    9.0917  -17.8699   20.3787 C   0  0  0  0  0  0  0  0  0  0  0  0
    8.5861  -19.1685   20.8174 C   0  0  0  0  0  0  0  0  0  0  0  0
    7.4859  -19.3191   21.3671 O   0  0  0  0  0  0  0  0  0  0  0  0
    8.9030  -16.7583   22.6063 C   0  0  0  0  0  0  0  0  0  0  0  0
    8.5037  -17.6209   23.4203 O   0  0  0  0  0  0  0  0  0  0  0  0
    9.3774  -20.3225   20.6132 O   0  0  0  0  0  0  0  0  0  0  0  0
    9.7863  -15.7533   23.0914 N   0  0  0  0  0  0  0  0  0  0  0  0
    9.9913  -15.5590   24.5601 C   0  0  1  0  0  0  0  0  0  0  0  0
    8.6431  -15.6828   25.1733 C   0  0  0  0  0  0  0  0  0  0  0  0
    7.8141  -14.4826   25.1140 C   0  0  0  0  0  0  0  0  0  0  0  0
    8.0716  -13.2756   24.5213 C   0  0  0  0  0  0  0  0  0  0  0  0
    6.9695  -12.4725   24.6643 N   0  0  0  0  0  0  0  0  0  0  0  0
    6.0478  -13.1676   25.3304 C   0  0  0  0  0  0  0  0  0  0  0  0
    6.5492  -14.3603   25.5968 N   0  0  0  0  0  0  0  0  0  0  0  0
   10.8210  -16.7504   24.9876 C   0  0  0  0  0  0  0  0  0  0  0  0
   11.1773  -16.8215   26.2114 O   0  0  0  0  0  0  0  0  0  0  0  0
   11.2086  -17.7450   24.1459 O   0  0  0  0  0  0  0  0  0  0  0  0
  2  1  1  6
  2  3  1  0
  4  2  1  0
  5  4  2  0
  6  4  1  0
  7 11  1  0
  7  6  1  0
  7  8  1  6
  9  8  1  0
 10  9  2  0
 11 14  1  0
 12 11  2  0
 13  9  1  0
 14 15  1  0
 15 22  1  0
 15 16  1  1
 16 17  1  0
 17 21  1  0
 17 18  2  0
 18 19  1  0
 20 19  1  0
 21 20  2  0
 22 23  2  0
 22 24  1  0
M  END
$$$$
