ADH.pdb
     RDKit          3D

 24 24  0  0  1  0  0  0  0  0999 V2000
    8.4186  -12.3751   19.1440 C   0  0  0  0  0  0  0  0  0  0  0  0
    9.1570  -13.3066   18.2060 C   0  0  2  0  0  0  0  0  0  0  0  0
    8.3128  -13.5953   17.0652 N   0  0  0  0  0  0  0  0  0  0  0  0
    9.4514  -14.5850   18.9403 C   0  0  0  0  0  0  0  0  0  0  0  0
    9.0227  -15.6634   18.4309 O   0  0  0  0  0  0  0  0  0  0  0  0
   10.1812  -14.5778   20.1559 N   0  0  0  0  0  0  0  0  0  0  0  0
   11.2690  -15.5588   20.3068 C   0  0  1  0  0  0  0  0  0  0  0  0
   12.2957  -15.2264   19.2685 C   0  0  0  0  0  0  0  0  0  0  0  0
   13.4675  -16.0943   19.3576 C   0  0  0  0  0  0  0  0  0  0  0  0
   13.3982  -17.3070   19.6029 O   0  0  0  0  0  0  0  0  0  0  0  0
   11.7998  -15.4235   21.7075 C   0  0  0  0  0  0  0  0  0  0  0  0
   12.9386  -15.8142   22.0491 O   0  0  0  0  0  0  0  0  0  0  0  0
   14.7533  -15.5412   19.1571 O   0  0  0  0  0  0  0  0  0  0  0  0
   10.9813  -14.8251   22.7063 N   0  0  0  0  0  0  0  0  0  0  0  0
   10.2965  -15.6640   23.7378 C   0  0  1  0  0  0  0  0  0  0  0  0
    9.3418  -16.5217   22.9883 C   0  0  0  0  0  0  0  0  0  0  0  0
    8.1319  -15.8528   22.5193 C   0  0  0  0  0  0  0  0  0  0  0  0
    7.7386  -14.5514   22.6815 C   0  0  0  0  0  0  0  0  0  0  0  0
    6.5605  -14.3616   22.0063 N   0  0  0  0  0  0  0  0  0  0  0  0
    6.2311  -15.5205   21.4364 C   0  0  0  0  0  0  0  0  0  0  0  0
    7.1639  -16.4050   21.7408 N   0  0  0  0  0  0  0  0  0  0  0  0
   11.3919  -16.5457   24.2973 C   0  0  0  0  0  0  0  0  0  0  0  0
   11.0992  -17.3150   25.2732 O   0  0  0  0  0  0  0  0  0  0  0  0
   12.6657  -16.5646   23.8230 O   0  0  0  0  0  0  0  0  0  0  0  0
  2  1  1  1
  2  3  1  0
  4  2  1  0
  5  4  2  0
  6  4  1  0
  7 11  1  0
  7  6  1  0
  7  8  1  6
  9  8  1  0
 10  9  2  0
 11 14  1  0
 12 11  2  0
 13  9  1  0
 14 15  1  0
 15 22  1  0
 15 16  1  6
 16 17  1  0
 17 21  1  0
 17 18  2  0
 18 19  1  0
 20 19  1  0
 21 20  2  0
 22 23  2  0
 22 24  1  0
M  END
$$$$
