ADH.pdb
     RDKit          3D

 24 24  0  0  1  0  0  0  0  0999 V2000
    7.0077  -18.8543   17.1705 C   0  0  0  0  0  0  0  0  0  0  0  0
    8.0132  -17.7429   17.3856 C   0  0  2  0  0  0  0  0  0  0  0  0
    8.9596  -17.7431   16.2894 N   0  0  0  0  0  0  0  0  0  0  0  0
    8.7453  -18.0070   18.6719 C   0  0  0  0  0  0  0  0  0  0  0  0
    8.0637  -18.0198   19.7402 O   0  0  0  0  0  0  0  0  0  0  0  0
   10.1451  -18.2321   18.6827 N   0  0  0  0  0  0  0  0  0  0  0  0
   10.7855  -18.4975   19.9819 C   0  0  1  0  0  0  0  0  0  0  0  0
   12.1369  -19.0712   19.6866 C   0  0  0  0  0  0  0  0  0  0  0  0
   12.0537  -20.4378   19.1767 C   0  0  0  0  0  0  0  0  0  0  0  0
   12.5882  -20.8028   18.1200 O   0  0  0  0  0  0  0  0  0  0  0  0
   10.8627  -17.1873   20.7165 C   0  0  0  0  0  0  0  0  0  0  0  0
   11.6181  -16.2515   20.3704 O   0  0  0  0  0  0  0  0  0  0  0  0
   11.3317  -21.4063   19.9116 O   0  0  0  0  0  0  0  0  0  0  0  0
   10.0446  -16.9842   21.8633 N   0  0  0  0  0  0  0  0  0  0  0  0
   10.1104  -15.7034   22.6328 C   0  0  1  0  0  0  0  0  0  0  0  0
    8.7649  -15.0861   22.5006 C   0  0  0  0  0  0  0  0  0  0  0  0
    8.5365  -14.3368   21.2687 C   0  0  0  0  0  0  0  0  0  0  0  0
    9.3836  -14.1129   20.2167 C   0  0  0  0  0  0  0  0  0  0  0  0
    8.7078  -13.4132   19.2504 N   0  0  0  0  0  0  0  0  0  0  0  0
    7.4675  -13.2090   19.6935 C   0  0  0  0  0  0  0  0  0  0  0  0
    7.3661  -13.7574   20.8910 N   0  0  0  0  0  0  0  0  0  0  0  0
   10.2980  -16.1349   24.0713 C   0  0  0  0  0  0  0  0  0  0  0  0
   10.5473  -15.2314   24.9380 O   0  0  0  0  0  0  0  0  0  0  0  0
   10.2181  -17.4251   24.4918 O   0  0  0  0  0  0  0  0  0  0  0  0
  2  1  1  6
  2  3  1  0
  4  2  1  0
  5  4  2  0
  6  4  1  0
  7 11  1  0
  7  6  1  0
  7  8  1  6
  9  8  1  0
 10  9  2  0
 11 14  1  0
 12 11  2  0
 13  9  1  0
 14 15  1  0
 15 22  1  0
 15 16  1  1
 16 17  1  0
 17 21  1  0
 17 18  2  0
 18 19  1  0
 20 19  1  0
 21 20  2  0
 22 23  2  0
 22 24  1  0
M  END
$$$$
