ADH.pdb
     RDKit          3D

 24 24  0  0  1  0  0  0  0  0999 V2000
    7.5865  -15.1584   15.6442 C   0  0  0  0  0  0  0  0  0  0  0  0
    8.4271  -14.3617   16.6195 C   0  0  2  0  0  0  0  0  0  0  0  0
    8.7669  -13.0879   16.0199 N   0  0  0  0  0  0  0  0  0  0  0  0
    9.6889  -15.1304   16.8975 C   0  0  0  0  0  0  0  0  0  0  0  0
    9.5687  -16.2940   17.3851 O   0  0  0  0  0  0  0  0  0  0  0  0
   10.9616  -14.5693   16.6228 N   0  0  0  0  0  0  0  0  0  0  0  0
   12.1504  -15.3428   17.0189 C   0  0  1  0  0  0  0  0  0  0  0  0
   13.2120  -15.0510   16.0038 C   0  0  0  0  0  0  0  0  0  0  0  0
   13.0060  -15.7963   14.7642 C   0  0  0  0  0  0  0  0  0  0  0  0
   12.9718  -17.0339   14.7129 O   0  0  0  0  0  0  0  0  0  0  0  0
   12.5346  -14.8925   18.4016 C   0  0  0  0  0  0  0  0  0  0  0  0
   12.3837  -13.7178   18.8060 O   0  0  0  0  0  0  0  0  0  0  0  0
   12.8352  -15.0877   13.5525 O   0  0  0  0  0  0  0  0  0  0  0  0
   13.0991  -15.8339   19.3075 N   0  0  0  0  0  0  0  0  0  0  0  0
   12.9357  -15.6668   20.7848 C   0  0  1  0  0  0  0  0  0  0  0  0
   11.4722  -15.7289   21.0362 C   0  0  0  0  0  0  0  0  0  0  0  0
   11.0760  -15.7242   22.4413 C   0  0  0  0  0  0  0  0  0  0  0  0
   11.8536  -15.6316   23.5643 C   0  0  0  0  0  0  0  0  0  0  0  0
   11.0348  -15.5972   24.6635 N   0  0  0  0  0  0  0  0  0  0  0  0
    9.7760  -15.6655   24.2309 C   0  0  0  0  0  0  0  0  0  0  0  0
    9.8009  -15.7405   22.9122 N   0  0  0  0  0  0  0  0  0  0  0  0
   13.5746  -16.9035   21.3788 C   0  0  0  0  0  0  0  0  0  0  0  0
   13.2392  -18.0379   20.8989 O   0  0  0  0  0  0  0  0  0  0  0  0
   14.4809  -16.8760   22.3916 O   0  0  0  0  0  0  0  0  0  0  0  0
  2  1  1  6
  2  3  1  0
  4  2  1  0
  5  4  2  0
  6  4  1  0
  7 11  1  0
  7  6  1  0
  7  8  1  6
  9  8  1  0
 10  9  2  0
 11 14  1  0
 12 11  2  0
 13  9  1  0
 14 15  1  0
 15 22  1  0
 15 16  1  6
 16 17  1  0
 17 21  1  0
 17 18  2  0
 18 19  1  0
 20 19  1  0
 21 20  2  0
 22 23  2  0
 22 24  1  0
M  END
$$$$
