ADH.pdb
     RDKit          3D

 24 24  0  0  1  0  0  0  0  0999 V2000
    7.2591  -12.6610   19.2052 C   0  0  0  0  0  0  0  0  0  0  0  0
    8.4862  -13.1210   19.9636 C   0  0  2  0  0  0  0  0  0  0  0  0
    9.4382  -13.6812   19.0270 N   0  0  0  0  0  0  0  0  0  0  0  0
    8.0696  -14.1841   20.9416 C   0  0  0  0  0  0  0  0  0  0  0  0
    7.1810  -13.8795   21.7924 O   0  0  0  0  0  0  0  0  0  0  0  0
    8.6523  -15.4762   20.9082 N   0  0  0  0  0  0  0  0  0  0  0  0
    8.2175  -16.4494   21.9242 C   0  0  1  0  0  0  0  0  0  0  0  0
    7.9789  -17.7425   21.2075 C   0  0  0  0  0  0  0  0  0  0  0  0
    8.9303  -17.9502   20.1184 C   0  0  0  0  0  0  0  0  0  0  0  0
    8.5997  -18.3551   18.9949 O   0  0  0  0  0  0  0  0  0  0  0  0
    9.3177  -16.5497   22.9448 C   0  0  0  0  0  0  0  0  0  0  0  0
    9.9244  -17.6152   23.1954 O   0  0  0  0  0  0  0  0  0  0  0  0
   10.3010  -17.6812   20.3382 O   0  0  0  0  0  0  0  0  0  0  0  0
    9.7005  -15.3869   23.6708 N   0  0  0  0  0  0  0  0  0  0  0  0
    9.5470  -15.3282   25.1574 C   0  0  1  0  0  0  0  0  0  0  0  0
    8.0843  -15.3932   25.4127 C   0  0  0  0  0  0  0  0  0  0  0  0
    7.4220  -14.1058   25.5998 C   0  0  0  0  0  0  0  0  0  0  0  0
    7.9329  -12.8403   25.4901 C   0  0  0  0  0  0  0  0  0  0  0  0
    6.9185  -11.9389   25.6861 N   0  0  0  0  0  0  0  0  0  0  0  0
    5.8020  -12.6311   25.9111 C   0  0  0  0  0  0  0  0  0  0  0  0
    6.1011  -13.9168   25.8596 N   0  0  0  0  0  0  0  0  0  0  0  0
   10.1755  -16.6121   25.6542 C   0  0  0  0  0  0  0  0  0  0  0  0
   10.3357  -16.7504   26.9131 O   0  0  0  0  0  0  0  0  0  0  0  0
   10.5793  -17.6227   24.8395 O   0  0  0  0  0  0  0  0  0  0  0  0
  2  1  1  6
  2  3  1  0
  4  2  1  0
  5  4  2  0
  6  4  1  0
  7 11  1  0
  7  6  1  0
  7  8  1  6
  9  8  1  0
 10  9  2  0
 11 14  1  0
 12 11  2  0
 13  9  1  0
 14 15  1  0
 15 22  1  0
 15 16  1  6
 16 17  1  0
 17 21  1  0
 17 18  2  0
 18 19  1  0
 20 19  1  0
 21 20  2  0
 22 23  2  0
 22 24  1  0
M  END
$$$$
