ADH.pdb
     RDKit          3D

 24 24  0  0  1  0  0  0  0  0999 V2000
    8.0131  -12.4294   20.6900 C   0  0  0  0  0  0  0  0  0  0  0  0
    8.2999  -13.6282   19.8106 C   0  0  2  0  0  0  0  0  0  0  0  0
    7.1486  -13.8841   18.9702 N   0  0  0  0  0  0  0  0  0  0  0  0
    8.5417  -14.8195   20.6953 C   0  0  0  0  0  0  0  0  0  0  0  0
    7.5257  -15.4341   21.1382 O   0  0  0  0  0  0  0  0  0  0  0  0
    9.8585  -15.2344   21.0181 N   0  0  0  0  0  0  0  0  0  0  0  0
   10.0113  -16.4358   21.8558 C   0  0  1  0  0  0  0  0  0  0  0  0
   11.2618  -17.1222   21.4001 C   0  0  0  0  0  0  0  0  0  0  0  0
   11.0399  -17.9294   20.2028 C   0  0  0  0  0  0  0  0  0  0  0  0
   10.0801  -18.7022   20.0722 O   0  0  0  0  0  0  0  0  0  0  0  0
   10.0940  -15.9749   23.2851 C   0  0  0  0  0  0  0  0  0  0  0  0
   10.8809  -15.0821   23.6724 O   0  0  0  0  0  0  0  0  0  0  0  0
   11.9552  -17.8380   19.1288 O   0  0  0  0  0  0  0  0  0  0  0  0
    9.2442  -16.5718   24.2583 N   0  0  0  0  0  0  0  0  0  0  0  0
    9.3334  -16.1759   25.6978 C   0  0  1  0  0  0  0  0  0  0  0  0
    7.9306  -15.9783   26.1474 C   0  0  0  0  0  0  0  0  0  0  0  0
    7.3779  -14.6477   25.9127 C   0  0  0  0  0  0  0  0  0  0  0  0
    8.0252  -13.4510   25.7604 C   0  0  0  0  0  0  0  0  0  0  0  0
    7.0955  -12.4804   25.4893 N   0  0  0  0  0  0  0  0  0  0  0  0
    5.8971  -13.0635   25.4725 C   0  0  0  0  0  0  0  0  0  0  0  0
    6.0651  -14.3496   25.7235 N   0  0  0  0  0  0  0  0  0  0  0  0
    9.8893  -17.3997   26.3934 C   0  0  0  0  0  0  0  0  0  0  0  0
   10.0750  -17.3367   27.6549 O   0  0  0  0  0  0  0  0  0  0  0  0
   10.2028  -18.5577   25.7542 O   0  0  0  0  0  0  0  0  0  0  0  0
  2  1  1  1
  2  3  1  0
  4  2  1  0
  5  4  2  0
  6  4  1  0
  7 11  1  0
  7  6  1  0
  7  8  1  6
  9  8  1  0
 10  9  2  0
 11 14  1  0
 12 11  2  0
 13  9  1  0
 14 15  1  0
 15 22  1  0
 15 16  1  1
 16 17  1  0
 17 21  1  0
 17 18  2  0
 18 19  1  0
 20 19  1  0
 21 20  2  0
 22 23  2  0
 22 24  1  0
M  END
$$$$
