ADH.pdb
     RDKit          3D

 24 24  0  0  1  0  0  0  0  0999 V2000
    9.4655  -15.2506   15.9494 C   0  0  0  0  0  0  0  0  0  0  0  0
    9.3908  -16.7629   15.9478 C   0  0  2  0  0  0  0  0  0  0  0  0
    8.1005  -17.1718   15.4325 N   0  0  0  0  0  0  0  0  0  0  0  0
    9.5345  -17.2472   17.3638 C   0  0  0  0  0  0  0  0  0  0  0  0
    8.4716  -17.4321   18.0288 O   0  0  0  0  0  0  0  0  0  0  0  0
   10.8132  -17.4860   17.9279 N   0  0  0  0  0  0  0  0  0  0  0  0
   10.8674  -18.0087   19.3035 C   0  0  1  0  0  0  0  0  0  0  0  0
   12.0441  -18.9327   19.3670 C   0  0  0  0  0  0  0  0  0  0  0  0
   13.3098  -18.2221   19.2013 C   0  0  0  0  0  0  0  0  0  0  0  0
   13.8119  -17.5129   20.0847 O   0  0  0  0  0  0  0  0  0  0  0  0
   11.0108  -16.8276   20.2237 C   0  0  0  0  0  0  0  0  0  0  0  0
   11.7053  -15.8240   19.9467 O   0  0  0  0  0  0  0  0  0  0  0  0
   14.0114  -18.3370   17.9790 O   0  0  0  0  0  0  0  0  0  0  0  0
   10.3314  -16.8341   21.4743 N   0  0  0  0  0  0  0  0  0  0  0  0
   10.2075  -15.5828   22.2842 C   0  0  1  0  0  0  0  0  0  0  0  0
    8.8182  -15.1010   22.0683 C   0  0  0  0  0  0  0  0  0  0  0  0
    8.6215  -14.2591   20.8921 C   0  0  0  0  0  0  0  0  0  0  0  0
    9.5356  -13.8256   19.9695 C   0  0  0  0  0  0  0  0  0  0  0  0
    8.8770  -13.1144   18.9999 N   0  0  0  0  0  0  0  0  0  0  0  0
    7.5817  -13.1083   19.3139 C   0  0  0  0  0  0  0  0  0  0  0  0
    7.4305  -13.7878   20.4366 N   0  0  0  0  0  0  0  0  0  0  0  0
   10.3341  -16.0464   23.7193 C   0  0  0  0  0  0  0  0  0  0  0  0
   10.3299  -15.1582   24.6362 O   0  0  0  0  0  0  0  0  0  0  0  0
   10.4531  -17.3497   24.0868 O   0  0  0  0  0  0  0  0  0  0  0  0
  2  1  1  1
  2  3  1  0
  4  2  1  0
  5  4  2  0
  6  4  1  0
  7 11  1  0
  7  6  1  0
  7  8  1  6
  9  8  1  0
 10  9  2  0
 11 14  1  0
 12 11  2  0
 13  9  1  0
 14 15  1  0
 15 22  1  0
 15 16  1  1
 16 17  1  0
 17 21  1  0
 17 18  2  0
 18 19  1  0
 20 19  1  0
 21 20  2  0
 22 23  2  0
 22 24  1  0
M  END
$$$$
