ADH.pdb
     RDKit          3D

 24 24  0  0  1  0  0  0  0  0999 V2000
    7.0688  -13.2348   19.2204 C   0  0  0  0  0  0  0  0  0  0  0  0
    8.3340  -13.2631   20.0515 C   0  0  2  0  0  0  0  0  0  0  0  0
    9.4769  -13.3737   19.1689 N   0  0  0  0  0  0  0  0  0  0  0  0
    8.2849  -14.4667   20.9511 C   0  0  0  0  0  0  0  0  0  0  0  0
    7.2617  -14.6056   21.6859 O   0  0  0  0  0  0  0  0  0  0  0  0
    9.3460  -15.4068   20.9720 N   0  0  0  0  0  0  0  0  0  0  0  0
    9.2246  -16.5554   21.8856 C   0  0  1  0  0  0  0  0  0  0  0  0
   10.1659  -17.6063   21.3834 C   0  0  0  0  0  0  0  0  0  0  0  0
    9.7434  -18.1517   20.0956 C   0  0  0  0  0  0  0  0  0  0  0  0
   10.4791  -18.1897   19.0992 O   0  0  0  0  0  0  0  0  0  0  0  0
    9.5839  -16.0692   23.2628 C   0  0  0  0  0  0  0  0  0  0  0  0
   10.4622  -15.2037   23.4761 O   0  0  0  0  0  0  0  0  0  0  0  0
    8.4334  -18.6664   19.9599 O   0  0  0  0  0  0  0  0  0  0  0  0
    8.9028  -16.6087   24.3901 N   0  0  0  0  0  0  0  0  0  0  0  0
    9.1974  -16.1144   25.7705 C   0  0  1  0  0  0  0  0  0  0  0  0
    7.8769  -15.7925   26.3719 C   0  0  0  0  0  0  0  0  0  0  0  0
    7.3557  -14.4633   26.0673 C   0  0  0  0  0  0  0  0  0  0  0  0
    8.0325  -13.3026   25.8040 C   0  0  0  0  0  0  0  0  0  0  0  0
    7.1221  -12.3221   25.5044 N   0  0  0  0  0  0  0  0  0  0  0  0
    5.9067  -12.8640   25.5789 C   0  0  0  0  0  0  0  0  0  0  0  0
    6.0457  -14.1346   25.9127 N   0  0  0  0  0  0  0  0  0  0  0  0
    9.7687  -17.3172   26.4898 C   0  0  0  0  0  0  0  0  0  0  0  0
    9.7024  -18.4498   25.9045 O   0  0  0  0  0  0  0  0  0  0  0  0
   10.3450  -17.2614   27.7197 O   0  0  0  0  0  0  0  0  0  0  0  0
  2  1  1  6
  2  3  1  0
  4  2  1  0
  5  4  2  0
  6  4  1  0
  7 11  1  0
  7  6  1  0
  7  8  1  6
  9  8  1  0
 10  9  2  0
 11 14  1  0
 12 11  2  0
 13  9  1  0
 14 15  1  0
 15 22  1  0
 15 16  1  1
 16 17  1  0
 17 21  1  0
 17 18  2  0
 18 19  1  0
 20 19  1  0
 21 20  2  0
 22 23  2  0
 22 24  1  0
M  END
$$$$
