ADH.pdb
     RDKit          3D

 24 24  0  0  1  0  0  0  0  0999 V2000
    8.6410  -12.5382   19.3331 C   0  0  0  0  0  0  0  0  0  0  0  0
    8.5710  -13.9638   18.8278 C   0  0  2  0  0  0  0  0  0  0  0  0
    7.2889  -14.1763   18.1886 N   0  0  0  0  0  0  0  0  0  0  0  0
    8.6976  -14.8916   20.0040 C   0  0  0  0  0  0  0  0  0  0  0  0
    7.6516  -15.1222   20.6816 O   0  0  0  0  0  0  0  0  0  0  0  0
    9.9424  -15.4828   20.3375 N   0  0  0  0  0  0  0  0  0  0  0  0
    9.9762  -16.4061   21.4840 C   0  0  1  0  0  0  0  0  0  0  0  0
   11.2227  -17.2237   21.3419 C   0  0  0  0  0  0  0  0  0  0  0  0
   11.1458  -18.1508   20.2153 C   0  0  0  0  0  0  0  0  0  0  0  0
   11.9420  -18.1345   19.2660 O   0  0  0  0  0  0  0  0  0  0  0  0
    9.9756  -15.5669   22.7322 C   0  0  0  0  0  0  0  0  0  0  0  0
   10.7711  -14.6194   22.9208 O   0  0  0  0  0  0  0  0  0  0  0  0
   10.1184  -19.1220   20.1892 O   0  0  0  0  0  0  0  0  0  0  0  0
    9.0321  -15.8497   23.7596 N   0  0  0  0  0  0  0  0  0  0  0  0
    8.8981  -14.9472   24.9447 C   0  0  1  0  0  0  0  0  0  0  0  0
    7.4902  -14.4712   24.9296 C   0  0  0  0  0  0  0  0  0  0  0  0
    7.1201  -13.5714   26.0179 C   0  0  0  0  0  0  0  0  0  0  0  0
    7.8939  -13.0591   27.0246 C   0  0  0  0  0  0  0  0  0  0  0  0
    7.1289  -12.2024   27.7735 N   0  0  0  0  0  0  0  0  0  0  0  0
    5.9071  -12.1830   27.2414 C   0  0  0  0  0  0  0  0  0  0  0  0
    5.9023  -12.9952   26.1996 N   0  0  0  0  0  0  0  0  0  0  0  0
    9.0803  -15.8597   26.1382 C   0  0  0  0  0  0  0  0  0  0  0  0
    8.7939  -17.0954   25.9943 O   0  0  0  0  0  0  0  0  0  0  0  0
    9.5286  -15.4404   27.3511 O   0  0  0  0  0  0  0  0  0  0  0  0
  2  1  1  1
  2  3  1  0
  4  2  1  0
  5  4  2  0
  6  4  1  0
  7 11  1  0
  7  6  1  0
  7  8  1  6
  9  8  1  0
 10  9  2  0
 11 14  1  0
 12 11  2  0
 13  9  1  0
 14 15  1  0
 15 22  1  0
 15 16  1  1
 16 17  1  0
 17 21  1  0
 17 18  2  0
 18 19  1  0
 20 19  1  0
 21 20  2  0
 22 23  2  0
 22 24  1  0
M  END
$$$$
