ADH.pdb
     RDKit          3D

 24 24  0  0  1  0  0  0  0  0999 V2000
    7.9525  -16.6328   14.6691 C   0  0  0  0  0  0  0  0  0  0  0  0
    8.9806  -15.7517   15.3468 C   0  0  2  0  0  0  0  0  0  0  0  0
   10.0375  -15.4479   14.4045 N   0  0  0  0  0  0  0  0  0  0  0  0
    9.5581  -16.5055   16.5124 C   0  0  0  0  0  0  0  0  0  0  0  0
    8.7715  -16.8116   17.4578 O   0  0  0  0  0  0  0  0  0  0  0  0
   10.9310  -16.8576   16.5467 N   0  0  0  0  0  0  0  0  0  0  0  0
   11.4473  -17.4801   17.7773 C   0  0  1  0  0  0  0  0  0  0  0  0
   12.8159  -17.9967   17.4571 C   0  0  0  0  0  0  0  0  0  0  0  0
   12.7811  -19.3671   16.9518 C   0  0  0  0  0  0  0  0  0  0  0  0
   11.9359  -20.2010   17.3063 O   0  0  0  0  0  0  0  0  0  0  0  0
   11.4660  -16.4165   18.8406 C   0  0  0  0  0  0  0  0  0  0  0  0
   12.0918  -15.3394   18.7210 O   0  0  0  0  0  0  0  0  0  0  0  0
   13.7521  -19.7811   16.0109 O   0  0  0  0  0  0  0  0  0  0  0  0
   10.7432  -16.6281   20.0483 N   0  0  0  0  0  0  0  0  0  0  0  0
   10.7098  -15.5789   21.1137 C   0  0  1  0  0  0  0  0  0  0  0  0
    9.2807  -15.1963   21.2554 C   0  0  0  0  0  0  0  0  0  0  0  0
    8.7824  -14.2507   20.2611 C   0  0  0  0  0  0  0  0  0  0  0  0
    9.4366  -13.6707   19.2075 C   0  0  0  0  0  0  0  0  0  0  0  0
    8.5433  -12.9036   18.5048 N   0  0  0  0  0  0  0  0  0  0  0  0
    7.3601  -13.0072   19.1094 C   0  0  0  0  0  0  0  0  0  0  0  0
    7.5022  -13.8068   20.1513 N   0  0  0  0  0  0  0  0  0  0  0  0
   11.1368  -16.3032   22.3721 C   0  0  0  0  0  0  0  0  0  0  0  0
   11.1595  -17.5794   22.3479 O   0  0  0  0  0  0  0  0  0  0  0  0
   11.4949  -15.6751   23.5232 O   0  0  0  0  0  0  0  0  0  0  0  0
  2  1  1  6
  2  3  1  0
  4  2  1  0
  5  4  2  0
  6  4  1  0
  7 11  1  0
  7  6  1  0
  7  8  1  6
  9  8  1  0
 10  9  2  0
 11 14  1  0
 12 11  2  0
 13  9  1  0
 14 15  1  0
 15 22  1  0
 15 16  1  1
 16 17  1  0
 17 21  1  0
 17 18  2  0
 18 19  1  0
 20 19  1  0
 21 20  2  0
 22 23  2  0
 22 24  1  0
M  END
$$$$
