VWT.pdb
     RDKit          3D

 29 30  0  0  1  0  0  0  0  0999 V2000
   29.5071  -18.8446  -15.7268 C   0  0  0  0  0  0  0  0  0  0  0  0
   28.7521  -19.9477  -14.9636 C   0  0  2  0  0  0  0  0  0  0  0  0
   28.7743  -21.1708  -15.8396 C   0  0  0  0  0  0  0  0  0  0  0  0
   27.3351  -19.4352  -14.7801 C   0  0  2  0  0  0  0  0  0  0  0  0
   27.4927  -18.1226  -14.1367 N   0  0  0  0  0  0  0  0  0  0  0  0
   26.5322  -20.2906  -13.8804 C   0  0  0  0  0  0  0  0  0  0  0  0
   26.1610  -21.4089  -14.3038 O   0  0  0  0  0  0  0  0  0  0  0  0
   26.1541  -19.9207  -12.5490 N   0  0  0  0  0  0  0  0  0  0  0  0
   25.3053  -20.6365  -11.6742 C   0  0  1  0  0  0  0  0  0  0  0  0
   25.4539  -20.4845  -10.2213 C   0  0  0  0  0  0  0  0  0  0  0  0
   26.8156  -20.7480   -9.6903 C   0  0  0  0  0  0  0  0  0  0  0  0
   27.8732  -21.4097  -10.2697 C   0  0  0  0  0  0  0  0  0  0  0  0
   28.9308  -21.4212   -9.4001 N   0  0  0  0  0  0  0  0  0  0  0  0
   28.5876  -20.7891   -8.2801 C   0  0  0  0  0  0  0  0  0  0  0  0
   29.2472  -20.5130   -7.0978 C   0  0  0  0  0  0  0  0  0  0  0  0
   28.6019  -19.8212   -6.0950 C   0  0  0  0  0  0  0  0  0  0  0  0
   27.2837  -19.3962   -6.2642 C   0  0  0  0  0  0  0  0  0  0  0  0
   26.6293  -19.6758   -7.4500 C   0  0  0  0  0  0  0  0  0  0  0  0
   27.2906  -20.3623   -8.4276 C   0  0  0  0  0  0  0  0  0  0  0  0
   23.8489  -20.4840  -12.0480 C   0  0  0  0  0  0  0  0  0  0  0  0
   23.3480  -19.3252  -12.0388 O   0  0  0  0  0  0  0  0  0  0  0  0
   19.8912  -22.3508  -14.3758 C   0  0  0  0  0  0  0  0  0  0  0  0
   21.3192  -22.4393  -13.8767 C   0  0  1  0  0  0  0  0  0  0  0  0
   22.1445  -22.2631  -15.0109 O   0  0  0  0  0  0  0  0  0  0  0  0
   21.6379  -21.3235  -12.9081 C   0  0  2  0  0  0  0  0  0  0  0  0
   23.0057  -21.5440  -12.4072 N   0  0  0  0  0  0  0  0  0  0  0  0
   20.6777  -21.2773  -11.7893 C   0  0  0  0  0  0  0  0  0  0  0  0
   19.5908  -20.4217  -11.8285 O   0  0  0  0  0  0  0  0  0  0  0  0
   20.8403  -22.0198  -10.7832 O   0  0  0  0  0  0  0  0  0  0  0  0
  2  3  1  6
  2  1  1  0
  4  5  1  1
  4  2  1  0
  6  4  1  0
  7  6  2  0
  8  6  1  0
  9  8  1  0
  9 10  1  1
 10 11  1  0
 11 19  1  0
 12 11  2  0
 12 13  1  0
 13 14  1  0
 14 15  1  0
 15 16  2  0
 17 16  1  0
 18 17  2  0
 19 14  2  0
 19 18  1  0
 20  9  1  0
 21 20  2  0
 23 22  1  6
 23 24  1  0
 23 25  1  0
 25 26  1  1
 26 20  1  0
 27 25  1  0
 27 28  1  0
 29 27  2  0
M  END
$$$$
