VWT.pdb
     RDKit          3D

 29 30  0  0  1  0  0  0  0  0999 V2000
   28.1731  -18.9821  -16.5235 C   0  0  0  0  0  0  0  0  0  0  0  0
   27.2123  -19.4460  -15.4142 C   0  0  2  0  0  0  0  0  0  0  0  0
   26.4711  -18.2230  -14.9462 C   0  0  0  0  0  0  0  0  0  0  0  0
   28.0885  -20.0075  -14.3091 C   0  0  2  0  0  0  0  0  0  0  0  0
   28.7040  -21.2079  -14.8935 N   0  0  0  0  0  0  0  0  0  0  0  0
   27.3113  -20.4251  -13.1227 C   0  0  0  0  0  0  0  0  0  0  0  0
   26.6473  -21.4843  -13.1940 O   0  0  0  0  0  0  0  0  0  0  0  0
   27.2728  -19.6937  -11.8915 N   0  0  0  0  0  0  0  0  0  0  0  0
   26.5198  -20.0073  -10.7371 C   0  0  1  0  0  0  0  0  0  0  0  0
   26.8141  -19.3354   -9.4650 C   0  0  0  0  0  0  0  0  0  0  0  0
   26.3892  -20.0688   -8.2454 C   0  0  0  0  0  0  0  0  0  0  0  0
   25.3577  -20.9616   -8.0700 C   0  0  0  0  0  0  0  0  0  0  0  0
   25.3350  -21.3759   -6.7651 N   0  0  0  0  0  0  0  0  0  0  0  0
   26.3179  -20.7782   -6.0956 C   0  0  0  0  0  0  0  0  0  0  0  0
   26.7458  -20.8240   -4.7825 C   0  0  0  0  0  0  0  0  0  0  0  0
   27.8242  -20.0637   -4.3831 C   0  0  0  0  0  0  0  0  0  0  0  0
   28.4896  -19.2453   -5.2967 C   0  0  0  0  0  0  0  0  0  0  0  0
   28.0563  -19.2042   -6.6093 C   0  0  0  0  0  0  0  0  0  0  0  0
   26.9859  -19.9668   -6.9795 C   0  0  0  0  0  0  0  0  0  0  0  0
   25.0324  -19.9542  -11.0000 C   0  0  0  0  0  0  0  0  0  0  0  0
   24.5395  -18.8730  -11.4264 O   0  0  0  0  0  0  0  0  0  0  0  0
   21.1475  -22.3268  -12.6730 C   0  0  0  0  0  0  0  0  0  0  0  0
   22.5879  -22.1828  -12.2250 C   0  0  1  0  0  0  0  0  0  0  0  0
   23.3391  -21.9175  -13.3929 O   0  0  0  0  0  0  0  0  0  0  0  0
   22.7642  -21.0030  -11.2966 C   0  0  2  0  0  0  0  0  0  0  0  0
   24.1520  -21.0265  -10.8031 N   0  0  0  0  0  0  0  0  0  0  0  0
   21.8130  -21.0445  -10.1700 C   0  0  0  0  0  0  0  0  0  0  0  0
   20.4537  -20.9063  -10.3900 O   0  0  0  0  0  0  0  0  0  0  0  0
   22.2323  -21.2066   -8.9919 O   0  0  0  0  0  0  0  0  0  0  0  0
  2  3  1  1
  2  1  1  0
  4  5  1  6
  4  2  1  0
  6  4  1  0
  7  6  2  0
  8  6  1  0
  9  8  1  0
  9 10  1  1
 10 11  1  0
 11 19  1  0
 12 11  2  0
 12 13  1  0
 13 14  1  0
 14 15  1  0
 15 16  2  0
 17 16  1  0
 18 17  2  0
 19 14  2  0
 19 18  1  0
 20  9  1  0
 21 20  2  0
 23 22  1  6
 23 24  1  0
 23 25  1  0
 25 26  1  1
 26 20  1  0
 27 25  1  0
 27 28  1  0
 29 27  2  0
M  END
$$$$
