VWT.pdb
     RDKit          3D

 29 30  0  0  1  0  0  0  0  0999 V2000
   28.4252  -20.1094  -16.7400 C   0  0  0  0  0  0  0  0  0  0  0  0
   27.5063  -20.1401  -15.5057 C   0  0  2  0  0  0  0  0  0  0  0  0
   27.4691  -18.7382  -14.9605 C   0  0  0  0  0  0  0  0  0  0  0  0
   28.1614  -21.0903  -14.5196 C   0  0  2  0  0  0  0  0  0  0  0  0
   28.1369  -22.3991  -15.1890 N   0  0  0  0  0  0  0  0  0  0  0  0
   27.4040  -21.2105  -13.2555 C   0  0  0  0  0  0  0  0  0  0  0  0
   26.2982  -21.7972  -13.2826 O   0  0  0  0  0  0  0  0  0  0  0  0
   27.8589  -20.6995  -11.9969 N   0  0  0  0  0  0  0  0  0  0  0  0
   27.1270  -20.6328  -10.7894 C   0  0  1  0  0  0  0  0  0  0  0  0
   27.7493  -20.0683   -9.5852 C   0  0  0  0  0  0  0  0  0  0  0  0
   27.0167  -20.3126   -8.3166 C   0  0  0  0  0  0  0  0  0  0  0  0
   25.7502  -20.8093   -8.1136 C   0  0  0  0  0  0  0  0  0  0  0  0
   25.4890  -20.8469   -6.7700 N   0  0  0  0  0  0  0  0  0  0  0  0
   26.5461  -20.3900   -6.1024 C   0  0  0  0  0  0  0  0  0  0  0  0
   26.8242  -20.2083   -4.7612 C   0  0  0  0  0  0  0  0  0  0  0  0
   28.0449  -19.6975   -4.3745 C   0  0  0  0  0  0  0  0  0  0  0  0
   29.0053  -19.3610   -5.3292 C   0  0  0  0  0  0  0  0  0  0  0  0
   28.7205  -19.5454   -6.6699 C   0  0  0  0  0  0  0  0  0  0  0  0
   27.5042  -20.0529   -7.0268 C   0  0  0  0  0  0  0  0  0  0  0  0
   25.7636  -20.0114  -10.9876 C   0  0  0  0  0  0  0  0  0  0  0  0
   25.7021  -18.8516  -11.4823 O   0  0  0  0  0  0  0  0  0  0  0  0
   24.4166  -19.1995  -13.0808 C   0  0  0  0  0  0  0  0  0  0  0  0
   23.2198  -19.9641  -12.5524 C   0  0  1  0  0  0  0  0  0  0  0  0
   23.3325  -21.2764  -13.0659 O   0  0  0  0  0  0  0  0  0  0  0  0
   23.2483  -20.0648  -11.0444 C   0  0  2  0  0  0  0  0  0  0  0  0
   24.5517  -20.6335  -10.6595 N   0  0  0  0  0  0  0  0  0  0  0  0
   22.1465  -20.8995  -10.5294 C   0  0  0  0  0  0  0  0  0  0  0  0
   20.8303  -20.4987  -10.6779 O   0  0  0  0  0  0  0  0  0  0  0  0
   22.3958  -21.9895   -9.9467 O   0  0  0  0  0  0  0  0  0  0  0  0
  2  3  1  1
  2  1  1  0
  4  5  1  6
  4  2  1  0
  6  4  1  0
  7  6  2  0
  8  6  1  0
  9  8  1  0
  9 10  1  1
 10 11  1  0
 11 19  1  0
 12 11  2  0
 12 13  1  0
 13 14  1  0
 14 15  1  0
 15 16  2  0
 17 16  1  0
 18 17  2  0
 19 14  2  0
 19 18  1  0
 20  9  1  0
 21 20  2  0
 23 22  1  6
 23 24  1  0
 23 25  1  0
 25 26  1  6
 26 20  1  0
 27 25  1  0
 27 28  1  0
 29 27  2  0
M  END
$$$$
