VWT.pdb
     RDKit          3D

 29 30  0  0  1  0  0  0  0  0999 V2000
   29.6628  -22.1190  -16.3691 C   0  0  0  0  0  0  0  0  0  0  0  0
   28.6755  -22.8916  -17.2620 C   0  0  2  0  0  0  0  0  0  0  0  0
   29.1776  -22.7605  -18.6744 C   0  0  0  0  0  0  0  0  0  0  0  0
   27.3331  -22.2029  -17.0954 C   0  0  2  0  0  0  0  0  0  0  0  0
   27.5577  -20.8277  -17.5644 N   0  0  0  0  0  0  0  0  0  0  0  0
   26.8976  -22.1380  -15.6840 C   0  0  0  0  0  0  0  0  0  0  0  0
   26.4688  -23.1857  -15.1491 O   0  0  0  0  0  0  0  0  0  0  0  0
   26.9389  -20.9487  -14.8863 N   0  0  0  0  0  0  0  0  0  0  0  0
   26.4958  -20.8016  -13.5521 C   0  0  1  0  0  0  0  0  0  0  0  0
   27.2108  -19.9030  -12.6371 C   0  0  0  0  0  0  0  0  0  0  0  0
   27.9094  -20.5691  -11.5084 C   0  0  0  0  0  0  0  0  0  0  0  0
   29.0201  -21.3803  -11.5167 C   0  0  0  0  0  0  0  0  0  0  0  0
   29.2989  -21.7789  -10.2368 N   0  0  0  0  0  0  0  0  0  0  0  0
   28.4032  -21.2509   -9.4057 C   0  0  0  0  0  0  0  0  0  0  0  0
   28.2092  -21.3210   -8.0394 C   0  0  0  0  0  0  0  0  0  0  0  0
   27.1582  -20.6443   -7.4579 C   0  0  0  0  0  0  0  0  0  0  0  0
   26.2856  -19.8867   -8.2400 C   0  0  0  0  0  0  0  0  0  0  0  0
   26.4855  -19.8208   -9.6068 C   0  0  0  0  0  0  0  0  0  0  0  0
   27.5337  -20.5002  -10.1582 C   0  0  0  0  0  0  0  0  0  0  0  0
   25.0130  -20.5187  -13.4762 C   0  0  0  0  0  0  0  0  0  0  0  0
   24.5717  -19.4865  -14.0536 O   0  0  0  0  0  0  0  0  0  0  0  0
   20.4562  -22.2092  -13.3175 C   0  0  0  0  0  0  0  0  0  0  0  0
   21.9661  -22.3139  -13.3914 C   0  0  1  0  0  0  0  0  0  0  0  0
   22.2873  -22.4159  -14.7643 O   0  0  0  0  0  0  0  0  0  0  0  0
   22.6346  -21.0656  -12.8624 C   0  0  2  0  0  0  0  0  0  0  0  0
   24.0837  -21.3250  -12.8056 N   0  0  0  0  0  0  0  0  0  0  0  0
   22.1227  -20.6916  -11.5305 C   0  0  0  0  0  0  0  0  0  0  0  0
   20.8729  -20.1136  -11.3929 O   0  0  0  0  0  0  0  0  0  0  0  0
   22.8229  -20.8957  -10.5019 O   0  0  0  0  0  0  0  0  0  0  0  0
  2  3  1  6
  2  1  1  0
  4  5  1  1
  4  2  1  0
  6  4  1  0
  7  6  2  0
  8  6  1  0
  9  8  1  0
  9 10  1  6
 10 11  1  0
 11 19  1  0
 12 11  2  0
 12 13  1  0
 13 14  1  0
 14 15  1  0
 15 16  2  0
 17 16  1  0
 18 17  2  0
 19 14  2  0
 19 18  1  0
 20  9  1  0
 21 20  2  0
 23 22  1  6
 23 24  1  0
 23 25  1  0
 25 26  1  1
 26 20  1  0
 27 25  1  0
 27 28  1  0
 29 27  2  0
M  END
$$$$
