VWT.pdb
     RDKit          3D

 29 30  0  0  1  0  0  0  0  0999 V2000
   27.8604  -17.9711  -17.0814 C   0  0  0  0  0  0  0  0  0  0  0  0
   27.2380  -18.0989  -15.6795 C   0  0  2  0  0  0  0  0  0  0  0  0
   28.3295  -18.5861  -14.7656 C   0  0  0  0  0  0  0  0  0  0  0  0
   26.1320  -19.1311  -15.8050 C   0  0  2  0  0  0  0  0  0  0  0  0
   25.2636  -18.6203  -16.8758 N   0  0  0  0  0  0  0  0  0  0  0  0
   25.3194  -19.2474  -14.5753 C   0  0  0  0  0  0  0  0  0  0  0  0
   24.7835  -18.2110  -14.1209 O   0  0  0  0  0  0  0  0  0  0  0  0
   25.1028  -20.4759  -13.8709 N   0  0  0  0  0  0  0  0  0  0  0  0
   24.3739  -20.6543  -12.6729 C   0  0  1  0  0  0  0  0  0  0  0  0
   23.1586  -21.4784  -12.6701 C   0  0  0  0  0  0  0  0  0  0  0  0
   21.9637  -20.8512  -13.2902 C   0  0  0  0  0  0  0  0  0  0  0  0
   20.8058  -20.3946  -12.7047 C   0  0  0  0  0  0  0  0  0  0  0  0
   19.9714  -19.9051  -13.6737 N   0  0  0  0  0  0  0  0  0  0  0  0
   20.5547  -20.0327  -14.8633 C   0  0  0  0  0  0  0  0  0  0  0  0
   20.1744  -19.7155  -16.1533 C   0  0  0  0  0  0  0  0  0  0  0  0
   21.0235  -19.9816  -17.2063 C   0  0  0  0  0  0  0  0  0  0  0  0
   22.2679  -20.5708  -16.9798 C   0  0  0  0  0  0  0  0  0  0  0  0
   22.6424  -20.8857  -15.6864 C   0  0  0  0  0  0  0  0  0  0  0  0
   21.7833  -20.6119  -14.6610 C   0  0  0  0  0  0  0  0  0  0  0  0
   25.2648  -21.0705  -11.5251 C   0  0  0  0  0  0  0  0  0  0  0  0
   25.9675  -22.1104  -11.6612 O   0  0  0  0  0  0  0  0  0  0  0  0
   28.2604  -19.8914   -9.8433 C   0  0  0  0  0  0  0  0  0  0  0  0
   27.1815  -19.9535   -8.7811 C   0  0  1  0  0  0  0  0  0  0  0  0
   26.5951  -18.6679   -8.7395 O   0  0  0  0  0  0  0  0  0  0  0  0
   26.0935  -20.9348   -9.1529 C   0  0  2  0  0  0  0  0  0  0  0  0
   25.3689  -20.3809  -10.3098 N   0  0  0  0  0  0  0  0  0  0  0  0
   25.1681  -21.1791   -8.0305 C   0  0  0  0  0  0  0  0  0  0  0  0
   25.6219  -21.7508   -6.8548 O   0  0  0  0  0  0  0  0  0  0  0  0
   23.9505  -20.8682   -8.1336 O   0  0  0  0  0  0  0  0  0  0  0  0
  2  3  1  1
  2  1  1  0
  4  5  1  6
  4  2  1  0
  6  4  1  0
  7  6  2  0
  8  6  1  0
  9  8  1  0
  9 10  1  6
 10 11  1  0
 11 19  1  0
 12 11  2  0
 12 13  1  0
 13 14  1  0
 14 15  1  0
 15 16  2  0
 17 16  1  0
 18 17  2  0
 19 14  2  0
 19 18  1  0
 20  9  1  0
 21 20  2  0
 23 22  1  6
 23 24  1  0
 23 25  1  0
 25 26  1  6
 26 20  1  0
 27 25  1  0
 27 28  1  0
 29 27  2  0
M  END
$$$$
