VWT.pdb
     RDKit          3D

 29 30  0  0  1  0  0  0  0  0999 V2000
   26.3750  -17.8762  -15.3172 C   0  0  0  0  0  0  0  0  0  0  0  0
   27.5697  -17.7458  -14.3556 C   0  0  2  0  0  0  0  0  0  0  0  0
   28.4615  -16.6726  -14.9187 C   0  0  0  0  0  0  0  0  0  0  0  0
   28.2664  -19.0944  -14.3681 C   0  0  2  0  0  0  0  0  0  0  0  0
   28.5447  -19.3584  -15.7874 N   0  0  0  0  0  0  0  0  0  0  0  0
   27.4058  -20.1847  -13.8616 C   0  0  0  0  0  0  0  0  0  0  0  0
   26.7405  -20.8461  -14.6909 O   0  0  0  0  0  0  0  0  0  0  0  0
   27.2876  -20.5355  -12.4777 N   0  0  0  0  0  0  0  0  0  0  0  0
   26.3522  -21.4245  -11.9007 C   0  0  1  0  0  0  0  0  0  0  0  0
   26.5585  -21.9201  -10.5340 C   0  0  0  0  0  0  0  0  0  0  0  0
   26.5177  -20.8854   -9.4695 C   0  0  0  0  0  0  0  0  0  0  0  0
   25.6439  -19.8378   -9.2936 C   0  0  0  0  0  0  0  0  0  0  0  0
   26.0027  -19.1321   -8.1763 N   0  0  0  0  0  0  0  0  0  0  0  0
   27.0791  -19.6914   -7.6284 C   0  0  0  0  0  0  0  0  0  0  0  0
   27.8476  -19.3991   -6.5179 C   0  0  0  0  0  0  0  0  0  0  0  0
   28.9336  -20.1889   -6.2053 C   0  0  0  0  0  0  0  0  0  0  0  0
   29.2644  -21.2845   -7.0034 C   0  0  0  0  0  0  0  0  0  0  0  0
   28.4910  -21.5715   -8.1134 C   0  0  0  0  0  0  0  0  0  0  0  0
   27.4208  -20.7739   -8.4013 C   0  0  0  0  0  0  0  0  0  0  0  0
   24.9332  -20.9244  -12.0440 C   0  0  0  0  0  0  0  0  0  0  0  0
   24.6162  -19.8515  -11.4590 O   0  0  0  0  0  0  0  0  0  0  0  0
   22.6774  -21.4576  -15.4222 C   0  0  0  0  0  0  0  0  0  0  0  0
   22.5347  -20.3928  -14.3535 C   0  0  1  0  0  0  0  0  0  0  0  0
   21.2458  -19.8366  -14.5212 O   0  0  0  0  0  0  0  0  0  0  0  0
   22.5925  -20.9893  -12.9658 C   0  0  2  0  0  0  0  0  0  0  0  0
   23.9343  -21.5700  -12.7849 N   0  0  0  0  0  0  0  0  0  0  0  0
   21.5525  -22.0160  -12.7662 C   0  0  0  0  0  0  0  0  0  0  0  0
   20.2145  -21.6649  -12.7244 O   0  0  0  0  0  0  0  0  0  0  0  0
   21.8752  -23.2274  -12.6309 O   0  0  0  0  0  0  0  0  0  0  0  0
  2  3  1  6
  2  1  1  0
  4  5  1  6
  4  2  1  0
  6  4  1  0
  7  6  2  0
  8  6  1  0
  9  8  1  0
  9 10  1  1
 10 11  1  0
 11 19  1  0
 12 11  2  0
 12 13  1  0
 13 14  1  0
 14 15  1  0
 15 16  2  0
 17 16  1  0
 18 17  2  0
 19 14  2  0
 19 18  1  0
 20  9  1  0
 21 20  2  0
 23 22  1  6
 23 24  1  0
 23 25  1  0
 25 26  1  6
 26 20  1  0
 27 25  1  0
 27 28  1  0
 29 27  2  0
M  END
$$$$
