VWT.pdb
     RDKit          3D

 29 30  0  0  1  0  0  0  0  0999 V2000
   26.3489  -20.7654  -16.3729 C   0  0  0  0  0  0  0  0  0  0  0  0
   27.6567  -20.1299  -15.8682 C   0  0  2  0  0  0  0  0  0  0  0  0
   28.5182  -19.8959  -17.0795 C   0  0  0  0  0  0  0  0  0  0  0  0
   28.2882  -21.1521  -14.9405 C   0  0  2  0  0  0  0  0  0  0  0  0
   28.2457  -22.4152  -15.6916 N   0  0  0  0  0  0  0  0  0  0  0  0
   27.5198  -21.3385  -13.6911 C   0  0  0  0  0  0  0  0  0  0  0  0
   26.5898  -22.1769  -13.6888 O   0  0  0  0  0  0  0  0  0  0  0  0
   27.7757  -20.6206  -12.4781 N   0  0  0  0  0  0  0  0  0  0  0  0
   27.0728  -20.7329  -11.2569 C   0  0  1  0  0  0  0  0  0  0  0  0
   27.7418  -20.4002   -9.9927 C   0  0  0  0  0  0  0  0  0  0  0  0
   26.9149  -20.5727   -8.7712 C   0  0  0  0  0  0  0  0  0  0  0  0
   25.6689  -21.1366   -8.6243 C   0  0  0  0  0  0  0  0  0  0  0  0
   25.2911  -21.0630   -7.3103 N   0  0  0  0  0  0  0  0  0  0  0  0
   26.2531  -20.4696   -6.6075 C   0  0  0  0  0  0  0  0  0  0  0  0
   26.3977  -20.1400   -5.2734 C   0  0  0  0  0  0  0  0  0  0  0  0
   27.5443  -19.5085   -4.8409 C   0  0  0  0  0  0  0  0  0  0  0  0
   28.5636  -19.1980   -5.7419 C   0  0  0  0  0  0  0  0  0  0  0  0
   28.4125  -19.5306   -7.0757 C   0  0  0  0  0  0  0  0  0  0  0  0
   27.2673  -20.1557   -7.4786 C   0  0  0  0  0  0  0  0  0  0  0  0
   25.7302  -20.0410  -11.3110 C   0  0  0  0  0  0  0  0  0  0  0  0
   25.6959  -18.8309  -11.6693 O   0  0  0  0  0  0  0  0  0  0  0  0
   24.3976  -19.1293  -13.3717 C   0  0  0  0  0  0  0  0  0  0  0  0
   23.2030  -19.9205  -12.8783 C   0  0  1  0  0  0  0  0  0  0  0  0
   23.3365  -21.2174  -13.4248 O   0  0  0  0  0  0  0  0  0  0  0  0
   23.2146  -20.0607  -11.3733 C   0  0  2  0  0  0  0  0  0  0  0  0
   24.5095  -20.6492  -10.9896 N   0  0  0  0  0  0  0  0  0  0  0  0
   22.1011  -20.9001  -10.8920 C   0  0  0  0  0  0  0  0  0  0  0  0
   20.7993  -20.4322  -10.9284 O   0  0  0  0  0  0  0  0  0  0  0  0
   22.3273  -22.0556  -10.4410 O   0  0  0  0  0  0  0  0  0  0  0  0
  2  3  1  6
  2  1  1  0
  4  5  1  6
  4  2  1  0
  6  4  1  0
  7  6  2  0
  8  6  1  0
  9  8  1  0
  9 10  1  1
 10 11  1  0
 11 19  1  0
 12 11  2  0
 12 13  1  0
 13 14  1  0
 14 15  1  0
 15 16  2  0
 17 16  1  0
 18 17  2  0
 19 14  2  0
 19 18  1  0
 20  9  1  0
 21 20  2  0
 23 22  1  1
 23 24  1  0
 23 25  1  0
 25 26  1  6
 26 20  1  0
 27 25  1  0
 27 28  1  0
 29 27  2  0
M  END
$$$$
