VWT.pdb
     RDKit          3D

 29 30  0  0  1  0  0  0  0  0999 V2000
   27.3718  -20.0926  -14.6250 C   0  0  0  0  0  0  0  0  0  0  0  0
   28.1424  -19.2538  -13.5898 C   0  0  2  0  0  0  0  0  0  0  0  0
   29.3216  -18.6574  -14.3093 C   0  0  0  0  0  0  0  0  0  0  0  0
   28.5951  -20.2266  -12.5160 C   0  0  2  0  0  0  0  0  0  0  0  0
   29.2583  -21.3132  -13.2515 N   0  0  0  0  0  0  0  0  0  0  0  0
   27.4645  -20.8097  -11.7625 C   0  0  0  0  0  0  0  0  0  0  0  0
   27.1015  -21.9735  -12.0483 O   0  0  0  0  0  0  0  0  0  0  0  0
   26.7584  -20.1261  -10.7201 N   0  0  0  0  0  0  0  0  0  0  0  0
   25.5742  -20.5485  -10.0741 C   0  0  1  0  0  0  0  0  0  0  0  0
   25.2599  -20.0585   -8.7260 C   0  0  0  0  0  0  0  0  0  0  0  0
   26.4138  -19.5243   -7.9586 C   0  0  0  0  0  0  0  0  0  0  0  0
   27.0956  -18.3389   -8.1059 C   0  0  0  0  0  0  0  0  0  0  0  0
   28.1024  -18.2779   -7.1799 N   0  0  0  0  0  0  0  0  0  0  0  0
   28.0906  -19.3858   -6.4423 C   0  0  0  0  0  0  0  0  0  0  0  0
   28.8647  -19.8441   -5.3935 C   0  0  0  0  0  0  0  0  0  0  0  0
   28.5965  -21.0711   -4.8250 C   0  0  0  0  0  0  0  0  0  0  0  0
   27.5465  -21.8569   -5.3014 C   0  0  0  0  0  0  0  0  0  0  0  0
   26.7756  -21.3923   -6.3513 C   0  0  0  0  0  0  0  0  0  0  0  0
   27.0618  -20.1737   -6.8969 C   0  0  0  0  0  0  0  0  0  0  0  0
   24.3597  -20.3927  -10.9601 C   0  0  0  0  0  0  0  0  0  0  0  0
   24.1438  -19.2649  -11.4846 O   0  0  0  0  0  0  0  0  0  0  0  0
   23.7642  -21.9256  -14.0690 C   0  0  0  0  0  0  0  0  0  0  0  0
   22.4773  -22.1852  -13.3122 C   0  0  1  0  0  0  0  0  0  0  0  0
   22.5969  -23.4833  -12.7652 O   0  0  0  0  0  0  0  0  0  0  0  0
   22.3087  -21.2225  -12.1591 C   0  0  2  0  0  0  0  0  0  0  0  0
   23.4472  -21.4173  -11.2446 N   0  0  0  0  0  0  0  0  0  0  0  0
   21.0326  -21.4340  -11.4500 C   0  0  0  0  0  0  0  0  0  0  0  0
   19.8260  -21.2011  -12.0862 O   0  0  0  0  0  0  0  0  0  0  0  0
   21.0307  -21.8299  -10.2528 O   0  0  0  0  0  0  0  0  0  0  0  0
  2  3  1  6
  2  1  1  0
  4  5  1  6
  4  2  1  0
  6  4  1  0
  7  6  2  0
  8  6  1  0
  9  8  1  0
  9 10  1  1
 10 11  1  0
 11 19  1  0
 12 11  2  0
 12 13  1  0
 13 14  1  0
 14 15  1  0
 15 16  2  0
 17 16  1  0
 18 17  2  0
 19 14  2  0
 19 18  1  0
 20  9  1  0
 21 20  2  0
 23 22  1  1
 23 24  1  0
 23 25  1  0
 25 26  1  1
 26 20  1  0
 27 25  1  0
 27 28  1  0
 29 27  2  0
M  END
$$$$
