VWT.pdb
     RDKit          3D

 29 30  0  0  1  0  0  0  0  0999 V2000
   29.2661  -22.7261  -15.3323 C   0  0  0  0  0  0  0  0  0  0  0  0
   28.2140  -22.7632  -16.4551 C   0  0  2  0  0  0  0  0  0  0  0  0
   28.9322  -22.4160  -17.7309 C   0  0  0  0  0  0  0  0  0  0  0  0
   27.1875  -21.7020  -16.1022 C   0  0  2  0  0  0  0  0  0  0  0  0
   27.9333  -20.4354  -16.1335 N   0  0  0  0  0  0  0  0  0  0  0  0
   26.6364  -21.8732  -14.7410 C   0  0  0  0  0  0  0  0  0  0  0  0
   25.7760  -22.7646  -14.5595 O   0  0  0  0  0  0  0  0  0  0  0  0
   27.0288  -21.0831  -13.6122 N   0  0  0  0  0  0  0  0  0  0  0  0
   26.5019  -21.1479  -12.3021 C   0  0  1  0  0  0  0  0  0  0  0  0
   27.3600  -20.8407  -11.1508 C   0  0  0  0  0  0  0  0  0  0  0  0
   26.6608  -20.7458   -9.8440 C   0  0  0  0  0  0  0  0  0  0  0  0
   25.3241  -20.8818   -9.5492 C   0  0  0  0  0  0  0  0  0  0  0  0
   25.1363  -20.6979   -8.2054 N   0  0  0  0  0  0  0  0  0  0  0  0
   26.3084  -20.4475   -7.6266 C   0  0  0  0  0  0  0  0  0  0  0  0
   26.6962  -20.1886   -6.3259 C   0  0  0  0  0  0  0  0  0  0  0  0
   28.0245  -19.9597   -6.0363 C   0  0  0  0  0  0  0  0  0  0  0  0
   28.9840  -19.9871   -7.0490 C   0  0  0  0  0  0  0  0  0  0  0  0
   28.5891  -20.2469   -8.3487 C   0  0  0  0  0  0  0  0  0  0  0  0
   27.2675  -20.4703   -8.6092 C   0  0  0  0  0  0  0  0  0  0  0  0
   25.2025  -20.3862  -12.1765 C   0  0  0  0  0  0  0  0  0  0  0  0
   25.2320  -19.1302  -12.3005 O   0  0  0  0  0  0  0  0  0  0  0  0
   22.8502  -21.5369  -14.5423 C   0  0  0  0  0  0  0  0  0  0  0  0
   22.7309  -20.1937  -13.8511 C   0  0  1  0  0  0  0  0  0  0  0  0
   21.4883  -19.6527  -14.2534 O   0  0  0  0  0  0  0  0  0  0  0  0
   22.6921  -20.3456  -12.3477 C   0  0  2  0  0  0  0  0  0  0  0  0
   23.9560  -20.9769  -11.9299 N   0  0  0  0  0  0  0  0  0  0  0  0
   21.5392  -21.1536  -11.9074 C   0  0  0  0  0  0  0  0  0  0  0  0
   20.2475  -20.6830  -12.0659 O   0  0  0  0  0  0  0  0  0  0  0  0
   21.7218  -22.2844  -11.3802 O   0  0  0  0  0  0  0  0  0  0  0  0
  2  3  1  6
  2  1  1  0
  4  5  1  1
  4  2  1  0
  6  4  1  0
  7  6  2  0
  8  6  1  0
  9  8  1  0
  9 10  1  1
 10 11  1  0
 11 19  1  0
 12 11  2  0
 12 13  1  0
 13 14  1  0
 14 15  1  0
 15 16  2  0
 17 16  1  0
 18 17  2  0
 19 14  2  0
 19 18  1  0
 20  9  1  0
 21 20  2  0
 23 22  1  6
 23 24  1  0
 23 25  1  0
 25 26  1  6
 26 20  1  0
 27 25  1  0
 27 28  1  0
 29 27  2  0
M  END
$$$$
