VWT.pdb
     RDKit          3D

 29 30  0  0  1  0  0  0  0  0999 V2000
   29.2841  -19.6569  -13.6499 C   0  0  0  0  0  0  0  0  0  0  0  0
   28.7806  -19.9649  -15.0713 C   0  0  2  0  0  0  0  0  0  0  0  0
   29.4676  -18.9934  -15.9924 C   0  0  0  0  0  0  0  0  0  0  0  0
   27.2820  -19.7243  -15.0460 C   0  0  2  0  0  0  0  0  0  0  0  0
   27.1379  -18.2980  -14.7194 N   0  0  0  0  0  0  0  0  0  0  0  0
   26.5976  -20.5046  -13.9931 C   0  0  0  0  0  0  0  0  0  0  0  0
   26.3916  -21.7223  -14.1996 O   0  0  0  0  0  0  0  0  0  0  0  0
   26.1571  -19.9542  -12.7460 N   0  0  0  0  0  0  0  0  0  0  0  0
   25.3442  -20.5840  -11.7762 C   0  0  1  0  0  0  0  0  0  0  0  0
   25.5350  -20.2824  -10.3519 C   0  0  0  0  0  0  0  0  0  0  0  0
   26.8206  -20.7458   -9.7704 C   0  0  0  0  0  0  0  0  0  0  0  0
   27.7995  -21.5404  -10.3204 C   0  0  0  0  0  0  0  0  0  0  0  0
   28.8045  -21.7172   -9.4075 N   0  0  0  0  0  0  0  0  0  0  0  0
   28.5036  -21.0628   -8.2882 C   0  0  0  0  0  0  0  0  0  0  0  0
   29.1415  -20.9041   -7.0728 C   0  0  0  0  0  0  0  0  0  0  0  0
   28.5555  -20.1457   -6.0818 C   0  0  0  0  0  0  0  0  0  0  0  0
   27.3193  -19.5351   -6.2962 C   0  0  0  0  0  0  0  0  0  0  0  0
   26.6863  -19.6979   -7.5149 C   0  0  0  0  0  0  0  0  0  0  0  0
   27.2877  -20.4539   -8.4799 C   0  0  0  0  0  0  0  0  0  0  0  0
   23.8752  -20.4839  -12.1176 C   0  0  0  0  0  0  0  0  0  0  0  0
   23.3575  -19.3352  -12.1971 O   0  0  0  0  0  0  0  0  0  0  0  0
   19.9635  -22.4064  -14.3785 C   0  0  0  0  0  0  0  0  0  0  0  0
   21.4019  -22.4371  -13.9028 C   0  0  1  0  0  0  0  0  0  0  0  0
   22.1920  -22.0586  -15.0124 O   0  0  0  0  0  0  0  0  0  0  0  0
   21.6453  -21.4238  -12.8080 C   0  0  2  0  0  0  0  0  0  0  0  0
   23.0379  -21.5822  -12.3544 N   0  0  0  0  0  0  0  0  0  0  0  0
   20.7102  -21.5989  -11.6807 C   0  0  0  0  0  0  0  0  0  0  0  0
   19.6283  -20.7503  -11.5243 O   0  0  0  0  0  0  0  0  0  0  0  0
   20.8900  -22.5269  -10.8462 O   0  0  0  0  0  0  0  0  0  0  0  0
  2  3  1  6
  2  1  1  0
  4  5  1  1
  4  2  1  0
  6  4  1  0
  7  6  2  0
  8  6  1  0
  9  8  1  0
  9 10  1  1
 10 11  1  0
 11 19  1  0
 12 11  2  0
 12 13  1  0
 13 14  1  0
 14 15  1  0
 15 16  2  0
 17 16  1  0
 18 17  2  0
 19 14  2  0
 19 18  1  0
 20  9  1  0
 21 20  2  0
 23 22  1  6
 23 24  1  0
 23 25  1  0
 25 26  1  1
 26 20  1  0
 27 25  1  0
 27 28  1  0
 29 27  2  0
M  END
$$$$
