VWT.pdb
     RDKit          3D

 29 30  0  0  1  0  0  0  0  0999 V2000
   26.2741  -21.2407  -16.7931 C   0  0  0  0  0  0  0  0  0  0  0  0
   27.6629  -20.8401  -16.2642 C   0  0  2  0  0  0  0  0  0  0  0  0
   28.5877  -20.8217  -17.4510 C   0  0  0  0  0  0  0  0  0  0  0  0
   28.0638  -21.9227  -15.2785 C   0  0  2  0  0  0  0  0  0  0  0  0
   27.7204  -23.1850  -15.9495 N   0  0  0  0  0  0  0  0  0  0  0  0
   27.2983  -21.8548  -14.0155 C   0  0  0  0  0  0  0  0  0  0  0  0
   26.1414  -22.3334  -13.9991 O   0  0  0  0  0  0  0  0  0  0  0  0
   27.8000  -21.2772  -12.8042 N   0  0  0  0  0  0  0  0  0  0  0  0
   27.0994  -21.1036  -11.5888 C   0  0  1  0  0  0  0  0  0  0  0  0
   27.8026  -20.5978  -10.4032 C   0  0  0  0  0  0  0  0  0  0  0  0
   26.9673  -20.4474   -9.1844 C   0  0  0  0  0  0  0  0  0  0  0  0
   25.6059  -20.5683   -9.0303 C   0  0  0  0  0  0  0  0  0  0  0  0
   25.2755  -20.3286   -7.7233 N   0  0  0  0  0  0  0  0  0  0  0  0
   26.3801  -20.0568   -7.0321 C   0  0  0  0  0  0  0  0  0  0  0  0
   26.6271  -19.7450   -5.7088 C   0  0  0  0  0  0  0  0  0  0  0  0
   27.9179  -19.5071   -5.2872 C   0  0  0  0  0  0  0  0  0  0  0  0
   28.9808  -19.5785   -6.1885 C   0  0  0  0  0  0  0  0  0  0  0  0
   28.7266  -19.8910   -7.5114 C   0  0  0  0  0  0  0  0  0  0  0  0
   27.4393  -20.1223   -7.9036 C   0  0  0  0  0  0  0  0  0  0  0  0
   25.8171  -20.3269  -11.7807 C   0  0  0  0  0  0  0  0  0  0  0  0
   25.8879  -19.0695  -11.8680 O   0  0  0  0  0  0  0  0  0  0  0  0
   24.1858  -19.4968  -14.4041 C   0  0  0  0  0  0  0  0  0  0  0  0
   23.0677  -20.1509  -13.6179 C   0  0  1  0  0  0  0  0  0  0  0  0
   23.0583  -21.5110  -14.0035 O   0  0  0  0  0  0  0  0  0  0  0  0
   23.3351  -20.1045  -12.1309 C   0  0  2  0  0  0  0  0  0  0  0  0
   24.5438  -20.9051  -11.8693 N   0  0  0  0  0  0  0  0  0  0  0  0
   22.1936  -20.6203  -11.3519 C   0  0  0  0  0  0  0  0  0  0  0  0
   22.2976  -21.8102  -10.6531 O   0  0  0  0  0  0  0  0  0  0  0  0
   21.1087  -19.9787  -11.3164 O   0  0  0  0  0  0  0  0  0  0  0  0
  2  3  1  6
  2  1  1  0
  4  5  1  6
  4  2  1  0
  6  4  1  0
  7  6  2  0
  8  6  1  0
  9  8  1  0
  9 10  1  1
 10 11  1  0
 11 19  1  0
 12 11  2  0
 12 13  1  0
 13 14  1  0
 14 15  1  0
 15 16  2  0
 17 16  1  0
 18 17  2  0
 19 14  2  0
 19 18  1  0
 20  9  1  0
 21 20  2  0
 23 22  1  6
 23 24  1  0
 23 25  1  0
 25 26  1  6
 26 20  1  0
 27 25  1  0
 27 28  1  0
 29 27  2  0
M  END
$$$$
