RRE.pdb
     RDKit          3D

 32 31  0  0  1  0  0  0  0  0999 V2000
   27.1415  -26.0736  -16.1142 N   0  0  0  0  0  0  0  0  0  0  0  0
   26.4484  -27.2843  -16.4833 C   0  0  0  0  0  0  0  0  0  0  0  0
   27.0932  -28.3846  -16.6658 N   0  0  0  0  0  0  0  0  0  0  0  0
   25.0446  -27.2999  -16.6573 N   0  0  0  0  0  0  0  0  0  0  0  0
   24.2639  -26.0912  -16.4089 C   0  0  0  0  0  0  0  0  0  0  0  0
   23.4328  -26.3315  -15.1795 C   0  0  0  0  0  0  0  0  0  0  0  0
   21.9652  -26.2523  -15.3466 C   0  0  0  0  0  0  0  0  0  0  0  0
   21.3453  -24.9060  -15.4183 C   0  0  2  0  0  0  0  0  0  0  0  0
   21.9357  -23.9737  -16.3210 N   0  0  0  0  0  0  0  0  0  0  0  0
   21.2989  -24.3736  -14.0195 C   0  0  0  0  0  0  0  0  0  0  0  0
   22.1862  -23.5516  -13.6717 O   0  0  0  0  0  0  0  0  0  0  0  0
   26.7086  -29.2924  -16.9203 N   0  0  0  0  0  0  0  0  0  0  0  0
   15.3960  -22.0702  -11.2770 C   0  0  0  0  0  0  0  0  0  0  0  0
   15.1364  -21.9348  -12.6723 N   0  0  0  0  0  0  0  0  0  0  0  0
   13.9656  -22.1946  -13.1155 N   0  0  0  0  0  0  0  0  0  0  0  0
   16.1564  -21.5178  -13.5735 C   0  0  0  0  0  0  0  0  0  0  0  0
   17.4899  -21.3567  -13.0607 C   0  0  0  0  0  0  0  0  0  0  0  0
   18.0643  -22.7182  -12.7468 C   0  0  0  0  0  0  0  0  0  0  0  0
   19.4939  -22.6215  -12.3231 C   0  0  1  0  0  0  0  0  0  0  0  0
   19.9907  -23.9730  -11.8979 N   0  0  0  0  0  0  0  0  0  0  0  0
   20.3241  -24.7399  -13.0791 C   0  0  0  0  0  0  0  0  0  0  0  0
   19.0595  -24.6844  -11.0069 O   0  0  0  0  0  0  0  0  0  0  0  0
   17.9636  -25.0761  -11.4796 N   0  0  0  0  0  0  0  0  0  0  0  0
   13.7667  -22.1064  -14.1336 C   0  0  2  0  0  0  0  0  0  0  0  0
   19.3355  -24.9456   -9.6560 C   0  0  0  0  0  0  0  0  0  0  0  0
   18.3654  -25.6837   -8.8165 C   0  0  0  0  0  0  0  0  0  0  0  0
   18.8433  -25.6982   -7.4087 C   0  0  0  0  0  0  0  0  0  0  0  0
   17.9547  -26.5049   -6.5162 O   0  0  0  0  0  0  0  0  0  0  0  0
   18.3569  -26.5526   -5.1018 C   0  0  0  0  0  0  0  0  0  0  0  0
   19.3318  -25.9333   -4.6623 O   0  0  0  0  0  0  0  0  0  0  0  0
   17.0280  -25.0794   -8.9740 O   0  0  0  0  0  0  0  0  0  0  0  0
   16.0077  -25.8406   -8.9922 O   0  0  0  0  0  0  0  0  0  0  0  0
  2  3  2  0
  2  1  1  0
  4  2  1  0
  5  4  1  0
  6  7  1  0
  6  5  1  0
  8 10  1  0
  8  7  1  0
  8  9  1  6
 10 11  2  0
 13 12  1  0
 14 13  2  0
 15 13  1  0
 16 15  1  0
 17 16  1  0
 17 18  1  0
 19 18  1  1
 20 19  1  0
 20 10  1  0
 21 23  1  0
 21 19  1  0
 22 21  2  0
 24 25  1  6
 24 23  1  0
 25 26  1  0
 26 27  1  0
 27 31  1  0
 27 28  2  0
 29 32  1  0
 29 24  1  0
 30 29  2  0
M  END
$$$$
