RRE.pdb
     RDKit          3D

 32 31  0  0  1  0  0  0  0  0999 V2000
   21.5958  -21.4782   -8.3320 N   0  0  0  0  0  0  0  0  0  0  0  0
   22.0052  -20.9151   -9.5961 C   0  0  0  0  0  0  0  0  0  0  0  0
   21.1829  -20.8464  -10.5854 N   0  0  0  0  0  0  0  0  0  0  0  0
   23.3182  -20.4248   -9.7880 N   0  0  0  0  0  0  0  0  0  0  0  0
   24.4173  -20.9424   -8.9778 C   0  0  0  0  0  0  0  0  0  0  0  0
   25.6531  -20.1665   -9.3393 C   0  0  0  0  0  0  0  0  0  0  0  0
   25.8820  -19.9192  -10.7795 C   0  0  0  0  0  0  0  0  0  0  0  0
   26.2389  -21.0775  -11.6357 C   0  0  2  0  0  0  0  0  0  0  0  0
   27.3239  -21.8914  -11.1965 N   0  0  0  0  0  0  0  0  0  0  0  0
   26.4664  -20.5439  -13.0162 C   0  0  0  0  0  0  0  0  0  0  0  0
   27.0907  -19.4574  -13.1330 O   0  0  0  0  0  0  0  0  0  0  0  0
   21.3774  -20.5209  -11.5304 N   0  0  0  0  0  0  0  0  0  0  0  0
   29.9307  -25.1480  -16.1541 C   0  0  0  0  0  0  0  0  0  0  0  0
   28.5692  -25.0697  -16.5698 N   0  0  0  0  0  0  0  0  0  0  0  0
   27.7935  -26.0620  -16.3502 N   0  0  0  0  0  0  0  0  0  0  0  0
   28.0647  -23.9097  -17.2228 C   0  0  0  0  0  0  0  0  0  0  0  0
   28.7945  -22.6792  -17.0790 C   0  0  0  0  0  0  0  0  0  0  0  0
   28.0883  -21.8032  -16.0710 C   0  0  0  0  0  0  0  0  0  0  0  0
   26.6663  -21.5619  -16.4610 C   0  0  2  0  0  0  0  0  0  0  0  0
   26.0333  -20.5949  -15.5027 N   0  0  0  0  0  0  0  0  0  0  0  0
   26.0231  -21.1866  -14.1821 C   0  0  0  0  0  0  0  0  0  0  0  0
   24.6995  -20.1392  -15.9278 O   0  0  0  0  0  0  0  0  0  0  0  0
   23.6950  -20.7768  -15.5250 N   0  0  0  0  0  0  0  0  0  0  0  0
   26.7868  -25.9983  -16.6076 C   0  0  2  0  0  0  0  0  0  0  0  0
   24.4955  -19.0286  -16.7609 C   0  0  0  0  0  0  0  0  0  0  0  0
   23.1327  -18.6569  -17.2029 C   0  0  0  0  0  0  0  0  0  0  0  0
   23.1759  -17.3280  -17.8683 C   0  0  0  0  0  0  0  0  0  0  0  0
   21.8282  -16.8880  -18.3446 O   0  0  0  0  0  0  0  0  0  0  0  0
   21.8015  -15.6048  -19.0639 C   0  0  0  0  0  0  0  0  0  0  0  0
   22.8281  -15.0046  -19.3997 O   0  0  0  0  0  0  0  0  0  0  0  0
   22.5933  -19.7259  -18.0659 O   0  0  0  0  0  0  0  0  0  0  0  0
   23.3988  -20.4005  -18.7850 O   0  0  0  0  0  0  0  0  0  0  0  0
  2  3  2  0
  2  1  1  0
  4  2  1  0
  5  4  1  0
  6  7  1  0
  6  5  1  0
  8 10  1  0
  8  7  1  0
  8  9  1  1
 10 11  2  0
 13 12  1  0
 14 13  2  0
 15 13  1  0
 16 15  1  0
 17 16  1  0
 17 18  1  0
 19 18  1  1
 20 19  1  0
 20 10  1  0
 21 23  1  0
 21 19  1  0
 22 21  2  0
 24 25  1  6
 24 23  1  0
 25 26  1  0
 26 27  1  0
 27 31  1  0
 27 28  2  0
 29 32  1  0
 29 24  1  0
 30 29  2  0
M  END
$$$$
