RRE.pdb
     RDKit          3D

 32 31  0  0  1  0  0  0  0  0999 V2000
   20.0133  -22.0763  -18.7039 N   0  0  0  0  0  0  0  0  0  0  0  0
   20.5863  -22.4764  -19.9665 C   0  0  0  0  0  0  0  0  0  0  0  0
   19.8998  -22.4076  -21.0544 N   0  0  0  0  0  0  0  0  0  0  0  0
   21.9144  -22.9566  -20.0479 N   0  0  0  0  0  0  0  0  0  0  0  0
   22.4787  -23.7355  -18.9492 C   0  0  0  0  0  0  0  0  0  0  0  0
   21.7893  -25.0713  -18.9378 C   0  0  0  0  0  0  0  0  0  0  0  0
   21.3982  -25.6032  -17.6142 C   0  0  0  0  0  0  0  0  0  0  0  0
   22.4101  -25.5808  -16.5291 C   0  0  2  0  0  0  0  0  0  0  0  0
   22.8439  -26.8432  -16.0284 N   0  0  0  0  0  0  0  0  0  0  0  0
   21.8623  -24.7091  -15.4418 C   0  0  0  0  0  0  0  0  0  0  0  0
   20.7727  -25.0453  -14.9091 O   0  0  0  0  0  0  0  0  0  0  0  0
   20.2285  -22.5670  -22.0048 N   0  0  0  0  0  0  0  0  0  0  0  0
   25.4797  -20.7581   -9.4859 C   0  0  0  0  0  0  0  0  0  0  0  0
   25.8261  -20.9805  -10.8509 N   0  0  0  0  0  0  0  0  0  0  0  0
   27.0266  -21.3102  -11.1424 N   0  0  0  0  0  0  0  0  0  0  0  0
   24.8604  -20.8405  -11.8874 C   0  0  0  0  0  0  0  0  0  0  0  0
   23.5921  -20.2494  -11.5571 C   0  0  0  0  0  0  0  0  0  0  0  0
   22.4954  -21.0107  -12.2641 C   0  0  0  0  0  0  0  0  0  0  0  0
   23.0511  -21.9153  -13.3155 C   0  0  2  0  0  0  0  0  0  0  0  0
   21.9309  -22.6236  -14.0208 N   0  0  0  0  0  0  0  0  0  0  0  0
   22.4949  -23.5425  -14.9862 C   0  0  0  0  0  0  0  0  0  0  0  0
   20.9463  -21.7082  -14.6206 O   0  0  0  0  0  0  0  0  0  0  0  0
   21.2799  -21.0608  -15.6440 N   0  0  0  0  0  0  0  0  0  0  0  0
   27.3003  -21.4378  -12.1387 C   0  0  2  0  0  0  0  0  0  0  0  0
   19.6543  -21.5230  -14.1051 C   0  0  0  0  0  0  0  0  0  0  0  0
   18.6553  -20.7182  -14.8434 C   0  0  0  0  0  0  0  0  0  0  0  0
   17.3027  -20.9776  -14.2833 C   0  0  0  0  0  0  0  0  0  0  0  0
   16.2371  -20.2041  -14.9925 O   0  0  0  0  0  0  0  0  0  0  0  0
   14.8723  -20.3906  -14.4756 C   0  0  0  0  0  0  0  0  0  0  0  0
   14.6209  -21.0880  -13.4870 O   0  0  0  0  0  0  0  0  0  0  0  0
   19.0456  -19.2956  -14.7948 O   0  0  0  0  0  0  0  0  0  0  0  0
   19.5337  -18.8286  -13.7157 O   0  0  0  0  0  0  0  0  0  0  0  0
  2  3  2  0
  2  1  1  0
  4  2  1  0
  5  4  1  0
  6  7  1  0
  6  5  1  0
  8 10  1  0
  8  7  1  0
  8  9  1  1
 10 11  2  0
 13 12  1  0
 14 13  2  0
 15 13  1  0
 16 15  1  0
 17 16  1  0
 17 18  1  0
 19 18  1  1
 20 19  1  0
 20 10  1  0
 21 23  1  0
 21 19  1  0
 22 21  2  0
 24 25  1  6
 24 23  1  0
 25 26  1  0
 26 27  1  0
 27 31  1  0
 27 28  2  0
 29 32  1  0
 29 24  1  0
 30 29  2  0
M  END
$$$$
