RRE.pdb
     RDKit          3D

 32 31  0  0  1  0  0  0  0  0999 V2000
   18.2261  -18.6449  -18.8378 N   0  0  0  0  0  0  0  0  0  0  0  0
   17.8974  -17.6553  -17.8402 C   0  0  0  0  0  0  0  0  0  0  0  0
   16.6823  -17.2584  -17.6793 N   0  0  0  0  0  0  0  0  0  0  0  0
   18.8960  -17.0911  -17.0122 N   0  0  0  0  0  0  0  0  0  0  0  0
   20.2943  -17.1170  -17.4323 C   0  0  0  0  0  0  0  0  0  0  0  0
   20.6234  -18.5289  -17.8297 C   0  0  0  0  0  0  0  0  0  0  0  0
   21.6514  -19.2214  -17.0225 C   0  0  0  0  0  0  0  0  0  0  0  0
   22.8591  -19.7277  -17.7207 C   0  0  2  0  0  0  0  0  0  0  0  0
   23.0063  -19.3687  -19.0925 N   0  0  0  0  0  0  0  0  0  0  0  0
   22.8822  -21.2124  -17.5281 C   0  0  0  0  0  0  0  0  0  0  0  0
   21.8476  -21.8624  -17.8299 O   0  0  0  0  0  0  0  0  0  0  0  0
   16.3431  -16.5514  -17.0300 N   0  0  0  0  0  0  0  0  0  0  0  0
   29.9615  -24.3551  -18.1264 C   0  0  0  0  0  0  0  0  0  0  0  0
   29.3509  -25.0302  -17.0292 N   0  0  0  0  0  0  0  0  0  0  0  0
   30.0916  -25.6359  -16.1812 N   0  0  0  0  0  0  0  0  0  0  0  0
   27.9367  -25.0402  -16.8661 C   0  0  0  0  0  0  0  0  0  0  0  0
   27.1243  -24.5941  -17.9653 C   0  0  0  0  0  0  0  0  0  0  0  0
   26.3134  -23.3982  -17.5244 C   0  0  0  0  0  0  0  0  0  0  0  0
   25.4012  -23.7460  -16.3933 C   0  0  2  0  0  0  0  0  0  0  0  0
   23.9974  -23.3304  -16.7260 N   0  0  0  0  0  0  0  0  0  0  0  0
   23.9900  -21.9159  -17.0315 C   0  0  0  0  0  0  0  0  0  0  0  0
   23.0195  -23.6887  -15.6855 O   0  0  0  0  0  0  0  0  0  0  0  0
   22.6166  -22.7865  -14.9098 N   0  0  0  0  0  0  0  0  0  0  0  0
   29.6548  -26.1888  -15.4148 C   0  0  2  0  0  0  0  0  0  0  0  0
   22.5164  -24.9878  -15.5173 C   0  0  0  0  0  0  0  0  0  0  0  0
   21.5181  -25.2801  -14.4643 C   0  0  0  0  0  0  0  0  0  0  0  0
   20.3151  -24.4328  -14.6773 C   0  0  0  0  0  0  0  0  0  0  0  0
   19.1792  -24.8265  -13.7875 O   0  0  0  0  0  0  0  0  0  0  0  0
   17.8927  -24.1763  -14.0820 C   0  0  0  0  0  0  0  0  0  0  0  0
   17.7428  -23.3826  -15.0173 O   0  0  0  0  0  0  0  0  0  0  0  0
   21.2224  -26.7262  -14.4631 O   0  0  0  0  0  0  0  0  0  0  0  0
   20.4915  -27.2034  -13.5363 O   0  0  0  0  0  0  0  0  0  0  0  0
  2  3  2  0
  2  1  1  0
  4  2  1  0
  5  4  1  0
  6  7  1  0
  6  5  1  0
  8 10  1  0
  8  7  1  0
  8  9  1  6
 10 11  2  0
 13 12  1  0
 14 13  2  0
 15 13  1  0
 16 15  1  0
 17 16  1  0
 17 18  1  0
 19 18  1  6
 20 19  1  0
 20 10  1  0
 21 23  1  0
 21 19  1  0
 22 21  2  0
 24 25  1  1
 24 23  1  0
 25 26  1  0
 26 27  1  0
 27 31  1  0
 27 28  2  0
 29 32  1  0
 29 24  1  0
 30 29  2  0
M  END
$$$$
