RRE.pdb
     RDKit          3D

 32 31  0  0  1  0  0  0  0  0999 V2000
   21.8615  -15.7404  -17.1379 N   0  0  0  0  0  0  0  0  0  0  0  0
   21.8392  -16.1651  -18.5169 C   0  0  0  0  0  0  0  0  0  0  0  0
   20.7279  -16.4556  -19.1003 N   0  0  0  0  0  0  0  0  0  0  0  0
   23.0330  -16.2771  -19.2676 N   0  0  0  0  0  0  0  0  0  0  0  0
   24.0648  -17.2275  -18.8622 C   0  0  0  0  0  0  0  0  0  0  0  0
   23.3868  -18.3462  -18.1216 C   0  0  0  0  0  0  0  0  0  0  0  0
   23.9919  -18.7501  -16.8337 C   0  0  0  0  0  0  0  0  0  0  0  0
   24.2211  -20.1969  -16.5965 C   0  0  2  0  0  0  0  0  0  0  0  0
   24.4925  -21.0010  -17.7421 N   0  0  0  0  0  0  0  0  0  0  0  0
   23.0404  -20.7038  -15.8276 C   0  0  0  0  0  0  0  0  0  0  0  0
   22.1024  -21.2399  -16.4730 O   0  0  0  0  0  0  0  0  0  0  0  0
   20.5839  -16.6721  -20.0847 N   0  0  0  0  0  0  0  0  0  0  0  0
   22.6812  -21.6658   -8.0310 C   0  0  0  0  0  0  0  0  0  0  0  0
   23.8437  -21.1914   -8.7063 N   0  0  0  0  0  0  0  0  0  0  0  0
   24.9771  -21.2621   -8.1187 N   0  0  0  0  0  0  0  0  0  0  0  0
   23.7607  -20.6426  -10.0173 C   0  0  0  0  0  0  0  0  0  0  0  0
   22.7294  -19.6769  -10.2839 C   0  0  0  0  0  0  0  0  0  0  0  0
   22.3515  -19.7512  -11.7447 C   0  0  0  0  0  0  0  0  0  0  0  0
   22.2311  -21.1677  -12.2046 C   0  0  1  0  0  0  0  0  0  0  0  0
   21.8513  -21.2003  -13.6568 N   0  0  0  0  0  0  0  0  0  0  0  0
   22.9232  -20.6138  -14.4323 C   0  0  0  0  0  0  0  0  0  0  0  0
   20.5469  -20.5765  -13.9339 O   0  0  0  0  0  0  0  0  0  0  0  0
   20.5141  -19.3437  -14.1725 N   0  0  0  0  0  0  0  0  0  0  0  0
   25.8278  -20.8903   -8.5897 C   0  0  1  0  0  0  0  0  0  0  0  0
   19.3392  -21.2910  -13.9438 C   0  0  0  0  0  0  0  0  0  0  0  0
   18.0545  -20.5983  -14.1897 C   0  0  0  0  0  0  0  0  0  0  0  0
   17.5159  -21.0139  -15.5117 C   0  0  0  0  0  0  0  0  0  0  0  0
   17.8971  -20.0652  -16.6033 O   0  0  0  0  0  0  0  0  0  0  0  0
   17.3442  -20.3761  -17.9308 C   0  0  0  0  0  0  0  0  0  0  0  0
   17.9778  -20.9978  -18.7905 O   0  0  0  0  0  0  0  0  0  0  0  0
   17.1326  -20.8726  -13.0701 O   0  0  0  0  0  0  0  0  0  0  0  0
   17.4616  -21.7440  -12.2022 O   0  0  0  0  0  0  0  0  0  0  0  0
  2  3  2  0
  2  1  1  0
  4  2  1  0
  5  4  1  0
  6  7  1  0
  6  5  1  0
  8 10  1  0
  8  7  1  0
  8  9  1  6
 10 11  2  0
 13 12  1  0
 14 13  2  0
 15 13  1  0
 16 15  1  0
 17 16  1  0
 17 18  1  0
 19 18  1  6
 20 19  1  0
 20 10  1  0
 21 23  1  0
 21 19  1  0
 22 21  2  0
 24 25  1  1
 24 23  1  0
 25 26  1  0
 26 27  1  0
 27 31  1  0
 27 28  2  0
 29 32  1  0
 29 24  1  0
 30 29  2  0
M  END
$$$$
