HFT.pdb
     RDKit          3D

 29 30  0  0  1  0  0  0  0  0999 V2000
   10.5553  -14.1545   20.8376 N   0  0  0  0  0  0  0  0  0  0  0  0
    9.3166  -14.6236   21.3846 C   0  0  1  0  0  0  0  0  0  0  0  0
    8.5507  -15.5655   20.5255 C   0  0  0  0  0  0  0  0  0  0  0  0
    8.1862  -14.8580   19.2488 C   0  0  0  0  0  0  0  0  0  0  0  0
    8.5915  -13.6133   18.8217 C   0  0  0  0  0  0  0  0  0  0  0  0
    8.0504  -13.3459   17.6020 N   0  0  0  0  0  0  0  0  0  0  0  0
    7.3288  -14.4112   17.2947 C   0  0  0  0  0  0  0  0  0  0  0  0
    7.3819  -15.3603   18.2694 N   0  0  0  0  0  0  0  0  0  0  0  0
    9.4565  -15.0732   22.7978 C   0  0  0  0  0  0  0  0  0  0  0  0
   10.5732  -15.3626   23.2617 O   0  0  0  0  0  0  0  0  0  0  0  0
    8.3195  -15.1738   23.6043 N   0  0  0  0  0  0  0  0  0  0  0  0
    8.2928  -15.5138   25.0103 C   0  0  1  0  0  0  0  0  0  0  0  0
    7.0482  -15.0529   25.6558 C   0  0  0  0  0  0  0  0  0  0  0  0
    7.0281  -13.6783   26.1168 C   0  0  0  0  0  0  0  0  0  0  0  0
    8.1452  -13.0712   26.6308 C   0  0  0  0  0  0  0  0  0  0  0  0
    8.1291  -11.7546   27.0821 C   0  0  0  0  0  0  0  0  0  0  0  0
    6.9705  -11.0308   27.0156 C   0  0  0  0  0  0  0  0  0  0  0  0
    5.8124  -11.6045   26.5021 C   0  0  0  0  0  0  0  0  0  0  0  0
    5.8761  -12.9330   26.0593 C   0  0  0  0  0  0  0  0  0  0  0  0
    8.5112  -16.9852   25.2027 C   0  0  0  0  0  0  0  0  0  0  0  0
    7.5222  -17.7384   25.0214 O   0  0  0  0  0  0  0  0  0  0  0  0
   10.7749  -19.4864   23.6268 C   0  0  0  0  0  0  0  0  0  0  0  0
   11.0889  -19.4672   25.1131 C   0  0  1  0  0  0  0  0  0  0  0  0
   12.1579  -18.5993   25.3032 O   0  0  0  0  0  0  0  0  0  0  0  0
    9.9209  -18.9420   25.9293 C   0  0  2  0  0  0  0  0  0  0  0  0
    9.7470  -17.5529   25.5702 N   0  0  0  0  0  0  0  0  0  0  0  0
   10.2523  -19.1538   27.3608 C   0  0  0  0  0  0  0  0  0  0  0  0
   10.4598  -18.1808   28.1186 O   0  0  0  0  0  0  0  0  0  0  0  0
   10.3354  -20.4327   27.8803 O   0  0  0  0  0  0  0  0  0  0  0  0
  2  1  1  6
  3  2  1  0
  4  3  1  0
  4  8  1  0
  5  6  1  0
  5  4  2  0
  6  7  1  0
  7  8  2  0
  9  2  1  0
 10  9  2  0
 11  9  1  0
 12 11  1  0
 12 13  1  6
 14 13  1  0
 15 14  2  0
 16 15  1  0
 17 18  1  0
 17 16  2  0
 18 19  2  0
 19 14  1  0
 20 12  1  0
 21 20  2  0
 23 22  1  6
 23 25  1  0
 24 23  1  0
 25 26  1  1
 26 20  1  0
 27 25  1  0
 27 29  1  0
 28 27  2  0
M  END
$$$$
