HFT.pdb
     RDKit          3D

 29 30  0  0  1  0  0  0  0  0999 V2000
    8.4712  -16.7774   19.8566 N   0  0  0  0  0  0  0  0  0  0  0  0
    9.7886  -16.3363   20.2085 C   0  0  1  0  0  0  0  0  0  0  0  0
   10.5315  -15.6158   19.1404 C   0  0  0  0  0  0  0  0  0  0  0  0
   10.1564  -16.2137   17.8118 C   0  0  0  0  0  0  0  0  0  0  0  0
    9.1148  -15.8588   16.9842 C   0  0  0  0  0  0  0  0  0  0  0  0
    9.1297  -16.6345   15.8662 N   0  0  0  0  0  0  0  0  0  0  0  0
   10.1636  -17.4466   16.0137 C   0  0  0  0  0  0  0  0  0  0  0  0
   10.8205  -17.2263   17.1857 N   0  0  0  0  0  0  0  0  0  0  0  0
    9.8220  -15.6543   21.5323 C   0  0  0  0  0  0  0  0  0  0  0  0
   10.8854  -15.1872   21.9764 O   0  0  0  0  0  0  0  0  0  0  0  0
    8.6467  -15.5448   22.2805 N   0  0  0  0  0  0  0  0  0  0  0  0
    8.5298  -15.0133   23.6211 C   0  0  1  0  0  0  0  0  0  0  0  0
    7.3229  -14.1770   23.7692 C   0  0  0  0  0  0  0  0  0  0  0  0
    7.1188  -13.5576   25.0642 C   0  0  0  0  0  0  0  0  0  0  0  0
    6.1965  -14.0373   25.9585 C   0  0  0  0  0  0  0  0  0  0  0  0
    5.9912  -13.4416   27.1996 C   0  0  0  0  0  0  0  0  0  0  0  0
    6.7263  -12.3437   27.5528 C   0  0  0  0  0  0  0  0  0  0  0  0
    7.6733  -11.8215   26.6785 C   0  0  0  0  0  0  0  0  0  0  0  0
    7.8458  -12.4546   25.4398 C   0  0  0  0  0  0  0  0  0  0  0  0
    8.5722  -16.1190   24.6338 C   0  0  0  0  0  0  0  0  0  0  0  0
    7.5447  -16.8334   24.7434 O   0  0  0  0  0  0  0  0  0  0  0  0
   10.3982  -19.0341   24.5734 C   0  0  0  0  0  0  0  0  0  0  0  0
   10.7691  -18.4574   25.9290 C   0  0  1  0  0  0  0  0  0  0  0  0
   11.9698  -17.7735   25.7779 O   0  0  0  0  0  0  0  0  0  0  0  0
    9.7330  -17.4620   26.4208 C   0  0  2  0  0  0  0  0  0  0  0  0
    9.6861  -16.3900   25.4526 N   0  0  0  0  0  0  0  0  0  0  0  0
   10.1490  -17.0260   27.7776 C   0  0  0  0  0  0  0  0  0  0  0  0
   10.1914  -17.8412   28.7249 O   0  0  0  0  0  0  0  0  0  0  0  0
   10.4982  -15.7092   28.0153 O   0  0  0  0  0  0  0  0  0  0  0  0
  2  1  1  6
  3  2  1  0
  4  3  1  0
  4  8  1  0
  5  6  1  0
  5  4  2  0
  6  7  1  0
  7  8  2  0
  9  2  1  0
 10  9  2  0
 11  9  1  0
 12 11  1  0
 12 13  1  6
 14 13  1  0
 15 14  2  0
 16 15  1  0
 17 18  1  0
 17 16  2  0
 18 19  2  0
 19 14  1  0
 20 12  1  0
 21 20  2  0
 23 22  1  6
 23 25  1  0
 24 23  1  0
 25 26  1  6
 26 20  1  0
 27 25  1  0
 27 29  1  0
 28 27  2  0
M  END
$$$$
