HFT.pdb
     RDKit          3D

 29 30  0  0  1  0  0  0  0  0999 V2000
   10.3088  -16.4791   19.2721 N   0  0  0  0  0  0  0  0  0  0  0  0
    9.2463  -16.7707   20.1887 C   0  0  1  0  0  0  0  0  0  0  0  0
    8.8137  -18.1927   20.2394 C   0  0  0  0  0  0  0  0  0  0  0  0
    8.2195  -18.5585   18.9066 C   0  0  0  0  0  0  0  0  0  0  0  0
    8.2304  -17.8248   17.7414 C   0  0  0  0  0  0  0  0  0  0  0  0
    7.5975  -18.5169   16.7552 N   0  0  0  0  0  0  0  0  0  0  0  0
    7.2092  -19.6516   17.3136 C   0  0  0  0  0  0  0  0  0  0  0  0
    7.5670  -19.7219   18.6253 N   0  0  0  0  0  0  0  0  0  0  0  0
    9.4717  -16.1601   21.5286 C   0  0  0  0  0  0  0  0  0  0  0  0
   10.6013  -16.1743   22.0480 O   0  0  0  0  0  0  0  0  0  0  0  0
    8.4004  -15.5716   22.2062 N   0  0  0  0  0  0  0  0  0  0  0  0
    8.4485  -14.9516   23.5125 C   0  0  1  0  0  0  0  0  0  0  0  0
    7.3384  -13.9976   23.7009 C   0  0  0  0  0  0  0  0  0  0  0  0
    7.2932  -13.2986   24.9704 C   0  0  0  0  0  0  0  0  0  0  0  0
    8.2402  -12.3701   25.3193 C   0  0  0  0  0  0  0  0  0  0  0  0
    8.2058  -11.7023   26.5400 C   0  0  0  0  0  0  0  0  0  0  0  0
    7.2012  -11.9690   27.4289 C   0  0  0  0  0  0  0  0  0  0  0  0
    6.2186  -12.9031   27.1189 C   0  0  0  0  0  0  0  0  0  0  0  0
    6.2937  -13.5506   25.8779 C   0  0  0  0  0  0  0  0  0  0  0  0
    8.4804  -15.9933   24.5913 C   0  0  0  0  0  0  0  0  0  0  0  0
    7.4093  -16.6066   24.8254 O   0  0  0  0  0  0  0  0  0  0  0  0
   10.3658  -19.0398   24.6672 C   0  0  0  0  0  0  0  0  0  0  0  0
   10.7282  -18.3316   25.9614 C   0  0  1  0  0  0  0  0  0  0  0  0
   11.9076  -17.6308   25.7382 O   0  0  0  0  0  0  0  0  0  0  0  0
    9.6667  -17.3252   26.3697 C   0  0  2  0  0  0  0  0  0  0  0  0
    9.6302  -16.3110   25.3407 N   0  0  0  0  0  0  0  0  0  0  0  0
   10.0424  -16.8065   27.7090 C   0  0  0  0  0  0  0  0  0  0  0  0
   10.3744  -15.6103   27.8601 O   0  0  0  0  0  0  0  0  0  0  0  0
   10.0295  -17.6391   28.8131 O   0  0  0  0  0  0  0  0  0  0  0  0
  2  1  1  6
  3  2  1  0
  4  3  1  0
  4  8  1  0
  5  6  1  0
  5  4  2  0
  6  7  1  0
  7  8  2  0
  9  2  1  0
 10  9  2  0
 11  9  1  0
 12 11  1  0
 12 13  1  1
 14 13  1  0
 15 14  2  0
 16 15  1  0
 17 18  1  0
 17 16  2  0
 18 19  2  0
 19 14  1  0
 20 12  1  0
 21 20  2  0
 23 22  1  6
 23 25  1  0
 24 23  1  0
 25 26  1  6
 26 20  1  0
 27 25  1  0
 27 29  1  0
 28 27  2  0
M  END
$$$$
