HFT.pdb
     RDKit          3D

 29 30  0  0  1  0  0  0  0  0999 V2000
    8.7166  -16.7768   19.7959 N   0  0  0  0  0  0  0  0  0  0  0  0
    9.6274  -17.3281   20.7553 C   0  0  1  0  0  0  0  0  0  0  0  0
   10.9094  -17.8414   20.2030 C   0  0  0  0  0  0  0  0  0  0  0  0
   10.6868  -18.2361   18.7684 C   0  0  0  0  0  0  0  0  0  0  0  0
    9.6352  -18.9482   18.2365 C   0  0  0  0  0  0  0  0  0  0  0  0
    9.8011  -19.0802   16.8923 N   0  0  0  0  0  0  0  0  0  0  0  0
   10.9350  -18.4583   16.6138 C   0  0  0  0  0  0  0  0  0  0  0  0
   11.5109  -17.9271   17.7273 N   0  0  0  0  0  0  0  0  0  0  0  0
    9.7921  -16.4511   21.9479 C   0  0  0  0  0  0  0  0  0  0  0  0
   10.9010  -16.3333   22.4980 O   0  0  0  0  0  0  0  0  0  0  0  0
    8.6870  -15.7602   22.4527 N   0  0  0  0  0  0  0  0  0  0  0  0
    8.5929  -15.1220   23.7476 C   0  0  1  0  0  0  0  0  0  0  0  0
    7.4683  -14.1678   23.8012 C   0  0  0  0  0  0  0  0  0  0  0  0
    7.3039  -13.4290   25.0379 C   0  0  0  0  0  0  0  0  0  0  0  0
    8.2898  -12.6124   25.5294 C   0  0  0  0  0  0  0  0  0  0  0  0
    8.1400  -11.9074   26.7202 C   0  0  0  0  0  0  0  0  0  0  0  0
    6.9779  -12.0215   27.4323 C   0  0  0  0  0  0  0  0  0  0  0  0
    5.9500  -12.8381   26.9732 C   0  0  0  0  0  0  0  0  0  0  0  0
    6.1456  -13.5286   25.7691 C   0  0  0  0  0  0  0  0  0  0  0  0
    8.5082  -16.1485   24.8381 C   0  0  0  0  0  0  0  0  0  0  0  0
    7.4043  -16.7277   24.9933 O   0  0  0  0  0  0  0  0  0  0  0  0
    9.7115  -19.3621   25.1731 C   0  0  0  0  0  0  0  0  0  0  0  0
   10.3065  -18.6492   26.3754 C   0  0  1  0  0  0  0  0  0  0  0  0
   11.5728  -18.2048   26.0133 O   0  0  0  0  0  0  0  0  0  0  0  0
    9.4888  -17.4321   26.7707 C   0  0  2  0  0  0  0  0  0  0  0  0
    9.5850  -16.4880   25.6806 N   0  0  0  0  0  0  0  0  0  0  0  0
   10.0421  -16.9259   28.0520 C   0  0  0  0  0  0  0  0  0  0  0  0
   10.5892  -15.8030   28.1118 O   0  0  0  0  0  0  0  0  0  0  0  0
    9.9597  -17.6892   29.2023 O   0  0  0  0  0  0  0  0  0  0  0  0
  2  1  1  6
  3  2  1  0
  4  3  1  0
  4  8  1  0
  5  6  1  0
  5  4  2  0
  6  7  1  0
  7  8  2  0
  9  2  1  0
 10  9  2  0
 11  9  1  0
 12 11  1  0
 12 13  1  6
 14 13  1  0
 15 14  2  0
 16 15  1  0
 17 18  1  0
 17 16  2  0
 18 19  2  0
 19 14  1  0
 20 12  1  0
 21 20  2  0
 23 22  1  6
 23 25  1  0
 24 23  1  0
 25 26  1  6
 26 20  1  0
 27 25  1  0
 27 29  1  0
 28 27  2  0
M  END
$$$$
