HFT.pdb
     RDKit          3D

 29 30  0  0  1  0  0  0  0  0999 V2000
   10.3737  -14.2895   21.0345 N   0  0  0  0  0  0  0  0  0  0  0  0
    9.0818  -14.6287   21.5537 C   0  0  1  0  0  0  0  0  0  0  0  0
    8.2174  -15.4339   20.6501 C   0  0  0  0  0  0  0  0  0  0  0  0
    8.0482  -14.6830   19.3575 C   0  0  0  0  0  0  0  0  0  0  0  0
    8.5925  -13.4689   19.0028 C   0  0  0  0  0  0  0  0  0  0  0  0
    8.2080  -13.1433   17.7386 N   0  0  0  0  0  0  0  0  0  0  0  0
    7.4430  -14.1438   17.3336 C   0  0  0  0  0  0  0  0  0  0  0  0
    7.3172  -15.1068   18.2878 N   0  0  0  0  0  0  0  0  0  0  0  0
    9.1516  -15.1519   22.9467 C   0  0  0  0  0  0  0  0  0  0  0  0
   10.2384  -15.5078   23.4348 O   0  0  0  0  0  0  0  0  0  0  0  0
    7.9822  -15.2463   23.7063 N   0  0  0  0  0  0  0  0  0  0  0  0
    7.9002  -15.5307   25.1224 C   0  0  1  0  0  0  0  0  0  0  0  0
    6.6853  -14.9464   25.7231 C   0  0  0  0  0  0  0  0  0  0  0  0
    6.7483  -13.5413   26.0753 C   0  0  0  0  0  0  0  0  0  0  0  0
    7.9182  -12.9467   26.4730 C   0  0  0  0  0  0  0  0  0  0  0  0
    7.9822  -11.6002   26.8198 C   0  0  0  0  0  0  0  0  0  0  0  0
    6.8512  -10.8332   26.7655 C   0  0  0  0  0  0  0  0  0  0  0  0
    5.6416  -11.3926   26.3680 C   0  0  0  0  0  0  0  0  0  0  0  0
    5.6251  -12.7523   26.0278 C   0  0  0  0  0  0  0  0  0  0  0  0
    7.9932  -17.0069   25.3716 C   0  0  0  0  0  0  0  0  0  0  0  0
    6.9296  -17.6695   25.2830 O   0  0  0  0  0  0  0  0  0  0  0  0
    9.7913  -19.7431   23.6982 C   0  0  0  0  0  0  0  0  0  0  0  0
   10.2760  -19.7201   25.1378 C   0  0  1  0  0  0  0  0  0  0  0  0
   11.4343  -18.9526   25.1765 O   0  0  0  0  0  0  0  0  0  0  0  0
    9.2632  -19.0691   26.0633 C   0  0  2  0  0  0  0  0  0  0  0  0
    9.1915  -17.6736   25.6942 N   0  0  0  0  0  0  0  0  0  0  0  0
    9.7265  -19.2976   27.4551 C   0  0  0  0  0  0  0  0  0  0  0  0
   10.0696  -18.3375   28.1793 O   0  0  0  0  0  0  0  0  0  0  0  0
    9.7847  -20.5781   27.9742 O   0  0  0  0  0  0  0  0  0  0  0  0
  2  1  1  6
  3  2  1  0
  4  3  1  0
  4  8  1  0
  5  6  1  0
  5  4  2  0
  6  7  1  0
  7  8  2  0
  9  2  1  0
 10  9  2  0
 11  9  1  0
 12 11  1  0
 12 13  1  6
 14 13  1  0
 15 14  2  0
 16 15  1  0
 17 18  1  0
 17 16  2  0
 18 19  2  0
 19 14  1  0
 20 12  1  0
 21 20  2  0
 23 22  1  6
 23 25  1  0
 24 23  1  0
 25 26  1  6
 26 20  1  0
 27 25  1  0
 27 29  1  0
 28 27  2  0
M  END
$$$$
