HFT.pdb
     RDKit          3D

 29 30  0  0  1  0  0  0  0  0999 V2000
    8.4163  -15.5101   20.6806 N   0  0  0  0  0  0  0  0  0  0  0  0
    8.8895  -16.6374   21.4283 C   0  0  1  0  0  0  0  0  0  0  0  0
   10.0374  -17.3694   20.8296 C   0  0  0  0  0  0  0  0  0  0  0  0
    9.7028  -17.6935   19.3991 C   0  0  0  0  0  0  0  0  0  0  0  0
    8.8199  -18.6383   18.9262 C   0  0  0  0  0  0  0  0  0  0  0  0
    8.7943  -18.6052   17.5660 N   0  0  0  0  0  0  0  0  0  0  0  0
    9.6479  -17.6556   17.2200 C   0  0  0  0  0  0  0  0  0  0  0  0
   10.2262  -17.0710   18.3050 N   0  0  0  0  0  0  0  0  0  0  0  0
    9.0608  -16.3252   22.8747 C   0  0  0  0  0  0  0  0  0  0  0  0
   10.1907  -16.1038   23.3443 O   0  0  0  0  0  0  0  0  0  0  0  0
    7.9399  -16.2865   23.7084 N   0  0  0  0  0  0  0  0  0  0  0  0
    7.9415  -16.0628   25.1378 C   0  0  1  0  0  0  0  0  0  0  0  0
    6.6770  -15.4523   25.5923 C   0  0  0  0  0  0  0  0  0  0  0  0
    6.7206  -14.0408   25.9211 C   0  0  0  0  0  0  0  0  0  0  0  0
    5.5843  -13.3302   26.2118 C   0  0  0  0  0  0  0  0  0  0  0  0
    5.6199  -11.9734   26.5202 C   0  0  0  0  0  0  0  0  0  0  0  0
    6.8187  -11.3152   26.5394 C   0  0  0  0  0  0  0  0  0  0  0  0
    7.9976  -11.9944   26.2511 C   0  0  0  0  0  0  0  0  0  0  0  0
    7.9131  -13.3600   25.9464 C   0  0  0  0  0  0  0  0  0  0  0  0
    8.2441  -17.3354   25.8718 C   0  0  0  0  0  0  0  0  0  0  0  0
    7.3066  -18.1632   25.9909 O   0  0  0  0  0  0  0  0  0  0  0  0
   12.1812  -18.6752   26.4101 C   0  0  0  0  0  0  0  0  0  0  0  0
   10.9360  -19.5445   26.4502 C   0  0  1  0  0  0  0  0  0  0  0  0
   11.2487  -20.6893   27.1739 O   0  0  0  0  0  0  0  0  0  0  0  0
    9.7873  -18.8514   27.1619 C   0  0  2  0  0  0  0  0  0  0  0  0
    9.5034  -17.6416   26.4239 N   0  0  0  0  0  0  0  0  0  0  0  0
   10.2163  -18.6119   28.5628 C   0  0  0  0  0  0  0  0  0  0  0  0
   10.3892  -17.4484   28.9873 O   0  0  0  0  0  0  0  0  0  0  0  0
   10.4303  -19.6737   29.4226 O   0  0  0  0  0  0  0  0  0  0  0  0
  2  1  1  6
  3  2  1  0
  4  3  1  0
  4  8  1  0
  5  6  1  0
  5  4  2  0
  6  7  1  0
  7  8  2  0
  9  2  1  0
 10  9  2  0
 11  9  1  0
 12 11  1  0
 12 13  1  1
 14 13  1  0
 15 14  2  0
 16 15  1  0
 17 18  1  0
 17 16  2  0
 18 19  2  0
 19 14  1  0
 20 12  1  0
 21 20  2  0
 23 22  1  1
 23 25  1  0
 24 23  1  0
 25 26  1  6
 26 20  1  0
 27 25  1  0
 27 29  1  0
 28 27  2  0
M  END
$$$$
