HFT.pdb
     RDKit          3D

 29 30  0  0  1  0  0  0  0  0999 V2000
    7.7172  -13.5499   21.4790 N   0  0  0  0  0  0  0  0  0  0  0  0
    7.8538  -14.9658   21.6530 C   0  0  1  0  0  0  0  0  0  0  0  0
    8.5534  -15.6836   20.5542 C   0  0  0  0  0  0  0  0  0  0  0  0
    8.3334  -14.9258   19.2733 C   0  0  0  0  0  0  0  0  0  0  0  0
    7.1540  -14.4132   18.7813 C   0  0  0  0  0  0  0  0  0  0  0  0
    7.3841  -13.7818   17.5979 N   0  0  0  0  0  0  0  0  0  0  0  0
    8.6820  -13.9096   17.3762 C   0  0  0  0  0  0  0  0  0  0  0  0
    9.3029  -14.6001   18.3719 N   0  0  0  0  0  0  0  0  0  0  0  0
    8.3411  -15.3240   23.0142 C   0  0  0  0  0  0  0  0  0  0  0  0
    9.5460  -15.2181   23.3028 O   0  0  0  0  0  0  0  0  0  0  0  0
    7.4336  -15.7872   23.9709 N   0  0  0  0  0  0  0  0  0  0  0  0
    7.6870  -15.9483   25.3861 C   0  0  1  0  0  0  0  0  0  0  0  0
    6.6723  -15.2523   26.2011 C   0  0  0  0  0  0  0  0  0  0  0  0
    6.8352  -13.8196   26.3534 C   0  0  0  0  0  0  0  0  0  0  0  0
    8.0690  -13.2456   26.5234 C   0  0  0  0  0  0  0  0  0  0  0  0
    8.2299  -11.8718   26.6781 C   0  0  0  0  0  0  0  0  0  0  0  0
    7.1323  -11.0559   26.6606 C   0  0  0  0  0  0  0  0  0  0  0  0
    5.8607  -11.5928   26.4911 C   0  0  0  0  0  0  0  0  0  0  0  0
    5.7472  -12.9816   26.3388 C   0  0  0  0  0  0  0  0  0  0  0  0
    7.7905  -17.4016   25.7427 C   0  0  0  0  0  0  0  0  0  0  0  0
    6.7144  -18.0390   25.8610 O   0  0  0  0  0  0  0  0  0  0  0  0
    9.4007  -20.3395   24.1338 C   0  0  0  0  0  0  0  0  0  0  0  0
   10.0227  -20.1854   25.5112 C   0  0  1  0  0  0  0  0  0  0  0  0
   11.1902  -19.4459   25.3622 O   0  0  0  0  0  0  0  0  0  0  0  0
    9.1137  -19.4219   26.4581 C   0  0  2  0  0  0  0  0  0  0  0  0
    9.0115  -18.0735   25.9481 N   0  0  0  0  0  0  0  0  0  0  0  0
    9.7163  -19.5061   27.8123 C   0  0  0  0  0  0  0  0  0  0  0  0
    9.7356  -20.5898   28.4361 O   0  0  0  0  0  0  0  0  0  0  0  0
   10.2682  -18.3855   28.4057 O   0  0  0  0  0  0  0  0  0  0  0  0
  2  1  1  6
  3  2  1  0
  4  3  1  0
  4  8  1  0
  5  6  1  0
  5  4  2  0
  6  7  1  0
  7  8  2  0
  9  2  1  0
 10  9  2  0
 11  9  1  0
 12 11  1  0
 12 13  1  1
 14 13  1  0
 15 14  2  0
 16 15  1  0
 17 18  1  0
 17 16  2  0
 18 19  2  0
 19 14  1  0
 20 12  1  0
 21 20  2  0
 23 22  1  6
 23 25  1  0
 24 23  1  0
 25 26  1  6
 26 20  1  0
 27 25  1  0
 27 29  1  0
 28 27  2  0
M  END
$$$$
