HFT.pdb
     RDKit          3D

 29 30  0  0  1  0  0  0  0  0999 V2000
    7.9255  -17.0713   20.0334 N   0  0  0  0  0  0  0  0  0  0  0  0
    9.2769  -16.6355   20.2275 C   0  0  1  0  0  0  0  0  0  0  0  0
    9.8982  -15.9347   19.0722 C   0  0  0  0  0  0  0  0  0  0  0  0
    9.0513  -14.7403   18.7271 C   0  0  0  0  0  0  0  0  0  0  0  0
    8.1236  -14.6200   17.7166 C   0  0  0  0  0  0  0  0  0  0  0  0
    7.5618  -13.3810   17.7520 N   0  0  0  0  0  0  0  0  0  0  0  0
    8.1395  -12.7603   18.7674 C   0  0  0  0  0  0  0  0  0  0  0  0
    9.0550  -13.5505   19.3926 N   0  0  0  0  0  0  0  0  0  0  0  0
    9.4643  -15.9364   21.5294 C   0  0  0  0  0  0  0  0  0  0  0  0
   10.5993  -15.5975   21.9076 O   0  0  0  0  0  0  0  0  0  0  0  0
    8.3526  -15.6652   22.3318 N   0  0  0  0  0  0  0  0  0  0  0  0
    8.3702  -15.0574   23.6445 C   0  0  1  0  0  0  0  0  0  0  0  0
    7.2043  -14.1760   23.8494 C   0  0  0  0  0  0  0  0  0  0  0  0
    7.1268  -13.4901   25.1245 C   0  0  0  0  0  0  0  0  0  0  0  0
    6.2131  -13.8460   26.0832 C   0  0  0  0  0  0  0  0  0  0  0  0
    6.1293  -13.1856   27.3055 C   0  0  0  0  0  0  0  0  0  0  0  0
    6.9795  -12.1484   27.5737 C   0  0  0  0  0  0  0  0  0  0  0  0
    7.9227  -11.7518   26.6318 C   0  0  0  0  0  0  0  0  0  0  0  0
    7.9706  -12.4462   25.4151 C   0  0  0  0  0  0  0  0  0  0  0  0
    8.4730  -16.1065   24.7117 C   0  0  0  0  0  0  0  0  0  0  0  0
    7.4589  -16.8208   24.9105 O   0  0  0  0  0  0  0  0  0  0  0  0
   12.1866  -17.6469   25.6691 C   0  0  0  0  0  0  0  0  0  0  0  0
   10.8457  -18.3483   25.8032 C   0  0  1  0  0  0  0  0  0  0  0  0
   11.0183  -19.4164   26.6759 O   0  0  0  0  0  0  0  0  0  0  0  0
    9.7889  -17.4351   26.3991 C   0  0  2  0  0  0  0  0  0  0  0  0
    9.6285  -16.3254   25.4872 N   0  0  0  0  0  0  0  0  0  0  0  0
   10.2599  -17.0373   27.7497 C   0  0  0  0  0  0  0  0  0  0  0  0
   10.4185  -17.8928   28.6479 O   0  0  0  0  0  0  0  0  0  0  0  0
   10.5329  -15.7121   28.0357 O   0  0  0  0  0  0  0  0  0  0  0  0
  2  1  1  6
  3  2  1  0
  4  3  1  0
  4  8  1  0
  5  6  1  0
  5  4  2  0
  6  7  1  0
  7  8  2  0
  9  2  1  0
 10  9  2  0
 11  9  1  0
 12 11  1  0
 12 13  1  1
 14 13  1  0
 15 14  2  0
 16 15  1  0
 17 18  1  0
 17 16  2  0
 18 19  2  0
 19 14  1  0
 20 12  1  0
 21 20  2  0
 23 22  1  1
 23 25  1  0
 24 23  1  0
 25 26  1  6
 26 20  1  0
 27 25  1  0
 27 29  1  0
 28 27  2  0
M  END
$$$$
