TYH.pdb
     RDKit          3D

 30 31  0  0  1  0  0  0  0  0999 V2000
   22.7119  -12.7080  -16.3362 C   0  0  0  0  0  0  0  0  0  0  0  0
   21.7348  -13.8246  -16.5425 C   0  0  1  0  0  0  0  0  0  0  0  0
   22.2463  -15.0243  -16.0499 O   0  0  0  0  0  0  0  0  0  0  0  0
   20.3925  -13.5524  -15.9107 C   0  0  2  0  0  0  0  0  0  0  0  0
   19.5854  -14.7486  -15.9821 N   0  0  0  0  0  0  0  0  0  0  0  0
   19.7212  -12.3711  -16.4576 C   0  0  0  0  0  0  0  0  0  0  0  0
   19.5184  -12.3374  -17.7021 O   0  0  0  0  0  0  0  0  0  0  0  0
   14.7557   -5.3403  -17.8412 O   0  0  0  0  0  0  0  0  0  0  0  0
   15.3755   -6.4824  -17.3548 C   0  0  0  0  0  0  0  0  0  0  0  0
   15.7099   -7.5440  -18.1798 C   0  0  0  0  0  0  0  0  0  0  0  0
   16.3269   -8.6585  -17.6405 C   0  0  0  0  0  0  0  0  0  0  0  0
   16.6224   -8.7488  -16.2999 C   0  0  0  0  0  0  0  0  0  0  0  0
   17.2826   -9.9591  -15.7649 C   0  0  0  0  0  0  0  0  0  0  0  0
   18.7309  -10.0520  -16.2625 C   0  0  2  0  0  0  0  0  0  0  0  0
   19.2765  -11.2576  -15.7156 N   0  0  0  0  0  0  0  0  0  0  0  0
   19.4063   -8.8292  -15.8990 C   0  0  0  0  0  0  0  0  0  0  0  0
   19.5512   -8.4906  -14.7090 O   0  0  0  0  0  0  0  0  0  0  0  0
   16.2897   -7.6970  -15.4900 C   0  0  0  0  0  0  0  0  0  0  0  0
   15.6700   -6.5742  -16.0236 C   0  0  0  0  0  0  0  0  0  0  0  0
   19.9216   -7.9847  -16.9060 N   0  0  0  0  0  0  0  0  0  0  0  0
   20.5921   -6.7124  -16.5953 C   0  0  1  0  0  0  0  0  0  0  0  0
   19.6046   -5.6608  -16.2289 C   0  0  0  0  0  0  0  0  0  0  0  0
   20.2972   -4.3856  -15.9471 C   0  0  0  0  0  0  0  0  0  0  0  0
   21.5964   -4.0714  -16.3662 C   0  0  0  0  0  0  0  0  0  0  0  0
   21.8815   -2.8356  -15.9254 N   0  0  0  0  0  0  0  0  0  0  0  0
   20.8309   -2.3438  -15.2458 C   0  0  0  0  0  0  0  0  0  0  0  0
   19.8967   -3.2909  -15.2737 N   0  0  0  0  0  0  0  0  0  0  0  0
   21.6139   -6.8957  -15.5664 C   0  0  0  0  0  0  0  0  0  0  0  0
   21.5601   -7.8615  -14.7842 O   0  0  0  0  0  0  0  0  0  0  0  0
   22.6834   -5.9788  -15.4400 O   0  0  0  0  0  0  0  0  0  0  0  0
  2  3  1  0
  2  1  1  1
  4  2  1  0
  4  5  1  6
  6  4  1  0
  6  7  2  0
  9  8  1  0
 10  9  2  0
 11 10  1  0
 12 11  2  0
 12 18  1  0
 14 13  1  1
 13 12  1  0
 14 15  1  0
 15  6  1  0
 16 14  1  0
 17 16  2  0
 18 19  2  0
 19  9  1  0
 20 16  1  0
 21 22  1  1
 21 20  1  0
 23 22  1  0
 24 23  2  0
 25 24  1  0
 26 25  1  0
 26 27  2  0
 27 23  1  0
 28 30  1  0
 28 21  1  0
 29 28  2  0
M  END
$$$$
