TYH.pdb
     RDKit          3D

 30 31  0  0  1  0  0  0  0  0999 V2000
   24.4431  -23.2451  -22.0029 C   0  0  0  0  0  0  0  0  0  0  0  0
   23.9844  -24.2194  -20.9615 C   0  0  1  0  0  0  0  0  0  0  0  0
   24.9970  -25.1277  -20.6564 O   0  0  0  0  0  0  0  0  0  0  0  0
   23.5140  -23.5462  -19.6963 C   0  0  2  0  0  0  0  0  0  0  0  0
   24.5854  -22.7347  -19.1665 N   0  0  0  0  0  0  0  0  0  0  0  0
   22.9578  -24.4791  -18.7136 C   0  0  0  0  0  0  0  0  0  0  0  0
   23.1790  -24.2444  -17.4941 O   0  0  0  0  0  0  0  0  0  0  0  0
   16.9958  -29.6143  -14.8914 O   0  0  0  0  0  0  0  0  0  0  0  0
   17.7777  -28.9286  -15.8098 C   0  0  0  0  0  0  0  0  0  0  0  0
   17.8774  -27.5468  -15.8022 C   0  0  0  0  0  0  0  0  0  0  0  0
   18.6721  -26.9155  -16.7420 C   0  0  0  0  0  0  0  0  0  0  0  0
   19.3733  -27.6203  -17.6929 C   0  0  0  0  0  0  0  0  0  0  0  0
   20.2113  -26.9052  -18.6796 C   0  0  0  0  0  0  0  0  0  0  0  0
   21.5362  -26.4615  -18.0459 C   0  0  2  0  0  0  0  0  0  0  0  0
   22.1912  -25.6256  -19.0065 N   0  0  0  0  0  0  0  0  0  0  0  0
   22.2557  -27.6460  -17.6420 C   0  0  0  0  0  0  0  0  0  0  0  0
   21.7772  -28.4555  -16.8251 O   0  0  0  0  0  0  0  0  0  0  0  0
   19.2708  -28.9851  -17.6955 C   0  0  0  0  0  0  0  0  0  0  0  0
   18.4749  -29.6267  -16.7551 C   0  0  0  0  0  0  0  0  0  0  0  0
   23.5354  -27.9077  -18.1775 N   0  0  0  0  0  0  0  0  0  0  0  0
   24.2655  -29.1526  -17.8911 C   0  0  1  0  0  0  0  0  0  0  0  0
   24.9258  -29.0932  -16.5585 C   0  0  0  0  0  0  0  0  0  0  0  0
   25.6938  -30.3322  -16.3132 C   0  0  0  0  0  0  0  0  0  0  0  0
   25.7948  -31.4019  -17.2121 C   0  0  0  0  0  0  0  0  0  0  0  0
   26.5690  -32.3413  -16.6459 N   0  0  0  0  0  0  0  0  0  0  0  0
   26.9682  -31.9268  -15.4307 C   0  0  0  0  0  0  0  0  0  0  0  0
   26.4308  -30.7222  -15.2563 N   0  0  0  0  0  0  0  0  0  0  0  0
   23.3911  -30.3161  -18.0249 C   0  0  0  0  0  0  0  0  0  0  0  0
   22.3650  -30.4216  -17.3296 O   0  0  0  0  0  0  0  0  0  0  0  0
   23.6945  -31.3446  -18.9474 O   0  0  0  0  0  0  0  0  0  0  0  0
  2  3  1  0
  2  1  1  6
  4  2  1  0
  4  5  1  1
  6  4  1  0
  6  7  2  0
  9  8  1  0
 10  9  2  0
 11 10  1  0
 12 11  2  0
 12 18  1  0
 14 13  1  6
 13 12  1  0
 14 15  1  0
 15  6  1  0
 16 14  1  0
 17 16  2  0
 18 19  2  0
 19  9  1  0
 20 16  1  0
 21 22  1  1
 21 20  1  0
 23 22  1  0
 24 23  2  0
 25 24  1  0
 26 25  1  0
 26 27  2  0
 27 23  1  0
 28 30  1  0
 28 21  1  0
 29 28  2  0
M  END
$$$$
