TYH.pdb
     RDKit          3D

 30 31  0  0  1  0  0  0  0  0999 V2000
   20.8268  -35.6153   -4.9409 C   0  0  0  0  0  0  0  0  0  0  0  0
   20.0762  -36.6229   -5.7567 C   0  0  1  0  0  0  0  0  0  0  0  0
   19.3058  -37.4457   -4.9364 O   0  0  0  0  0  0  0  0  0  0  0  0
   19.1951  -35.9893   -6.8042 C   0  0  2  0  0  0  0  0  0  0  0  0
   18.4595  -37.0250   -7.4923 N   0  0  0  0  0  0  0  0  0  0  0  0
   19.9204  -35.0976   -7.7120 C   0  0  0  0  0  0  0  0  0  0  0  0
   20.6343  -35.6283   -8.6064 O   0  0  0  0  0  0  0  0  0  0  0  0
   22.8262  -27.8050  -11.7717 O   0  0  0  0  0  0  0  0  0  0  0  0
   22.1570  -28.6946  -10.9436 C   0  0  0  0  0  0  0  0  0  0  0  0
   22.6309  -29.0234   -9.6840 C   0  0  0  0  0  0  0  0  0  0  0  0
   21.9224  -29.9168   -8.9008 C   0  0  0  0  0  0  0  0  0  0  0  0
   20.7520  -30.4951   -9.3349 C   0  0  0  0  0  0  0  0  0  0  0  0
   20.0261  -31.4456   -8.4650 C   0  0  0  0  0  0  0  0  0  0  0  0
   20.7116  -32.8181   -8.4703 C   0  0  2  0  0  0  0  0  0  0  0  0
   19.8947  -33.6882   -7.6791 N   0  0  0  0  0  0  0  0  0  0  0  0
   22.0703  -32.6393   -8.0168 C   0  0  0  0  0  0  0  0  0  0  0  0
   22.3689  -32.6901   -6.8085 O   0  0  0  0  0  0  0  0  0  0  0  0
   20.2888  -30.1664  -10.5800 C   0  0  0  0  0  0  0  0  0  0  0  0
   20.9943  -29.2702  -11.3728 C   0  0  0  0  0  0  0  0  0  0  0  0
   23.0983  -32.4000   -8.9543 N   0  0  0  0  0  0  0  0  0  0  0  0
   24.5041  -32.7360   -8.6792 C   0  0  1  0  0  0  0  0  0  0  0  0
   24.6072  -33.8887   -7.7432 C   0  0  0  0  0  0  0  0  0  0  0  0
   26.0224  -34.1432   -7.4002 C   0  0  0  0  0  0  0  0  0  0  0  0
   27.0496  -34.3347   -8.3332 C   0  0  0  0  0  0  0  0  0  0  0  0
   28.1889  -34.5377   -7.6525 N   0  0  0  0  0  0  0  0  0  0  0  0
   27.9425  -34.4857   -6.3318 C   0  0  0  0  0  0  0  0  0  0  0  0
   26.6391  -34.2485   -6.2082 N   0  0  0  0  0  0  0  0  0  0  0  0
   25.2419  -32.9623   -9.9204 C   0  0  0  0  0  0  0  0  0  0  0  0
   24.6724  -32.8693  -11.0225 O   0  0  0  0  0  0  0  0  0  0  0  0
   26.6172  -33.2914   -9.8928 O   0  0  0  0  0  0  0  0  0  0  0  0
  2  3  1  0
  2  1  1  1
  4  2  1  0
  4  5  1  6
  6  4  1  0
  6  7  2  0
  9  8  1  0
 10  9  2  0
 11 10  1  0
 12 11  2  0
 12 18  1  0
 14 13  1  1
 13 12  1  0
 14 15  1  0
 15  6  1  0
 16 14  1  0
 17 16  2  0
 18 19  2  0
 19  9  1  0
 20 16  1  0
 21 22  1  1
 21 20  1  0
 23 22  1  0
 24 23  2  0
 25 24  1  0
 26 25  1  0
 26 27  2  0
 27 23  1  0
 28 30  1  0
 28 21  1  0
 29 28  2  0
M  END
$$$$
