TYH.pdb
     RDKit          3D

 30 31  0  0  1  0  0  0  0  0999 V2000
   19.9544   -9.2112  -24.3476 C   0  0  0  0  0  0  0  0  0  0  0  0
   20.8163   -8.6145  -23.2775 C   0  0  1  0  0  0  0  0  0  0  0  0
   20.0332   -8.0674  -22.2621 O   0  0  0  0  0  0  0  0  0  0  0  0
   21.7866   -9.6062  -22.6860 C   0  0  2  0  0  0  0  0  0  0  0  0
   21.0455  -10.6836  -22.0717 N   0  0  0  0  0  0  0  0  0  0  0  0
   22.7667   -8.9946  -21.7856 C   0  0  0  0  0  0  0  0  0  0  0  0
   22.6346   -9.2034  -20.5486 O   0  0  0  0  0  0  0  0  0  0  0  0
   30.2631   -5.9683  -18.4315 O   0  0  0  0  0  0  0  0  0  0  0  0
   29.2721   -6.4647  -19.2661 C   0  0  0  0  0  0  0  0  0  0  0  0
   29.0607   -5.9567  -20.5376 C   0  0  0  0  0  0  0  0  0  0  0  0
   28.0577   -6.4902  -21.3268 C   0  0  0  0  0  0  0  0  0  0  0  0
   27.2557   -7.5180  -20.8874 C   0  0  0  0  0  0  0  0  0  0  0  0
   26.1946   -8.0588  -21.7640 C   0  0  0  0  0  0  0  0  0  0  0  0
   24.8115   -7.5892  -21.2949 C   0  0  2  0  0  0  0  0  0  0  0  0
   23.8541   -8.1865  -22.1764 N   0  0  0  0  0  0  0  0  0  0  0  0
   24.8209   -6.1463  -21.2542 C   0  0  0  0  0  0  0  0  0  0  0  0
   24.8501   -5.4626  -22.2950 O   0  0  0  0  0  0  0  0  0  0  0  0
   27.4693   -8.0158  -19.6306 C   0  0  0  0  0  0  0  0  0  0  0  0
   28.4744   -7.4856  -18.8317 C   0  0  0  0  0  0  0  0  0  0  0  0
   24.7967   -5.4782  -20.0109 N   0  0  0  0  0  0  0  0  0  0  0  0
   24.8288   -4.0107  -19.9086 C   0  0  1  0  0  0  0  0  0  0  0  0
   23.7363   -3.5099  -19.0305 C   0  0  0  0  0  0  0  0  0  0  0  0
   22.4460   -3.5433  -19.7511 C   0  0  0  0  0  0  0  0  0  0  0  0
   22.2769   -3.9880  -21.0686 C   0  0  0  0  0  0  0  0  0  0  0  0
   20.9755   -3.8706  -21.3770 N   0  0  0  0  0  0  0  0  0  0  0  0
   20.3038   -3.3735  -20.3237 C   0  0  0  0  0  0  0  0  0  0  0  0
   21.2068   -3.1866  -19.3645 N   0  0  0  0  0  0  0  0  0  0  0  0
   26.1448   -3.5437  -19.4769 C   0  0  0  0  0  0  0  0  0  0  0  0
   27.0431   -4.3552  -19.1906 O   0  0  0  0  0  0  0  0  0  0  0  0
   26.4225   -2.1605  -19.3763 O   0  0  0  0  0  0  0  0  0  0  0  0
  2  3  1  0
  2  1  1  6
  4  2  1  0
  4  5  1  1
  6  4  1  0
  6  7  2  0
  9  8  1  0
 10  9  2  0
 11 10  1  0
 12 11  2  0
 12 18  1  0
 14 13  1  6
 13 12  1  0
 14 15  1  0
 15  6  1  0
 16 14  1  0
 17 16  2  0
 18 19  2  0
 19  9  1  0
 20 16  1  0
 21 22  1  1
 21 20  1  0
 23 22  1  0
 24 23  2  0
 25 24  1  0
 26 25  1  0
 26 27  2  0
 27 23  1  0
 28 30  1  0
 28 21  1  0
 29 28  2  0
M  END
$$$$
