TYH.pdb
     RDKit          3D

 30 31  0  0  1  0  0  0  0  0999 V2000
   28.5089  -17.4967  -15.0300 C   0  0  0  0  0  0  0  0  0  0  0  0
   27.4074  -18.4390  -14.6521 C   0  0  1  0  0  0  0  0  0  0  0  0
   26.6910  -18.8372  -15.7799 O   0  0  0  0  0  0  0  0  0  0  0  0
   27.9058  -19.6576  -13.9162 C   0  0  2  0  0  0  0  0  0  0  0  0
   28.7828  -20.4083  -14.7849 N   0  0  0  0  0  0  0  0  0  0  0  0
   26.8310  -20.4698  -13.3414 C   0  0  0  0  0  0  0  0  0  0  0  0
   26.5525  -21.5598  -13.9121 O   0  0  0  0  0  0  0  0  0  0  0  0
   29.5084  -20.7034   -7.2470 O   0  0  0  0  0  0  0  0  0  0  0  0
   28.3449  -20.6465   -8.0007 C   0  0  0  0  0  0  0  0  0  0  0  0
   28.1903  -21.3757   -9.1685 C   0  0  0  0  0  0  0  0  0  0  0  0
   27.0080  -21.2805   -9.8803 C   0  0  0  0  0  0  0  0  0  0  0  0
   25.9709  -20.4785   -9.4635 C   0  0  0  0  0  0  0  0  0  0  0  0
   24.7238  -20.4059  -10.2550 C   0  0  0  0  0  0  0  0  0  0  0  0
   24.9628  -20.8934  -11.6900 C   0  0  2  0  0  0  0  0  0  0  0  0
   26.0714  -20.1437  -12.1991 N   0  0  0  0  0  0  0  0  0  0  0  0
   23.7227  -20.7630  -12.4172 C   0  0  0  0  0  0  0  0  0  0  0  0
   23.4170  -19.7084  -13.0055 O   0  0  0  0  0  0  0  0  0  0  0  0
   26.1294  -19.7605   -8.3092 C   0  0  0  0  0  0  0  0  0  0  0  0
   27.3135  -19.8505   -7.5886 C   0  0  0  0  0  0  0  0  0  0  0  0
   22.8228  -21.8492  -12.4726 N   0  0  0  0  0  0  0  0  0  0  0  0
   21.5838  -21.8014  -13.2647 C   0  0  1  0  0  0  0  0  0  0  0  0
   21.1902  -23.1601  -13.7279 C   0  0  0  0  0  0  0  0  0  0  0  0
   19.9645  -23.0840  -14.5509 C   0  0  0  0  0  0  0  0  0  0  0  0
   19.1835  -21.9332  -14.7181 C   0  0  0  0  0  0  0  0  0  0  0  0
   18.1593  -22.2470  -15.5276 N   0  0  0  0  0  0  0  0  0  0  0  0
   18.2458  -23.5398  -15.8865 C   0  0  0  0  0  0  0  0  0  0  0  0
   19.3344  -24.0172  -15.2887 N   0  0  0  0  0  0  0  0  0  0  0  0
   20.5133  -21.1366  -12.5243 C   0  0  0  0  0  0  0  0  0  0  0  0
   20.4639  -21.2044  -11.2831 O   0  0  0  0  0  0  0  0  0  0  0  0
   19.5129  -20.4035  -13.2043 O   0  0  0  0  0  0  0  0  0  0  0  0
  2  3  1  0
  2  1  1  6
  4  2  1  0
  4  5  1  6
  6  4  1  0
  6  7  2  0
  9  8  1  0
 10  9  2  0
 11 10  1  0
 12 11  2  0
 12 18  1  0
 14 13  1  1
 13 12  1  0
 14 15  1  0
 15  6  1  0
 16 14  1  0
 17 16  2  0
 18 19  2  0
 19  9  1  0
 20 16  1  0
 21 22  1  1
 21 20  1  0
 23 22  1  0
 24 23  2  0
 25 24  1  0
 26 25  1  0
 26 27  2  0
 27 23  1  0
 28 30  1  0
 28 21  1  0
 29 28  2  0
M  END
$$$$
