QIV.pdb
     RDKit          3D

 25 24  0  0  1  0  0  0  0  0999 V2000
   27.7134  -18.5261  -19.7729 N   0  0  0  0  0  0  0  0  0  0  0  0
   28.6744  -18.3723  -18.7152 C   0  0  0  0  0  0  0  0  0  0  0  0
   29.8366  -18.7220  -18.9742 O   0  0  0  0  0  0  0  0  0  0  0  0
   28.2039  -17.8322  -17.4567 C   0  0  0  0  0  0  0  0  0  0  0  0
   27.3027  -18.6873  -16.6239 C   0  0  0  0  0  0  0  0  0  0  0  0
   27.9726  -19.8465  -15.9931 C   0  0  2  0  0  0  0  0  0  0  0  0
   28.6065  -20.7517  -16.8760 N   0  0  0  0  0  0  0  0  0  0  0  0
   27.0883  -20.5259  -14.9749 C   0  0  0  0  0  0  0  0  0  0  0  0
   26.3758  -21.4962  -15.3038 O   0  0  0  0  0  0  0  0  0  0  0  0
   29.1511  -20.8789  -10.1000 C   0  0  0  0  0  0  0  0  0  0  0  0
   28.4696  -21.2204  -11.4476 C   0  0  0  0  0  0  0  0  0  0  0  0
   27.0670  -20.7807  -11.3209 C   0  0  2  0  0  0  0  0  0  0  0  0
   26.3279  -21.4193  -10.1629 C   0  0  0  0  0  0  0  0  0  0  0  0
   26.2717  -20.6754  -12.5626 C   0  0  2  0  0  0  0  0  0  0  0  0
   27.0549  -20.0724  -13.6362 N   0  0  0  0  0  0  0  0  0  0  0  0
   24.8829  -20.2225  -12.5159 C   0  0  0  0  0  0  0  0  0  0  0  0
   24.5702  -19.0562  -12.0508 O   0  0  0  0  0  0  0  0  0  0  0  0
   22.6655  -19.4136  -15.2194 C   0  0  0  0  0  0  0  0  0  0  0  0
   21.8029  -20.2741  -14.3155 C   0  0  1  0  0  0  0  0  0  0  0  0
   21.7175  -21.6409  -14.9600 C   0  0  0  0  0  0  0  0  0  0  0  0
   22.3934  -20.4206  -12.9439 C   0  0  2  0  0  0  0  0  0  0  0  0
   23.7403  -20.9289  -12.9447 N   0  0  0  0  0  0  0  0  0  0  0  0
   21.5334  -21.2589  -12.0700 C   0  0  0  0  0  0  0  0  0  0  0  0
   21.8455  -22.4323  -11.7382 O   0  0  0  0  0  0  0  0  0  0  0  0
   20.3129  -20.8002  -11.5537 O   0  0  0  0  0  0  0  0  0  0  0  0
  2  1  1  0
  3  2  2  0
  4  2  1  0
  5  4  1  0
  6  7  1  6
  6  5  1  0
  8  6  1  0
  9  8  2  0
 11 12  1  0
 11 10  1  0
 12 14  1  0
 12 13  1  1
 14 15  1  6
 15  8  1  0
 16 17  2  0
 16 14  1  0
 19 21  1  0
 19 18  1  6
 20 19  1  0
 21 22  1  6
 22 16  1  0
 23 21  1  0
 24 23  2  0
 25 23  1  0
M  END
$$$$
