QIV.pdb
     RDKit          3D

 25 24  0  0  1  0  0  0  0  0999 V2000
   27.5223  -16.5012  -15.0220 N   0  0  0  0  0  0  0  0  0  0  0  0
   28.2224  -16.8564  -16.2261 C   0  0  0  0  0  0  0  0  0  0  0  0
   29.0898  -16.0575  -16.6127 O   0  0  0  0  0  0  0  0  0  0  0  0
   27.8542  -18.0986  -16.8728 C   0  0  0  0  0  0  0  0  0  0  0  0
   26.8696  -18.9828  -16.1759 C   0  0  0  0  0  0  0  0  0  0  0  0
   27.4223  -19.7155  -15.0149 C   0  0  2  0  0  0  0  0  0  0  0  0
   28.5726  -20.4990  -15.2670 N   0  0  0  0  0  0  0  0  0  0  0  0
   26.3508  -20.4565  -14.2512 C   0  0  0  0  0  0  0  0  0  0  0  0
   25.7306  -21.3983  -14.7855 O   0  0  0  0  0  0  0  0  0  0  0  0
   26.5855  -20.6590   -8.7264 C   0  0  0  0  0  0  0  0  0  0  0  0
   26.4855  -21.0600  -10.2186 C   0  0  0  0  0  0  0  0  0  0  0  0
   25.1903  -20.5400  -10.6970 C   0  0  2  0  0  0  0  0  0  0  0  0
   24.0154  -20.9249   -9.8214 C   0  0  0  0  0  0  0  0  0  0  0  0
   24.9173  -20.6230  -12.1475 C   0  0  2  0  0  0  0  0  0  0  0  0
   26.0353  -20.0936  -12.9216 N   0  0  0  0  0  0  0  0  0  0  0  0
   23.6047  -20.2568  -12.6758 C   0  0  0  0  0  0  0  0  0  0  0  0
   23.2548  -19.0183  -12.8110 O   0  0  0  0  0  0  0  0  0  0  0  0
   19.6521  -20.8228  -15.5005 C   0  0  0  0  0  0  0  0  0  0  0  0
   20.9928  -21.2980  -14.9725 C   0  0  1  0  0  0  0  0  0  0  0  0
   22.0441  -20.8259  -15.9536 C   0  0  0  0  0  0  0  0  0  0  0  0
   21.3008  -20.7276  -13.6194 C   0  0  2  0  0  0  0  0  0  0  0  0
   22.5815  -21.1298  -13.0994 N   0  0  0  0  0  0  0  0  0  0  0  0
   20.2308  -21.0468  -12.6400 C   0  0  0  0  0  0  0  0  0  0  0  0
   20.1784  -22.1460  -12.0290 O   0  0  0  0  0  0  0  0  0  0  0  0
   19.2036  -20.1443  -12.3282 O   0  0  0  0  0  0  0  0  0  0  0  0
  2  1  1  0
  3  2  2  0
  4  2  1  0
  5  4  1  0
  6  7  1  6
  6  5  1  0
  8  6  1  0
  9  8  2  0
 11 12  1  0
 11 10  1  0
 12 14  1  0
 12 13  1  1
 14 15  1  6
 15  8  1  0
 16 17  2  0
 16 14  1  0
 19 21  1  0
 19 18  1  6
 20 19  1  0
 21 22  1  1
 22 16  1  0
 23 21  1  0
 24 23  2  0
 25 23  1  0
M  END
$$$$
