QIV.pdb
     RDKit          3D

 25 24  0  0  1  0  0  0  0  0999 V2000
   27.9843  -21.5822  -15.6757 N   0  0  0  0  0  0  0  0  0  0  0  0
   29.2120  -20.8671  -15.4580 C   0  0  0  0  0  0  0  0  0  0  0  0
   30.2366  -21.3763  -15.9387 O   0  0  0  0  0  0  0  0  0  0  0  0
   29.1432  -19.6331  -14.7034 C   0  0  0  0  0  0  0  0  0  0  0  0
   27.7972  -19.1712  -14.2429 C   0  0  0  0  0  0  0  0  0  0  0  0
   27.0344  -20.1817  -13.4766 C   0  0  2  0  0  0  0  0  0  0  0  0
   26.0804  -20.9253  -14.2099 N   0  0  0  0  0  0  0  0  0  0  0  0
   26.4890  -19.6195  -12.1855 C   0  0  0  0  0  0  0  0  0  0  0  0
   25.7711  -18.5988  -12.1940 O   0  0  0  0  0  0  0  0  0  0  0  0
   22.2852  -20.5798   -9.2584 C   0  0  0  0  0  0  0  0  0  0  0  0
   23.6802  -20.0895   -8.7993 C   0  0  0  0  0  0  0  0  0  0  0  0
   24.6108  -20.4141   -9.8971 C   0  0  2  0  0  0  0  0  0  0  0  0
   24.3914  -21.7868  -10.4994 C   0  0  0  0  0  0  0  0  0  0  0  0
   26.0327  -20.0537   -9.7134 C   0  0  2  0  0  0  0  0  0  0  0  0
   26.7841  -20.2408  -10.9503 N   0  0  0  0  0  0  0  0  0  0  0  0
   26.7534  -20.4730   -8.5130 C   0  0  0  0  0  0  0  0  0  0  0  0
   27.1666  -21.6904   -8.3664 O   0  0  0  0  0  0  0  0  0  0  0  0
   29.4987  -19.6841   -4.4569 C   0  0  0  0  0  0  0  0  0  0  0  0
   28.8070  -19.1687   -5.7050 C   0  0  1  0  0  0  0  0  0  0  0  0
   29.8792  -18.9825   -6.7569 C   0  0  0  0  0  0  0  0  0  0  0  0
   27.7825  -20.1352   -6.2224 C   0  0  2  0  0  0  0  0  0  0  0  0
   27.0965  -19.6757   -7.4017 N   0  0  0  0  0  0  0  0  0  0  0  0
   26.7988  -20.4975   -5.1702 C   0  0  0  0  0  0  0  0  0  0  0  0
   25.5935  -20.1380   -5.2177 O   0  0  0  0  0  0  0  0  0  0  0  0
   27.1458  -21.2663   -4.0497 O   0  0  0  0  0  0  0  0  0  0  0  0
  2  1  1  0
  3  2  2  0
  4  2  1  0
  5  4  1  0
  6  7  1  6
  6  5  1  0
  8  6  1  0
  9  8  2  0
 11 12  1  0
 11 10  1  0
 12 14  1  0
 12 13  1  1
 14 15  1  6
 15  8  1  0
 16 17  2  0
 16 14  1  0
 19 21  1  0
 19 18  1  1
 20 19  1  0
 21 22  1  6
 22 16  1  0
 23 21  1  0
 24 23  2  0
 25 23  1  0
M  END
$$$$
