QIV.pdb
     RDKit          3D

 25 24  0  0  1  0  0  0  0  0999 V2000
   20.6554  -16.2385  -15.4558 N   0  0  0  0  0  0  0  0  0  0  0  0
   19.3779  -16.8751  -15.2862 C   0  0  0  0  0  0  0  0  0  0  0  0
   19.3927  -18.0121  -14.7894 O   0  0  0  0  0  0  0  0  0  0  0  0
   18.2031  -16.1413  -15.7084 C   0  0  0  0  0  0  0  0  0  0  0  0
   18.3959  -14.7470  -16.2144 C   0  0  0  0  0  0  0  0  0  0  0  0
   17.1375  -14.0143  -16.4789 C   0  0  2  0  0  0  0  0  0  0  0  0
   16.2446  -14.6252  -17.3901 N   0  0  0  0  0  0  0  0  0  0  0  0
   17.3843  -12.5538  -16.7730 C   0  0  0  0  0  0  0  0  0  0  0  0
   17.6992  -12.1851  -17.9228 O   0  0  0  0  0  0  0  0  0  0  0  0
   14.2493   -8.6799  -16.8741 C   0  0  0  0  0  0  0  0  0  0  0  0
   15.5007   -9.5560  -17.1261 C   0  0  0  0  0  0  0  0  0  0  0  0
   16.3945   -9.3356  -15.9731 C   0  0  2  0  0  0  0  0  0  0  0  0
   16.6233   -7.8740  -15.6471 C   0  0  0  0  0  0  0  0  0  0  0  0
   17.6091  -10.1735  -15.8833 C   0  0  2  0  0  0  0  0  0  0  0  0
   17.2626  -11.5848  -15.7507 N   0  0  0  0  0  0  0  0  0  0  0  0
   18.7344   -9.7585  -15.0482 C   0  0  0  0  0  0  0  0  0  0  0  0
   18.6569   -9.7758  -13.7566 O   0  0  0  0  0  0  0  0  0  0  0  0
   22.3802  -11.0464  -15.0815 C   0  0  0  0  0  0  0  0  0  0  0  0
   22.4124   -9.5298  -15.0487 C   0  0  1  0  0  0  0  0  0  0  0  0
   22.7227   -9.0661  -16.4556 C   0  0  0  0  0  0  0  0  0  0  0  0
   21.0968   -8.9464  -14.6246 C   0  0  2  0  0  0  0  0  0  0  0  0
   19.9989   -9.3098  -15.4819 N   0  0  0  0  0  0  0  0  0  0  0  0
   21.1751   -7.4686  -14.4967 C   0  0  0  0  0  0  0  0  0  0  0  0
   20.6607   -6.6881  -15.3396 O   0  0  0  0  0  0  0  0  0  0  0  0
   21.8284   -6.8404  -13.4265 O   0  0  0  0  0  0  0  0  0  0  0  0
  2  1  1  0
  3  2  2  0
  4  2  1  0
  5  4  1  0
  6  7  1  6
  6  5  1  0
  8  6  1  0
  9  8  2  0
 11 12  1  0
 11 10  1  0
 12 14  1  0
 12 13  1  6
 14 15  1  1
 15  8  1  0
 16 17  2  0
 16 14  1  0
 19 21  1  0
 19 18  1  6
 20 19  1  0
 21 22  1  6
 22 16  1  0
 23 21  1  0
 24 23  2  0
 25 23  1  0
M  END
$$$$
