QIV.pdb
     RDKit          3D

 25 24  0  0  1  0  0  0  0  0999 V2000
   20.6464  -10.2666  -21.3660 N   0  0  0  0  0  0  0  0  0  0  0  0
   19.8115  -11.4269  -21.2152 C   0  0  0  0  0  0  0  0  0  0  0  0
   19.3209  -11.8894  -22.2570 O   0  0  0  0  0  0  0  0  0  0  0  0
   19.6184  -11.9432  -19.8761 C   0  0  0  0  0  0  0  0  0  0  0  0
   20.3069  -11.2384  -18.7508 C   0  0  0  0  0  0  0  0  0  0  0  0
   21.0149  -12.1360  -17.8108 C   0  0  2  0  0  0  0  0  0  0  0  0
   20.3221  -13.3103  -17.4346 N   0  0  0  0  0  0  0  0  0  0  0  0
   21.5944  -11.3828  -16.6372 C   0  0  0  0  0  0  0  0  0  0  0  0
   21.0175  -11.3958  -15.5308 O   0  0  0  0  0  0  0  0  0  0  0  0
   26.7287  -11.4853  -15.2708 C   0  0  0  0  0  0  0  0  0  0  0  0
   25.1828  -11.4687  -15.3555 C   0  0  0  0  0  0  0  0  0  0  0  0
   24.7979  -10.0576  -15.5486 C   0  0  2  0  0  0  0  0  0  0  0  0
   25.4898   -9.0995  -14.6008 C   0  0  0  0  0  0  0  0  0  0  0  0
   23.3648   -9.7663  -15.7648 C   0  0  2  0  0  0  0  0  0  0  0  0
   22.7972  -10.6527  -16.7756 N   0  0  0  0  0  0  0  0  0  0  0  0
   22.8959   -8.3851  -15.8572 C   0  0  0  0  0  0  0  0  0  0  0  0
   23.1654   -7.6500  -16.8874 O   0  0  0  0  0  0  0  0  0  0  0  0
   19.7621   -4.7378  -15.3590 C   0  0  0  0  0  0  0  0  0  0  0  0
   20.1941   -6.1866  -15.2316 C   0  0  1  0  0  0  0  0  0  0  0  0
   19.8018   -6.8773  -16.5200 C   0  0  0  0  0  0  0  0  0  0  0  0
   21.6765   -6.3190  -15.0420 C   0  0  2  0  0  0  0  0  0  0  0  0
   22.1241   -7.6809  -14.9101 N   0  0  0  0  0  0  0  0  0  0  0  0
   22.1495   -5.5137  -13.8870 C   0  0  0  0  0  0  0  0  0  0  0  0
   22.2952   -6.0018  -12.7360 O   0  0  0  0  0  0  0  0  0  0  0  0
   22.4667   -4.1523  -13.9996 O   0  0  0  0  0  0  0  0  0  0  0  0
  2  1  1  0
  3  2  2  0
  4  2  1  0
  5  4  1  0
  6  7  1  1
  6  5  1  0
  8  6  1  0
  9  8  2  0
 11 12  1  0
 11 10  1  0
 12 14  1  0
 12 13  1  1
 14 15  1  6
 15  8  1  0
 16 17  2  0
 16 14  1  0
 19 21  1  0
 19 18  1  6
 20 19  1  0
 21 22  1  1
 22 16  1  0
 23 21  1  0
 24 23  2  0
 25 23  1  0
M  END
$$$$
