QIV.pdb
     RDKit          3D

 25 24  0  0  1  0  0  0  0  0999 V2000
   27.1173  -20.8010  -19.0052 N   0  0  0  0  0  0  0  0  0  0  0  0
   28.1129  -19.8014  -18.7305 C   0  0  0  0  0  0  0  0  0  0  0  0
   28.8276  -19.4611  -19.6862 O   0  0  0  0  0  0  0  0  0  0  0  0
   28.1927  -19.2901  -17.3780 C   0  0  0  0  0  0  0  0  0  0  0  0
   27.1687  -19.7587  -16.3936 C   0  0  0  0  0  0  0  0  0  0  0  0
   27.6616  -20.7752  -15.4375 C   0  0  2  0  0  0  0  0  0  0  0  0
   28.3786  -21.8576  -15.9988 N   0  0  0  0  0  0  0  0  0  0  0  0
   26.5873  -21.2089  -14.4690 C   0  0  0  0  0  0  0  0  0  0  0  0
   25.8404  -22.1704  -14.7426 O   0  0  0  0  0  0  0  0  0  0  0  0
   27.5971  -20.7755   -9.1836 C   0  0  0  0  0  0  0  0  0  0  0  0
   27.1975  -21.2849  -10.5900 C   0  0  0  0  0  0  0  0  0  0  0  0
   25.8802  -20.6886  -10.8832 C   0  0  2  0  0  0  0  0  0  0  0  0
   24.8422  -20.9396   -9.8086 C   0  0  0  0  0  0  0  0  0  0  0  0
   25.3665  -20.8175  -12.2633 C   0  0  2  0  0  0  0  0  0  0  0  0
   26.4126  -20.5321  -13.2400 N   0  0  0  0  0  0  0  0  0  0  0  0
   24.0581  -20.2726  -12.6200 C   0  0  0  0  0  0  0  0  0  0  0  0
   23.8590  -18.9965  -12.6994 O   0  0  0  0  0  0  0  0  0  0  0  0
   21.4329  -22.0249  -15.3437 C   0  0  0  0  0  0  0  0  0  0  0  0
   21.5008  -20.5723  -14.9112 C   0  0  1  0  0  0  0  0  0  0  0  0
   20.1950  -19.9287  -15.3251 C   0  0  0  0  0  0  0  0  0  0  0  0
   21.6613  -20.4324  -13.4260 C   0  0  2  0  0  0  0  0  0  0  0  0
   22.8855  -20.9961  -12.9202 N   0  0  0  0  0  0  0  0  0  0  0  0
   20.4991  -21.0043  -12.6989 C   0  0  0  0  0  0  0  0  0  0  0  0
   20.4938  -22.1800  -12.2494 O   0  0  0  0  0  0  0  0  0  0  0  0
   19.3262  -20.2726  -12.4628 O   0  0  0  0  0  0  0  0  0  0  0  0
  2  1  1  0
  3  2  2  0
  4  2  1  0
  5  4  1  0
  6  7  1  6
  6  5  1  0
  8  6  1  0
  9  8  2  0
 11 12  1  0
 11 10  1  0
 12 14  1  0
 12 13  1  1
 14 15  1  6
 15  8  1  0
 16 17  2  0
 16 14  1  0
 19 21  1  0
 19 18  1  1
 20 19  1  0
 21 22  1  1
 22 16  1  0
 23 21  1  0
 24 23  2  0
 25 23  1  0
M  END
$$$$
