YMD.pdb
     RDKit          3D

 29 29  0  0  1  0  0  0  0  0999 V2000
    7.6157  -13.7168   14.9069 O   0  0  0  0  0  0  0  0  0  0  0  0
    7.6523  -14.1172   16.2379 C   0  0  0  0  0  0  0  0  0  0  0  0
    7.7820  -13.1617   17.2314 C   0  0  0  0  0  0  0  0  0  0  0  0
    7.8199  -13.5340   18.5463 C   0  0  0  0  0  0  0  0  0  0  0  0
    7.7289  -14.8600   18.8804 C   0  0  0  0  0  0  0  0  0  0  0  0
    7.7771  -15.2280   20.3394 C   0  0  0  0  0  0  0  0  0  0  0  0
    9.1615  -14.7857   20.8328 C   0  0  2  0  0  0  0  0  0  0  0  0
   10.1671  -15.6192   20.2219 N   0  0  0  0  0  0  0  0  0  0  0  0
    9.1768  -15.0665   22.3174 C   0  0  0  0  0  0  0  0  0  0  0  0
   10.1375  -15.7493   22.7356 O   0  0  0  0  0  0  0  0  0  0  0  0
    7.6001  -15.8050   17.8897 C   0  0  0  0  0  0  0  0  0  0  0  0
    7.5610  -15.4426   16.5667 C   0  0  0  0  0  0  0  0  0  0  0  0
    6.6001  -10.7778   28.1140 C   0  0  0  0  0  0  0  0  0  0  0  0
    5.8912  -12.1507   27.1453 S   0  0  0  0  0  0  0  0  0  0  0  0
    7.2373  -13.2611   26.6021 C   0  0  0  0  0  0  0  0  0  0  0  0
    7.1629  -13.4348   25.1104 C   0  0  0  0  0  0  0  0  0  0  0  0
    8.2547  -14.3158   24.5489 C   0  0  2  0  0  0  0  0  0  0  0  0
    8.1514  -14.5710   23.1505 N   0  0  0  0  0  0  0  0  0  0  0  0
    8.6188  -15.4582   25.3641 C   0  0  0  0  0  0  0  0  0  0  0  0
    8.7481  -15.4887   26.5967 O   0  0  0  0  0  0  0  0  0  0  0  0
    8.8636  -16.7134   24.6921 N   0  0  0  0  0  0  0  0  0  0  0  0
    9.2813  -17.8849   25.3760 C   0  0  1  0  0  0  0  0  0  0  0  0
    9.6795  -19.0358   24.5368 C   0  0  0  0  0  0  0  0  0  0  0  0
   10.1239  -20.1987   25.3375 C   0  0  0  0  0  0  0  0  0  0  0  0
   10.8773  -20.1072   26.3315 O   0  0  0  0  0  0  0  0  0  0  0  0
   10.4192  -17.5627   26.3085 C   0  0  0  0  0  0  0  0  0  0  0  0
   11.5834  -16.9718   25.8250 O   0  0  0  0  0  0  0  0  0  0  0  0
    9.6854  -21.4586   24.9716 O   0  0  0  0  0  0  0  0  0  0  0  0
   10.3019  -17.8356   27.5306 O   0  0  0  0  0  0  0  0  0  0  0  0
  2  1  1  0
  3  2  2  0
  4  3  1  0
  5 11  1  0
  5  4  2  0
  6  5  1  0
  7  9  1  0
  7  6  1  0
  7  8  1  6
  9 10  2  0
 11 12  2  0
 12  2  1  0
 14 15  1  0
 14 13  1  0
 17 16  1  1
 16 15  1  0
 18 17  1  0
 18  9  1  0
 19 17  1  0
 20 19  2  0
 21 19  1  0
 22 23  1  6
 22 21  1  0
 23 24  1  0
 24 25  2  0
 24 28  1  0
 26 27  1  0
 26 22  1  0
 29 26  2  0
M  END
$$$$
