YMD.pdb
     RDKit          3D

 29 29  0  0  1  0  0  0  0  0999 V2000
    7.0240  -13.7467   15.4927 O   0  0  0  0  0  0  0  0  0  0  0  0
    7.3296  -14.3200   16.7219 C   0  0  0  0  0  0  0  0  0  0  0  0
    8.3459  -13.7783   17.4904 C   0  0  0  0  0  0  0  0  0  0  0  0
    8.6622  -14.3267   18.7020 C   0  0  0  0  0  0  0  0  0  0  0  0
    7.9688  -15.4180   19.1563 C   0  0  0  0  0  0  0  0  0  0  0  0
    8.3500  -15.9931   20.4944 C   0  0  0  0  0  0  0  0  0  0  0  0
    9.5720  -15.1885   20.9583 C   0  0  2  0  0  0  0  0  0  0  0  0
   10.7610  -15.7632   20.3794 N   0  0  0  0  0  0  0  0  0  0  0  0
    9.6508  -15.3881   22.4539 C   0  0  0  0  0  0  0  0  0  0  0  0
   10.4158  -16.2967   22.8456 O   0  0  0  0  0  0  0  0  0  0  0  0
    6.9603  -15.9522   18.3891 C   0  0  0  0  0  0  0  0  0  0  0  0
    6.6343  -15.4098   17.1714 C   0  0  0  0  0  0  0  0  0  0  0  0
    6.9915  -12.5104   29.4407 C   0  0  0  0  0  0  0  0  0  0  0  0
    6.8575  -12.4977   27.6219 S   0  0  0  0  0  0  0  0  0  0  0  0
    7.9847  -13.7574   26.9273 C   0  0  0  0  0  0  0  0  0  0  0  0
    7.9695  -13.6606   25.4268 C   0  0  0  0  0  0  0  0  0  0  0  0
    8.8431  -14.6882   24.7455 C   0  0  2  0  0  0  0  0  0  0  0  0
    8.8921  -14.5781   23.3254 N   0  0  0  0  0  0  0  0  0  0  0  0
    8.7389  -16.0393   25.2611 C   0  0  0  0  0  0  0  0  0  0  0  0
    7.8586  -16.8737   25.0044 O   0  0  0  0  0  0  0  0  0  0  0  0
    9.7606  -16.4902   26.1775 N   0  0  0  0  0  0  0  0  0  0  0  0
    9.8842  -17.8431   26.5887 C   0  0  1  0  0  0  0  0  0  0  0  0
   10.5831  -18.7570   25.6593 C   0  0  0  0  0  0  0  0  0  0  0  0
   10.6745  -20.1395   26.1799 C   0  0  0  0  0  0  0  0  0  0  0  0
   10.2740  -20.4794   27.3149 O   0  0  0  0  0  0  0  0  0  0  0  0
   10.5674  -17.9172   27.9287 C   0  0  0  0  0  0  0  0  0  0  0  0
   11.0129  -16.7588   28.5598 O   0  0  0  0  0  0  0  0  0  0  0  0
   11.2325  -21.1139   25.3720 O   0  0  0  0  0  0  0  0  0  0  0  0
   10.7296  -19.0412   28.4692 O   0  0  0  0  0  0  0  0  0  0  0  0
  2  1  1  0
  3  2  2  0
  4  3  1  0
  5 11  1  0
  5  4  2  0
  6  5  1  0
  7  9  1  0
  7  6  1  0
  7  8  1  6
  9 10  2  0
 11 12  2  0
 12  2  1  0
 14 15  1  0
 14 13  1  0
 17 16  1  6
 16 15  1  0
 18 17  1  0
 18  9  1  0
 19 17  1  0
 20 19  2  0
 21 19  1  0
 22 23  1  6
 22 21  1  0
 23 24  1  0
 24 25  2  0
 24 28  1  0
 26 27  1  0
 26 22  1  0
 29 26  2  0
M  END
$$$$
