YMD.pdb
     RDKit          3D

 29 29  0  0  1  0  0  0  0  0999 V2000
    7.8818  -21.2993   16.6424 O   0  0  0  0  0  0  0  0  0  0  0  0
    8.2074  -20.5411   17.7613 C   0  0  0  0  0  0  0  0  0  0  0  0
    9.5226  -20.1587   17.9637 C   0  0  0  0  0  0  0  0  0  0  0  0
    9.8641  -19.4130   19.0573 C   0  0  0  0  0  0  0  0  0  0  0  0
    8.8983  -19.0431   19.9566 C   0  0  0  0  0  0  0  0  0  0  0  0
    9.3164  -18.2242   21.1487 C   0  0  0  0  0  0  0  0  0  0  0  0
    8.9802  -16.7700   20.7911 C   0  0  2  0  0  0  0  0  0  0  0  0
    9.8284  -16.3443   19.7055 N   0  0  0  0  0  0  0  0  0  0  0  0
    9.3506  -15.9525   22.0066 C   0  0  0  0  0  0  0  0  0  0  0  0
   10.5486  -15.6025   22.0868 O   0  0  0  0  0  0  0  0  0  0  0  0
    7.5936  -19.4255   19.7510 C   0  0  0  0  0  0  0  0  0  0  0  0
    7.2396  -20.1741   18.6567 C   0  0  0  0  0  0  0  0  0  0  0  0
    6.4191  -10.9432   27.3719 C   0  0  0  0  0  0  0  0  0  0  0  0
    6.0511  -12.2529   26.1573 S   0  0  0  0  0  0  0  0  0  0  0  0
    7.5926  -13.1469   25.7517 C   0  0  0  0  0  0  0  0  0  0  0  0
    7.3418  -14.0592   24.5830 C   0  0  0  0  0  0  0  0  0  0  0  0
    8.5739  -14.8012   24.1196 C   0  0  2  0  0  0  0  0  0  0  0  0
    8.3758  -15.6228   22.9721 N   0  0  0  0  0  0  0  0  0  0  0  0
    9.3851  -15.3852   25.1699 C   0  0  0  0  0  0  0  0  0  0  0  0
    9.7596  -14.8402   26.2184 O   0  0  0  0  0  0  0  0  0  0  0  0
    9.8193  -16.7529   25.0025 N   0  0  0  0  0  0  0  0  0  0  0  0
   10.7045  -17.3964   25.9064 C   0  0  1  0  0  0  0  0  0  0  0  0
   10.3954  -18.8014   26.2497 C   0  0  0  0  0  0  0  0  0  0  0  0
    9.6491  -18.9266   27.5218 C   0  0  0  0  0  0  0  0  0  0  0  0
    9.9821  -18.3476   28.5792 O   0  0  0  0  0  0  0  0  0  0  0  0
   12.1149  -17.3365   25.3816 C   0  0  0  0  0  0  0  0  0  0  0  0
   13.1145  -16.7004   26.1127 O   0  0  0  0  0  0  0  0  0  0  0  0
    8.5208  -19.7264   27.5496 O   0  0  0  0  0  0  0  0  0  0  0  0
   12.3761  -17.8697   24.2729 O   0  0  0  0  0  0  0  0  0  0  0  0
  2  1  1  0
  3  2  2  0
  4  3  1  0
  5 11  1  0
  5  4  2  0
  6  5  1  0
  7  9  1  0
  7  6  1  0
  7  8  1  6
  9 10  2  0
 11 12  2  0
 12  2  1  0
 14 15  1  0
 14 13  1  0
 17 16  1  1
 16 15  1  0
 18 17  1  0
 18  9  1  0
 19 17  1  0
 20 19  2  0
 21 19  1  0
 22 23  1  6
 22 21  1  0
 23 24  1  0
 24 25  2  0
 24 28  1  0
 26 27  1  0
 26 22  1  0
 29 26  2  0
M  END
$$$$
