YMD.pdb
     RDKit          3D

 29 29  0  0  1  0  0  0  0  0999 V2000
    5.5745  -10.8935   28.4737 O   0  0  0  0  0  0  0  0  0  0  0  0
    6.2707  -11.8116   27.6956 C   0  0  0  0  0  0  0  0  0  0  0  0
    5.7699  -12.1689   26.4553 C   0  0  0  0  0  0  0  0  0  0  0  0
    6.4389  -13.0697   25.6743 C   0  0  0  0  0  0  0  0  0  0  0  0
    7.6107  -13.6207   26.1233 C   0  0  0  0  0  0  0  0  0  0  0  0
    8.3149  -14.6103   25.2338 C   0  0  0  0  0  0  0  0  0  0  0  0
    7.2404  -15.6182   24.8032 C   0  0  2  0  0  0  0  0  0  0  0  0
    6.9901  -16.5321   25.8901 N   0  0  0  0  0  0  0  0  0  0  0  0
    7.8520  -16.4116   23.6721 C   0  0  0  0  0  0  0  0  0  0  0  0
    8.1123  -17.6092   23.9214 O   0  0  0  0  0  0  0  0  0  0  0  0
    8.1037  -13.2624   27.3559 C   0  0  0  0  0  0  0  0  0  0  0  0
    7.4405  -12.3592   28.1482 C   0  0  0  0  0  0  0  0  0  0  0  0
    7.3263  -11.5854   19.3384 C   0  0  0  0  0  0  0  0  0  0  0  0
    8.2742  -13.1192   19.0652 S   0  0  0  0  0  0  0  0  0  0  0  0
    7.6001  -14.4407   20.1325 C   0  0  0  0  0  0  0  0  0  0  0  0
    8.4411  -15.6776   19.9784 C   0  0  0  0  0  0  0  0  0  0  0  0
    8.6280  -16.4462   21.2658 C   0  0  2  0  0  0  0  0  0  0  0  0
    8.0998  -15.8036   22.4231 N   0  0  0  0  0  0  0  0  0  0  0  0
    9.9247  -17.0714   21.4392 C   0  0  0  0  0  0  0  0  0  0  0  0
   10.3924  -18.0194   20.7916 O   0  0  0  0  0  0  0  0  0  0  0  0
   10.7888  -16.5521   22.4740 N   0  0  0  0  0  0  0  0  0  0  0  0
   12.1593  -16.9054   22.5826 C   0  0  1  0  0  0  0  0  0  0  0  0
   13.1422  -15.8230   22.3598 C   0  0  0  0  0  0  0  0  0  0  0  0
   14.5415  -16.2876   22.4908 C   0  0  0  0  0  0  0  0  0  0  0  0
   14.9545  -17.3767   22.0352 O   0  0  0  0  0  0  0  0  0  0  0  0
   12.4305  -17.5214   23.9298 C   0  0  0  0  0  0  0  0  0  0  0  0
   13.3143  -18.5902   24.0530 O   0  0  0  0  0  0  0  0  0  0  0  0
   15.4470  -15.4777   23.1522 O   0  0  0  0  0  0  0  0  0  0  0  0
   11.8467  -17.0560   24.9418 O   0  0  0  0  0  0  0  0  0  0  0  0
  2  1  1  0
  3  2  2  0
  4  3  1  0
  5 11  1  0
  5  4  2  0
  6  5  1  0
  7  9  1  0
  7  6  1  0
  7  8  1  1
  9 10  2  0
 11 12  2  0
 12  2  1  0
 14 15  1  0
 14 13  1  0
 17 16  1  6
 16 15  1  0
 18 17  1  0
 18  9  1  0
 19 17  1  0
 20 19  2  0
 21 19  1  0
 22 23  1  1
 22 21  1  0
 23 24  1  0
 24 25  2  0
 24 28  1  0
 26 27  1  0
 26 22  1  0
 29 26  2  0
M  END
$$$$
