YMD.pdb
     RDKit          3D

 29 29  0  0  1  0  0  0  0  0999 V2000
    6.4672  -12.5978   17.4086 O   0  0  0  0  0  0  0  0  0  0  0  0
    7.4319  -13.1413   18.2493 C   0  0  0  0  0  0  0  0  0  0  0  0
    8.1323  -14.2644   17.8430 C   0  0  0  0  0  0  0  0  0  0  0  0
    9.0851  -14.8146   18.6544 C   0  0  0  0  0  0  0  0  0  0  0  0
    9.3467  -14.2502   19.8756 C   0  0  0  0  0  0  0  0  0  0  0  0
   10.4016  -14.8882   20.7397 C   0  0  0  0  0  0  0  0  0  0  0  0
    9.6854  -16.0050   21.5115 C   0  0  2  0  0  0  0  0  0  0  0  0
    8.6209  -16.5332   20.6948 N   0  0  0  0  0  0  0  0  0  0  0  0
    9.0521  -15.3351   22.7087 C   0  0  0  0  0  0  0  0  0  0  0  0
    8.5235  -14.2216   22.4972 O   0  0  0  0  0  0  0  0  0  0  0  0
    8.6482  -13.1349   20.2743 C   0  0  0  0  0  0  0  0  0  0  0  0
    7.6897  -12.5743   19.4680 C   0  0  0  0  0  0  0  0  0  0  0  0
    6.9438  -10.7847   26.0757 C   0  0  0  0  0  0  0  0  0  0  0  0
    6.2355  -12.4150   26.4834 S   0  0  0  0  0  0  0  0  0  0  0  0
    7.5830  -13.6443   26.5979 C   0  0  0  0  0  0  0  0  0  0  0  0
    7.7941  -14.2733   25.2485 C   0  0  0  0  0  0  0  0  0  0  0  0
    8.8871  -15.3165   25.2318 C   0  0  2  0  0  0  0  0  0  0  0  0
    9.0750  -15.9596   23.9739 N   0  0  0  0  0  0  0  0  0  0  0  0
    8.9386  -16.1880   26.3894 C   0  0  0  0  0  0  0  0  0  0  0  0
    8.7137  -15.8811   27.5693 O   0  0  0  0  0  0  0  0  0  0  0  0
    9.2880  -17.5731   26.1736 N   0  0  0  0  0  0  0  0  0  0  0  0
    9.6261  -18.4564   27.2319 C   0  0  1  0  0  0  0  0  0  0  0  0
    9.3000  -19.8851   27.0325 C   0  0  0  0  0  0  0  0  0  0  0  0
    9.7330  -20.3896   25.7100 C   0  0  0  0  0  0  0  0  0  0  0  0
   10.3039  -19.6809   24.8521 O   0  0  0  0  0  0  0  0  0  0  0  0
   11.0938  -18.3457   27.5505 C   0  0  0  0  0  0  0  0  0  0  0  0
   11.9263  -17.5419   26.7763 O   0  0  0  0  0  0  0  0  0  0  0  0
    9.4962  -21.7167   25.3997 O   0  0  0  0  0  0  0  0  0  0  0  0
   11.5563  -18.9904   28.5263 O   0  0  0  0  0  0  0  0  0  0  0  0
  2  1  1  0
  3  2  2  0
  4  3  1  0
  5 11  1  0
  5  4  2  0
  6  5  1  0
  7  9  1  0
  7  6  1  0
  7  8  1  6
  9 10  2  0
 11 12  2  0
 12  2  1  0
 14 15  1  0
 14 13  1  0
 17 16  1  6
 16 15  1  0
 18 17  1  0
 18  9  1  0
 19 17  1  0
 20 19  2  0
 21 19  1  0
 22 23  1  6
 22 21  1  0
 23 24  1  0
 24 25  2  0
 24 28  1  0
 26 27  1  0
 26 22  1  0
 29 26  2  0
M  END
$$$$
