YMD.pdb
     RDKit          3D

 29 29  0  0  1  0  0  0  0  0999 V2000
    7.0717  -13.5341   15.6583 O   0  0  0  0  0  0  0  0  0  0  0  0
    7.6636  -13.6748   16.9084 C   0  0  0  0  0  0  0  0  0  0  0  0
    7.4495  -12.7064   17.8744 C   0  0  0  0  0  0  0  0  0  0  0  0
    8.0221  -12.8255   19.1100 C   0  0  0  0  0  0  0  0  0  0  0  0
    8.8116  -13.9097   19.3919 C   0  0  0  0  0  0  0  0  0  0  0  0
    9.4254  -14.0020   20.7635 C   0  0  0  0  0  0  0  0  0  0  0  0
    9.0536  -15.3945   21.2910 C   0  0  2  0  0  0  0  0  0  0  0  0
    7.6597  -15.6439   21.0190 N   0  0  0  0  0  0  0  0  0  0  0  0
    9.2195  -15.3226   22.7911 C   0  0  0  0  0  0  0  0  0  0  0  0
   10.3770  -15.0893   23.2035 O   0  0  0  0  0  0  0  0  0  0  0  0
    9.0211  -14.8687   18.4289 C   0  0  0  0  0  0  0  0  0  0  0  0
    8.4514  -14.7592   17.1853 C   0  0  0  0  0  0  0  0  0  0  0  0
    7.2614  -11.5343   27.6795 C   0  0  0  0  0  0  0  0  0  0  0  0
    6.1904  -12.1311   26.3294 S   0  0  0  0  0  0  0  0  0  0  0  0
    7.1674  -13.2003   25.2149 C   0  0  0  0  0  0  0  0  0  0  0  0
    7.1279  -14.6139   25.7261 C   0  0  0  0  0  0  0  0  0  0  0  0
    8.1402  -15.5232   25.0689 C   0  0  2  0  0  0  0  0  0  0  0  0
    8.1115  -15.5121   23.6440 N   0  0  0  0  0  0  0  0  0  0  0  0
    8.2961  -16.8299   25.6775 C   0  0  0  0  0  0  0  0  0  0  0  0
    7.4265  -17.7034   25.8104 O   0  0  0  0  0  0  0  0  0  0  0  0
    9.5987  -17.1799   26.1949 N   0  0  0  0  0  0  0  0  0  0  0  0
    9.8864  -18.4477   26.7645 C   0  0  1  0  0  0  0  0  0  0  0  0
   10.7257  -19.3611   25.9590 C   0  0  0  0  0  0  0  0  0  0  0  0
   11.0089  -20.6370   26.6539 C   0  0  0  0  0  0  0  0  0  0  0  0
   12.1243  -20.9279   27.1390 O   0  0  0  0  0  0  0  0  0  0  0  0
   10.5341  -18.2751   28.1131 C   0  0  0  0  0  0  0  0  0  0  0  0
   11.5552  -17.3459   28.2928 O   0  0  0  0  0  0  0  0  0  0  0  0
    9.9884  -21.5627   26.7767 O   0  0  0  0  0  0  0  0  0  0  0  0
   10.1388  -18.9831   29.0745 O   0  0  0  0  0  0  0  0  0  0  0  0
  2  1  1  0
  3  2  2  0
  4  3  1  0
  5 11  1  0
  5  4  2  0
  6  5  1  0
  7  9  1  0
  7  6  1  0
  7  8  1  1
  9 10  2  0
 11 12  2  0
 12  2  1  0
 14 15  1  0
 14 13  1  0
 17 16  1  1
 16 15  1  0
 18 17  1  0
 18  9  1  0
 19 17  1  0
 20 19  2  0
 21 19  1  0
 22 23  1  6
 22 21  1  0
 23 24  1  0
 24 25  2  0
 24 28  1  0
 26 27  1  0
 26 22  1  0
 29 26  2  0
M  END
$$$$
