YMD.pdb
     RDKit          3D

 29 29  0  0  1  0  0  0  0  0999 V2000
    7.8697  -14.4012   14.5605 O   0  0  0  0  0  0  0  0  0  0  0  0
    7.7697  -14.1664   15.9272 C   0  0  0  0  0  0  0  0  0  0  0  0
    8.7211  -13.3787   16.5527 C   0  0  0  0  0  0  0  0  0  0  0  0
    8.6412  -13.1353   17.8955 C   0  0  0  0  0  0  0  0  0  0  0  0
    7.6136  -13.6748   18.6244 C   0  0  0  0  0  0  0  0  0  0  0  0
    7.5634  -13.3846   20.1008 C   0  0  0  0  0  0  0  0  0  0  0  0
    8.6788  -14.2323   20.7278 C   0  0  2  0  0  0  0  0  0  0  0  0
    8.3898  -15.6276   20.5071 N   0  0  0  0  0  0  0  0  0  0  0  0
    8.5986  -13.9799   22.2154 C   0  0  0  0  0  0  0  0  0  0  0  0
    8.2781  -12.8204   22.5577 O   0  0  0  0  0  0  0  0  0  0  0  0
    6.6713  -14.4565   17.9983 C   0  0  0  0  0  0  0  0  0  0  0  0
    6.7417  -14.7073   16.6510 C   0  0  0  0  0  0  0  0  0  0  0  0
    7.5312  -12.4624   28.7926 C   0  0  0  0  0  0  0  0  0  0  0  0
    7.7620  -12.5792   26.9874 S   0  0  0  0  0  0  0  0  0  0  0  0
    7.1163  -14.1853   26.4014 C   0  0  0  0  0  0  0  0  0  0  0  0
    7.3248  -14.2894   24.9159 C   0  0  0  0  0  0  0  0  0  0  0  0
    8.6068  -14.9915   24.5328 C   0  0  2  0  0  0  0  0  0  0  0  0
    8.8755  -15.0152   23.1333 N   0  0  0  0  0  0  0  0  0  0  0  0
    8.8785  -16.2284   25.2390 C   0  0  0  0  0  0  0  0  0  0  0  0
    8.0685  -17.1230   25.5226 O   0  0  0  0  0  0  0  0  0  0  0  0
   10.2351  -16.4717   25.6718 N   0  0  0  0  0  0  0  0  0  0  0  0
   10.6243  -17.6498   26.3613 C   0  0  1  0  0  0  0  0  0  0  0  0
   12.0453  -18.0443   26.2494 C   0  0  0  0  0  0  0  0  0  0  0  0
   12.4818  -18.2114   24.8449 C   0  0  0  0  0  0  0  0  0  0  0  0
   11.7219  -18.5828   23.9237 O   0  0  0  0  0  0  0  0  0  0  0  0
   10.2789  -17.5332   27.8225 C   0  0  0  0  0  0  0  0  0  0  0  0
   10.4216  -18.6272   28.6718 O   0  0  0  0  0  0  0  0  0  0  0  0
   13.8013  -17.9438   24.5273 O   0  0  0  0  0  0  0  0  0  0  0  0
    9.8597  -16.4327   28.2640 O   0  0  0  0  0  0  0  0  0  0  0  0
  2  1  1  0
  3  2  2  0
  4  3  1  0
  5 11  1  0
  5  4  2  0
  6  5  1  0
  7  9  1  0
  7  6  1  0
  7  8  1  1
  9 10  2  0
 11 12  2  0
 12  2  1  0
 14 15  1  0
 14 13  1  0
 17 16  1  6
 16 15  1  0
 18 17  1  0
 18  9  1  0
 19 17  1  0
 20 19  2  0
 21 19  1  0
 22 23  1  1
 22 21  1  0
 23 24  1  0
 24 25  2  0
 24 28  1  0
 26 27  1  0
 26 22  1  0
 29 26  2  0
M  END
$$$$
