HQA.pdb
     RDKit          3D

 25 25  0  0  1  0  0  0  0  0999 V2000
    9.9104  -16.0487   20.7866 N   0  0  0  0  0  0  0  0  0  0  0  0
    8.9479  -15.1941   21.4539 C   0  0  1  0  0  0  0  0  0  0  0  0
    7.6827  -15.2016   20.6539 C   0  0  0  0  0  0  0  0  0  0  0  0
    7.8809  -14.3336   19.4643 C   0  0  0  0  0  0  0  0  0  0  0  0
    9.0110  -13.6530   19.0526 C   0  0  0  0  0  0  0  0  0  0  0  0
    8.7604  -12.9807   17.9178 N   0  0  0  0  0  0  0  0  0  0  0  0
    7.4988  -13.2183   17.5999 C   0  0  0  0  0  0  0  0  0  0  0  0
    6.9393  -14.0432   18.5304 N   0  0  0  0  0  0  0  0  0  0  0  0
    8.7560  -15.5528   22.8640 C   0  0  0  0  0  0  0  0  0  0  0  0
    7.8519  -14.9690   23.5114 O   0  0  0  0  0  0  0  0  0  0  0  0
   10.6797  -20.5654   28.0944 N   0  0  0  0  0  0  0  0  0  0  0  0
   10.5886  -19.9337   26.8354 C   0  0  0  0  0  0  0  0  0  0  0  0
   11.0621  -20.5903   25.8462 O   0  0  0  0  0  0  0  0  0  0  0  0
    9.9797  -18.5834   26.6562 C   0  0  0  0  0  0  0  0  0  0  0  0
   10.0599  -18.2376   25.1905 C   0  0  0  0  0  0  0  0  0  0  0  0
    9.4499  -16.9050   24.8682 C   0  0  2  0  0  0  0  0  0  0  0  0
    9.5729  -16.5368   23.4830 N   0  0  0  0  0  0  0  0  0  0  0  0
   10.0651  -15.8848   25.7314 C   0  0  0  0  0  0  0  0  0  0  0  0
   11.2322  -15.5140   25.5191 O   0  0  0  0  0  0  0  0  0  0  0  0
    9.0003  -13.2806   27.9567 C   0  0  0  0  0  0  0  0  0  0  0  0
    9.9657  -14.4410   27.7280 C   0  0  2  0  0  0  0  0  0  0  0  0
    9.3272  -15.3334   26.7949 N   0  0  0  0  0  0  0  0  0  0  0  0
   10.2107  -15.1089   29.0226 C   0  0  0  0  0  0  0  0  0  0  0  0
    9.7900  -16.2606   29.2191 O   0  0  0  0  0  0  0  0  0  0  0  0
   10.9111  -14.4714   30.0421 O   0  0  0  0  0  0  0  0  0  0  0  0
  2  1  1  6
  2  3  1  0
  2  9  1  0
  4  5  2  0
  4  3  1  0
  6  5  1  0
  7  8  2  0
  7  6  1  0
  8  4  1  0
  9 10  2  0
 11 12  1  0
 12 13  2  0
 12 14  1  0
 14 15  1  0
 16 15  1  6
 16 18  1  0
 17 16  1  0
 17  9  1  0
 18 19  2  0
 21 20  1  1
 21 23  1  0
 22 21  1  0
 22 18  1  0
 23 24  2  0
 23 25  1  0
M  END
$$$$
