HQA.pdb
     RDKit          3D

 25 25  0  0  1  0  0  0  0  0999 V2000
   12.0782  -17.0037   20.0951 N   0  0  0  0  0  0  0  0  0  0  0  0
   12.2723  -15.9936   21.1168 C   0  0  1  0  0  0  0  0  0  0  0  0
   12.2609  -14.6511   20.4549 C   0  0  0  0  0  0  0  0  0  0  0  0
   13.5490  -14.4779   19.7347 C   0  0  0  0  0  0  0  0  0  0  0  0
   14.7907  -15.0161   20.0150 C   0  0  0  0  0  0  0  0  0  0  0  0
   15.6912  -14.6021   19.1092 N   0  0  0  0  0  0  0  0  0  0  0  0
   15.0508  -13.8146   18.2615 C   0  0  0  0  0  0  0  0  0  0  0  0
   13.7391  -13.7227   18.6228 N   0  0  0  0  0  0  0  0  0  0  0  0
   11.3129  -16.1150   22.2207 C   0  0  0  0  0  0  0  0  0  0  0  0
   10.0893  -15.9915   21.9653 O   0  0  0  0  0  0  0  0  0  0  0  0
   11.4315  -20.8731   22.8417 N   0  0  0  0  0  0  0  0  0  0  0  0
   11.1690  -20.2113   24.0604 C   0  0  0  0  0  0  0  0  0  0  0  0
   11.7468  -20.6943   25.0933 O   0  0  0  0  0  0  0  0  0  0  0  0
   10.2746  -19.0205   24.1518 C   0  0  0  0  0  0  0  0  0  0  0  0
   10.9029  -18.0511   25.1212 C   0  0  0  0  0  0  0  0  0  0  0  0
   10.8597  -16.6302   24.6406 C   0  0  2  0  0  0  0  0  0  0  0  0
   11.7562  -16.3661   23.5470 N   0  0  0  0  0  0  0  0  0  0  0  0
   11.1516  -15.7407   25.7755 C   0  0  0  0  0  0  0  0  0  0  0  0
   12.3297  -15.4742   26.0681 O   0  0  0  0  0  0  0  0  0  0  0  0
    9.1463  -13.4708   27.8665 C   0  0  0  0  0  0  0  0  0  0  0  0
   10.3728  -14.3564   27.6618 C   0  0  2  0  0  0  0  0  0  0  0  0
   10.0931  -15.1954   26.5249 N   0  0  0  0  0  0  0  0  0  0  0  0
   10.5777  -15.1628   28.8823 C   0  0  0  0  0  0  0  0  0  0  0  0
   10.2886  -16.3704   28.8872 O   0  0  0  0  0  0  0  0  0  0  0  0
   11.0939  -14.5956   30.0435 O   0  0  0  0  0  0  0  0  0  0  0  0
  2  1  1  6
  2  3  1  0
  2  9  1  0
  4  5  2  0
  4  3  1  0
  6  5  1  0
  7  8  2  0
  7  6  1  0
  8  4  1  0
  9 10  2  0
 11 12  1  0
 12 13  2  0
 12 14  1  0
 14 15  1  0
 16 15  1  1
 16 18  1  0
 17 16  1  0
 17  9  1  0
 18 19  2  0
 21 20  1  1
 21 23  1  0
 22 21  1  0
 22 18  1  0
 23 24  2  0
 23 25  1  0
M  END
$$$$
