HQA.pdb
     RDKit          3D

 25 25  0  0  1  0  0  0  0  0999 V2000
    8.3781  -16.4996   20.1068 N   0  0  0  0  0  0  0  0  0  0  0  0
    8.1506  -15.2699   20.8403 C   0  0  1  0  0  0  0  0  0  0  0  0
    7.0990  -14.4844   20.1207 C   0  0  0  0  0  0  0  0  0  0  0  0
    7.6249  -14.1262   18.7780 C   0  0  0  0  0  0  0  0  0  0  0  0
    8.5190  -13.1345   18.4213 C   0  0  0  0  0  0  0  0  0  0  0  0
    8.7253  -13.1507   17.0947 N   0  0  0  0  0  0  0  0  0  0  0  0
    7.9838  -14.1284   16.6016 C   0  0  0  0  0  0  0  0  0  0  0  0
    7.3014  -14.7401   17.6113 N   0  0  0  0  0  0  0  0  0  0  0  0
    7.8454  -15.5050   22.2564 C   0  0  0  0  0  0  0  0  0  0  0  0
    6.6490  -15.4274   22.6307 O   0  0  0  0  0  0  0  0  0  0  0  0
   11.7769  -19.3645   24.6909 N   0  0  0  0  0  0  0  0  0  0  0  0
   10.5640  -19.1564   25.3821 C   0  0  0  0  0  0  0  0  0  0  0  0
   10.4836  -19.6899   26.5409 O   0  0  0  0  0  0  0  0  0  0  0  0
    9.4372  -18.3648   24.8074 C   0  0  0  0  0  0  0  0  0  0  0  0
    9.6170  -16.9324   25.2434 C   0  0  0  0  0  0  0  0  0  0  0  0
    8.6444  -15.9944   24.5907 C   0  0  2  0  0  0  0  0  0  0  0  0
    8.8776  -15.8131   23.1828 N   0  0  0  0  0  0  0  0  0  0  0  0
    8.6924  -14.7029   25.2937 C   0  0  0  0  0  0  0  0  0  0  0  0
    9.7163  -14.0010   25.2330 O   0  0  0  0  0  0  0  0  0  0  0  0
    6.2198  -12.4385   26.7255 C   0  0  0  0  0  0  0  0  0  0  0  0
    7.6301  -13.0223   26.7525 C   0  0  2  0  0  0  0  0  0  0  0  0
    7.5765  -14.2687   26.0324 N   0  0  0  0  0  0  0  0  0  0  0  0
    8.0220  -13.2363   28.1606 C   0  0  0  0  0  0  0  0  0  0  0  0
    8.0884  -14.3876   28.6209 O   0  0  0  0  0  0  0  0  0  0  0  0
    8.3229  -12.1651   28.9964 O   0  0  0  0  0  0  0  0  0  0  0  0
  2  1  1  6
  2  3  1  0
  2  9  1  0
  4  5  2  0
  4  3  1  0
  6  5  1  0
  7  8  2  0
  7  6  1  0
  8  4  1  0
  9 10  2  0
 11 12  1  0
 12 13  2  0
 12 14  1  0
 14 15  1  0
 16 15  1  1
 16 18  1  0
 17 16  1  0
 17  9  1  0
 18 19  2  0
 21 20  1  1
 21 23  1  0
 22 21  1  0
 22 18  1  0
 23 24  2  0
 23 25  1  0
M  END
$$$$
