HQA.pdb
     RDKit          3D

 25 25  0  0  1  0  0  0  0  0999 V2000
    9.6428  -15.3149   20.4631 N   0  0  0  0  0  0  0  0  0  0  0  0
    8.7208  -14.5191   21.2496 C   0  0  1  0  0  0  0  0  0  0  0  0
    7.4241  -14.4357   20.5066 C   0  0  0  0  0  0  0  0  0  0  0  0
    7.7174  -14.0416   19.1043 C   0  0  0  0  0  0  0  0  0  0  0  0
    8.2248  -12.8531   18.6143 C   0  0  0  0  0  0  0  0  0  0  0  0
    8.3355  -12.9117   17.2775 N   0  0  0  0  0  0  0  0  0  0  0  0
    7.9105  -14.1083   16.9079 C   0  0  0  0  0  0  0  0  0  0  0  0
    7.5270  -14.8181   18.0072 N   0  0  0  0  0  0  0  0  0  0  0  0
    8.5816  -15.0109   22.6253 C   0  0  0  0  0  0  0  0  0  0  0  0
    7.6709  -14.5283   23.3432 O   0  0  0  0  0  0  0  0  0  0  0  0
   11.4536  -20.1659   24.9882 N   0  0  0  0  0  0  0  0  0  0  0  0
   10.7804  -19.6402   26.1120 C   0  0  0  0  0  0  0  0  0  0  0  0
   10.8860  -20.3157   27.1920 O   0  0  0  0  0  0  0  0  0  0  0  0
    9.9909  -18.3753   26.0565 C   0  0  0  0  0  0  0  0  0  0  0  0
   10.0915  -17.8358   24.6519 C   0  0  0  0  0  0  0  0  0  0  0  0
    9.3487  -16.5455   24.4647 C   0  0  2  0  0  0  0  0  0  0  0  0
    9.4553  -16.0090   23.1342 N   0  0  0  0  0  0  0  0  0  0  0  0
    9.8372  -15.5735   25.4553 C   0  0  0  0  0  0  0  0  0  0  0  0
   10.9898  -15.1180   25.3616 O   0  0  0  0  0  0  0  0  0  0  0  0
    8.2359  -13.2846   27.7549 C   0  0  0  0  0  0  0  0  0  0  0  0
    9.4433  -14.1643   27.4402 C   0  0  2  0  0  0  0  0  0  0  0  0
    8.9950  -15.1642   26.5053 N   0  0  0  0  0  0  0  0  0  0  0  0
    9.9137  -14.7818   28.6969 C   0  0  0  0  0  0  0  0  0  0  0  0
    9.7823  -16.0031   28.8785 O   0  0  0  0  0  0  0  0  0  0  0  0
   10.5089  -14.0188   29.6969 O   0  0  0  0  0  0  0  0  0  0  0  0
  2  1  1  6
  2  3  1  0
  2  9  1  0
  4  5  2  0
  4  3  1  0
  6  5  1  0
  7  8  2  0
  7  6  1  0
  8  4  1  0
  9 10  2  0
 11 12  1  0
 12 13  2  0
 12 14  1  0
 14 15  1  0
 16 15  1  6
 16 18  1  0
 17 16  1  0
 17  9  1  0
 18 19  2  0
 21 20  1  1
 21 23  1  0
 22 21  1  0
 22 18  1  0
 23 24  2  0
 23 25  1  0
M  END
$$$$
