HQA.pdb
     RDKit          3D

 25 25  0  0  1  0  0  0  0  0999 V2000
    9.8989  -16.0448   17.6569 N   0  0  0  0  0  0  0  0  0  0  0  0
   10.6275  -15.0083   18.3617 C   0  0  1  0  0  0  0  0  0  0  0  0
    9.7845  -14.5408   19.5069 C   0  0  0  0  0  0  0  0  0  0  0  0
    8.5982  -13.8379   18.9532 C   0  0  0  0  0  0  0  0  0  0  0  0
    8.2516  -13.6049   17.6358 C   0  0  0  0  0  0  0  0  0  0  0  0
    7.0935  -12.9284   17.5732 N   0  0  0  0  0  0  0  0  0  0  0  0
    6.6974  -12.7267   18.8188 C   0  0  0  0  0  0  0  0  0  0  0  0
    7.6010  -13.2736   19.6813 N   0  0  0  0  0  0  0  0  0  0  0  0
   11.9752  -15.4340   18.7569 C   0  0  0  0  0  0  0  0  0  0  0  0
   12.1280  -16.5994   19.1998 O   0  0  0  0  0  0  0  0  0  0  0  0
   19.0437  -13.1910   18.5400 N   0  0  0  0  0  0  0  0  0  0  0  0
   17.8122  -13.5726   17.9654 C   0  0  0  0  0  0  0  0  0  0  0  0
   17.5397  -13.0490   16.8316 O   0  0  0  0  0  0  0  0  0  0  0  0
   16.8770  -14.5269   18.6294 C   0  0  0  0  0  0  0  0  0  0  0  0
   15.4723  -14.0426   18.3722 C   0  0  0  0  0  0  0  0  0  0  0  0
   14.4262  -14.9209   18.9937 C   0  0  2  0  0  0  0  0  0  0  0  0
   13.0816  -14.5501   18.6417 N   0  0  0  0  0  0  0  0  0  0  0  0
   14.6028  -14.9017   20.4541 C   0  0  0  0  0  0  0  0  0  0  0  0
   14.3697  -13.8619   21.0938 O   0  0  0  0  0  0  0  0  0  0  0  0
   14.5600  -17.4217   23.0170 C   0  0  0  0  0  0  0  0  0  0  0  0
   15.1226  -16.0789   22.5577 C   0  0  2  0  0  0  0  0  0  0  0  0
   15.0356  -16.0630   21.1200 N   0  0  0  0  0  0  0  0  0  0  0  0
   16.5258  -15.9797   23.0083 C   0  0  0  0  0  0  0  0  0  0  0  0
   17.4521  -16.0699   22.1864 O   0  0  0  0  0  0  0  0  0  0  0  0
   16.8407  -15.7850   24.3498 O   0  0  0  0  0  0  0  0  0  0  0  0
  2  1  1  1
  2  3  1  0
  2  9  1  0
  4  5  2  0
  4  3  1  0
  6  5  1  0
  7  8  2  0
  7  6  1  0
  8  4  1  0
  9 10  2  0
 11 12  1  0
 12 13  2  0
 12 14  1  0
 14 15  1  0
 16 15  1  6
 16 18  1  0
 17 16  1  0
 17  9  1  0
 18 19  2  0
 21 20  1  6
 21 23  1  0
 22 21  1  0
 22 18  1  0
 23 24  2  0
 23 25  1  0
M  END
$$$$
