HQA.pdb
     RDKit          3D

 25 25  0  0  1  0  0  0  0  0999 V2000
    7.6978  -17.3496   19.8833 N   0  0  0  0  0  0  0  0  0  0  0  0
    7.6530  -16.0626   20.5492 C   0  0  1  0  0  0  0  0  0  0  0  0
    6.7363  -15.1676   19.7752 C   0  0  0  0  0  0  0  0  0  0  0  0
    7.5113  -14.5603   18.6623 C   0  0  0  0  0  0  0  0  0  0  0  0
    8.8289  -14.7625   18.2975 C   0  0  0  0  0  0  0  0  0  0  0  0
    9.1349  -14.0111   17.2277 N   0  0  0  0  0  0  0  0  0  0  0  0
    8.0434  -13.3374   16.9053 C   0  0  0  0  0  0  0  0  0  0  0  0
    7.0366  -13.6560   17.7680 N   0  0  0  0  0  0  0  0  0  0  0  0
    7.3066  -16.1739   21.9710 C   0  0  0  0  0  0  0  0  0  0  0  0
    6.2322  -16.7457   22.2813 O   0  0  0  0  0  0  0  0  0  0  0  0
   10.1078  -18.5785   26.5046 N   0  0  0  0  0  0  0  0  0  0  0  0
   10.8136  -17.7201   25.6343 C   0  0  0  0  0  0  0  0  0  0  0  0
   12.0800  -17.8880   25.5908 O   0  0  0  0  0  0  0  0  0  0  0  0
   10.1358  -16.6769   24.8104 C   0  0  0  0  0  0  0  0  0  0  0  0
    8.6615  -16.7365   25.1215 C   0  0  0  0  0  0  0  0  0  0  0  0
    7.8633  -15.7054   24.3788 C   0  0  2  0  0  0  0  0  0  0  0  0
    8.1651  -15.6479   22.9734 N   0  0  0  0  0  0  0  0  0  0  0  0
    8.0847  -14.3949   25.0097 C   0  0  0  0  0  0  0  0  0  0  0  0
    9.0806  -13.7182   24.7017 O   0  0  0  0  0  0  0  0  0  0  0  0
    5.9792  -12.0114   26.7622 C   0  0  0  0  0  0  0  0  0  0  0  0
    7.3645  -12.6216   26.5646 C   0  0  2  0  0  0  0  0  0  0  0  0
    7.1658  -13.9139   25.9603 N   0  0  0  0  0  0  0  0  0  0  0  0
    8.0152  -12.7446   27.8850 C   0  0  0  0  0  0  0  0  0  0  0  0
    8.1909  -13.8647   28.3913 O   0  0  0  0  0  0  0  0  0  0  0  0
    8.4425  -11.6210   28.5862 O   0  0  0  0  0  0  0  0  0  0  0  0
  2  1  1  6
  2  3  1  0
  2  9  1  0
  4  5  2  0
  4  3  1  0
  6  5  1  0
  7  8  2  0
  7  6  1  0
  8  4  1  0
  9 10  2  0
 11 12  1  0
 12 13  2  0
 12 14  1  0
 14 15  1  0
 16 15  1  1
 16 18  1  0
 17 16  1  0
 17  9  1  0
 18 19  2  0
 21 20  1  1
 21 23  1  0
 22 21  1  0
 22 18  1  0
 23 24  2  0
 23 25  1  0
M  END
$$$$
