HQA.pdb
     RDKit          3D

 25 25  0  0  1  0  0  0  0  0999 V2000
    8.0841  -17.6509   19.9855 N   0  0  0  0  0  0  0  0  0  0  0  0
    7.7600  -16.3699   20.5821 C   0  0  1  0  0  0  0  0  0  0  0  0
    6.7889  -15.6687   19.6844 C   0  0  0  0  0  0  0  0  0  0  0  0
    7.5603  -14.8233   18.7367 C   0  0  0  0  0  0  0  0  0  0  0  0
    8.9283  -14.6935   18.5896 C   0  0  0  0  0  0  0  0  0  0  0  0
    9.2090  -13.8180   17.6111 N   0  0  0  0  0  0  0  0  0  0  0  0
    8.0522  -13.3895   17.1343 C   0  0  0  0  0  0  0  0  0  0  0  0
    7.0288  -13.9896   17.8064 N   0  0  0  0  0  0  0  0  0  0  0  0
    7.2972  -16.4937   21.9693 C   0  0  0  0  0  0  0  0  0  0  0  0
    6.3627  -17.2951   22.2182 O   0  0  0  0  0  0  0  0  0  0  0  0
    9.3721  -19.0815   26.3666 N   0  0  0  0  0  0  0  0  0  0  0  0
    8.4098  -18.3420   27.0873 C   0  0  0  0  0  0  0  0  0  0  0  0
    8.2536  -18.6738   28.3118 O   0  0  0  0  0  0  0  0  0  0  0  0
    7.6169  -17.2388   26.4704 C   0  0  0  0  0  0  0  0  0  0  0  0
    8.2059  -16.9588   25.1107 C   0  0  0  0  0  0  0  0  0  0  0  0
    7.5106  -15.8417   24.3892 C   0  0  2  0  0  0  0  0  0  0  0  0
    7.8912  -15.7259   23.0067 N   0  0  0  0  0  0  0  0  0  0  0  0
    7.7734  -14.5837   25.1054 C   0  0  0  0  0  0  0  0  0  0  0  0
    8.9153  -14.0931   25.0994 O   0  0  0  0  0  0  0  0  0  0  0  0
    5.6165  -12.1225   26.8554 C   0  0  0  0  0  0  0  0  0  0  0  0
    6.9795  -12.7108   26.4993 C   0  0  2  0  0  0  0  0  0  0  0  0
    6.7283  -13.9417   25.7945 N   0  0  0  0  0  0  0  0  0  0  0  0
    7.7259  -12.9554   27.7504 C   0  0  0  0  0  0  0  0  0  0  0  0
    7.9339  -14.1176   28.1349 O   0  0  0  0  0  0  0  0  0  0  0  0
    8.2087  -11.9014   28.5201 O   0  0  0  0  0  0  0  0  0  0  0  0
  2  1  1  6
  2  3  1  0
  2  9  1  0
  4  5  2  0
  4  3  1  0
  6  5  1  0
  7  8  2  0
  7  6  1  0
  8  4  1  0
  9 10  2  0
 11 12  1  0
 12 13  2  0
 12 14  1  0
 14 15  1  0
 16 15  1  1
 16 18  1  0
 17 16  1  0
 17  9  1  0
 18 19  2  0
 21 20  1  1
 21 23  1  0
 22 21  1  0
 22 18  1  0
 23 24  2  0
 23 25  1  0
M  END
$$$$
