HQA.pdb
     RDKit          3D

 25 25  0  0  1  0  0  0  0  0999 V2000
    9.7792  -20.4533   17.0779 N   0  0  0  0  0  0  0  0  0  0  0  0
   10.3712  -19.3189   17.7595 C   0  0  1  0  0  0  0  0  0  0  0  0
   10.3047  -18.1367   16.8438 C   0  0  0  0  0  0  0  0  0  0  0  0
   11.3416  -18.3049   15.7930 C   0  0  0  0  0  0  0  0  0  0  0  0
   12.7181  -18.2414   15.8998 C   0  0  0  0  0  0  0  0  0  0  0  0
   13.2868  -18.4509   14.7017 N   0  0  0  0  0  0  0  0  0  0  0  0
   12.3045  -18.6456   13.8378 C   0  0  0  0  0  0  0  0  0  0  0  0
   11.1051  -18.5613   14.4810 N   0  0  0  0  0  0  0  0  0  0  0  0
    9.7740  -19.0777   19.0782 C   0  0  0  0  0  0  0  0  0  0  0  0
    8.5632  -18.7484   19.1348 O   0  0  0  0  0  0  0  0  0  0  0  0
   11.0306  -22.8798   22.5419 N   0  0  0  0  0  0  0  0  0  0  0  0
    9.7492  -22.7227   21.9710 C   0  0  0  0  0  0  0  0  0  0  0  0
    9.1968  -23.7909   21.5377 O   0  0  0  0  0  0  0  0  0  0  0  0
    9.0701  -21.3978   21.8731 C   0  0  0  0  0  0  0  0  0  0  0  0
   10.0323  -20.3533   22.3803 C   0  0  0  0  0  0  0  0  0  0  0  0
    9.9910  -19.0820   21.5842 C   0  0  2  0  0  0  0  0  0  0  0  0
   10.5459  -19.2130   20.2634 N   0  0  0  0  0  0  0  0  0  0  0  0
   10.6927  -18.0316   22.3384 C   0  0  0  0  0  0  0  0  0  0  0  0
   11.9272  -17.9209   22.2462 O   0  0  0  0  0  0  0  0  0  0  0  0
    9.5562  -15.1427   24.3665 C   0  0  0  0  0  0  0  0  0  0  0  0
   10.6366  -16.1008   23.8713 C   0  0  2  0  0  0  0  0  0  0  0  0
    9.9607  -17.1564   23.1616 N   0  0  0  0  0  0  0  0  0  0  0  0
   11.3678  -16.6280   25.0416 C   0  0  0  0  0  0  0  0  0  0  0  0
   11.0902  -17.7497   25.4963 O   0  0  0  0  0  0  0  0  0  0  0  0
   12.3741  -15.8892   25.6563 O   0  0  0  0  0  0  0  0  0  0  0  0
  2  1  1  6
  2  3  1  0
  2  9  1  0
  4  5  2  0
  4  3  1  0
  6  5  1  0
  7  8  2  0
  7  6  1  0
  8  4  1  0
  9 10  2  0
 11 12  1  0
 12 13  2  0
 12 14  1  0
 14 15  1  0
 16 15  1  1
 16 18  1  0
 17 16  1  0
 17  9  1  0
 18 19  2  0
 21 20  1  1
 21 23  1  0
 22 21  1  0
 22 18  1  0
 23 24  2  0
 23 25  1  0
M  END
$$$$
