HQA.pdb
     RDKit          3D

 25 25  0  0  1  0  0  0  0  0999 V2000
    7.2120  -16.9342   20.2340 N   0  0  0  0  0  0  0  0  0  0  0  0
    7.5594  -15.7616   21.0127 C   0  0  1  0  0  0  0  0  0  0  0  0
    6.8665  -14.5790   20.4111 C   0  0  0  0  0  0  0  0  0  0  0  0
    7.6122  -14.1756   19.1908 C   0  0  0  0  0  0  0  0  0  0  0  0
    8.5271  -13.1541   19.0187 C   0  0  0  0  0  0  0  0  0  0  0  0
    8.9660  -13.1330   17.7500 N   0  0  0  0  0  0  0  0  0  0  0  0
    8.3518  -14.1162   17.1135 C   0  0  0  0  0  0  0  0  0  0  0  0
    7.5185  -14.7687   17.9733 N   0  0  0  0  0  0  0  0  0  0  0  0
    7.2926  -15.9355   22.4453 C   0  0  0  0  0  0  0  0  0  0  0  0
    6.1108  -16.1523   22.8111 O   0  0  0  0  0  0  0  0  0  0  0  0
   10.9440  -18.3258   26.8434 N   0  0  0  0  0  0  0  0  0  0  0  0
    9.9616  -17.6810   27.6253 C   0  0  0  0  0  0  0  0  0  0  0  0
   10.0145  -17.9041   28.8828 O   0  0  0  0  0  0  0  0  0  0  0  0
    8.9202  -16.7913   27.0336 C   0  0  0  0  0  0  0  0  0  0  0  0
    9.1249  -16.7802   25.5396 C   0  0  0  0  0  0  0  0  0  0  0  0
    8.1286  -15.9211   24.8176 C   0  0  2  0  0  0  0  0  0  0  0  0
    8.3452  -15.8606   23.3967 N   0  0  0  0  0  0  0  0  0  0  0  0
    8.1587  -14.5720   25.4036 C   0  0  0  0  0  0  0  0  0  0  0  0
    9.1722  -13.8636   25.2788 O   0  0  0  0  0  0  0  0  0  0  0  0
    5.6103  -12.3961   26.9779 C   0  0  0  0  0  0  0  0  0  0  0  0
    7.0599  -12.7695   26.6783 C   0  0  2  0  0  0  0  0  0  0  0  0
    7.0374  -14.0902   26.1036 N   0  0  0  0  0  0  0  0  0  0  0  0
    7.8198  -12.7520   27.9450 C   0  0  0  0  0  0  0  0  0  0  0  0
    8.2195  -13.8152   28.4467 O   0  0  0  0  0  0  0  0  0  0  0  0
    8.1032  -11.5572   28.5996 O   0  0  0  0  0  0  0  0  0  0  0  0
  2  1  1  6
  2  3  1  0
  2  9  1  0
  4  5  2  0
  4  3  1  0
  6  5  1  0
  7  8  2  0
  7  6  1  0
  8  4  1  0
  9 10  2  0
 11 12  1  0
 12 13  2  0
 12 14  1  0
 14 15  1  0
 16 15  1  1
 16 18  1  0
 17 16  1  0
 17  9  1  0
 18 19  2  0
 21 20  1  1
 21 23  1  0
 22 21  1  0
 22 18  1  0
 23 24  2  0
 23 25  1  0
M  END
$$$$
