HQA.pdb
     RDKit          3D

 25 25  0  0  1  0  0  0  0  0999 V2000
    8.7886  -16.0561   20.4466 N   0  0  0  0  0  0  0  0  0  0  0  0
    7.7416  -15.0894   20.7131 C   0  0  1  0  0  0  0  0  0  0  0  0
    6.7200  -15.1948   19.6241 C   0  0  0  0  0  0  0  0  0  0  0  0
    7.2473  -14.4953   18.4239 C   0  0  0  0  0  0  0  0  0  0  0  0
    8.4840  -13.9132   18.2197 C   0  0  0  0  0  0  0  0  0  0  0  0
    8.5505  -13.3848   16.9872 N   0  0  0  0  0  0  0  0  0  0  0  0
    7.3861  -13.6177   16.4049 C   0  0  0  0  0  0  0  0  0  0  0  0
    6.5719  -14.2956   17.2634 N   0  0  0  0  0  0  0  0  0  0  0  0
    7.1806  -15.2217   22.0627 C   0  0  0  0  0  0  0  0  0  0  0  0
    6.2601  -14.4395   22.4067 O   0  0  0  0  0  0  0  0  0  0  0  0
    8.1498  -20.0451   26.0844 N   0  0  0  0  0  0  0  0  0  0  0  0
    7.4695  -19.1020   26.8845 C   0  0  0  0  0  0  0  0  0  0  0  0
    7.1851  -19.4797   28.0721 O   0  0  0  0  0  0  0  0  0  0  0  0
    7.0993  -17.7448   26.3873 C   0  0  0  0  0  0  0  0  0  0  0  0
    7.5122  -17.6609   24.9394 C   0  0  0  0  0  0  0  0  0  0  0  0
    7.2224  -16.3235   24.3235 C   0  0  2  0  0  0  0  0  0  0  0  0
    7.6662  -16.2107   22.9598 N   0  0  0  0  0  0  0  0  0  0  0  0
    7.8382  -15.2787   25.1562 C   0  0  0  0  0  0  0  0  0  0  0  0
    9.0723  -15.1319   25.1558 O   0  0  0  0  0  0  0  0  0  0  0  0
    6.4944  -12.5004   27.2112 C   0  0  0  0  0  0  0  0  0  0  0  0
    7.6225  -13.4331   26.7774 C   0  0  2  0  0  0  0  0  0  0  0  0
    7.0248  -14.4496   25.9502 N   0  0  0  0  0  0  0  0  0  0  0  0
    8.2354  -14.0211   27.9860 C   0  0  0  0  0  0  0  0  0  0  0  0
    8.0786  -15.2262   28.2408 O   0  0  0  0  0  0  0  0  0  0  0  0
    8.9948  -13.2478   28.8588 O   0  0  0  0  0  0  0  0  0  0  0  0
  2  1  1  6
  2  3  1  0
  2  9  1  0
  4  5  2  0
  4  3  1  0
  6  5  1  0
  7  8  2  0
  7  6  1  0
  8  4  1  0
  9 10  2  0
 11 12  1  0
 12 13  2  0
 12 14  1  0
 14 15  1  0
 16 15  1  1
 16 18  1  0
 17 16  1  0
 17  9  1  0
 18 19  2  0
 21 20  1  1
 21 23  1  0
 22 21  1  0
 22 18  1  0
 23 24  2  0
 23 25  1  0
M  END
$$$$
