HQA.pdb
     RDKit          3D

 25 25  0  0  1  0  0  0  0  0999 V2000
    6.5149  -16.1516   20.8709 N   0  0  0  0  0  0  0  0  0  0  0  0
    7.3159  -15.2540   21.6799 C   0  0  1  0  0  0  0  0  0  0  0  0
    7.1417  -13.8653   21.1490 C   0  0  0  0  0  0  0  0  0  0  0  0
    7.7049  -13.8200   19.7748 C   0  0  0  0  0  0  0  0  0  0  0  0
    7.1385  -13.3391   18.6094 C   0  0  0  0  0  0  0  0  0  0  0  0
    7.9905  -13.4896   17.5827 N   0  0  0  0  0  0  0  0  0  0  0  0
    9.0833  -14.0542   18.0687 C   0  0  0  0  0  0  0  0  0  0  0  0
    8.9331  -14.2663   19.4073 N   0  0  0  0  0  0  0  0  0  0  0  0
    7.0285  -15.3775   23.1138 C   0  0  0  0  0  0  0  0  0  0  0  0
    6.0174  -14.7910   23.5733 O   0  0  0  0  0  0  0  0  0  0  0  0
    8.5472  -21.1335   26.0025 N   0  0  0  0  0  0  0  0  0  0  0  0
    7.7887  -19.9441   26.0519 C   0  0  0  0  0  0  0  0  0  0  0  0
    6.6511  -20.0315   26.6283 O   0  0  0  0  0  0  0  0  0  0  0  0
    8.2727  -18.6577   25.4713 C   0  0  0  0  0  0  0  0  0  0  0  0
    7.2965  -17.5804   25.8719 C   0  0  0  0  0  0  0  0  0  0  0  0
    7.6968  -16.2172   25.3887 C   0  0  2  0  0  0  0  0  0  0  0  0
    7.8731  -16.1419   23.9630 N   0  0  0  0  0  0  0  0  0  0  0  0
    8.9289  -15.8145   26.0845 C   0  0  0  0  0  0  0  0  0  0  0  0
   10.0359  -16.0363   25.5647 O   0  0  0  0  0  0  0  0  0  0  0  0
    9.7302  -13.4677   28.7376 C   0  0  0  0  0  0  0  0  0  0  0  0
   10.0495  -14.7772   28.0208 C   0  0  2  0  0  0  0  0  0  0  0  0
    8.8471  -15.1791   27.3371 N   0  0  0  0  0  0  0  0  0  0  0  0
   10.4493  -15.7788   29.0302 C   0  0  0  0  0  0  0  0  0  0  0  0
    9.7320  -16.7698   29.2430 O   0  0  0  0  0  0  0  0  0  0  0  0
   11.6262  -15.6380   29.7593 O   0  0  0  0  0  0  0  0  0  0  0  0
  2  1  1  6
  2  3  1  0
  2  9  1  0
  4  5  2  0
  4  3  1  0
  6  5  1  0
  7  8  2  0
  7  6  1  0
  8  4  1  0
  9 10  2  0
 11 12  1  0
 12 13  2  0
 12 14  1  0
 14 15  1  0
 16 15  1  6
 16 18  1  0
 17 16  1  0
 17  9  1  0
 18 19  2  0
 21 20  1  1
 21 23  1  0
 22 21  1  0
 22 18  1  0
 23 24  2  0
 23 25  1  0
M  END
$$$$
