YWL.pdb
     RDKit          3D

 35 37  0  0  1  0  0  0  0  0999 V2000
   24.7254  -14.5218  -18.9348 O   0  0  0  0  0  0  0  0  0  0  0  0
   25.4067  -15.1800  -17.9203 C   0  0  0  0  0  0  0  0  0  0  0  0
   25.6791  -14.5498  -16.7288 C   0  0  0  0  0  0  0  0  0  0  0  0
   26.3552  -15.2074  -15.7263 C   0  0  0  0  0  0  0  0  0  0  0  0
   26.7852  -16.5107  -15.8669 C   0  0  0  0  0  0  0  0  0  0  0  0
   27.5051  -17.2427  -14.8223 C   0  0  0  0  0  0  0  0  0  0  0  0
   26.8189  -18.5115  -14.3805 C   0  0  2  0  0  0  0  0  0  0  0  0
   25.4824  -18.2207  -13.9393 N   0  0  0  0  0  0  0  0  0  0  0  0
   27.6440  -19.1481  -13.3228 C   0  0  0  0  0  0  0  0  0  0  0  0
   28.8908  -18.9834  -13.3419 O   0  0  0  0  0  0  0  0  0  0  0  0
   26.5126  -17.1460  -17.0632 C   0  0  0  0  0  0  0  0  0  0  0  0
   25.8291  -16.4829  -18.0787 C   0  0  0  0  0  0  0  0  0  0  0  0
   27.1144  -19.9455  -12.2706 N   0  0  0  0  0  0  0  0  0  0  0  0
   27.0672  -21.3849  -12.2883 C   0  0  1  0  0  0  0  0  0  0  0  0
   27.1828  -22.0491  -10.9632 C   0  0  0  0  0  0  0  0  0  0  0  0
   26.8608  -21.2540   -9.7893 C   0  0  0  0  0  0  0  0  0  0  0  0
   25.6656  -20.5875   -9.5771 C   0  0  0  0  0  0  0  0  0  0  0  0
   25.7182  -19.9434   -8.3947 N   0  0  0  0  0  0  0  0  0  0  0  0
   26.9255  -20.1616   -7.8032 C   0  0  0  0  0  0  0  0  0  0  0  0
   27.4421  -19.7270   -6.6073 C   0  0  0  0  0  0  0  0  0  0  0  0
   28.7078  -20.1015   -6.2350 C   0  0  0  0  0  0  0  0  0  0  0  0
   29.4140  -20.9129   -7.0978 C   0  0  0  0  0  0  0  0  0  0  0  0
   28.8892  -21.3440   -8.2945 C   0  0  0  0  0  0  0  0  0  0  0  0
   27.6269  -20.9821   -8.6871 C   0  0  0  0  0  0  0  0  0  0  0  0
   25.8600  -21.8054  -13.0642 C   0  0  0  0  0  0  0  0  0  0  0  0
   25.6130  -23.0204  -13.2683 O   0  0  0  0  0  0  0  0  0  0  0  0
   21.5984  -21.8425  -12.4660 C   0  0  0  0  0  0  0  0  0  0  0  0
   22.0205  -20.3911  -12.7134 C   0  0  2  0  0  0  0  0  0  0  0  0
   20.8838  -19.4439  -12.4783 C   0  0  0  0  0  0  0  0  0  0  0  0
   22.6316  -20.2401  -14.0777 C   0  0  0  0  0  0  0  0  0  0  0  0
   23.7100  -21.2254  -14.2925 C   0  0  2  0  0  0  0  0  0  0  0  0
   24.9433  -20.8657  -13.6020 N   0  0  0  0  0  0  0  0  0  0  0  0
   23.9346  -21.5345  -15.6970 C   0  0  0  0  0  0  0  0  0  0  0  0
   25.2488  -21.4530  -16.2239 O   0  0  0  0  0  0  0  0  0  0  0  0
   23.0789  -21.8786  -16.5333 O   0  0  0  0  0  0  0  0  0  0  0  0
  2  1  1  0
  3  2  2  0
  4  3  1  0
  5  4  2  0
  5 11  1  0
  6  5  1  0
  7  6  1  0
  7  8  1  1
  9 13  1  0
  9  7  1  0
 10  9  2  0
 11 12  2  0
 12  2  1  0
 14 25  1  0
 14 13  1  0
 14 15  1  1
 16 17  2  0
 16 15  1  0
 18 17  1  0
 19 24  2  0
 19 18  1  0
 20 19  1  0
 21 22  1  0
 21 20  2  0
 22 23  2  0
 23 24  1  0
 24 16  1  0
 25 32  1  0
 26 25  2  0
 28 27  1  6
 28 30  1  0
 29 28  1  0
 31 33  1  0
 31 30  1  6
 32 31  1  0
 33 34  1  0
 35 33  2  0
M  END
$$$$
