YWL.pdb
     RDKit          3D

 35 37  0  0  1  0  0  0  0  0999 V2000
   29.4614  -16.5731  -18.9707 O   0  0  0  0  0  0  0  0  0  0  0  0
   28.8410  -17.2329  -17.9188 C   0  0  0  0  0  0  0  0  0  0  0  0
   27.8186  -18.1233  -18.1490 C   0  0  0  0  0  0  0  0  0  0  0  0
   27.2071  -18.7746  -17.1020 C   0  0  0  0  0  0  0  0  0  0  0  0
   27.5849  -18.5682  -15.7913 C   0  0  0  0  0  0  0  0  0  0  0  0
   26.9591  -19.2440  -14.6525 C   0  0  0  0  0  0  0  0  0  0  0  0
   27.7628  -20.3994  -14.1093 C   0  0  2  0  0  0  0  0  0  0  0  0
   27.8437  -21.4472  -15.0897 N   0  0  0  0  0  0  0  0  0  0  0  0
   27.1378  -20.8511  -12.8404 C   0  0  0  0  0  0  0  0  0  0  0  0
   26.1199  -21.5881  -12.8919 O   0  0  0  0  0  0  0  0  0  0  0  0
   28.6119  -17.6740  -15.5576 C   0  0  0  0  0  0  0  0  0  0  0  0
   29.2320  -17.0140  -16.6149 C   0  0  0  0  0  0  0  0  0  0  0  0
   27.6176  -20.5027  -11.5474 N   0  0  0  0  0  0  0  0  0  0  0  0
   26.9687  -20.8695  -10.3151 C   0  0  1  0  0  0  0  0  0  0  0  0
   27.7964  -20.7365   -9.0872 C   0  0  0  0  0  0  0  0  0  0  0  0
   27.1005  -20.7457   -7.8107 C   0  0  0  0  0  0  0  0  0  0  0  0
   25.8994  -21.3872   -7.5584 C   0  0  0  0  0  0  0  0  0  0  0  0
   25.5415  -21.1751   -6.2766 N   0  0  0  0  0  0  0  0  0  0  0  0
   26.4772  -20.4030   -5.6575 C   0  0  0  0  0  0  0  0  0  0  0  0
   26.5565  -19.9298   -4.3708 C   0  0  0  0  0  0  0  0  0  0  0  0
   27.6275  -19.1618   -3.9916 C   0  0  0  0  0  0  0  0  0  0  0  0
   28.5921  -18.8969   -4.9408 C   0  0  0  0  0  0  0  0  0  0  0  0
   28.5051  -19.3747   -6.2282 C   0  0  0  0  0  0  0  0  0  0  0  0
   27.4439  -20.1438   -6.6294 C   0  0  0  0  0  0  0  0  0  0  0  0
   25.6637  -20.1435  -10.2376 C   0  0  0  0  0  0  0  0  0  0  0  0
   25.6021  -18.9020  -10.4209 O   0  0  0  0  0  0  0  0  0  0  0  0
   23.6007  -19.9039  -13.6868 C   0  0  0  0  0  0  0  0  0  0  0  0
   23.2202  -20.6494  -12.4041 C   0  0  2  0  0  0  0  0  0  0  0  0
   22.2093  -21.7216  -12.6746 C   0  0  0  0  0  0  0  0  0  0  0  0
   22.7762  -19.6854  -11.3405 C   0  0  0  0  0  0  0  0  0  0  0  0
   23.1324  -20.1741   -9.9936 C   0  0  2  0  0  0  0  0  0  0  0  0
   24.4438  -20.8114   -9.9574 N   0  0  0  0  0  0  0  0  0  0  0  0
   22.0993  -21.0041   -9.3915 C   0  0  0  0  0  0  0  0  0  0  0  0
   22.4603  -22.2424   -8.8017 O   0  0  0  0  0  0  0  0  0  0  0  0
   20.8819  -20.7522   -9.3248 O   0  0  0  0  0  0  0  0  0  0  0  0
  2  1  1  0
  3  2  2  0
  4  3  1  0
  5  4  2  0
  5 11  1  0
  6  5  1  0
  7  6  1  0
  7  8  1  6
  9 13  1  0
  9  7  1  0
 10  9  2  0
 11 12  2  0
 12  2  1  0
 14 25  1  0
 14 13  1  0
 14 15  1  1
 16 17  2  0
 16 15  1  0
 18 17  1  0
 19 24  2  0
 19 18  1  0
 20 19  1  0
 21 22  1  0
 21 20  2  0
 22 23  2  0
 23 24  1  0
 24 16  1  0
 25 32  1  0
 26 25  2  0
 28 27  1  6
 28 30  1  0
 29 28  1  0
 31 33  1  0
 31 30  1  6
 32 31  1  0
 33 34  1  0
 35 33  2  0
M  END
$$$$
