YWL.pdb
     RDKit          3D

 35 37  0  0  1  0  0  0  0  0999 V2000
   30.0969  -15.7598  -18.5152 O   0  0  0  0  0  0  0  0  0  0  0  0
   29.3302  -16.6610  -17.7895 C   0  0  0  0  0  0  0  0  0  0  0  0
   28.8953  -16.3565  -16.5210 C   0  0  0  0  0  0  0  0  0  0  0  0
   28.1354  -17.2541  -15.8060 C   0  0  0  0  0  0  0  0  0  0  0  0
   27.7790  -18.4836  -16.3203 C   0  0  0  0  0  0  0  0  0  0  0  0
   26.9706  -19.4629  -15.5902 C   0  0  0  0  0  0  0  0  0  0  0  0
   27.7398  -20.2363  -14.5481 C   0  0  2  0  0  0  0  0  0  0  0  0
   28.7950  -20.9872  -15.1711 N   0  0  0  0  0  0  0  0  0  0  0  0
   26.7868  -21.0987  -13.8046 C   0  0  0  0  0  0  0  0  0  0  0  0
   26.4693  -22.2146  -14.2903 O   0  0  0  0  0  0  0  0  0  0  0  0
   28.2148  -18.7918  -17.5947 C   0  0  0  0  0  0  0  0  0  0  0  0
   28.9836  -17.8856  -18.3198 C   0  0  0  0  0  0  0  0  0  0  0  0
   26.1967  -20.7456  -12.5593 N   0  0  0  0  0  0  0  0  0  0  0  0
   25.0918  -21.4461  -11.9572 C   0  0  1  0  0  0  0  0  0  0  0  0
   25.2083  -21.6980  -10.4966 C   0  0  0  0  0  0  0  0  0  0  0  0
   26.1537  -20.8810   -9.7532 C   0  0  0  0  0  0  0  0  0  0  0  0
   25.8200  -19.8140   -8.9360 C   0  0  0  0  0  0  0  0  0  0  0  0
   26.9439  -19.2806   -8.4182 N   0  0  0  0  0  0  0  0  0  0  0  0
   28.0309  -19.9663   -8.8691 C   0  0  0  0  0  0  0  0  0  0  0  0
   29.3722  -19.8050   -8.6226 C   0  0  0  0  0  0  0  0  0  0  0  0
   30.2795  -20.6499   -9.2089 C   0  0  0  0  0  0  0  0  0  0  0  0
   29.7901  -21.6404  -10.0342 C   0  0  0  0  0  0  0  0  0  0  0  0
   28.4445  -21.7952  -10.2761 C   0  0  0  0  0  0  0  0  0  0  0  0
   27.5198  -20.9625   -9.7015 C   0  0  0  0  0  0  0  0  0  0  0  0
   23.8269  -20.7487  -12.3443 C   0  0  0  0  0  0  0  0  0  0  0  0
   23.6481  -19.5350  -12.0728 O   0  0  0  0  0  0  0  0  0  0  0  0
   22.2401  -19.1862  -16.2351 C   0  0  0  0  0  0  0  0  0  0  0  0
   22.3282  -20.5641  -15.5722 C   0  0  2  0  0  0  0  0  0  0  0  0
   22.5675  -21.6430  -16.5839 C   0  0  0  0  0  0  0  0  0  0  0  0
   21.1179  -20.8229  -14.7202 C   0  0  0  0  0  0  0  0  0  0  0  0
   21.4656  -20.8302  -13.2854 C   0  0  2  0  0  0  0  0  0  0  0  0
   22.7778  -21.4135  -13.0298 N   0  0  0  0  0  0  0  0  0  0  0  0
   20.4298  -21.4141  -12.4459 C   0  0  0  0  0  0  0  0  0  0  0  0
   19.1762  -20.7601  -12.3348 O   0  0  0  0  0  0  0  0  0  0  0  0
   20.5084  -22.4648  -11.7827 O   0  0  0  0  0  0  0  0  0  0  0  0
  2  1  1  0
  3  2  2  0
  4  3  1  0
  5  4  2  0
  5 11  1  0
  6  5  1  0
  7  6  1  0
  7  8  1  6
  9 13  1  0
  9  7  1  0
 10  9  2  0
 11 12  2  0
 12  2  1  0
 14 25  1  0
 14 13  1  0
 14 15  1  1
 16 17  2  0
 16 15  1  0
 18 17  1  0
 19 24  2  0
 19 18  1  0
 20 19  1  0
 21 22  1  0
 21 20  2  0
 22 23  2  0
 23 24  1  0
 24 16  1  0
 25 32  1  0
 26 25  2  0
 28 27  1  6
 28 30  1  0
 29 28  1  0
 31 33  1  0
 31 30  1  6
 32 31  1  0
 33 34  1  0
 35 33  2  0
M  END
$$$$
