YWL.pdb
     RDKit          3D

 35 37  0  0  1  0  0  0  0  0999 V2000
   17.1566  -22.7497  -14.8239 O   0  0  0  0  0  0  0  0  0  0  0  0
   18.4554  -22.3185  -14.5918 C   0  0  0  0  0  0  0  0  0  0  0  0
   19.4356  -23.2044  -14.2103 C   0  0  0  0  0  0  0  0  0  0  0  0
   20.7217  -22.7711  -13.9814 C   0  0  0  0  0  0  0  0  0  0  0  0
   21.0835  -21.4472  -14.1218 C   0  0  0  0  0  0  0  0  0  0  0  0
   22.4414  -20.9501  -13.8890 C   0  0  0  0  0  0  0  0  0  0  0  0
   22.8573  -20.9622  -12.4388 C   0  0  2  0  0  0  0  0  0  0  0  0
   21.9941  -20.1067  -11.6717 N   0  0  0  0  0  0  0  0  0  0  0  0
   24.2835  -20.5577  -12.3557 C   0  0  0  0  0  0  0  0  0  0  0  0
   24.5738  -19.3352  -12.4128 O   0  0  0  0  0  0  0  0  0  0  0  0
   20.1004  -20.5553  -14.5051 C   0  0  0  0  0  0  0  0  0  0  0  0
   18.7987  -20.9911  -14.7372 C   0  0  0  0  0  0  0  0  0  0  0  0
   25.3643  -21.4716  -12.2135 N   0  0  0  0  0  0  0  0  0  0  0  0
   26.7511  -21.0866  -12.1624 C   0  0  1  0  0  0  0  0  0  0  0  0
   27.4974  -21.5272  -10.9544 C   0  0  0  0  0  0  0  0  0  0  0  0
   27.1221  -20.9277   -9.6841 C   0  0  0  0  0  0  0  0  0  0  0  0
   25.8673  -20.4312   -9.3730 C   0  0  0  0  0  0  0  0  0  0  0  0
   25.8810  -19.9397   -8.1184 N   0  0  0  0  0  0  0  0  0  0  0  0
   27.1203  -20.0944   -7.5751 C   0  0  0  0  0  0  0  0  0  0  0  0
   27.6182  -19.7593   -6.3400 C   0  0  0  0  0  0  0  0  0  0  0  0
   28.9268  -20.0339   -6.0349 C   0  0  0  0  0  0  0  0  0  0  0  0
   29.6941  -20.6458   -7.0036 C   0  0  0  0  0  0  0  0  0  0  0  0
   29.1876  -20.9783   -8.2390 C   0  0  0  0  0  0  0  0  0  0  0  0
   27.8832  -20.7131   -8.5659 C   0  0  0  0  0  0  0  0  0  0  0  0
   27.3991  -21.4945  -13.4469 C   0  0  0  0  0  0  0  0  0  0  0  0
   27.8380  -22.6607  -13.6084 O   0  0  0  0  0  0  0  0  0  0  0  0
   26.6740  -22.8168  -18.0108 C   0  0  0  0  0  0  0  0  0  0  0  0
   25.5946  -21.8572  -17.5009 C   0  0  2  0  0  0  0  0  0  0  0  0
   25.4379  -20.6776  -18.4112 C   0  0  0  0  0  0  0  0  0  0  0  0
   25.8643  -21.4617  -16.0766 C   0  0  0  0  0  0  0  0  0  0  0  0
   27.2312  -20.9261  -15.9201 C   0  0  2  0  0  0  0  0  0  0  0  0
   27.5488  -20.5968  -14.5352 N   0  0  0  0  0  0  0  0  0  0  0  0
   27.5260  -19.8284  -16.8293 C   0  0  0  0  0  0  0  0  0  0  0  0
   26.9474  -18.5556  -16.5911 O   0  0  0  0  0  0  0  0  0  0  0  0
   28.2569  -19.8670  -17.8364 O   0  0  0  0  0  0  0  0  0  0  0  0
  2  1  1  0
  3  2  2  0
  4  3  1  0
  5  4  2  0
  5 11  1  0
  6  5  1  0
  7  6  1  0
  7  8  1  1
  9 13  1  0
  9  7  1  0
 10  9  2  0
 11 12  2  0
 12  2  1  0
 14 25  1  0
 14 13  1  0
 14 15  1  1
 16 17  2  0
 16 15  1  0
 18 17  1  0
 19 24  2  0
 19 18  1  0
 20 19  1  0
 21 22  1  0
 21 20  2  0
 22 23  2  0
 23 24  1  0
 24 16  1  0
 25 32  1  0
 26 25  2  0
 28 27  1  6
 28 30  1  0
 29 28  1  0
 31 33  1  0
 31 30  1  1
 32 31  1  0
 33 34  1  0
 35 33  2  0
M  END
$$$$
