FPQ.pdb
     RDKit          3D

 28 29  0  0  1  0  0  0  0  0999 V2000
   25.4701  -19.0038   -8.0373 N   0  0  0  0  0  0  0  0  0  0  0  0
   26.6192  -19.6036   -8.6020 C   0  0  1  0  0  0  0  0  0  0  0  0
   27.1195  -20.7821   -7.8213 C   0  0  0  0  0  0  0  0  0  0  0  0
   27.7292  -20.3477   -6.5669 C   0  0  0  0  0  0  0  0  0  0  0  0
   26.9407  -20.4465   -5.4177 C   0  0  0  0  0  0  0  0  0  0  0  0
   27.4721  -20.0387   -4.2262 C   0  0  0  0  0  0  0  0  0  0  0  0
   28.7426  -19.5379   -4.1087 C   0  0  0  0  0  0  0  0  0  0  0  0
   29.4963  -19.4508   -5.2508 C   0  0  0  0  0  0  0  0  0  0  0  0
   29.0010  -19.8525   -6.4883 C   0  0  0  0  0  0  0  0  0  0  0  0
   26.3276  -20.0817   -9.9754 C   0  0  0  0  0  0  0  0  0  0  0  0
   25.1109  -20.2939  -10.3329 O   0  0  0  0  0  0  0  0  0  0  0  0
   27.3426  -20.3244  -10.9397 N   0  0  0  0  0  0  0  0  0  0  0  0
   28.6689  -20.7995  -10.6727 C   0  0  0  0  0  0  0  0  0  0  0  0
   29.3816  -20.9005  -12.0264 C   0  0  0  0  0  0  0  0  0  0  0  0
   28.5697  -19.9154  -12.8673 C   0  0  0  0  0  0  0  0  0  0  0  0
   27.1731  -20.1218  -12.3725 C   0  0  1  0  0  0  0  0  0  0  0  0
   26.5599  -21.3325  -12.9467 C   0  0  0  0  0  0  0  0  0  0  0  0
   26.8039  -22.4486  -12.4263 O   0  0  0  0  0  0  0  0  0  0  0  0
   21.2042  -21.8280  -11.8320 N   0  0  0  0  0  0  0  0  0  0  0  0
   21.6562  -20.5978  -12.3563 C   0  0  0  0  0  0  0  0  0  0  0  0
   20.9134  -19.5836  -12.2494 O   0  0  0  0  0  0  0  0  0  0  0  0
   22.9739  -20.5428  -13.0068 C   0  0  0  0  0  0  0  0  0  0  0  0
   23.6516  -21.9133  -12.9724 C   0  0  0  0  0  0  0  0  0  0  0  0
   24.5237  -22.0920  -14.2069 C   0  0  2  0  0  0  0  0  0  0  0  0
   25.6861  -21.2612  -14.0930 N   0  0  0  0  0  0  0  0  0  0  0  0
   23.7610  -21.8129  -15.4468 C   0  0  0  0  0  0  0  0  0  0  0  0
   23.9803  -20.6760  -16.2168 O   0  0  0  0  0  0  0  0  0  0  0  0
   22.8783  -22.6124  -15.8428 O   0  0  0  0  0  0  0  0  0  0  0  0
  2  1  1  1
  2  3  1  0
  4  3  1  0
  5  4  2  0
  6  5  1  0
  7  6  2  0
  7  8  1  0
  8  9  2  0
  9  4  1  0
 10 11  2  0
 10  2  1  0
 12 10  1  0
 13 12  1  0
 14 13  1  0
 15 14  1  0
 15 16  1  0
 16 12  1  0
 17 18  2  0
 16 17  1  6
 20 19  1  0
 21 20  2  0
 22 20  1  0
 23 22  1  0
 24 23  1  1
 24 25  1  0
 25 17  1  0
 26 24  1  0
 27 26  1  0
 28 26  2  0
M  END
$$$$
