FPQ.pdb
     RDKit          3D

 28 29  0  0  1  0  0  0  0  0999 V2000
   25.5215  -21.8716  -13.0397 N   0  0  0  0  0  0  0  0  0  0  0  0
   26.0616  -21.1115  -14.1025 C   0  0  1  0  0  0  0  0  0  0  0  0
   25.8611  -21.7434  -15.4475 C   0  0  0  0  0  0  0  0  0  0  0  0
   26.6793  -22.9464  -15.5786 C   0  0  0  0  0  0  0  0  0  0  0  0
   26.0207  -24.1717  -15.4484 C   0  0  0  0  0  0  0  0  0  0  0  0
   26.7545  -25.3201  -15.5532 C   0  0  0  0  0  0  0  0  0  0  0  0
   28.1063  -25.3232  -15.7802 C   0  0  0  0  0  0  0  0  0  0  0  0
   28.7297  -24.1082  -15.9042 C   0  0  0  0  0  0  0  0  0  0  0  0
   28.0271  -22.9103  -15.8051 C   0  0  0  0  0  0  0  0  0  0  0  0
   25.4276  -19.7716  -14.1507 C   0  0  0  0  0  0  0  0  0  0  0  0
   24.2868  -19.5843  -13.5879 O   0  0  0  0  0  0  0  0  0  0  0  0
   26.0252  -18.6582  -14.8004 N   0  0  0  0  0  0  0  0  0  0  0  0
   27.2431  -18.6720  -15.5571 C   0  0  0  0  0  0  0  0  0  0  0  0
   27.4690  -17.2396  -16.0547 C   0  0  0  0  0  0  0  0  0  0  0  0
   26.6568  -16.4371  -15.0384 C   0  0  0  0  0  0  0  0  0  0  0  0
   25.4687  -17.3117  -14.7910 C   0  0  1  0  0  0  0  0  0  0  0  0
   24.4753  -17.2086  -15.8746 C   0  0  0  0  0  0  0  0  0  0  0  0
   24.3462  -18.1628  -16.6801 O   0  0  0  0  0  0  0  0  0  0  0  0
   19.4886  -18.5248  -14.8954 N   0  0  0  0  0  0  0  0  0  0  0  0
   19.7916  -17.3134  -14.2371 C   0  0  0  0  0  0  0  0  0  0  0  0
   19.1290  -16.9989  -13.2107 O   0  0  0  0  0  0  0  0  0  0  0  0
   20.8666  -16.4635  -14.7704 C   0  0  0  0  0  0  0  0  0  0  0  0
   21.4791  -17.0892  -16.0242 C   0  0  0  0  0  0  0  0  0  0  0  0
   22.3912  -16.0841  -16.7131 C   0  0  2  0  0  0  0  0  0  0  0  0
   23.6493  -16.0353  -16.0281 N   0  0  0  0  0  0  0  0  0  0  0  0
   21.7520  -14.7495  -16.7962 C   0  0  0  0  0  0  0  0  0  0  0  0
   22.2169  -13.6543  -16.0763 O   0  0  0  0  0  0  0  0  0  0  0  0
   20.7531  -14.5686  -17.5342 O   0  0  0  0  0  0  0  0  0  0  0  0
  2  1  1  1
  2  3  1  0
  4  3  1  0
  5  4  2  0
  6  5  1  0
  7  6  2  0
  7  8  1  0
  8  9  2  0
  9  4  1  0
 10 11  2  0
 10  2  1  0
 12 10  1  0
 13 12  1  0
 14 13  1  0
 15 14  1  0
 15 16  1  0
 16 12  1  0
 17 18  2  0
 16 17  1  6
 20 19  1  0
 21 20  2  0
 22 20  1  0
 23 22  1  0
 24 23  1  1
 24 25  1  0
 25 17  1  0
 26 24  1  0
 27 26  1  0
 28 26  2  0
M  END
$$$$
