FPQ.pdb
     RDKit          3D

 28 29  0  0  1  0  0  0  0  0999 V2000
   23.5695  -21.4776  -14.7551 N   0  0  0  0  0  0  0  0  0  0  0  0
   22.5112  -20.7011  -14.2298 C   0  0  1  0  0  0  0  0  0  0  0  0
   21.3237  -20.6197  -15.1418 C   0  0  0  0  0  0  0  0  0  0  0  0
   21.6648  -19.9047  -16.3691 C   0  0  0  0  0  0  0  0  0  0  0  0
   21.6677  -20.6503  -17.5507 C   0  0  0  0  0  0  0  0  0  0  0  0
   21.9934  -20.0190  -18.7185 C   0  0  0  0  0  0  0  0  0  0  0  0
   22.3167  -18.6885  -18.7819 C   0  0  0  0  0  0  0  0  0  0  0  0
   22.3069  -17.9785  -17.6089 C   0  0  0  0  0  0  0  0  0  0  0  0
   21.9826  -18.5752  -16.3936 C   0  0  0  0  0  0  0  0  0  0  0  0
   22.0382  -21.2768  -12.9473 C   0  0  0  0  0  0  0  0  0  0  0  0
   22.1914  -22.5322  -12.7159 O   0  0  0  0  0  0  0  0  0  0  0  0
   21.4099  -20.4991  -11.9377 N   0  0  0  0  0  0  0  0  0  0  0  0
   21.0210  -19.1233  -12.0468 C   0  0  0  0  0  0  0  0  0  0  0  0
   20.3878  -18.7366  -10.7051 C   0  0  0  0  0  0  0  0  0  0  0  0
   21.0111  -19.7723   -9.7694 C   0  0  0  0  0  0  0  0  0  0  0  0
   21.0609  -21.0043  -10.6164 C   0  0  1  0  0  0  0  0  0  0  0  0
   19.7473  -21.6667  -10.7008 C   0  0  0  0  0  0  0  0  0  0  0  0
   19.0530  -21.5206  -11.7365 O   0  0  0  0  0  0  0  0  0  0  0  0
   17.5600  -25.4330   -6.1749 N   0  0  0  0  0  0  0  0  0  0  0  0
   18.8056  -25.5289   -6.8319 C   0  0  0  0  0  0  0  0  0  0  0  0
   19.7220  -26.2118   -6.2975 O   0  0  0  0  0  0  0  0  0  0  0  0
   18.9899  -24.8307   -8.1129 C   0  0  0  0  0  0  0  0  0  0  0  0
   17.7636  -23.9799   -8.4464 C   0  0  0  0  0  0  0  0  0  0  0  0
   18.0084  -23.1970   -9.7285 C   0  0  2  0  0  0  0  0  0  0  0  0
   19.2438  -22.4785   -9.6191 N   0  0  0  0  0  0  0  0  0  0  0  0
   16.8691  -22.2994  -10.0340 C   0  0  0  0  0  0  0  0  0  0  0  0
   16.8365  -20.9708   -9.6247 O   0  0  0  0  0  0  0  0  0  0  0  0
   15.8830  -22.7237  -10.6840 O   0  0  0  0  0  0  0  0  0  0  0  0
  2  1  1  6
  2  3  1  0
  4  3  1  0
  5  4  2  0
  6  5  1  0
  7  6  2  0
  7  8  1  0
  8  9  2  0
  9  4  1  0
 10 11  2  0
 10  2  1  0
 12 10  1  0
 13 12  1  0
 14 13  1  0
 15 14  1  0
 15 16  1  0
 16 12  1  0
 17 18  2  0
 16 17  1  6
 20 19  1  0
 21 20  2  0
 22 20  1  0
 23 22  1  0
 24 23  1  1
 24 25  1  0
 25 17  1  0
 26 24  1  0
 27 26  1  0
 28 26  2  0
M  END
$$$$
