FPQ.pdb
     RDKit          3D

 28 29  0  0  1  0  0  0  0  0999 V2000
   23.7851  -20.5010  -11.1807 N   0  0  0  0  0  0  0  0  0  0  0  0
   25.1349  -20.2806  -11.5395 C   0  0  1  0  0  0  0  0  0  0  0  0
   26.0737  -21.3089  -10.9829 C   0  0  0  0  0  0  0  0  0  0  0  0
   26.5235  -20.9262   -9.6469 C   0  0  0  0  0  0  0  0  0  0  0  0
   27.9035  -20.9112   -9.4287 C   0  0  0  0  0  0  0  0  0  0  0  0
   28.3630  -20.5696   -8.1875 C   0  0  0  0  0  0  0  0  0  0  0  0
   27.5312  -20.2414   -7.1486 C   0  0  0  0  0  0  0  0  0  0  0  0
   26.1813  -20.2637   -7.3877 C   0  0  0  0  0  0  0  0  0  0  0  0
   25.6632  -20.6051   -8.6340 C   0  0  0  0  0  0  0  0  0  0  0  0
   25.2854  -20.3051  -13.0149 C   0  0  0  0  0  0  0  0  0  0  0  0
   24.3933  -20.8828  -13.7383 O   0  0  0  0  0  0  0  0  0  0  0  0
   26.3873  -19.7119  -13.6878 N   0  0  0  0  0  0  0  0  0  0  0  0
   27.6432  -19.3474  -13.0996 C   0  0  0  0  0  0  0  0  0  0  0  0
   28.4987  -18.7494  -14.2225 C   0  0  0  0  0  0  0  0  0  0  0  0
   27.4239  -18.3018  -15.2129 C   0  0  0  0  0  0  0  0  0  0  0  0
   26.3971  -19.3846  -15.1076 C   0  0  1  0  0  0  0  0  0  0  0  0
   26.7883  -20.5883  -15.8623 C   0  0  0  0  0  0  0  0  0  0  0  0
   27.5979  -21.3980  -15.3475 O   0  0  0  0  0  0  0  0  0  0  0  0
   25.1242  -24.6247  -14.5502 N   0  0  0  0  0  0  0  0  0  0  0  0
   24.3832  -24.9698  -15.7010 C   0  0  0  0  0  0  0  0  0  0  0  0
   23.9142  -26.1374  -15.7927 O   0  0  0  0  0  0  0  0  0  0  0  0
   24.1851  -23.9579  -16.7495 C   0  0  0  0  0  0  0  0  0  0  0  0
   24.8580  -22.6400  -16.3632 C   0  0  0  0  0  0  0  0  0  0  0  0
   25.7013  -22.1287  -17.5225 C   0  0  2  0  0  0  0  0  0  0  0  0
   26.2607  -20.8546  -17.1788 N   0  0  0  0  0  0  0  0  0  0  0  0
   24.9106  -22.0686  -18.7747 C   0  0  0  0  0  0  0  0  0  0  0  0
   23.8857  -21.1483  -18.9655 O   0  0  0  0  0  0  0  0  0  0  0  0
   25.1504  -22.8633  -19.7160 O   0  0  0  0  0  0  0  0  0  0  0  0
  2  1  1  6
  2  3  1  0
  4  3  1  0
  5  4  2  0
  6  5  1  0
  7  6  2  0
  7  8  1  0
  8  9  2  0
  9  4  1  0
 10 11  2  0
 10  2  1  0
 12 10  1  0
 13 12  1  0
 14 13  1  0
 15 14  1  0
 15 16  1  0
 16 12  1  0
 17 18  2  0
 16 17  1  6
 20 19  1  0
 21 20  2  0
 22 20  1  0
 23 22  1  0
 24 23  1  1
 24 25  1  0
 25 17  1  0
 26 24  1  0
 27 26  1  0
 28 26  2  0
M  END
$$$$
