FPQ.pdb
     RDKit          3D

 28 29  0  0  1  0  0  0  0  0999 V2000
   23.9225  -19.3600  -17.8609 N   0  0  0  0  0  0  0  0  0  0  0  0
   24.9475  -18.7451  -17.1056 C   0  0  1  0  0  0  0  0  0  0  0  0
   24.5853  -17.3746  -16.6167 C   0  0  0  0  0  0  0  0  0  0  0  0
   24.5338  -16.4281  -17.7282 C   0  0  0  0  0  0  0  0  0  0  0  0
   25.7343  -16.1802  -18.3987 C   0  0  0  0  0  0  0  0  0  0  0  0
   25.7288  -15.2913  -19.4371 C   0  0  0  0  0  0  0  0  0  0  0  0
   24.5994  -14.6332  -19.8496 C   0  0  0  0  0  0  0  0  0  0  0  0
   23.4340  -14.8934  -19.1756 C   0  0  0  0  0  0  0  0  0  0  0  0
   23.3871  -15.7897  -18.1113 C   0  0  0  0  0  0  0  0  0  0  0  0
   25.2683  -19.5640  -15.9114 C   0  0  0  0  0  0  0  0  0  0  0  0
   24.3472  -20.2647  -15.3512 O   0  0  0  0  0  0  0  0  0  0  0  0
   26.5677  -19.6172  -15.3388 N   0  0  0  0  0  0  0  0  0  0  0  0
   27.7167  -18.8786  -15.7747 C   0  0  0  0  0  0  0  0  0  0  0  0
   28.8722  -19.2735  -14.8478 C   0  0  0  0  0  0  0  0  0  0  0  0
   28.4003  -20.6374  -14.3441 C   0  0  0  0  0  0  0  0  0  0  0  0
   26.9236  -20.4493  -14.1970 C   0  0  1  0  0  0  0  0  0  0  0  0
   26.5827  -19.7203  -12.9626 C   0  0  0  0  0  0  0  0  0  0  0  0
   26.4727  -18.4703  -12.9999 O   0  0  0  0  0  0  0  0  0  0  0  0
   21.6642  -20.9593  -13.1335 N   0  0  0  0  0  0  0  0  0  0  0  0
   21.4965  -20.5490  -11.7934 C   0  0  0  0  0  0  0  0  0  0  0  0
   20.3270  -20.4570  -11.3292 O   0  0  0  0  0  0  0  0  0  0  0  0
   22.6886  -20.2442  -10.9881 C   0  0  0  0  0  0  0  0  0  0  0  0
   23.9626  -20.4492  -11.8090 C   0  0  0  0  0  0  0  0  0  0  0  0
   25.1864  -20.2173  -10.9343 C   0  0  2  0  0  0  0  0  0  0  0  0
   26.3730  -20.4129  -11.7140 N   0  0  0  0  0  0  0  0  0  0  0  0
   25.1604  -21.0876   -9.7347 C   0  0  0  0  0  0  0  0  0  0  0  0
   25.4039  -22.4551   -9.8007 O   0  0  0  0  0  0  0  0  0  0  0  0
   24.9128  -20.6030   -8.6038 O   0  0  0  0  0  0  0  0  0  0  0  0
  2  1  1  1
  2  3  1  0
  4  3  1  0
  5  4  2  0
  6  5  1  0
  7  6  2  0
  7  8  1  0
  8  9  2  0
  9  4  1  0
 10 11  2  0
 10  2  1  0
 12 10  1  0
 13 12  1  0
 14 13  1  0
 15 14  1  0
 15 16  1  0
 16 12  1  0
 17 18  2  0
 16 17  1  1
 20 19  1  0
 21 20  2  0
 22 20  1  0
 23 22  1  0
 24 23  1  6
 24 25  1  0
 25 17  1  0
 26 24  1  0
 27 26  1  0
 28 26  2  0
M  END
$$$$
