NMR.pdb
     RDKit          3D

 28 27  0  0  1  0  0  0  0  0999 V2000
   10.7113  -18.2556   14.4017 N   0  0  0  0  0  0  0  0  0  0  0  0
   10.8477  -16.8356   14.5328 C   0  0  0  0  0  0  0  0  0  0  0  0
   11.0051  -16.1396   13.4927 O   0  0  0  0  0  0  0  0  0  0  0  0
   10.8046  -16.2011   15.8610 C   0  0  0  0  0  0  0  0  0  0  0  0
   10.7331  -17.2801   16.9147 C   0  0  2  0  0  0  0  0  0  0  0  0
    9.5253  -18.0429   16.8482 N   0  0  0  0  0  0  0  0  0  0  0  0
   10.7829  -16.6031   18.2471 C   0  0  0  0  0  0  0  0  0  0  0  0
   11.8640  -16.1870   18.7278 O   0  0  0  0  0  0  0  0  0  0  0  0
    7.2282  -11.0572   19.7271 C   0  0  0  0  0  0  0  0  0  0  0  0
    7.0115  -12.7599   20.3518 S   0  0  0  0  0  0  0  0  0  0  0  0
    8.5998  -13.6264   19.9832 C   0  0  0  0  0  0  0  0  0  0  0  0
    8.4989  -14.9835   20.6038 C   0  0  0  0  0  0  0  0  0  0  0  0
    9.6941  -15.8198   20.3183 C   0  0  2  0  0  0  0  0  0  0  0  0
    9.5962  -16.4253   18.9834 N   0  0  0  0  0  0  0  0  0  0  0  0
    9.7077  -16.9929   21.2598 C   0  0  0  0  0  0  0  0  0  0  0  0
    9.3998  -18.1604   20.9078 O   0  0  0  0  0  0  0  0  0  0  0  0
   17.1650  -17.4277   21.1435 N   0  0  0  0  0  0  0  0  0  0  0  0
   16.5273  -16.7140   22.1734 C   0  0  0  0  0  0  0  0  0  0  0  0
   17.0916  -15.6558   22.6362 N   0  0  0  0  0  0  0  0  0  0  0  0
   15.2818  -17.1369   22.7068 N   0  0  0  0  0  0  0  0  0  0  0  0
   14.6881  -18.4185   22.3710 C   0  0  0  0  0  0  0  0  0  0  0  0
   13.3546  -18.5177   23.0998 C   0  0  0  0  0  0  0  0  0  0  0  0
   12.3128  -17.6488   22.4474 C   0  0  0  0  0  0  0  0  0  0  0  0
   11.0133  -17.8008   23.1999 C   0  0  2  0  0  0  0  0  0  0  0  0
   10.0771  -16.8302   22.6192 N   0  0  0  0  0  0  0  0  0  0  0  0
   11.1549  -17.4332   24.6244 C   0  0  0  0  0  0  0  0  0  0  0  0
   11.7764  -18.1220   25.4726 O   0  0  0  0  0  0  0  0  0  0  0  0
   10.5809  -16.2581   25.1053 O   0  0  0  0  0  0  0  0  0  0  0  0
  2  3  2  0
  2  1  1  0
  4  2  1  0
  5  4  1  0
  5  6  1  1
  7  5  1  0
  8  7  2  0
 10 11  1  0
 10  9  1  0
 11 12  1  0
 13 12  1  1
 13 14  1  0
 14  7  1  0
 15 13  1  0
 15 16  2  0
 18 17  1  0
 18 19  2  0
 20 21  1  0
 20 18  1  0
 22 21  1  0
 23 22  1  0
 24 23  1  6
 25 24  1  0
 25 15  1  0
 26 28  1  0
 26 24  1  0
 27 26  2  0
M  END
$$$$
