NMR.pdb
     RDKit          3D

 28 27  0  0  1  0  0  0  0  0999 V2000
    7.6964  -15.0130   17.4685 N   0  0  0  0  0  0  0  0  0  0  0  0
    7.9625  -13.6877   17.9427 C   0  0  0  0  0  0  0  0  0  0  0  0
    7.8632  -12.7210   17.1387 O   0  0  0  0  0  0  0  0  0  0  0  0
    8.3455  -13.4600   19.3464 C   0  0  0  0  0  0  0  0  0  0  0  0
    8.3607  -14.7858   20.0688 C   0  0  2  0  0  0  0  0  0  0  0  0
    7.0889  -15.4396   20.0575 N   0  0  0  0  0  0  0  0  0  0  0  0
    8.7302  -14.5117   21.4915 C   0  0  0  0  0  0  0  0  0  0  0  0
    9.9110  -14.2450   21.8194 O   0  0  0  0  0  0  0  0  0  0  0  0
    7.2941  -10.6564   26.9417 C   0  0  0  0  0  0  0  0  0  0  0  0
    6.3836  -12.2361   26.8324 S   0  0  0  0  0  0  0  0  0  0  0  0
    7.5700  -13.4387   26.0874 C   0  0  0  0  0  0  0  0  0  0  0  0
    7.1907  -13.5749   24.6470 C   0  0  0  0  0  0  0  0  0  0  0  0
    8.1589  -14.4110   23.8899 C   0  0  2  0  0  0  0  0  0  0  0  0
    7.7380  -14.5517   22.4895 N   0  0  0  0  0  0  0  0  0  0  0  0
    8.1244  -15.8136   24.4323 C   0  0  0  0  0  0  0  0  0  0  0  0
    7.4552  -16.7385   23.9045 O   0  0  0  0  0  0  0  0  0  0  0  0
   11.3286  -19.6792   20.8970 N   0  0  0  0  0  0  0  0  0  0  0  0
   12.5207  -20.0269   21.5563 C   0  0  0  0  0  0  0  0  0  0  0  0
   13.0734  -21.1552   21.2846 N   0  0  0  0  0  0  0  0  0  0  0  0
   13.1203  -19.1617   22.5085 N   0  0  0  0  0  0  0  0  0  0  0  0
   12.5146  -17.9028   22.9038 C   0  0  0  0  0  0  0  0  0  0  0  0
   11.4791  -18.2033   23.9792 C   0  0  0  0  0  0  0  0  0  0  0  0
   10.8189  -16.9410   24.4658 C   0  0  0  0  0  0  0  0  0  0  0  0
    9.7844  -17.3031   25.5035 C   0  0  2  0  0  0  0  0  0  0  0  0
    8.8628  -16.1635   25.5914 N   0  0  0  0  0  0  0  0  0  0  0  0
   10.3808  -17.4536   26.8473 C   0  0  0  0  0  0  0  0  0  0  0  0
   10.2311  -18.4666   27.5765 O   0  0  0  0  0  0  0  0  0  0  0  0
   11.1667  -16.4354   27.3833 O   0  0  0  0  0  0  0  0  0  0  0  0
  2  3  2  0
  2  1  1  0
  4  2  1  0
  5  4  1  0
  5  6  1  1
  7  5  1  0
  8  7  2  0
 10 11  1  0
 10  9  1  0
 11 12  1  0
 13 12  1  1
 13 14  1  0
 14  7  1  0
 15 13  1  0
 15 16  2  0
 18 17  1  0
 18 19  2  0
 20 21  1  0
 20 18  1  0
 22 21  1  0
 23 22  1  0
 24 23  1  6
 25 24  1  0
 25 15  1  0
 26 28  1  0
 26 24  1  0
 27 26  2  0
M  END
$$$$
