NMR.pdb
     RDKit          3D

 28 27  0  0  1  0  0  0  0  0999 V2000
    7.2993  -12.8009   17.1819 N   0  0  0  0  0  0  0  0  0  0  0  0
    8.1398  -13.7470   17.8534 C   0  0  0  0  0  0  0  0  0  0  0  0
    8.4639  -14.8081   17.2535 O   0  0  0  0  0  0  0  0  0  0  0  0
    8.6162  -13.4829   19.2215 C   0  0  0  0  0  0  0  0  0  0  0  0
    8.4941  -14.7499   20.0335 C   0  0  2  0  0  0  0  0  0  0  0  0
    7.1460  -15.2152   20.1385 N   0  0  0  0  0  0  0  0  0  0  0  0
    8.9891  -14.4437   21.4109 C   0  0  0  0  0  0  0  0  0  0  0  0
   10.1416  -13.9885   21.6041 O   0  0  0  0  0  0  0  0  0  0  0  0
    6.2267  -10.9790   26.8882 C   0  0  0  0  0  0  0  0  0  0  0  0
    6.6871  -12.7418   26.7568 S   0  0  0  0  0  0  0  0  0  0  0  0
    7.1907  -12.9902   24.9979 C   0  0  0  0  0  0  0  0  0  0  0  0
    7.6666  -14.4037   24.8864 C   0  0  0  0  0  0  0  0  0  0  0  0
    8.7334  -14.5562   23.8626 C   0  0  2  0  0  0  0  0  0  0  0  0
    8.1502  -14.6682   22.5190 N   0  0  0  0  0  0  0  0  0  0  0  0
    9.4334  -15.8704   24.0760 C   0  0  0  0  0  0  0  0  0  0  0  0
    9.2177  -16.8871   23.3678 O   0  0  0  0  0  0  0  0  0  0  0  0
   10.2572  -23.2088   25.3907 N   0  0  0  0  0  0  0  0  0  0  0  0
   10.9389  -22.6678   26.4950 C   0  0  0  0  0  0  0  0  0  0  0  0
   10.8783  -23.2815   27.6228 N   0  0  0  0  0  0  0  0  0  0  0  0
   11.6870  -21.4663   26.3878 N   0  0  0  0  0  0  0  0  0  0  0  0
   11.4081  -20.4655   25.3738 C   0  0  0  0  0  0  0  0  0  0  0  0
   10.3533  -19.5198   25.9325 C   0  0  0  0  0  0  0  0  0  0  0  0
   10.0786  -18.3877   24.9791 C   0  0  0  0  0  0  0  0  0  0  0  0
   11.1052  -17.3043   25.2032 C   0  0  2  0  0  0  0  0  0  0  0  0
   10.3907  -16.0249   25.1108 N   0  0  0  0  0  0  0  0  0  0  0  0
   12.1261  -17.2826   24.1348 C   0  0  0  0  0  0  0  0  0  0  0  0
   11.8960  -16.9471   22.9454 O   0  0  0  0  0  0  0  0  0  0  0  0
   13.4412  -17.6485   24.4146 O   0  0  0  0  0  0  0  0  0  0  0  0
  2  3  2  0
  2  1  1  0
  4  2  1  0
  5  4  1  0
  5  6  1  1
  7  5  1  0
  8  7  2  0
 10 11  1  0
 10  9  1  0
 11 12  1  0
 13 12  1  1
 13 14  1  0
 14  7  1  0
 15 13  1  0
 15 16  2  0
 18 17  1  0
 18 19  2  0
 20 21  1  0
 20 18  1  0
 22 21  1  0
 23 22  1  0
 24 23  1  6
 25 24  1  0
 25 15  1  0
 26 28  1  0
 26 24  1  0
 27 26  2  0
M  END
$$$$
