NMR.pdb
     RDKit          3D

 28 27  0  0  1  0  0  0  0  0999 V2000
    7.1946  -12.9132   17.8542 N   0  0  0  0  0  0  0  0  0  0  0  0
    8.1199  -13.9569   18.1812 C   0  0  0  0  0  0  0  0  0  0  0  0
    8.3139  -14.8830   17.3474 O   0  0  0  0  0  0  0  0  0  0  0  0
    8.8315  -13.9465   19.4705 C   0  0  0  0  0  0  0  0  0  0  0  0
    8.3700  -15.1264   20.2917 C   0  0  2  0  0  0  0  0  0  0  0  0
    6.9651  -15.3677   20.1776 N   0  0  0  0  0  0  0  0  0  0  0  0
    8.6740  -14.8171   21.7228 C   0  0  0  0  0  0  0  0  0  0  0  0
    9.8339  -14.5171   22.0935 O   0  0  0  0  0  0  0  0  0  0  0  0
    7.7260  -11.7333   28.1800 C   0  0  0  0  0  0  0  0  0  0  0  0
    7.3857  -12.0095   26.4067 S   0  0  0  0  0  0  0  0  0  0  0  0
    7.0312  -13.8145   26.2478 C   0  0  0  0  0  0  0  0  0  0  0  0
    6.7558  -14.0688   24.7999 C   0  0  0  0  0  0  0  0  0  0  0  0
    7.9713  -14.5131   24.0685 C   0  0  2  0  0  0  0  0  0  0  0  0
    7.6424  -14.8613   22.6798 N   0  0  0  0  0  0  0  0  0  0  0  0
    8.4617  -15.8017   24.6700 C   0  0  0  0  0  0  0  0  0  0  0  0
    7.9363  -16.9180   24.4257 O   0  0  0  0  0  0  0  0  0  0  0  0
   12.7564  -17.1935   20.6844 N   0  0  0  0  0  0  0  0  0  0  0  0
   12.1674  -18.4426   20.9486 C   0  0  0  0  0  0  0  0  0  0  0  0
   11.4659  -19.0043   20.0295 N   0  0  0  0  0  0  0  0  0  0  0  0
   12.3323  -19.0895   22.2012 N   0  0  0  0  0  0  0  0  0  0  0  0
   12.5909  -18.3550   23.4265 C   0  0  0  0  0  0  0  0  0  0  0  0
   11.2599  -18.1585   24.1398 C   0  0  0  0  0  0  0  0  0  0  0  0
   11.4221  -17.3018   25.3669 C   0  0  0  0  0  0  0  0  0  0  0  0
   10.0704  -17.1175   26.0125 C   0  0  2  0  0  0  0  0  0  0  0  0
    9.5649  -15.8150   25.5610 N   0  0  0  0  0  0  0  0  0  0  0  0
   10.1696  -17.0316   27.4846 C   0  0  0  0  0  0  0  0  0  0  0  0
   10.5717  -17.9680   28.2207 O   0  0  0  0  0  0  0  0  0  0  0  0
    9.8060  -15.8594   28.1443 O   0  0  0  0  0  0  0  0  0  0  0  0
  2  3  2  0
  2  1  1  0
  4  2  1  0
  5  4  1  0
  5  6  1  1
  7  5  1  0
  8  7  2  0
 10 11  1  0
 10  9  1  0
 11 12  1  0
 13 12  1  1
 13 14  1  0
 14  7  1  0
 15 13  1  0
 15 16  2  0
 18 17  1  0
 18 19  2  0
 20 21  1  0
 20 18  1  0
 22 21  1  0
 23 22  1  0
 24 23  1  6
 25 24  1  0
 25 15  1  0
 26 28  1  0
 26 24  1  0
 27 26  2  0
M  END
$$$$
