NMR.pdb
     RDKit          3D

 28 27  0  0  1  0  0  0  0  0999 V2000
    8.1459  -11.9832   17.4165 N   0  0  0  0  0  0  0  0  0  0  0  0
    7.6618  -13.0706   18.2138 C   0  0  0  0  0  0  0  0  0  0  0  0
    7.2066  -14.0950   17.6357 O   0  0  0  0  0  0  0  0  0  0  0  0
    7.6962  -12.9913   19.6838 C   0  0  0  0  0  0  0  0  0  0  0  0
    8.5485  -14.1197   20.2132 C   0  0  2  0  0  0  0  0  0  0  0  0
    8.0247  -15.4106   19.8906 N   0  0  0  0  0  0  0  0  0  0  0  0
    8.5814  -13.9900   21.7025 C   0  0  0  0  0  0  0  0  0  0  0  0
    9.3394  -13.1672   22.2694 O   0  0  0  0  0  0  0  0  0  0  0  0
    5.6521  -11.1311   26.8348 C   0  0  0  0  0  0  0  0  0  0  0  0
    6.0168  -12.9106   26.6432 S   0  0  0  0  0  0  0  0  0  0  0  0
    6.3547  -13.1541   24.8445 C   0  0  0  0  0  0  0  0  0  0  0  0
    6.6736  -14.6041   24.6632 C   0  0  0  0  0  0  0  0  0  0  0  0
    7.9590  -14.8090   23.9454 C   0  0  2  0  0  0  0  0  0  0  0  0
    7.7473  -14.8046   22.4917 N   0  0  0  0  0  0  0  0  0  0  0  0
    8.4717  -16.1914   24.2433 C   0  0  0  0  0  0  0  0  0  0  0  0
    7.9800  -17.2314   23.7348 O   0  0  0  0  0  0  0  0  0  0  0  0
   14.8508  -15.5032   19.5785 N   0  0  0  0  0  0  0  0  0  0  0  0
   14.9435  -16.8009   20.1114 C   0  0  0  0  0  0  0  0  0  0  0  0
   15.7800  -17.6268   19.5911 N   0  0  0  0  0  0  0  0  0  0  0  0
   14.1372  -17.2123   21.2047 N   0  0  0  0  0  0  0  0  0  0  0  0
   13.0859  -16.3745   21.7529 C   0  0  0  0  0  0  0  0  0  0  0  0
   12.4687  -17.1156   22.9315 C   0  0  0  0  0  0  0  0  0  0  0  0
   11.2820  -16.3700   23.4811 C   0  0  0  0  0  0  0  0  0  0  0  0
   10.7185  -17.1460   24.6466 C   0  0  2  0  0  0  0  0  0  0  0  0
    9.5587  -16.3880   25.1326 N   0  0  0  0  0  0  0  0  0  0  0  0
   11.6689  -17.2117   25.7764 C   0  0  0  0  0  0  0  0  0  0  0  0
   11.6957  -16.3873   26.7251 O   0  0  0  0  0  0  0  0  0  0  0  0
   12.6141  -18.2336   25.8385 O   0  0  0  0  0  0  0  0  0  0  0  0
  2  3  2  0
  2  1  1  0
  4  2  1  0
  5  4  1  0
  5  6  1  1
  7  5  1  0
  8  7  2  0
 10 11  1  0
 10  9  1  0
 11 12  1  0
 13 12  1  1
 13 14  1  0
 14  7  1  0
 15 13  1  0
 15 16  2  0
 18 17  1  0
 18 19  2  0
 20 21  1  0
 20 18  1  0
 22 21  1  0
 23 22  1  0
 24 23  1  6
 25 24  1  0
 25 15  1  0
 26 28  1  0
 26 24  1  0
 27 26  2  0
M  END
$$$$
