NMR.pdb
     RDKit          3D

 28 27  0  0  1  0  0  0  0  0999 V2000
    7.6591  -16.9303   17.5003 N   0  0  0  0  0  0  0  0  0  0  0  0
    8.9652  -17.0108   18.0833 C   0  0  0  0  0  0  0  0  0  0  0  0
    9.8326  -17.7454   17.5366 O   0  0  0  0  0  0  0  0  0  0  0  0
    9.2876  -16.2475   19.3006 C   0  0  0  0  0  0  0  0  0  0  0  0
    8.4516  -16.7743   20.4422 C   0  0  2  0  0  0  0  0  0  0  0  0
    7.0508  -16.5589   20.2510 N   0  0  0  0  0  0  0  0  0  0  0  0
    8.8710  -16.0398   21.6753 C   0  0  0  0  0  0  0  0  0  0  0  0
   10.0817  -15.8984   21.9706 O   0  0  0  0  0  0  0  0  0  0  0  0
    6.8133  -11.3513   27.5924 C   0  0  0  0  0  0  0  0  0  0  0  0
    6.2884  -12.1436   26.0325 S   0  0  0  0  0  0  0  0  0  0  0  0
    7.6530  -13.3043   25.5854 C   0  0  0  0  0  0  0  0  0  0  0  0
    7.2772  -13.9191   24.2748 C   0  0  0  0  0  0  0  0  0  0  0  0
    8.3420  -14.8141   23.7505 C   0  0  2  0  0  0  0  0  0  0  0  0
    7.8930  -15.4927   22.5274 N   0  0  0  0  0  0  0  0  0  0  0  0
    8.5723  -15.9296   24.7328 C   0  0  0  0  0  0  0  0  0  0  0  0
    7.6911  -16.7760   25.0309 O   0  0  0  0  0  0  0  0  0  0  0  0
   14.8201  -19.6857   22.1100 N   0  0  0  0  0  0  0  0  0  0  0  0
   13.5860  -19.3271   21.5396 C   0  0  0  0  0  0  0  0  0  0  0  0
   13.4207  -19.4778   20.2738 N   0  0  0  0  0  0  0  0  0  0  0  0
   12.5281  -18.8063   22.3296 N   0  0  0  0  0  0  0  0  0  0  0  0
   12.6172  -18.7009   23.7748 C   0  0  0  0  0  0  0  0  0  0  0  0
   11.3024  -18.1220   24.2801 C   0  0  0  0  0  0  0  0  0  0  0  0
   11.3528  -17.8729   25.7639 C   0  0  0  0  0  0  0  0  0  0  0  0
   10.0356  -17.2799   26.2016 C   0  0  2  0  0  0  0  0  0  0  0  0
    9.8240  -16.0799   25.3824 N   0  0  0  0  0  0  0  0  0  0  0  0
   10.0785  -16.8171   27.6045 C   0  0  0  0  0  0  0  0  0  0  0  0
   10.1742  -15.6115   27.9474 O   0  0  0  0  0  0  0  0  0  0  0  0
   10.0115  -17.7376   28.6484 O   0  0  0  0  0  0  0  0  0  0  0  0
  2  3  2  0
  2  1  1  0
  4  2  1  0
  5  4  1  0
  5  6  1  6
  7  5  1  0
  8  7  2  0
 10 11  1  0
 10  9  1  0
 11 12  1  0
 13 12  1  1
 13 14  1  0
 14  7  1  0
 15 13  1  0
 15 16  2  0
 18 17  1  0
 18 19  2  0
 20 21  1  0
 20 18  1  0
 22 21  1  0
 23 22  1  0
 24 23  1  6
 25 24  1  0
 25 15  1  0
 26 28  1  0
 26 24  1  0
 27 26  2  0
M  END
$$$$
