NMR.pdb
     RDKit          3D

 28 27  0  0  1  0  0  0  0  0999 V2000
    8.2944  -16.3021   17.4443 N   0  0  0  0  0  0  0  0  0  0  0  0
    7.8795  -14.9550   17.7002 C   0  0  0  0  0  0  0  0  0  0  0  0
    7.7080  -14.1742   16.7246 O   0  0  0  0  0  0  0  0  0  0  0  0
    7.6575  -14.4917   19.0803 C   0  0  0  0  0  0  0  0  0  0  0  0
    7.8861  -15.6470   20.0251 C   0  0  2  0  0  0  0  0  0  0  0  0
    6.6978  -16.4010   20.2791 N   0  0  0  0  0  0  0  0  0  0  0  0
    8.3586  -15.0726   21.3224 C   0  0  0  0  0  0  0  0  0  0  0  0
    9.4559  -14.4715   21.4088 O   0  0  0  0  0  0  0  0  0  0  0  0
    7.4855  -11.6284   27.8974 C   0  0  0  0  0  0  0  0  0  0  0  0
    6.8165  -12.1464   26.2786 S   0  0  0  0  0  0  0  0  0  0  0  0
    7.4864  -13.8421   25.9878 C   0  0  0  0  0  0  0  0  0  0  0  0
    6.9872  -14.2732   24.6454 C   0  0  0  0  0  0  0  0  0  0  0  0
    8.0928  -14.6967   23.7465 C   0  0  2  0  0  0  0  0  0  0  0  0
    7.5611  -15.2051   22.4749 N   0  0  0  0  0  0  0  0  0  0  0  0
    8.7947  -15.8791   24.3565 C   0  0  0  0  0  0  0  0  0  0  0  0
    8.2011  -16.9406   24.6772 O   0  0  0  0  0  0  0  0  0  0  0  0
   14.5302  -16.6154   20.4930 N   0  0  0  0  0  0  0  0  0  0  0  0
   14.3401  -15.2579   20.8060 C   0  0  0  0  0  0  0  0  0  0  0  0
   15.1275  -14.3852   20.2856 N   0  0  0  0  0  0  0  0  0  0  0  0
   13.3029  -14.8370   21.6788 N   0  0  0  0  0  0  0  0  0  0  0  0
   13.2579  -15.2270   23.0765 C   0  0  0  0  0  0  0  0  0  0  0  0
   12.3878  -16.4723   23.1832 C   0  0  0  0  0  0  0  0  0  0  0  0
   12.3048  -16.9569   24.6060 C   0  0  0  0  0  0  0  0  0  0  0  0
   10.8511  -17.1029   24.9850 C   0  0  2  0  0  0  0  0  0  0  0  0
   10.1909  -15.8483   24.6032 N   0  0  0  0  0  0  0  0  0  0  0  0
   10.6728  -17.2325   26.4464 C   0  0  0  0  0  0  0  0  0  0  0  0
   10.4517  -16.2658   27.2190 O   0  0  0  0  0  0  0  0  0  0  0  0
   10.7454  -18.4849   27.0529 O   0  0  0  0  0  0  0  0  0  0  0  0
  2  3  2  0
  2  1  1  0
  4  2  1  0
  5  4  1  0
  5  6  1  1
  7  5  1  0
  8  7  2  0
 10 11  1  0
 10  9  1  0
 11 12  1  0
 13 12  1  1
 13 14  1  0
 14  7  1  0
 15 13  1  0
 15 16  2  0
 18 17  1  0
 18 19  2  0
 20 21  1  0
 20 18  1  0
 22 21  1  0
 23 22  1  0
 24 23  1  1
 25 24  1  0
 25 15  1  0
 26 28  1  0
 26 24  1  0
 27 26  2  0
M  END
$$$$
