NMR.pdb
     RDKit          3D

 28 27  0  0  1  0  0  0  0  0999 V2000
   10.2080  -17.4501   17.4887 N   0  0  0  0  0  0  0  0  0  0  0  0
    9.2224  -16.5523   18.0130 C   0  0  0  0  0  0  0  0  0  0  0  0
    8.1321  -16.4151   17.3941 O   0  0  0  0  0  0  0  0  0  0  0  0
    9.4804  -15.8030   19.2542 C   0  0  0  0  0  0  0  0  0  0  0  0
    8.7686  -16.4896   20.3951 C   0  0  2  0  0  0  0  0  0  0  0  0
    7.3446  -16.4300   20.2782 N   0  0  0  0  0  0  0  0  0  0  0  0
    9.1620  -15.7832   21.6529 C   0  0  0  0  0  0  0  0  0  0  0  0
   10.3670  -15.6140   21.9569 O   0  0  0  0  0  0  0  0  0  0  0  0
    6.9020  -11.4139   26.6766 C   0  0  0  0  0  0  0  0  0  0  0  0
    5.8969  -12.8782   26.2500 S   0  0  0  0  0  0  0  0  0  0  0  0
    7.1029  -14.1556   25.6817 C   0  0  0  0  0  0  0  0  0  0  0  0
    7.5104  -13.7701   24.2952 C   0  0  0  0  0  0  0  0  0  0  0  0
    8.5900  -14.6439   23.7656 C   0  0  2  0  0  0  0  0  0  0  0  0
    8.1654  -15.2949   22.5191 N   0  0  0  0  0  0  0  0  0  0  0  0
    8.8134  -15.7821   24.7234 C   0  0  0  0  0  0  0  0  0  0  0  0
    7.9381  -16.6488   24.9772 O   0  0  0  0  0  0  0  0  0  0  0  0
   15.8564  -20.3990   24.8911 N   0  0  0  0  0  0  0  0  0  0  0  0
   14.5884  -20.6193   24.3250 C   0  0  0  0  0  0  0  0  0  0  0  0
   14.5059  -21.2837   23.2277 N   0  0  0  0  0  0  0  0  0  0  0  0
   13.4073  -20.1257   24.9383 N   0  0  0  0  0  0  0  0  0  0  0  0
   13.4336  -19.3671   26.1758 C   0  0  0  0  0  0  0  0  0  0  0  0
   12.0117  -18.9070   26.4687 C   0  0  0  0  0  0  0  0  0  0  0  0
   11.6854  -17.6413   25.7219 C   0  0  0  0  0  0  0  0  0  0  0  0
   10.2990  -17.1906   26.1129 C   0  0  2  0  0  0  0  0  0  0  0  0
   10.0512  -15.9316   25.3993 N   0  0  0  0  0  0  0  0  0  0  0  0
   10.2089  -16.8710   27.5530 C   0  0  0  0  0  0  0  0  0  0  0  0
   10.1353  -15.7036   28.0136 O   0  0  0  0  0  0  0  0  0  0  0  0
   10.2014  -17.8942   28.4988 O   0  0  0  0  0  0  0  0  0  0  0  0
  2  3  2  0
  2  1  1  0
  4  2  1  0
  5  4  1  0
  5  6  1  6
  7  5  1  0
  8  7  2  0
 10 11  1  0
 10  9  1  0
 11 12  1  0
 13 12  1  1
 13 14  1  0
 14  7  1  0
 15 13  1  0
 15 16  2  0
 18 17  1  0
 18 19  2  0
 20 21  1  0
 20 18  1  0
 22 21  1  0
 23 22  1  0
 24 23  1  1
 25 24  1  0
 25 15  1  0
 26 28  1  0
 26 24  1  0
 27 26  2  0
M  END
$$$$
