SEV.pdb
     RDKit          3D

 23 22  0  0  1  0  0  0  0  0999 V2000
    6.9125  -18.0187   19.3214 O   0  0  0  0  0  0  0  0  0  0  0  0
    8.1692  -17.4849   19.1100 C   0  0  0  0  0  0  0  0  0  0  0  0
    8.3079  -16.1076   19.7493 C   0  0  2  0  0  0  0  0  0  0  0  0
    9.6458  -15.6571   19.5024 N   0  0  0  0  0  0  0  0  0  0  0  0
    8.0604  -16.2989   21.2245 C   0  0  0  0  0  0  0  0  0  0  0  0
    6.8985  -16.4547   21.6677 O   0  0  0  0  0  0  0  0  0  0  0  0
    9.1173  -16.3101   22.1567 N   0  0  0  0  0  0  0  0  0  0  0  0
    8.9150  -16.5421   23.5909 C   0  0  1  0  0  0  0  0  0  0  0  0
    9.8646  -17.6071   24.0704 C   0  0  0  0  0  0  0  0  0  0  0  0
    9.7731  -17.8711   25.5289 C   0  0  0  0  0  0  0  0  0  0  0  0
   10.7572  -18.9349   25.9199 C   0  0  0  0  0  0  0  0  0  0  0  0
   11.4932  -19.4312   25.0465 O   0  0  0  0  0  0  0  0  0  0  0  0
    9.1131  -15.3026   24.3538 C   0  0  0  0  0  0  0  0  0  0  0  0
   10.1265  -14.6001   24.1444 O   0  0  0  0  0  0  0  0  0  0  0  0
   10.8631  -19.3723   27.2203 O   0  0  0  0  0  0  0  0  0  0  0  0
    6.9588  -12.2134   24.6431 C   0  0  0  0  0  0  0  0  0  0  0  0
    7.3415  -12.6452   26.0149 C   0  0  1  0  0  0  0  0  0  0  0  0
    6.1869  -13.3061   26.7393 C   0  0  0  0  0  0  0  0  0  0  0  0
    8.4996  -13.6204   26.0435 C   0  0  2  0  0  0  0  0  0  0  0  0
    8.1979  -14.8421   25.3415 N   0  0  0  0  0  0  0  0  0  0  0  0
    8.8711  -13.9190   27.4543 C   0  0  0  0  0  0  0  0  0  0  0  0
    8.8585  -15.1901   27.9673 O   0  0  0  0  0  0  0  0  0  0  0  0
    9.2060  -12.9751   28.1950 O   0  0  0  0  0  0  0  0  0  0  0  0
  1  2  1  0
  3  5  1  0
  3  4  1  1
  3  2  1  0
  5  6  2  0
  7  8  1  0
  7  5  1  0
  8 13  1  0
  8  9  1  1
 10 11  1  0
 10  9  1  0
 11 15  1  0
 11 12  2  0
 13 14  2  0
 13 20  1  0
 17 18  1  6
 17 16  1  0
 19 17  1  0
 19 20  1  1
 21 19  1  0
 21 22  1  0
 23 21  2  0
M  END
$$$$
