SEV.pdb
     RDKit          3D

 23 22  0  0  1  0  0  0  0  0999 V2000
    6.6425  -17.8571   19.4071 O   0  0  0  0  0  0  0  0  0  0  0  0
    5.8751  -16.7635   19.7598 C   0  0  0  0  0  0  0  0  0  0  0  0
    6.7419  -15.5900   20.2030 C   0  0  2  0  0  0  0  0  0  0  0  0
    7.7501  -15.4041   19.2017 N   0  0  0  0  0  0  0  0  0  0  0  0
    7.3515  -15.9889   21.5233 C   0  0  0  0  0  0  0  0  0  0  0  0
    6.6305  -16.2183   22.5224 O   0  0  0  0  0  0  0  0  0  0  0  0
    8.7453  -16.1188   21.6855 N   0  0  0  0  0  0  0  0  0  0  0  0
    9.3716  -16.4651   22.9660 C   0  0  1  0  0  0  0  0  0  0  0  0
   10.7872  -16.9200   22.7305 C   0  0  0  0  0  0  0  0  0  0  0  0
   11.5420  -17.1832   23.9820 C   0  0  0  0  0  0  0  0  0  0  0  0
   12.9457  -17.6028   23.6552 C   0  0  0  0  0  0  0  0  0  0  0  0
   13.8271  -16.7314   23.5351 O   0  0  0  0  0  0  0  0  0  0  0  0
    9.3515  -15.3190   23.8844 C   0  0  0  0  0  0  0  0  0  0  0  0
    9.7706  -14.2060   23.4974 O   0  0  0  0  0  0  0  0  0  0  0  0
   13.2782  -18.9273   23.4860 O   0  0  0  0  0  0  0  0  0  0  0  0
    6.2647  -14.2782   26.1000 C   0  0  0  0  0  0  0  0  0  0  0  0
    7.4644  -13.4665   25.7585 C   0  0  1  0  0  0  0  0  0  0  0  0
    7.5183  -12.1795   26.5558 C   0  0  0  0  0  0  0  0  0  0  0  0
    8.7739  -14.1894   25.9943 C   0  0  2  0  0  0  0  0  0  0  0  0
    8.8715  -15.4017   25.2216 N   0  0  0  0  0  0  0  0  0  0  0  0
    8.9271  -14.4929   27.4443 C   0  0  0  0  0  0  0  0  0  0  0  0
    8.9981  -13.5125   28.3996 O   0  0  0  0  0  0  0  0  0  0  0  0
    8.9929  -15.6849   27.7999 O   0  0  0  0  0  0  0  0  0  0  0  0
  1  2  1  0
  3  5  1  0
  3  4  1  6
  3  2  1  0
  5  6  2  0
  7  8  1  0
  7  5  1  0
  8 13  1  0
  8  9  1  6
 10 11  1  0
 10  9  1  0
 11 15  1  0
 11 12  2  0
 13 14  2  0
 13 20  1  0
 17 18  1  1
 17 16  1  0
 19 17  1  0
 19 20  1  6
 21 19  1  0
 21 22  1  0
 23 21  2  0
M  END
$$$$
