SEV.pdb
     RDKit          3D

 23 22  0  0  1  0  0  0  0  0999 V2000
    8.4386  -13.6446   20.0718 O   0  0  0  0  0  0  0  0  0  0  0  0
    7.6134  -14.6108   19.5291 C   0  0  0  0  0  0  0  0  0  0  0  0
    8.0865  -16.0161   19.8844 C   0  0  2  0  0  0  0  0  0  0  0  0
    7.2651  -16.9379   19.1569 N   0  0  0  0  0  0  0  0  0  0  0  0
    7.8887  -16.1658   21.3719 C   0  0  0  0  0  0  0  0  0  0  0  0
    6.7438  -16.3240   21.8566 O   0  0  0  0  0  0  0  0  0  0  0  0
    8.9746  -16.1341   22.2696 N   0  0  0  0  0  0  0  0  0  0  0  0
    8.8324  -16.4009   23.7049 C   0  0  1  0  0  0  0  0  0  0  0  0
    9.8116  -17.4658   24.1213 C   0  0  0  0  0  0  0  0  0  0  0  0
    9.3740  -18.8423   23.7763 C   0  0  0  0  0  0  0  0  0  0  0  0
   10.1126  -19.8411   24.6188 C   0  0  0  0  0  0  0  0  0  0  0  0
   10.5303  -19.4978   25.7406 O   0  0  0  0  0  0  0  0  0  0  0  0
    9.0481  -15.1770   24.4879 C   0  0  0  0  0  0  0  0  0  0  0  0
   10.0906  -14.5071   24.3181 O   0  0  0  0  0  0  0  0  0  0  0  0
   10.3374  -21.1254   24.1786 O   0  0  0  0  0  0  0  0  0  0  0  0
    6.7340  -12.0877   24.9240 C   0  0  0  0  0  0  0  0  0  0  0  0
    7.2298  -12.5535   26.2476 C   0  0  1  0  0  0  0  0  0  0  0  0
    6.1570  -13.2911   27.0223 C   0  0  0  0  0  0  0  0  0  0  0  0
    8.4259  -13.4776   26.1571 C   0  0  2  0  0  0  0  0  0  0  0  0
    8.1185  -14.6961   25.4521 N   0  0  0  0  0  0  0  0  0  0  0  0
    8.9254  -13.7896   27.5249 C   0  0  0  0  0  0  0  0  0  0  0  0
    9.4512  -12.8334   28.3543 O   0  0  0  0  0  0  0  0  0  0  0  0
    8.8615  -14.9664   27.9286 O   0  0  0  0  0  0  0  0  0  0  0  0
  1  2  1  0
  3  5  1  0
  3  4  1  6
  3  2  1  0
  5  6  2  0
  7  8  1  0
  7  5  1  0
  8 13  1  0
  8  9  1  1
 10 11  1  0
 10  9  1  0
 11 15  1  0
 11 12  2  0
 13 14  2  0
 13 20  1  0
 17 18  1  6
 17 16  1  0
 19 17  1  0
 19 20  1  1
 21 19  1  0
 21 22  1  0
 23 21  2  0
M  END
$$$$
