SEV.pdb
     RDKit          3D

 23 22  0  0  1  0  0  0  0  0999 V2000
   -9.1176  -27.6963   25.7117 O   0  0  0  0  0  0  0  0  0  0  0  0
   -8.4105  -28.8655   25.5069 C   0  0  0  0  0  0  0  0  0  0  0  0
   -6.9087  -28.6450   25.6514 C   0  0  2  0  0  0  0  0  0  0  0  0
   -6.2736  -29.9179   25.4787 N   0  0  0  0  0  0  0  0  0  0  0  0
   -6.6914  -28.1115   27.0451 C   0  0  0  0  0  0  0  0  0  0  0  0
   -6.4455  -28.8854   27.9997 O   0  0  0  0  0  0  0  0  0  0  0  0
   -6.7557  -26.7325   27.3278 N   0  0  0  0  0  0  0  0  0  0  0  0
   -6.4650  -26.1743   28.6528 C   0  0  1  0  0  0  0  0  0  0  0  0
   -5.0160  -26.4021   28.9914 C   0  0  0  0  0  0  0  0  0  0  0  0
   -4.6358  -25.9049   30.3380 C   0  0  0  0  0  0  0  0  0  0  0  0
   -3.1909  -26.2096   30.6077 C   0  0  0  0  0  0  0  0  0  0  0  0
   -2.6770  -27.2192   30.0908 O   0  0  0  0  0  0  0  0  0  0  0  0
   -6.7782  -24.7399   28.6957 C   0  0  0  0  0  0  0  0  0  0  0  0
   -6.2630  -23.9667   27.8585 O   0  0  0  0  0  0  0  0  0  0  0  0
   -2.4240  -25.3985   31.4124 O   0  0  0  0  0  0  0  0  0  0  0  0
  -10.4503  -23.2630   29.1606 C   0  0  0  0  0  0  0  0  0  0  0  0
   -9.4387  -22.5059   29.9468 C   0  0  1  0  0  0  0  0  0  0  0  0
   -9.5243  -22.8217   31.4260 C   0  0  0  0  0  0  0  0  0  0  0  0
   -8.0114  -22.7741   29.5180 C   0  0  2  0  0  0  0  0  0  0  0  0
   -7.6547  -24.1632   29.6572 N   0  0  0  0  0  0  0  0  0  0  0  0
   -7.0798  -21.9245   30.3105 C   0  0  0  0  0  0  0  0  0  0  0  0
   -7.0002  -20.5659   30.1467 O   0  0  0  0  0  0  0  0  0  0  0  0
   -6.3455  -22.4724   31.1544 O   0  0  0  0  0  0  0  0  0  0  0  0
  1  2  1  0
  3  5  1  0
  3  4  1  1
  3  2  1  0
  5  6  2  0
  7  8  1  0
  7  5  1  0
  8 13  1  0
  8  9  1  6
 10 11  1  0
 10  9  1  0
 11 15  1  0
 11 12  2  0
 13 14  2  0
 13 20  1  0
 17 18  1  1
 17 16  1  0
 19 17  1  0
 19 20  1  1
 21 19  1  0
 21 22  1  0
 23 21  2  0
M  END
$$$$
