SEV.pdb
     RDKit          3D

 23 22  0  0  1  0  0  0  0  0999 V2000
    8.6055  -13.4666   20.1403 O   0  0  0  0  0  0  0  0  0  0  0  0
    7.6772  -14.2394   19.4694 C   0  0  0  0  0  0  0  0  0  0  0  0
    8.0007  -15.7254   19.5791 C   0  0  2  0  0  0  0  0  0  0  0  0
    6.9867  -16.4356   18.8571 N   0  0  0  0  0  0  0  0  0  0  0  0
    7.9594  -16.0601   21.0489 C   0  0  0  0  0  0  0  0  0  0  0  0
    6.8672  -16.2118   21.6444 O   0  0  0  0  0  0  0  0  0  0  0  0
    9.1380  -16.2146   21.8058 N   0  0  0  0  0  0  0  0  0  0  0  0
    9.1328  -16.5790   23.2267 C   0  0  1  0  0  0  0  0  0  0  0  0
   10.3398  -17.4231   23.5374 C   0  0  0  0  0  0  0  0  0  0  0  0
   10.4391  -17.8137   24.9667 C   0  0  0  0  0  0  0  0  0  0  0  0
   11.6530  -18.6704   25.1807 C   0  0  0  0  0  0  0  0  0  0  0  0
   11.5304  -19.9095   25.1715 O   0  0  0  0  0  0  0  0  0  0  0  0
    9.1192  -15.3790   24.0738 C   0  0  0  0  0  0  0  0  0  0  0  0
    9.9359  -14.4569   23.8570 O   0  0  0  0  0  0  0  0  0  0  0  0
   12.8957  -18.1164   25.3863 O   0  0  0  0  0  0  0  0  0  0  0  0
    6.9477  -12.1486   26.9923 C   0  0  0  0  0  0  0  0  0  0  0  0
    6.9530  -13.2847   26.0309 C   0  0  1  0  0  0  0  0  0  0  0  0
    6.5753  -12.8403   24.6328 C   0  0  0  0  0  0  0  0  0  0  0  0
    8.2910  -13.9860   25.9271 C   0  0  2  0  0  0  0  0  0  0  0  0
    8.2096  -15.1988   25.1533 N   0  0  0  0  0  0  0  0  0  0  0  0
    8.8106  -14.2828   27.2908 C   0  0  0  0  0  0  0  0  0  0  0  0
    9.1925  -13.2985   28.1651 O   0  0  0  0  0  0  0  0  0  0  0  0
    8.9007  -15.4726   27.6483 O   0  0  0  0  0  0  0  0  0  0  0  0
  1  2  1  0
  3  5  1  0
  3  4  1  6
  3  2  1  0
  5  6  2  0
  7  8  1  0
  7  5  1  0
  8 13  1  0
  8  9  1  1
 10 11  1  0
 10  9  1  0
 11 15  1  0
 11 12  2  0
 13 14  2  0
 13 20  1  0
 17 18  1  6
 17 16  1  0
 19 17  1  0
 19 20  1  6
 21 19  1  0
 21 22  1  0
 23 21  2  0
M  END
$$$$
