SEV.pdb
     RDKit          3D

 23 22  0  0  1  0  0  0  0  0999 V2000
    8.5577  -13.1252   20.2831 O   0  0  0  0  0  0  0  0  0  0  0  0
    7.5830  -13.8279   19.6011 C   0  0  0  0  0  0  0  0  0  0  0  0
    7.7641  -15.3337   19.7581 C   0  0  2  0  0  0  0  0  0  0  0  0
    6.7133  -15.9677   19.0181 N   0  0  0  0  0  0  0  0  0  0  0  0
    7.6437  -15.6230   21.2332 C   0  0  0  0  0  0  0  0  0  0  0  0
    6.5302  -15.5893   21.8072 O   0  0  0  0  0  0  0  0  0  0  0  0
    8.7695  -15.9403   22.0191 N   0  0  0  0  0  0  0  0  0  0  0  0
    8.6789  -16.2838   23.4424 C   0  0  1  0  0  0  0  0  0  0  0  0
    9.6735  -17.3665   23.7662 C   0  0  0  0  0  0  0  0  0  0  0  0
    9.6539  -17.7837   25.1913 C   0  0  0  0  0  0  0  0  0  0  0  0
   10.7155  -18.8158   25.4377 C   0  0  0  0  0  0  0  0  0  0  0  0
   11.8366  -18.6697   24.9159 O   0  0  0  0  0  0  0  0  0  0  0  0
    8.9211  -15.1028   24.2814 C   0  0  0  0  0  0  0  0  0  0  0  0
    9.9766  -14.4468   24.1401 O   0  0  0  0  0  0  0  0  0  0  0  0
   10.4763  -19.9178   26.2264 O   0  0  0  0  0  0  0  0  0  0  0  0
    6.8893  -11.8638   24.8514 C   0  0  0  0  0  0  0  0  0  0  0  0
    7.2296  -12.4970   26.1545 C   0  0  1  0  0  0  0  0  0  0  0  0
    6.0414  -13.2185   26.7567 C   0  0  0  0  0  0  0  0  0  0  0  0
    8.3594  -13.5012   26.0649 C   0  0  2  0  0  0  0  0  0  0  0  0
    8.0035  -14.6492   25.2701 N   0  0  0  0  0  0  0  0  0  0  0  0
    8.7608  -13.9304   27.4332 C   0  0  0  0  0  0  0  0  0  0  0  0
    8.7138  -15.2387   27.8395 O   0  0  0  0  0  0  0  0  0  0  0  0
    9.1542  -13.0647   28.2379 O   0  0  0  0  0  0  0  0  0  0  0  0
  1  2  1  0
  3  5  1  0
  3  4  1  6
  3  2  1  0
  5  6  2  0
  7  8  1  0
  7  5  1  0
  8 13  1  0
  8  9  1  1
 10 11  1  0
 10  9  1  0
 11 15  1  0
 11 12  2  0
 13 14  2  0
 13 20  1  0
 17 18  1  6
 17 16  1  0
 19 17  1  0
 19 20  1  6
 21 19  1  0
 21 22  1  0
 23 21  2  0
M  END
$$$$
