SEV.pdb
     RDKit          3D

 23 22  0  0  1  0  0  0  0  0999 V2000
    9.5760  -11.9031   19.9425 O   0  0  0  0  0  0  0  0  0  0  0  0
    9.7914  -13.1694   19.4333 C   0  0  0  0  0  0  0  0  0  0  0  0
    8.4867  -13.9453   19.2902 C   0  0  2  0  0  0  0  0  0  0  0  0
    7.4989  -13.0296   18.8009 N   0  0  0  0  0  0  0  0  0  0  0  0
    8.1351  -14.4406   20.6704 C   0  0  0  0  0  0  0  0  0  0  0  0
    7.2234  -13.8971   21.3368 O   0  0  0  0  0  0  0  0  0  0  0  0
    8.8122  -15.5259   21.2618 N   0  0  0  0  0  0  0  0  0  0  0  0
    8.3864  -16.1414   22.5233 C   0  0  1  0  0  0  0  0  0  0  0  0
    9.1174  -17.4419   22.7242 C   0  0  0  0  0  0  0  0  0  0  0  0
    8.8167  -18.0976   24.0223 C   0  0  0  0  0  0  0  0  0  0  0  0
    9.6255  -19.3544   24.1612 C   0  0  0  0  0  0  0  0  0  0  0  0
    9.1528  -20.4291   23.7462 O   0  0  0  0  0  0  0  0  0  0  0  0
    8.6338  -15.2384   23.6551 C   0  0  0  0  0  0  0  0  0  0  0  0
    9.6994  -14.5856   23.7069 O   0  0  0  0  0  0  0  0  0  0  0  0
   10.8756  -19.3440   24.7361 O   0  0  0  0  0  0  0  0  0  0  0  0
    7.1504  -12.4170   27.3718 C   0  0  0  0  0  0  0  0  0  0  0  0
    6.8742  -13.2818   26.1925 C   0  0  1  0  0  0  0  0  0  0  0  0
    6.4724  -12.4677   24.9798 C   0  0  0  0  0  0  0  0  0  0  0  0
    8.0514  -14.1403   25.7802 C   0  0  2  0  0  0  0  0  0  0  0  0
    7.7104  -15.0576   24.7227 N   0  0  0  0  0  0  0  0  0  0  0  0
    8.5664  -14.8884   26.9605 C   0  0  0  0  0  0  0  0  0  0  0  0
    9.1925  -14.2689   28.0108 O   0  0  0  0  0  0  0  0  0  0  0  0
    8.4212  -16.1252   26.9918 O   0  0  0  0  0  0  0  0  0  0  0  0
  1  2  1  0
  3  5  1  0
  3  4  1  1
  3  2  1  0
  5  6  2  0
  7  8  1  0
  7  5  1  0
  8 13  1  0
  8  9  1  1
 10 11  1  0
 10  9  1  0
 11 15  1  0
 11 12  2  0
 13 14  2  0
 13 20  1  0
 17 18  1  6
 17 16  1  0
 19 17  1  0
 19 20  1  6
 21 19  1  0
 21 22  1  0
 23 21  2  0
M  END
$$$$
