QVL.pdb
     RDKit          3D

 25 24  0  0  1  0  0  0  0  0999 V2000
   12.8569  -19.5197   22.4438 N   0  0  0  0  0  0  0  0  0  0  0  0
   14.0035  -19.0353   21.7560 C   0  0  0  0  0  0  0  0  0  0  0  0
   14.7419  -19.8266   21.1525 O   0  0  0  0  0  0  0  0  0  0  0  0
   14.2694  -17.6021   21.7879 C   0  0  0  0  0  0  0  0  0  0  0  0
   13.1103  -16.7127   22.0507 C   0  0  0  0  0  0  0  0  0  0  0  0
   12.1368  -16.6376   20.9139 C   0  0  2  0  0  0  0  0  0  0  0  0
   12.6858  -15.9595   19.7554 N   0  0  0  0  0  0  0  0  0  0  0  0
   10.9217  -15.8949   21.3241 C   0  0  0  0  0  0  0  0  0  0  0  0
   10.9547  -14.6629   21.3134 O   0  0  0  0  0  0  0  0  0  0  0  0
    7.3264  -16.2158   19.9326 C   0  0  0  0  0  0  0  0  0  0  0  0
    7.3385  -16.5227   21.4031 C   0  0  2  0  0  0  0  0  0  0  0  0
    5.9929  -16.0688   21.9247 C   0  0  0  0  0  0  0  0  0  0  0  0
    8.5016  -15.9017   22.0779 C   0  0  2  0  0  0  0  0  0  0  0  0
    9.7663  -16.5456   21.7137 N   0  0  0  0  0  0  0  0  0  0  0  0
    8.5055  -15.9071   23.5468 C   0  0  0  0  0  0  0  0  0  0  0  0
    9.2446  -16.7241   24.1571 O   0  0  0  0  0  0  0  0  0  0  0  0
    6.0955  -11.8504   26.3636 C   0  0  0  0  0  0  0  0  0  0  0  0
    7.1715  -12.8225   25.9187 C   0  0  1  0  0  0  0  0  0  0  0  0
    8.4447  -12.4078   26.6539 C   0  0  0  0  0  0  0  0  0  0  0  0
    6.8221  -14.1957   26.3942 C   0  0  0  0  0  0  0  0  0  0  0  0
    7.7319  -15.2691   25.8264 C   0  0  2  0  0  0  0  0  0  0  0  0
    7.7327  -15.0478   24.3623 N   0  0  0  0  0  0  0  0  0  0  0  0
    7.2162  -16.6344   26.0803 C   0  0  0  0  0  0  0  0  0  0  0  0
    7.6767  -17.3754   27.1534 O   0  0  0  0  0  0  0  0  0  0  0  0
    6.3517  -17.1536   25.3326 O   0  0  0  0  0  0  0  0  0  0  0  0
  2  4  1  0
  2  1  1  0
  3  2  2  0
  5  6  1  0
  5  4  1  0
  6  7  1  6
  8  9  2  0
  8  6  1  0
 11 10  1  6
 11 13  1  0
 11 12  1  0
 13 14  1  6
 14  8  1  0
 15 22  1  0
 15 13  1  0
 16 15  2  0
 18 17  1  1
 19 18  1  0
 20 18  1  0
 21 20  1  1
 21 23  1  0
 21 22  1  0
 23 24  1  0
 25 23  2  0
M  END
$$$$
