QVL.pdb
     RDKit          3D

 25 24  0  0  1  0  0  0  0  0999 V2000
   13.8159  -19.3614   24.1952 N   0  0  0  0  0  0  0  0  0  0  0  0
   14.0132  -19.9365   22.9097 C   0  0  0  0  0  0  0  0  0  0  0  0
   14.7269  -20.9419   22.7857 O   0  0  0  0  0  0  0  0  0  0  0  0
   13.3564  -19.3102   21.7686 C   0  0  0  0  0  0  0  0  0  0  0  0
   12.5498  -18.0952   22.0455 C   0  0  0  0  0  0  0  0  0  0  0  0
   11.7340  -17.6325   20.8766 C   0  0  2  0  0  0  0  0  0  0  0  0
   12.5546  -17.1849   19.7679 N   0  0  0  0  0  0  0  0  0  0  0  0
   10.8677  -16.4962   21.2701 C   0  0  0  0  0  0  0  0  0  0  0  0
   11.3087  -15.3518   21.1487 O   0  0  0  0  0  0  0  0  0  0  0  0
    7.6164  -15.3506   19.9534 C   0  0  0  0  0  0  0  0  0  0  0  0
    7.3938  -15.6741   21.4034 C   0  0  2  0  0  0  0  0  0  0  0  0
    6.3388  -14.7004   21.8803 C   0  0  0  0  0  0  0  0  0  0  0  0
    8.6607  -15.6331   22.1697 C   0  0  2  0  0  0  0  0  0  0  0  0
    9.5915  -16.6895   21.7643 N   0  0  0  0  0  0  0  0  0  0  0  0
    8.5664  -15.7774   23.6285 C   0  0  0  0  0  0  0  0  0  0  0  0
    9.2008  -16.7050   24.1972 O   0  0  0  0  0  0  0  0  0  0  0  0
    6.0074  -11.9249   26.5569 C   0  0  0  0  0  0  0  0  0  0  0  0
    7.1332  -12.8585   26.1547 C   0  0  1  0  0  0  0  0  0  0  0  0
    8.3273  -12.4803   27.0292 C   0  0  0  0  0  0  0  0  0  0  0  0
    6.7605  -14.2616   26.5102 C   0  0  0  0  0  0  0  0  0  0  0  0
    7.6980  -15.2936   25.9119 C   0  0  2  0  0  0  0  0  0  0  0  0
    7.8067  -14.9399   24.4781 N   0  0  0  0  0  0  0  0  0  0  0  0
    7.1516  -16.6677   26.0017 C   0  0  0  0  0  0  0  0  0  0  0  0
    7.5317  -17.5135   27.0279 O   0  0  0  0  0  0  0  0  0  0  0  0
    6.3331  -17.0999   25.1537 O   0  0  0  0  0  0  0  0  0  0  0  0
  2  4  1  0
  2  1  1  0
  3  2  2  0
  5  6  1  0
  5  4  1  0
  6  7  1  6
  8  9  2  0
  8  6  1  0
 11 10  1  6
 11 13  1  0
 11 12  1  0
 13 14  1  6
 14  8  1  0
 15 22  1  0
 15 13  1  0
 16 15  2  0
 18 17  1  1
 19 18  1  0
 20 18  1  0
 21 20  1  1
 21 23  1  0
 21 22  1  0
 23 24  1  0
 25 23  2  0
M  END
$$$$
