QVL.pdb
     RDKit          3D

 25 24  0  0  1  0  0  0  0  0999 V2000
    9.4872  -21.6381   20.6326 N   0  0  0  0  0  0  0  0  0  0  0  0
    8.0878  -21.5206   20.4089 C   0  0  0  0  0  0  0  0  0  0  0  0
    7.3290  -22.4404   20.7459 O   0  0  0  0  0  0  0  0  0  0  0  0
    7.5922  -20.3013   19.7815 C   0  0  0  0  0  0  0  0  0  0  0  0
    8.6052  -19.2832   19.4061 C   0  0  0  0  0  0  0  0  0  0  0  0
    8.0231  -18.0592   18.7667 C   0  0  2  0  0  0  0  0  0  0  0  0
    8.2710  -18.0061   17.3389 N   0  0  0  0  0  0  0  0  0  0  0  0
    8.6128  -16.8367   19.3619 C   0  0  0  0  0  0  0  0  0  0  0  0
    9.8403  -16.7512   19.4325 O   0  0  0  0  0  0  0  0  0  0  0  0
    7.6258  -13.0417   18.8114 C   0  0  0  0  0  0  0  0  0  0  0  0
    7.5190  -13.4130   20.2631 C   0  0  2  0  0  0  0  0  0  0  0  0
    7.9434  -12.1804   21.0307 C   0  0  0  0  0  0  0  0  0  0  0  0
    8.3038  -14.6307   20.5714 C   0  0  2  0  0  0  0  0  0  0  0  0
    7.8260  -15.8030   19.8338 N   0  0  0  0  0  0  0  0  0  0  0  0
    8.3310  -15.0736   21.9717 C   0  0  0  0  0  0  0  0  0  0  0  0
    7.2672  -15.0486   22.6456 O   0  0  0  0  0  0  0  0  0  0  0  0
    7.8670  -19.3871   23.8479 C   0  0  0  0  0  0  0  0  0  0  0  0
    7.8948  -17.8735   23.7534 C   0  0  1  0  0  0  0  0  0  0  0  0
    6.9073  -17.3672   24.8032 C   0  0  0  0  0  0  0  0  0  0  0  0
    9.2473  -17.3795   24.1542 C   0  0  0  0  0  0  0  0  0  0  0  0
    9.3692  -15.8685   24.0912 C   0  0  2  0  0  0  0  0  0  0  0  0
    9.4791  -15.5439   22.6506 N   0  0  0  0  0  0  0  0  0  0  0  0
   10.5935  -15.3753   24.7637 C   0  0  0  0  0  0  0  0  0  0  0  0
   10.6226  -15.1943   26.1346 O   0  0  0  0  0  0  0  0  0  0  0  0
   11.6328  -15.1095   24.1116 O   0  0  0  0  0  0  0  0  0  0  0  0
  2  4  1  0
  2  1  1  0
  3  2  2  0
  5  6  1  0
  5  4  1  0
  6  7  1  6
  8  9  2  0
  8  6  1  0
 11 10  1  6
 11 13  1  0
 11 12  1  0
 13 14  1  6
 14  8  1  0
 15 22  1  0
 15 13  1  0
 16 15  2  0
 18 17  1  1
 19 18  1  0
 20 18  1  0
 21 20  1  6
 21 23  1  0
 21 22  1  0
 23 24  1  0
 25 23  2  0
M  END
$$$$
