QVL.pdb
     RDKit          3D

 25 24  0  0  1  0  0  0  0  0999 V2000
   14.3227  -19.8075   21.0199 N   0  0  0  0  0  0  0  0  0  0  0  0
   13.5147  -20.3972   20.0091 C   0  0  0  0  0  0  0  0  0  0  0  0
   13.9733  -21.3075   19.3045 O   0  0  0  0  0  0  0  0  0  0  0  0
   12.1550  -19.8993   19.8389 C   0  0  0  0  0  0  0  0  0  0  0  0
   11.7191  -18.8178   20.7575 C   0  0  0  0  0  0  0  0  0  0  0  0
   11.1057  -17.6425   20.0588 C   0  0  2  0  0  0  0  0  0  0  0  0
   12.0037  -17.0384   19.0936 N   0  0  0  0  0  0  0  0  0  0  0  0
   10.7418  -16.5923   21.0392 C   0  0  0  0  0  0  0  0  0  0  0  0
   11.6022  -15.7743   21.3702 O   0  0  0  0  0  0  0  0  0  0  0  0
    7.4408  -14.3580   20.9555 C   0  0  0  0  0  0  0  0  0  0  0  0
    7.5915  -15.0978   22.2542 C   0  0  2  0  0  0  0  0  0  0  0  0
    6.9841  -14.1982   23.3080 C   0  0  0  0  0  0  0  0  0  0  0  0
    9.0021  -15.4738   22.5046 C   0  0  2  0  0  0  0  0  0  0  0  0
    9.4741  -16.5111   21.5838 N   0  0  0  0  0  0  0  0  0  0  0  0
    9.3290  -15.9998   23.8366 C   0  0  0  0  0  0  0  0  0  0  0  0
    9.2891  -17.2431   24.0339 O   0  0  0  0  0  0  0  0  0  0  0  0
   10.0276  -13.1805   28.8868 C   0  0  0  0  0  0  0  0  0  0  0  0
    9.4834  -14.2382   27.9455 C   0  0  1  0  0  0  0  0  0  0  0  0
    8.5365  -13.5091   26.9941 C   0  0  0  0  0  0  0  0  0  0  0  0
   10.6014  -14.7812   27.1154 C   0  0  0  0  0  0  0  0  0  0  0  0
   10.1606  -15.8929   26.1816 C   0  0  2  0  0  0  0  0  0  0  0  0
    9.6999  -15.2111   24.9505 N   0  0  0  0  0  0  0  0  0  0  0  0
    9.0211  -16.6661   26.7275 C   0  0  0  0  0  0  0  0  0  0  0  0
    7.7363  -16.4562   26.2606 O   0  0  0  0  0  0  0  0  0  0  0  0
    9.1892  -17.5286   27.6242 O   0  0  0  0  0  0  0  0  0  0  0  0
  2  4  1  0
  2  1  1  0
  3  2  2  0
  5  6  1  0
  5  4  1  0
  6  7  1  6
  8  9  2  0
  8  6  1  0
 11 10  1  6
 11 13  1  0
 11 12  1  0
 13 14  1  6
 14  8  1  0
 15 22  1  0
 15 13  1  0
 16 15  2  0
 18 17  1  1
 19 18  1  0
 20 18  1  0
 21 20  1  1
 21 23  1  0
 21 22  1  0
 23 24  1  0
 25 23  2  0
M  END
$$$$
