QVL.pdb
     RDKit          3D

 25 24  0  0  1  0  0  0  0  0999 V2000
   11.5573  -21.5052   22.9422 N   0  0  0  0  0  0  0  0  0  0  0  0
   11.6453  -20.7383   21.7478 C   0  0  0  0  0  0  0  0  0  0  0  0
   10.8912  -20.9876   20.7967 O   0  0  0  0  0  0  0  0  0  0  0  0
   12.6360  -19.6703   21.6885 C   0  0  0  0  0  0  0  0  0  0  0  0
   12.1713  -18.3066   22.0463 C   0  0  0  0  0  0  0  0  0  0  0  0
   11.6177  -17.5339   20.8878 C   0  0  2  0  0  0  0  0  0  0  0  0
   12.6564  -17.0027   20.0263 N   0  0  0  0  0  0  0  0  0  0  0  0
   10.8157  -16.3849   21.3706 C   0  0  0  0  0  0  0  0  0  0  0  0
   11.3958  -15.3256   21.6161 O   0  0  0  0  0  0  0  0  0  0  0  0
    7.7668  -14.9697   19.5881 C   0  0  0  0  0  0  0  0  0  0  0  0
    7.3734  -15.2975   21.0004 C   0  0  2  0  0  0  0  0  0  0  0  0
    6.3500  -14.2538   21.3905 C   0  0  0  0  0  0  0  0  0  0  0  0
    8.5546  -15.3647   21.8915 C   0  0  2  0  0  0  0  0  0  0  0  0
    9.4481  -16.4743   21.5495 N   0  0  0  0  0  0  0  0  0  0  0  0
    8.3011  -15.5370   23.3281 C   0  0  0  0  0  0  0  0  0  0  0  0
    8.6289  -16.6180   23.8854 O   0  0  0  0  0  0  0  0  0  0  0  0
    5.8166  -11.5042   26.1880 C   0  0  0  0  0  0  0  0  0  0  0  0
    6.9358  -12.4920   25.9193 C   0  0  1  0  0  0  0  0  0  0  0  0
    7.9489  -12.2982   27.0461 C   0  0  0  0  0  0  0  0  0  0  0  0
    6.4056  -13.8837   26.0454 C   0  0  0  0  0  0  0  0  0  0  0  0
    7.3861  -14.9374   25.5654 C   0  0  2  0  0  0  0  0  0  0  0  0
    7.7073  -14.5665   24.1683 N   0  0  0  0  0  0  0  0  0  0  0  0
    6.7905  -16.2937   25.5510 C   0  0  0  0  0  0  0  0  0  0  0  0
    7.0578  -17.1937   26.5666 O   0  0  0  0  0  0  0  0  0  0  0  0
    6.0309  -16.6617   24.6217 O   0  0  0  0  0  0  0  0  0  0  0  0
  2  4  1  0
  2  1  1  0
  3  2  2  0
  5  6  1  0
  5  4  1  0
  6  7  1  6
  8  9  2  0
  8  6  1  0
 11 10  1  6
 11 13  1  0
 11 12  1  0
 13 14  1  6
 14  8  1  0
 15 22  1  0
 15 13  1  0
 16 15  2  0
 18 17  1  1
 19 18  1  0
 20 18  1  0
 21 20  1  6
 21 23  1  0
 21 22  1  0
 23 24  1  0
 25 23  2  0
M  END
$$$$
