QVL.pdb
     RDKit          3D

 25 24  0  0  1  0  0  0  0  0999 V2000
    5.7968  -19.2455   25.1285 N   0  0  0  0  0  0  0  0  0  0  0  0
    7.2086  -19.2926   24.9646 C   0  0  0  0  0  0  0  0  0  0  0  0
    7.9380  -19.4947   25.9457 O   0  0  0  0  0  0  0  0  0  0  0  0
    7.7518  -19.0986   23.6255 C   0  0  0  0  0  0  0  0  0  0  0  0
    6.7742  -18.8428   22.5381 C   0  0  0  0  0  0  0  0  0  0  0  0
    7.4080  -18.5768   21.2064 C   0  0  2  0  0  0  0  0  0  0  0  0
    8.3533  -19.6081   20.8243 N   0  0  0  0  0  0  0  0  0  0  0  0
    8.1457  -17.2916   21.2342 C   0  0  0  0  0  0  0  0  0  0  0  0
    9.3750  -17.3217   21.3159 O   0  0  0  0  0  0  0  0  0  0  0  0
    6.8577  -13.9568   19.2064 C   0  0  0  0  0  0  0  0  0  0  0  0
    7.2396  -13.6999   20.6364 C   0  0  2  0  0  0  0  0  0  0  0  0
    7.8328  -12.3083   20.6556 C   0  0  0  0  0  0  0  0  0  0  0  0
    8.1352  -14.7581   21.1579 C   0  0  2  0  0  0  0  0  0  0  0  0
    7.4931  -16.0749   21.1712 N   0  0  0  0  0  0  0  0  0  0  0  0
    8.6428  -14.5919   22.5263 C   0  0  0  0  0  0  0  0  0  0  0  0
    9.7559  -14.0304   22.7056 O   0  0  0  0  0  0  0  0  0  0  0  0
    7.6573  -11.6716   26.5012 C   0  0  0  0  0  0  0  0  0  0  0  0
    7.0665  -13.0447   26.7586 C   0  0  1  0  0  0  0  0  0  0  0  0
    5.6444  -12.8043   27.2620 C   0  0  0  0  0  0  0  0  0  0  0  0
    6.9509  -13.7820   25.4636 C   0  0  0  0  0  0  0  0  0  0  0  0
    8.2767  -14.3358   24.9763 C   0  0  2  0  0  0  0  0  0  0  0  0
    7.9711  -15.0154   23.6967 N   0  0  0  0  0  0  0  0  0  0  0  0
    8.8393  -15.3441   25.9044 C   0  0  0  0  0  0  0  0  0  0  0  0
    9.7835  -14.9857   26.8493 O   0  0  0  0  0  0  0  0  0  0  0  0
    8.4766  -16.5451   25.8591 O   0  0  0  0  0  0  0  0  0  0  0  0
  2  4  1  0
  2  1  1  0
  3  2  2  0
  5  6  1  0
  5  4  1  0
  6  7  1  1
  8  9  2  0
  8  6  1  0
 11 10  1  6
 11 13  1  0
 11 12  1  0
 13 14  1  1
 14  8  1  0
 15 22  1  0
 15 13  1  0
 16 15  2  0
 18 17  1  6
 19 18  1  0
 20 18  1  0
 21 20  1  1
 21 23  1  0
 21 22  1  0
 23 24  1  0
 25 23  2  0
M  END
$$$$
