QVL.pdb
     RDKit          3D

 25 24  0  0  1  0  0  0  0  0999 V2000
   15.1012  -14.9748   20.7548 N   0  0  0  0  0  0  0  0  0  0  0  0
   14.5087  -14.5314   19.5405 C   0  0  0  0  0  0  0  0  0  0  0  0
   15.1449  -14.6054   18.4797 O   0  0  0  0  0  0  0  0  0  0  0  0
   13.1525  -13.9987   19.5920 C   0  0  0  0  0  0  0  0  0  0  0  0
   12.1705  -14.7485   20.4148 C   0  0  0  0  0  0  0  0  0  0  0  0
   10.9821  -15.2354   19.6425 C   0  0  2  0  0  0  0  0  0  0  0  0
   10.7361  -14.4513   18.4475 N   0  0  0  0  0  0  0  0  0  0  0  0
    9.7595  -15.1617   20.4770 C   0  0  0  0  0  0  0  0  0  0  0  0
    8.9788  -14.2258   20.2937 O   0  0  0  0  0  0  0  0  0  0  0  0
    7.0584  -17.6506   20.4460 C   0  0  0  0  0  0  0  0  0  0  0  0
    7.5657  -17.5773   21.8581 C   0  0  2  0  0  0  0  0  0  0  0  0
    6.3766  -17.9019   22.7352 C   0  0  0  0  0  0  0  0  0  0  0  0
    8.1997  -16.2688   22.1402 C   0  0  2  0  0  0  0  0  0  0  0  0
    9.4791  -16.1080   21.4445 N   0  0  0  0  0  0  0  0  0  0  0  0
    8.5126  -15.9643   23.5428 C   0  0  0  0  0  0  0  0  0  0  0  0
    9.6510  -16.2552   23.9963 O   0  0  0  0  0  0  0  0  0  0  0  0
    5.8110  -12.1228   26.4127 C   0  0  0  0  0  0  0  0  0  0  0  0
    6.9662  -12.9133   25.8286 C   0  0  1  0  0  0  0  0  0  0  0  0
    8.2353  -12.1619   26.2266 C   0  0  0  0  0  0  0  0  0  0  0  0
    7.0293  -14.2534   26.4875 C   0  0  0  0  0  0  0  0  0  0  0  0
    8.0593  -15.1743   25.8606 C   0  0  2  0  0  0  0  0  0  0  0  0
    7.6239  -15.3512   24.4565 N   0  0  0  0  0  0  0  0  0  0  0  0
    8.0829  -16.5096   26.5017 C   0  0  0  0  0  0  0  0  0  0  0  0
    9.0189  -16.8098   27.4747 O   0  0  0  0  0  0  0  0  0  0  0  0
    7.2586  -17.4006   26.1814 O   0  0  0  0  0  0  0  0  0  0  0  0
  2  4  1  0
  2  1  1  0
  3  2  2  0
  5  6  1  0
  5  4  1  0
  6  7  1  6
  8  9  2  0
  8  6  1  0
 11 10  1  6
 11 13  1  0
 11 12  1  0
 13 14  1  6
 14  8  1  0
 15 22  1  0
 15 13  1  0
 16 15  2  0
 18 17  1  1
 19 18  1  0
 20 18  1  0
 21 20  1  1
 21 23  1  0
 21 22  1  0
 23 24  1  0
 25 23  2  0
M  END
$$$$
