RVV.pdb
     RDKit          3D

 26 25  0  0  1  0  0  0  0  0999 V2000
   23.6001  -15.8617  -18.1037 N   0  0  0  0  0  0  0  0  0  0  0  0
   22.2086  -15.6796  -17.8936 C   0  0  0  0  0  0  0  0  0  0  0  0
   21.5825  -14.8112  -18.5845 N   0  0  0  0  0  0  0  0  0  0  0  0
   21.5288  -16.4542  -16.9285 N   0  0  0  0  0  0  0  0  0  0  0  0
   22.1161  -17.6215  -16.3173 C   0  0  0  0  0  0  0  0  0  0  0  0
   22.3509  -18.6654  -17.3802 C   0  0  0  0  0  0  0  0  0  0  0  0
   22.9168  -19.9447  -16.8183 C   0  0  0  0  0  0  0  0  0  0  0  0
   24.3576  -20.1498  -17.1937 C   0  0  2  0  0  0  0  0  0  0  0  0
   24.4348  -20.9545  -18.3871 N   0  0  0  0  0  0  0  0  0  0  0  0
   25.1441  -20.7365  -16.0755 C   0  0  0  0  0  0  0  0  0  0  0  0
   24.8657  -21.9350  -15.7642 O   0  0  0  0  0  0  0  0  0  0  0  0
   20.5730  -14.5882  -18.4523 C   0  0  0  0  0  0  0  0  0  0  0  0
   29.1597  -20.4635  -13.1594 C   0  0  1  0  0  0  0  0  0  0  0  0
   28.3200  -20.2228  -14.3681 C   0  0  0  0  0  0  0  0  0  0  0  0
   28.9244  -20.7898  -15.6324 C   0  0  1  0  0  0  0  0  0  0  0  0
   26.8649  -20.6271  -14.2234 N   0  0  0  0  0  0  0  0  0  0  0  0
   26.1490  -20.0312  -15.3782 C   0  0  0  0  0  0  0  0  0  0  0  0
   26.2320  -20.1030  -12.9953 O   0  0  0  0  0  0  0  0  0  0  0  0
   26.0758  -18.8394  -12.8630 C   0  0  0  0  0  0  0  0  0  0  0  0
   23.4915  -21.9329  -10.3201 C   0  0  1  0  0  0  0  0  0  0  0  0
   23.7741  -20.4602  -10.5180 C   0  0  0  0  0  0  0  0  0  0  0  0
   22.9671  -19.8983  -11.6389 C   0  0  1  0  0  0  0  0  0  0  0  0
   25.2635  -20.2939  -10.6750 N   0  0  0  0  0  0  0  0  0  0  0  0
   25.7577  -20.8687  -11.9057 C   0  0  0  0  0  0  0  0  0  0  0  0
   25.9845  -20.9020   -9.5440 O   0  0  0  0  0  0  0  0  0  0  0  0
   25.8772  -20.4136   -8.4001 O   0  0  0  0  0  0  0  0  0  0  0  0
  2  1  1  0
  2  3  2  0
  4  2  1  0
  5  4  1  0
  6  5  1  0
  7  6  1  0
  7  8  1  0
  8  9  1  6
 10  8  1  0
 10 16  1  0
 11 10  2  0
 13 15  1  0
 13 12  1  6
 14 13  1  0
 15 16  1  6
 17 15  1  0
 18 17  2  0
 20 19  1  1
 20 22  1  0
 21 20  1  0
 22 23  1  6
 22 24  1  0
 23 17  1  0
 24 26  1  0
 25 24  2  0
M  END
$$$$
