RVV.pdb
     RDKit          3D

 26 25  0  0  1  0  0  0  0  0999 V2000
   20.0800  -17.9737  -18.0562 N   0  0  0  0  0  0  0  0  0  0  0  0
   19.7233  -16.6372  -17.7399 C   0  0  0  0  0  0  0  0  0  0  0  0
   18.4910  -16.3208  -17.6714 N   0  0  0  0  0  0  0  0  0  0  0  0
   20.7259  -15.6714  -17.5045 N   0  0  0  0  0  0  0  0  0  0  0  0
   22.1214  -16.0163  -17.3822 C   0  0  0  0  0  0  0  0  0  0  0  0
   22.4908  -16.0525  -15.9204 C   0  0  0  0  0  0  0  0  0  0  0  0
   22.9633  -17.4138  -15.4776 C   0  0  0  0  0  0  0  0  0  0  0  0
   24.1008  -17.9281  -16.3147 C   0  0  2  0  0  0  0  0  0  0  0  0
   23.6148  -18.2764  -17.6263 N   0  0  0  0  0  0  0  0  0  0  0  0
   24.8007  -19.0662  -15.6606 C   0  0  0  0  0  0  0  0  0  0  0  0
   24.1776  -20.1718  -15.6453 O   0  0  0  0  0  0  0  0  0  0  0  0
   18.1536  -15.3715  -17.4042 C   0  0  0  0  0  0  0  0  0  0  0  0
   29.1415  -21.1126  -14.5886 C   0  0  2  0  0  0  0  0  0  0  0  0
   28.1899  -20.1118  -15.1514 C   0  0  0  0  0  0  0  0  0  0  0  0
   28.1298  -20.1347  -16.6617 C   0  0  1  0  0  0  0  0  0  0  0  0
   26.7999  -20.1430  -14.5440 N   0  0  0  0  0  0  0  0  0  0  0  0
   26.0833  -18.9596  -15.0800 C   0  0  0  0  0  0  0  0  0  0  0  0
   26.8030  -20.0257  -13.0710 O   0  0  0  0  0  0  0  0  0  0  0  0
   26.9417  -18.8709  -12.5362 C   0  0  0  0  0  0  0  0  0  0  0  0
   25.7723  -19.5827   -8.8431 C   0  0  2  0  0  0  0  0  0  0  0  0
   25.5233  -19.9577  -10.2871 C   0  0  0  0  0  0  0  0  0  0  0  0
   24.1420  -20.4848  -10.4807 C   0  0  2  0  0  0  0  0  0  0  0  0
   26.6182  -20.9012  -10.7135 N   0  0  0  0  0  0  0  0  0  0  0  0
   26.6624  -21.0858  -12.1465 C   0  0  0  0  0  0  0  0  0  0  0  0
   26.4615  -22.2165  -10.0701 O   0  0  0  0  0  0  0  0  0  0  0  0
   26.0330  -23.1866  -10.7288 O   0  0  0  0  0  0  0  0  0  0  0  0
  2  1  1  0
  2  3  2  0
  4  2  1  0
  5  4  1  0
  6  5  1  0
  7  6  1  0
  7  8  1  0
  8  9  1  6
 10  8  1  0
 10 16  1  0
 11 10  2  0
 13 15  1  0
 13 12  1  6
 14 13  1  0
 15 16  1  1
 17 15  1  0
 18 17  2  0
 20 19  1  6
 20 22  1  0
 21 20  1  0
 22 23  1  1
 22 24  1  0
 23 17  1  0
 24 26  1  0
 25 24  2  0
M  END
$$$$
