RVV.pdb
     RDKit          3D

 26 25  0  0  1  0  0  0  0  0999 V2000
   26.6395  -22.8755  -16.9803 N   0  0  0  0  0  0  0  0  0  0  0  0
   27.7063  -22.0260  -17.3723 C   0  0  0  0  0  0  0  0  0  0  0  0
   27.7437  -21.5831  -18.5664 N   0  0  0  0  0  0  0  0  0  0  0  0
   28.7136  -21.6775  -16.4463 N   0  0  0  0  0  0  0  0  0  0  0  0
   28.7345  -22.1847  -15.0959 C   0  0  0  0  0  0  0  0  0  0  0  0
   29.1182  -21.0671  -14.1587 C   0  0  0  0  0  0  0  0  0  0  0  0
   27.9612  -20.1531  -13.8455 C   0  0  0  0  0  0  0  0  0  0  0  0
   26.8222  -20.8742  -13.1807 C   0  0  2  0  0  0  0  0  0  0  0  0
   25.7205  -20.9887  -14.1031 N   0  0  0  0  0  0  0  0  0  0  0  0
   26.4167  -20.2176  -11.9089 C   0  0  0  0  0  0  0  0  0  0  0  0
   26.1388  -18.9814  -11.9813 O   0  0  0  0  0  0  0  0  0  0  0  0
   28.4882  -20.9462  -18.9219 C   0  0  0  0  0  0  0  0  0  0  0  0
   23.8631  -20.4353   -7.8760 C   0  0  2  0  0  0  0  0  0  0  0  0
   24.4265  -20.7253   -9.2259 C   0  0  0  0  0  0  0  0  0  0  0  0
   23.5153  -20.2964  -10.3533 C   0  0  1  0  0  0  0  0  0  0  0  0
   25.8440  -20.2303   -9.4441 N   0  0  0  0  0  0  0  0  0  0  0  0
   26.3349  -20.8983  -10.6746 C   0  0  0  0  0  0  0  0  0  0  0  0
   26.7655  -20.5947   -8.3480 O   0  0  0  0  0  0  0  0  0  0  0  0
   27.1426  -21.8120   -8.2271 C   0  0  0  0  0  0  0  0  0  0  0  0
   30.0957  -19.6928   -4.8770 C   0  0  1  0  0  0  0  0  0  0  0  0
   29.2172  -19.1158   -5.9646 C   0  0  0  0  0  0  0  0  0  0  0  0
   28.6775  -17.7813   -5.5758 C   0  0  2  0  0  0  0  0  0  0  0  0
   28.1659  -20.1418   -6.3005 N   0  0  0  0  0  0  0  0  0  0  0  0
   27.3024  -19.7165   -7.3789 C   0  0  0  0  0  0  0  0  0  0  0  0
   27.3373  -20.4531   -5.1236 O   0  0  0  0  0  0  0  0  0  0  0  0
   26.1762  -20.0019   -5.0407 O   0  0  0  0  0  0  0  0  0  0  0  0
  2  1  1  0
  2  3  2  0
  4  2  1  0
  5  4  1  0
  6  5  1  0
  7  6  1  0
  7  8  1  0
  8  9  1  6
 10  8  1  0
 10 16  1  0
 11 10  2  0
 13 15  1  0
 13 12  1  1
 14 13  1  0
 15 16  1  6
 17 15  1  0
 18 17  2  0
 20 19  1  6
 20 22  1  0
 21 20  1  0
 22 23  1  1
 22 24  1  0
 23 17  1  0
 24 26  1  0
 25 24  2  0
M  END
$$$$
