RVV.pdb
     RDKit          3D

 26 25  0  0  1  0  0  0  0  0999 V2000
   21.4167  -17.7912  -20.2262 N   0  0  0  0  0  0  0  0  0  0  0  0
   22.3228  -16.9513  -19.5282 C   0  0  0  0  0  0  0  0  0  0  0  0
   21.8750  -15.9369  -18.9007 N   0  0  0  0  0  0  0  0  0  0  0  0
   23.7049  -17.2399  -19.5315 N   0  0  0  0  0  0  0  0  0  0  0  0
   24.2334  -18.5073  -19.0891 C   0  0  0  0  0  0  0  0  0  0  0  0
   23.3444  -19.0561  -18.0014 C   0  0  0  0  0  0  0  0  0  0  0  0
   23.8452  -20.3679  -17.4531 C   0  0  0  0  0  0  0  0  0  0  0  0
   25.3460  -20.4438  -17.4243 C   0  0  2  0  0  0  0  0  0  0  0  0
   25.8114  -21.2124  -18.5513 N   0  0  0  0  0  0  0  0  0  0  0  0
   25.8494  -20.9876  -16.1343 C   0  0  0  0  0  0  0  0  0  0  0  0
   25.6364  -22.2213  -15.9261 O   0  0  0  0  0  0  0  0  0  0  0  0
   22.4821  -15.2604  -18.3907 C   0  0  0  0  0  0  0  0  0  0  0  0
   29.3820  -21.0212  -14.8968 C   0  0  2  0  0  0  0  0  0  0  0  0
   28.5200  -20.4079  -13.8458 C   0  0  0  0  0  0  0  0  0  0  0  0
   28.6872  -18.9090  -13.7420 C   0  0  2  0  0  0  0  0  0  0  0  0
   27.0548  -20.7953  -13.9178 N   0  0  0  0  0  0  0  0  0  0  0  0
   26.5284  -20.2067  -15.1738 C   0  0  0  0  0  0  0  0  0  0  0  0
   26.2506  -20.2494  -12.8049 O   0  0  0  0  0  0  0  0  0  0  0  0
   25.8096  -19.0501  -12.8820 C   0  0  0  0  0  0  0  0  0  0  0  0
   23.0700  -20.9390  -11.7531 C   0  0  1  0  0  0  0  0  0  0  0  0
   23.7597  -20.9888  -10.4079 C   0  0  0  0  0  0  0  0  0  0  0  0
   22.9042  -20.4015   -9.3371 C   0  0  2  0  0  0  0  0  0  0  0  0
   25.1097  -20.3363  -10.5579 N   0  0  0  0  0  0  0  0  0  0  0  0
   25.8956  -20.9283  -11.6168 C   0  0  0  0  0  0  0  0  0  0  0  0
   25.8741  -20.4104   -9.3013 O   0  0  0  0  0  0  0  0  0  0  0  0
   26.6887  -21.3389   -9.1200 O   0  0  0  0  0  0  0  0  0  0  0  0
  2  1  1  0
  2  3  2  0
  4  2  1  0
  5  4  1  0
  6  5  1  0
  7  6  1  0
  7  8  1  0
  8  9  1  6
 10  8  1  0
 10 16  1  0
 11 10  2  0
 13 15  1  0
 13 12  1  1
 14 13  1  0
 15 16  1  1
 17 15  1  0
 18 17  2  0
 20 19  1  1
 20 22  1  0
 21 20  1  0
 22 23  1  6
 22 24  1  0
 23 17  1  0
 24 26  1  0
 25 24  2  0
M  END
$$$$
