RVV.pdb
     RDKit          3D

 26 25  0  0  1  0  0  0  0  0999 V2000
   24.6572  -23.4480  -19.8798 N   0  0  0  0  0  0  0  0  0  0  0  0
   23.7339  -22.7082  -20.6632 C   0  0  0  0  0  0  0  0  0  0  0  0
   23.9345  -22.5892  -21.9158 N   0  0  0  0  0  0  0  0  0  0  0  0
   22.6064  -22.1119  -20.0576 N   0  0  0  0  0  0  0  0  0  0  0  0
   22.4010  -22.1148  -18.6297 C   0  0  0  0  0  0  0  0  0  0  0  0
   23.4029  -21.1874  -17.9887 C   0  0  0  0  0  0  0  0  0  0  0  0
   23.1516  -20.9953  -16.5148 C   0  0  0  0  0  0  0  0  0  0  0  0
   22.3058  -19.7863  -16.2283 C   0  0  2  0  0  0  0  0  0  0  0  0
   23.0798  -18.5919  -16.4558 N   0  0  0  0  0  0  0  0  0  0  0  0
   21.7309  -19.8238  -14.8568 C   0  0  0  0  0  0  0  0  0  0  0  0
   22.3722  -19.1894  -13.9639 O   0  0  0  0  0  0  0  0  0  0  0  0
   23.2728  -22.1091  -22.5624 C   0  0  0  0  0  0  0  0  0  0  0  0
   20.6913  -17.9522  -13.0258 C   0  0  2  0  0  0  0  0  0  0  0  0
   19.5215  -18.8739  -13.1039 C   0  0  0  0  0  0  0  0  0  0  0  0
   18.5171  -18.4690  -14.1587 C   0  0  2  0  0  0  0  0  0  0  0  0
   19.8762  -20.3448  -13.2162 N   0  0  0  0  0  0  0  0  0  0  0  0
   20.5435  -20.5144  -14.5304 C   0  0  0  0  0  0  0  0  0  0  0  0
   18.6955  -21.2332  -13.2042 O   0  0  0  0  0  0  0  0  0  0  0  0
   17.9720  -21.3254  -14.2562 C   0  0  0  0  0  0  0  0  0  0  0  0
   18.7996  -24.7827  -11.8732 C   0  0  1  0  0  0  0  0  0  0  0  0
   17.4594  -24.2432  -11.4256 C   0  0  0  0  0  0  0  0  0  0  0  0
   16.3955  -25.2835  -11.5224 C   0  0  2  0  0  0  0  0  0  0  0  0
   17.1811  -22.9891  -12.2132 N   0  0  0  0  0  0  0  0  0  0  0  0
   18.2564  -22.0275  -12.1204 C   0  0  0  0  0  0  0  0  0  0  0  0
   15.9328  -22.3499  -11.7642 O   0  0  0  0  0  0  0  0  0  0  0  0
   15.9615  -21.4934  -10.8563 O   0  0  0  0  0  0  0  0  0  0  0  0
  2  1  1  0
  2  3  2  0
  4  2  1  0
  5  4  1  0
  6  5  1  0
  7  6  1  0
  7  8  1  0
  8  9  1  1
 10  8  1  0
 10 16  1  0
 11 10  2  0
 13 15  1  0
 13 12  1  1
 14 13  1  0
 15 16  1  1
 17 15  1  0
 18 17  2  0
 20 19  1  1
 20 22  1  0
 21 20  1  0
 22 23  1  6
 22 24  1  0
 23 17  1  0
 24 26  1  0
 25 24  2  0
M  END
$$$$
