RVV.pdb
     RDKit          3D

 26 25  0  0  1  0  0  0  0  0999 V2000
   23.2729  -19.5045  -17.1932 N   0  0  0  0  0  0  0  0  0  0  0  0
   23.3203  -18.9125  -18.4819 C   0  0  0  0  0  0  0  0  0  0  0  0
   22.7941  -17.7660  -18.6607 N   0  0  0  0  0  0  0  0  0  0  0  0
   23.9446  -19.5898  -19.5520 N   0  0  0  0  0  0  0  0  0  0  0  0
   24.8951  -20.6554  -19.3460 C   0  0  0  0  0  0  0  0  0  0  0  0
   24.2411  -21.7451  -18.5340 C   0  0  0  0  0  0  0  0  0  0  0  0
   25.2419  -22.5839  -17.7808 C   0  0  0  0  0  0  0  0  0  0  0  0
   26.6046  -21.9514  -17.7360 C   0  0  2  0  0  0  0  0  0  0  0  0
   27.5954  -22.9112  -18.1540 N   0  0  0  0  0  0  0  0  0  0  0  0
   26.9097  -21.3855  -16.3945 C   0  0  0  0  0  0  0  0  0  0  0  0
   27.9627  -21.8163  -15.8318 O   0  0  0  0  0  0  0  0  0  0  0  0
   22.7936  -17.2685  -19.5767 C   0  0  0  0  0  0  0  0  0  0  0  0
   27.3177  -17.6942  -15.4708 C   0  0  2  0  0  0  0  0  0  0  0  0
   26.3154  -18.3415  -14.5761 C   0  0  0  0  0  0  0  0  0  0  0  0
   24.8909  -17.9576  -14.9060 C   0  0  2  0  0  0  0  0  0  0  0  0
   26.4630  -19.8451  -14.4372 N   0  0  0  0  0  0  0  0  0  0  0  0
   26.0983  -20.4240  -15.7537 C   0  0  0  0  0  0  0  0  0  0  0  0
   25.5529  -20.4312  -13.4314 O   0  0  0  0  0  0  0  0  0  0  0  0
   24.4495  -20.9539  -13.8161 C   0  0  0  0  0  0  0  0  0  0  0  0
   25.5784  -19.8615   -9.1105 C   0  0  1  0  0  0  0  0  0  0  0  0
   25.4275  -21.2360   -9.7236 C   0  0  0  0  0  0  0  0  0  0  0  0
   26.7146  -21.9881   -9.6935 C   0  0  1  0  0  0  0  0  0  0  0  0
   24.8353  -21.0647  -11.0986 N   0  0  0  0  0  0  0  0  0  0  0  0
   25.7709  -20.4852  -12.0357 C   0  0  0  0  0  0  0  0  0  0  0  0
   23.6277  -20.2232  -11.0519 O   0  0  0  0  0  0  0  0  0  0  0  0
   23.6974  -19.0139  -11.3542 O   0  0  0  0  0  0  0  0  0  0  0  0
  2  1  1  0
  2  3  2  0
  4  2  1  0
  5  4  1  0
  6  5  1  0
  7  6  1  0
  7  8  1  0
  8  9  1  1
 10  8  1  0
 10 16  1  0
 11 10  2  0
 13 15  1  0
 13 12  1  1
 14 13  1  0
 15 16  1  1
 17 15  1  0
 18 17  2  0
 20 19  1  1
 20 22  1  0
 21 20  1  0
 22 23  1  6
 22 24  1  0
 23 17  1  0
 24 26  1  0
 25 24  2  0
M  END
$$$$
