RVV.pdb
     RDKit          3D

 26 25  0  0  1  0  0  0  0  0999 V2000
   20.4927  -16.9898  -17.6680 N   0  0  0  0  0  0  0  0  0  0  0  0
   21.8043  -17.0776  -18.2024 C   0  0  0  0  0  0  0  0  0  0  0  0
   22.1347  -16.3182  -19.1706 N   0  0  0  0  0  0  0  0  0  0  0  0
   22.7302  -17.9978  -17.6643 N   0  0  0  0  0  0  0  0  0  0  0  0
   22.3527  -19.0054  -16.7034 C   0  0  0  0  0  0  0  0  0  0  0  0
   22.5602  -18.4588  -15.3132 C   0  0  0  0  0  0  0  0  0  0  0  0
   22.9333  -19.5305  -14.3209 C   0  0  0  0  0  0  0  0  0  0  0  0
   23.8897  -20.5380  -14.8949 C   0  0  2  0  0  0  0  0  0  0  0  0
   23.1502  -21.5696  -15.5781 N   0  0  0  0  0  0  0  0  0  0  0  0
   24.7952  -21.0981  -13.8560 C   0  0  0  0  0  0  0  0  0  0  0  0
   24.3339  -22.0634  -13.1733 O   0  0  0  0  0  0  0  0  0  0  0  0
   23.0841  -16.3126  -19.6007 C   0  0  0  0  0  0  0  0  0  0  0  0
   28.7387  -19.5600  -13.3496 C   0  0  1  0  0  0  0  0  0  0  0  0
   28.3781  -20.9477  -12.9395 C   0  0  0  0  0  0  0  0  0  0  0  0
   29.3339  -21.5336  -11.9253 C   0  0  1  0  0  0  0  0  0  0  0  0
   26.9354  -21.1291  -12.5063 N   0  0  0  0  0  0  0  0  0  0  0  0
   26.0979  -20.6096  -13.6153 C   0  0  0  0  0  0  0  0  0  0  0  0
   26.5879  -20.3588  -11.2942 O   0  0  0  0  0  0  0  0  0  0  0  0
   26.2810  -19.1211  -11.4068 C   0  0  0  0  0  0  0  0  0  0  0  0
   25.3194  -21.8783   -7.5320 C   0  0  1  0  0  0  0  0  0  0  0  0
   25.0419  -20.4915   -8.0681 C   0  0  0  0  0  0  0  0  0  0  0  0
   23.7833  -20.4599   -8.8669 C   0  0  1  0  0  0  0  0  0  0  0  0
   26.2679  -20.0322   -8.8144 N   0  0  0  0  0  0  0  0  0  0  0  0
   26.5517  -20.8527   -9.9701 C   0  0  0  0  0  0  0  0  0  0  0  0
   27.4493  -20.0258   -7.9352 O   0  0  0  0  0  0  0  0  0  0  0  0
   28.2863  -20.9492   -8.0075 O   0  0  0  0  0  0  0  0  0  0  0  0
  2  1  1  0
  2  3  2  0
  4  2  1  0
  5  4  1  0
  6  5  1  0
  7  6  1  0
  7  8  1  0
  8  9  1  1
 10  8  1  0
 10 16  1  0
 11 10  2  0
 13 15  1  0
 13 12  1  6
 14 13  1  0
 15 16  1  6
 17 15  1  0
 18 17  2  0
 20 19  1  1
 20 22  1  0
 21 20  1  0
 22 23  1  6
 22 24  1  0
 23 17  1  0
 24 26  1  0
 25 24  2  0
M  END
$$$$
