QMN.pdb
     RDKit          3D

 26 25  0  0  1  0  0  0  0  0999 V2000
    8.4205  -12.3012   17.1309 N   0  0  0  0  0  0  0  0  0  0  0  0
    8.1488  -13.6109   16.7043 C   0  0  0  0  0  0  0  0  0  0  0  0
    8.1440  -13.8618   15.4698 O   0  0  0  0  0  0  0  0  0  0  0  0
    7.8795  -14.6434   17.7031 C   0  0  0  0  0  0  0  0  0  0  0  0
    7.8769  -14.1632   19.1247 C   0  0  0  0  0  0  0  0  0  0  0  0
    8.1463  -15.4012   19.9910 C   0  0  2  0  0  0  0  0  0  0  0  0
    6.9154  -16.1788   20.1251 N   0  0  0  0  0  0  0  0  0  0  0  0
    8.6140  -15.0086   21.3392 C   0  0  0  0  0  0  0  0  0  0  0  0
    9.7266  -14.4204   21.4650 O   0  0  0  0  0  0  0  0  0  0  0  0
    6.8071  -11.9006   28.0815 C   0  0  0  0  0  0  0  0  0  0  0  0
    6.2852  -12.5837   26.4953 S   0  0  0  0  0  0  0  0  0  0  0  0
    7.4679  -13.8886   26.0027 C   0  0  0  0  0  0  0  0  0  0  0  0
    7.1255  -14.3308   24.6214 C   0  0  0  0  0  0  0  0  0  0  0  0
    8.3383  -14.7678   23.8567 C   0  0  2  0  0  0  0  0  0  0  0  0
    7.8930  -15.2470   22.5252 N   0  0  0  0  0  0  0  0  0  0  0  0
    9.0174  -15.8603   24.5771 C   0  0  0  0  0  0  0  0  0  0  0  0
    8.3842  -16.9901   24.5557 O   0  0  0  0  0  0  0  0  0  0  0  0
   12.4779  -17.6951   23.2033 N   0  0  0  0  0  0  0  0  0  0  0  0
   12.7318  -16.7985   24.2648 C   0  0  0  0  0  0  0  0  0  0  0  0
   13.3627  -15.7499   24.0105 O   0  0  0  0  0  0  0  0  0  0  0  0
   12.2739  -17.0774   25.6252 C   0  0  0  0  0  0  0  0  0  0  0  0
   10.7681  -17.0871   25.8017 C   0  0  2  0  0  0  0  0  0  0  0  0
   10.2372  -15.8217   25.2578 N   0  0  0  0  0  0  0  0  0  0  0  0
   10.3338  -17.1894   27.2020 C   0  0  0  0  0  0  0  0  0  0  0  0
   10.4215  -18.3634   27.9615 O   0  0  0  0  0  0  0  0  0  0  0  0
    9.8527  -16.2020   27.7898 O   0  0  0  0  0  0  0  0  0  0  0  0
  1  2  1  0
  2  3  2  0
  4  5  1  0
  4  2  1  0
  6  7  1  1
  6  5  1  0
  8  6  1  0
  9  8  2  0
 11 10  1  0
 12 13  1  0
 12 11  1  0
 14 13  1  1
 14 16  1  0
 14 15  1  0
 15  8  1  0
 16 17  2  0
 18 19  1  0
 19 21  1  0
 20 19  2  0
 22 21  1  1
 23 22  1  0
 23 16  1  0
 24 25  1  0
 24 22  1  0
 26 24  2  0
M  END
$$$$
