QMN.pdb
     RDKit          3D

 26 25  0  0  1  0  0  0  0  0999 V2000
    8.5225  -12.5111   17.3490 N   0  0  0  0  0  0  0  0  0  0  0  0
    7.8465  -13.6887   16.9918 C   0  0  0  0  0  0  0  0  0  0  0  0
    7.7937  -14.0171   15.7768 O   0  0  0  0  0  0  0  0  0  0  0  0
    7.2244  -14.4977   18.0380 C   0  0  0  0  0  0  0  0  0  0  0  0
    7.3758  -13.9573   19.4297 C   0  0  0  0  0  0  0  0  0  0  0  0
    8.0058  -15.0864   20.2568 C   0  0  2  0  0  0  0  0  0  0  0  0
    7.0295  -16.1594   20.4393 N   0  0  0  0  0  0  0  0  0  0  0  0
    8.4284  -14.5922   21.5864 C   0  0  0  0  0  0  0  0  0  0  0  0
    9.5393  -13.9993   21.7055 O   0  0  0  0  0  0  0  0  0  0  0  0
    6.7406  -10.7475   27.4354 C   0  0  0  0  0  0  0  0  0  0  0  0
    5.9545  -12.2603   26.8448 S   0  0  0  0  0  0  0  0  0  0  0  0
    7.2540  -13.4003   26.2481 C   0  0  0  0  0  0  0  0  0  0  0  0
    6.9086  -13.8148   24.8590 C   0  0  0  0  0  0  0  0  0  0  0  0
    8.1176  -14.2513   24.0881 C   0  0  2  0  0  0  0  0  0  0  0  0
    7.6651  -14.7360   22.7611 N   0  0  0  0  0  0  0  0  0  0  0  0
    8.8039  -15.3398   24.8079 C   0  0  0  0  0  0  0  0  0  0  0  0
    8.0372  -16.0299   25.5914 O   0  0  0  0  0  0  0  0  0  0  0  0
   10.3802  -20.3775   23.7674 N   0  0  0  0  0  0  0  0  0  0  0  0
   10.1253  -19.4640   24.8141 C   0  0  0  0  0  0  0  0  0  0  0  0
   10.2512  -19.8675   25.9903 O   0  0  0  0  0  0  0  0  0  0  0  0
    9.7261  -18.0838   24.5420 C   0  0  0  0  0  0  0  0  0  0  0  0
   10.5345  -17.0303   25.2735 C   0  0  2  0  0  0  0  0  0  0  0  0
   10.1500  -15.7087   24.7400 N   0  0  0  0  0  0  0  0  0  0  0  0
   11.9877  -17.1741   25.1081 C   0  0  0  0  0  0  0  0  0  0  0  0
   12.7947  -16.2341   24.4540 O   0  0  0  0  0  0  0  0  0  0  0  0
   12.5807  -18.1731   25.5581 O   0  0  0  0  0  0  0  0  0  0  0  0
  1  2  1  0
  2  3  2  0
  4  5  1  0
  4  2  1  0
  6  7  1  1
  6  5  1  0
  8  6  1  0
  9  8  2  0
 11 10  1  0
 12 13  1  0
 12 11  1  0
 14 13  1  1
 14 16  1  0
 14 15  1  0
 15  8  1  0
 16 17  2  0
 18 19  1  0
 19 21  1  0
 20 19  2  0
 22 21  1  6
 23 22  1  0
 23 16  1  0
 24 25  1  0
 24 22  1  0
 26 24  2  0
M  END
$$$$
