QMN.pdb
     RDKit          3D

 26 25  0  0  1  0  0  0  0  0999 V2000
    6.8052  -12.6593   18.4903 N   0  0  0  0  0  0  0  0  0  0  0  0
    8.0436  -13.2962   18.3117 C   0  0  0  0  0  0  0  0  0  0  0  0
    8.4021  -13.6173   17.1474 O   0  0  0  0  0  0  0  0  0  0  0  0
    8.8793  -13.5681   19.4794 C   0  0  0  0  0  0  0  0  0  0  0  0
    9.5958  -14.8862   19.4516 C   0  0  0  0  0  0  0  0  0  0  0  0
    8.8048  -15.8186   20.3794 C   0  0  2  0  0  0  0  0  0  0  0  0
    7.3920  -15.7956   20.0035 N   0  0  0  0  0  0  0  0  0  0  0  0
    8.9321  -15.3894   21.7901 C   0  0  0  0  0  0  0  0  0  0  0  0
   10.0819  -15.2765   22.3047 O   0  0  0  0  0  0  0  0  0  0  0  0
    7.3562  -11.6750   27.7110 C   0  0  0  0  0  0  0  0  0  0  0  0
    7.4017  -12.3212   26.0271 S   0  0  0  0  0  0  0  0  0  0  0  0
    6.6797  -14.0014   26.0257 C   0  0  0  0  0  0  0  0  0  0  0  0
    6.6182  -14.4813   24.6162 C   0  0  0  0  0  0  0  0  0  0  0  0
    7.9783  -14.8019   24.0741 C   0  0  2  0  0  0  0  0  0  0  0  0
    7.8389  -15.0884   22.6253 N   0  0  0  0  0  0  0  0  0  0  0  0
    8.5263  -15.9839   24.7645 C   0  0  0  0  0  0  0  0  0  0  0  0
    8.2471  -17.1133   24.1950 O   0  0  0  0  0  0  0  0  0  0  0  0
   11.5900  -19.5256   26.8839 N   0  0  0  0  0  0  0  0  0  0  0  0
   11.7819  -18.8303   25.6695 C   0  0  0  0  0  0  0  0  0  0  0  0
   12.6837  -19.2276   24.9007 O   0  0  0  0  0  0  0  0  0  0  0  0
   10.9554  -17.6785   25.3109 C   0  0  0  0  0  0  0  0  0  0  0  0
    9.8859  -17.3210   26.3243 C   0  0  2  0  0  0  0  0  0  0  0  0
    9.2978  -16.0261   25.9288 N   0  0  0  0  0  0  0  0  0  0  0  0
   10.3900  -17.1827   27.6979 C   0  0  0  0  0  0  0  0  0  0  0  0
   10.1819  -16.0491   28.4942 O   0  0  0  0  0  0  0  0  0  0  0  0
   11.0461  -18.1000   28.2272 O   0  0  0  0  0  0  0  0  0  0  0  0
  1  2  1  0
  2  3  2  0
  4  5  1  0
  4  2  1  0
  6  7  1  6
  6  5  1  0
  8  6  1  0
  9  8  2  0
 11 10  1  0
 12 13  1  0
 12 11  1  0
 14 13  1  1
 14 16  1  0
 14 15  1  0
 15  8  1  0
 16 17  2  0
 18 19  1  0
 19 21  1  0
 20 19  2  0
 22 21  1  6
 23 22  1  0
 23 16  1  0
 24 25  1  0
 24 22  1  0
 26 24  2  0
M  END
$$$$
