QMN.pdb
     RDKit          3D

 26 25  0  0  1  0  0  0  0  0999 V2000
    7.8399  -12.6221   17.1773 N   0  0  0  0  0  0  0  0  0  0  0  0
    7.8702  -13.9556   16.7392 C   0  0  0  0  0  0  0  0  0  0  0  0
    7.3783  -14.2397   15.6149 O   0  0  0  0  0  0  0  0  0  0  0  0
    8.4701  -14.9738   17.5991 C   0  0  0  0  0  0  0  0  0  0  0  0
    8.9321  -14.4789   18.9382 C   0  0  0  0  0  0  0  0  0  0  0  0
    8.6466  -15.6138   19.9313 C   0  0  2  0  0  0  0  0  0  0  0  0
    7.2185  -15.9269   19.9155 N   0  0  0  0  0  0  0  0  0  0  0  0
    9.0358  -15.2220   21.3045 C   0  0  0  0  0  0  0  0  0  0  0  0
   10.1918  -14.7536   21.5138 O   0  0  0  0  0  0  0  0  0  0  0  0
    6.7492  -11.4306   27.5296 C   0  0  0  0  0  0  0  0  0  0  0  0
    6.2349  -12.4980   26.1689 S   0  0  0  0  0  0  0  0  0  0  0  0
    7.6453  -13.5607   25.6939 C   0  0  0  0  0  0  0  0  0  0  0  0
    7.3586  -14.1441   24.3529 C   0  0  0  0  0  0  0  0  0  0  0  0
    8.5586  -14.8292   23.7722 C   0  0  2  0  0  0  0  0  0  0  0  0
    8.1920  -15.3343   22.4264 N   0  0  0  0  0  0  0  0  0  0  0  0
    8.9577  -15.9563   24.6349 C   0  0  0  0  0  0  0  0  0  0  0  0
    8.0753  -16.9003   24.7241 O   0  0  0  0  0  0  0  0  0  0  0  0
   11.1041  -18.7484   23.6361 N   0  0  0  0  0  0  0  0  0  0  0  0
   12.1217  -18.4578   24.5716 C   0  0  0  0  0  0  0  0  0  0  0  0
   13.2946  -18.7792   24.2834 O   0  0  0  0  0  0  0  0  0  0  0  0
   11.8240  -17.7994   25.8429 C   0  0  0  0  0  0  0  0  0  0  0  0
   10.3714  -17.4097   26.0344 C   0  0  2  0  0  0  0  0  0  0  0  0
   10.1497  -16.1236   25.3446 N   0  0  0  0  0  0  0  0  0  0  0  0
    9.9823  -17.2361   27.4409 C   0  0  0  0  0  0  0  0  0  0  0  0
    9.4137  -18.2496   28.2233 O   0  0  0  0  0  0  0  0  0  0  0  0
   10.1477  -16.1421   28.0135 O   0  0  0  0  0  0  0  0  0  0  0  0
  1  2  1  0
  2  3  2  0
  4  5  1  0
  4  2  1  0
  6  7  1  1
  6  5  1  0
  8  6  1  0
  9  8  2  0
 11 10  1  0
 12 13  1  0
 12 11  1  0
 14 13  1  1
 14 16  1  0
 14 15  1  0
 15  8  1  0
 16 17  2  0
 18 19  1  0
 19 21  1  0
 20 19  2  0
 22 21  1  1
 23 22  1  0
 23 16  1  0
 24 25  1  0
 24 22  1  0
 26 24  2  0
M  END
$$$$
