QMN.pdb
     RDKit          3D

 26 25  0  0  1  0  0  0  0  0999 V2000
   12.5591  -16.9612   18.5179 N   0  0  0  0  0  0  0  0  0  0  0  0
   11.2508  -16.9931   18.0096 C   0  0  0  0  0  0  0  0  0  0  0  0
   11.0583  -17.4413   16.8481 O   0  0  0  0  0  0  0  0  0  0  0  0
   10.1520  -16.5060   18.8411 C   0  0  0  0  0  0  0  0  0  0  0  0
   10.5511  -16.0520   20.2145 C   0  0  0  0  0  0  0  0  0  0  0  0
    9.5998  -16.7606   21.1885 C   0  0  2  0  0  0  0  0  0  0  0  0
    8.2184  -16.5571   20.7546 N   0  0  0  0  0  0  0  0  0  0  0  0
    9.7549  -16.2248   22.5594 C   0  0  0  0  0  0  0  0  0  0  0  0
   10.9128  -16.1099   23.0551 O   0  0  0  0  0  0  0  0  0  0  0  0
    5.9623  -11.1811   25.9847 C   0  0  0  0  0  0  0  0  0  0  0  0
    7.3330  -12.3260   26.2407 S   0  0  0  0  0  0  0  0  0  0  0  0
    7.4544  -13.4279   24.7862 C   0  0  0  0  0  0  0  0  0  0  0  0
    7.5656  -14.8319   25.2730 C   0  0  0  0  0  0  0  0  0  0  0  0
    8.8334  -15.4854   24.8123 C   0  0  2  0  0  0  0  0  0  0  0  0
    8.6804  -15.8217   23.3756 N   0  0  0  0  0  0  0  0  0  0  0  0
    9.0729  -16.7158   25.5886 C   0  0  0  0  0  0  0  0  0  0  0  0
    8.6703  -17.8015   25.0080 O   0  0  0  0  0  0  0  0  0  0  0  0
   11.6692  -20.8887   26.5760 N   0  0  0  0  0  0  0  0  0  0  0  0
   12.2078  -19.5892   26.4488 C   0  0  0  0  0  0  0  0  0  0  0  0
   13.4400  -19.4459   26.6014 O   0  0  0  0  0  0  0  0  0  0  0  0
   11.3588  -18.4376   26.1466 C   0  0  0  0  0  0  0  0  0  0  0  0
   10.2951  -18.1397   27.1850 C   0  0  2  0  0  0  0  0  0  0  0  0
    9.6744  -16.8447   26.8433 N   0  0  0  0  0  0  0  0  0  0  0  0
   10.8137  -18.0393   28.5564 C   0  0  0  0  0  0  0  0  0  0  0  0
   11.1300  -19.1473   29.3532 O   0  0  0  0  0  0  0  0  0  0  0  0
   10.9986  -16.9259   29.0838 O   0  0  0  0  0  0  0  0  0  0  0  0
  1  2  1  0
  2  3  2  0
  4  5  1  0
  4  2  1  0
  6  7  1  6
  6  5  1  0
  8  6  1  0
  9  8  2  0
 11 10  1  0
 12 13  1  0
 12 11  1  0
 14 13  1  1
 14 16  1  0
 14 15  1  0
 15  8  1  0
 16 17  2  0
 18 19  1  0
 19 21  1  0
 20 19  2  0
 22 21  1  6
 23 22  1  0
 23 16  1  0
 24 25  1  0
 24 22  1  0
 26 24  2  0
M  END
$$$$
