QMN.pdb
     RDKit          3D

 26 25  0  0  1  0  0  0  0  0999 V2000
    7.2361  -17.5343   20.5546 N   0  0  0  0  0  0  0  0  0  0  0  0
    6.5887  -17.1742   19.3620 C   0  0  0  0  0  0  0  0  0  0  0  0
    5.6066  -17.8590   18.9703 O   0  0  0  0  0  0  0  0  0  0  0  0
    7.0723  -16.0176   18.6107 C   0  0  0  0  0  0  0  0  0  0  0  0
    8.1822  -15.2535   19.2708 C   0  0  0  0  0  0  0  0  0  0  0  0
    7.5065  -14.1374   20.0791 C   0  0  2  0  0  0  0  0  0  0  0  0
    7.6661  -12.8639   19.3786 N   0  0  0  0  0  0  0  0  0  0  0  0
    8.1108  -14.0224   21.4252 C   0  0  0  0  0  0  0  0  0  0  0  0
    9.2749  -13.5427   21.5457 O   0  0  0  0  0  0  0  0  0  0  0  0
    7.5372  -11.5099   27.4386 C   0  0  0  0  0  0  0  0  0  0  0  0
    6.0601  -12.1029   26.5891 S   0  0  0  0  0  0  0  0  0  0  0  0
    6.5247  -12.6144   24.8959 C   0  0  0  0  0  0  0  0  0  0  0  0
    7.0001  -14.0258   24.9492 C   0  0  0  0  0  0  0  0  0  0  0  0
    8.0912  -14.2869   23.9553 C   0  0  2  0  0  0  0  0  0  0  0  0
    7.4691  -14.4175   22.6149 N   0  0  0  0  0  0  0  0  0  0  0  0
    8.7948  -15.5356   24.3011 C   0  0  0  0  0  0  0  0  0  0  0  0
    8.1577  -16.6160   23.9771 O   0  0  0  0  0  0  0  0  0  0  0  0
   12.9237  -19.1648   23.5286 N   0  0  0  0  0  0  0  0  0  0  0  0
   12.7914  -18.2198   24.5700 C   0  0  0  0  0  0  0  0  0  0  0  0
   13.3672  -18.4551   25.6541 O   0  0  0  0  0  0  0  0  0  0  0  0
   12.0072  -16.9979   24.3965 C   0  0  0  0  0  0  0  0  0  0  0  0
   10.6154  -17.0429   24.9960 C   0  0  2  0  0  0  0  0  0  0  0  0
   10.0405  -15.6857   24.9162 N   0  0  0  0  0  0  0  0  0  0  0  0
   10.5877  -17.4585   26.4054 C   0  0  0  0  0  0  0  0  0  0  0  0
   10.7571  -18.7824   26.8312 O   0  0  0  0  0  0  0  0  0  0  0  0
   10.4054  -16.6208   27.3093 O   0  0  0  0  0  0  0  0  0  0  0  0
  1  2  1  0
  2  3  2  0
  4  5  1  0
  4  2  1  0
  6  7  1  6
  6  5  1  0
  8  6  1  0
  9  8  2  0
 11 10  1  0
 12 13  1  0
 12 11  1  0
 14 13  1  1
 14 16  1  0
 14 15  1  0
 15  8  1  0
 16 17  2  0
 18 19  1  0
 19 21  1  0
 20 19  2  0
 22 21  1  1
 23 22  1  0
 23 16  1  0
 24 25  1  0
 24 22  1  0
 26 24  2  0
M  END
$$$$
