QMN.pdb
     RDKit          3D

 26 25  0  0  1  0  0  0  0  0999 V2000
   11.2375  -17.9657   18.4061 N   0  0  0  0  0  0  0  0  0  0  0  0
    9.9207  -17.8133   17.9435 C   0  0  0  0  0  0  0  0  0  0  0  0
    9.6282  -18.2244   16.7892 O   0  0  0  0  0  0  0  0  0  0  0  0
    8.9294  -17.1827   18.8127 C   0  0  0  0  0  0  0  0  0  0  0  0
    9.4258  -16.8245   20.1827 C   0  0  0  0  0  0  0  0  0  0  0  0
    8.1992  -16.3319   20.9629 C   0  0  2  0  0  0  0  0  0  0  0  0
    7.5350  -15.2712   20.2067 N   0  0  0  0  0  0  0  0  0  0  0  0
    8.5955  -15.8005   22.2861 C   0  0  0  0  0  0  0  0  0  0  0  0
    9.7512  -15.3098   22.4388 O   0  0  0  0  0  0  0  0  0  0  0  0
    7.0386  -10.8507   26.2010 C   0  0  0  0  0  0  0  0  0  0  0  0
    7.6072  -12.5480   26.4270 S   0  0  0  0  0  0  0  0  0  0  0  0
    6.6282  -13.6429   25.3375 C   0  0  0  0  0  0  0  0  0  0  0  0
    7.0420  -15.0507   25.5979 C   0  0  0  0  0  0  0  0  0  0  0  0
    8.2339  -15.4445   24.7789 C   0  0  2  0  0  0  0  0  0  0  0  0
    7.7591  -15.7997   23.4191 N   0  0  0  0  0  0  0  0  0  0  0  0
    8.9006  -16.6075   25.3927 C   0  0  0  0  0  0  0  0  0  0  0  0
    8.2487  -17.7208   25.2765 O   0  0  0  0  0  0  0  0  0  0  0  0
   12.0563  -20.3250   27.1882 N   0  0  0  0  0  0  0  0  0  0  0  0
   12.6887  -19.3876   26.3419 C   0  0  0  0  0  0  0  0  0  0  0  0
   13.8459  -19.6418   25.9437 O   0  0  0  0  0  0  0  0  0  0  0  0
   12.0189  -18.1528   25.9357 C   0  0  0  0  0  0  0  0  0  0  0  0
   10.6283  -17.9634   26.5091 C   0  0  2  0  0  0  0  0  0  0  0  0
   10.1262  -16.6490   26.0627 N   0  0  0  0  0  0  0  0  0  0  0  0
   10.5822  -17.9847   27.9779 C   0  0  0  0  0  0  0  0  0  0  0  0
   10.8712  -19.1171   28.7505 O   0  0  0  0  0  0  0  0  0  0  0  0
   10.2729  -16.9609   28.6168 O   0  0  0  0  0  0  0  0  0  0  0  0
  1  2  1  0
  2  3  2  0
  4  5  1  0
  4  2  1  0
  6  7  1  6
  6  5  1  0
  8  6  1  0
  9  8  2  0
 11 10  1  0
 12 13  1  0
 12 11  1  0
 14 13  1  1
 14 16  1  0
 14 15  1  0
 15  8  1  0
 16 17  2  0
 18 19  1  0
 19 21  1  0
 20 19  2  0
 22 21  1  1
 23 22  1  0
 23 16  1  0
 24 25  1  0
 24 22  1  0
 26 24  2  0
M  END
$$$$
