QMN.pdb
     RDKit          3D

 26 25  0  0  1  0  0  0  0  0999 V2000
    7.9909  -12.3316   17.7646 N   0  0  0  0  0  0  0  0  0  0  0  0
    7.7945  -13.7144   17.9074 C   0  0  0  0  0  0  0  0  0  0  0  0
    7.6971  -14.4268   16.8729 O   0  0  0  0  0  0  0  0  0  0  0  0
    7.7084  -14.2863   19.2496 C   0  0  0  0  0  0  0  0  0  0  0  0
    9.0293  -14.5493   19.9112 C   0  0  0  0  0  0  0  0  0  0  0  0
    8.8111  -15.7617   20.8268 C   0  0  2  0  0  0  0  0  0  0  0  0
    7.4368  -16.2397   20.6825 N   0  0  0  0  0  0  0  0  0  0  0  0
    9.0466  -15.4012   22.2428 C   0  0  0  0  0  0  0  0  0  0  0  0
   10.1888  -14.9908   22.5986 O   0  0  0  0  0  0  0  0  0  0  0  0
    6.5075  -12.1666   27.5991 C   0  0  0  0  0  0  0  0  0  0  0  0
    7.4092  -12.1675   26.0363 S   0  0  0  0  0  0  0  0  0  0  0  0
    6.6070  -13.3537   24.8988 C   0  0  0  0  0  0  0  0  0  0  0  0
    7.0219  -14.7300   25.2918 C   0  0  0  0  0  0  0  0  0  0  0  0
    8.3267  -15.1214   24.6666 C   0  0  2  0  0  0  0  0  0  0  0  0
    8.0671  -15.4825   23.2514 N   0  0  0  0  0  0  0  0  0  0  0  0
    8.8956  -16.2798   25.3794 C   0  0  0  0  0  0  0  0  0  0  0  0
    8.1729  -17.3531   25.3185 O   0  0  0  0  0  0  0  0  0  0  0  0
   10.6306  -19.5904   24.4937 N   0  0  0  0  0  0  0  0  0  0  0  0
   11.8346  -18.9619   24.8815 C   0  0  0  0  0  0  0  0  0  0  0  0
   12.8775  -19.2531   24.2571 O   0  0  0  0  0  0  0  0  0  0  0  0
   11.8723  -17.9964   25.9790 C   0  0  0  0  0  0  0  0  0  0  0  0
   10.5235  -17.6755   26.5925 C   0  0  2  0  0  0  0  0  0  0  0  0
   10.0966  -16.3549   26.0898 N   0  0  0  0  0  0  0  0  0  0  0  0
   10.5374  -17.6123   28.0607 C   0  0  0  0  0  0  0  0  0  0  0  0
   10.4943  -16.4169   28.7900 O   0  0  0  0  0  0  0  0  0  0  0  0
   10.5907  -18.6558   28.7392 O   0  0  0  0  0  0  0  0  0  0  0  0
  1  2  1  0
  2  3  2  0
  4  5  1  0
  4  2  1  0
  6  7  1  1
  6  5  1  0
  8  6  1  0
  9  8  2  0
 11 10  1  0
 12 13  1  0
 12 11  1  0
 14 13  1  1
 14 16  1  0
 14 15  1  0
 15  8  1  0
 16 17  2  0
 18 19  1  0
 19 21  1  0
 20 19  2  0
 22 21  1  6
 23 22  1  0
 23 16  1  0
 24 25  1  0
 24 22  1  0
 26 24  2  0
M  END
$$$$
