QMN.pdb
     RDKit          3D

 26 25  0  0  1  0  0  0  0  0999 V2000
    6.8471  -19.8744   20.1020 N   0  0  0  0  0  0  0  0  0  0  0  0
    7.8971  -19.3158   19.3560 C   0  0  0  0  0  0  0  0  0  0  0  0
    8.5161  -20.0432   18.5345 O   0  0  0  0  0  0  0  0  0  0  0  0
    8.2413  -17.9093   19.5540 C   0  0  0  0  0  0  0  0  0  0  0  0
    7.3410  -17.1640   20.4951 C   0  0  0  0  0  0  0  0  0  0  0  0
    7.8533  -15.7173   20.5156 C   0  0  2  0  0  0  0  0  0  0  0  0
    8.9071  -15.5597   19.5143 N   0  0  0  0  0  0  0  0  0  0  0  0
    8.4015  -15.3718   21.8463 C   0  0  0  0  0  0  0  0  0  0  0  0
    9.6289  -15.5649   22.0827 O   0  0  0  0  0  0  0  0  0  0  0  0
    6.0006  -11.2526   26.4589 C   0  0  0  0  0  0  0  0  0  0  0  0
    7.6260  -11.9688   26.7758 S   0  0  0  0  0  0  0  0  0  0  0  0
    7.5330  -13.7745   26.5022 C   0  0  0  0  0  0  0  0  0  0  0  0
    7.0871  -14.0112   25.1001 C   0  0  0  0  0  0  0  0  0  0  0  0
    8.1959  -14.5412   24.2419 C   0  0  2  0  0  0  0  0  0  0  0  0
    7.6381  -14.8288   22.8977 N   0  0  0  0  0  0  0  0  0  0  0  0
    8.7368  -15.7796   24.8315 C   0  0  0  0  0  0  0  0  0  0  0  0
    7.9770  -16.8184   24.6846 O   0  0  0  0  0  0  0  0  0  0  0  0
   12.4001  -19.9837   24.8925 N   0  0  0  0  0  0  0  0  0  0  0  0
   12.3273  -18.8554   25.7391 C   0  0  0  0  0  0  0  0  0  0  0  0
   12.8111  -18.9499   26.8877 O   0  0  0  0  0  0  0  0  0  0  0  0
   11.7073  -17.6075   25.2957 C   0  0  0  0  0  0  0  0  0  0  0  0
   10.3346  -17.3352   25.8788 C   0  0  2  0  0  0  0  0  0  0  0  0
    9.9462  -15.9602   25.5077 N   0  0  0  0  0  0  0  0  0  0  0  0
   10.2797  -17.4357   27.3439 C   0  0  0  0  0  0  0  0  0  0  0  0
   10.8241  -16.4801   28.2118 O   0  0  0  0  0  0  0  0  0  0  0  0
    9.7282  -18.4091   27.8919 O   0  0  0  0  0  0  0  0  0  0  0  0
  1  2  1  0
  2  3  2  0
  4  5  1  0
  4  2  1  0
  6  7  1  6
  6  5  1  0
  8  6  1  0
  9  8  2  0
 11 10  1  0
 12 13  1  0
 12 11  1  0
 14 13  1  1
 14 16  1  0
 14 15  1  0
 15  8  1  0
 16 17  2  0
 18 19  1  0
 19 21  1  0
 20 19  2  0
 22 21  1  1
 23 22  1  0
 23 16  1  0
 24 25  1  0
 24 22  1  0
 26 24  2  0
M  END
$$$$
