EPA.pdb
     RDKit          3D

 22 22  0  0  1  0  0  0  0  0999 V2000
   17.9343  -11.4318  -16.7508 N   0  0  0  0  0  0  0  0  0  0  0  0
   19.2096  -10.7677  -16.8769 C   0  0  1  0  0  0  0  0  0  0  0  0
   19.1557   -9.8504  -18.0629 C   0  0  0  0  0  0  0  0  0  0  0  0
   19.0854  -10.5389  -19.3891 C   0  0  0  0  0  0  0  0  0  0  0  0
   19.1219   -9.6359  -20.5359 C   0  0  0  0  0  0  0  0  0  0  0  0
   19.0877  -10.0463  -21.7017 O   0  0  0  0  0  0  0  0  0  0  0  0
   19.5041   -9.9080  -15.6747 C   0  0  0  0  0  0  0  0  0  0  0  0
   18.5041   -9.4833  -15.0517 O   0  0  0  0  0  0  0  0  0  0  0  0
   19.1976   -8.2695  -20.3220 O   0  0  0  0  0  0  0  0  0  0  0  0
   20.7932   -9.5735  -15.2370 N   0  0  0  0  0  0  0  0  0  0  0  0
   22.0343   -9.9933  -15.8349 C   0  0  0  0  0  0  0  0  0  0  0  0
   23.1365   -9.5982  -14.8520 C   0  0  0  0  0  0  0  0  0  0  0  0
   22.3673   -9.3520  -13.5534 C   0  0  0  0  0  0  0  0  0  0  0  0
   21.0966   -8.7526  -14.1107 C   0  0  1  0  0  0  0  0  0  0  0  0
   21.4001   -7.3423  -14.4668 C   0  0  0  0  0  0  0  0  0  0  0  0
   22.1223   -7.0235  -15.4444 O   0  0  0  0  0  0  0  0  0  0  0  0
   19.8434   -4.0470  -13.4886 C   0  0  0  0  0  0  0  0  0  0  0  0
   20.9172   -4.8926  -14.0836 C   0  0  2  0  0  0  0  0  0  0  0  0
   20.8687   -6.2773  -13.6922 N   0  0  0  0  0  0  0  0  0  0  0  0
   22.2289   -4.2656  -13.8203 C   0  0  0  0  0  0  0  0  0  0  0  0
   22.9238   -4.7834  -12.8949 O   0  0  0  0  0  0  0  0  0  0  0  0
   22.7417   -3.1861  -14.4886 O   0  0  0  0  0  0  0  0  0  0  0  0
  2  1  1  1
  3  4  1  0
  3  2  1  0
  4  5  1  0
  5  9  1  0
  5  6  2  0
  7 10  1  0
  7  2  1  0
  8  7  2  0
 10 14  1  0
 11 12  1  0
 11 10  1  0
 12 13  1  0
 13 14  1  0
 14 15  1  6
 15 19  1  0
 15 16  2  0
 18 17  1  1
 18 20  1  0
 19 18  1  0
 20 22  1  0
 21 20  2  0
M  END
$$$$
