EPA.pdb
     RDKit          3D

 22 22  0  0  1  0  0  0  0  0999 V2000
   17.8976  -12.1827  -16.0807 N   0  0  0  0  0  0  0  0  0  0  0  0
   19.2159  -11.6889  -16.3992 C   0  0  1  0  0  0  0  0  0  0  0  0
   19.1763  -11.0661  -17.7636 C   0  0  0  0  0  0  0  0  0  0  0  0
   18.9765  -12.0296  -18.8903 C   0  0  0  0  0  0  0  0  0  0  0  0
   18.9623  -11.4109  -20.2127 C   0  0  0  0  0  0  0  0  0  0  0  0
   19.1110  -10.1941  -20.3748 O   0  0  0  0  0  0  0  0  0  0  0  0
   19.6460  -10.6090  -15.4400 C   0  0  0  0  0  0  0  0  0  0  0  0
   18.7277  -10.0696  -14.7811 O   0  0  0  0  0  0  0  0  0  0  0  0
   18.7765  -12.2052  -21.3321 O   0  0  0  0  0  0  0  0  0  0  0  0
   20.9727  -10.1949  -15.2570 N   0  0  0  0  0  0  0  0  0  0  0  0
   22.1128  -10.6133  -16.0310 C   0  0  0  0  0  0  0  0  0  0  0  0
   23.3457  -10.1041  -15.2840 C   0  0  0  0  0  0  0  0  0  0  0  0
   22.7980   -9.7878  -13.8917 C   0  0  0  0  0  0  0  0  0  0  0  0
   21.4229   -9.2799  -14.2597 C   0  0  1  0  0  0  0  0  0  0  0  0
   21.5912   -7.8906  -14.7595 C   0  0  0  0  0  0  0  0  0  0  0  0
   22.0868   -7.6226  -15.8826 O   0  0  0  0  0  0  0  0  0  0  0  0
   19.8516   -4.7176  -13.9675 C   0  0  0  0  0  0  0  0  0  0  0  0
   21.0625   -5.4398  -14.4516 C   0  0  2  0  0  0  0  0  0  0  0  0
   21.1858   -6.7881  -13.9616 N   0  0  0  0  0  0  0  0  0  0  0  0
   22.2587   -4.6165  -14.1787 C   0  0  0  0  0  0  0  0  0  0  0  0
   23.0474   -5.0498  -13.2857 O   0  0  0  0  0  0  0  0  0  0  0  0
   22.5740   -3.4412  -14.8065 O   0  0  0  0  0  0  0  0  0  0  0  0
  2  1  1  1
  3  4  1  0
  3  2  1  0
  4  5  1  0
  5  9  1  0
  5  6  2  0
  7 10  1  0
  7  2  1  0
  8  7  2  0
 10 14  1  0
 11 12  1  0
 11 10  1  0
 12 13  1  0
 13 14  1  0
 14 15  1  6
 15 19  1  0
 15 16  2  0
 18 17  1  1
 18 20  1  0
 19 18  1  0
 20 22  1  0
 21 20  2  0
M  END
$$$$
