EPA.pdb
     RDKit          3D

 22 22  0  0  1  0  0  0  0  0999 V2000
   25.6609    2.4718   -9.2275 N   0  0  0  0  0  0  0  0  0  0  0  0
   26.2213    3.0527   -8.0309 C   0  0  1  0  0  0  0  0  0  0  0  0
   25.3727    4.2214   -7.6243 C   0  0  0  0  0  0  0  0  0  0  0  0
   25.5957    5.4686   -8.4194 C   0  0  0  0  0  0  0  0  0  0  0  0
   24.7374    6.5856   -8.0354 C   0  0  0  0  0  0  0  0  0  0  0  0
   24.6127    7.5954   -8.7380 O   0  0  0  0  0  0  0  0  0  0  0  0
   26.1981    2.0774   -6.8823 C   0  0  0  0  0  0  0  0  0  0  0  0
   25.4123    1.1100   -7.0060 O   0  0  0  0  0  0  0  0  0  0  0  0
   24.0334    6.5227   -6.8441 O   0  0  0  0  0  0  0  0  0  0  0  0
   26.9829    2.1959   -5.7268 N   0  0  0  0  0  0  0  0  0  0  0  0
   27.8599    3.2899   -5.3981 C   0  0  0  0  0  0  0  0  0  0  0  0
   28.6793    2.8323   -4.1914 C   0  0  0  0  0  0  0  0  0  0  0  0
   28.4810    1.3159   -4.1960 C   0  0  0  0  0  0  0  0  0  0  0  0
   27.0477    1.2402   -4.6700 C   0  0  1  0  0  0  0  0  0  0  0  0
   26.1863    1.5793   -3.5076 C   0  0  0  0  0  0  0  0  0  0  0  0
   25.9298    2.7614   -3.1675 O   0  0  0  0  0  0  0  0  0  0  0  0
   24.0119   -0.4660   -1.1418 C   0  0  0  0  0  0  0  0  0  0  0  0
   24.6316    0.7758   -1.6860 C   0  0  2  0  0  0  0  0  0  0  0  0
   25.6074    0.5490   -2.7201 N   0  0  0  0  0  0  0  0  0  0  0  0
   25.1561    1.5856   -0.5670 C   0  0  0  0  0  0  0  0  0  0  0  0
   26.4159    1.5985   -0.4247 O   0  0  0  0  0  0  0  0  0  0  0  0
   24.3976    2.3106    0.3127 O   0  0  0  0  0  0  0  0  0  0  0  0
  2  1  1  6
  3  4  1  0
  3  2  1  0
  4  5  1  0
  5  9  1  0
  5  6  2  0
  7 10  1  0
  7  2  1  0
  8  7  2  0
 10 14  1  0
 11 12  1  0
 11 10  1  0
 12 13  1  0
 13 14  1  0
 14 15  1  1
 15 19  1  0
 15 16  2  0
 18 17  1  1
 18 20  1  0
 19 18  1  0
 20 22  1  0
 21 20  2  0
M  END
$$$$
