EPA.pdb
     RDKit          3D

 22 22  0  0  1  0  0  0  0  0999 V2000
   27.7398  -21.8266  -15.1559 N   0  0  0  0  0  0  0  0  0  0  0  0
   27.3691  -21.0686  -13.9849 C   0  0  1  0  0  0  0  0  0  0  0  0
   27.2518  -19.6229  -14.3685 C   0  0  0  0  0  0  0  0  0  0  0  0
   27.4814  -19.3354  -15.8184 C   0  0  0  0  0  0  0  0  0  0  0  0
   26.3300  -18.7558  -16.5041 C   0  0  0  0  0  0  0  0  0  0  0  0
   26.0425  -17.5565  -16.4153 O   0  0  0  0  0  0  0  0  0  0  0  0
   26.0209  -21.4905  -13.4599 C   0  0  0  0  0  0  0  0  0  0  0  0
   25.3844  -22.2943  -14.1791 O   0  0  0  0  0  0  0  0  0  0  0  0
   25.5243  -19.5688  -17.2843 O   0  0  0  0  0  0  0  0  0  0  0  0
   25.4661  -21.0439  -12.2525 N   0  0  0  0  0  0  0  0  0  0  0  0
   26.0264  -20.0540  -11.3692 C   0  0  0  0  0  0  0  0  0  0  0  0
   25.2023  -20.1144  -10.0830 C   0  0  0  0  0  0  0  0  0  0  0  0
   24.4858  -21.4606  -10.1965 C   0  0  0  0  0  0  0  0  0  0  0  0
   24.2392  -21.5018  -11.6872 C   0  0  1  0  0  0  0  0  0  0  0  0
   23.0862  -20.6058  -11.9627 C   0  0  0  0  0  0  0  0  0  0  0  0
   23.1896  -19.3548  -12.0188 O   0  0  0  0  0  0  0  0  0  0  0  0
   19.8741  -21.3537  -13.7100 C   0  0  0  0  0  0  0  0  0  0  0  0
   20.7365  -20.4657  -12.8795 C   0  0  2  0  0  0  0  0  0  0  0  0
   21.7920  -21.1492  -12.1781 N   0  0  0  0  0  0  0  0  0  0  0  0
   19.8810  -19.6574  -11.9862 C   0  0  0  0  0  0  0  0  0  0  0  0
   19.9932  -19.8843  -10.7439 O   0  0  0  0  0  0  0  0  0  0  0  0
   18.9916  -18.6987  -12.3919 O   0  0  0  0  0  0  0  0  0  0  0  0
  2  1  1  6
  3  4  1  0
  3  2  1  0
  4  5  1  0
  5  9  1  0
  5  6  2  0
  7 10  1  0
  7  2  1  0
  8  7  2  0
 10 14  1  0
 11 12  1  0
 11 10  1  0
 12 13  1  0
 13 14  1  0
 14 15  1  1
 15 19  1  0
 15 16  2  0
 18 17  1  1
 18 20  1  0
 19 18  1  0
 20 22  1  0
 21 20  2  0
M  END
$$$$
