EPA.pdb
     RDKit          3D

 22 22  0  0  1  0  0  0  0  0999 V2000
   19.5129  -12.1397  -18.4007 N   0  0  0  0  0  0  0  0  0  0  0  0
   20.7769  -11.5807  -17.9848 C   0  0  1  0  0  0  0  0  0  0  0  0
   21.3384  -10.7730  -19.1176 C   0  0  0  0  0  0  0  0  0  0  0  0
   20.4122   -9.7378  -19.6728 C   0  0  0  0  0  0  0  0  0  0  0  0
   20.9864   -8.9352  -20.7489 C   0  0  0  0  0  0  0  0  0  0  0  0
   20.7601   -9.1701  -21.9416 O   0  0  0  0  0  0  0  0  0  0  0  0
   20.6060  -10.6384  -16.8211 C   0  0  0  0  0  0  0  0  0  0  0  0
   19.4466  -10.2001  -16.6419 O   0  0  0  0  0  0  0  0  0  0  0  0
   21.8152   -7.8709  -20.4343 O   0  0  0  0  0  0  0  0  0  0  0  0
   21.6419  -10.2439  -15.9629 N   0  0  0  0  0  0  0  0  0  0  0  0
   23.0390  -10.5624  -16.1072 C   0  0  0  0  0  0  0  0  0  0  0  0
   23.7099  -10.1411  -14.7997 C   0  0  0  0  0  0  0  0  0  0  0  0
   22.5293   -9.9955  -13.8387 C   0  0  0  0  0  0  0  0  0  0  0  0
   21.4847   -9.4527  -14.7866 C   0  0  1  0  0  0  0  0  0  0  0  0
   21.7898   -8.0131  -14.9927 C   0  0  0  0  0  0  0  0  0  0  0  0
   22.7002   -7.6093  -15.7588 O   0  0  0  0  0  0  0  0  0  0  0  0
   19.8251   -4.8761  -14.3761 C   0  0  0  0  0  0  0  0  0  0  0  0
   21.0981   -5.6122  -14.6207 C   0  0  2  0  0  0  0  0  0  0  0  0
   21.0410   -7.0172  -14.3114 N   0  0  0  0  0  0  0  0  0  0  0  0
   22.2014   -4.9147  -13.9283 C   0  0  0  0  0  0  0  0  0  0  0  0
   22.6168   -5.4466  -12.8550 O   0  0  0  0  0  0  0  0  0  0  0  0
   22.7985   -3.7573  -14.3509 O   0  0  0  0  0  0  0  0  0  0  0  0
  2  1  1  6
  3  4  1  0
  3  2  1  0
  4  5  1  0
  5  9  1  0
  5  6  2  0
  7 10  1  0
  7  2  1  0
  8  7  2  0
 10 14  1  0
 11 12  1  0
 11 10  1  0
 12 13  1  0
 13 14  1  0
 14 15  1  6
 15 19  1  0
 15 16  2  0
 18 17  1  1
 18 20  1  0
 19 18  1  0
 20 22  1  0
 21 20  2  0
M  END
$$$$
