EPA.pdb
     RDKit          3D

 22 22  0  0  1  0  0  0  0  0999 V2000
   23.7492  -22.0452  -15.2893 N   0  0  0  0  0  0  0  0  0  0  0  0
   24.4085  -20.9430  -14.6307 C   0  0  1  0  0  0  0  0  0  0  0  0
   23.3779  -19.9110  -14.2786 C   0  0  0  0  0  0  0  0  0  0  0  0
   22.5963  -19.3800  -15.4383 C   0  0  0  0  0  0  0  0  0  0  0  0
   21.2268  -18.9935  -15.1114 C   0  0  0  0  0  0  0  0  0  0  0  0
   20.3102  -19.8187  -15.0231 O   0  0  0  0  0  0  0  0  0  0  0  0
   25.0488  -21.3776  -13.3376 C   0  0  0  0  0  0  0  0  0  0  0  0
   24.4040  -22.2153  -12.6660 O   0  0  0  0  0  0  0  0  0  0  0  0
   20.9325  -17.6581  -14.8905 O   0  0  0  0  0  0  0  0  0  0  0  0
   26.2832  -20.9076  -12.8680 N   0  0  0  0  0  0  0  0  0  0  0  0
   27.0943  -19.8837  -13.4744 C   0  0  0  0  0  0  0  0  0  0  0  0
   28.4414  -19.9232  -12.7526 C   0  0  0  0  0  0  0  0  0  0  0  0
   28.4189  -21.2847  -12.0566 C   0  0  0  0  0  0  0  0  0  0  0  0
   26.9533  -21.3716  -11.6975 C   0  0  1  0  0  0  0  0  0  0  0  0
   26.7441  -20.5045  -10.5090 C   0  0  0  0  0  0  0  0  0  0  0  0
   26.7104  -19.2502  -10.5744 O   0  0  0  0  0  0  0  0  0  0  0  0
   25.5465  -21.0956   -6.9827 C   0  0  0  0  0  0  0  0  0  0  0  0
   26.2708  -20.3262   -8.0341 C   0  0  2  0  0  0  0  0  0  0  0  0
   26.5699  -21.0812   -9.2230 N   0  0  0  0  0  0  0  0  0  0  0  0
   27.4662  -19.6964   -7.4361 C   0  0  0  0  0  0  0  0  0  0  0  0
   28.5849  -20.2053   -7.7476 O   0  0  0  0  0  0  0  0  0  0  0  0
   27.4572  -18.6234   -6.5856 O   0  0  0  0  0  0  0  0  0  0  0  0
  2  1  1  1
  3  4  1  0
  3  2  1  0
  4  5  1  0
  5  9  1  0
  5  6  2  0
  7 10  1  0
  7  2  1  0
  8  7  2  0
 10 14  1  0
 11 12  1  0
 11 10  1  0
 12 13  1  0
 13 14  1  0
 14 15  1  1
 15 19  1  0
 15 16  2  0
 18 17  1  1
 18 20  1  0
 19 18  1  0
 20 22  1  0
 21 20  2  0
M  END
$$$$
