EPA.pdb
     RDKit          3D

 22 22  0  0  1  0  0  0  0  0999 V2000
   28.2607  -20.6479  -15.2681 N   0  0  0  0  0  0  0  0  0  0  0  0
   27.6055  -20.0805  -14.1140 C   0  0  1  0  0  0  0  0  0  0  0  0
   27.1079  -18.7111  -14.4720 C   0  0  0  0  0  0  0  0  0  0  0  0
   28.0897  -17.8571  -15.2099 C   0  0  0  0  0  0  0  0  0  0  0  0
   27.9114  -17.8545  -16.6590 C   0  0  0  0  0  0  0  0  0  0  0  0
   28.8672  -17.8166  -17.4426 O   0  0  0  0  0  0  0  0  0  0  0  0
   26.3999  -20.8903  -13.7116 C   0  0  0  0  0  0  0  0  0  0  0  0
   26.0125  -21.7402  -14.5459 O   0  0  0  0  0  0  0  0  0  0  0  0
   26.6310  -17.8956  -17.1857 O   0  0  0  0  0  0  0  0  0  0  0  0
   25.7174  -20.7438  -12.4960 N   0  0  0  0  0  0  0  0  0  0  0  0
   26.0153  -19.7906  -11.4583 C   0  0  0  0  0  0  0  0  0  0  0  0
   25.1781  -20.2026  -10.2473 C   0  0  0  0  0  0  0  0  0  0  0  0
   24.7778  -21.6407  -10.5791 C   0  0  0  0  0  0  0  0  0  0  0  0
   24.6005  -21.5252  -12.0757 C   0  0  1  0  0  0  0  0  0  0  0  0
   23.2903  -20.8641  -12.3092 C   0  0  0  0  0  0  0  0  0  0  0  0
   23.0409  -19.6894  -11.9394 O   0  0  0  0  0  0  0  0  0  0  0  0
   20.2096  -21.7519  -14.3481 C   0  0  0  0  0  0  0  0  0  0  0  0
   20.9963  -20.9570  -13.3626 C   0  0  2  0  0  0  0  0  0  0  0  0
   22.2468  -21.5577  -12.9773 N   0  0  0  0  0  0  0  0  0  0  0  0
   20.1352  -20.6288  -12.2076 C   0  0  0  0  0  0  0  0  0  0  0  0
   19.2352  -19.7584  -12.4069 O   0  0  0  0  0  0  0  0  0  0  0  0
   20.2343  -21.1841  -10.9600 O   0  0  0  0  0  0  0  0  0  0  0  0
  2  1  1  6
  3  4  1  0
  3  2  1  0
  4  5  1  0
  5  9  1  0
  5  6  2  0
  7 10  1  0
  7  2  1  0
  8  7  2  0
 10 14  1  0
 11 12  1  0
 11 10  1  0
 12 13  1  0
 13 14  1  0
 14 15  1  1
 15 19  1  0
 15 16  2  0
 18 17  1  6
 18 20  1  0
 19 18  1  0
 20 22  1  0
 21 20  2  0
M  END
$$$$
