EPA.pdb
     RDKit          3D

 22 22  0  0  1  0  0  0  0  0999 V2000
   24.7572  -28.4703  -20.6506 N   0  0  0  0  0  0  0  0  0  0  0  0
   24.8949  -28.5100  -19.2144 C   0  0  1  0  0  0  0  0  0  0  0  0
   23.6563  -27.9283  -18.5991 C   0  0  0  0  0  0  0  0  0  0  0  0
   23.5120  -26.4474  -18.7538 C   0  0  0  0  0  0  0  0  0  0  0  0
   22.3697  -25.8792  -18.0438 C   0  0  0  0  0  0  0  0  0  0  0  0
   22.1090  -24.6708  -18.0710 O   0  0  0  0  0  0  0  0  0  0  0  0
   25.0072  -29.9261  -18.7109 C   0  0  0  0  0  0  0  0  0  0  0  0
   24.3552  -30.7836  -19.3497 O   0  0  0  0  0  0  0  0  0  0  0  0
   21.5422  -26.7138  -17.3108 O   0  0  0  0  0  0  0  0  0  0  0  0
   25.7760  -30.3147  -17.6050 N   0  0  0  0  0  0  0  0  0  0  0  0
   26.5377  -29.4453  -16.7460 C   0  0  0  0  0  0  0  0  0  0  0  0
   27.3993  -30.3569  -15.8720 C   0  0  0  0  0  0  0  0  0  0  0  0
   27.3554  -31.6909  -16.6185 C   0  0  0  0  0  0  0  0  0  0  0  0
   25.9372  -31.6534  -17.1398 C   0  0  1  0  0  0  0  0  0  0  0  0
   25.0459  -31.9993  -16.0022 C   0  0  0  0  0  0  0  0  0  0  0  0
   24.8086  -31.2097  -15.0541 O   0  0  0  0  0  0  0  0  0  0  0  0
   22.6947  -34.8994  -15.2732 C   0  0  0  0  0  0  0  0  0  0  0  0
   23.4294  -33.6397  -14.9645 C   0  0  2  0  0  0  0  0  0  0  0  0
   24.4144  -33.2700  -15.9474 N   0  0  0  0  0  0  0  0  0  0  0  0
   23.9839  -33.7252  -13.5976 C   0  0  0  0  0  0  0  0  0  0  0  0
   25.2078  -34.0434  -13.5066 O   0  0  0  0  0  0  0  0  0  0  0  0
   23.2879  -33.4909  -12.4420 O   0  0  0  0  0  0  0  0  0  0  0  0
  2  1  1  6
  3  4  1  0
  3  2  1  0
  4  5  1  0
  5  9  1  0
  5  6  2  0
  7 10  1  0
  7  2  1  0
  8  7  2  0
 10 14  1  0
 11 12  1  0
 11 10  1  0
 12 13  1  0
 13 14  1  0
 14 15  1  1
 15 19  1  0
 15 16  2  0
 18 17  1  6
 18 20  1  0
 19 18  1  0
 20 22  1  0
 21 20  2  0
M  END
$$$$
