EPA.pdb
     RDKit          3D

 22 22  0  0  1  0  0  0  0  0999 V2000
   28.5018  -23.6682  -17.5608 N   0  0  0  0  0  0  0  0  0  0  0  0
   27.7483  -22.4519  -17.3707 C   0  0  1  0  0  0  0  0  0  0  0  0
   26.3378  -22.6875  -17.8247 C   0  0  0  0  0  0  0  0  0  0  0  0
   25.9801  -22.0458  -19.1278 C   0  0  0  0  0  0  0  0  0  0  0  0
   25.4092  -20.7080  -19.0003 C   0  0  0  0  0  0  0  0  0  0  0  0
   25.9954  -19.6978  -19.4060 O   0  0  0  0  0  0  0  0  0  0  0  0
   27.6788  -22.0691  -15.9147 C   0  0  0  0  0  0  0  0  0  0  0  0
   27.9153  -22.9891  -15.0986 O   0  0  0  0  0  0  0  0  0  0  0  0
   24.1679  -20.5534  -18.4054 O   0  0  0  0  0  0  0  0  0  0  0  0
   27.3737  -20.7830  -15.4478 N   0  0  0  0  0  0  0  0  0  0  0  0
   26.9641  -19.6582  -16.2484 C   0  0  0  0  0  0  0  0  0  0  0  0
   27.0135  -18.4386  -15.3279 C   0  0  0  0  0  0  0  0  0  0  0  0
   27.8704  -18.9249  -14.1584 C   0  0  0  0  0  0  0  0  0  0  0  0
   27.4203  -20.3659  -14.0846 C   0  0  1  0  0  0  0  0  0  0  0  0
   26.0940  -20.3740  -13.4143 C   0  0  0  0  0  0  0  0  0  0  0  0
   25.0082  -20.3314  -14.0451 O   0  0  0  0  0  0  0  0  0  0  0  0
   25.0464  -20.9862   -9.7989 C   0  0  0  0  0  0  0  0  0  0  0  0
   24.8797  -20.9668  -11.2801 C   0  0  2  0  0  0  0  0  0  0  0  0
   26.0073  -20.4320  -11.9981 N   0  0  0  0  0  0  0  0  0  0  0  0
   23.6099  -20.2899  -11.6156 C   0  0  0  0  0  0  0  0  0  0  0  0
   22.5534  -20.8148  -11.1512 O   0  0  0  0  0  0  0  0  0  0  0  0
   23.4902  -19.1582  -12.3770 O   0  0  0  0  0  0  0  0  0  0  0  0
  2  1  1  1
  3  4  1  0
  3  2  1  0
  4  5  1  0
  5  9  1  0
  5  6  2  0
  7 10  1  0
  7  2  1  0
  8  7  2  0
 10 14  1  0
 11 12  1  0
 11 10  1  0
 12 13  1  0
 13 14  1  0
 14 15  1  6
 15 19  1  0
 15 16  2  0
 18 17  1  1
 18 20  1  0
 19 18  1  0
 20 22  1  0
 21 20  2  0
M  END
$$$$
