EPA.pdb
     RDKit          3D

 22 22  0  0  1  0  0  0  0  0999 V2000
   21.5465  -16.1742  -16.7908 N   0  0  0  0  0  0  0  0  0  0  0  0
   22.5657  -16.5803  -15.8530 C   0  0  1  0  0  0  0  0  0  0  0  0
   21.9734  -17.5839  -14.9080 C   0  0  0  0  0  0  0  0  0  0  0  0
   20.8384  -18.3820  -15.4670 C   0  0  0  0  0  0  0  0  0  0  0  0
   20.7586  -19.7482  -14.9581 C   0  0  0  0  0  0  0  0  0  0  0  0
   21.7524  -20.4778  -14.8645 O   0  0  0  0  0  0  0  0  0  0  0  0
   23.7143  -17.2634  -16.5497 C   0  0  0  0  0  0  0  0  0  0  0  0
   23.4723  -17.6977  -17.6992 O   0  0  0  0  0  0  0  0  0  0  0  0
   19.5314  -20.2553  -14.5636 O   0  0  0  0  0  0  0  0  0  0  0  0
   24.9908  -17.4301  -15.9948 N   0  0  0  0  0  0  0  0  0  0  0  0
   25.3785  -17.1352  -14.6396 C   0  0  0  0  0  0  0  0  0  0  0  0
   26.9040  -17.2269  -14.6025 C   0  0  0  0  0  0  0  0  0  0  0  0
   27.2887  -17.1582  -16.0810 C   0  0  0  0  0  0  0  0  0  0  0  0
   26.1354  -17.9237  -16.6881 C   0  0  1  0  0  0  0  0  0  0  0  0
   26.3980  -19.3670  -16.4509 C   0  0  0  0  0  0  0  0  0  0  0  0
   26.0696  -19.9573  -15.3915 O   0  0  0  0  0  0  0  0  0  0  0  0
   27.7037  -22.2152  -18.6123 C   0  0  0  0  0  0  0  0  0  0  0  0
   27.2339  -21.5742  -17.3511 C   0  0  2  0  0  0  0  0  0  0  0  0
   27.0471  -20.1495  -17.4423 N   0  0  0  0  0  0  0  0  0  0  0  0
   28.1307  -21.9676  -16.2448 C   0  0  0  0  0  0  0  0  0  0  0  0
   28.1908  -23.2068  -15.9834 O   0  0  0  0  0  0  0  0  0  0  0  0
   28.8886  -21.1098  -15.4934 O   0  0  0  0  0  0  0  0  0  0  0  0
  2  1  1  6
  3  4  1  0
  3  2  1  0
  4  5  1  0
  5  9  1  0
  5  6  2  0
  7 10  1  0
  7  2  1  0
  8  7  2  0
 10 14  1  0
 11 12  1  0
 11 10  1  0
 12 13  1  0
 13 14  1  0
 14 15  1  1
 15 19  1  0
 15 16  2  0
 18 17  1  6
 18 20  1  0
 19 18  1  0
 20 22  1  0
 21 20  2  0
M  END
$$$$
