EPA.pdb
     RDKit          3D

 22 22  0  0  1  0  0  0  0  0999 V2000
   19.7943  -12.2402  -16.2576 N   0  0  0  0  0  0  0  0  0  0  0  0
   19.3402  -10.9104  -16.5872 C   0  0  1  0  0  0  0  0  0  0  0  0
   18.1434  -10.5905  -15.7409 C   0  0  0  0  0  0  0  0  0  0  0  0
   16.9285  -11.4137  -16.0310 C   0  0  0  0  0  0  0  0  0  0  0  0
   15.7732  -11.0912  -15.1986 C   0  0  0  0  0  0  0  0  0  0  0  0
   15.0107  -10.1537  -15.4606 O   0  0  0  0  0  0  0  0  0  0  0  0
   20.3884   -9.8757  -16.2678 C   0  0  0  0  0  0  0  0  0  0  0  0
   21.1411  -10.1438  -15.3034 O   0  0  0  0  0  0  0  0  0  0  0  0
   15.5127  -11.8555  -14.0731 O   0  0  0  0  0  0  0  0  0  0  0  0
   20.5550   -8.6742  -16.9705 N   0  0  0  0  0  0  0  0  0  0  0  0
   19.7582   -8.2149  -18.0787 C   0  0  0  0  0  0  0  0  0  0  0  0
   20.4912   -7.0054  -18.6591 C   0  0  0  0  0  0  0  0  0  0  0  0
   21.8957   -7.1387  -18.0690 C   0  0  0  0  0  0  0  0  0  0  0  0
   21.5556   -7.6930  -16.7046 C   0  0  1  0  0  0  0  0  0  0  0  0
   21.0693   -6.5555  -15.8813 C   0  0  0  0  0  0  0  0  0  0  0  0
   19.9294   -6.0463  -16.0228 O   0  0  0  0  0  0  0  0  0  0  0  0
   22.1406   -5.1796  -12.5648 C   0  0  0  0  0  0  0  0  0  0  0  0
   21.4399   -5.0653  -13.8756 C   0  0  2  0  0  0  0  0  0  0  0  0
   21.9006   -5.9900  -14.8783 N   0  0  0  0  0  0  0  0  0  0  0  0
   21.4826   -3.6588  -14.3264 C   0  0  0  0  0  0  0  0  0  0  0  0
   20.9434   -2.8060  -13.5587 O   0  0  0  0  0  0  0  0  0  0  0  0
   22.0505   -3.2148  -15.4904 O   0  0  0  0  0  0  0  0  0  0  0  0
  2  1  1  1
  3  4  1  0
  3  2  1  0
  4  5  1  0
  5  9  1  0
  5  6  2  0
  7 10  1  0
  7  2  1  0
  8  7  2  0
 10 14  1  0
 11 12  1  0
 11 10  1  0
 12 13  1  0
 13 14  1  0
 14 15  1  1
 15 19  1  0
 15 16  2  0
 18 17  1  1
 18 20  1  0
 19 18  1  0
 20 22  1  0
 21 20  2  0
M  END
$$$$
