EPA.pdb
     RDKit          3D

 22 22  0  0  1  0  0  0  0  0999 V2000
   17.2434  -13.4719  -18.4492 N   0  0  0  0  0  0  0  0  0  0  0  0
   16.8193  -12.1865  -17.9481 C   0  0  1  0  0  0  0  0  0  0  0  0
   16.4265  -12.3405  -16.5084 C   0  0  0  0  0  0  0  0  0  0  0  0
   15.2202  -13.1929  -16.2722 C   0  0  0  0  0  0  0  0  0  0  0  0
   14.7555  -13.2036  -14.8881 C   0  0  0  0  0  0  0  0  0  0  0  0
   14.5543  -12.1637  -14.2503 O   0  0  0  0  0  0  0  0  0  0  0  0
   17.9423  -11.1822  -17.9880 C   0  0  0  0  0  0  0  0  0  0  0  0
   19.0913  -11.6570  -18.1396 O   0  0  0  0  0  0  0  0  0  0  0  0
   14.5289  -14.4159  -14.2573 O   0  0  0  0  0  0  0  0  0  0  0  0
   17.7699   -9.7962  -17.8680 N   0  0  0  0  0  0  0  0  0  0  0  0
   16.5159   -9.0987  -17.7461 C   0  0  0  0  0  0  0  0  0  0  0  0
   16.8356   -7.6133  -17.9154 C   0  0  0  0  0  0  0  0  0  0  0  0
   18.2268   -7.6311  -18.5501 C   0  0  0  0  0  0  0  0  0  0  0  0
   18.8201   -8.8312  -17.8485 C   0  0  1  0  0  0  0  0  0  0  0  0
   19.1992   -8.3922  -16.4804 C   0  0  0  0  0  0  0  0  0  0  0  0
   18.3635   -8.2378  -15.5549 O   0  0  0  0  0  0  0  0  0  0  0  0
   22.4038   -8.7821  -14.6718 C   0  0  0  0  0  0  0  0  0  0  0  0
   21.0851   -8.1040  -14.8247 C   0  0  2  0  0  0  0  0  0  0  0  0
   20.5577   -8.1252  -16.1642 N   0  0  0  0  0  0  0  0  0  0  0  0
   21.1739   -6.7404  -14.2625 C   0  0  0  0  0  0  0  0  0  0  0  0
   21.0415   -5.7840  -15.0842 O   0  0  0  0  0  0  0  0  0  0  0  0
   21.3849   -6.4371  -12.9441 O   0  0  0  0  0  0  0  0  0  0  0  0
  2  1  1  1
  3  4  1  0
  3  2  1  0
  4  5  1  0
  5  9  1  0
  5  6  2  0
  7 10  1  0
  7  2  1  0
  8  7  2  0
 10 14  1  0
 11 12  1  0
 11 10  1  0
 12 13  1  0
 13 14  1  0
 14 15  1  1
 15 19  1  0
 15 16  2  0
 18 17  1  6
 18 20  1  0
 19 18  1  0
 20 22  1  0
 21 20  2  0
M  END
$$$$
