FCD.pdb
     RDKit          3D

 26 26  0  0  1  0  0  0  0  0999 V2000
    9.4940  -15.5225   21.7930 N   0  0  0  0  0  0  0  0  0  0  0  0
    9.0976  -14.7661   22.9632 C   0  0  1  0  0  0  0  0  0  0  0  0
    7.5872  -14.8225   23.0315 C   0  0  0  0  0  0  0  0  0  0  0  0
    7.0787  -13.9629   24.1273 C   0  0  0  0  0  0  0  0  0  0  0  0
    7.2508  -12.5789   24.0782 C   0  0  0  0  0  0  0  0  0  0  0  0
    6.7803  -11.7661   25.0954 C   0  0  0  0  0  0  0  0  0  0  0  0
    6.1314  -12.2852   26.1828 C   0  0  0  0  0  0  0  0  0  0  0  0
    5.9501  -13.6458   26.2533 C   0  0  0  0  0  0  0  0  0  0  0  0
    6.4220  -14.4622   25.2331 C   0  0  0  0  0  0  0  0  0  0  0  0
    9.6827  -15.2908   24.2015 C   0  0  0  0  0  0  0  0  0  0  0  0
   10.1547  -16.4584   24.1859 O   0  0  0  0  0  0  0  0  0  0  0  0
    9.7521  -14.5753   25.4089 N   0  0  0  0  0  0  0  0  0  0  0  0
   10.6079  -14.9595   26.5074 C   0  0  1  0  0  0  0  0  0  0  0  0
   10.4042  -14.0692   27.7189 C   0  0  0  0  0  0  0  0  0  0  0  0
   10.9277  -14.9066   29.2145 S   0  0  0  0  0  0  0  0  0  0  0  0
   10.3303  -16.3544   26.9296 C   0  0  0  0  0  0  0  0  0  0  0  0
    9.1432  -16.7209   27.2344 O   0  0  0  0  0  0  0  0  0  0  0  0
   11.3796  -17.2911   26.9986 N   0  0  0  0  0  0  0  0  0  0  0  0
   11.1526  -18.6937   27.4385 C   0  0  1  0  0  0  0  0  0  0  0  0
   12.3095  -19.5334   26.9758 C   0  0  0  0  0  0  0  0  0  0  0  0
   12.4122  -19.5459   25.5146 C   0  0  0  0  0  0  0  0  0  0  0  0
   12.6135  -18.5417   24.8055 O   0  0  0  0  0  0  0  0  0  0  0  0
   11.0362  -18.6038   28.9203 C   0  0  0  0  0  0  0  0  0  0  0  0
   11.6850  -17.6392   29.6586 O   0  0  0  0  0  0  0  0  0  0  0  0
   12.2804  -20.7657   24.8038 O   0  0  0  0  0  0  0  0  0  0  0  0
   10.3252  -19.4228   29.5808 O   0  0  0  0  0  0  0  0  0  0  0  0
  2 10  1  0
  2  1  1  6
  3  2  1  0
  4  3  1  0
  5  4  2  0
  6  5  1  0
  7  8  1  0
  7  6  2  0
  8  9  2  0
  9  4  1  0
 10 11  2  0
 12 13  1  0
 12 10  1  0
 13 14  1  1
 14 15  1  0
 16 17  2  0
 16 13  1  0
 18 16  1  0
 19 18  1  0
 19 20  1  1
 20 21  1  0
 21 25  1  0
 21 22  2  0
 23 24  1  0
 23 19  1  0
 26 23  2  0
M  END
$$$$
