FCD.pdb
     RDKit          3D

 26 26  0  0  1  0  0  0  0  0999 V2000
    5.8388  -17.7090   25.4870 N   0  0  0  0  0  0  0  0  0  0  0  0
    6.5145  -16.4693   25.1622 C   0  0  1  0  0  0  0  0  0  0  0  0
    6.9967  -15.8770   26.4683 C   0  0  0  0  0  0  0  0  0  0  0  0
    6.8146  -14.4056   26.4765 C   0  0  0  0  0  0  0  0  0  0  0  0
    7.9215  -13.5561   26.4556 C   0  0  0  0  0  0  0  0  0  0  0  0
    7.7639  -12.1806   26.4630 C   0  0  0  0  0  0  0  0  0  0  0  0
    6.5233  -11.6035   26.4909 C   0  0  0  0  0  0  0  0  0  0  0  0
    5.4180  -12.4201   26.5118 C   0  0  0  0  0  0  0  0  0  0  0  0
    5.5751  -13.8004   26.5045 C   0  0  0  0  0  0  0  0  0  0  0  0
    7.6421  -16.6627   24.2445 C   0  0  0  0  0  0  0  0  0  0  0  0
    8.3980  -17.6521   24.4343 O   0  0  0  0  0  0  0  0  0  0  0  0
    7.9366  -15.8148   23.1634 N   0  0  0  0  0  0  0  0  0  0  0  0
    9.0222  -16.0570   22.2417 C   0  0  1  0  0  0  0  0  0  0  0  0
    8.9660  -15.1240   21.0467 C   0  0  0  0  0  0  0  0  0  0  0  0
    8.0474  -13.6380   21.4471 S   0  0  0  0  0  0  0  0  0  0  0  0
   10.3333  -15.8508   22.9048 C   0  0  0  0  0  0  0  0  0  0  0  0
   10.5322  -14.8361   23.6580 O   0  0  0  0  0  0  0  0  0  0  0  0
   11.3754  -16.7773   22.7076 N   0  0  0  0  0  0  0  0  0  0  0  0
   12.6729  -16.6646   23.4261 C   0  0  1  0  0  0  0  0  0  0  0  0
   13.1005  -18.0382   23.8597 C   0  0  0  0  0  0  0  0  0  0  0  0
   14.4538  -18.0261   24.4205 C   0  0  0  0  0  0  0  0  0  0  0  0
   15.4290  -18.6364   23.9426 O   0  0  0  0  0  0  0  0  0  0  0  0
   13.5923  -16.0388   22.4360 C   0  0  0  0  0  0  0  0  0  0  0  0
   13.3425  -16.0485   21.0816 O   0  0  0  0  0  0  0  0  0  0  0  0
   14.7296  -17.2798   25.5942 O   0  0  0  0  0  0  0  0  0  0  0  0
   14.6632  -15.4605   22.7982 O   0  0  0  0  0  0  0  0  0  0  0  0
  2 10  1  0
  2  1  1  1
  3  2  1  0
  4  3  1  0
  5  4  2  0
  6  5  1  0
  7  8  1  0
  7  6  2  0
  8  9  2  0
  9  4  1  0
 10 11  2  0
 12 13  1  0
 12 10  1  0
 13 14  1  6
 14 15  1  0
 16 17  2  0
 16 13  1  0
 18 16  1  0
 19 18  1  0
 19 20  1  6
 20 21  1  0
 21 25  1  0
 21 22  2  0
 23 24  1  0
 23 19  1  0
 26 23  2  0
M  END
$$$$
