FCD.pdb
     RDKit          3D

 26 26  0  0  1  0  0  0  0  0999 V2000
    8.0971  -16.0688   22.5331 N   0  0  0  0  0  0  0  0  0  0  0  0
    8.0952  -14.8863   23.3702 C   0  0  1  0  0  0  0  0  0  0  0  0
    6.6959  -14.7457   23.9281 C   0  0  0  0  0  0  0  0  0  0  0  0
    6.5892  -13.5368   24.7800 C   0  0  0  0  0  0  0  0  0  0  0  0
    6.9878  -12.2913   24.2929 C   0  0  0  0  0  0  0  0  0  0  0  0
    6.8930  -11.1556   25.0790 C   0  0  0  0  0  0  0  0  0  0  0  0
    6.4071  -11.2097   26.3573 C   0  0  0  0  0  0  0  0  0  0  0  0
    6.0082  -12.4256   26.8588 C   0  0  0  0  0  0  0  0  0  0  0  0
    6.1032  -13.5658   26.0708 C   0  0  0  0  0  0  0  0  0  0  0  0
    9.0723  -14.9635   24.4612 C   0  0  0  0  0  0  0  0  0  0  0  0
    9.6514  -13.9023   24.8146 O   0  0  0  0  0  0  0  0  0  0  0  0
    9.4068  -16.1467   25.1415 N   0  0  0  0  0  0  0  0  0  0  0  0
   10.2562  -16.1738   26.3096 C   0  0  1  0  0  0  0  0  0  0  0  0
    9.5420  -15.6431   27.5384 C   0  0  0  0  0  0  0  0  0  0  0  0
   10.6275  -14.5833   28.4927 S   0  0  0  0  0  0  0  0  0  0  0  0
   10.6922  -17.5591   26.6129 C   0  0  0  0  0  0  0  0  0  0  0  0
   10.0620  -18.5627   26.1312 O   0  0  0  0  0  0  0  0  0  0  0  0
   11.8106  -17.7800   27.4396 N   0  0  0  0  0  0  0  0  0  0  0  0
   12.4652  -19.1122   27.5358 C   0  0  1  0  0  0  0  0  0  0  0  0
   13.8645  -18.9975   27.0006 C   0  0  0  0  0  0  0  0  0  0  0  0
   14.1450  -20.0365   26.0067 C   0  0  0  0  0  0  0  0  0  0  0  0
   13.3340  -20.9066   25.6367 O   0  0  0  0  0  0  0  0  0  0  0  0
   12.4070  -19.4506   28.9848 C   0  0  0  0  0  0  0  0  0  0  0  0
   12.5228  -20.7413   29.4508 O   0  0  0  0  0  0  0  0  0  0  0  0
   15.4192  -20.1020   25.3881 O   0  0  0  0  0  0  0  0  0  0  0  0
   12.2453  -18.5540   29.8694 O   0  0  0  0  0  0  0  0  0  0  0  0
  2 10  1  0
  2  1  1  1
  3  2  1  0
  4  3  1  0
  5  4  2  0
  6  5  1  0
  7  8  1  0
  7  6  2  0
  8  9  2  0
  9  4  1  0
 10 11  2  0
 12 13  1  0
 12 10  1  0
 13 14  1  1
 14 15  1  0
 16 17  2  0
 16 13  1  0
 18 16  1  0
 19 18  1  0
 19 20  1  1
 20 21  1  0
 21 25  1  0
 21 22  2  0
 23 24  1  0
 23 19  1  0
 26 23  2  0
M  END
$$$$
