FCD.pdb
     RDKit          3D

 26 26  0  0  1  0  0  0  0  0999 V2000
    6.1586  -18.0383   25.5903 N   0  0  0  0  0  0  0  0  0  0  0  0
    6.4943  -16.6561   25.3151 C   0  0  1  0  0  0  0  0  0  0  0  0
    6.8513  -16.0189   26.6401 C   0  0  0  0  0  0  0  0  0  0  0  0
    6.6999  -14.5456   26.5719 C   0  0  0  0  0  0  0  0  0  0  0  0
    5.4404  -13.9578   26.6970 C   0  0  0  0  0  0  0  0  0  0  0  0
    5.2866  -12.5832   26.6350 C   0  0  0  0  0  0  0  0  0  0  0  0
    6.3578  -11.7519   26.4497 C   0  0  0  0  0  0  0  0  0  0  0  0
    7.6084  -12.3080   26.3238 C   0  0  0  0  0  0  0  0  0  0  0  0
    7.7637  -13.6871   26.3858 C   0  0  0  0  0  0  0  0  0  0  0  0
    7.6074  -16.5213   24.3696 C   0  0  0  0  0  0  0  0  0  0  0  0
    8.5993  -17.2849   24.5088 O   0  0  0  0  0  0  0  0  0  0  0  0
    7.6414  -15.5936   23.3147 N   0  0  0  0  0  0  0  0  0  0  0  0
    8.6564  -15.6020   22.2869 C   0  0  1  0  0  0  0  0  0  0  0  0
    8.4278  -14.5089   21.2599 C   0  0  0  0  0  0  0  0  0  0  0  0
    6.8798  -14.7677   20.3946 S   0  0  0  0  0  0  0  0  0  0  0  0
   10.0023  -15.3866   22.8728 C   0  0  0  0  0  0  0  0  0  0  0  0
   10.2296  -14.3867   23.6377 O   0  0  0  0  0  0  0  0  0  0  0  0
   11.0464  -16.2878   22.5883 N   0  0  0  0  0  0  0  0  0  0  0  0
   12.3768  -16.1810   23.2448 C   0  0  1  0  0  0  0  0  0  0  0  0
   12.6188  -17.4315   24.0418 C   0  0  0  0  0  0  0  0  0  0  0  0
   13.9766  -17.4630   24.5907 C   0  0  0  0  0  0  0  0  0  0  0  0
   14.8016  -16.5335   24.5056 O   0  0  0  0  0  0  0  0  0  0  0  0
   13.3330  -15.9978   22.1181 C   0  0  0  0  0  0  0  0  0  0  0  0
   13.2542  -16.7260   20.9518 O   0  0  0  0  0  0  0  0  0  0  0  0
   14.4375  -18.6132   25.2800 O   0  0  0  0  0  0  0  0  0  0  0  0
   14.2779  -15.1518   22.1808 O   0  0  0  0  0  0  0  0  0  0  0  0
  2 10  1  0
  2  1  1  1
  3  2  1  0
  4  3  1  0
  5  4  2  0
  6  5  1  0
  7  8  1  0
  7  6  2  0
  8  9  2  0
  9  4  1  0
 10 11  2  0
 12 13  1  0
 12 10  1  0
 13 14  1  6
 14 15  1  0
 16 17  2  0
 16 13  1  0
 18 16  1  0
 19 18  1  0
 19 20  1  6
 20 21  1  0
 21 25  1  0
 21 22  2  0
 23 24  1  0
 23 19  1  0
 26 23  2  0
M  END
$$$$
