FCD.pdb
     RDKit          3D

 26 26  0  0  1  0  0  0  0  0999 V2000
    7.1509  -17.3459   21.5638 N   0  0  0  0  0  0  0  0  0  0  0  0
    7.8949  -17.2333   20.3258 C   0  0  1  0  0  0  0  0  0  0  0  0
    8.8936  -16.1124   20.5143 C   0  0  0  0  0  0  0  0  0  0  0  0
    8.2060  -14.7999   20.5670 C   0  0  0  0  0  0  0  0  0  0  0  0
    7.6141  -14.2653   19.4218 C   0  0  0  0  0  0  0  0  0  0  0  0
    6.9694  -13.0407   19.4588 C   0  0  0  0  0  0  0  0  0  0  0  0
    6.8877  -12.3106   20.6135 C   0  0  0  0  0  0  0  0  0  0  0  0
    7.4633  -12.8168   21.7543 C   0  0  0  0  0  0  0  0  0  0  0  0
    8.1106  -14.0455   21.7181 C   0  0  0  0  0  0  0  0  0  0  0  0
    8.5865  -18.4754   19.9658 C   0  0  0  0  0  0  0  0  0  0  0  0
    9.0477  -19.1883   20.8961 O   0  0  0  0  0  0  0  0  0  0  0  0
    8.7698  -18.9253   18.6472 N   0  0  0  0  0  0  0  0  0  0  0  0
    9.4381  -20.1635   18.3201 C   0  0  1  0  0  0  0  0  0  0  0  0
    8.7162  -20.9206   17.2213 C   0  0  0  0  0  0  0  0  0  0  0  0
    7.1354  -21.5299   17.8063 S   0  0  0  0  0  0  0  0  0  0  0  0
   10.8213  -19.9078   17.8483 C   0  0  0  0  0  0  0  0  0  0  0  0
   11.0433  -19.0987   16.8826 O   0  0  0  0  0  0  0  0  0  0  0  0
   11.9070  -20.5592   18.4648 N   0  0  0  0  0  0  0  0  0  0  0  0
   13.3095  -20.3401   18.0204 C   0  0  1  0  0  0  0  0  0  0  0  0
   14.2208  -20.5335   19.1993 C   0  0  0  0  0  0  0  0  0  0  0  0
   14.2454  -19.3469   20.0580 C   0  0  0  0  0  0  0  0  0  0  0  0
   13.6169  -18.2942   19.8375 O   0  0  0  0  0  0  0  0  0  0  0  0
   13.5161  -21.3405   16.9368 C   0  0  0  0  0  0  0  0  0  0  0  0
   14.5429  -21.2446   16.0241 O   0  0  0  0  0  0  0  0  0  0  0  0
   15.0265  -19.3427   21.2413 O   0  0  0  0  0  0  0  0  0  0  0  0
   12.7454  -22.3406   16.8016 O   0  0  0  0  0  0  0  0  0  0  0  0
  2 10  1  0
  2  1  1  1
  3  2  1  0
  4  3  1  0
  5  4  2  0
  6  5  1  0
  7  8  1  0
  7  6  2  0
  8  9  2  0
  9  4  1  0
 10 11  2  0
 12 13  1  0
 12 10  1  0
 13 14  1  6
 14 15  1  0
 16 17  2  0
 16 13  1  0
 18 16  1  0
 19 18  1  0
 19 20  1  1
 20 21  1  0
 21 25  1  0
 21 22  2  0
 23 24  1  0
 23 19  1  0
 26 23  2  0
M  END
$$$$
