FCD.pdb
     RDKit          3D

 26 26  0  0  1  0  0  0  0  0999 V2000
    9.2463  -15.4099   21.7724 N   0  0  0  0  0  0  0  0  0  0  0  0
    8.9559  -14.7934   23.0509 C   0  0  1  0  0  0  0  0  0  0  0  0
    7.4496  -14.7070   23.1645 C   0  0  0  0  0  0  0  0  0  0  0  0
    7.0576  -13.8611   24.3173 C   0  0  0  0  0  0  0  0  0  0  0  0
    6.4162  -14.4239   25.4215 C   0  0  0  0  0  0  0  0  0  0  0  0
    6.0454  -13.6440   26.5037 C   0  0  0  0  0  0  0  0  0  0  0  0
    6.2922  -12.2982   26.5328 C   0  0  0  0  0  0  0  0  0  0  0  0
    6.9230  -11.7214   25.4565 C   0  0  0  0  0  0  0  0  0  0  0  0
    7.2953  -12.5031   24.3700 C   0  0  0  0  0  0  0  0  0  0  0  0
    9.5088  -15.5466   24.1813 C   0  0  0  0  0  0  0  0  0  0  0  0
    9.6788  -16.7867   24.0411 O   0  0  0  0  0  0  0  0  0  0  0  0
    9.8631  -14.9752   25.4152 N   0  0  0  0  0  0  0  0  0  0  0  0
   10.8299  -15.5657   26.3114 C   0  0  1  0  0  0  0  0  0  0  0  0
   11.2090  -14.6192   27.4349 C   0  0  0  0  0  0  0  0  0  0  0  0
    9.7483  -14.0556   28.3072 S   0  0  0  0  0  0  0  0  0  0  0  0
   10.2883  -16.7990   26.9335 C   0  0  0  0  0  0  0  0  0  0  0  0
    9.0850  -16.8386   27.3658 O   0  0  0  0  0  0  0  0  0  0  0  0
   11.1014  -17.9424   27.0534 N   0  0  0  0  0  0  0  0  0  0  0  0
   10.6320  -19.1706   27.7489 C   0  0  1  0  0  0  0  0  0  0  0  0
   11.4530  -20.3346   27.2710 C   0  0  0  0  0  0  0  0  0  0  0  0
   11.3855  -20.4760   25.8144 C   0  0  0  0  0  0  0  0  0  0  0  0
   10.3427  -20.3947   25.1379 O   0  0  0  0  0  0  0  0  0  0  0  0
   10.8111  -18.8690   29.1962 C   0  0  0  0  0  0  0  0  0  0  0  0
   11.5768  -17.8162   29.6457 O   0  0  0  0  0  0  0  0  0  0  0  0
   12.5662  -20.7245   25.0696 O   0  0  0  0  0  0  0  0  0  0  0  0
   10.2603  -19.5774   30.0946 O   0  0  0  0  0  0  0  0  0  0  0  0
  2 10  1  0
  2  1  1  6
  3  2  1  0
  4  3  1  0
  5  4  2  0
  6  5  1  0
  7  8  1  0
  7  6  2  0
  8  9  2  0
  9  4  1  0
 10 11  2  0
 12 13  1  0
 12 10  1  0
 13 14  1  1
 14 15  1  0
 16 17  2  0
 16 13  1  0
 18 16  1  0
 19 18  1  0
 19 20  1  6
 20 21  1  0
 21 25  1  0
 21 22  2  0
 23 24  1  0
 23 19  1  0
 26 23  2  0
M  END
$$$$
