FCD.pdb
     RDKit          3D

 26 26  0  0  1  0  0  0  0  0999 V2000
    7.9312  -18.5472   26.8803 N   0  0  0  0  0  0  0  0  0  0  0  0
    8.7881  -17.4356   26.5212 C   0  0  1  0  0  0  0  0  0  0  0  0
    9.7867  -17.2701   27.6456 C   0  0  0  0  0  0  0  0  0  0  0  0
    9.9362  -15.8404   28.0090 C   0  0  0  0  0  0  0  0  0  0  0  0
    8.8204  -15.0804   28.3624 C   0  0  0  0  0  0  0  0  0  0  0  0
    8.9476  -13.7446   28.7036 C   0  0  0  0  0  0  0  0  0  0  0  0
   10.1657  -13.1209   28.7077 C   0  0  0  0  0  0  0  0  0  0  0  0
   11.2792  -13.8493   28.3631 C   0  0  0  0  0  0  0  0  0  0  0  0
   11.1526  -15.1896   28.0205 C   0  0  0  0  0  0  0  0  0  0  0  0
    9.4855  -17.6465   25.2485 C   0  0  0  0  0  0  0  0  0  0  0  0
    9.8446  -18.8178   24.9561 O   0  0  0  0  0  0  0  0  0  0  0  0
    9.7812  -16.6253   24.3296 N   0  0  0  0  0  0  0  0  0  0  0  0
   10.4292  -16.8663   23.0613 C   0  0  1  0  0  0  0  0  0  0  0  0
    9.7371  -16.1348   21.9265 C   0  0  0  0  0  0  0  0  0  0  0  0
   10.4325  -16.6161   20.3463 S   0  0  0  0  0  0  0  0  0  0  0  0
   11.8389  -16.4045   23.0928 C   0  0  0  0  0  0  0  0  0  0  0  0
   12.1327  -15.2301   23.5062 O   0  0  0  0  0  0  0  0  0  0  0  0
   12.8703  -17.2622   22.6643 N   0  0  0  0  0  0  0  0  0  0  0  0
   14.2934  -16.8300   22.6436 C   0  0  1  0  0  0  0  0  0  0  0  0
   15.1655  -18.0508   22.7261 C   0  0  0  0  0  0  0  0  0  0  0  0
   15.5971  -18.3092   24.1019 C   0  0  0  0  0  0  0  0  0  0  0  0
   15.6206  -17.4601   25.0131 O   0  0  0  0  0  0  0  0  0  0  0  0
   14.4353  -16.0813   21.3643 C   0  0  0  0  0  0  0  0  0  0  0  0
   15.2960  -15.0159   21.2194 O   0  0  0  0  0  0  0  0  0  0  0  0
   16.0303  -19.6057   24.4787 O   0  0  0  0  0  0  0  0  0  0  0  0
   13.7608  -16.3932   20.3347 O   0  0  0  0  0  0  0  0  0  0  0  0
  2 10  1  0
  2  1  1  1
  3  2  1  0
  4  3  1  0
  5  4  2  0
  6  5  1  0
  7  8  1  0
  7  6  2  0
  8  9  2  0
  9  4  1  0
 10 11  2  0
 12 13  1  0
 12 10  1  0
 13 14  1  6
 14 15  1  0
 16 17  2  0
 16 13  1  0
 18 16  1  0
 19 18  1  0
 19 20  1  6
 20 21  1  0
 21 25  1  0
 21 22  2  0
 23 24  1  0
 23 19  1  0
 26 23  2  0
M  END
$$$$
