FCD.pdb
     RDKit          3D

 26 26  0  0  1  0  0  0  0  0999 V2000
    9.0985  -15.4387   15.4781 N   0  0  0  0  0  0  0  0  0  0  0  0
    9.2524  -14.7739   16.7561 C   0  0  1  0  0  0  0  0  0  0  0  0
    7.9155  -14.8599   17.4594 C   0  0  0  0  0  0  0  0  0  0  0  0
    8.0126  -14.3254   18.8390 C   0  0  0  0  0  0  0  0  0  0  0  0
    8.2021  -12.9601   19.0565 C   0  0  0  0  0  0  0  0  0  0  0  0
    8.2943  -12.4495   20.3401 C   0  0  0  0  0  0  0  0  0  0  0  0
    8.2034  -13.2592   21.4396 C   0  0  0  0  0  0  0  0  0  0  0  0
    8.0167  -14.6077   21.2502 C   0  0  0  0  0  0  0  0  0  0  0  0
    7.9242  -15.1210   19.9626 C   0  0  0  0  0  0  0  0  0  0  0  0
   10.3024  -15.3756   17.5845 C   0  0  0  0  0  0  0  0  0  0  0  0
   10.3571  -16.6322   17.6522 O   0  0  0  0  0  0  0  0  0  0  0  0
   11.2554  -14.6413   18.3106 N   0  0  0  0  0  0  0  0  0  0  0  0
   12.3929  -15.2486   18.9618 C   0  0  1  0  0  0  0  0  0  0  0  0
   13.5790  -14.3044   19.0210 C   0  0  0  0  0  0  0  0  0  0  0  0
   14.5530  -14.4176   17.5208 S   0  0  0  0  0  0  0  0  0  0  0  0
   12.0602  -15.6318   20.3560 C   0  0  0  0  0  0  0  0  0  0  0  0
   11.3466  -14.8662   21.0915 O   0  0  0  0  0  0  0  0  0  0  0  0
   12.5317  -16.8496   20.8829 N   0  0  0  0  0  0  0  0  0  0  0  0
   12.2438  -17.2639   22.2821 C   0  0  1  0  0  0  0  0  0  0  0  0
   12.1232  -18.7611   22.3227 C   0  0  0  0  0  0  0  0  0  0  0  0
   10.8749  -19.2151   21.7050 C   0  0  0  0  0  0  0  0  0  0  0  0
    9.9937  -18.4651   21.2437 O   0  0  0  0  0  0  0  0  0  0  0  0
   13.3927  -16.7369   23.0692 C   0  0  0  0  0  0  0  0  0  0  0  0
   13.3822  -16.6713   24.4448 O   0  0  0  0  0  0  0  0  0  0  0  0
   10.5987  -20.6018   21.5983 O   0  0  0  0  0  0  0  0  0  0  0  0
   14.4486  -16.3175   22.5021 O   0  0  0  0  0  0  0  0  0  0  0  0
  2 10  1  0
  2  1  1  6
  3  2  1  0
  4  3  1  0
  5  4  2  0
  6  5  1  0
  7  8  1  0
  7  6  2  0
  8  9  2  0
  9  4  1  0
 10 11  2  0
 12 13  1  0
 12 10  1  0
 13 14  1  1
 14 15  1  0
 16 17  2  0
 16 13  1  0
 18 16  1  0
 19 18  1  0
 19 20  1  6
 20 21  1  0
 21 25  1  0
 21 22  2  0
 23 24  1  0
 23 19  1  0
 26 23  2  0
M  END
$$$$
