FCD.pdb
     RDKit          3D

 26 26  0  0  1  0  0  0  0  0999 V2000
    6.2070  -18.2020   26.0682 N   0  0  0  0  0  0  0  0  0  0  0  0
    6.4376  -16.8120   25.7309 C   0  0  1  0  0  0  0  0  0  0  0  0
    7.1751  -16.1936   26.8982 C   0  0  0  0  0  0  0  0  0  0  0  0
    7.2385  -14.7190   26.7575 C   0  0  0  0  0  0  0  0  0  0  0  0
    6.0676  -13.9690   26.6404 C   0  0  0  0  0  0  0  0  0  0  0  0
    6.1142  -12.5915   26.5085 C   0  0  0  0  0  0  0  0  0  0  0  0
    7.3039  -11.9154   26.4881 C   0  0  0  0  0  0  0  0  0  0  0  0
    8.4707  -12.6330   26.6019 C   0  0  0  0  0  0  0  0  0  0  0  0
    8.4248  -14.0151   26.7341 C   0  0  0  0  0  0  0  0  0  0  0  0
    7.2124  -16.6500   24.4963 C   0  0  0  0  0  0  0  0  0  0  0  0
    8.2071  -17.4016   24.3177 O   0  0  0  0  0  0  0  0  0  0  0  0
    6.9182  -15.7086   23.4954 N   0  0  0  0  0  0  0  0  0  0  0  0
    7.6940  -15.5737   22.2843 C   0  0  1  0  0  0  0  0  0  0  0  0
    7.2699  -14.3624   21.4751 C   0  0  0  0  0  0  0  0  0  0  0  0
    8.2003  -14.2657   19.9464 S   0  0  0  0  0  0  0  0  0  0  0  0
    9.1360  -15.4168   22.5962 C   0  0  0  0  0  0  0  0  0  0  0  0
    9.5330  -14.5207   23.4182 O   0  0  0  0  0  0  0  0  0  0  0  0
   10.0842  -16.2592   21.9845 N   0  0  0  0  0  0  0  0  0  0  0  0
   11.5427  -16.1141   22.2375 C   0  0  1  0  0  0  0  0  0  0  0  0
   11.9865  -17.2344   23.1350 C   0  0  0  0  0  0  0  0  0  0  0  0
   13.4358  -17.2094   23.3469 C   0  0  0  0  0  0  0  0  0  0  0  0
   14.2171  -16.3856   22.8344 O   0  0  0  0  0  0  0  0  0  0  0  0
   12.1603  -16.1551   20.8830 C   0  0  0  0  0  0  0  0  0  0  0  0
   13.1413  -15.2731   20.4876 O   0  0  0  0  0  0  0  0  0  0  0  0
   14.0470  -18.1722   24.1895 O   0  0  0  0  0  0  0  0  0  0  0  0
   11.8065  -17.0152   20.0185 O   0  0  0  0  0  0  0  0  0  0  0  0
  2 10  1  0
  2  1  1  1
  3  2  1  0
  4  3  1  0
  5  4  2  0
  6  5  1  0
  7  8  1  0
  7  6  2  0
  8  9  2  0
  9  4  1  0
 10 11  2  0
 12 13  1  0
 12 10  1  0
 13 14  1  1
 14 15  1  0
 16 17  2  0
 16 13  1  0
 18 16  1  0
 19 18  1  0
 19 20  1  1
 20 21  1  0
 21 25  1  0
 21 22  2  0
 23 24  1  0
 23 19  1  0
 26 23  2  0
M  END
$$$$
