FCD.pdb
     RDKit          3D

 26 26  0  0  1  0  0  0  0  0999 V2000
    5.9875  -16.4396   26.0206 N   0  0  0  0  0  0  0  0  0  0  0  0
    6.7100  -15.7699   24.9583 C   0  0  1  0  0  0  0  0  0  0  0  0
    7.7278  -14.8675   25.6207 C   0  0  0  0  0  0  0  0  0  0  0  0
    7.0650  -13.6964   26.2431 C   0  0  0  0  0  0  0  0  0  0  0  0
    7.8235  -12.6955   26.8517 C   0  0  0  0  0  0  0  0  0  0  0  0
    7.2158  -11.5973   27.4361 C   0  0  0  0  0  0  0  0  0  0  0  0
    5.8551  -11.4511   27.4396 C   0  0  0  0  0  0  0  0  0  0  0  0
    5.0871  -12.4243   26.8460 C   0  0  0  0  0  0  0  0  0  0  0  0
    5.6960  -13.5266   26.2595 C   0  0  0  0  0  0  0  0  0  0  0  0
    7.3770  -16.7073   24.0488 C   0  0  0  0  0  0  0  0  0  0  0  0
    6.7478  -17.7396   23.6952 O   0  0  0  0  0  0  0  0  0  0  0  0
    8.6762  -16.5303   23.5434 N   0  0  0  0  0  0  0  0  0  0  0  0
    8.9470  -16.0041   22.2257 C   0  0  1  0  0  0  0  0  0  0  0  0
    8.0446  -14.8314   21.8906 C   0  0  0  0  0  0  0  0  0  0  0  0
    7.9010  -14.6309   20.1154 S   0  0  0  0  0  0  0  0  0  0  0  0
   10.3488  -15.5287   22.1252 C   0  0  0  0  0  0  0  0  0  0  0  0
   10.6641  -14.3426   22.4862 O   0  0  0  0  0  0  0  0  0  0  0  0
   11.3489  -16.3862   21.6276 N   0  0  0  0  0  0  0  0  0  0  0  0
   12.5299  -16.7728   22.4450 C   0  0  1  0  0  0  0  0  0  0  0  0
   12.5369  -18.2675   22.5986 C   0  0  0  0  0  0  0  0  0  0  0  0
   12.9265  -18.6652   23.9536 C   0  0  0  0  0  0  0  0  0  0  0  0
   13.3037  -17.8820   24.8458 O   0  0  0  0  0  0  0  0  0  0  0  0
   13.6966  -16.2463   21.6840 C   0  0  0  0  0  0  0  0  0  0  0  0
   14.8676  -15.8576   22.2958 O   0  0  0  0  0  0  0  0  0  0  0  0
   12.8897  -20.0315   24.3309 O   0  0  0  0  0  0  0  0  0  0  0  0
   13.6657  -16.1288   20.4200 O   0  0  0  0  0  0  0  0  0  0  0  0
  2 10  1  0
  2  1  1  1
  3  2  1  0
  4  3  1  0
  5  4  2  0
  6  5  1  0
  7  8  1  0
  7  6  2  0
  8  9  2  0
  9  4  1  0
 10 11  2  0
 12 13  1  0
 12 10  1  0
 13 14  1  1
 14 15  1  0
 16 17  2  0
 16 13  1  0
 18 16  1  0
 19 18  1  0
 19 20  1  6
 20 21  1  0
 21 25  1  0
 21 22  2  0
 23 24  1  0
 23 19  1  0
 26 23  2  0
M  END
$$$$
