FCD.pdb
     RDKit          3D

 26 26  0  0  1  0  0  0  0  0999 V2000
    7.1736  -15.7131   26.0540 N   0  0  0  0  0  0  0  0  0  0  0  0
    7.2076  -15.2702   24.6751 C   0  0  1  0  0  0  0  0  0  0  0  0
    7.6610  -13.8268   24.6888 C   0  0  0  0  0  0  0  0  0  0  0  0
    7.0723  -13.1024   25.8408 C   0  0  0  0  0  0  0  0  0  0  0  0
    5.8580  -12.4281   25.7062 C   0  0  0  0  0  0  0  0  0  0  0  0
    5.2986  -11.7482   26.7747 C   0  0  0  0  0  0  0  0  0  0  0  0
    5.9112  -11.7113   27.9979 C   0  0  0  0  0  0  0  0  0  0  0  0
    7.1083  -12.3682   28.1545 C   0  0  0  0  0  0  0  0  0  0  0  0
    7.6704  -13.0505   27.0829 C   0  0  0  0  0  0  0  0  0  0  0  0
    8.1058  -16.0775   23.8430 C   0  0  0  0  0  0  0  0  0  0  0  0
    8.6367  -17.0962   24.3595 O   0  0  0  0  0  0  0  0  0  0  0  0
    8.4149  -15.7895   22.5028 N   0  0  0  0  0  0  0  0  0  0  0  0
    9.2270  -16.6517   21.6760 C   0  0  1  0  0  0  0  0  0  0  0  0
    9.1211  -16.2874   20.2070 C   0  0  0  0  0  0  0  0  0  0  0  0
    7.4255  -16.4233   19.6423 S   0  0  0  0  0  0  0  0  0  0  0  0
   10.6577  -16.5526   22.0561 C   0  0  0  0  0  0  0  0  0  0  0  0
   11.1822  -15.4201   22.3370 O   0  0  0  0  0  0  0  0  0  0  0  0
   11.4538  -17.7129   22.1100 N   0  0  0  0  0  0  0  0  0  0  0  0
   12.8742  -17.6712   22.5496 C   0  0  1  0  0  0  0  0  0  0  0  0
   13.2042  -18.9718   23.2258 C   0  0  0  0  0  0  0  0  0  0  0  0
   12.8417  -18.9452   24.6449 C   0  0  0  0  0  0  0  0  0  0  0  0
   12.4529  -19.9308   25.2999 O   0  0  0  0  0  0  0  0  0  0  0  0
   13.6440  -17.4388   21.2963 C   0  0  0  0  0  0  0  0  0  0  0  0
   14.7642  -16.6389   21.2508 O   0  0  0  0  0  0  0  0  0  0  0  0
   12.9215  -17.7326   25.3756 O   0  0  0  0  0  0  0  0  0  0  0  0
   13.2991  -17.9730   20.1972 O   0  0  0  0  0  0  0  0  0  0  0  0
  2 10  1  0
  2  1  1  1
  3  2  1  0
  4  3  1  0
  5  4  2  0
  6  5  1  0
  7  8  1  0
  7  6  2  0
  8  9  2  0
  9  4  1  0
 10 11  2  0
 12 13  1  0
 12 10  1  0
 13 14  1  6
 14 15  1  0
 16 17  2  0
 16 13  1  0
 18 16  1  0
 19 18  1  0
 19 20  1  6
 20 21  1  0
 21 25  1  0
 21 22  2  0
 23 24  1  0
 23 19  1  0
 26 23  2  0
M  END
$$$$
