VWR.pdb
     RDKit          3D

 33 34  0  0  1  0  0  0  0  0999 V2000
    8.2918  -12.2891   18.7447 C   0  0  0  0  0  0  0  0  0  0  0  0
    7.7831  -13.6598   18.3262 C   0  0  1  0  0  0  0  0  0  0  0  0
    7.6527  -13.7541   16.8224 C   0  0  0  0  0  0  0  0  0  0  0  0
    8.6013  -14.7671   18.9271 C   0  0  2  0  0  0  0  0  0  0  0  0
    7.9578  -16.0208   18.5555 N   0  0  0  0  0  0  0  0  0  0  0  0
    8.8149  -14.6831   20.3658 C   0  0  0  0  0  0  0  0  0  0  0  0
    9.6899  -13.9265   20.8500 O   0  0  0  0  0  0  0  0  0  0  0  0
    8.0387  -15.4570   21.2676 N   0  0  0  0  0  0  0  0  0  0  0  0
    8.2290  -15.4417   22.7124 C   0  0  1  0  0  0  0  0  0  0  0  0
    6.8903  -15.1051   23.3095 C   0  0  0  0  0  0  0  0  0  0  0  0
    6.8707  -14.8274   24.7369 C   0  0  0  0  0  0  0  0  0  0  0  0
    6.6520  -15.7972   25.7169 C   0  0  0  0  0  0  0  0  0  0  0  0
    6.7043  -15.2371   26.9445 N   0  0  0  0  0  0  0  0  0  0  0  0
    6.9501  -13.9322   26.7967 C   0  0  0  0  0  0  0  0  0  0  0  0
    7.0886  -12.9397   27.7324 C   0  0  0  0  0  0  0  0  0  0  0  0
    7.3343  -11.6528   27.3422 C   0  0  0  0  0  0  0  0  0  0  0  0
    7.4440  -11.3522   25.9946 C   0  0  0  0  0  0  0  0  0  0  0  0
    7.3031  -12.3570   25.0731 C   0  0  0  0  0  0  0  0  0  0  0  0
    7.0547  -13.6675   25.4334 C   0  0  0  0  0  0  0  0  0  0  0  0
    8.9151  -16.6065   23.2319 C   0  0  0  0  0  0  0  0  0  0  0  0
    8.5163  -17.7684   22.9002 O   0  0  0  0  0  0  0  0  0  0  0  0
   10.8642  -19.5782   19.2230 N   0  0  0  0  0  0  0  0  0  0  0  0
   12.1167  -18.8805   18.9652 C   0  0  0  0  0  0  0  0  0  0  0  0
   12.3140  -18.3781   17.8687 N   0  0  0  0  0  0  0  0  0  0  0  0
   13.0800  -18.8003   20.0141 N   0  0  0  0  0  0  0  0  0  0  0  0
   12.6634  -18.9695   21.3663 C   0  0  0  0  0  0  0  0  0  0  0  0
   13.0277  -17.7440   22.1657 C   0  0  0  0  0  0  0  0  0  0  0  0
   11.7255  -17.0248   22.4833 C   0  0  0  0  0  0  0  0  0  0  0  0
   11.2027  -17.4250   23.8808 C   0  0  2  0  0  0  0  0  0  0  0  0
   10.0465  -16.5587   24.1112 N   0  0  0  0  0  0  0  0  0  0  0  0
   12.2763  -17.2274   24.8672 C   0  0  0  0  0  0  0  0  0  0  0  0
   13.3287  -17.9085   24.8381 O   0  0  0  0  0  0  0  0  0  0  0  0
   12.1390  -16.2717   25.8549 O   0  0  0  0  0  0  0  0  0  0  0  0
  2  1  1  6
  2  3  1  0
  2  4  1  0
  4  5  1  1
  4  6  1  0
  6  8  1  0
  6  7  2  0
  8  9  1  0
  9 20  1  0
  9 10  1  1
 10 11  1  0
 11 19  1  0
 11 12  2  0
 12 13  1  0
 14 15  2  0
 14 13  1  0
 16 15  1  0
 17 16  2  0
 18 17  1  0
 18 19  2  0
 19 14  1  0
 20 21  2  0
 22 23  1  0
 23 24  2  0
 25 26  1  0
 25 23  1  0
 27 26  1  0
 28 27  1  0
 29 28  1  6
 30 29  1  0
 30 20  1  0
 31 33  1  0
 31 29  1  0
 32 31  2  0
M  END
$$$$
