VWR.pdb
     RDKit          3D

 33 34  0  0  1  0  0  0  0  0999 V2000
    7.0659  -18.6111   19.6335 C   0  0  0  0  0  0  0  0  0  0  0  0
    8.0067  -18.1238   18.5426 C   0  0  1  0  0  0  0  0  0  0  0  0
    7.5035  -18.5238   17.1737 C   0  0  0  0  0  0  0  0  0  0  0  0
    8.2959  -16.6551   18.6689 C   0  0  2  0  0  0  0  0  0  0  0  0
    9.1933  -16.3032   17.5758 N   0  0  0  0  0  0  0  0  0  0  0  0
    8.8287  -16.2263   19.9553 C   0  0  0  0  0  0  0  0  0  0  0  0
    9.9895  -16.5368   20.3142 O   0  0  0  0  0  0  0  0  0  0  0  0
    8.0496  -15.4425   20.8459 N   0  0  0  0  0  0  0  0  0  0  0  0
    8.5013  -15.0422   22.1725 C   0  0  1  0  0  0  0  0  0  0  0  0
    7.5554  -13.9671   22.6323 C   0  0  0  0  0  0  0  0  0  0  0  0
    7.2026  -13.9767   24.0431 C   0  0  0  0  0  0  0  0  0  0  0  0
    6.8037  -15.1191   24.7393 C   0  0  0  0  0  0  0  0  0  0  0  0
    6.5557  -14.8130   26.0309 N   0  0  0  0  0  0  0  0  0  0  0  0
    6.7801  -13.5068   26.1998 C   0  0  0  0  0  0  0  0  0  0  0  0
    6.6661  -12.7200   27.3167 C   0  0  0  0  0  0  0  0  0  0  0  0
    6.9460  -11.3835   27.2509 C   0  0  0  0  0  0  0  0  0  0  0  0
    7.3469  -10.8236   26.0492 C   0  0  0  0  0  0  0  0  0  0  0  0
    7.4558  -11.6253   24.9428 C   0  0  0  0  0  0  0  0  0  0  0  0
    7.1810  -12.9789   24.9749 C   0  0  0  0  0  0  0  0  0  0  0  0
    8.7404  -16.1487   23.0758 C   0  0  0  0  0  0  0  0  0  0  0  0
    8.1766  -17.2684   22.8580 O   0  0  0  0  0  0  0  0  0  0  0  0
   16.4514  -20.5960   21.8692 N   0  0  0  0  0  0  0  0  0  0  0  0
   15.4525  -19.5552   21.6670 C   0  0  0  0  0  0  0  0  0  0  0  0
   15.4564  -18.9067   20.6311 N   0  0  0  0  0  0  0  0  0  0  0  0
   14.4880  -19.3284   22.6931 N   0  0  0  0  0  0  0  0  0  0  0  0
   13.4244  -18.4072   22.4678 C   0  0  0  0  0  0  0  0  0  0  0  0
   12.5251  -18.3660   23.6774 C   0  0  0  0  0  0  0  0  0  0  0  0
   11.5011  -17.2697   23.4251 C   0  0  0  0  0  0  0  0  0  0  0  0
   10.4623  -17.2140   24.5672 C   0  0  2  0  0  0  0  0  0  0  0  0
    9.5916  -16.0882   24.2279 N   0  0  0  0  0  0  0  0  0  0  0  0
   11.1672  -17.0321   25.8457 C   0  0  0  0  0  0  0  0  0  0  0  0
   11.2166  -15.9162   26.4157 O   0  0  0  0  0  0  0  0  0  0  0  0
   11.7937  -18.1059   26.4475 O   0  0  0  0  0  0  0  0  0  0  0  0
  2  1  1  1
  2  3  1  0
  2  4  1  0
  4  5  1  6
  4  6  1  0
  6  8  1  0
  6  7  2  0
  8  9  1  0
  9 20  1  0
  9 10  1  1
 10 11  1  0
 11 19  1  0
 11 12  2  0
 12 13  1  0
 14 15  2  0
 14 13  1  0
 16 15  1  0
 17 16  2  0
 18 17  1  0
 18 19  2  0
 19 14  1  0
 20 21  2  0
 22 23  1  0
 23 24  2  0
 25 26  1  0
 25 23  1  0
 27 26  1  0
 28 27  1  0
 29 28  1  6
 30 29  1  0
 30 20  1  0
 31 33  1  0
 31 29  1  0
 32 31  2  0
M  END
$$$$
