VWR.pdb
     RDKit          3D

 33 34  0  0  1  0  0  0  0  0999 V2000
    7.6336  -17.7699   19.9919 C   0  0  0  0  0  0  0  0  0  0  0  0
    7.1919  -16.4824   19.3136 C   0  0  1  0  0  0  0  0  0  0  0  0
    5.9994  -16.7240   18.4153 C   0  0  0  0  0  0  0  0  0  0  0  0
    6.9807  -15.3729   20.3041 C   0  0  2  0  0  0  0  0  0  0  0  0
    6.5486  -14.2046   19.5476 N   0  0  0  0  0  0  0  0  0  0  0  0
    8.1209  -15.0643   21.1569 C   0  0  0  0  0  0  0  0  0  0  0  0
    8.8178  -14.0395   20.9648 O   0  0  0  0  0  0  0  0  0  0  0  0
    8.4810  -15.9153   22.2342 N   0  0  0  0  0  0  0  0  0  0  0  0
    9.5355  -15.6022   23.1903 C   0  0  1  0  0  0  0  0  0  0  0  0
    9.2398  -14.2203   23.7050 C   0  0  0  0  0  0  0  0  0  0  0  0
    8.0663  -14.0838   24.5531 C   0  0  0  0  0  0  0  0  0  0  0  0
    7.1221  -15.0937   24.7462 C   0  0  0  0  0  0  0  0  0  0  0  0
    6.1584  -14.6729   25.5932 N   0  0  0  0  0  0  0  0  0  0  0  0
    6.4436  -13.4200   25.9591 C   0  0  0  0  0  0  0  0  0  0  0  0
    5.7757  -12.5611   26.7933 C   0  0  0  0  0  0  0  0  0  0  0  0
    6.2588  -11.3021   27.0181 C   0  0  0  0  0  0  0  0  0  0  0  0
    7.4290  -10.8943   26.3994 C   0  0  0  0  0  0  0  0  0  0  0  0
    8.0837  -11.7663   25.5689 C   0  0  0  0  0  0  0  0  0  0  0  0
    7.6231  -13.0450   25.3205 C   0  0  0  0  0  0  0  0  0  0  0  0
    9.7730  -16.6406   24.1715 C   0  0  0  0  0  0  0  0  0  0  0  0
    8.7885  -17.2953   24.6417 O   0  0  0  0  0  0  0  0  0  0  0  0
   16.4156  -20.4902   24.5620 N   0  0  0  0  0  0  0  0  0  0  0  0
   15.9828  -20.4044   23.1737 C   0  0  0  0  0  0  0  0  0  0  0  0
   16.5397  -21.0838   22.3239 N   0  0  0  0  0  0  0  0  0  0  0  0
   14.9076  -19.5253   22.8486 N   0  0  0  0  0  0  0  0  0  0  0  0
   14.3758  -18.6635   23.8512 C   0  0  0  0  0  0  0  0  0  0  0  0
   13.2181  -19.3412   24.5397 C   0  0  0  0  0  0  0  0  0  0  0  0
   12.7465  -18.3976   25.6356 C   0  0  0  0  0  0  0  0  0  0  0  0
   11.2213  -18.1692   25.5462 C   0  0  2  0  0  0  0  0  0  0  0  0
   11.0664  -17.0092   24.6681 N   0  0  0  0  0  0  0  0  0  0  0  0
   10.6921  -17.9416   26.9000 C   0  0  0  0  0  0  0  0  0  0  0  0
   10.3508  -16.7993   27.2886 O   0  0  0  0  0  0  0  0  0  0  0  0
   10.5597  -19.0008   27.7765 O   0  0  0  0  0  0  0  0  0  0  0  0
  2  1  1  1
  2  3  1  0
  2  4  1  0
  4  5  1  6
  4  6  1  0
  6  8  1  0
  6  7  2  0
  8  9  1  0
  9 20  1  0
  9 10  1  1
 10 11  1  0
 11 19  1  0
 11 12  2  0
 12 13  1  0
 14 15  2  0
 14 13  1  0
 16 15  1  0
 17 16  2  0
 18 17  1  0
 18 19  2  0
 19 14  1  0
 20 21  2  0
 22 23  1  0
 23 24  2  0
 25 26  1  0
 25 23  1  0
 27 26  1  0
 28 27  1  0
 29 28  1  1
 30 29  1  0
 30 20  1  0
 31 33  1  0
 31 29  1  0
 32 31  2  0
M  END
$$$$
