VWR.pdb
     RDKit          3D

 33 34  0  0  1  0  0  0  0  0999 V2000
    7.2463  -13.1054   18.7035 C   0  0  0  0  0  0  0  0  0  0  0  0
    7.9366  -13.3389   20.0383 C   0  0  1  0  0  0  0  0  0  0  0  0
    7.1369  -12.7413   21.1744 C   0  0  0  0  0  0  0  0  0  0  0  0
    8.2800  -14.7867   20.2443 C   0  0  2  0  0  0  0  0  0  0  0  0
    7.0507  -15.5461   20.0548 N   0  0  0  0  0  0  0  0  0  0  0  0
    8.9154  -15.1088   21.5152 C   0  0  0  0  0  0  0  0  0  0  0  0
   10.0694  -14.7002   21.7870 O   0  0  0  0  0  0  0  0  0  0  0  0
    8.2479  -15.8977   22.4882 N   0  0  0  0  0  0  0  0  0  0  0  0
    8.8483  -16.2899   23.7570 C   0  0  1  0  0  0  0  0  0  0  0  0
    7.7134  -16.4296   24.7340 C   0  0  0  0  0  0  0  0  0  0  0  0
    7.0328  -15.2018   25.1138 C   0  0  0  0  0  0  0  0  0  0  0  0
    5.7149  -14.9011   24.7655 C   0  0  0  0  0  0  0  0  0  0  0  0
    5.3630  -13.6999   25.2720 N   0  0  0  0  0  0  0  0  0  0  0  0
    6.4098  -13.2069   25.9401 C   0  0  0  0  0  0  0  0  0  0  0  0
    6.5564  -12.0265   26.6219 C   0  0  0  0  0  0  0  0  0  0  0  0
    7.7416  -11.7251   27.2330 C   0  0  0  0  0  0  0  0  0  0  0  0
    8.7980  -12.6180   27.1622 C   0  0  0  0  0  0  0  0  0  0  0  0
    8.6335  -13.7935   26.4767 C   0  0  0  0  0  0  0  0  0  0  0  0
    7.4495  -14.1289   25.8484 C   0  0  0  0  0  0  0  0  0  0  0  0
    9.7784  -17.3954   23.6555 C   0  0  0  0  0  0  0  0  0  0  0  0
    9.6763  -18.2132   22.6861 O   0  0  0  0  0  0  0  0  0  0  0  0
   16.5071  -19.8557   22.3997 N   0  0  0  0  0  0  0  0  0  0  0  0
   16.1034  -19.8409   21.0002 C   0  0  0  0  0  0  0  0  0  0  0  0
   16.6163  -20.6245   20.2149 N   0  0  0  0  0  0  0  0  0  0  0  0
   15.1074  -18.9065   20.5885 N   0  0  0  0  0  0  0  0  0  0  0  0
   14.5414  -18.0146   21.5448 C   0  0  0  0  0  0  0  0  0  0  0  0
   13.8183  -18.8033   22.6073 C   0  0  0  0  0  0  0  0  0  0  0  0
   12.5930  -17.9913   22.9983 C   0  0  0  0  0  0  0  0  0  0  0  0
   11.9092  -18.5935   24.2458 C   0  0  2  0  0  0  0  0  0  0  0  0
   10.8429  -17.6497   24.5817 N   0  0  0  0  0  0  0  0  0  0  0  0
   12.9088  -18.7378   25.3157 C   0  0  0  0  0  0  0  0  0  0  0  0
   13.3705  -19.8587   25.6365 O   0  0  0  0  0  0  0  0  0  0  0  0
   13.3619  -17.6222   25.9922 O   0  0  0  0  0  0  0  0  0  0  0  0
  2  1  1  6
  2  3  1  0
  2  4  1  0
  4  5  1  1
  4  6  1  0
  6  8  1  0
  6  7  2  0
  8  9  1  0
  9 20  1  0
  9 10  1  1
 10 11  1  0
 11 19  1  0
 11 12  2  0
 12 13  1  0
 14 15  2  0
 14 13  1  0
 16 15  1  0
 17 16  2  0
 18 17  1  0
 18 19  2  0
 19 14  1  0
 20 21  2  0
 22 23  1  0
 23 24  2  0
 25 26  1  0
 25 23  1  0
 27 26  1  0
 28 27  1  0
 29 28  1  6
 30 29  1  0
 30 20  1  0
 31 33  1  0
 31 29  1  0
 32 31  2  0
M  END
$$$$
