VWR.pdb
     RDKit          3D

 33 34  0  0  1  0  0  0  0  0999 V2000
    7.3307  -19.2243   17.2899 C   0  0  0  0  0  0  0  0  0  0  0  0
    7.9481  -18.6417   18.5517 C   0  0  1  0  0  0  0  0  0  0  0  0
    9.2728  -19.3020   18.8622 C   0  0  0  0  0  0  0  0  0  0  0  0
    8.0247  -17.1425   18.4957 C   0  0  2  0  0  0  0  0  0  0  0  0
    8.8811  -16.8027   17.3665 N   0  0  0  0  0  0  0  0  0  0  0  0
    8.4703  -16.4883   19.7188 C   0  0  0  0  0  0  0  0  0  0  0  0
    9.6759  -16.1919   19.8953 O   0  0  0  0  0  0  0  0  0  0  0  0
    7.5528  -16.1654   20.7525 N   0  0  0  0  0  0  0  0  0  0  0  0
    7.9544  -15.6363   22.0497 C   0  0  1  0  0  0  0  0  0  0  0  0
    6.6908  -15.1855   22.7296 C   0  0  0  0  0  0  0  0  0  0  0  0
    6.8148  -14.7793   24.1205 C   0  0  0  0  0  0  0  0  0  0  0  0
    6.7806  -15.6663   25.1978 C   0  0  0  0  0  0  0  0  0  0  0  0
    6.9325  -14.9934   26.3586 N   0  0  0  0  0  0  0  0  0  0  0  0
    7.0647  -13.6950   26.0730 C   0  0  0  0  0  0  0  0  0  0  0  0
    7.2374  -12.6139   26.8983 C   0  0  0  0  0  0  0  0  0  0  0  0
    7.3430  -11.3556   26.3744 C   0  0  0  0  0  0  0  0  0  0  0  0
    7.2755  -11.1742   25.0029 C   0  0  0  0  0  0  0  0  0  0  0  0
    7.1031  -12.2664   24.1930 C   0  0  0  0  0  0  0  0  0  0  0  0
    6.9931  -13.5510   24.6896 C   0  0  0  0  0  0  0  0  0  0  0  0
    8.8374  -16.5075   22.7972 C   0  0  0  0  0  0  0  0  0  0  0  0
    8.6252  -17.7621   22.7997 O   0  0  0  0  0  0  0  0  0  0  0  0
   15.5110  -19.1836   20.3318 N   0  0  0  0  0  0  0  0  0  0  0  0
   16.1439  -18.9675   21.6259 C   0  0  0  0  0  0  0  0  0  0  0  0
   17.3426  -19.1684   21.7536 N   0  0  0  0  0  0  0  0  0  0  0  0
   15.3364  -18.5176   22.7123 N   0  0  0  0  0  0  0  0  0  0  0  0
   14.2847  -17.5872   22.4691 C   0  0  0  0  0  0  0  0  0  0  0  0
   13.4765  -17.3959   23.7275 C   0  0  0  0  0  0  0  0  0  0  0  0
   12.3092  -16.4903   23.3654 C   0  0  0  0  0  0  0  0  0  0  0  0
   10.9947  -17.0122   23.9869 C   0  0  2  0  0  0  0  0  0  0  0  0
    9.9710  -16.0613   23.5531 N   0  0  0  0  0  0  0  0  0  0  0  0
   11.1467  -17.0678   25.4492 C   0  0  0  0  0  0  0  0  0  0  0  0
   10.5538  -16.2596   26.2026 O   0  0  0  0  0  0  0  0  0  0  0  0
   11.9568  -18.0281   26.0231 O   0  0  0  0  0  0  0  0  0  0  0  0
  2  1  1  6
  2  3  1  0
  2  4  1  0
  4  5  1  6
  4  6  1  0
  6  8  1  0
  6  7  2  0
  8  9  1  0
  9 20  1  0
  9 10  1  1
 10 11  1  0
 11 19  1  0
 11 12  2  0
 12 13  1  0
 14 15  2  0
 14 13  1  0
 16 15  1  0
 17 16  2  0
 18 17  1  0
 18 19  2  0
 19 14  1  0
 20 21  2  0
 22 23  1  0
 23 24  2  0
 25 26  1  0
 25 23  1  0
 27 26  1  0
 28 27  1  0
 29 28  1  6
 30 29  1  0
 30 20  1  0
 31 33  1  0
 31 29  1  0
 32 31  2  0
M  END
$$$$
