VWR.pdb
     RDKit          3D

 33 34  0  0  1  0  0  0  0  0999 V2000
    8.4152  -16.7418   18.4935 C   0  0  0  0  0  0  0  0  0  0  0  0
    8.7130  -15.3636   17.9236 C   0  0  1  0  0  0  0  0  0  0  0  0
    8.2914  -15.2735   16.4740 C   0  0  0  0  0  0  0  0  0  0  0  0
    8.1452  -14.2693   18.7818 C   0  0  2  0  0  0  0  0  0  0  0  0
    8.5305  -13.0048   18.1680 N   0  0  0  0  0  0  0  0  0  0  0  0
    8.5186  -14.3145   20.1893 C   0  0  0  0  0  0  0  0  0  0  0  0
    9.6691  -13.9887   20.5673 O   0  0  0  0  0  0  0  0  0  0  0  0
    7.5911  -14.7303   21.1799 N   0  0  0  0  0  0  0  0  0  0  0  0
    7.9264  -14.8640   22.5919 C   0  0  1  0  0  0  0  0  0  0  0  0
    6.6474  -14.6407   23.3509 C   0  0  0  0  0  0  0  0  0  0  0  0
    6.7583  -14.5763   24.7996 C   0  0  0  0  0  0  0  0  0  0  0  0
    6.6400  -15.6841   25.6406 C   0  0  0  0  0  0  0  0  0  0  0  0
    6.8016  -15.3095   26.9278 N   0  0  0  0  0  0  0  0  0  0  0  0
    7.0216  -13.9919   26.9536 C   0  0  0  0  0  0  0  0  0  0  0  0
    7.2383  -13.1449   28.0096 C   0  0  0  0  0  0  0  0  0  0  0  0
    7.4358  -11.8095   27.7939 C   0  0  0  0  0  0  0  0  0  0  0  0
    7.4171  -11.3118   26.5016 C   0  0  0  0  0  0  0  0  0  0  0  0
    7.1995  -12.1732   25.4578 C   0  0  0  0  0  0  0  0  0  0  0  0
    6.9967  -13.5275   25.6408 C   0  0  0  0  0  0  0  0  0  0  0  0
    8.6894  -16.0533   22.9095 C   0  0  0  0  0  0  0  0  0  0  0  0
    8.6477  -17.0530   22.1235 O   0  0  0  0  0  0  0  0  0  0  0  0
   10.1067  -17.0065   19.0311 N   0  0  0  0  0  0  0  0  0  0  0  0
   10.8833  -18.2382   18.9878 C   0  0  0  0  0  0  0  0  0  0  0  0
   10.4475  -19.2065   18.3827 N   0  0  0  0  0  0  0  0  0  0  0  0
   12.1435  -18.2725   19.6551 N   0  0  0  0  0  0  0  0  0  0  0  0
   12.3280  -17.5173   20.8494 C   0  0  0  0  0  0  0  0  0  0  0  0
   11.2560  -17.8770   21.8469 C   0  0  0  0  0  0  0  0  0  0  0  0
   11.5241  -17.0506   23.0956 C   0  0  0  0  0  0  0  0  0  0  0  0
   10.4533  -17.3224   24.1754 C   0  0  2  0  0  0  0  0  0  0  0  0
    9.5198  -16.2008   24.0689 N   0  0  0  0  0  0  0  0  0  0  0  0
   11.1097  -17.4027   25.4896 C   0  0  0  0  0  0  0  0  0  0  0  0
   11.9958  -18.2567   25.7303 O   0  0  0  0  0  0  0  0  0  0  0  0
   10.7546  -16.5231   26.4935 O   0  0  0  0  0  0  0  0  0  0  0  0
  2  1  1  1
  2  3  1  0
  2  4  1  0
  4  5  1  6
  4  6  1  0
  6  8  1  0
  6  7  2  0
  8  9  1  0
  9 20  1  0
  9 10  1  1
 10 11  1  0
 11 19  1  0
 11 12  2  0
 12 13  1  0
 14 15  2  0
 14 13  1  0
 16 15  1  0
 17 16  2  0
 18 17  1  0
 18 19  2  0
 19 14  1  0
 20 21  2  0
 22 23  1  0
 23 24  2  0
 25 26  1  0
 25 23  1  0
 27 26  1  0
 28 27  1  0
 29 28  1  6
 30 29  1  0
 30 20  1  0
 31 33  1  0
 31 29  1  0
 32 31  2  0
M  END
$$$$
