VWR.pdb
     RDKit          3D

 33 34  0  0  1  0  0  0  0  0999 V2000
    7.1076  -19.1671   17.9365 C   0  0  0  0  0  0  0  0  0  0  0  0
    7.7556  -18.6365   19.2059 C   0  0  1  0  0  0  0  0  0  0  0  0
    8.7242  -19.6447   19.7826 C   0  0  0  0  0  0  0  0  0  0  0  0
    8.3590  -17.2766   18.9990 C   0  0  2  0  0  0  0  0  0  0  0  0
    9.3984  -17.4222   17.9879 N   0  0  0  0  0  0  0  0  0  0  0  0
    8.8691  -16.6247   20.1980 C   0  0  0  0  0  0  0  0  0  0  0  0
   10.0790  -16.7062   20.5175 O   0  0  0  0  0  0  0  0  0  0  0  0
    8.0114  -15.8756   21.0453 N   0  0  0  0  0  0  0  0  0  0  0  0
    8.4169  -15.3547   22.3446 C   0  0  1  0  0  0  0  0  0  0  0  0
    7.3476  -14.3821   22.7602 C   0  0  0  0  0  0  0  0  0  0  0  0
    7.1132  -14.2511   24.1895 C   0  0  0  0  0  0  0  0  0  0  0  0
    6.9586  -15.3341   25.0567 C   0  0  0  0  0  0  0  0  0  0  0  0
    6.7673  -14.8947   26.3191 N   0  0  0  0  0  0  0  0  0  0  0  0
    6.7920  -13.5589   26.3033 C   0  0  0  0  0  0  0  0  0  0  0  0
    6.6418  -12.6526   27.3210 C   0  0  0  0  0  0  0  0  0  0  0  0
    6.6978  -11.3110   27.0641 C   0  0  0  0  0  0  0  0  0  0  0  0
    6.9078  -10.8673   25.7690 C   0  0  0  0  0  0  0  0  0  0  0  0
    7.0563  -11.7875   24.7641 C   0  0  0  0  0  0  0  0  0  0  0  0
    7.0054  -13.1497   24.9893 C   0  0  0  0  0  0  0  0  0  0  0  0
    8.7956  -16.3752   23.3000 C   0  0  0  0  0  0  0  0  0  0  0  0
    7.9762  -17.3080   23.5782 O   0  0  0  0  0  0  0  0  0  0  0  0
   14.0279  -18.9247   20.1285 N   0  0  0  0  0  0  0  0  0  0  0  0
   14.8619  -18.2285   21.0988 C   0  0  0  0  0  0  0  0  0  0  0  0
   15.8953  -17.6895   20.7312 N   0  0  0  0  0  0  0  0  0  0  0  0
   14.4376  -18.1928   22.4602 N   0  0  0  0  0  0  0  0  0  0  0  0
   13.1885  -18.7745   22.8233 C   0  0  0  0  0  0  0  0  0  0  0  0
   12.2978  -17.7220   23.4336 C   0  0  0  0  0  0  0  0  0  0  0  0
   11.2755  -18.4550   24.2888 C   0  0  0  0  0  0  0  0  0  0  0  0
   10.3209  -17.4572   24.9813 C   0  0  2  0  0  0  0  0  0  0  0  0
   10.0594  -16.4279   23.9749 N   0  0  0  0  0  0  0  0  0  0  0  0
   10.9753  -16.9293   26.1886 C   0  0  0  0  0  0  0  0  0  0  0  0
   11.2792  -17.6744   27.1503 O   0  0  0  0  0  0  0  0  0  0  0  0
   11.2708  -15.5833   26.2811 O   0  0  0  0  0  0  0  0  0  0  0  0
  2  1  1  6
  2  3  1  0
  2  4  1  0
  4  5  1  6
  4  6  1  0
  6  8  1  0
  6  7  2  0
  8  9  1  0
  9 20  1  0
  9 10  1  1
 10 11  1  0
 11 19  1  0
 11 12  2  0
 12 13  1  0
 14 15  2  0
 14 13  1  0
 16 15  1  0
 17 16  2  0
 18 17  1  0
 18 19  2  0
 19 14  1  0
 20 21  2  0
 22 23  1  0
 23 24  2  0
 25 26  1  0
 25 23  1  0
 27 26  1  0
 28 27  1  0
 29 28  1  6
 30 29  1  0
 30 20  1  0
 31 33  1  0
 31 29  1  0
 32 31  2  0
M  END
$$$$
