VYA.pdb
     RDKit          3D

 25 25  0  0  1  0  0  0  0  0999 V2000
    6.3170  -18.4888   16.2463 C   0  0  0  0  0  0  0  0  0  0  0  0
    7.6041  -18.3235   17.0403 C   0  0  2  0  0  0  0  0  0  0  0  0
    7.2782  -17.9437   18.4728 C   0  0  0  0  0  0  0  0  0  0  0  0
    8.3420  -17.1533   16.4323 C   0  0  2  0  0  0  0  0  0  0  0  0
    8.6146  -17.4685   15.0592 N   0  0  0  0  0  0  0  0  0  0  0  0
    9.6191  -16.9854   17.1917 C   0  0  0  0  0  0  0  0  0  0  0  0
   10.5498  -17.8179   17.1391 O   0  0  0  0  0  0  0  0  0  0  0  0
   16.9306  -14.3197   20.6658 O   0  0  0  0  0  0  0  0  0  0  0  0
   15.6159  -14.3424   20.2469 C   0  0  0  0  0  0  0  0  0  0  0  0
   15.3516  -14.3902   18.8907 C   0  0  0  0  0  0  0  0  0  0  0  0
   14.0306  -14.4125   18.4869 C   0  0  0  0  0  0  0  0  0  0  0  0
   13.0034  -14.3881   19.3896 C   0  0  0  0  0  0  0  0  0  0  0  0
   11.5873  -14.3965   19.0152 C   0  0  0  0  0  0  0  0  0  0  0  0
   11.0596  -15.7361   18.8054 C   0  0  2  0  0  0  0  0  0  0  0  0
    9.8737  -15.8790   18.0241 N   0  0  0  0  0  0  0  0  0  0  0  0
   10.8344  -16.4296   20.0903 C   0  0  0  0  0  0  0  0  0  0  0  0
    9.9100  -16.1212   20.9135 O   0  0  0  0  0  0  0  0  0  0  0  0
   13.3119  -14.3407   20.7316 C   0  0  0  0  0  0  0  0  0  0  0  0
   14.6191  -14.3173   21.1793 C   0  0  0  0  0  0  0  0  0  0  0  0
   11.3268  -19.6418   21.4343 C   0  0  0  0  0  0  0  0  0  0  0  0
   11.4832  -18.1620   21.7145 C   0  0  2  0  0  0  0  0  0  0  0  0
   11.6995  -17.5125   20.4404 N   0  0  0  0  0  0  0  0  0  0  0  0
   12.6384  -17.9060   22.6031 C   0  0  0  0  0  0  0  0  0  0  0  0
   13.7748  -17.2548   22.1681 O   0  0  0  0  0  0  0  0  0  0  0  0
   12.6005  -18.2872   23.7956 O   0  0  0  0  0  0  0  0  0  0  0  0
  2  1  1  6
  2  4  1  0
  3  2  1  0
  4  6  1  0
  4  5  1  6
  6  7  2  0
  8  9  1  0
  9 10  2  0
  9 19  1  0
 10 11  1  0
 11 12  2  0
 12 13  1  0
 14 13  1  1
 14 16  1  0
 15 14  1  0
 15  6  1  0
 16 17  2  0
 18 12  1  0
 19 18  2  0
 21 20  1  6
 21 23  1  0
 22 21  1  0
 22 16  1  0
 23 25  2  0
 23 24  1  0
M  END
$$$$
