VYA.pdb
     RDKit          3D

 25 25  0  0  1  0  0  0  0  0999 V2000
    7.5006  -12.6980   21.2338 C   0  0  0  0  0  0  0  0  0  0  0  0
    8.4928  -13.3568   20.2873 C   0  0  2  0  0  0  0  0  0  0  0  0
    7.9757  -13.2748   18.8632 C   0  0  0  0  0  0  0  0  0  0  0  0
    8.5368  -14.8218   20.6553 C   0  0  2  0  0  0  0  0  0  0  0  0
    7.2168  -15.3590   20.4870 N   0  0  0  0  0  0  0  0  0  0  0  0
    8.9571  -14.9116   22.0875 C   0  0  0  0  0  0  0  0  0  0  0  0
    9.7467  -14.0966   22.6112 O   0  0  0  0  0  0  0  0  0  0  0  0
    6.3846  -10.6122   26.4987 O   0  0  0  0  0  0  0  0  0  0  0  0
    6.7499  -11.9134   26.2200 C   0  0  0  0  0  0  0  0  0  0  0  0
    8.0197  -12.3358   26.5675 C   0  0  0  0  0  0  0  0  0  0  0  0
    8.3706  -13.6412   26.2820 C   0  0  0  0  0  0  0  0  0  0  0  0
    7.4994  -14.5023   25.6736 C   0  0  0  0  0  0  0  0  0  0  0  0
    7.8249  -15.8902   25.3368 C   0  0  0  0  0  0  0  0  0  0  0  0
    8.8711  -16.0041   24.3321 C   0  0  2  0  0  0  0  0  0  0  0  0
    8.4979  -15.9188   22.9572 N   0  0  0  0  0  0  0  0  0  0  0  0
    9.6482  -17.2484   24.5078 C   0  0  0  0  0  0  0  0  0  0  0  0
    9.2653  -18.3918   24.0917 O   0  0  0  0  0  0  0  0  0  0  0  0
    6.2439  -14.0398   25.3446 C   0  0  0  0  0  0  0  0  0  0  0  0
    5.8513  -12.7420   25.6121 C   0  0  0  0  0  0  0  0  0  0  0  0
   13.0985  -18.0988   25.1414 C   0  0  0  0  0  0  0  0  0  0  0  0
   11.6359  -18.4090   25.3809 C   0  0  2  0  0  0  0  0  0  0  0  0
   10.9060  -17.1761   25.1834 N   0  0  0  0  0  0  0  0  0  0  0  0
   11.4131  -18.9010   26.7586 C   0  0  0  0  0  0  0  0  0  0  0  0
   11.9136  -20.1085   27.2014 O   0  0  0  0  0  0  0  0  0  0  0  0
   10.7489  -18.2099   27.5646 O   0  0  0  0  0  0  0  0  0  0  0  0
  2  1  1  1
  2  4  1  0
  3  2  1  0
  4  6  1  0
  4  5  1  1
  6  7  2  0
  8  9  1  0
  9 10  2  0
  9 19  1  0
 10 11  1  0
 11 12  2  0
 12 13  1  0
 14 13  1  1
 14 16  1  0
 15 14  1  0
 15  6  1  0
 16 17  2  0
 18 12  1  0
 19 18  2  0
 21 20  1  1
 21 23  1  0
 22 21  1  0
 22 16  1  0
 23 25  2  0
 23 24  1  0
M  END
$$$$
