VYA.pdb
     RDKit          3D

 25 25  0  0  1  0  0  0  0  0999 V2000
    9.3328  -19.4467   18.2207 C   0  0  0  0  0  0  0  0  0  0  0  0
    9.4621  -18.6426   19.5057 C   0  0  2  0  0  0  0  0  0  0  0  0
    8.6862  -19.3237   20.6176 C   0  0  0  0  0  0  0  0  0  0  0  0
    8.7926  -17.3115   19.2540 C   0  0  2  0  0  0  0  0  0  0  0  0
    9.4705  -16.6762   18.1604 N   0  0  0  0  0  0  0  0  0  0  0  0
    8.9346  -16.4960   20.4993 C   0  0  0  0  0  0  0  0  0  0  0  0
   10.0435  -16.1233   20.9390 O   0  0  0  0  0  0  0  0  0  0  0  0
    7.4299  -12.1551   27.9217 O   0  0  0  0  0  0  0  0  0  0  0  0
    7.2851  -12.7325   26.6767 C   0  0  0  0  0  0  0  0  0  0  0  0
    7.8561  -12.1069   25.5839 C   0  0  0  0  0  0  0  0  0  0  0  0
    7.7025  -12.6970   24.3442 C   0  0  0  0  0  0  0  0  0  0  0  0
    7.0088  -13.8651   24.1860 C   0  0  0  0  0  0  0  0  0  0  0  0
    6.8051  -14.5249   22.8942 C   0  0  0  0  0  0  0  0  0  0  0  0
    7.9526  -15.3106   22.4666 C   0  0  2  0  0  0  0  0  0  0  0  0
    7.8330  -16.0844   21.2732 N   0  0  0  0  0  0  0  0  0  0  0  0
    8.4123  -16.2145   23.5410 C   0  0  0  0  0  0  0  0  0  0  0  0
    7.7930  -17.2718   23.8958 O   0  0  0  0  0  0  0  0  0  0  0  0
    6.4563  -14.4549   25.3019 C   0  0  0  0  0  0  0  0  0  0  0  0
    6.5857  -13.8990   26.5605 C   0  0  0  0  0  0  0  0  0  0  0  0
   11.4913  -17.2988   24.6696 C   0  0  0  0  0  0  0  0  0  0  0  0
   10.1348  -16.8579   25.1779 C   0  0  2  0  0  0  0  0  0  0  0  0
    9.6230  -15.8929   24.2299 N   0  0  0  0  0  0  0  0  0  0  0  0
   10.2433  -16.2303   26.5136 C   0  0  0  0  0  0  0  0  0  0  0  0
   10.6103  -16.9433   27.6368 O   0  0  0  0  0  0  0  0  0  0  0  0
    9.9968  -15.0097   26.6476 O   0  0  0  0  0  0  0  0  0  0  0  0
  2  1  1  6
  2  4  1  0
  3  2  1  0
  4  6  1  0
  4  5  1  6
  6  7  2  0
  8  9  1  0
  9 10  2  0
  9 19  1  0
 10 11  1  0
 11 12  2  0
 12 13  1  0
 14 13  1  1
 14 16  1  0
 15 14  1  0
 15  6  1  0
 16 17  2  0
 18 12  1  0
 19 18  2  0
 21 20  1  6
 21 23  1  0
 22 21  1  0
 22 16  1  0
 23 25  2  0
 23 24  1  0
M  END
$$$$
