VYA.pdb
     RDKit          3D

 25 25  0  0  1  0  0  0  0  0999 V2000
    8.4193  -15.6519   19.5619 C   0  0  0  0  0  0  0  0  0  0  0  0
    7.1613  -14.8576   19.8793 C   0  0  2  0  0  0  0  0  0  0  0  0
    6.4621  -14.4669   18.5906 C   0  0  0  0  0  0  0  0  0  0  0  0
    7.6125  -13.5759   20.5406 C   0  0  2  0  0  0  0  0  0  0  0  0
    8.5003  -12.9018   19.6370 N   0  0  0  0  0  0  0  0  0  0  0  0
    8.3324  -13.9492   21.7968 C   0  0  0  0  0  0  0  0  0  0  0  0
    9.5745  -14.0774   21.8499 O   0  0  0  0  0  0  0  0  0  0  0  0
   10.8466  -14.9280   30.0155 O   0  0  0  0  0  0  0  0  0  0  0  0
   10.0555  -14.7400   28.9005 C   0  0  0  0  0  0  0  0  0  0  0  0
    9.3934  -15.8290   28.3645 C   0  0  0  0  0  0  0  0  0  0  0  0
    8.6053  -15.6249   27.2483 C   0  0  0  0  0  0  0  0  0  0  0  0
    8.4739  -14.3885   26.6784 C   0  0  0  0  0  0  0  0  0  0  0  0
    7.6629  -14.1201   25.4885 C   0  0  0  0  0  0  0  0  0  0  0  0
    8.3481  -14.4413   24.2458 C   0  0  2  0  0  0  0  0  0  0  0  0
    7.6699  -14.1853   23.0163 N   0  0  0  0  0  0  0  0  0  0  0  0
    8.7899  -15.8509   24.2274 C   0  0  0  0  0  0  0  0  0  0  0  0
    7.9933  -16.8464   24.1852 O   0  0  0  0  0  0  0  0  0  0  0  0
    9.1512  -13.3309   27.2452 C   0  0  0  0  0  0  0  0  0  0  0  0
    9.9499  -13.4903   28.3616 C   0  0  0  0  0  0  0  0  0  0  0  0
   11.6288  -17.5579   23.0150 C   0  0  0  0  0  0  0  0  0  0  0  0
   10.6115  -17.5043   24.1353 C   0  0  2  0  0  0  0  0  0  0  0  0
   10.1925  -16.1255   24.2582 N   0  0  0  0  0  0  0  0  0  0  0  0
   11.2012  -17.9586   25.4141 C   0  0  0  0  0  0  0  0  0  0  0  0
   11.2776  -17.1414   26.5236 O   0  0  0  0  0  0  0  0  0  0  0  0
   11.6517  -19.1232   25.5107 O   0  0  0  0  0  0  0  0  0  0  0  0
  2  1  1  6
  2  4  1  0
  3  2  1  0
  4  6  1  0
  4  5  1  6
  6  7  2  0
  8  9  1  0
  9 10  2  0
  9 19  1  0
 10 11  1  0
 11 12  2  0
 12 13  1  0
 14 13  1  1
 14 16  1  0
 15 14  1  0
 15  6  1  0
 16 17  2  0
 18 12  1  0
 19 18  2  0
 21 20  1  6
 21 23  1  0
 22 21  1  0
 22 16  1  0
 23 25  2  0
 23 24  1  0
M  END
$$$$
