VYA.pdb
     RDKit          3D

 25 25  0  0  1  0  0  0  0  0999 V2000
    7.8709  -14.3937   17.4465 C   0  0  0  0  0  0  0  0  0  0  0  0
    8.4121  -14.8298   18.7998 C   0  0  2  0  0  0  0  0  0  0  0  0
    7.9106  -16.2237   19.1280 C   0  0  0  0  0  0  0  0  0  0  0  0
    7.8167  -13.8952   19.8271 C   0  0  2  0  0  0  0  0  0  0  0  0
    8.2015  -12.5566   19.4817 N   0  0  0  0  0  0  0  0  0  0  0  0
    8.3833  -14.2730   21.1583 C   0  0  0  0  0  0  0  0  0  0  0  0
    9.5898  -14.1200   21.4460 O   0  0  0  0  0  0  0  0  0  0  0  0
    6.4727  -10.4165   27.5027 O   0  0  0  0  0  0  0  0  0  0  0  0
    6.6479  -11.5842   26.7885 C   0  0  0  0  0  0  0  0  0  0  0  0
    7.9295  -11.9550   26.4256 C   0  0  0  0  0  0  0  0  0  0  0  0
    8.0887  -13.1266   25.7108 C   0  0  0  0  0  0  0  0  0  0  0  0
    7.0204  -13.9071   25.3644 C   0  0  0  0  0  0  0  0  0  0  0  0
    7.1321  -15.1497   24.5968 C   0  0  0  0  0  0  0  0  0  0  0  0
    8.0954  -15.0652   23.5098 C   0  0  2  0  0  0  0  0  0  0  0  0
    7.6044  -14.8296   22.1905 N   0  0  0  0  0  0  0  0  0  0  0  0
    8.9522  -16.2677   23.4596 C   0  0  0  0  0  0  0  0  0  0  0  0
    8.5987  -17.3723   22.9283 O   0  0  0  0  0  0  0  0  0  0  0  0
    5.7607  -13.5002   25.7467 C   0  0  0  0  0  0  0  0  0  0  0  0
    5.5561  -12.3359   26.4624 C   0  0  0  0  0  0  0  0  0  0  0  0
   12.4061  -17.0439   23.4646 C   0  0  0  0  0  0  0  0  0  0  0  0
   11.0554  -17.4048   24.0460 C   0  0  2  0  0  0  0  0  0  0  0  0
   10.2575  -16.1985   24.0384 N   0  0  0  0  0  0  0  0  0  0  0  0
   11.1871  -17.9028   25.4332 C   0  0  0  0  0  0  0  0  0  0  0  0
   11.9305  -19.0220   25.7486 O   0  0  0  0  0  0  0  0  0  0  0  0
   10.6100  -17.2992   26.3666 O   0  0  0  0  0  0  0  0  0  0  0  0
  2  1  1  6
  2  4  1  0
  3  2  1  0
  4  6  1  0
  4  5  1  6
  6  7  2  0
  8  9  1  0
  9 10  2  0
  9 19  1  0
 10 11  1  0
 11 12  2  0
 12 13  1  0
 14 13  1  1
 14 16  1  0
 15 14  1  0
 15  6  1  0
 16 17  2  0
 18 12  1  0
 19 18  2  0
 21 20  1  1
 21 23  1  0
 22 21  1  0
 22 16  1  0
 23 25  2  0
 23 24  1  0
M  END
$$$$
