VYA.pdb
     RDKit          3D

 25 25  0  0  1  0  0  0  0  0999 V2000
    7.3286  -14.8102   18.1632 C   0  0  0  0  0  0  0  0  0  0  0  0
    8.0198  -15.0332   19.5000 C   0  0  2  0  0  0  0  0  0  0  0  0
    7.4783  -16.2905   20.1544 C   0  0  0  0  0  0  0  0  0  0  0  0
    7.6322  -13.8736   20.3879 C   0  0  2  0  0  0  0  0  0  0  0  0
    8.0350  -12.6621   19.7329 N   0  0  0  0  0  0  0  0  0  0  0  0
    8.3651  -14.0350   21.6812 C   0  0  0  0  0  0  0  0  0  0  0  0
    9.5969  -13.8515   21.7861 O   0  0  0  0  0  0  0  0  0  0  0  0
   10.7238  -15.2659   29.9567 O   0  0  0  0  0  0  0  0  0  0  0  0
    9.9803  -15.0280   28.8188 C   0  0  0  0  0  0  0  0  0  0  0  0
    9.9749  -13.7534   28.2832 C   0  0  0  0  0  0  0  0  0  0  0  0
    9.2258  -13.5309   27.1439 C   0  0  0  0  0  0  0  0  0  0  0  0
    8.5051  -14.5311   26.5516 C   0  0  0  0  0  0  0  0  0  0  0  0
    7.6848  -14.3462   25.3523 C   0  0  0  0  0  0  0  0  0  0  0  0
    8.4162  -14.5849   24.1173 C   0  0  2  0  0  0  0  0  0  0  0  0
    7.7273  -14.4056   22.8802 N   0  0  0  0  0  0  0  0  0  0  0  0
    9.0159  -15.9350   24.1033 C   0  0  0  0  0  0  0  0  0  0  0  0
    8.3378  -17.0155   24.1064 O   0  0  0  0  0  0  0  0  0  0  0  0
    8.5389  -15.7865   27.1185 C   0  0  0  0  0  0  0  0  0  0  0  0
    9.2749  -16.0531   28.2574 C   0  0  0  0  0  0  0  0  0  0  0  0
   12.0316  -17.3303   22.8668 C   0  0  0  0  0  0  0  0  0  0  0  0
   11.0108  -17.3726   23.9844 C   0  0  2  0  0  0  0  0  0  0  0  0
   10.4410  -16.0470   24.0849 N   0  0  0  0  0  0  0  0  0  0  0  0
   11.6430  -17.7387   25.2713 C   0  0  0  0  0  0  0  0  0  0  0  0
   11.5751  -16.9264   26.3849 O   0  0  0  0  0  0  0  0  0  0  0  0
   12.2659  -18.8207   25.3711 O   0  0  0  0  0  0  0  0  0  0  0  0
  2  1  1  6
  2  4  1  0
  3  2  1  0
  4  6  1  0
  4  5  1  6
  6  7  2  0
  8  9  1  0
  9 10  2  0
  9 19  1  0
 10 11  1  0
 11 12  2  0
 12 13  1  0
 14 13  1  1
 14 16  1  0
 15 14  1  0
 15  6  1  0
 16 17  2  0
 18 12  1  0
 19 18  2  0
 21 20  1  6
 21 23  1  0
 22 21  1  0
 22 16  1  0
 23 25  2  0
 23 24  1  0
M  END
$$$$
