VYA.pdb
     RDKit          3D

 25 25  0  0  1  0  0  0  0  0999 V2000
    9.1194  -15.1702   19.2869 C   0  0  0  0  0  0  0  0  0  0  0  0
    7.6663  -14.8789   19.6303 C   0  0  2  0  0  0  0  0  0  0  0  0
    6.9150  -14.4691   18.3773 C   0  0  0  0  0  0  0  0  0  0  0  0
    7.6697  -13.6815   20.5521 C   0  0  2  0  0  0  0  0  0  0  0  0
    8.3701  -12.6176   19.8912 N   0  0  0  0  0  0  0  0  0  0  0  0
    8.3872  -14.0802   21.8019 C   0  0  0  0  0  0  0  0  0  0  0  0
    9.5793  -13.7758   22.0218 O   0  0  0  0  0  0  0  0  0  0  0  0
    6.4420  -10.0715   27.1965 O   0  0  0  0  0  0  0  0  0  0  0  0
    6.7200  -11.3351   26.7165 C   0  0  0  0  0  0  0  0  0  0  0  0
    5.6663  -12.1639   26.3783 C   0  0  0  0  0  0  0  0  0  0  0  0
    5.9606  -13.4259   25.8992 C   0  0  0  0  0  0  0  0  0  0  0  0
    7.2506  -13.8576   25.7584 C   0  0  0  0  0  0  0  0  0  0  0  0
    7.6172  -15.1886   25.2687 C   0  0  0  0  0  0  0  0  0  0  0  0
    8.4243  -15.1501   24.0587 C   0  0  2  0  0  0  0  0  0  0  0  0
    7.7784  -14.8282   22.8273 N   0  0  0  0  0  0  0  0  0  0  0  0
    9.1542  -16.4194   23.8620 C   0  0  0  0  0  0  0  0  0  0  0  0
    8.6092  -17.4987   23.4552 O   0  0  0  0  0  0  0  0  0  0  0  0
    8.2703  -12.9991   26.1072 C   0  0  0  0  0  0  0  0  0  0  0  0
    8.0210  -11.7285   26.5901 C   0  0  0  0  0  0  0  0  0  0  0  0
   12.6961  -17.3509   23.6249 C   0  0  0  0  0  0  0  0  0  0  0  0
   11.2562  -17.6985   23.9391 C   0  0  2  0  0  0  0  0  0  0  0  0
   10.5559  -16.4494   24.1417 N   0  0  0  0  0  0  0  0  0  0  0  0
   11.1612  -18.5237   25.1637 C   0  0  0  0  0  0  0  0  0  0  0  0
   10.4631  -18.1106   26.2802 O   0  0  0  0  0  0  0  0  0  0  0  0
   11.7284  -19.6396   25.2056 O   0  0  0  0  0  0  0  0  0  0  0  0
  2  1  1  6
  2  4  1  0
  3  2  1  0
  4  6  1  0
  4  5  1  6
  6  7  2  0
  8  9  1  0
  9 10  2  0
  9 19  1  0
 10 11  1  0
 11 12  2  0
 12 13  1  0
 14 13  1  1
 14 16  1  0
 15 14  1  0
 15  6  1  0
 16 17  2  0
 18 12  1  0
 19 18  2  0
 21 20  1  1
 21 23  1  0
 22 21  1  0
 22 16  1  0
 23 25  2  0
 23 24  1  0
M  END
$$$$
