TPF.pdb
     RDKit          3D

 26 27  0  0  1  0  0  0  0  0999 V2000
    7.6156  -20.1519   22.5557 C   0  0  0  0  0  0  0  0  0  0  0  0
    6.4625  -19.2336   22.2000 C   0  0  1  0  0  0  0  0  0  0  0  0
    6.0196  -18.4980   23.2886 O   0  0  0  0  0  0  0  0  0  0  0  0
    6.7703  -18.3700   20.9984 C   0  0  2  0  0  0  0  0  0  0  0  0
    7.1314  -19.2633   19.9214 N   0  0  0  0  0  0  0  0  0  0  0  0
    7.8769  -17.4295   21.2490 C   0  0  0  0  0  0  0  0  0  0  0  0
    9.0498  -17.9347   21.1526 O   0  0  0  0  0  0  0  0  0  0  0  0
    7.7777  -16.0735   21.5734 N   0  0  0  0  0  0  0  0  0  0  0  0
    6.5413  -15.3427   21.7462 C   0  0  0  0  0  0  0  0  0  0  0  0
    6.8844  -13.9303   22.1123 C   0  0  0  0  0  0  0  0  0  0  0  0
    8.2878  -13.7679   21.5771 C   0  0  0  0  0  0  0  0  0  0  0  0
    8.8674  -15.1479   21.7984 C   0  0  1  0  0  0  0  0  0  0  0  0
    9.5105  -15.3184   23.1018 C   0  0  0  0  0  0  0  0  0  0  0  0
   10.7105  -14.9264   23.2084 O   0  0  0  0  0  0  0  0  0  0  0  0
    8.9150  -15.8777   24.2439 N   0  0  0  0  0  0  0  0  0  0  0  0
    9.5547  -15.9102   25.5722 C   0  0  1  0  0  0  0  0  0  0  0  0
    9.7248  -14.5321   26.1161 C   0  0  0  0  0  0  0  0  0  0  0  0
    8.4340  -13.8522   26.2324 C   0  0  0  0  0  0  0  0  0  0  0  0
    8.3839  -12.5742   26.7365 C   0  0  0  0  0  0  0  0  0  0  0  0
    7.1745  -11.9243   26.8341 C   0  0  0  0  0  0  0  0  0  0  0  0
    5.9788  -12.5001   26.4435 C   0  0  0  0  0  0  0  0  0  0  0  0
    6.0161  -13.7861   25.9346 C   0  0  0  0  0  0  0  0  0  0  0  0
    7.2295  -14.4326   25.8390 C   0  0  0  0  0  0  0  0  0  0  0  0
    8.8876  -16.8542   26.4592 C   0  0  0  0  0  0  0  0  0  0  0  0
    9.3404  -17.2013   27.7151 O   0  0  0  0  0  0  0  0  0  0  0  0
    7.8048  -17.4258   26.0890 O   0  0  0  0  0  0  0  0  0  0  0  0
  2  4  1  0
  2  1  1  1
  3  2  1  0
  4  6  1  0
  4  5  1  6
  6  8  1  0
  7  6  2  0
  8 12  1  0
  8  9  1  0
  9 10  1  0
 11 10  1  0
 12 11  1  0
 13 15  1  0
 12 13  1  1
 14 13  2  0
 16 15  1  0
 16 24  1  0
 16 17  1  1
 18 23  1  0
 18 17  1  0
 19 18  2  0
 20 21  2  0
 20 19  1  0
 21 22  1  0
 22 23  2  0
 24 25  1  0
 26 24  2  0
M  END
$$$$
