TPF.pdb
     RDKit          3D

 26 27  0  0  1  0  0  0  0  0999 V2000
    3.4335  -17.9557   22.0095 C   0  0  0  0  0  0  0  0  0  0  0  0
    4.8451  -17.5029   22.3289 C   0  0  1  0  0  0  0  0  0  0  0  0
    5.4224  -18.2527   23.3422 O   0  0  0  0  0  0  0  0  0  0  0  0
    5.7128  -17.4248   21.0939 C   0  0  2  0  0  0  0  0  0  0  0  0
    5.8753  -18.7766   20.6093 N   0  0  0  0  0  0  0  0  0  0  0  0
    7.0366  -16.8396   21.3713 C   0  0  0  0  0  0  0  0  0  0  0  0
    7.9160  -17.6668   21.7985 O   0  0  0  0  0  0  0  0  0  0  0  0
    7.4201  -15.5042   21.2186 N   0  0  0  0  0  0  0  0  0  0  0  0
    6.5566  -14.4308   20.7769 C   0  0  0  0  0  0  0  0  0  0  0  0
    7.3553  -13.1625   20.7781 C   0  0  0  0  0  0  0  0  0  0  0  0
    8.7799  -13.6533   20.6694 C   0  0  0  0  0  0  0  0  0  0  0  0
    8.7286  -14.9380   21.4673 C   0  0  1  0  0  0  0  0  0  0  0  0
    9.0218  -14.7636   22.8903 C   0  0  0  0  0  0  0  0  0  0  0  0
    9.6455  -13.7132   23.2261 O   0  0  0  0  0  0  0  0  0  0  0  0
    8.6729  -15.6575   23.9157 N   0  0  0  0  0  0  0  0  0  0  0  0
    9.4490  -15.8264   25.1582 C   0  0  1  0  0  0  0  0  0  0  0  0
    9.6113  -14.5242   25.8668 C   0  0  0  0  0  0  0  0  0  0  0  0
    8.3316  -13.8217   25.9708 C   0  0  0  0  0  0  0  0  0  0  0  0
    7.6153  -13.8877   27.1424 C   0  0  0  0  0  0  0  0  0  0  0  0
    6.4185  -13.2166   27.2511 C   0  0  0  0  0  0  0  0  0  0  0  0
    5.8845  -12.4618   26.2220 C   0  0  0  0  0  0  0  0  0  0  0  0
    6.5961  -12.3877   25.0378 C   0  0  0  0  0  0  0  0  0  0  0  0
    7.7938  -13.0614   24.9339 C   0  0  0  0  0  0  0  0  0  0  0  0
    8.9225  -16.9171   25.9682 C   0  0  0  0  0  0  0  0  0  0  0  0
    9.4963  -17.3702   27.1379 O   0  0  0  0  0  0  0  0  0  0  0  0
    7.8574  -17.5266   25.6075 O   0  0  0  0  0  0  0  0  0  0  0  0
  2  4  1  0
  2  1  1  6
  3  2  1  0
  4  6  1  0
  4  5  1  1
  6  8  1  0
  7  6  2  0
  8 12  1  0
  8  9  1  0
  9 10  1  0
 11 10  1  0
 12 11  1  0
 13 15  1  0
 12 13  1  1
 14 13  2  0
 16 15  1  0
 16 24  1  0
 16 17  1  1
 18 23  1  0
 18 17  1  0
 19 18  2  0
 20 21  2  0
 20 19  1  0
 21 22  1  0
 22 23  2  0
 24 25  1  0
 26 24  2  0
M  END
$$$$
