TPF.pdb
     RDKit          3D

 26 27  0  0  1  0  0  0  0  0999 V2000
   11.1121  -14.9180   19.1079 C   0  0  0  0  0  0  0  0  0  0  0  0
   10.3059  -13.6929   18.7221 C   0  0  1  0  0  0  0  0  0  0  0  0
   10.7748  -13.0978   17.5609 O   0  0  0  0  0  0  0  0  0  0  0  0
    8.8224  -13.9777   18.6738 C   0  0  2  0  0  0  0  0  0  0  0  0
    8.1703  -12.7432   18.3005 N   0  0  0  0  0  0  0  0  0  0  0  0
    8.2948  -14.4398   19.9700 C   0  0  0  0  0  0  0  0  0  0  0  0
    8.0927  -13.5158   20.8334 O   0  0  0  0  0  0  0  0  0  0  0  0
    7.9997  -15.7541   20.3432 N   0  0  0  0  0  0  0  0  0  0  0  0
    8.2248  -16.9266   19.5263 C   0  0  0  0  0  0  0  0  0  0  0  0
    7.7952  -18.1287   20.3117 C   0  0  0  0  0  0  0  0  0  0  0  0
    6.8184  -17.5551   21.3112 C   0  0  0  0  0  0  0  0  0  0  0  0
    7.4236  -16.1976   21.5946 C   0  0  1  0  0  0  0  0  0  0  0  0
    8.3785  -16.1946   22.7035 C   0  0  0  0  0  0  0  0  0  0  0  0
    9.5646  -16.5564   22.4443 O   0  0  0  0  0  0  0  0  0  0  0  0
    8.0959  -15.8261   24.0288 N   0  0  0  0  0  0  0  0  0  0  0  0
    9.1265  -15.6323   25.0656 C   0  0  1  0  0  0  0  0  0  0  0  0
    9.4072  -14.1826   25.2742 C   0  0  0  0  0  0  0  0  0  0  0  0
    8.2306  -13.4926   25.8050 C   0  0  0  0  0  0  0  0  0  0  0  0
    8.1561  -13.2162   27.1497 C   0  0  0  0  0  0  0  0  0  0  0  0
    7.0590  -12.5541   27.6522 C   0  0  0  0  0  0  0  0  0  0  0  0
    6.0025  -12.1420   26.8597 C   0  0  0  0  0  0  0  0  0  0  0  0
    6.0659  -12.4144   25.5047 C   0  0  0  0  0  0  0  0  0  0  0  0
    7.1664  -13.0775   25.0065 C   0  0  0  0  0  0  0  0  0  0  0  0
    8.8142  -16.3881   26.2716 C   0  0  0  0  0  0  0  0  0  0  0  0
    7.6029  -16.9996   26.5198 O   0  0  0  0  0  0  0  0  0  0  0  0
    9.6934  -16.5186   27.1915 O   0  0  0  0  0  0  0  0  0  0  0  0
  2  4  1  0
  2  1  1  6
  3  2  1  0
  4  6  1  0
  4  5  1  1
  6  8  1  0
  7  6  2  0
  8 12  1  0
  8  9  1  0
  9 10  1  0
 11 10  1  0
 12 11  1  0
 13 15  1  0
 12 13  1  1
 14 13  2  0
 16 15  1  0
 16 24  1  0
 16 17  1  1
 18 23  1  0
 18 17  1  0
 19 18  2  0
 20 21  2  0
 20 19  1  0
 21 22  1  0
 22 23  2  0
 24 25  1  0
 26 24  2  0
M  END
$$$$
