TPF.pdb
     RDKit          3D

 26 27  0  0  1  0  0  0  0  0999 V2000
    9.0644  -19.6143   20.6590 C   0  0  0  0  0  0  0  0  0  0  0  0
   10.3377  -19.0656   20.0449 C   0  0  1  0  0  0  0  0  0  0  0  0
   10.8667  -19.9130   19.0835 O   0  0  0  0  0  0  0  0  0  0  0  0
   10.1661  -17.6499   19.5442 C   0  0  2  0  0  0  0  0  0  0  0  0
   11.4256  -17.2584   18.9536 N   0  0  0  0  0  0  0  0  0  0  0  0
    9.8157  -16.7092   20.6232 C   0  0  0  0  0  0  0  0  0  0  0  0
   10.7636  -16.4485   21.4440 O   0  0  0  0  0  0  0  0  0  0  0  0
    8.5821  -16.0873   20.8359 N   0  0  0  0  0  0  0  0  0  0  0  0
    7.3858  -16.3121   20.0542 C   0  0  0  0  0  0  0  0  0  0  0  0
    6.2890  -15.4695   20.6319 C   0  0  0  0  0  0  0  0  0  0  0  0
    7.0400  -14.3757   21.3541 C   0  0  0  0  0  0  0  0  0  0  0  0
    8.2593  -15.1158   21.8590 C   0  0  1  0  0  0  0  0  0  0  0  0
    8.0849  -15.7095   23.1851 C   0  0  0  0  0  0  0  0  0  0  0  0
    7.6951  -16.9140   23.2310 O   0  0  0  0  0  0  0  0  0  0  0  0
    8.3115  -15.0619   24.4104 N   0  0  0  0  0  0  0  0  0  0  0  0
    8.2196  -15.7294   25.7222 C   0  0  1  0  0  0  0  0  0  0  0  0
    8.5111  -14.7731   26.8288 C   0  0  0  0  0  0  0  0  0  0  0  0
    7.6632  -13.5843   26.7303 C   0  0  0  0  0  0  0  0  0  0  0  0
    6.4477  -13.5635   27.3723 C   0  0  0  0  0  0  0  0  0  0  0  0
    5.6528  -12.4425   27.2958 C   0  0  0  0  0  0  0  0  0  0  0  0
    6.0184  -11.3091   26.5918 C   0  0  0  0  0  0  0  0  0  0  0  0
    7.2396  -11.3178   25.9413 C   0  0  0  0  0  0  0  0  0  0  0  0
    8.0318  -12.4426   26.0210 C   0  0  0  0  0  0  0  0  0  0  0  0
    6.9742  -16.4744   25.8521 C   0  0  0  0  0  0  0  0  0  0  0  0
    6.7605  -17.4881   26.7629 O   0  0  0  0  0  0  0  0  0  0  0  0
    5.9838  -16.2049   25.0887 O   0  0  0  0  0  0  0  0  0  0  0  0
  2  4  1  0
  2  1  1  6
  3  2  1  0
  4  6  1  0
  4  5  1  1
  6  8  1  0
  7  6  2  0
  8 12  1  0
  8  9  1  0
  9 10  1  0
 11 10  1  0
 12 11  1  0
 13 15  1  0
 12 13  1  1
 14 13  2  0
 16 15  1  0
 16 24  1  0
 16 17  1  1
 18 23  1  0
 18 17  1  0
 19 18  2  0
 20 21  2  0
 20 19  1  0
 21 22  1  0
 22 23  2  0
 24 25  1  0
 26 24  2  0
M  END
$$$$
