TPF.pdb
     RDKit          3D

 26 27  0  0  1  0  0  0  0  0999 V2000
    5.3341  -17.7044   22.2885 C   0  0  0  0  0  0  0  0  0  0  0  0
    6.1581  -18.5497   21.3366 C   0  0  1  0  0  0  0  0  0  0  0  0
    5.4178  -19.5733   20.7653 O   0  0  0  0  0  0  0  0  0  0  0  0
    6.8833  -17.7106   20.3097 C   0  0  2  0  0  0  0  0  0  0  0  0
    7.5615  -18.6276   19.4221 N   0  0  0  0  0  0  0  0  0  0  0  0
    7.8673  -16.7990   20.9201 C   0  0  0  0  0  0  0  0  0  0  0  0
    8.9343  -17.3622   21.3495 O   0  0  0  0  0  0  0  0  0  0  0  0
    7.7560  -15.4142   21.0739 N   0  0  0  0  0  0  0  0  0  0  0  0
    6.6640  -14.6027   20.5821 C   0  0  0  0  0  0  0  0  0  0  0  0
    6.9245  -13.1821   20.9830 C   0  0  0  0  0  0  0  0  0  0  0  0
    8.4212  -13.1512   21.1857 C   0  0  0  0  0  0  0  0  0  0  0  0
    8.6889  -14.5325   21.7424 C   0  0  1  0  0  0  0  0  0  0  0  0
    8.6113  -14.6083   23.2017 C   0  0  0  0  0  0  0  0  0  0  0  0
    8.2223  -13.5693   23.8133 O   0  0  0  0  0  0  0  0  0  0  0  0
    8.9299  -15.7307   23.9832 N   0  0  0  0  0  0  0  0  0  0  0  0
    9.4139  -15.6532   25.3741 C   0  0  1  0  0  0  0  0  0  0  0  0
    8.2733  -15.6036   26.3337 C   0  0  0  0  0  0  0  0  0  0  0  0
    7.6733  -14.2690   26.3650 C   0  0  0  0  0  0  0  0  0  0  0  0
    8.4423  -13.1883   26.7265 C   0  0  0  0  0  0  0  0  0  0  0  0
    7.8874  -11.9288   26.7431 C   0  0  0  0  0  0  0  0  0  0  0  0
    6.5674  -11.6852   26.4082 C   0  0  0  0  0  0  0  0  0  0  0  0
    5.7832  -12.7649   26.0427 C   0  0  0  0  0  0  0  0  0  0  0  0
    6.3434  -14.0239   26.0276 C   0  0  0  0  0  0  0  0  0  0  0  0
   10.4144  -16.6771   25.6453 C   0  0  0  0  0  0  0  0  0  0  0  0
   11.1299  -16.7797   26.8202 O   0  0  0  0  0  0  0  0  0  0  0  0
   10.6815  -17.5620   24.7611 O   0  0  0  0  0  0  0  0  0  0  0  0
  2  4  1  0
  2  1  1  6
  3  2  1  0
  4  6  1  0
  4  5  1  6
  6  8  1  0
  7  6  2  0
  8 12  1  0
  8  9  1  0
  9 10  1  0
 11 10  1  0
 12 11  1  0
 13 15  1  0
 12 13  1  1
 14 13  2  0
 16 15  1  0
 16 24  1  0
 16 17  1  1
 18 23  1  0
 18 17  1  0
 19 18  2  0
 20 21  2  0
 20 19  1  0
 21 22  1  0
 22 23  2  0
 24 25  1  0
 26 24  2  0
M  END
$$$$
