TPF.pdb
     RDKit          3D

 26 27  0  0  1  0  0  0  0  0999 V2000
   10.6624  -14.2653   17.2866 C   0  0  0  0  0  0  0  0  0  0  0  0
   10.0890  -14.5086   18.6692 C   0  0  1  0  0  0  0  0  0  0  0  0
   10.9238  -14.0461   19.6748 O   0  0  0  0  0  0  0  0  0  0  0  0
    8.6751  -13.9907   18.8001 C   0  0  2  0  0  0  0  0  0  0  0  0
    8.7365  -12.5567   18.6309 N   0  0  0  0  0  0  0  0  0  0  0  0
    8.0785  -14.3059   20.1103 C   0  0  0  0  0  0  0  0  0  0  0  0
    8.2138  -13.3953   21.0006 O   0  0  0  0  0  0  0  0  0  0  0  0
    7.3958  -15.4711   20.4707 N   0  0  0  0  0  0  0  0  0  0  0  0
    7.2588  -16.6503   19.6439 C   0  0  0  0  0  0  0  0  0  0  0  0
    6.4797  -17.6710   20.4171 C   0  0  0  0  0  0  0  0  0  0  0  0
    5.7175  -16.8353   21.4186 C   0  0  0  0  0  0  0  0  0  0  0  0
    6.7050  -15.7281   21.7162 C   0  0  1  0  0  0  0  0  0  0  0  0
    7.6091  -16.0238   22.8282 C   0  0  0  0  0  0  0  0  0  0  0  0
    8.6600  -16.6781   22.5587 O   0  0  0  0  0  0  0  0  0  0  0  0
    7.4146  -15.6464   24.1667 N   0  0  0  0  0  0  0  0  0  0  0  0
    8.3797  -15.9222   25.2471 C   0  0  1  0  0  0  0  0  0  0  0  0
    8.9831  -14.6580   25.7588 C   0  0  0  0  0  0  0  0  0  0  0  0
    7.9453  -13.6892   26.1146 C   0  0  0  0  0  0  0  0  0  0  0  0
    7.4751  -13.6429   27.4056 C   0  0  0  0  0  0  0  0  0  0  0  0
    6.5101  -12.7237   27.7496 C   0  0  0  0  0  0  0  0  0  0  0  0
    5.9749  -11.8228   26.8462 C   0  0  0  0  0  0  0  0  0  0  0  0
    6.4401  -11.8596   25.5437 C   0  0  0  0  0  0  0  0  0  0  0  0
    7.4063  -12.7818   25.2043 C   0  0  0  0  0  0  0  0  0  0  0  0
    7.8048  -16.7955   26.2618 C   0  0  0  0  0  0  0  0  0  0  0  0
    8.5189  -17.3781   27.2881 O   0  0  0  0  0  0  0  0  0  0  0  0
    6.5556  -17.0698   26.2378 O   0  0  0  0  0  0  0  0  0  0  0  0
  2  4  1  0
  2  1  1  6
  3  2  1  0
  4  6  1  0
  4  5  1  1
  6  8  1  0
  7  6  2  0
  8 12  1  0
  8  9  1  0
  9 10  1  0
 11 10  1  0
 12 11  1  0
 13 15  1  0
 12 13  1  1
 14 13  2  0
 16 15  1  0
 16 24  1  0
 16 17  1  1
 18 23  1  0
 18 17  1  0
 19 18  2  0
 20 21  2  0
 20 19  1  0
 21 22  1  0
 22 23  2  0
 24 25  1  0
 26 24  2  0
M  END
$$$$
