TPF.pdb
     RDKit          3D

 26 27  0  0  1  0  0  0  0  0999 V2000
    8.9582  -20.3228   18.3801 C   0  0  0  0  0  0  0  0  0  0  0  0
    8.9814  -19.2384   19.4399 C   0  0  1  0  0  0  0  0  0  0  0  0
    9.7942  -19.5682   20.5136 O   0  0  0  0  0  0  0  0  0  0  0  0
    9.3032  -17.8802   18.8600 C   0  0  2  0  0  0  0  0  0  0  0  0
   10.6208  -17.9759   18.2741 N   0  0  0  0  0  0  0  0  0  0  0  0
    9.2946  -16.8159   19.8793 C   0  0  0  0  0  0  0  0  0  0  0  0
   10.4409  -16.5294   20.3733 O   0  0  0  0  0  0  0  0  0  0  0  0
    8.1875  -16.1042   20.3500 N   0  0  0  0  0  0  0  0  0  0  0  0
    6.8106  -16.3648   19.9907 C   0  0  0  0  0  0  0  0  0  0  0  0
    5.9450  -15.3937   20.7352 C   0  0  0  0  0  0  0  0  0  0  0  0
    6.8906  -14.2565   21.0432 C   0  0  0  0  0  0  0  0  0  0  0  0
    8.1946  -14.9889   21.2724 C   0  0  1  0  0  0  0  0  0  0  0  0
    8.4122  -15.3903   22.6627 C   0  0  0  0  0  0  0  0  0  0  0  0
    8.1198  -16.5838   22.9709 O   0  0  0  0  0  0  0  0  0  0  0  0
    8.9161  -14.5694   23.6846 N   0  0  0  0  0  0  0  0  0  0  0  0
    9.1501  -15.0275   25.0667 C   0  0  1  0  0  0  0  0  0  0  0  0
   10.1260  -14.1414   25.7642 C   0  0  0  0  0  0  0  0  0  0  0  0
   10.1854  -14.4509   27.1935 C   0  0  0  0  0  0  0  0  0  0  0  0
    9.4658  -13.6884   28.0827 C   0  0  0  0  0  0  0  0  0  0  0  0
    9.5059  -13.9842   29.4264 C   0  0  0  0  0  0  0  0  0  0  0  0
   10.2479  -15.0313   29.9431 C   0  0  0  0  0  0  0  0  0  0  0  0
   10.9765  -15.8060   29.0581 C   0  0  0  0  0  0  0  0  0  0  0  0
   10.9331  -15.5058   27.7138 C   0  0  0  0  0  0  0  0  0  0  0  0
    7.8944  -15.2506   25.7713 C   0  0  0  0  0  0  0  0  0  0  0  0
    6.7378  -14.5305   25.5555 O   0  0  0  0  0  0  0  0  0  0  0  0
    7.8128  -16.1662   26.6607 O   0  0  0  0  0  0  0  0  0  0  0  0
  2  4  1  0
  2  1  1  6
  3  2  1  0
  4  6  1  0
  4  5  1  1
  6  8  1  0
  7  6  2  0
  8 12  1  0
  8  9  1  0
  9 10  1  0
 11 10  1  0
 12 11  1  0
 13 15  1  0
 12 13  1  1
 14 13  2  0
 16 15  1  0
 16 24  1  0
 16 17  1  1
 18 23  1  0
 18 17  1  0
 19 18  2  0
 20 21  2  0
 20 19  1  0
 21 22  1  0
 22 23  2  0
 24 25  1  0
 26 24  2  0
M  END
$$$$
