MWK.pdb
     RDKit          3D

 32 33  0  0  1  0  0  0  0  0999 V2000
   28.2297  -20.1799  -19.8580 C   0  0  0  0  0  0  0  0  0  0  0  0
   27.3683  -20.8932  -18.4449 S   0  0  0  0  0  0  0  0  0  0  0  0
   27.5674  -19.9107  -16.9416 C   0  0  0  0  0  0  0  0  0  0  0  0
   26.7744  -20.4996  -15.8087 C   0  0  0  0  0  0  0  0  0  0  0  0
   27.6045  -20.9271  -14.6261 C   0  0  2  0  0  0  0  0  0  0  0  0
   28.4188  -22.0708  -15.0762 N   0  0  0  0  0  0  0  0  0  0  0  0
   26.7704  -21.3265  -13.4852 C   0  0  0  0  0  0  0  0  0  0  0  0
   26.2109  -22.4622  -13.5071 O   0  0  0  0  0  0  0  0  0  0  0  0
   26.5703  -20.4755  -12.3521 N   0  0  0  0  0  0  0  0  0  0  0  0
   25.7344  -20.9236  -11.2881 C   0  0  1  0  0  0  0  0  0  0  0  0
   26.0025  -20.1974   -9.9836 C   0  0  0  0  0  0  0  0  0  0  0  0
   27.3028  -20.5428   -9.4144 C   0  0  0  0  0  0  0  0  0  0  0  0
   28.2877  -21.3228   -9.9737 C   0  0  0  0  0  0  0  0  0  0  0  0
   29.3378  -21.3872   -9.1063 N   0  0  0  0  0  0  0  0  0  0  0  0
   29.0649  -20.6739   -8.0024 C   0  0  0  0  0  0  0  0  0  0  0  0
   29.7811  -20.4198   -6.8416 C   0  0  0  0  0  0  0  0  0  0  0  0
   29.2813  -19.6399   -5.8237 C   0  0  0  0  0  0  0  0  0  0  0  0
   28.0025  -19.1074   -6.0130 C   0  0  0  0  0  0  0  0  0  0  0  0
   27.2974  -19.3580   -7.1569 C   0  0  0  0  0  0  0  0  0  0  0  0
   27.8037  -20.1442   -8.1807 C   0  0  0  0  0  0  0  0  0  0  0  0
   24.3101  -20.5952  -11.6706 C   0  0  0  0  0  0  0  0  0  0  0  0
   23.9934  -19.4333  -12.0294 O   0  0  0  0  0  0  0  0  0  0  0  0
   23.2976  -21.5841  -11.6353 N   0  0  0  0  0  0  0  0  0  0  0  0
   21.9141  -21.3082  -12.0535 C   0  0  1  0  0  0  0  0  0  0  0  0
   21.1012  -22.5367  -12.0709 C   0  0  0  0  0  0  0  0  0  0  0  0
   19.7295  -22.3360  -12.6331 C   0  0  0  0  0  0  0  0  0  0  0  0
   18.9756  -23.6415  -12.6103 C   0  0  0  0  0  0  0  0  0  0  0  0
   17.6148  -23.4462  -13.2725 C   0  0  0  0  0  0  0  0  0  0  0  0
   16.9001  -24.6995  -13.2770 N   0  0  0  0  0  0  0  0  0  0  0  0
   21.3385  -20.2784  -11.1568 C   0  0  0  0  0  0  0  0  0  0  0  0
   21.4612  -20.3033   -9.9285 O   0  0  0  0  0  0  0  0  0  0  0  0
   20.6079  -19.2016  -11.6845 O   0  0  0  0  0  0  0  0  0  0  0  0
  2  1  1  0
  3  2  1  0
  4  3  1  0
  5  7  1  0
  5  4  1  0
  5  6  1  6
  7  8  2  0
  9 10  1  0
  9  7  1  0
 10 11  1  1
 11 12  1  0
 12 13  2  0
 12 20  1  0
 13 14  1  0
 14 15  1  0
 15 16  2  0
 16 17  1  0
 18 17  2  0
 19 18  1  0
 20 19  2  0
 20 15  1  0
 21 10  1  0
 22 21  2  0
 23 21  1  0
 24 25  1  1
 24 23  1  0
 25 26  1  0
 26 27  1  0
 27 28  1  0
 28 29  1  0
 30 24  1  0
 30 32  1  0
 31 30  2  0
M  END
$$$$
