MWK.pdb
     RDKit          3D

 32 33  0  0  1  0  0  0  0  0999 V2000
   28.8775  -17.4468  -15.9308 C   0  0  0  0  0  0  0  0  0  0  0  0
   29.2387  -19.1185  -16.4991 S   0  0  0  0  0  0  0  0  0  0  0  0
   27.7461  -20.0507  -16.9088 C   0  0  0  0  0  0  0  0  0  0  0  0
   27.0092  -20.4552  -15.6628 C   0  0  0  0  0  0  0  0  0  0  0  0
   27.7433  -21.4511  -14.8029 C   0  0  2  0  0  0  0  0  0  0  0  0
   27.6527  -22.7501  -15.4944 N   0  0  0  0  0  0  0  0  0  0  0  0
   27.1550  -21.5576  -13.4615 C   0  0  0  0  0  0  0  0  0  0  0  0
   26.1149  -22.2628  -13.3062 O   0  0  0  0  0  0  0  0  0  0  0  0
   27.7184  -20.8918  -12.3268 N   0  0  0  0  0  0  0  0  0  0  0  0
   27.0389  -20.9598  -11.0756 C   0  0  1  0  0  0  0  0  0  0  0  0
   27.8164  -20.3082   -9.9479 C   0  0  0  0  0  0  0  0  0  0  0  0
   27.0900  -20.3445   -8.6810 C   0  0  0  0  0  0  0  0  0  0  0  0
   25.7445  -20.5516   -8.4862 C   0  0  0  0  0  0  0  0  0  0  0  0
   25.4860  -20.5080   -7.1481 N   0  0  0  0  0  0  0  0  0  0  0  0
   26.6212  -20.2791   -6.4692 C   0  0  0  0  0  0  0  0  0  0  0  0
   26.9021  -20.1463   -5.1170 C   0  0  0  0  0  0  0  0  0  0  0  0
   28.1743  -19.9082   -4.6490 C   0  0  0  0  0  0  0  0  0  0  0  0
   29.1854  -19.8045   -5.6090 C   0  0  0  0  0  0  0  0  0  0  0  0
   28.9081  -19.9355   -6.9411 C   0  0  0  0  0  0  0  0  0  0  0  0
   27.6252  -20.1754   -7.4095 C   0  0  0  0  0  0  0  0  0  0  0  0
   25.7589  -20.1700  -11.2192 C   0  0  0  0  0  0  0  0  0  0  0  0
   25.7766  -18.9935  -11.6604 O   0  0  0  0  0  0  0  0  0  0  0  0
   24.5097  -20.7321  -10.8618 N   0  0  0  0  0  0  0  0  0  0  0  0
   23.2399  -20.2512  -11.4289 C   0  0  1  0  0  0  0  0  0  0  0  0
   23.0964  -20.6465  -12.8409 C   0  0  0  0  0  0  0  0  0  0  0  0
   23.0343  -19.4851  -13.7818 C   0  0  0  0  0  0  0  0  0  0  0  0
   22.8908  -19.9853  -15.1967 C   0  0  0  0  0  0  0  0  0  0  0  0
   22.9063  -18.7962  -16.1529 C   0  0  0  0  0  0  0  0  0  0  0  0
   22.7481  -19.2683  -17.5070 N   0  0  0  0  0  0  0  0  0  0  0  0
   22.1218  -20.7564  -10.5982 C   0  0  0  0  0  0  0  0  0  0  0  0
   21.0188  -20.2050  -10.5375 O   0  0  0  0  0  0  0  0  0  0  0  0
   22.2775  -21.9168   -9.8230 O   0  0  0  0  0  0  0  0  0  0  0  0
  2  1  1  0
  3  2  1  0
  4  3  1  0
  5  7  1  0
  5  4  1  0
  5  6  1  6
  7  8  2  0
  9 10  1  0
  9  7  1  0
 10 11  1  1
 11 12  1  0
 12 13  2  0
 12 20  1  0
 13 14  1  0
 14 15  1  0
 15 16  2  0
 16 17  1  0
 18 17  2  0
 19 18  1  0
 20 19  2  0
 20 15  1  0
 21 10  1  0
 22 21  2  0
 23 21  1  0
 24 25  1  6
 24 23  1  0
 25 26  1  0
 26 27  1  0
 27 28  1  0
 28 29  1  0
 30 24  1  0
 30 32  1  0
 31 30  2  0
M  END
$$$$
