MWK.pdb
     RDKit          3D

 32 33  0  0  1  0  0  0  0  0999 V2000
   31.7241  -21.8698   -7.3952 C   0  0  0  0  0  0  0  0  0  0  0  0
   31.5921  -22.7534   -8.9603 S   0  0  0  0  0  0  0  0  0  0  0  0
   32.1958  -21.7824  -10.3594 C   0  0  0  0  0  0  0  0  0  0  0  0
   31.1373  -20.8342  -10.8489 C   0  0  0  0  0  0  0  0  0  0  0  0
   29.9667  -21.5037  -11.5210 C   0  0  2  0  0  0  0  0  0  0  0  0
   30.5135  -22.2561  -12.6650 N   0  0  0  0  0  0  0  0  0  0  0  0
   28.9737  -20.5299  -11.9928 C   0  0  0  0  0  0  0  0  0  0  0  0
   28.3706  -19.8128  -11.1412 O   0  0  0  0  0  0  0  0  0  0  0  0
   28.6667  -20.3657  -13.3810 N   0  0  0  0  0  0  0  0  0  0  0  0
   27.7010  -19.3907  -13.7664 C   0  0  1  0  0  0  0  0  0  0  0  0
   28.0976  -18.6334  -15.0194 C   0  0  0  0  0  0  0  0  0  0  0  0
   27.1038  -17.6325  -15.3996 C   0  0  0  0  0  0  0  0  0  0  0  0
   26.7682  -16.4801  -14.7284 C   0  0  0  0  0  0  0  0  0  0  0  0
   25.7946  -15.8341  -15.4312 N   0  0  0  0  0  0  0  0  0  0  0  0
   25.4883  -16.5311  -16.5368 C   0  0  0  0  0  0  0  0  0  0  0  0
   24.5846  -16.3172  -17.5676 C   0  0  0  0  0  0  0  0  0  0  0  0
   24.4457  -17.1942  -18.6191 C   0  0  0  0  0  0  0  0  0  0  0  0
   25.2663  -18.3259  -18.6031 C   0  0  0  0  0  0  0  0  0  0  0  0
   26.1565  -18.5361  -17.5874 C   0  0  0  0  0  0  0  0  0  0  0  0
   26.2942  -17.6507  -16.5292 C   0  0  0  0  0  0  0  0  0  0  0  0
   26.4286  -20.1320  -14.1045 C   0  0  0  0  0  0  0  0  0  0  0  0
   26.4632  -21.1943  -14.7749 O   0  0  0  0  0  0  0  0  0  0  0  0
   25.1675  -19.6513  -13.6768 N   0  0  0  0  0  0  0  0  0  0  0  0
   23.9352  -20.4431  -13.8176 C   0  0  1  0  0  0  0  0  0  0  0  0
   23.2707  -20.6417  -12.5178 C   0  0  0  0  0  0  0  0  0  0  0  0
   24.1834  -20.4563  -11.3472 C   0  0  0  0  0  0  0  0  0  0  0  0
   23.3917  -20.5448  -10.0673 C   0  0  0  0  0  0  0  0  0  0  0  0
   24.3122  -20.2489   -8.8868 C   0  0  0  0  0  0  0  0  0  0  0  0
   25.0676  -21.4338   -8.5597 N   0  0  0  0  0  0  0  0  0  0  0  0
   23.0451  -19.7750  -14.7959 C   0  0  0  0  0  0  0  0  0  0  0  0
   23.1953  -18.6053  -15.1612 O   0  0  0  0  0  0  0  0  0  0  0  0
   21.9624  -20.4666  -15.3627 O   0  0  0  0  0  0  0  0  0  0  0  0
  2  1  1  0
  3  2  1  0
  4  3  1  0
  5  7  1  0
  5  4  1  0
  5  6  1  6
  7  8  2  0
  9 10  1  0
  9  7  1  0
 10 11  1  6
 11 12  1  0
 12 13  2  0
 12 20  1  0
 13 14  1  0
 14 15  1  0
 15 16  2  0
 16 17  1  0
 18 17  2  0
 19 18  1  0
 20 19  2  0
 20 15  1  0
 21 10  1  0
 22 21  2  0
 23 21  1  0
 24 25  1  1
 24 23  1  0
 25 26  1  0
 26 27  1  0
 27 28  1  0
 28 29  1  0
 30 24  1  0
 30 32  1  0
 31 30  2  0
M  END
$$$$
