MWK.pdb
     RDKit          3D

 32 33  0  0  1  0  0  0  0  0999 V2000
   29.3516  -19.7370  -13.9296 C   0  0  0  0  0  0  0  0  0  0  0  0
   28.6790  -19.9849  -12.2761 S   0  0  0  0  0  0  0  0  0  0  0  0
   27.3786  -21.2387  -12.2358 C   0  0  0  0  0  0  0  0  0  0  0  0
   26.0192  -20.5984  -12.1986 C   0  0  0  0  0  0  0  0  0  0  0  0
   24.8733  -21.5760  -12.1608 C   0  0  2  0  0  0  0  0  0  0  0  0
   25.1016  -22.5332  -13.2587 N   0  0  0  0  0  0  0  0  0  0  0  0
   23.5769  -20.9098  -12.3411 C   0  0  0  0  0  0  0  0  0  0  0  0
   23.1578  -20.1351  -11.4314 O   0  0  0  0  0  0  0  0  0  0  0  0
   22.7740  -21.1075  -13.5092 N   0  0  0  0  0  0  0  0  0  0  0  0
   21.5479  -20.3917  -13.6365 C   0  0  1  0  0  0  0  0  0  0  0  0
   21.5270  -19.4708  -14.8417 C   0  0  0  0  0  0  0  0  0  0  0  0
   22.4586  -19.8989  -15.8822 C   0  0  0  0  0  0  0  0  0  0  0  0
   22.3130  -20.9413  -16.7674 C   0  0  0  0  0  0  0  0  0  0  0  0
   23.4156  -20.9903  -17.5682 N   0  0  0  0  0  0  0  0  0  0  0  0
   24.2714  -20.0129  -17.2302 C   0  0  0  0  0  0  0  0  0  0  0  0
   25.5125  -19.6335  -17.7206 C   0  0  0  0  0  0  0  0  0  0  0  0
   26.2173  -18.5723  -17.1996 C   0  0  0  0  0  0  0  0  0  0  0  0
   25.6196  -17.8837  -16.1398 C   0  0  0  0  0  0  0  0  0  0  0  0
   24.3968  -18.2579  -15.6571 C   0  0  0  0  0  0  0  0  0  0  0  0
   23.6891  -19.3276  -16.1841 C   0  0  0  0  0  0  0  0  0  0  0  0
   20.4570  -21.4119  -13.8641 C   0  0  0  0  0  0  0  0  0  0  0  0
   20.7251  -22.5432  -14.3409 O   0  0  0  0  0  0  0  0  0  0  0  0
   19.1079  -21.1218  -13.5475 N   0  0  0  0  0  0  0  0  0  0  0  0
   18.0412  -22.1299  -13.6527 C   0  0  1  0  0  0  0  0  0  0  0  0
   18.3237  -23.3036  -12.8083 C   0  0  0  0  0  0  0  0  0  0  0  0
   18.1872  -23.0310  -11.3437 C   0  0  0  0  0  0  0  0  0  0  0  0
   18.3286  -24.3187  -10.5725 C   0  0  0  0  0  0  0  0  0  0  0  0
   17.9139  -24.0831   -9.1230 C   0  0  0  0  0  0  0  0  0  0  0  0
   18.0492  -25.3127   -8.3803 N   0  0  0  0  0  0  0  0  0  0  0  0
   16.7475  -21.4974  -13.3034 C   0  0  0  0  0  0  0  0  0  0  0  0
   15.6694  -22.0984  -13.3303 O   0  0  0  0  0  0  0  0  0  0  0  0
   16.6950  -20.1484  -12.9171 O   0  0  0  0  0  0  0  0  0  0  0  0
  2  1  1  0
  3  2  1  0
  4  3  1  0
  5  7  1  0
  5  4  1  0
  5  6  1  6
  7  8  2  0
  9 10  1  0
  9  7  1  0
 10 11  1  6
 11 12  1  0
 12 13  2  0
 12 20  1  0
 13 14  1  0
 14 15  1  0
 15 16  2  0
 16 17  1  0
 18 17  2  0
 19 18  1  0
 20 19  2  0
 20 15  1  0
 21 10  1  0
 22 21  2  0
 23 21  1  0
 24 25  1  1
 24 23  1  0
 25 26  1  0
 26 27  1  0
 27 28  1  0
 28 29  1  0
 30 24  1  0
 30 32  1  0
 31 30  2  0
M  END
$$$$
