MWK.pdb
     RDKit          3D

 32 33  0  0  1  0  0  0  0  0999 V2000
   20.4415  -33.8279  -12.6874 C   0  0  0  0  0  0  0  0  0  0  0  0
   21.6980  -33.3351  -13.8816 S   0  0  0  0  0  0  0  0  0  0  0  0
   22.7970  -34.6957  -14.3350 C   0  0  0  0  0  0  0  0  0  0  0  0
   23.7214  -35.0376  -13.2002 C   0  0  0  0  0  0  0  0  0  0  0  0
   25.0298  -34.2906  -13.2185 C   0  0  2  0  0  0  0  0  0  0  0  0
   25.8261  -34.8655  -14.3181 N   0  0  0  0  0  0  0  0  0  0  0  0
   25.7581  -34.4273  -11.9505 C   0  0  0  0  0  0  0  0  0  0  0  0
   26.5087  -35.4333  -11.7839 O   0  0  0  0  0  0  0  0  0  0  0  0
   25.6472  -33.4620  -10.8997 N   0  0  0  0  0  0  0  0  0  0  0  0
   26.3605  -33.6759   -9.6843 C   0  0  1  0  0  0  0  0  0  0  0  0
   26.5251  -32.4080   -8.8680 C   0  0  0  0  0  0  0  0  0  0  0  0
   27.1804  -32.6557   -7.5862 C   0  0  0  0  0  0  0  0  0  0  0  0
   28.4586  -33.1136   -7.3672 C   0  0  0  0  0  0  0  0  0  0  0  0
   28.6658  -33.2011   -6.0224 N   0  0  0  0  0  0  0  0  0  0  0  0
   27.5625  -32.8147   -5.3625 C   0  0  0  0  0  0  0  0  0  0  0  0
   27.2545  -32.7190   -4.0131 C   0  0  0  0  0  0  0  0  0  0  0  0
   26.0266  -32.2863   -3.5668 C   0  0  0  0  0  0  0  0  0  0  0  0
   25.0900  -31.9426   -4.5462 C   0  0  0  0  0  0  0  0  0  0  0  0
   25.3940  -32.0371   -5.8756 C   0  0  0  0  0  0  0  0  0  0  0  0
   26.6321  -32.4734   -6.3221 C   0  0  0  0  0  0  0  0  0  0  0  0
   25.5333  -34.6180   -8.8412 C   0  0  0  0  0  0  0  0  0  0  0  0
   24.2850  -34.4909   -8.7733 O   0  0  0  0  0  0  0  0  0  0  0  0
   26.1401  -35.6657   -8.1073 N   0  0  0  0  0  0  0  0  0  0  0  0
   25.3553  -36.6429   -7.3365 C   0  0  1  0  0  0  0  0  0  0  0  0
   25.6976  -38.0257   -7.7123 C   0  0  0  0  0  0  0  0  0  0  0  0
   24.8210  -39.0528   -7.0685 C   0  0  0  0  0  0  0  0  0  0  0  0
   25.1929  -40.4246   -7.5714 C   0  0  0  0  0  0  0  0  0  0  0  0
   24.2401  -41.4541   -6.9707 C   0  0  0  0  0  0  0  0  0  0  0  0
   24.5377  -42.7569   -7.5148 N   0  0  0  0  0  0  0  0  0  0  0  0
   25.5677  -36.3954   -5.8910 C   0  0  0  0  0  0  0  0  0  0  0  0
   26.6828  -36.2276   -5.3882 O   0  0  0  0  0  0  0  0  0  0  0  0
   24.4762  -36.3411   -5.0093 O   0  0  0  0  0  0  0  0  0  0  0  0
  2  1  1  0
  3  2  1  0
  4  3  1  0
  5  7  1  0
  5  4  1  0
  5  6  1  6
  7  8  2  0
  9 10  1  0
  9  7  1  0
 10 11  1  1
 11 12  1  0
 12 13  2  0
 12 20  1  0
 13 14  1  0
 14 15  1  0
 15 16  2  0
 16 17  1  0
 18 17  2  0
 19 18  1  0
 20 19  2  0
 20 15  1  0
 21 10  1  0
 22 21  2  0
 23 21  1  0
 24 25  1  6
 24 23  1  0
 25 26  1  0
 26 27  1  0
 27 28  1  0
 28 29  1  0
 30 24  1  0
 30 32  1  0
 31 30  2  0
M  END
$$$$
