MWK.pdb
     RDKit          3D

 32 33  0  0  1  0  0  0  0  0999 V2000
   26.0640  -15.8288  -15.7197 C   0  0  0  0  0  0  0  0  0  0  0  0
   27.2489  -16.6595  -16.7938 S   0  0  0  0  0  0  0  0  0  0  0  0
   28.2000  -17.9288  -15.9284 C   0  0  0  0  0  0  0  0  0  0  0  0
   27.2899  -18.8609  -15.1786 C   0  0  0  0  0  0  0  0  0  0  0  0
   28.0040  -19.8338  -14.2766 C   0  0  2  0  0  0  0  0  0  0  0  0
   28.7454  -20.7558  -15.1565 N   0  0  0  0  0  0  0  0  0  0  0  0
   27.0684  -20.5911  -13.4351 C   0  0  0  0  0  0  0  0  0  0  0  0
   26.5954  -21.6795  -13.8766 O   0  0  0  0  0  0  0  0  0  0  0  0
   26.6753  -20.1396  -12.1352 N   0  0  0  0  0  0  0  0  0  0  0  0
   25.7725  -20.9337  -11.3696 C   0  0  1  0  0  0  0  0  0  0  0  0
   25.8126  -20.6074   -9.8888 C   0  0  0  0  0  0  0  0  0  0  0  0
   27.1358  -20.8249   -9.3093 C   0  0  0  0  0  0  0  0  0  0  0  0
   28.1853  -21.5335   -9.8459 C   0  0  0  0  0  0  0  0  0  0  0  0
   29.2344  -21.4840   -8.9764 N   0  0  0  0  0  0  0  0  0  0  0  0
   28.8985  -20.7660   -7.8931 C   0  0  0  0  0  0  0  0  0  0  0  0
   29.5870  -20.4197   -6.7394 C   0  0  0  0  0  0  0  0  0  0  0  0
   29.0196  -19.6571   -5.7440 C   0  0  0  0  0  0  0  0  0  0  0  0
   27.7007  -19.2409   -5.9490 C   0  0  0  0  0  0  0  0  0  0  0  0
   27.0230  -19.5824   -7.0859 C   0  0  0  0  0  0  0  0  0  0  0  0
   27.5974  -20.3509   -8.0870 C   0  0  0  0  0  0  0  0  0  0  0  0
   24.3758  -20.5999  -11.8391 C   0  0  0  0  0  0  0  0  0  0  0  0
   24.0247  -19.4057  -12.0116 O   0  0  0  0  0  0  0  0  0  0  0  0
   23.4282  -21.6198  -12.0964 N   0  0  0  0  0  0  0  0  0  0  0  0
   22.0999  -21.3347  -12.6616 C   0  0  1  0  0  0  0  0  0  0  0  0
   21.4858  -22.5461  -13.2324 C   0  0  0  0  0  0  0  0  0  0  0  0
   20.2041  -22.2802  -13.9565 C   0  0  0  0  0  0  0  0  0  0  0  0
   19.1953  -23.3459  -13.6108 C   0  0  0  0  0  0  0  0  0  0  0  0
   17.9241  -23.1152  -14.4229 C   0  0  0  0  0  0  0  0  0  0  0  0
   16.9312  -24.0919  -14.0461 N   0  0  0  0  0  0  0  0  0  0  0  0
   21.2508  -20.7293  -11.6089 C   0  0  0  0  0  0  0  0  0  0  0  0
   20.5400  -19.7376  -11.7977 O   0  0  0  0  0  0  0  0  0  0  0  0
   21.2207  -21.2756  -10.3157 O   0  0  0  0  0  0  0  0  0  0  0  0
  2  1  1  0
  3  2  1  0
  4  3  1  0
  5  7  1  0
  5  4  1  0
  5  6  1  6
  7  8  2  0
  9 10  1  0
  9  7  1  0
 10 11  1  1
 11 12  1  0
 12 13  2  0
 12 20  1  0
 13 14  1  0
 14 15  1  0
 15 16  2  0
 16 17  1  0
 18 17  2  0
 19 18  1  0
 20 19  2  0
 20 15  1  0
 21 10  1  0
 22 21  2  0
 23 21  1  0
 24 25  1  1
 24 23  1  0
 25 26  1  0
 26 27  1  0
 27 28  1  0
 28 29  1  0
 30 24  1  0
 30 32  1  0
 31 30  2  0
M  END
$$$$
