KVK.pdb
     RDKit          3D

 26 25  0  0  1  0  0  0  0  0999 V2000
    6.6703  -18.9922   18.6400 N   0  0  0  0  0  0  0  0  0  0  0  0
    6.3358  -18.2796   19.8300 C   0  0  1  0  0  0  0  0  0  0  0  0
    6.2382  -19.0865   21.0816 C   0  0  0  0  0  0  0  0  0  0  0  0
    5.1700  -20.1117   21.0509 C   0  0  0  0  0  0  0  0  0  0  0  0
    4.9956  -20.9885   22.2242 C   0  0  0  0  0  0  0  0  0  0  0  0
    3.8235  -21.9082   22.1143 C   0  0  0  0  0  0  0  0  0  0  0  0
    3.5579  -22.7048   23.2662 N   0  0  0  0  0  0  0  0  0  0  0  0
    7.3546  -17.2024   20.0901 C   0  0  0  0  0  0  0  0  0  0  0  0
    8.5478  -17.4644   19.7739 O   0  0  0  0  0  0  0  0  0  0  0  0
    8.4620  -12.5384   21.2915 C   0  0  0  0  0  0  0  0  0  0  0  0
    7.4062  -13.5686   21.0023 C   0  0  1  0  0  0  0  0  0  0  0  0
    6.6838  -13.1535   19.7391 C   0  0  0  0  0  0  0  0  0  0  0  0
    7.9961  -14.9690   20.8857 C   0  0  2  0  0  0  0  0  0  0  0  0
    6.9920  -15.9484   20.6639 N   0  0  0  0  0  0  0  0  0  0  0  0
    8.8191  -15.2097   22.0896 C   0  0  0  0  0  0  0  0  0  0  0  0
    8.1813  -15.4595   23.1633 O   0  0  0  0  0  0  0  0  0  0  0  0
   10.2341  -15.1806   22.1233 N   0  0  0  0  0  0  0  0  0  0  0  0
   10.9860  -15.9225   23.1067 C   0  0  1  0  0  0  0  0  0  0  0  0
   10.6389  -17.3931   23.0402 C   0  0  0  0  0  0  0  0  0  0  0  0
   11.3797  -18.2317   24.0246 C   0  0  0  0  0  0  0  0  0  0  0  0
   10.9668  -19.6866   24.0222 C   0  0  0  0  0  0  0  0  0  0  0  0
   11.7380  -20.4288   25.0684 C   0  0  0  0  0  0  0  0  0  0  0  0
   11.2884  -21.8186   25.1440 N   0  0  0  0  0  0  0  0  0  0  0  0
   12.4362  -15.6765   22.9302 C   0  0  0  0  0  0  0  0  0  0  0  0
   12.8723  -15.0734   21.7670 O   0  0  0  0  0  0  0  0  0  0  0  0
   13.3013  -15.9866   23.7837 O   0  0  0  0  0  0  0  0  0  0  0  0
  2  1  1  6
  3  2  1  0
  4  3  1  0
  4  5  1  0
  6  5  1  0
  6  7  1  0
  8  9  2  0
  8  2  1  0
 11 10  1  6
 11 13  1  0
 12 11  1  0
 13 14  1  1
 14  8  1  0
 15 17  1  0
 15 13  1  0
 16 15  2  0
 18 17  1  0
 18 24  1  0
 18 19  1  6
 20 21  1  0
 20 19  1  0
 21 22  1  0
 23 22  1  0
 24 25  1  0
 26 24  2  0
M  END
$$$$
