KVK.pdb
     RDKit          3D

 26 25  0  0  1  0  0  0  0  0999 V2000
    7.4936  -16.6815   21.4120 N   0  0  0  0  0  0  0  0  0  0  0  0
    6.8708  -16.6847   22.6957 C   0  0  1  0  0  0  0  0  0  0  0  0
    6.7310  -18.0124   23.3625 C   0  0  0  0  0  0  0  0  0  0  0  0
    6.1259  -19.0539   22.5009 C   0  0  0  0  0  0  0  0  0  0  0  0
    5.8914  -20.3950   23.0689 C   0  0  0  0  0  0  0  0  0  0  0  0
    5.3327  -21.3712   22.0859 C   0  0  0  0  0  0  0  0  0  0  0  0
    5.1402  -22.6954   22.5772 N   0  0  0  0  0  0  0  0  0  0  0  0
    7.6399  -15.8049   23.6446 C   0  0  0  0  0  0  0  0  0  0  0  0
    8.8985  -15.8784   23.5897 O   0  0  0  0  0  0  0  0  0  0  0  0
    7.7645  -12.3242   27.1624 C   0  0  0  0  0  0  0  0  0  0  0  0
    6.9392  -13.1120   26.1838 C   0  0  1  0  0  0  0  0  0  0  0  0
    6.3561  -12.1424   25.1790 C   0  0  0  0  0  0  0  0  0  0  0  0
    7.7533  -14.2094   25.5085 C   0  0  2  0  0  0  0  0  0  0  0  0
    6.9819  -14.9312   24.5595 N   0  0  0  0  0  0  0  0  0  0  0  0
    8.3420  -15.0493   26.5727 C   0  0  0  0  0  0  0  0  0  0  0  0
    7.5194  -15.7222   27.2745 O   0  0  0  0  0  0  0  0  0  0  0  0
    9.7259  -15.1499   26.8536 N   0  0  0  0  0  0  0  0  0  0  0  0
   10.2340  -16.0579   27.8536 C   0  0  1  0  0  0  0  0  0  0  0  0
   11.6059  -16.5614   27.4639 C   0  0  0  0  0  0  0  0  0  0  0  0
   11.6593  -17.1738   26.1064 C   0  0  0  0  0  0  0  0  0  0  0  0
   13.0322  -17.6715   25.7132 C   0  0  0  0  0  0  0  0  0  0  0  0
   12.9864  -18.2246   24.3231 C   0  0  0  0  0  0  0  0  0  0  0  0
   14.3262  -18.6146   23.8846 N   0  0  0  0  0  0  0  0  0  0  0  0
   10.2294  -15.4046   29.1833 C   0  0  0  0  0  0  0  0  0  0  0  0
   10.3743  -16.1887   30.3107 O   0  0  0  0  0  0  0  0  0  0  0  0
   10.1004  -14.1680   29.3481 O   0  0  0  0  0  0  0  0  0  0  0  0
  2  1  1  6
  3  2  1  0
  4  3  1  0
  4  5  1  0
  6  5  1  0
  6  7  1  0
  8  9  2  0
  8  2  1  0
 11 10  1  1
 11 13  1  0
 12 11  1  0
 13 14  1  6
 14  8  1  0
 15 17  1  0
 15 13  1  0
 16 15  2  0
 18 17  1  0
 18 24  1  0
 18 19  1  6
 20 21  1  0
 20 19  1  0
 21 22  1  0
 23 22  1  0
 24 25  1  0
 26 24  2  0
M  END
$$$$
