KVK.pdb
     RDKit          3D

 26 25  0  0  1  0  0  0  0  0999 V2000
    9.0184  -17.7866   16.8686 N   0  0  0  0  0  0  0  0  0  0  0  0
    8.1624  -17.7069   18.0074 C   0  0  1  0  0  0  0  0  0  0  0  0
    7.8079  -18.9997   18.6631 C   0  0  0  0  0  0  0  0  0  0  0  0
    6.3530  -19.2743   18.6969 C   0  0  0  0  0  0  0  0  0  0  0  0
    5.6294  -19.4185   17.4195 C   0  0  0  0  0  0  0  0  0  0  0  0
    4.1756  -19.7187   17.5867 C   0  0  0  0  0  0  0  0  0  0  0  0
    3.3909  -19.6351   16.3995 N   0  0  0  0  0  0  0  0  0  0  0  0
    8.7932  -16.8447   19.0678 C   0  0  0  0  0  0  0  0  0  0  0  0
    9.9766  -17.1313   19.3996 O   0  0  0  0  0  0  0  0  0  0  0  0
    7.7132  -12.8638   19.8006 C   0  0  0  0  0  0  0  0  0  0  0  0
    7.9425  -13.7267   21.0099 C   0  0  1  0  0  0  0  0  0  0  0  0
    6.5929  -14.0562   21.6099 C   0  0  0  0  0  0  0  0  0  0  0  0
    8.7351  -14.9831   20.6689 C   0  0  2  0  0  0  0  0  0  0  0  0
    8.0916  -15.7581   19.6680 N   0  0  0  0  0  0  0  0  0  0  0  0
    8.9834  -15.7120   21.9306 C   0  0  0  0  0  0  0  0  0  0  0  0
    8.0317  -16.4476   22.3490 O   0  0  0  0  0  0  0  0  0  0  0  0
   10.1806  -15.6452   22.6831 N   0  0  0  0  0  0  0  0  0  0  0  0
   10.4042  -16.4903   23.8315 C   0  0  1  0  0  0  0  0  0  0  0  0
   11.0984  -17.7696   23.4207 C   0  0  0  0  0  0  0  0  0  0  0  0
   11.3232  -18.7207   24.5458 C   0  0  0  0  0  0  0  0  0  0  0  0
   11.9987  -20.0090   24.1323 C   0  0  0  0  0  0  0  0  0  0  0  0
   12.0970  -20.9252   25.3119 C   0  0  0  0  0  0  0  0  0  0  0  0
   12.7803  -22.1640   24.9404 N   0  0  0  0  0  0  0  0  0  0  0  0
   11.1563  -15.7486   24.8702 C   0  0  0  0  0  0  0  0  0  0  0  0
   11.1846  -16.2494   26.1568 O   0  0  0  0  0  0  0  0  0  0  0  0
   11.7760  -14.6809   24.6484 O   0  0  0  0  0  0  0  0  0  0  0  0
  2  1  1  6
  3  2  1  0
  4  3  1  0
  4  5  1  0
  6  5  1  0
  6  7  1  0
  8  9  2  0
  8  2  1  0
 11 10  1  6
 11 13  1  0
 12 11  1  0
 13 14  1  6
 14  8  1  0
 15 17  1  0
 15 13  1  0
 16 15  2  0
 18 17  1  0
 18 24  1  0
 18 19  1  6
 20 21  1  0
 20 19  1  0
 21 22  1  0
 23 22  1  0
 24 25  1  0
 26 24  2  0
M  END
$$$$
