KVK.pdb
     RDKit          3D

 26 25  0  0  1  0  0  0  0  0999 V2000
    6.7378  -15.6572   21.7473 N   0  0  0  0  0  0  0  0  0  0  0  0
    7.9574  -14.9267   21.6261 C   0  0  1  0  0  0  0  0  0  0  0  0
    7.9121  -13.6937   20.7867 C   0  0  0  0  0  0  0  0  0  0  0  0
    7.3859  -13.9187   19.4208 C   0  0  0  0  0  0  0  0  0  0  0  0
    7.9492  -13.1335   18.3062 C   0  0  0  0  0  0  0  0  0  0  0  0
    7.3456  -13.4607   16.9795 C   0  0  0  0  0  0  0  0  0  0  0  0
    7.8472  -12.7116   15.8753 N   0  0  0  0  0  0  0  0  0  0  0  0
    8.4432  -14.5041   22.9867 C   0  0  0  0  0  0  0  0  0  0  0  0
    9.6511  -14.1484   23.0705 O   0  0  0  0  0  0  0  0  0  0  0  0
    7.6088  -12.9992   27.5772 C   0  0  0  0  0  0  0  0  0  0  0  0
    7.0565  -13.4145   26.2422 C   0  0  1  0  0  0  0  0  0  0  0  0
    6.5099  -12.1796   25.5595 C   0  0  0  0  0  0  0  0  0  0  0  0
    8.1041  -14.1193   25.3887 C   0  0  2  0  0  0  0  0  0  0  0  0
    7.5839  -14.5039   24.1246 N   0  0  0  0  0  0  0  0  0  0  0  0
    8.6494  -15.2397   26.1837 C   0  0  0  0  0  0  0  0  0  0  0  0
    7.8261  -16.1617   26.4902 O   0  0  0  0  0  0  0  0  0  0  0  0
    9.9935  -15.3491   26.6146 N   0  0  0  0  0  0  0  0  0  0  0  0
   10.4340  -16.4318   27.4612 C   0  0  1  0  0  0  0  0  0  0  0  0
   11.5993  -17.1588   26.8281 C   0  0  0  0  0  0  0  0  0  0  0  0
   12.1334  -18.2767   27.6564 C   0  0  0  0  0  0  0  0  0  0  0  0
   13.3579  -18.9424   27.0694 C   0  0  0  0  0  0  0  0  0  0  0  0
   13.8359  -20.0184   27.9937 C   0  0  0  0  0  0  0  0  0  0  0  0
   15.0707  -20.6157   27.4862 N   0  0  0  0  0  0  0  0  0  0  0  0
   10.7554  -15.9211   28.8142 C   0  0  0  0  0  0  0  0  0  0  0  0
   10.7753  -16.8075   29.8729 O   0  0  0  0  0  0  0  0  0  0  0  0
   11.0134  -14.7183   29.0584 O   0  0  0  0  0  0  0  0  0  0  0  0
  2  1  1  1
  3  2  1  0
  4  3  1  0
  4  5  1  0
  6  5  1  0
  6  7  1  0
  8  9  2  0
  8  2  1  0
 11 10  1  1
 11 13  1  0
 12 11  1  0
 13 14  1  6
 14  8  1  0
 15 17  1  0
 15 13  1  0
 16 15  2  0
 18 17  1  0
 18 24  1  0
 18 19  1  6
 20 21  1  0
 20 19  1  0
 21 22  1  0
 23 22  1  0
 24 25  1  0
 26 24  2  0
M  END
$$$$
