KVK.pdb
     RDKit          3D

 26 25  0  0  1  0  0  0  0  0999 V2000
    6.6503  -15.7443   21.8487 N   0  0  0  0  0  0  0  0  0  0  0  0
    7.9065  -15.0786   21.7276 C   0  0  1  0  0  0  0  0  0  0  0  0
    7.9510  -13.9077   20.8035 C   0  0  0  0  0  0  0  0  0  0  0  0
    8.1980  -14.2707   19.3892 C   0  0  0  0  0  0  0  0  0  0  0  0
    7.7330  -13.3542   18.3309 C   0  0  0  0  0  0  0  0  0  0  0  0
    8.0800  -13.8094   16.9510 C   0  0  0  0  0  0  0  0  0  0  0  0
    7.5803  -12.9960   15.8924 N   0  0  0  0  0  0  0  0  0  0  0  0
    8.3592  -14.5818   23.0746 C   0  0  0  0  0  0  0  0  0  0  0  0
    9.5622  -14.2116   23.1656 O   0  0  0  0  0  0  0  0  0  0  0  0
    7.5007  -12.7352   27.5010 C   0  0  0  0  0  0  0  0  0  0  0  0
    6.9372  -13.2912   26.2230 C   0  0  1  0  0  0  0  0  0  0  0  0
    6.4047  -12.1340   25.4062 C   0  0  0  0  0  0  0  0  0  0  0  0
    7.9716  -14.1028   25.4522 C   0  0  2  0  0  0  0  0  0  0  0  0
    7.4752  -14.5305   24.1923 N   0  0  0  0  0  0  0  0  0  0  0  0
    8.4213  -15.2039   26.3296 C   0  0  0  0  0  0  0  0  0  0  0  0
    7.5249  -16.0324   26.6927 O   0  0  0  0  0  0  0  0  0  0  0  0
    9.7505  -15.3902   26.7799 N   0  0  0  0  0  0  0  0  0  0  0  0
   10.1063  -16.4674   27.6720 C   0  0  1  0  0  0  0  0  0  0  0  0
   11.1495  -17.3591   27.0361 C   0  0  0  0  0  0  0  0  0  0  0  0
   11.6039  -18.4746   27.9137 C   0  0  0  0  0  0  0  0  0  0  0  0
   12.6470  -19.3667   27.2787 C   0  0  0  0  0  0  0  0  0  0  0  0
   12.9988  -20.4760   28.2199 C   0  0  0  0  0  0  0  0  0  0  0  0
   13.9020  -21.4273   27.5728 N   0  0  0  0  0  0  0  0  0  0  0  0
   10.5492  -15.9225   28.9764 C   0  0  0  0  0  0  0  0  0  0  0  0
   10.4223  -16.7092   30.1042 O   0  0  0  0  0  0  0  0  0  0  0  0
   11.0381  -14.7763   29.1194 O   0  0  0  0  0  0  0  0  0  0  0  0
  2  1  1  1
  3  2  1  0
  4  3  1  0
  4  5  1  0
  6  5  1  0
  6  7  1  0
  8  9  2  0
  8  2  1  0
 11 10  1  1
 11 13  1  0
 12 11  1  0
 13 14  1  6
 14  8  1  0
 15 17  1  0
 15 13  1  0
 16 15  2  0
 18 17  1  0
 18 24  1  0
 18 19  1  6
 20 21  1  0
 20 19  1  0
 21 22  1  0
 23 22  1  0
 24 25  1  0
 26 24  2  0
M  END
$$$$
