KVK.pdb
     RDKit          3D

 26 25  0  0  1  0  0  0  0  0999 V2000
    8.4490  -14.2511   20.2780 N   0  0  0  0  0  0  0  0  0  0  0  0
    7.6158  -14.8183   21.2879 C   0  0  1  0  0  0  0  0  0  0  0  0
    7.4064  -16.2944   21.2239 C   0  0  0  0  0  0  0  0  0  0  0  0
    6.9037  -16.7714   19.9151 C   0  0  0  0  0  0  0  0  0  0  0  0
    6.7020  -18.2194   19.7186 C   0  0  0  0  0  0  0  0  0  0  0  0
    6.1860  -18.5724   18.3619 C   0  0  0  0  0  0  0  0  0  0  0  0
    5.8980  -19.9530   18.1545 N   0  0  0  0  0  0  0  0  0  0  0  0
    8.1821  -14.5221   22.6507 C   0  0  0  0  0  0  0  0  0  0  0  0
    9.4308  -14.6470   22.7835 O   0  0  0  0  0  0  0  0  0  0  0  0
    7.5783  -13.0567   27.3429 C   0  0  0  0  0  0  0  0  0  0  0  0
    7.0160  -13.1532   25.9521 C   0  0  1  0  0  0  0  0  0  0  0  0
    6.7866  -11.7465   25.4437 C   0  0  0  0  0  0  0  0  0  0  0  0
    7.9260  -13.9511   25.0258 C   0  0  2  0  0  0  0  0  0  0  0  0
    7.3519  -14.1197   23.7380 N   0  0  0  0  0  0  0  0  0  0  0  0
    8.2597  -15.2186   25.7090 C   0  0  0  0  0  0  0  0  0  0  0  0
    7.2926  -16.0259   25.8954 O   0  0  0  0  0  0  0  0  0  0  0  0
    9.5525  -15.5817   26.1573 N   0  0  0  0  0  0  0  0  0  0  0  0
    9.8139  -16.8657   26.7624 C   0  0  1  0  0  0  0  0  0  0  0  0
   10.9051  -17.5937   26.0096 C   0  0  0  0  0  0  0  0  0  0  0  0
   11.3432  -18.8608   26.6603 C   0  0  0  0  0  0  0  0  0  0  0  0
   12.5182  -19.5247   25.9779 C   0  0  0  0  0  0  0  0  0  0  0  0
   12.8807  -20.7789   26.7100 C   0  0  0  0  0  0  0  0  0  0  0  0
   13.9392  -21.4965   26.0001 N   0  0  0  0  0  0  0  0  0  0  0  0
   10.1361  -16.6953   28.1983 C   0  0  0  0  0  0  0  0  0  0  0  0
   10.0669  -17.7946   29.0311 O   0  0  0  0  0  0  0  0  0  0  0  0
   10.4718  -15.5998   28.7086 O   0  0  0  0  0  0  0  0  0  0  0  0
  2  1  1  6
  3  2  1  0
  4  3  1  0
  4  5  1  0
  6  5  1  0
  6  7  1  0
  8  9  2  0
  8  2  1  0
 11 10  1  1
 11 13  1  0
 12 11  1  0
 13 14  1  6
 14  8  1  0
 15 17  1  0
 15 13  1  0
 16 15  2  0
 18 17  1  0
 18 24  1  0
 18 19  1  6
 20 21  1  0
 20 19  1  0
 21 22  1  0
 23 22  1  0
 24 25  1  0
 26 24  2  0
M  END
$$$$
