KVK.pdb
     RDKit          3D

 26 25  0  0  1  0  0  0  0  0999 V2000
    7.2444  -17.1274   21.7268 N   0  0  0  0  0  0  0  0  0  0  0  0
    6.6055  -17.0450   22.9999 C   0  0  1  0  0  0  0  0  0  0  0  0
    6.4106  -18.3321   23.7294 C   0  0  0  0  0  0  0  0  0  0  0  0
    5.6086  -19.3279   22.9822 C   0  0  0  0  0  0  0  0  0  0  0  0
    5.3582  -20.6437   23.6004 C   0  0  0  0  0  0  0  0  0  0  0  0
    4.6194  -21.5906   22.7121 C   0  0  0  0  0  0  0  0  0  0  0  0
    4.2931  -22.8504   23.2939 N   0  0  0  0  0  0  0  0  0  0  0  0
    7.3928  -16.1459   23.9152 C   0  0  0  0  0  0  0  0  0  0  0  0
    8.6500  -16.2134   23.8300 O   0  0  0  0  0  0  0  0  0  0  0  0
    7.7550  -12.2895   26.9150 C   0  0  0  0  0  0  0  0  0  0  0  0
    6.8712  -13.1615   26.0676 C   0  0  1  0  0  0  0  0  0  0  0  0
    6.4879  -12.3759   24.8324 C   0  0  0  0  0  0  0  0  0  0  0  0
    7.5461  -14.4817   25.7151 C   0  0  2  0  0  0  0  0  0  0  0  0
    6.7527  -15.2612   24.8321 N   0  0  0  0  0  0  0  0  0  0  0  0
    7.8866  -15.1628   26.9818 C   0  0  0  0  0  0  0  0  0  0  0  0
    7.1444  -16.1454   27.3065 O   0  0  0  0  0  0  0  0  0  0  0  0
    8.9573  -14.8008   27.8343 N   0  0  0  0  0  0  0  0  0  0  0  0
    9.8670  -15.7844   28.3709 C   0  0  1  0  0  0  0  0  0  0  0  0
   10.5744  -16.5174   27.2529 C   0  0  0  0  0  0  0  0  0  0  0  0
   10.6414  -17.9933   27.4484 C   0  0  0  0  0  0  0  0  0  0  0  0
   11.2884  -18.7339   26.2995 C   0  0  0  0  0  0  0  0  0  0  0  0
   11.3295  -20.1984   26.6060 C   0  0  0  0  0  0  0  0  0  0  0  0
   12.0098  -20.9252   25.5345 N   0  0  0  0  0  0  0  0  0  0  0  0
   10.8137  -15.1420   29.3120 C   0  0  0  0  0  0  0  0  0  0  0  0
   11.1196  -13.8063   29.1405 O   0  0  0  0  0  0  0  0  0  0  0  0
   11.3601  -15.7454   30.2661 O   0  0  0  0  0  0  0  0  0  0  0  0
  2  1  1  6
  3  2  1  0
  4  3  1  0
  4  5  1  0
  6  5  1  0
  6  7  1  0
  8  9  2  0
  8  2  1  0
 11 10  1  1
 11 13  1  0
 12 11  1  0
 13 14  1  6
 14  8  1  0
 15 17  1  0
 15 13  1  0
 16 15  2  0
 18 17  1  0
 18 24  1  0
 18 19  1  6
 20 21  1  0
 20 19  1  0
 21 22  1  0
 23 22  1  0
 24 25  1  0
 26 24  2  0
M  END
$$$$
