NWS.pdb
     RDKit          3D

 29 30  0  0  1  0  0  0  0  0999 V2000
   27.1365  -19.7936  -18.0450 N   0  0  0  0  0  0  0  0  0  0  0  0
   27.6162  -19.5621  -16.7328 C   0  0  0  0  0  0  0  0  0  0  0  0
   28.6477  -18.8651  -16.5787 O   0  0  0  0  0  0  0  0  0  0  0  0
   26.8939  -20.1501  -15.5846 C   0  0  0  0  0  0  0  0  0  0  0  0
   27.9523  -20.6594  -14.6058 C   0  0  2  0  0  0  0  0  0  0  0  0
   28.4473  -21.8998  -15.2034 N   0  0  0  0  0  0  0  0  0  0  0  0
   27.1613  -20.9954  -13.3521 C   0  0  0  0  0  0  0  0  0  0  0  0
   26.1684  -21.7510  -13.4290 O   0  0  0  0  0  0  0  0  0  0  0  0
   27.5510  -20.4571  -12.1144 N   0  0  0  0  0  0  0  0  0  0  0  0
   26.9198  -20.6895  -10.8755 C   0  0  1  0  0  0  0  0  0  0  0  0
   27.6586  -20.1950   -9.6390 C   0  0  0  0  0  0  0  0  0  0  0  0
   26.9125  -20.4656   -8.3838 C   0  0  0  0  0  0  0  0  0  0  0  0
   25.6751  -21.0114   -8.1644 C   0  0  0  0  0  0  0  0  0  0  0  0
   25.3919  -21.0363   -6.8641 N   0  0  0  0  0  0  0  0  0  0  0  0
   26.4441  -20.5067   -6.2150 C   0  0  0  0  0  0  0  0  0  0  0  0
   26.6454  -20.2998   -4.8486 C   0  0  0  0  0  0  0  0  0  0  0  0
   27.8288  -19.7247   -4.4356 C   0  0  0  0  0  0  0  0  0  0  0  0
   28.8074  -19.3514   -5.3122 C   0  0  0  0  0  0  0  0  0  0  0  0
   28.5810  -19.5674   -6.6778 C   0  0  0  0  0  0  0  0  0  0  0  0
   27.4149  -20.1379   -7.1325 C   0  0  0  0  0  0  0  0  0  0  0  0
   25.5062  -20.3185  -10.8994 C   0  0  0  0  0  0  0  0  0  0  0  0
   25.2245  -19.0536  -10.8776 O   0  0  0  0  0  0  0  0  0  0  0  0
   21.2038  -21.3588  -12.6023 O   0  0  0  0  0  0  0  0  0  0  0  0
   22.4443  -21.8541  -12.2051 C   0  0  0  0  0  0  0  0  0  0  0  0
   23.1541  -20.8037  -11.4186 C   0  0  2  0  0  0  0  0  0  0  0  0
   24.4419  -21.2553  -10.9402 N   0  0  0  0  0  0  0  0  0  0  0  0
   22.3039  -20.4686  -10.2274 C   0  0  0  0  0  0  0  0  0  0  0  0
   21.1141  -19.7880  -10.3322 O   0  0  0  0  0  0  0  0  0  0  0  0
   22.7090  -20.8314   -9.0949 O   0  0  0  0  0  0  0  0  0  0  0  0
  2  1  1  0
  3  2  2  0
  4  5  1  0
  4  2  1  0
  5  6  1  6
  7  8  2  0
  7  5  1  0
  9  7  1  0
 10  9  1  0
 11 12  1  0
 10 11  1  1
 12 13  2  0
 12 20  1  0
 13 14  1  0
 14 15  1  0
 15 16  2  0
 16 17  1  0
 18 17  2  0
 19 18  1  0
 20 19  2  0
 20 15  1  0
 21 22  2  0
 21 10  1  0
 23 24  1  0
 25 26  1  0
 25 24  1  1
 26 21  1  0
 27 25  1  0
 28 27  1  0
 29 27  2  0
M  END
$$$$
