NWS.pdb
     RDKit          3D

 29 30  0  0  1  0  0  0  0  0999 V2000
   27.7130  -22.6643  -19.8611 N   0  0  0  0  0  0  0  0  0  0  0  0
   27.7412  -21.7970  -18.7419 C   0  0  0  0  0  0  0  0  0  0  0  0
   28.5550  -20.8425  -18.7351 O   0  0  0  0  0  0  0  0  0  0  0  0
   26.8175  -22.0421  -17.6139 C   0  0  0  0  0  0  0  0  0  0  0  0
   27.6721  -22.4879  -16.4270 C   0  0  2  0  0  0  0  0  0  0  0  0
   27.9248  -23.9098  -16.6623 N   0  0  0  0  0  0  0  0  0  0  0  0
   26.7449  -22.3413  -15.2316 C   0  0  0  0  0  0  0  0  0  0  0  0
   26.1912  -23.3526  -14.7484 O   0  0  0  0  0  0  0  0  0  0  0  0
   26.5169  -21.0717  -14.6752 N   0  0  0  0  0  0  0  0  0  0  0  0
   25.7364  -20.7964  -13.5340 C   0  0  1  0  0  0  0  0  0  0  0  0
   26.3122  -19.7858  -12.5509 C   0  0  0  0  0  0  0  0  0  0  0  0
   27.3906  -20.3620  -11.7082 C   0  0  0  0  0  0  0  0  0  0  0  0
   28.6320  -20.8449  -12.0294 C   0  0  0  0  0  0  0  0  0  0  0  0
   29.2592  -21.2976  -10.9463 N   0  0  0  0  0  0  0  0  0  0  0  0
   28.4340  -21.1148   -9.9001 C   0  0  0  0  0  0  0  0  0  0  0  0
   28.6128  -21.4244   -8.5500 C   0  0  0  0  0  0  0  0  0  0  0  0
   27.5943  -21.1354   -7.6663 C   0  0  0  0  0  0  0  0  0  0  0  0
   26.4210  -20.5595   -8.0630 C   0  0  0  0  0  0  0  0  0  0  0  0
   26.2649  -20.2604   -9.4227 C   0  0  0  0  0  0  0  0  0  0  0  0
   27.2553  -20.5320  -10.3377 C   0  0  0  0  0  0  0  0  0  0  0  0
   24.3353  -20.5516  -13.8709 C   0  0  0  0  0  0  0  0  0  0  0  0
   24.0906  -19.6577  -14.7770 O   0  0  0  0  0  0  0  0  0  0  0  0
   21.4015  -23.1242  -13.2626 O   0  0  0  0  0  0  0  0  0  0  0  0
   21.1129  -22.0564  -14.1102 C   0  0  0  0  0  0  0  0  0  0  0  0
   21.9065  -20.8691  -13.6785 C   0  0  2  0  0  0  0  0  0  0  0  0
   23.2452  -21.2271  -13.2650 N   0  0  0  0  0  0  0  0  0  0  0  0
   21.2044  -20.2493  -12.5051 C   0  0  0  0  0  0  0  0  0  0  0  0
   19.9023  -19.8124  -12.5648 O   0  0  0  0  0  0  0  0  0  0  0  0
   21.8456  -20.1315  -11.4312 O   0  0  0  0  0  0  0  0  0  0  0  0
  2  1  1  0
  3  2  2  0
  4  5  1  0
  4  2  1  0
  5  6  1  6
  7  8  2  0
  7  5  1  0
  9  7  1  0
 10  9  1  0
 11 12  1  0
 10 11  1  6
 12 13  2  0
 12 20  1  0
 13 14  1  0
 14 15  1  0
 15 16  2  0
 16 17  1  0
 18 17  2  0
 19 18  1  0
 20 19  2  0
 20 15  1  0
 21 22  2  0
 21 10  1  0
 23 24  1  0
 25 26  1  0
 25 24  1  1
 26 21  1  0
 27 25  1  0
 28 27  1  0
 29 27  2  0
M  END
$$$$
