NWS.pdb
     RDKit          3D

 29 30  0  0  1  0  0  0  0  0999 V2000
   24.6522  -20.3206  -15.8551 N   0  0  0  0  0  0  0  0  0  0  0  0
   24.7388  -19.6546  -14.6082 C   0  0  0  0  0  0  0  0  0  0  0  0
   25.0020  -18.4283  -14.5931 O   0  0  0  0  0  0  0  0  0  0  0  0
   24.5226  -20.4211  -13.3626 C   0  0  0  0  0  0  0  0  0  0  0  0
   25.8251  -20.3514  -12.5648 C   0  0  2  0  0  0  0  0  0  0  0  0
   26.7510  -21.2263  -13.2847 N   0  0  0  0  0  0  0  0  0  0  0  0
   25.4738  -20.9923  -11.2321 C   0  0  0  0  0  0  0  0  0  0  0  0
   25.3430  -22.2332  -11.1558 O   0  0  0  0  0  0  0  0  0  0  0  0
   25.3002  -20.1877  -10.0937 N   0  0  0  0  0  0  0  0  0  0  0  0
   25.0405  -20.6482   -8.7868 C   0  0  1  0  0  0  0  0  0  0  0  0
   25.6357  -19.8261   -7.6514 C   0  0  0  0  0  0  0  0  0  0  0  0
   27.0806  -20.1009   -7.4463 C   0  0  0  0  0  0  0  0  0  0  0  0
   28.0035  -20.7363   -8.2348 C   0  0  0  0  0  0  0  0  0  0  0  0
   29.1899  -20.7818   -7.6333 N   0  0  0  0  0  0  0  0  0  0  0  0
   29.0576  -20.1738   -6.4408 C   0  0  0  0  0  0  0  0  0  0  0  0
   29.9989  -19.9619   -5.4311 C   0  0  0  0  0  0  0  0  0  0  0  0
   29.6008  -19.3063   -4.2850 C   0  0  0  0  0  0  0  0  0  0  0  0
   28.3233  -18.8588   -4.1027 C   0  0  0  0  0  0  0  0  0  0  0  0
   27.3971  -19.0852   -5.1291 C   0  0  0  0  0  0  0  0  0  0  0  0
   27.7520  -19.7350   -6.2883 C   0  0  0  0  0  0  0  0  0  0  0  0
   23.6311  -20.9821   -8.5904 C   0  0  0  0  0  0  0  0  0  0  0  0
   22.7542  -20.1277   -9.0160 O   0  0  0  0  0  0  0  0  0  0  0  0
   20.0501  -23.9378   -7.3805 O   0  0  0  0  0  0  0  0  0  0  0  0
   21.4285  -23.7426   -7.3178 C   0  0  0  0  0  0  0  0  0  0  0  0
   21.7532  -22.4048   -7.8928 C   0  0  2  0  0  0  0  0  0  0  0  0
   23.1786  -22.1717   -7.9643 N   0  0  0  0  0  0  0  0  0  0  0  0
   21.1531  -21.3613   -6.9956 C   0  0  0  0  0  0  0  0  0  0  0  0
   19.8134  -21.0532   -7.0075 O   0  0  0  0  0  0  0  0  0  0  0  0
   21.9186  -20.7527   -6.2070 O   0  0  0  0  0  0  0  0  0  0  0  0
  2  1  1  0
  3  2  2  0
  4  5  1  0
  4  2  1  0
  5  6  1  6
  7  8  2  0
  7  5  1  0
  9  7  1  0
 10  9  1  0
 11 12  1  0
 10 11  1  1
 12 13  2  0
 12 20  1  0
 13 14  1  0
 14 15  1  0
 15 16  2  0
 16 17  1  0
 18 17  2  0
 19 18  1  0
 20 19  2  0
 20 15  1  0
 21 22  2  0
 21 10  1  0
 23 24  1  0
 25 26  1  0
 25 24  1  1
 26 21  1  0
 27 25  1  0
 28 27  1  0
 29 27  2  0
M  END
$$$$
