NWS.pdb
     RDKit          3D

 29 30  0  0  1  0  0  0  0  0999 V2000
   29.4779  -19.8666  -16.4191 N   0  0  0  0  0  0  0  0  0  0  0  0
   28.3315  -19.1086  -16.0775 C   0  0  0  0  0  0  0  0  0  0  0  0
   28.1172  -18.0292  -16.6795 O   0  0  0  0  0  0  0  0  0  0  0  0
   27.4244  -19.6055  -15.0211 C   0  0  0  0  0  0  0  0  0  0  0  0
   28.0421  -20.8921  -14.4725 C   0  0  2  0  0  0  0  0  0  0  0  0
   27.7488  -21.9078  -15.4840 N   0  0  0  0  0  0  0  0  0  0  0  0
   27.2269  -21.1872  -13.2240 C   0  0  0  0  0  0  0  0  0  0  0  0
   26.1242  -21.7673  -13.3259 O   0  0  0  0  0  0  0  0  0  0  0  0
   27.7172  -20.8086  -11.9632 N   0  0  0  0  0  0  0  0  0  0  0  0
   27.0297  -20.9274  -10.7383 C   0  0  1  0  0  0  0  0  0  0  0  0
   27.8466  -20.6707   -9.4788 C   0  0  0  0  0  0  0  0  0  0  0  0
   27.0049  -20.6100   -8.2568 C   0  0  0  0  0  0  0  0  0  0  0  0
   25.6820  -20.9017   -8.0518 C   0  0  0  0  0  0  0  0  0  0  0  0
   25.3362  -20.6712   -6.7874 N   0  0  0  0  0  0  0  0  0  0  0  0
   26.4323  -20.2258   -6.1475 C   0  0  0  0  0  0  0  0  0  0  0  0
   26.6004  -19.8391   -4.8161 C   0  0  0  0  0  0  0  0  0  0  0  0
   27.8448  -19.4089   -4.4061 C   0  0  0  0  0  0  0  0  0  0  0  0
   28.9148  -19.3474   -5.2527 C   0  0  0  0  0  0  0  0  0  0  0  0
   28.7204  -19.7387   -6.5838 C   0  0  0  0  0  0  0  0  0  0  0  0
   27.4958  -20.1740   -7.0344 C   0  0  0  0  0  0  0  0  0  0  0  0
   25.7472  -20.2265  -10.7563 C   0  0  0  0  0  0  0  0  0  0  0  0
   25.7785  -18.9312  -10.7221 O   0  0  0  0  0  0  0  0  0  0  0  0
   22.9633  -21.5611  -12.8369 O   0  0  0  0  0  0  0  0  0  0  0  0
   22.8065  -20.2322  -12.4479 C   0  0  0  0  0  0  0  0  0  0  0  0
   23.3129  -20.0745  -11.0534 C   0  0  2  0  0  0  0  0  0  0  0  0
   24.4886  -20.8788  -10.8042 N   0  0  0  0  0  0  0  0  0  0  0  0
   22.2296  -20.5270  -10.1175 C   0  0  0  0  0  0  0  0  0  0  0  0
   20.9661  -19.9853  -10.1268 O   0  0  0  0  0  0  0  0  0  0  0  0
   22.5036  -21.4386   -9.2976 O   0  0  0  0  0  0  0  0  0  0  0  0
  2  1  1  0
  3  2  2  0
  4  5  1  0
  4  2  1  0
  5  6  1  6
  7  8  2  0
  7  5  1  0
  9  7  1  0
 10  9  1  0
 11 12  1  0
 10 11  1  1
 12 13  2  0
 12 20  1  0
 13 14  1  0
 14 15  1  0
 15 16  2  0
 16 17  1  0
 18 17  2  0
 19 18  1  0
 20 19  2  0
 20 15  1  0
 21 22  2  0
 21 10  1  0
 23 24  1  0
 25 26  1  0
 25 24  1  6
 26 21  1  0
 27 25  1  0
 28 27  1  0
 29 27  2  0
M  END
$$$$
