NWS.pdb
     RDKit          3D

 29 30  0  0  1  0  0  0  0  0999 V2000
   28.4193  -16.2863  -15.0057 N   0  0  0  0  0  0  0  0  0  0  0  0
   27.4916  -16.9348  -15.8568 C   0  0  0  0  0  0  0  0  0  0  0  0
   27.4007  -16.5615  -17.0508 O   0  0  0  0  0  0  0  0  0  0  0  0
   26.6548  -18.0269  -15.3155 C   0  0  0  0  0  0  0  0  0  0  0  0
   27.5654  -18.8995  -14.4512 C   0  0  2  0  0  0  0  0  0  0  0  0
   28.4772  -19.5408  -15.3989 N   0  0  0  0  0  0  0  0  0  0  0  0
   26.6294  -19.9503  -13.8767 C   0  0  0  0  0  0  0  0  0  0  0  0
   26.3311  -20.9547  -14.5587 O   0  0  0  0  0  0  0  0  0  0  0  0
   26.1065  -19.7885  -12.5830 N   0  0  0  0  0  0  0  0  0  0  0  0
   25.3256  -20.7302  -11.8824 C   0  0  1  0  0  0  0  0  0  0  0  0
   25.4527  -20.7162  -10.3649 C   0  0  0  0  0  0  0  0  0  0  0  0
   26.8501  -20.9271   -9.9086 C   0  0  0  0  0  0  0  0  0  0  0  0
   27.9115  -21.5592  -10.5011 C   0  0  0  0  0  0  0  0  0  0  0  0
   28.9805  -21.5345   -9.7084 N   0  0  0  0  0  0  0  0  0  0  0  0
   28.6307  -20.8829   -8.5850 C   0  0  0  0  0  0  0  0  0  0  0  0
   29.3815  -20.5935   -7.4435 C   0  0  0  0  0  0  0  0  0  0  0  0
   28.7763  -19.9064   -6.4123 C   0  0  0  0  0  0  0  0  0  0  0  0
   27.4733  -19.5006   -6.4672 C   0  0  0  0  0  0  0  0  0  0  0  0
   26.7405  -19.8046   -7.6219 C   0  0  0  0  0  0  0  0  0  0  0  0
   27.3053  -20.4881   -8.6735 C   0  0  0  0  0  0  0  0  0  0  0  0
   23.9420  -20.7575  -12.3530 C   0  0  0  0  0  0  0  0  0  0  0  0
   23.2871  -19.6391  -12.3348 O   0  0  0  0  0  0  0  0  0  0  0  0
   20.0627  -22.8985  -14.2046 O   0  0  0  0  0  0  0  0  0  0  0  0
   21.3901  -23.0847  -13.8235 C   0  0  0  0  0  0  0  0  0  0  0  0
   21.9099  -21.8109  -13.2462 C   0  0  2  0  0  0  0  0  0  0  0  0
   23.2862  -21.9262  -12.8177 N   0  0  0  0  0  0  0  0  0  0  0  0
   21.0727  -21.4753  -12.0460 C   0  0  0  0  0  0  0  0  0  0  0  0
   19.9603  -20.6709  -12.1179 O   0  0  0  0  0  0  0  0  0  0  0  0
   21.4150  -21.9565  -10.9371 O   0  0  0  0  0  0  0  0  0  0  0  0
  2  1  1  0
  3  2  2  0
  4  5  1  0
  4  2  1  0
  5  6  1  6
  7  8  2  0
  7  5  1  0
  9  7  1  0
 10  9  1  0
 11 12  1  0
 10 11  1  1
 12 13  2  0
 12 20  1  0
 13 14  1  0
 14 15  1  0
 15 16  2  0
 16 17  1  0
 18 17  2  0
 19 18  1  0
 20 19  2  0
 20 15  1  0
 21 22  2  0
 21 10  1  0
 23 24  1  0
 25 26  1  0
 25 24  1  1
 26 21  1  0
 27 25  1  0
 28 27  1  0
 29 27  2  0
M  END
$$$$
