ELV.pdb
     RDKit          3D

 25 24  0  0  1  0  0  0  0  0999 V2000
   11.1058  -18.6936   20.8492 N   0  0  0  0  0  0  0  0  0  0  0  0
   12.1668  -17.9534   21.4873 C   0  0  1  0  0  0  0  0  0  0  0  0
   13.0461  -17.3512   20.4510 C   0  0  0  0  0  0  0  0  0  0  0  0
   13.8225  -18.3105   19.6104 C   0  0  0  0  0  0  0  0  0  0  0  0
   14.8430  -17.6819   18.7546 C   0  0  0  0  0  0  0  0  0  0  0  0
   14.7822  -16.5007   18.3528 O   0  0  0  0  0  0  0  0  0  0  0  0
   11.5496  -16.9468   22.3884 C   0  0  0  0  0  0  0  0  0  0  0  0
   12.2349  -16.0801   22.9744 O   0  0  0  0  0  0  0  0  0  0  0  0
   15.9654  -18.4204   18.3447 O   0  0  0  0  0  0  0  0  0  0  0  0
    8.2216  -13.7896   21.8541 C   0  0  0  0  0  0  0  0  0  0  0  0
    7.6666  -15.1643   21.9949 C   0  0  2  0  0  0  0  0  0  0  0  0
    6.1485  -15.1151   21.8910 C   0  0  0  0  0  0  0  0  0  0  0  0
    8.0499  -15.7732   23.3274 C   0  0  0  0  0  0  0  0  0  0  0  0
    9.5209  -15.9326   23.4871 C   0  0  2  0  0  0  0  0  0  0  0  0
   10.1589  -16.8866   22.6534 N   0  0  0  0  0  0  0  0  0  0  0  0
    9.8912  -16.2191   24.9046 C   0  0  0  0  0  0  0  0  0  0  0  0
   10.3056  -17.3793   25.2501 O   0  0  0  0  0  0  0  0  0  0  0  0
   10.1221  -13.0361   27.5205 C   0  0  0  0  0  0  0  0  0  0  0  0
    9.7306  -14.3364   28.1796 C   0  0  2  0  0  0  0  0  0  0  0  0
   10.2259  -14.3964   29.5767 C   0  0  0  0  0  0  0  0  0  0  0  0
   10.1277  -15.5105   27.3277 C   0  0  2  0  0  0  0  0  0  0  0  0
    9.8145  -15.2646   25.9344 N   0  0  0  0  0  0  0  0  0  0  0  0
    9.5979  -16.7923   27.8106 C   0  0  0  0  0  0  0  0  0  0  0  0
   10.2533  -17.5844   28.7746 O   0  0  0  0  0  0  0  0  0  0  0  0
    8.5121  -17.2631   27.3845 O   0  0  0  0  0  0  0  0  0  0  0  0
  2  1  1  6
  3  2  1  0
  4  3  1  0
  5  4  1  0
  5  6  2  0
  7  2  1  0
  7  8  2  0
  9  5  1  0
 11 10  1  1
 11 12  1  0
 11 13  1  0
 14 15  1  0
 14 13  1  1
 15  7  1  0
 16 14  1  0
 17 16  2  0
 19 18  1  6
 20 19  1  0
 21 19  1  0
 21 22  1  6
 22 16  1  0
 23 24  1  0
 23 21  1  0
 25 23  2  0
M  END
$$$$
