ELV.pdb
     RDKit          3D

 25 24  0  0  1  0  0  0  0  0999 V2000
   10.3138  -16.3435   20.1548 N   0  0  0  0  0  0  0  0  0  0  0  0
    9.7810  -16.9737   21.3378 C   0  0  1  0  0  0  0  0  0  0  0  0
   10.6382  -18.1279   21.7155 C   0  0  0  0  0  0  0  0  0  0  0  0
   10.5644  -19.3212   20.8209 C   0  0  0  0  0  0  0  0  0  0  0  0
   11.4003  -20.4555   21.2492 C   0  0  0  0  0  0  0  0  0  0  0  0
   12.1139  -20.4456   22.2744 O   0  0  0  0  0  0  0  0  0  0  0  0
    9.6821  -15.9442   22.4039 C   0  0  0  0  0  0  0  0  0  0  0  0
   10.5821  -15.0947   22.5839 O   0  0  0  0  0  0  0  0  0  0  0  0
   11.4242  -21.6354   20.4873 O   0  0  0  0  0  0  0  0  0  0  0  0
    5.8351  -12.9954   26.2659 C   0  0  0  0  0  0  0  0  0  0  0  0
    7.2035  -13.3735   25.8165 C   0  0  2  0  0  0  0  0  0  0  0  0
    7.8767  -12.1734   25.1649 C   0  0  0  0  0  0  0  0  0  0  0  0
    7.1549  -14.5125   24.8197 C   0  0  0  0  0  0  0  0  0  0  0  0
    8.5075  -14.9844   24.4165 C   0  0  2  0  0  0  0  0  0  0  0  0
    8.5801  -15.8418   23.2887 N   0  0  0  0  0  0  0  0  0  0  0  0
    9.2232  -15.6353   25.5534 C   0  0  0  0  0  0  0  0  0  0  0  0
    9.3878  -16.9039   25.5817 O   0  0  0  0  0  0  0  0  0  0  0  0
    9.6448  -14.1167   29.5929 C   0  0  0  0  0  0  0  0  0  0  0  0
   10.8558  -14.4664   28.7624 C   0  0  2  0  0  0  0  0  0  0  0  0
   11.4979  -13.2460   28.2155 C   0  0  0  0  0  0  0  0  0  0  0  0
   10.5165  -15.5066   27.7306 C   0  0  2  0  0  0  0  0  0  0  0  0
    9.7536  -14.9246   26.6448 N   0  0  0  0  0  0  0  0  0  0  0  0
    9.8804  -16.7052   28.2922 C   0  0  0  0  0  0  0  0  0  0  0  0
   10.5640  -17.6344   29.1020 O   0  0  0  0  0  0  0  0  0  0  0  0
    8.6703  -16.9747   28.0791 O   0  0  0  0  0  0  0  0  0  0  0  0
  2  1  1  6
  3  2  1  0
  4  3  1  0
  5  4  1  0
  5  6  2  0
  7  2  1  0
  7  8  2  0
  9  5  1  0
 11 10  1  6
 11 12  1  0
 11 13  1  0
 14 15  1  0
 14 13  1  1
 15  7  1  0
 16 14  1  0
 17 16  2  0
 19 18  1  6
 20 19  1  0
 21 19  1  0
 21 22  1  6
 22 16  1  0
 23 24  1  0
 23 21  1  0
 25 23  2  0
M  END
$$$$
