ELV.pdb
     RDKit          3D

 25 24  0  0  1  0  0  0  0  0999 V2000
    9.3874  -15.7309   20.2817 N   0  0  0  0  0  0  0  0  0  0  0  0
    8.6802  -16.3223   21.3910 C   0  0  1  0  0  0  0  0  0  0  0  0
    9.1102  -17.7354   21.5584 C   0  0  0  0  0  0  0  0  0  0  0  0
    8.4515  -18.7327   20.6634 C   0  0  0  0  0  0  0  0  0  0  0  0
    8.8566  -20.1280   20.9046 C   0  0  0  0  0  0  0  0  0  0  0  0
    9.9979  -20.5730   20.6603 O   0  0  0  0  0  0  0  0  0  0  0  0
    8.9293  -15.4880   22.5943 C   0  0  0  0  0  0  0  0  0  0  0  0
   10.0730  -15.0706   22.8804 O   0  0  0  0  0  0  0  0  0  0  0  0
    7.9347  -21.0428   21.4398 O   0  0  0  0  0  0  0  0  0  0  0  0
    6.0476  -12.2729   27.0929 C   0  0  0  0  0  0  0  0  0  0  0  0
    7.2876  -12.8347   26.4893 C   0  0  2  0  0  0  0  0  0  0  0  0
    8.2900  -11.7149   26.2465 C   0  0  0  0  0  0  0  0  0  0  0  0
    6.9901  -13.5236   25.1739 C   0  0  0  0  0  0  0  0  0  0  0  0
    8.1108  -14.3843   24.7070 C   0  0  2  0  0  0  0  0  0  0  0  0
    7.9104  -15.1035   23.5008 N   0  0  0  0  0  0  0  0  0  0  0  0
    8.5429  -15.3446   25.7651 C   0  0  0  0  0  0  0  0  0  0  0  0
    7.7311  -16.2212   26.2231 O   0  0  0  0  0  0  0  0  0  0  0  0
   12.6987  -15.5905   27.2148 C   0  0  0  0  0  0  0  0  0  0  0  0
   11.7525  -16.7276   26.9146 C   0  0  2  0  0  0  0  0  0  0  0  0
   11.9431  -17.2289   25.5314 C   0  0  0  0  0  0  0  0  0  0  0  0
   10.3360  -16.3496   27.2497 C   0  0  2  0  0  0  0  0  0  0  0  0
    9.8347  -15.3571   26.3205 N   0  0  0  0  0  0  0  0  0  0  0  0
   10.1489  -15.9586   28.6529 C   0  0  0  0  0  0  0  0  0  0  0  0
   10.3140  -16.8508   29.7314 O   0  0  0  0  0  0  0  0  0  0  0  0
    9.8255  -14.7870   28.9767 O   0  0  0  0  0  0  0  0  0  0  0  0
  2  1  1  6
  3  2  1  0
  4  3  1  0
  5  4  1  0
  5  6  2  0
  7  2  1  0
  7  8  2  0
  9  5  1  0
 11 10  1  6
 11 12  1  0
 11 13  1  0
 14 15  1  0
 14 13  1  1
 15  7  1  0
 16 14  1  0
 17 16  2  0
 19 18  1  6
 20 19  1  0
 21 19  1  0
 21 22  1  6
 22 16  1  0
 23 24  1  0
 23 21  1  0
 25 23  2  0
M  END
$$$$
