ELV.pdb
     RDKit          3D

 25 24  0  0  1  0  0  0  0  0999 V2000
   12.0429  -17.3266   19.6937 N   0  0  0  0  0  0  0  0  0  0  0  0
   11.1862  -17.7644   20.7683 C   0  0  1  0  0  0  0  0  0  0  0  0
   11.9253  -18.7181   21.6366 C   0  0  0  0  0  0  0  0  0  0  0  0
   12.2118  -20.0587   21.0445 C   0  0  0  0  0  0  0  0  0  0  0  0
   12.8784  -20.9990   21.9613 C   0  0  0  0  0  0  0  0  0  0  0  0
   13.1217  -22.1912   21.6788 O   0  0  0  0  0  0  0  0  0  0  0  0
   10.7070  -16.5612   21.4955 C   0  0  0  0  0  0  0  0  0  0  0  0
   11.4998  -15.7043   21.9442 O   0  0  0  0  0  0  0  0  0  0  0  0
   13.2792  -20.5687   23.2369 O   0  0  0  0  0  0  0  0  0  0  0  0
    8.6279  -12.7480   20.7658 C   0  0  0  0  0  0  0  0  0  0  0  0
    7.6733  -13.8877   20.6792 C   0  0  2  0  0  0  0  0  0  0  0  0
    6.3023  -13.3747   20.2607 C   0  0  0  0  0  0  0  0  0  0  0  0
    7.5485  -14.5969   22.0114 C   0  0  0  0  0  0  0  0  0  0  0  0
    8.8341  -15.1874   22.4733 C   0  0  2  0  0  0  0  0  0  0  0  0
    9.3373  -16.2900   21.7363 N   0  0  0  0  0  0  0  0  0  0  0  0
    8.7764  -15.5681   23.9156 C   0  0  0  0  0  0  0  0  0  0  0  0
    8.7817  -16.7983   24.2675 O   0  0  0  0  0  0  0  0  0  0  0  0
    7.3067  -12.9461   27.0344 C   0  0  0  0  0  0  0  0  0  0  0  0
    8.5971  -13.7095   27.2091 C   0  0  2  0  0  0  0  0  0  0  0  0
    9.7712  -12.8272   27.0000 C   0  0  0  0  0  0  0  0  0  0  0  0
    8.5997  -14.9579   26.3703 C   0  0  2  0  0  0  0  0  0  0  0  0
    8.7137  -14.6320   24.9630 N   0  0  0  0  0  0  0  0  0  0  0  0
    7.4753  -15.8587   26.6547 C   0  0  0  0  0  0  0  0  0  0  0  0
    7.4385  -16.7188   27.7706 O   0  0  0  0  0  0  0  0  0  0  0  0
    6.4655  -15.9145   25.9068 O   0  0  0  0  0  0  0  0  0  0  0  0
  2  1  1  6
  3  2  1  0
  4  3  1  0
  5  4  1  0
  5  6  2  0
  7  2  1  0
  7  8  2  0
  9  5  1  0
 11 10  1  1
 11 12  1  0
 11 13  1  0
 14 15  1  0
 14 13  1  6
 15  7  1  0
 16 14  1  0
 17 16  2  0
 19 18  1  6
 20 19  1  0
 21 19  1  0
 21 22  1  6
 22 16  1  0
 23 24  1  0
 23 21  1  0
 25 23  2  0
M  END
$$$$
