ELV.pdb
     RDKit          3D

 25 24  0  0  1  0  0  0  0  0999 V2000
    8.8092  -16.9307   20.2405 N   0  0  0  0  0  0  0  0  0  0  0  0
    9.5567  -17.4403   21.3639 C   0  0  1  0  0  0  0  0  0  0  0  0
   10.9121  -17.8525   20.9136 C   0  0  0  0  0  0  0  0  0  0  0  0
   11.3076  -17.4197   19.5403 C   0  0  0  0  0  0  0  0  0  0  0  0
   12.6514  -17.8586   19.1273 C   0  0  0  0  0  0  0  0  0  0  0  0
   13.0757  -19.0252   19.2671 O   0  0  0  0  0  0  0  0  0  0  0  0
    9.5829  -16.3910   22.4148 C   0  0  0  0  0  0  0  0  0  0  0  0
   10.6118  -15.7197   22.6490 O   0  0  0  0  0  0  0  0  0  0  0  0
   13.5377  -16.9419   18.5379 O   0  0  0  0  0  0  0  0  0  0  0  0
    5.8932  -12.9653   26.1015 C   0  0  0  0  0  0  0  0  0  0  0  0
    7.2281  -13.3433   25.5603 C   0  0  2  0  0  0  0  0  0  0  0  0
    7.8268  -12.1632   24.8075 C   0  0  0  0  0  0  0  0  0  0  0  0
    7.1203  -14.5248   24.6192 C   0  0  0  0  0  0  0  0  0  0  0  0
    8.4461  -15.0917   24.2508 C   0  0  2  0  0  0  0  0  0  0  0  0
    8.4647  -16.0699   23.2236 N   0  0  0  0  0  0  0  0  0  0  0  0
    9.1579  -15.6419   25.4421 C   0  0  0  0  0  0  0  0  0  0  0  0
    9.2385  -16.9051   25.6295 O   0  0  0  0  0  0  0  0  0  0  0  0
   11.5801  -14.7013   29.7190 C   0  0  0  0  0  0  0  0  0  0  0  0
   10.8497  -14.1930   28.4997 C   0  0  2  0  0  0  0  0  0  0  0  0
    9.7267  -13.3028   28.8834 C   0  0  0  0  0  0  0  0  0  0  0  0
   10.4616  -15.3294   27.5943 C   0  0  2  0  0  0  0  0  0  0  0  0
    9.7740  -14.8377   26.4173 N   0  0  0  0  0  0  0  0  0  0  0  0
    9.7226  -16.3987   28.2778 C   0  0  0  0  0  0  0  0  0  0  0  0
   10.3446  -17.3742   29.0826 O   0  0  0  0  0  0  0  0  0  0  0  0
    8.4730  -16.5061   28.1821 O   0  0  0  0  0  0  0  0  0  0  0  0
  2  1  1  6
  3  2  1  0
  4  3  1  0
  5  4  1  0
  5  6  2  0
  7  2  1  0
  7  8  2  0
  9  5  1  0
 11 10  1  6
 11 12  1  0
 11 13  1  0
 14 15  1  0
 14 13  1  1
 15  7  1  0
 16 14  1  0
 17 16  2  0
 19 18  1  1
 20 19  1  0
 21 19  1  0
 21 22  1  6
 22 16  1  0
 23 24  1  0
 23 21  1  0
 25 23  2  0
M  END
$$$$
