ELV.pdb
     RDKit          3D

 25 24  0  0  1  0  0  0  0  0999 V2000
    9.2571  -15.2705   20.0518 N   0  0  0  0  0  0  0  0  0  0  0  0
    8.4140  -15.8303   21.0796 C   0  0  1  0  0  0  0  0  0  0  0  0
    8.6109  -17.3026   21.1372 C   0  0  0  0  0  0  0  0  0  0  0  0
    8.0550  -18.0847   19.9932 C   0  0  0  0  0  0  0  0  0  0  0  0
    8.2655  -19.5391   20.0909 C   0  0  0  0  0  0  0  0  0  0  0  0
    7.8403  -20.3613   19.2521 O   0  0  0  0  0  0  0  0  0  0  0  0
    8.7313  -15.1466   22.3595 C   0  0  0  0  0  0  0  0  0  0  0  0
    9.9104  -14.9776   22.7406 O   0  0  0  0  0  0  0  0  0  0  0  0
    8.9811  -20.0722   21.1756 O   0  0  0  0  0  0  0  0  0  0  0  0
    6.0701  -12.2667   27.2522 C   0  0  0  0  0  0  0  0  0  0  0  0
    7.2158  -12.9758   26.6180 C   0  0  2  0  0  0  0  0  0  0  0  0
    8.4259  -12.0531   26.5735 C   0  0  0  0  0  0  0  0  0  0  0  0
    6.8751  -13.4101   25.2078 C   0  0  0  0  0  0  0  0  0  0  0  0
    7.9749  -14.1732   24.5576 C   0  0  2  0  0  0  0  0  0  0  0  0
    7.7423  -14.6389   23.2380 N   0  0  0  0  0  0  0  0  0  0  0  0
    8.4132  -15.3272   25.3971 C   0  0  0  0  0  0  0  0  0  0  0  0
    7.6128  -16.2932   25.6491 O   0  0  0  0  0  0  0  0  0  0  0  0
   11.3506  -17.4487   24.6973 C   0  0  0  0  0  0  0  0  0  0  0  0
   11.4986  -17.0582   26.1478 C   0  0  2  0  0  0  0  0  0  0  0  0
   12.1359  -18.1455   26.9304 C   0  0  0  0  0  0  0  0  0  0  0  0
   10.1905  -16.5721   26.7087 C   0  0  2  0  0  0  0  0  0  0  0  0
    9.6988  -15.4355   25.9564 N   0  0  0  0  0  0  0  0  0  0  0  0
   10.2288  -16.3216   28.1552 C   0  0  0  0  0  0  0  0  0  0  0  0
   10.3258  -17.3496   29.1144 O   0  0  0  0  0  0  0  0  0  0  0  0
   10.1762  -15.1569   28.6275 O   0  0  0  0  0  0  0  0  0  0  0  0
  2  1  1  6
  3  2  1  0
  4  3  1  0
  5  4  1  0
  5  6  2  0
  7  2  1  0
  7  8  2  0
  9  5  1  0
 11 10  1  6
 11 12  1  0
 11 13  1  0
 14 15  1  0
 14 13  1  1
 15  7  1  0
 16 14  1  0
 17 16  2  0
 19 18  1  6
 20 19  1  0
 21 19  1  0
 21 22  1  6
 22 16  1  0
 23 24  1  0
 23 21  1  0
 25 23  2  0
M  END
$$$$
