ELV.pdb
     RDKit          3D

 25 24  0  0  1  0  0  0  0  0999 V2000
    9.2169  -18.1029   21.1971 N   0  0  0  0  0  0  0  0  0  0  0  0
   10.4833  -17.5924   21.6619 C   0  0  1  0  0  0  0  0  0  0  0  0
   11.3487  -17.2728   20.4963 C   0  0  0  0  0  0  0  0  0  0  0  0
   11.0428  -18.0043   19.2310 C   0  0  0  0  0  0  0  0  0  0  0  0
   11.9021  -17.6372   18.0927 C   0  0  0  0  0  0  0  0  0  0  0  0
   11.5075  -17.5959   16.9083 O   0  0  0  0  0  0  0  0  0  0  0  0
   10.2161  -16.4187   22.5320 C   0  0  0  0  0  0  0  0  0  0  0  0
   11.0690  -15.5207   22.7060 O   0  0  0  0  0  0  0  0  0  0  0  0
   13.2501  -17.3075   18.3101 O   0  0  0  0  0  0  0  0  0  0  0  0
    5.8765  -13.3136   25.7333 C   0  0  0  0  0  0  0  0  0  0  0  0
    7.2916  -13.6284   25.3924 C   0  0  2  0  0  0  0  0  0  0  0  0
    7.9074  -12.4583   24.6377 C   0  0  0  0  0  0  0  0  0  0  0  0
    7.3817  -14.8717   24.5325 C   0  0  0  0  0  0  0  0  0  0  0  0
    8.7852  -15.2952   24.2761 C   0  0  2  0  0  0  0  0  0  0  0  0
    8.9952  -16.2233   23.2241 N   0  0  0  0  0  0  0  0  0  0  0  0
    9.4331  -15.8253   25.5121 C   0  0  0  0  0  0  0  0  0  0  0  0
    9.7534  -17.0608   25.6036 O   0  0  0  0  0  0  0  0  0  0  0  0
    9.2609  -14.2148   29.6033 C   0  0  0  0  0  0  0  0  0  0  0  0
   10.5461  -14.3768   28.8282 C   0  0  2  0  0  0  0  0  0  0  0  0
   10.9961  -13.0802   28.2650 C   0  0  0  0  0  0  0  0  0  0  0  0
   10.4280  -15.4860   27.8195 C   0  0  2  0  0  0  0  0  0  0  0  0
    9.7304  -15.0310   26.6337 N   0  0  0  0  0  0  0  0  0  0  0  0
    9.8616  -16.7236   28.3712 C   0  0  0  0  0  0  0  0  0  0  0  0
    8.5630  -17.1801   28.0686 O   0  0  0  0  0  0  0  0  0  0  0  0
   10.5136  -17.4577   29.1574 O   0  0  0  0  0  0  0  0  0  0  0  0
  2  1  1  6
  3  2  1  0
  4  3  1  0
  5  4  1  0
  5  6  2  0
  7  2  1  0
  7  8  2  0
  9  5  1  0
 11 10  1  6
 11 12  1  0
 11 13  1  0
 14 15  1  0
 14 13  1  1
 15  7  1  0
 16 14  1  0
 17 16  2  0
 19 18  1  6
 20 19  1  0
 21 19  1  0
 21 22  1  6
 22 16  1  0
 23 24  1  0
 23 21  1  0
 25 23  2  0
M  END
$$$$
