ELV.pdb
     RDKit          3D

 25 24  0  0  1  0  0  0  0  0999 V2000
    8.9193  -15.0410   20.6290 N   0  0  0  0  0  0  0  0  0  0  0  0
    8.0615  -15.6099   21.6395 C   0  0  1  0  0  0  0  0  0  0  0  0
    8.0980  -17.0930   21.5455 C   0  0  0  0  0  0  0  0  0  0  0  0
    9.4504  -17.7086   21.3983 C   0  0  0  0  0  0  0  0  0  0  0  0
    9.4411  -19.1764   21.2782 C   0  0  0  0  0  0  0  0  0  0  0  0
    8.3999  -19.8664   21.2626 O   0  0  0  0  0  0  0  0  0  0  0  0
    8.5026  -15.0961   22.9615 C   0  0  0  0  0  0  0  0  0  0  0  0
    9.6914  -14.7741   23.1791 O   0  0  0  0  0  0  0  0  0  0  0  0
   10.6531  -19.8786   21.1730 O   0  0  0  0  0  0  0  0  0  0  0  0
    7.8226  -11.4559   25.6967 C   0  0  0  0  0  0  0  0  0  0  0  0
    6.6145  -12.3226   25.6140 C   0  0  2  0  0  0  0  0  0  0  0  0
    5.4993  -11.7263   26.4619 C   0  0  0  0  0  0  0  0  0  0  0  0
    6.9131  -13.7230   26.1068 C   0  0  0  0  0  0  0  0  0  0  0  0
    7.9894  -14.3919   25.3263 C   0  0  2  0  0  0  0  0  0  0  0  0
    7.6289  -14.9315   24.0648 N   0  0  0  0  0  0  0  0  0  0  0  0
    8.6629  -15.4595   26.1234 C   0  0  0  0  0  0  0  0  0  0  0  0
    8.9415  -15.2753   27.3585 O   0  0  0  0  0  0  0  0  0  0  0  0
   10.3708  -20.1489   26.2968 C   0  0  0  0  0  0  0  0  0  0  0  0
    9.8538  -18.9928   25.4755 C   0  0  2  0  0  0  0  0  0  0  0  0
   10.6513  -18.8202   24.2365 C   0  0  0  0  0  0  0  0  0  0  0  0
    9.7315  -17.7508   26.3148 C   0  0  2  0  0  0  0  0  0  0  0  0
    9.0301  -16.7087   25.5925 N   0  0  0  0  0  0  0  0  0  0  0  0
   11.0096  -17.2919   26.8740 C   0  0  0  0  0  0  0  0  0  0  0  0
   11.7134  -17.9968   27.8710 O   0  0  0  0  0  0  0  0  0  0  0  0
   11.5570  -16.2269   26.4888 O   0  0  0  0  0  0  0  0  0  0  0  0
  2  1  1  6
  3  2  1  0
  4  3  1  0
  5  4  1  0
  5  6  2  0
  7  2  1  0
  7  8  2  0
  9  5  1  0
 11 10  1  1
 11 12  1  0
 11 13  1  0
 14 15  1  0
 14 13  1  1
 15  7  1  0
 16 14  1  0
 17 16  2  0
 19 18  1  1
 20 19  1  0
 21 19  1  0
 21 22  1  6
 22 16  1  0
 23 24  1  0
 23 21  1  0
 25 23  2  0
M  END
$$$$
