ELV.pdb
     RDKit          3D

 25 24  0  0  1  0  0  0  0  0999 V2000
    9.7732  -15.7950   20.3687 N   0  0  0  0  0  0  0  0  0  0  0  0
    8.6672  -16.0904   21.2462 C   0  0  1  0  0  0  0  0  0  0  0  0
    8.4703  -17.5620   21.3200 C   0  0  0  0  0  0  0  0  0  0  0  0
    9.1826  -18.3725   20.2878 C   0  0  0  0  0  0  0  0  0  0  0  0
    9.3734  -19.7872   20.6500 C   0  0  0  0  0  0  0  0  0  0  0  0
    9.4714  -20.1970   21.8259 O   0  0  0  0  0  0  0  0  0  0  0  0
    8.9477  -15.4704   22.5664 C   0  0  0  0  0  0  0  0  0  0  0  0
   10.1143  -15.3409   22.9982 O   0  0  0  0  0  0  0  0  0  0  0  0
    9.4551  -20.7634   19.6432 O   0  0  0  0  0  0  0  0  0  0  0  0
    8.4417  -13.1935   27.1948 C   0  0  0  0  0  0  0  0  0  0  0  0
    7.5721  -12.4616   26.2327 C   0  0  2  0  0  0  0  0  0  0  0  0
    6.3585  -11.9038   26.9635 C   0  0  0  0  0  0  0  0  0  0  0  0
    7.1008  -13.3744   25.1201 C   0  0  0  0  0  0  0  0  0  0  0  0
    8.1553  -14.3205   24.6644 C   0  0  2  0  0  0  0  0  0  0  0  0
    7.9351  -14.9833   23.4297 N   0  0  0  0  0  0  0  0  0  0  0  0
    8.4593  -15.3464   25.7054 C   0  0  0  0  0  0  0  0  0  0  0  0
    7.5154  -15.9448   26.3285 O   0  0  0  0  0  0  0  0  0  0  0  0
   12.4974  -16.8509   26.3101 C   0  0  0  0  0  0  0  0  0  0  0  0
   11.2154  -17.6421   26.4047 C   0  0  2  0  0  0  0  0  0  0  0  0
   10.8928  -18.2913   25.1103 C   0  0  0  0  0  0  0  0  0  0  0  0
   10.1059  -16.8001   26.9721 C   0  0  2  0  0  0  0  0  0  0  0  0
    9.7655  -15.7202   26.0678 N   0  0  0  0  0  0  0  0  0  0  0  0
   10.3635  -16.3342   28.3407 C   0  0  0  0  0  0  0  0  0  0  0  0
   10.5009  -17.2056   29.4398 O   0  0  0  0  0  0  0  0  0  0  0  0
   10.4779  -15.1117   28.6138 O   0  0  0  0  0  0  0  0  0  0  0  0
  2  1  1  6
  3  2  1  0
  4  3  1  0
  5  4  1  0
  5  6  2  0
  7  2  1  0
  7  8  2  0
  9  5  1  0
 11 10  1  1
 11 12  1  0
 11 13  1  0
 14 15  1  0
 14 13  1  1
 15  7  1  0
 16 14  1  0
 17 16  2  0
 19 18  1  6
 20 19  1  0
 21 19  1  0
 21 22  1  6
 22 16  1  0
 23 24  1  0
 23 21  1  0
 25 23  2  0
M  END
$$$$
