RQL.pdb
     RDKit          3D

 29 28  0  0  1  0  0  0  0  0999 V2000
   22.4584  -20.2376   -6.8042 N   0  0  0  0  0  0  0  0  0  0  0  0
   22.8103  -21.5630   -7.2397 C   0  0  0  0  0  0  0  0  0  0  0  0
   22.0453  -22.5691   -6.9602 N   0  0  0  0  0  0  0  0  0  0  0  0
   23.9879  -21.8144   -7.9789 N   0  0  0  0  0  0  0  0  0  0  0  0
   24.5557  -20.7587   -8.8118 C   0  0  0  0  0  0  0  0  0  0  0  0
   25.7908  -21.2623   -9.5221 C   0  0  0  0  0  0  0  0  0  0  0  0
   25.5049  -21.3891  -10.9850 C   0  0  0  0  0  0  0  0  0  0  0  0
   24.8720  -20.1566  -11.5169 C   0  0  2  0  0  0  0  0  0  0  0  0
   23.5798  -19.8963  -10.8391 N   0  0  0  0  0  0  0  0  0  0  0  0
   24.6474  -20.1715  -12.9787 C   0  0  0  0  0  0  0  0  0  0  0  0
   25.5150  -20.4210  -13.8484 O   0  0  0  0  0  0  0  0  0  0  0  0
   22.3024  -23.5456   -7.2120 N   0  0  0  0  0  0  0  0  0  0  0  0
   20.3552  -20.0106  -12.9049 C   0  0  0  0  0  0  0  0  0  0  0  0
   20.3895  -21.2444  -13.6140 O   0  0  0  0  0  0  0  0  0  0  0  0
   19.8850  -22.3039  -13.2050 C   0  0  0  0  0  0  0  0  0  0  0  0
   21.0873  -21.2534  -14.9489 C   0  0  0  0  0  0  0  0  0  0  0  0
   21.6520  -19.9027  -15.2643 C   0  0  2  0  0  0  0  0  0  0  0  0
   23.0873  -19.8301  -14.8670 N   0  0  0  0  0  0  0  0  0  0  0  0
   23.3419  -19.8807  -13.4647 C   0  0  0  0  0  0  0  0  0  0  0  0
   23.6047  -18.4982  -15.3574 O   0  0  0  0  0  0  0  0  0  0  0  0
   23.8812  -17.5648  -14.5373 C   0  0  0  0  0  0  0  0  0  0  0  0
   28.4260  -17.3251  -16.9777 C   0  0  1  0  0  0  0  0  0  0  0  0
   27.1164  -16.5445  -17.0420 C   0  0  0  0  0  0  0  0  0  0  0  0
   27.2714  -15.3502  -16.1543 C   0  0  0  0  0  0  0  0  0  0  0  0
   26.0375  -17.4810  -16.5815 C   0  0  2  0  0  0  0  0  0  0  0  0
   24.6624  -17.1377  -17.1113 N   0  0  0  0  0  0  0  0  0  0  0  0
   23.8006  -18.2353  -16.7206 C   0  0  0  0  0  0  0  0  0  0  0  0
   24.6293  -17.0226  -18.5785 O   0  0  0  0  0  0  0  0  0  0  0  0
   24.6149  -15.7865  -19.1955 O   0  0  0  0  0  0  0  0  0  0  0  0
  1  2  1  0
  2  3  2  0
  4  5  1  0
  4  2  1  0
  6  5  1  0
  7  6  1  0
  8 10  1  0
  8  7  1  0
  8  9  1  1
 10 11  2  0
 13 12  1  0
 13 14  2  0
 15 13  1  0
 16 15  1  0
 17 16  1  6
 17 19  1  0
 18 17  1  0
 18 10  1  0
 19 20  2  0
 19 26  1  0
 22 21  1  6
 22 24  1  0
 23 22  1  0
 25 24  1  1
 25 27  1  0
 26 25  1  0
 27 29  2  0
 27 28  1  0
M  END
$$$$
