RQL.pdb
     RDKit          3D

 29 28  0  0  1  0  0  0  0  0999 V2000
   28.7978  -21.4584  -19.5567 N   0  0  0  0  0  0  0  0  0  0  0  0
   28.6087  -20.0801  -19.9239 C   0  0  0  0  0  0  0  0  0  0  0  0
   28.1205  -19.7718  -21.0825 N   0  0  0  0  0  0  0  0  0  0  0  0
   28.9437  -19.0244  -19.0466 N   0  0  0  0  0  0  0  0  0  0  0  0
   28.9846  -19.2678  -17.6079 C   0  0  0  0  0  0  0  0  0  0  0  0
   27.6571  -18.9105  -16.9806 C   0  0  0  0  0  0  0  0  0  0  0  0
   27.8726  -17.8841  -15.9139 C   0  0  0  0  0  0  0  0  0  0  0  0
   28.1428  -18.5226  -14.6017 C   0  0  2  0  0  0  0  0  0  0  0  0
   29.0087  -19.7141  -14.7667 N   0  0  0  0  0  0  0  0  0  0  0  0
   26.9276  -18.9176  -13.8567 C   0  0  0  0  0  0  0  0  0  0  0  0
   25.9205  -18.1958  -13.6667 O   0  0  0  0  0  0  0  0  0  0  0  0
   28.0326  -18.7848  -21.4003 N   0  0  0  0  0  0  0  0  0  0  0  0
   24.0788  -24.3355  -13.9508 C   0  0  0  0  0  0  0  0  0  0  0  0
   23.2442  -23.5697  -13.0886 O   0  0  0  0  0  0  0  0  0  0  0  0
   22.1255  -23.9339  -12.6882 C   0  0  0  0  0  0  0  0  0  0  0  0
   23.7633  -22.2294  -12.6381 C   0  0  0  0  0  0  0  0  0  0  0  0
   25.1072  -21.9497  -13.2368 C   0  0  2  0  0  0  0  0  0  0  0  0
   25.6805  -20.6944  -12.6719 N   0  0  0  0  0  0  0  0  0  0  0  0
   26.8728  -20.2252  -13.2979 C   0  0  0  0  0  0  0  0  0  0  0  0
   26.0294  -20.9883  -11.2318 O   0  0  0  0  0  0  0  0  0  0  0  0
   26.8167  -21.9432  -10.9341 C   0  0  0  0  0  0  0  0  0  0  0  0
   28.2836  -20.5618   -7.4735 C   0  0  2  0  0  0  0  0  0  0  0  0
   27.6363  -19.3208   -8.0815 C   0  0  0  0  0  0  0  0  0  0  0  0
   28.0989  -18.1452   -7.2800 C   0  0  0  0  0  0  0  0  0  0  0  0
   26.1523  -19.5332   -8.0077 C   0  0  2  0  0  0  0  0  0  0  0  0
   25.6627  -20.7150   -8.8159 N   0  0  0  0  0  0  0  0  0  0  0  0
   25.5077  -20.2313  -10.1732 C   0  0  0  0  0  0  0  0  0  0  0  0
   24.3601  -21.2213   -8.3534 O   0  0  0  0  0  0  0  0  0  0  0  0
   23.2102  -21.0040   -9.0879 O   0  0  0  0  0  0  0  0  0  0  0  0
  1  2  1  0
  2  3  2  0
  4  5  1  0
  4  2  1  0
  6  5  1  0
  7  6  1  0
  8 10  1  0
  8  7  1  0
  8  9  1  6
 10 11  2  0
 13 12  1  0
 13 14  2  0
 15 13  1  0
 16 15  1  0
 17 16  1  6
 17 19  1  0
 18 17  1  0
 18 10  1  0
 19 20  2  0
 19 26  1  0
 22 21  1  6
 22 24  1  0
 23 22  1  0
 25 24  1  6
 25 27  1  0
 26 25  1  0
 27 29  2  0
 27 28  1  0
M  END
$$$$
