RQL.pdb
     RDKit          3D

 29 28  0  0  1  0  0  0  0  0999 V2000
   28.9951  -28.2640  -18.1594 N   0  0  0  0  0  0  0  0  0  0  0  0
   28.4354  -29.2899  -17.3201 C   0  0  0  0  0  0  0  0  0  0  0  0
   29.0870  -30.3873  -17.1038 N   0  0  0  0  0  0  0  0  0  0  0  0
   27.1706  -29.1415  -16.7080 N   0  0  0  0  0  0  0  0  0  0  0  0
   26.3972  -27.9248  -16.9363 C   0  0  0  0  0  0  0  0  0  0  0  0
   26.7863  -26.8637  -15.9331 C   0  0  0  0  0  0  0  0  0  0  0  0
   25.9248  -25.6565  -16.1285 C   0  0  0  0  0  0  0  0  0  0  0  0
   26.7261  -24.4935  -16.5844 C   0  0  2  0  0  0  0  0  0  0  0  0
   28.1754  -24.7961  -16.5161 N   0  0  0  0  0  0  0  0  0  0  0  0
   26.4655  -23.2451  -15.8352 C   0  0  0  0  0  0  0  0  0  0  0  0
   27.3073  -22.6117  -15.1560 O   0  0  0  0  0  0  0  0  0  0  0  0
   28.6638  -31.1901  -16.5947 N   0  0  0  0  0  0  0  0  0  0  0  0
   21.7155  -19.2381  -17.0137 C   0  0  0  0  0  0  0  0  0  0  0  0
   22.3970  -18.5979  -15.9403 O   0  0  0  0  0  0  0  0  0  0  0  0
   22.1161  -17.4688  -15.5038 C   0  0  0  0  0  0  0  0  0  0  0  0
   23.5335  -19.3500  -15.2987 C   0  0  0  0  0  0  0  0  0  0  0  0
   23.7682  -20.6557  -15.9937 C   0  0  1  0  0  0  0  0  0  0  0  0
   24.9017  -21.3889  -15.3606 N   0  0  0  0  0  0  0  0  0  0  0  0
   25.1533  -22.6957  -15.8732 C   0  0  0  0  0  0  0  0  0  0  0  0
   24.5492  -21.5524  -13.9008 O   0  0  0  0  0  0  0  0  0  0  0  0
   23.7242  -22.4464  -13.5260 C   0  0  0  0  0  0  0  0  0  0  0  0
   26.3354  -19.1774   -8.5690 C   0  0  1  0  0  0  0  0  0  0  0  0
   25.2983  -20.0788   -9.2327 C   0  0  0  0  0  0  0  0  0  0  0  0
   25.3501  -21.3998   -8.5323 C   0  0  0  0  0  0  0  0  0  0  0  0
   25.6758  -20.1689  -10.6827 C   0  0  2  0  0  0  0  0  0  0  0  0
   24.6453  -20.8701  -11.5405 N   0  0  0  0  0  0  0  0  0  0  0  0
   25.1086  -20.7366  -12.9071 C   0  0  0  0  0  0  0  0  0  0  0  0
   23.3102  -20.2577  -11.4425 O   0  0  0  0  0  0  0  0  0  0  0  0
   22.3431  -20.7880  -10.6104 O   0  0  0  0  0  0  0  0  0  0  0  0
  1  2  1  0
  2  3  2  0
  4  5  1  0
  4  2  1  0
  6  5  1  0
  7  6  1  0
  8 10  1  0
  8  7  1  0
  8  9  1  1
 10 11  2  0
 13 12  1  0
 13 14  2  0
 15 13  1  0
 16 15  1  0
 17 16  1  6
 17 19  1  0
 18 17  1  0
 18 10  1  0
 19 20  2  0
 19 26  1  0
 22 21  1  1
 22 24  1  0
 23 22  1  0
 25 24  1  1
 25 27  1  0
 26 25  1  0
 27 29  2  0
 27 28  1  0
M  END
$$$$
