RQL.pdb
     RDKit          3D

 29 28  0  0  1  0  0  0  0  0999 V2000
   26.4152  -22.0799  -10.5626 N   0  0  0  0  0  0  0  0  0  0  0  0
   26.3069  -20.6479  -10.4749 C   0  0  0  0  0  0  0  0  0  0  0  0
   26.2472  -20.0648   -9.3208 N   0  0  0  0  0  0  0  0  0  0  0  0
   26.2621  -19.8338  -11.6289 N   0  0  0  0  0  0  0  0  0  0  0  0
   26.9493  -20.2647  -12.8425 C   0  0  0  0  0  0  0  0  0  0  0  0
   26.2939  -21.5069  -13.3999 C   0  0  0  0  0  0  0  0  0  0  0  0
   24.9663  -21.1464  -13.9875 C   0  0  0  0  0  0  0  0  0  0  0  0
   24.2925  -22.3375  -14.5619 C   0  0  2  0  0  0  0  0  0  0  0  0
   25.1171  -22.9391  -15.6365 N   0  0  0  0  0  0  0  0  0  0  0  0
   22.9385  -22.0715  -15.0944 C   0  0  0  0  0  0  0  0  0  0  0  0
   22.6008  -22.1420  -16.2995 O   0  0  0  0  0  0  0  0  0  0  0  0
   26.1458  -19.0334   -9.2273 N   0  0  0  0  0  0  0  0  0  0  0  0
   17.7499  -23.0720  -11.7689 C   0  0  0  0  0  0  0  0  0  0  0  0
   18.2670  -24.0681  -12.6445 O   0  0  0  0  0  0  0  0  0  0  0  0
   17.9149  -25.2599  -12.6385 C   0  0  0  0  0  0  0  0  0  0  0  0
   19.3107  -23.6360  -13.6409 C   0  0  0  0  0  0  0  0  0  0  0  0
   19.5770  -22.1664  -13.5304 C   0  0  2  0  0  0  0  0  0  0  0  0
   20.5442  -21.7299  -14.5779 N   0  0  0  0  0  0  0  0  0  0  0  0
   21.9132  -21.7019  -14.1794 C   0  0  0  0  0  0  0  0  0  0  0  0
   20.1684  -20.3150  -14.9505 O   0  0  0  0  0  0  0  0  0  0  0  0
   20.5387  -19.3319  -14.2318 C   0  0  0  0  0  0  0  0  0  0  0  0
   21.2374  -17.7425  -18.1597 C   0  0  2  0  0  0  0  0  0  0  0  0
   20.2576  -18.8372  -18.5720 C   0  0  0  0  0  0  0  0  0  0  0  0
   20.1424  -18.7866  -20.0629 C   0  0  0  0  0  0  0  0  0  0  0  0
   18.9632  -18.5373  -17.8736 C   0  0  2  0  0  0  0  0  0  0  0  0
   19.0406  -18.6512  -16.3668 N   0  0  0  0  0  0  0  0  0  0  0  0
   19.4047  -20.0265  -16.0904 C   0  0  0  0  0  0  0  0  0  0  0  0
   17.7547  -18.3713  -15.7073 O   0  0  0  0  0  0  0  0  0  0  0  0
   17.0338  -19.3792  -15.0960 O   0  0  0  0  0  0  0  0  0  0  0  0
  1  2  1  0
  2  3  2  0
  4  5  1  0
  4  2  1  0
  6  5  1  0
  7  6  1  0
  8 10  1  0
  8  7  1  0
  8  9  1  6
 10 11  2  0
 13 12  1  0
 13 14  2  0
 15 13  1  0
 16 15  1  0
 17 16  1  6
 17 19  1  0
 18 17  1  0
 18 10  1  0
 19 20  2  0
 19 26  1  0
 22 21  1  6
 22 24  1  0
 23 22  1  0
 25 24  1  6
 25 27  1  0
 26 25  1  0
 27 29  2  0
 27 28  1  0
M  END
$$$$
