RQL.pdb
     RDKit          3D

 29 28  0  0  1  0  0  0  0  0999 V2000
   22.8322  -19.3964  -18.2515 N   0  0  0  0  0  0  0  0  0  0  0  0
   23.0310  -18.5718  -17.0894 C   0  0  0  0  0  0  0  0  0  0  0  0
   22.0757  -18.4071  -16.2316 N   0  0  0  0  0  0  0  0  0  0  0  0
   24.2595  -17.9188  -16.8427 N   0  0  0  0  0  0  0  0  0  0  0  0
   25.3398  -18.0220  -17.8189 C   0  0  0  0  0  0  0  0  0  0  0  0
   26.2842  -19.1378  -17.4357 C   0  0  0  0  0  0  0  0  0  0  0  0
   27.2293  -18.6489  -16.3843 C   0  0  0  0  0  0  0  0  0  0  0  0
   28.2620  -19.6689  -16.0749 C   0  0  2  0  0  0  0  0  0  0  0  0
   28.4945  -20.5509  -17.2431 N   0  0  0  0  0  0  0  0  0  0  0  0
   27.9515  -20.5100  -14.8986 C   0  0  0  0  0  0  0  0  0  0  0  0
   27.1132  -21.4415  -14.8677 O   0  0  0  0  0  0  0  0  0  0  0  0
   22.1972  -17.8326  -15.3725 N   0  0  0  0  0  0  0  0  0  0  0  0
   31.8135  -21.5214  -10.1019 C   0  0  0  0  0  0  0  0  0  0  0  0
   31.8347  -22.2708  -11.3121 O   0  0  0  0  0  0  0  0  0  0  0  0
   32.7666  -23.0153  -11.6609 C   0  0  0  0  0  0  0  0  0  0  0  0
   30.6415  -22.1442  -12.2226 C   0  0  0  0  0  0  0  0  0  0  0  0
   29.6127  -21.2318  -11.6293 C   0  0  2  0  0  0  0  0  0  0  0  0
   28.4452  -21.0932  -12.5465 N   0  0  0  0  0  0  0  0  0  0  0  0
   28.6518  -20.2600  -13.6853 C   0  0  0  0  0  0  0  0  0  0  0  0
   27.3341  -20.4635  -11.7398 O   0  0  0  0  0  0  0  0  0  0  0  0
   27.3160  -19.2091  -11.5241 C   0  0  0  0  0  0  0  0  0  0  0  0
   23.3243  -19.2539  -12.1312 C   0  0  2  0  0  0  0  0  0  0  0  0
   23.5655  -20.7607  -12.1254 C   0  0  0  0  0  0  0  0  0  0  0  0
   22.2877  -21.4131  -12.5497 C   0  0  0  0  0  0  0  0  0  0  0  0
   23.9724  -21.1230  -10.7267 C   0  0  2  0  0  0  0  0  0  0  0  0
   25.3271  -20.5822  -10.3244 N   0  0  0  0  0  0  0  0  0  0  0  0
   26.2871  -21.2239  -11.2000 C   0  0  0  0  0  0  0  0  0  0  0  0
   25.6801  -20.9075   -8.9328 O   0  0  0  0  0  0  0  0  0  0  0  0
   26.6313  -21.8675   -8.6454 O   0  0  0  0  0  0  0  0  0  0  0  0
  1  2  1  0
  2  3  2  0
  4  5  1  0
  4  2  1  0
  6  5  1  0
  7  6  1  0
  8 10  1  0
  8  7  1  0
  8  9  1  6
 10 11  2  0
 13 12  1  0
 13 14  2  0
 15 13  1  0
 16 15  1  0
 17 16  1  6
 17 19  1  0
 18 17  1  0
 18 10  1  0
 19 20  2  0
 19 26  1  0
 22 21  1  6
 22 24  1  0
 23 22  1  0
 25 24  1  6
 25 27  1  0
 26 25  1  0
 27 29  2  0
 27 28  1  0
M  END
$$$$
