RQL.pdb
     RDKit          3D

 29 28  0  0  1  0  0  0  0  0999 V2000
   30.1859  -23.0278  -18.6756 N   0  0  0  0  0  0  0  0  0  0  0  0
   30.1699  -22.0369  -19.7187 C   0  0  0  0  0  0  0  0  0  0  0  0
   30.4841  -22.3584  -20.9326 N   0  0  0  0  0  0  0  0  0  0  0  0
   29.8158  -20.6933  -19.4622 N   0  0  0  0  0  0  0  0  0  0  0  0
   29.1282  -20.3532  -18.2204 C   0  0  0  0  0  0  0  0  0  0  0  0
   27.6648  -20.7171  -18.3181 C   0  0  0  0  0  0  0  0  0  0  0  0
   26.9310  -20.1406  -17.1488 C   0  0  0  0  0  0  0  0  0  0  0  0
   27.4275  -20.7087  -15.8707 C   0  0  2  0  0  0  0  0  0  0  0  0
   28.3180  -21.8664  -16.1223 N   0  0  0  0  0  0  0  0  0  0  0  0
   26.3597  -21.1248  -14.9357 C   0  0  0  0  0  0  0  0  0  0  0  0
   25.4322  -21.9268  -15.1965 O   0  0  0  0  0  0  0  0  0  0  0  0
   30.4253  -21.6775  -21.7174 N   0  0  0  0  0  0  0  0  0  0  0  0
   23.7466  -20.6229   -8.0558 C   0  0  0  0  0  0  0  0  0  0  0  0
   24.8749  -20.7432   -8.9154 O   0  0  0  0  0  0  0  0  0  0  0  0
   26.0490  -20.5321   -8.5670 C   0  0  0  0  0  0  0  0  0  0  0  0
   24.6152  -21.1549  -10.3408 C   0  0  0  0  0  0  0  0  0  0  0  0
   25.6342  -20.5584  -11.2620 C   0  0  2  0  0  0  0  0  0  0  0  0
   25.3827  -20.9866  -12.6680 N   0  0  0  0  0  0  0  0  0  0  0  0
   26.3639  -20.5817  -13.6204 C   0  0  0  0  0  0  0  0  0  0  0  0
   24.0782  -20.3504  -13.0868 O   0  0  0  0  0  0  0  0  0  0  0  0
   24.0659  -19.2485  -13.7241 C   0  0  0  0  0  0  0  0  0  0  0  0
   20.3292  -19.5030  -15.7341 C   0  0  1  0  0  0  0  0  0  0  0  0
   20.8551  -20.9167  -15.9654 C   0  0  0  0  0  0  0  0  0  0  0  0
   19.7109  -21.8543  -15.7417 C   0  0  0  0  0  0  0  0  0  0  0  0
   21.9784  -21.1196  -14.9907 C   0  0  1  0  0  0  0  0  0  0  0  0
   21.6863  -20.5927  -13.6027 N   0  0  0  0  0  0  0  0  0  0  0  0
   22.8392  -20.9386  -12.7956 C   0  0  0  0  0  0  0  0  0  0  0  0
   20.4953  -21.2108  -12.9974 O   0  0  0  0  0  0  0  0  0  0  0  0
   19.2750  -20.5629  -13.0057 O   0  0  0  0  0  0  0  0  0  0  0  0
  1  2  1  0
  2  3  2  0
  4  5  1  0
  4  2  1  0
  6  5  1  0
  7  6  1  0
  8 10  1  0
  8  7  1  0
  8  9  1  6
 10 11  2  0
 13 12  1  0
 13 14  2  0
 15 13  1  0
 16 15  1  0
 17 16  1  1
 17 19  1  0
 18 17  1  0
 18 10  1  0
 19 20  2  0
 19 26  1  0
 22 21  1  6
 22 24  1  0
 23 22  1  0
 25 24  1  6
 25 27  1  0
 26 25  1  0
 27 29  2  0
 27 28  1  0
M  END
$$$$
