RQL.pdb
     RDKit          3D

 29 28  0  0  1  0  0  0  0  0999 V2000
   18.4814  -23.4276  -10.7217 N   0  0  0  0  0  0  0  0  0  0  0  0
   18.2198  -23.9435  -12.0392 C   0  0  0  0  0  0  0  0  0  0  0  0
   17.4608  -24.9799  -12.1982 N   0  0  0  0  0  0  0  0  0  0  0  0
   18.7734  -23.3471  -13.1943 N   0  0  0  0  0  0  0  0  0  0  0  0
   19.3907  -22.0278  -13.0995 C   0  0  0  0  0  0  0  0  0  0  0  0
   20.8426  -22.1587  -12.7018 C   0  0  0  0  0  0  0  0  0  0  0  0
   21.4745  -20.8029  -12.6770 C   0  0  0  0  0  0  0  0  0  0  0  0
   21.8346  -20.3537  -14.0449 C   0  0  2  0  0  0  0  0  0  0  0  0
   22.1253  -21.5151  -14.9187 N   0  0  0  0  0  0  0  0  0  0  0  0
   22.9820  -19.4218  -14.0957 C   0  0  0  0  0  0  0  0  0  0  0  0
   23.1361  -18.4127  -13.3682 O   0  0  0  0  0  0  0  0  0  0  0  0
   17.2935  -25.4041  -13.1336 N   0  0  0  0  0  0  0  0  0  0  0  0
   28.2503  -19.8552  -17.7069 C   0  0  0  0  0  0  0  0  0  0  0  0
   28.3608  -18.5662  -17.1130 O   0  0  0  0  0  0  0  0  0  0  0  0
   29.3061  -17.7827  -17.3057 C   0  0  0  0  0  0  0  0  0  0  0  0
   27.2509  -18.1343  -16.1909 C   0  0  0  0  0  0  0  0  0  0  0  0
   26.1747  -19.1739  -16.1286 C   0  0  2  0  0  0  0  0  0  0  0  0
   25.0826  -18.7419  -15.2099 N   0  0  0  0  0  0  0  0  0  0  0  0
   24.0133  -19.6708  -15.0441 C   0  0  0  0  0  0  0  0  0  0  0  0
   24.4851  -17.4897  -15.8075 O   0  0  0  0  0  0  0  0  0  0  0  0
   23.5537  -17.5609  -16.6722 C   0  0  0  0  0  0  0  0  0  0  0  0
   24.7446  -11.4842  -14.7855 C   0  0  1  0  0  0  0  0  0  0  0  0
   24.2414  -12.5490  -15.7559 C   0  0  0  0  0  0  0  0  0  0  0  0
   22.7574  -12.3874  -15.8563 C   0  0  0  0  0  0  0  0  0  0  0  0
   24.6492  -13.8755  -15.1839 C   0  0  2  0  0  0  0  0  0  0  0  0
   24.3426  -15.0509  -16.0860 N   0  0  0  0  0  0  0  0  0  0  0  0
   24.9250  -16.2101  -15.4402 C   0  0  0  0  0  0  0  0  0  0  0  0
   24.9436  -14.9151  -17.4230 O   0  0  0  0  0  0  0  0  0  0  0  0
   24.1876  -14.5074  -18.5053 O   0  0  0  0  0  0  0  0  0  0  0  0
  1  2  1  0
  2  3  2  0
  4  5  1  0
  4  2  1  0
  6  5  1  0
  7  6  1  0
  8 10  1  0
  8  7  1  0
  8  9  1  6
 10 11  2  0
 13 12  1  0
 13 14  2  0
 15 13  1  0
 16 15  1  0
 17 16  1  1
 17 19  1  0
 18 17  1  0
 18 10  1  0
 19 20  2  0
 19 26  1  0
 22 21  1  6
 22 24  1  0
 23 22  1  0
 25 24  1  1
 25 27  1  0
 26 25  1  0
 27 29  2  0
 27 28  1  0
M  END
$$$$
