RQL.pdb
     RDKit          3D

 29 28  0  0  1  0  0  0  0  0999 V2000
   25.4108  -21.8905  -19.6466 N   0  0  0  0  0  0  0  0  0  0  0  0
   24.9000  -20.6037  -20.0384 C   0  0  0  0  0  0  0  0  0  0  0  0
   23.7891  -20.5125  -20.6966 N   0  0  0  0  0  0  0  0  0  0  0  0
   25.5814  -19.4065  -19.7242 N   0  0  0  0  0  0  0  0  0  0  0  0
   26.7185  -19.4425  -18.8098 C   0  0  0  0  0  0  0  0  0  0  0  0
   26.2417  -19.3335  -17.3800 C   0  0  0  0  0  0  0  0  0  0  0  0
   27.4199  -19.3772  -16.4592 C   0  0  0  0  0  0  0  0  0  0  0  0
   27.5297  -20.6975  -15.7906 C   0  0  2  0  0  0  0  0  0  0  0  0
   27.7733  -21.7699  -16.7843 N   0  0  0  0  0  0  0  0  0  0  0  0
   26.3524  -21.0647  -14.9741 C   0  0  0  0  0  0  0  0  0  0  0  0
   25.4366  -21.8463  -15.3231 O   0  0  0  0  0  0  0  0  0  0  0  0
   23.4595  -19.6127  -21.1024 N   0  0  0  0  0  0  0  0  0  0  0  0
   25.7258  -20.1925   -8.7043 C   0  0  0  0  0  0  0  0  0  0  0  0
   24.6297  -21.0371   -9.0381 O   0  0  0  0  0  0  0  0  0  0  0  0
   23.8641  -21.5556   -8.2077 C   0  0  0  0  0  0  0  0  0  0  0  0
   24.3920  -21.3134  -10.4996 C   0  0  0  0  0  0  0  0  0  0  0  0
   25.4261  -20.6361  -11.3451 C   0  0  2  0  0  0  0  0  0  0  0  0
   25.2033  -20.9403  -12.7877 N   0  0  0  0  0  0  0  0  0  0  0  0
   26.2256  -20.4945  -13.6765 C   0  0  0  0  0  0  0  0  0  0  0  0
   23.9337  -20.2270  -13.1889 O   0  0  0  0  0  0  0  0  0  0  0  0
   23.9228  -18.9664  -13.3658 C   0  0  0  0  0  0  0  0  0  0  0  0
   21.5273  -18.7718  -16.3386 C   0  0  2  0  0  0  0  0  0  0  0  0
   21.7784  -20.2706  -16.1998 C   0  0  0  0  0  0  0  0  0  0  0  0
   21.3121  -20.9146  -17.4672 C   0  0  0  0  0  0  0  0  0  0  0  0
   21.0073  -20.7232  -14.9941 C   0  0  2  0  0  0  0  0  0  0  0  0
   21.5272  -20.1607  -13.6892 N   0  0  0  0  0  0  0  0  0  0  0  0
   22.7266  -20.9137  -13.3816 C   0  0  0  0  0  0  0  0  0  0  0  0
   20.5771  -20.3290  -12.5774 O   0  0  0  0  0  0  0  0  0  0  0  0
   19.5488  -19.4281  -12.3771 O   0  0  0  0  0  0  0  0  0  0  0  0
  1  2  1  0
  2  3  2  0
  4  5  1  0
  4  2  1  0
  6  5  1  0
  7  6  1  0
  8 10  1  0
  8  7  1  0
  8  9  1  6
 10 11  2  0
 13 12  1  0
 13 14  2  0
 15 13  1  0
 16 15  1  0
 17 16  1  1
 17 19  1  0
 18 17  1  0
 18 10  1  0
 19 20  2  0
 19 26  1  0
 22 21  1  6
 22 24  1  0
 23 22  1  0
 25 24  1  6
 25 27  1  0
 26 25  1  0
 27 29  2  0
 27 28  1  0
M  END
$$$$
