RQL.pdb
     RDKit          3D

 29 28  0  0  1  0  0  0  0  0999 V2000
   16.9192  -17.0299  -16.6900 N   0  0  0  0  0  0  0  0  0  0  0  0
   18.1716  -16.5429  -16.1756 C   0  0  0  0  0  0  0  0  0  0  0  0
   18.3775  -15.2714  -16.0480 N   0  0  0  0  0  0  0  0  0  0  0  0
   19.2108  -17.4214  -15.7951 N   0  0  0  0  0  0  0  0  0  0  0  0
   18.9219  -18.5328  -14.8940 C   0  0  0  0  0  0  0  0  0  0  0  0
   19.7026  -19.7580  -15.3100 C   0  0  0  0  0  0  0  0  0  0  0  0
   21.1333  -19.3825  -15.5332 C   0  0  0  0  0  0  0  0  0  0  0  0
   21.9137  -20.5305  -16.0584 C   0  0  2  0  0  0  0  0  0  0  0  0
   21.0363  -21.7048  -16.2771 N   0  0  0  0  0  0  0  0  0  0  0  0
   23.0475  -20.9376  -15.2003 C   0  0  0  0  0  0  0  0  0  0  0  0
   23.0149  -21.8323  -14.3228 O   0  0  0  0  0  0  0  0  0  0  0  0
   19.3194  -14.8825  -15.8372 N   0  0  0  0  0  0  0  0  0  0  0  0
   28.1634  -22.0963  -16.6583 C   0  0  0  0  0  0  0  0  0  0  0  0
   28.6217  -21.9096  -15.3236 O   0  0  0  0  0  0  0  0  0  0  0  0
   29.5725  -22.5269  -14.8145 C   0  0  0  0  0  0  0  0  0  0  0  0
   27.8971  -20.8923  -14.4816 C   0  0  0  0  0  0  0  0  0  0  0  0
   26.7594  -20.2840  -15.2422 C   0  0  2  0  0  0  0  0  0  0  0  0
   25.4539  -20.7243  -14.6716 N   0  0  0  0  0  0  0  0  0  0  0  0
   24.2937  -20.2709  -15.3660 C   0  0  0  0  0  0  0  0  0  0  0  0
   25.3782  -20.1539  -13.2749 O   0  0  0  0  0  0  0  0  0  0  0  0
   25.1294  -18.9196  -13.0880 C   0  0  0  0  0  0  0  0  0  0  0  0
   22.6908  -19.4979  -10.3738 C   0  0  2  0  0  0  0  0  0  0  0  0
   23.0833  -20.9570  -10.5877 C   0  0  0  0  0  0  0  0  0  0  0  0
   22.0813  -21.7943   -9.8574 C   0  0  0  0  0  0  0  0  0  0  0  0
   24.4765  -21.1079  -10.0500 C   0  0  2  0  0  0  0  0  0  0  0  0
   25.5191  -20.3338  -10.8268 N   0  0  0  0  0  0  0  0  0  0  0  0
   25.5763  -20.9494  -12.1375 C   0  0  0  0  0  0  0  0  0  0  0  0
   26.8576  -20.4130  -10.2193 O   0  0  0  0  0  0  0  0  0  0  0  0
   27.1082  -19.8670   -8.9751 O   0  0  0  0  0  0  0  0  0  0  0  0
  1  2  1  0
  2  3  2  0
  4  5  1  0
  4  2  1  0
  6  5  1  0
  7  6  1  0
  8 10  1  0
  8  7  1  0
  8  9  1  1
 10 11  2  0
 13 12  1  0
 13 14  2  0
 15 13  1  0
 16 15  1  0
 17 16  1  6
 17 19  1  0
 18 17  1  0
 18 10  1  0
 19 20  2  0
 19 26  1  0
 22 21  1  6
 22 24  1  0
 23 22  1  0
 25 24  1  6
 25 27  1  0
 26 25  1  0
 27 29  2  0
 27 28  1  0
M  END
$$$$
