RQL.pdb
     RDKit          3D

 29 28  0  0  1  0  0  0  0  0999 V2000
   31.5483  -23.5494  -17.6223 N   0  0  0  0  0  0  0  0  0  0  0  0
   31.1196  -24.5381  -16.6690 C   0  0  0  0  0  0  0  0  0  0  0  0
   31.9176  -25.4925  -16.3113 N   0  0  0  0  0  0  0  0  0  0  0  0
   29.8292  -24.5063  -16.0945 N   0  0  0  0  0  0  0  0  0  0  0  0
   28.9414  -23.3828  -16.3774 C   0  0  0  0  0  0  0  0  0  0  0  0
   29.3765  -22.1646  -15.5961 C   0  0  0  0  0  0  0  0  0  0  0  0
   28.3738  -21.0704  -15.7839 C   0  0  0  0  0  0  0  0  0  0  0  0
   27.0328  -21.4824  -15.2996 C   0  0  2  0  0  0  0  0  0  0  0  0
   26.0470  -21.4635  -16.4062 N   0  0  0  0  0  0  0  0  0  0  0  0
   26.5114  -20.6624  -14.1846 C   0  0  0  0  0  0  0  0  0  0  0  0
   26.5697  -19.4126  -14.1078 O   0  0  0  0  0  0  0  0  0  0  0  0
   31.5979  -26.2884  -15.7219 N   0  0  0  0  0  0  0  0  0  0  0  0
   21.0699  -21.0278  -11.8172 C   0  0  0  0  0  0  0  0  0  0  0  0
   21.5215  -19.9734  -12.6602 O   0  0  0  0  0  0  0  0  0  0  0  0
   20.7722  -19.1949  -13.2740 C   0  0  0  0  0  0  0  0  0  0  0  0
   23.0102  -19.8000  -12.8102 C   0  0  0  0  0  0  0  0  0  0  0  0
   23.7501  -20.7966  -11.9722 C   0  0  2  0  0  0  0  0  0  0  0  0
   25.2214  -20.5781  -12.0764 N   0  0  0  0  0  0  0  0  0  0  0  0
   25.8851  -21.3264  -13.0929 C   0  0  0  0  0  0  0  0  0  0  0  0
   25.8170  -21.0094  -10.7568 O   0  0  0  0  0  0  0  0  0  0  0  0
   26.2892  -22.1820  -10.6075 C   0  0  0  0  0  0  0  0  0  0  0  0
   28.2520  -18.6212   -5.9109 C   0  0  1  0  0  0  0  0  0  0  0  0
   27.8851  -19.9766   -6.5084 C   0  0  0  0  0  0  0  0  0  0  0  0
   29.1150  -20.8272   -6.4590 C   0  0  0  0  0  0  0  0  0  0  0  0
   27.4108  -19.7124   -7.9078 C   0  0  2  0  0  0  0  0  0  0  0  0
   26.3316  -20.6633   -8.3775 N   0  0  0  0  0  0  0  0  0  0  0  0
   25.8750  -20.1475   -9.6525 C   0  0  0  0  0  0  0  0  0  0  0  0
   25.1809  -20.7169   -7.4609 O   0  0  0  0  0  0  0  0  0  0  0  0
   25.2546  -21.4055   -6.2653 O   0  0  0  0  0  0  0  0  0  0  0  0
  1  2  1  0
  2  3  2  0
  4  5  1  0
  4  2  1  0
  6  5  1  0
  7  6  1  0
  8 10  1  0
  8  7  1  0
  8  9  1  6
 10 11  2  0
 13 12  1  0
 13 14  2  0
 15 13  1  0
 16 15  1  0
 17 16  1  6
 17 19  1  0
 18 17  1  0
 18 10  1  0
 19 20  2  0
 19 26  1  0
 22 21  1  1
 22 24  1  0
 23 22  1  0
 25 24  1  6
 25 27  1  0
 26 25  1  0
 27 29  2  0
 27 28  1  0
M  END
$$$$
