QHQ.pdb
     RDKit          3D

 29 29  0  0  1  0  0  0  0  0999 V2000
   14.1073  -19.5101   15.2589 N   0  0  0  0  0  0  0  0  0  0  0  0
   14.8163  -18.7658   16.2593 C   0  0  0  0  0  0  0  0  0  0  0  0
   15.7607  -19.3364   16.8188 O   0  0  0  0  0  0  0  0  0  0  0  0
   14.3376  -17.3886   16.5151 C   0  0  0  0  0  0  0  0  0  0  0  0
   13.1910  -17.0617   15.6216 C   0  0  0  0  0  0  0  0  0  0  0  0
   12.6151  -15.7114   15.8277 C   0  0  2  0  0  0  0  0  0  0  0  0
   13.6363  -14.7372   15.3754 N   0  0  0  0  0  0  0  0  0  0  0  0
   12.3275  -15.3873   17.2714 C   0  0  0  0  0  0  0  0  0  0  0  0
   13.2126  -14.7155   17.8956 O   0  0  0  0  0  0  0  0  0  0  0  0
   11.1759  -15.7705   17.9590 N   0  0  0  0  0  0  0  0  0  0  0  0
   10.9183  -15.4811   19.3793 C   0  0  1  0  0  0  0  0  0  0  0  0
    9.4782  -15.6296   19.6049 C   0  0  0  0  0  0  0  0  0  0  0  0
    8.6008  -14.5242   19.1959 C   0  0  0  0  0  0  0  0  0  0  0  0
    9.1631  -13.3561   18.6589 C   0  0  0  0  0  0  0  0  0  0  0  0
    8.1859  -12.4950   18.3608 N   0  0  0  0  0  0  0  0  0  0  0  0
    7.0247  -13.1050   18.7023 C   0  0  0  0  0  0  0  0  0  0  0  0
    7.2939  -14.3223   19.2019 N   0  0  0  0  0  0  0  0  0  0  0  0
   11.8372  -16.2536   20.2194 C   0  0  0  0  0  0  0  0  0  0  0  0
   12.5787  -17.1046   19.6633 O   0  0  0  0  0  0  0  0  0  0  0  0
   16.3245  -13.8460   20.1716 N   0  0  0  0  0  0  0  0  0  0  0  0
   16.5870  -14.9232   21.0226 C   0  0  0  0  0  0  0  0  0  0  0  0
   17.6275  -15.5987   20.8952 O   0  0  0  0  0  0  0  0  0  0  0  0
   15.6179  -15.2766   22.0981 C   0  0  0  0  0  0  0  0  0  0  0  0
   14.2009  -15.2307   21.5865 C   0  0  0  0  0  0  0  0  0  0  0  0
   13.2951  -16.2591   22.2165 C   0  0  2  0  0  0  0  0  0  0  0  0
   11.9555  -16.1188   21.6111 N   0  0  0  0  0  0  0  0  0  0  0  0
   13.1874  -16.1513   23.6849 C   0  0  0  0  0  0  0  0  0  0  0  0
   12.2037  -15.5099   24.1918 O   0  0  0  0  0  0  0  0  0  0  0  0
   14.0677  -16.6910   24.5955 O   0  0  0  0  0  0  0  0  0  0  0  0
  2  1  1  0
  3  2  2  0
  4  2  1  0
  5  4  1  0
  6  5  1  0
  6  7  1  1
  8  6  1  0
  9  8  2  0
 10  8  1  0
 11 10  1  0
 11 12  1  1
 12 13  1  0
 13 14  2  0
 14 15  1  0
 16 15  1  0
 17 13  1  0
 17 16  2  0
 18 26  1  0
 18 11  1  0
 19 18  2  0
 21 20  1  0
 22 21  2  0
 23 21  1  0
 25 24  1  6
 24 23  1  0
 25 26  1  0
 27 25  1  0
 28 27  2  0
 29 27  1  0
M  END
$$$$
