QHQ.pdb
     RDKit          3D

 29 29  0  0  1  0  0  0  0  0999 V2000
    7.9289  -13.0875   19.4501 N   0  0  0  0  0  0  0  0  0  0  0  0
    8.0067  -13.3689   18.0457 C   0  0  0  0  0  0  0  0  0  0  0  0
    7.5081  -12.5363   17.2785 O   0  0  0  0  0  0  0  0  0  0  0  0
    8.6782  -14.6321   17.6655 C   0  0  0  0  0  0  0  0  0  0  0  0
    9.1839  -15.3376   18.8764 C   0  0  0  0  0  0  0  0  0  0  0  0
    9.8572  -16.6292   18.6005 C   0  0  2  0  0  0  0  0  0  0  0  0
    8.8556  -17.5019   17.9435 N   0  0  0  0  0  0  0  0  0  0  0  0
   10.3073  -17.3571   19.8413 C   0  0  0  0  0  0  0  0  0  0  0  0
    9.5055  -18.2244   20.3201 O   0  0  0  0  0  0  0  0  0  0  0  0
   11.5233  -17.1452   20.4913 N   0  0  0  0  0  0  0  0  0  0  0  0
   11.9757  -17.8920   21.6766 C   0  0  1  0  0  0  0  0  0  0  0  0
   13.4360  -17.9891   21.6050 C   0  0  0  0  0  0  0  0  0  0  0  0
   14.1201  -18.8138   22.6104 C   0  0  0  0  0  0  0  0  0  0  0  0
   13.3676  -19.4680   23.5978 C   0  0  0  0  0  0  0  0  0  0  0  0
   14.1915  -20.1534   24.3957 N   0  0  0  0  0  0  0  0  0  0  0  0
   15.4438  -19.9385   23.9238 C   0  0  0  0  0  0  0  0  0  0  0  0
   15.3808  -19.1319   22.8518 N   0  0  0  0  0  0  0  0  0  0  0  0
   11.3750  -17.3202   22.8845 C   0  0  0  0  0  0  0  0  0  0  0  0
   11.7827  -16.1962   23.2767 O   0  0  0  0  0  0  0  0  0  0  0  0
    5.7021  -18.1124   24.8983 N   0  0  0  0  0  0  0  0  0  0  0  0
    6.1148  -17.1593   23.9631 C   0  0  0  0  0  0  0  0  0  0  0  0
    5.2919  -16.6152   23.2003 O   0  0  0  0  0  0  0  0  0  0  0  0
    7.5535  -16.7821   23.8687 C   0  0  0  0  0  0  0  0  0  0  0  0
    8.3685  -17.4886   24.9215 C   0  0  0  0  0  0  0  0  0  0  0  0
    9.8488  -17.2153   24.8270 C   0  0  2  0  0  0  0  0  0  0  0  0
   10.3710  -17.9349   23.6479 N   0  0  0  0  0  0  0  0  0  0  0  0
   10.6142  -17.6105   26.0259 C   0  0  0  0  0  0  0  0  0  0  0  0
   11.1608  -18.7664   26.0629 O   0  0  0  0  0  0  0  0  0  0  0  0
   10.8075  -16.8340   27.1462 O   0  0  0  0  0  0  0  0  0  0  0  0
  2  1  1  0
  3  2  2  0
  4  2  1  0
  5  4  1  0
  6  5  1  0
  6  7  1  1
  8  6  1  0
  9  8  2  0
 10  8  1  0
 11 10  1  0
 11 12  1  1
 12 13  1  0
 13 14  2  0
 14 15  1  0
 16 15  1  0
 17 13  1  0
 17 16  2  0
 18 26  1  0
 18 11  1  0
 19 18  2  0
 21 20  1  0
 22 21  2  0
 23 21  1  0
 25 24  1  1
 24 23  1  0
 25 26  1  0
 27 25  1  0
 28 27  2  0
 29 27  1  0
M  END
$$$$
