QHQ.pdb
     RDKit          3D

 29 29  0  0  1  0  0  0  0  0999 V2000
   10.4237  -14.4129   12.1415 N   0  0  0  0  0  0  0  0  0  0  0  0
   11.7316  -14.7694   12.6104 C   0  0  0  0  0  0  0  0  0  0  0  0
   12.6057  -14.9467   11.7531 O   0  0  0  0  0  0  0  0  0  0  0  0
   11.8935  -14.8873   14.0771 C   0  0  0  0  0  0  0  0  0  0  0  0
   11.2734  -16.1495   14.5693 C   0  0  0  0  0  0  0  0  0  0  0  0
   11.8977  -16.7057   15.7935 C   0  0  2  0  0  0  0  0  0  0  0  0
   11.1726  -17.9585   16.1119 N   0  0  0  0  0  0  0  0  0  0  0  0
   11.7620  -15.8162   17.0027 C   0  0  0  0  0  0  0  0  0  0  0  0
   12.4757  -14.7604   17.0209 O   0  0  0  0  0  0  0  0  0  0  0  0
   10.9220  -16.0699   18.0872 N   0  0  0  0  0  0  0  0  0  0  0  0
   10.9140  -15.2893   19.3353 C   0  0  1  0  0  0  0  0  0  0  0  0
    9.5248  -15.2060   19.7937 C   0  0  0  0  0  0  0  0  0  0  0  0
    8.5988  -14.3579   19.0306 C   0  0  0  0  0  0  0  0  0  0  0  0
    8.4993  -12.9919   19.3362 C   0  0  0  0  0  0  0  0  0  0  0  0
    7.6047  -12.4239   18.5224 N   0  0  0  0  0  0  0  0  0  0  0  0
    7.1448  -13.4107   17.7151 C   0  0  0  0  0  0  0  0  0  0  0  0
    7.7532  -14.5645   18.0352 N   0  0  0  0  0  0  0  0  0  0  0  0
   11.9208  -15.8175   20.2595 C   0  0  0  0  0  0  0  0  0  0  0  0
   12.0233  -17.0661   20.3773 O   0  0  0  0  0  0  0  0  0  0  0  0
   17.7010  -14.7109   22.2315 N   0  0  0  0  0  0  0  0  0  0  0  0
   17.1765  -14.4327   20.9662 C   0  0  0  0  0  0  0  0  0  0  0  0
   17.9290  -14.1738   20.0060 O   0  0  0  0  0  0  0  0  0  0  0  0
   15.7018  -14.4431   20.7520 C   0  0  0  0  0  0  0  0  0  0  0  0
   14.9714  -14.7650   22.0306 C   0  0  0  0  0  0  0  0  0  0  0  0
   13.8150  -15.7155   21.8455 C   0  0  2  0  0  0  0  0  0  0  0  0
   12.7883  -15.0319   21.0335 N   0  0  0  0  0  0  0  0  0  0  0  0
   13.2127  -16.1878   23.1079 C   0  0  0  0  0  0  0  0  0  0  0  0
   12.0705  -15.7331   23.4614 O   0  0  0  0  0  0  0  0  0  0  0  0
   13.7740  -17.1004   23.9724 O   0  0  0  0  0  0  0  0  0  0  0  0
  2  1  1  0
  3  2  2  0
  4  2  1  0
  5  4  1  0
  6  5  1  0
  6  7  1  1
  8  6  1  0
  9  8  2  0
 10  8  1  0
 11 10  1  0
 11 12  1  1
 12 13  1  0
 13 14  2  0
 14 15  1  0
 16 15  1  0
 17 13  1  0
 17 16  2  0
 18 26  1  0
 18 11  1  0
 19 18  2  0
 21 20  1  0
 22 21  2  0
 23 21  1  0
 25 24  1  1
 24 23  1  0
 25 26  1  0
 27 25  1  0
 28 27  2  0
 29 27  1  0
M  END
$$$$
