QHQ.pdb
     RDKit          3D

 29 29  0  0  1  0  0  0  0  0999 V2000
   10.4563  -16.0043   13.2110 N   0  0  0  0  0  0  0  0  0  0  0  0
   11.8687  -15.7689   13.2958 C   0  0  0  0  0  0  0  0  0  0  0  0
   12.3919  -15.1530   12.3590 O   0  0  0  0  0  0  0  0  0  0  0  0
   12.5501  -16.2919   14.5013 C   0  0  0  0  0  0  0  0  0  0  0  0
   12.0283  -15.6224   15.7258 C   0  0  0  0  0  0  0  0  0  0  0  0
   12.5876  -16.1409   16.9970 C   0  0  2  0  0  0  0  0  0  0  0  0
   11.8355  -17.3756   17.3231 N   0  0  0  0  0  0  0  0  0  0  0  0
   12.4033  -15.2086   18.1670 C   0  0  0  0  0  0  0  0  0  0  0  0
   13.1685  -14.1905   18.2151 O   0  0  0  0  0  0  0  0  0  0  0  0
   11.4669  -15.3855   19.1857 N   0  0  0  0  0  0  0  0  0  0  0  0
   11.2054  -14.4089   20.2559 C   0  0  1  0  0  0  0  0  0  0  0  0
    9.7523  -14.3099   20.4163 C   0  0  0  0  0  0  0  0  0  0  0  0
    8.9421  -14.0774   19.2128 C   0  0  0  0  0  0  0  0  0  0  0  0
    8.5888  -12.7664   18.8586 C   0  0  0  0  0  0  0  0  0  0  0  0
    7.8586  -12.7954   17.7400 N   0  0  0  0  0  0  0  0  0  0  0  0
    7.7503  -14.1004   17.3905 C   0  0  0  0  0  0  0  0  0  0  0  0
    8.4072  -14.8550   18.2866 N   0  0  0  0  0  0  0  0  0  0  0  0
   12.0147  -14.7322   21.4337 C   0  0  0  0  0  0  0  0  0  0  0  0
   11.8022  -14.0914   22.4956 O   0  0  0  0  0  0  0  0  0  0  0  0
   10.5630  -19.0095   24.7427 N   0  0  0  0  0  0  0  0  0  0  0  0
   11.8640  -18.5001   24.7062 C   0  0  0  0  0  0  0  0  0  0  0  0
   12.6143  -18.5937   25.6979 O   0  0  0  0  0  0  0  0  0  0  0  0
   12.3698  -17.8355   23.4720 C   0  0  0  0  0  0  0  0  0  0  0  0
   12.8461  -16.4363   23.7671 C   0  0  0  0  0  0  0  0  0  0  0  0
   13.7834  -15.8821   22.7234 C   0  0  2  0  0  0  0  0  0  0  0  0
   13.0205  -15.7099   21.4707 N   0  0  0  0  0  0  0  0  0  0  0  0
   14.9692  -16.7235   22.4679 C   0  0  0  0  0  0  0  0  0  0  0  0
   15.8485  -16.8563   23.3874 O   0  0  0  0  0  0  0  0  0  0  0  0
   15.2332  -17.4045   21.3009 O   0  0  0  0  0  0  0  0  0  0  0  0
  2  1  1  0
  3  2  2  0
  4  2  1  0
  5  4  1  0
  6  5  1  0
  6  7  1  1
  8  6  1  0
  9  8  2  0
 10  8  1  0
 11 10  1  0
 11 12  1  1
 12 13  1  0
 13 14  2  0
 14 15  1  0
 16 15  1  0
 17 13  1  0
 17 16  2  0
 18 26  1  0
 18 11  1  0
 19 18  2  0
 21 20  1  0
 22 21  2  0
 23 21  1  0
 25 24  1  1
 24 23  1  0
 25 26  1  0
 27 25  1  0
 28 27  2  0
 29 27  1  0
M  END
$$$$
