QHQ.pdb
     RDKit          3D

 29 29  0  0  1  0  0  0  0  0999 V2000
    7.9565  -11.3199   19.6294 N   0  0  0  0  0  0  0  0  0  0  0  0
    8.1377  -12.4524   20.4909 C   0  0  0  0  0  0  0  0  0  0  0  0
    8.0274  -12.2553   21.7072 O   0  0  0  0  0  0  0  0  0  0  0  0
    8.4392  -13.7406   19.8269 C   0  0  0  0  0  0  0  0  0  0  0  0
    8.4596  -13.5710   18.3468 C   0  0  0  0  0  0  0  0  0  0  0  0
    8.8892  -14.7743   17.5949 C   0  0  2  0  0  0  0  0  0  0  0  0
    7.8524  -15.8099   17.8164 N   0  0  0  0  0  0  0  0  0  0  0  0
   10.1891  -15.3625   18.0810 C   0  0  0  0  0  0  0  0  0  0  0  0
   10.1124  -16.2417   19.0005 O   0  0  0  0  0  0  0  0  0  0  0  0
   11.4506  -15.0114   17.6001 N   0  0  0  0  0  0  0  0  0  0  0  0
   12.7154  -15.5980   18.0729 C   0  0  1  0  0  0  0  0  0  0  0  0
   13.7551  -15.2431   17.1033 C   0  0  0  0  0  0  0  0  0  0  0  0
   15.0443  -15.9426   17.1908 C   0  0  0  0  0  0  0  0  0  0  0  0
   15.0727  -17.3455   17.1854 C   0  0  0  0  0  0  0  0  0  0  0  0
   16.3400  -17.7595   17.2728 N   0  0  0  0  0  0  0  0  0  0  0  0
   17.1022  -16.6403   17.3325 C   0  0  0  0  0  0  0  0  0  0  0  0
   16.3066  -15.5594   17.2820 N   0  0  0  0  0  0  0  0  0  0  0  0
   12.9296  -15.2515   19.4804 C   0  0  0  0  0  0  0  0  0  0  0  0
   12.5911  -14.1035   19.8685 O   0  0  0  0  0  0  0  0  0  0  0  0
   10.4992  -17.5464   24.0633 N   0  0  0  0  0  0  0  0  0  0  0  0
   11.2961  -16.6332   24.7594 C   0  0  0  0  0  0  0  0  0  0  0  0
   11.0702  -16.3725   25.9578 O   0  0  0  0  0  0  0  0  0  0  0  0
   12.4317  -15.9580   24.0699 C   0  0  0  0  0  0  0  0  0  0  0  0
   12.3794  -16.1945   22.5823 C   0  0  0  0  0  0  0  0  0  0  0  0
   13.5674  -15.6384   21.8378 C   0  0  2  0  0  0  0  0  0  0  0  0
   13.4902  -16.1082   20.4399 N   0  0  0  0  0  0  0  0  0  0  0  0
   14.8730  -16.0158   22.4144 C   0  0  0  0  0  0  0  0  0  0  0  0
   15.5465  -16.9564   21.8686 O   0  0  0  0  0  0  0  0  0  0  0  0
   15.4603  -15.4373   23.5170 O   0  0  0  0  0  0  0  0  0  0  0  0
  2  1  1  0
  3  2  2  0
  4  2  1  0
  5  4  1  0
  6  5  1  0
  6  7  1  1
  8  6  1  0
  9  8  2  0
 10  8  1  0
 11 10  1  0
 11 12  1  6
 12 13  1  0
 13 14  2  0
 14 15  1  0
 16 15  1  0
 17 13  1  0
 17 16  2  0
 18 26  1  0
 18 11  1  0
 19 18  2  0
 21 20  1  0
 22 21  2  0
 23 21  1  0
 25 24  1  1
 24 23  1  0
 25 26  1  0
 27 25  1  0
 28 27  2  0
 29 27  1  0
M  END
$$$$
