QHQ.pdb
     RDKit          3D

 29 29  0  0  1  0  0  0  0  0999 V2000
   11.3093  -16.9001   15.6527 N   0  0  0  0  0  0  0  0  0  0  0  0
   10.0306  -17.3593   15.1927 C   0  0  0  0  0  0  0  0  0  0  0  0
   10.0285  -18.2975   14.3862 O   0  0  0  0  0  0  0  0  0  0  0  0
    8.8464  -16.6563   15.7355 C   0  0  0  0  0  0  0  0  0  0  0  0
    9.2617  -15.6331   16.7357 C   0  0  0  0  0  0  0  0  0  0  0  0
    8.1387  -14.9615   17.4324 C   0  0  2  0  0  0  0  0  0  0  0  0
    7.9289  -13.6619   16.7517 N   0  0  0  0  0  0  0  0  0  0  0  0
    8.4235  -14.6438   18.8781 C   0  0  0  0  0  0  0  0  0  0  0  0
    9.4171  -13.8807   19.1125 O   0  0  0  0  0  0  0  0  0  0  0  0
    7.6846  -15.1245   19.9592 N   0  0  0  0  0  0  0  0  0  0  0  0
    7.9739  -14.8158   21.3693 C   0  0  1  0  0  0  0  0  0  0  0  0
    6.6962  -14.7934   22.0863 C   0  0  0  0  0  0  0  0  0  0  0  0
    6.7157  -14.4512   23.5151 C   0  0  0  0  0  0  0  0  0  0  0  0
    7.9228  -14.0669   24.1186 C   0  0  0  0  0  0  0  0  0  0  0  0
    7.7040  -13.8046   25.4104 N   0  0  0  0  0  0  0  0  0  0  0  0
    6.3826  -14.0183   25.6231 C   0  0  0  0  0  0  0  0  0  0  0  0
    5.8059  -14.4059   24.4736 N   0  0  0  0  0  0  0  0  0  0  0  0
    9.0341  -15.6975   21.8647 C   0  0  0  0  0  0  0  0  0  0  0  0
    9.0938  -16.8694   21.4104 O   0  0  0  0  0  0  0  0  0  0  0  0
   14.3954  -16.5154   21.4886 N   0  0  0  0  0  0  0  0  0  0  0  0
   14.1252  -17.2229   22.6633 C   0  0  0  0  0  0  0  0  0  0  0  0
   14.4425  -18.4240   22.7726 O   0  0  0  0  0  0  0  0  0  0  0  0
   13.4502  -16.5425   23.8045 C   0  0  0  0  0  0  0  0  0  0  0  0
   12.3390  -15.6468   23.3200 C   0  0  0  0  0  0  0  0  0  0  0  0
   11.0037  -16.3403   23.2142 C   0  0  2  0  0  0  0  0  0  0  0  0
    9.9977  -15.3345   22.8178 N   0  0  0  0  0  0  0  0  0  0  0  0
   10.5701  -17.0098   24.4564 C   0  0  0  0  0  0  0  0  0  0  0  0
    9.6680  -16.4604   25.1778 O   0  0  0  0  0  0  0  0  0  0  0  0
   11.0536  -18.2075   24.9330 O   0  0  0  0  0  0  0  0  0  0  0  0
  2  1  1  0
  3  2  2  0
  4  2  1  0
  5  4  1  0
  6  5  1  0
  6  7  1  6
  8  6  1  0
  9  8  2  0
 10  8  1  0
 11 10  1  0
 11 12  1  1
 12 13  1  0
 13 14  2  0
 14 15  1  0
 16 15  1  0
 17 13  1  0
 17 16  2  0
 18 26  1  0
 18 11  1  0
 19 18  2  0
 21 20  1  0
 22 21  2  0
 23 21  1  0
 25 24  1  1
 24 23  1  0
 25 26  1  0
 27 25  1  0
 28 27  2  0
 29 27  1  0
M  END
$$$$
