QHQ.pdb
     RDKit          3D

 29 29  0  0  1  0  0  0  0  0999 V2000
   11.9010  -16.2103   16.7479 N   0  0  0  0  0  0  0  0  0  0  0  0
   10.7250  -16.2755   15.9292 C   0  0  0  0  0  0  0  0  0  0  0  0
   10.8448  -16.8026   14.8163 O   0  0  0  0  0  0  0  0  0  0  0  0
    9.4895  -15.7013   16.5081 C   0  0  0  0  0  0  0  0  0  0  0  0
    9.7081  -15.3261   17.9332 C   0  0  0  0  0  0  0  0  0  0  0  0
    8.5038  -14.8082   18.6254 C   0  0  2  0  0  0  0  0  0  0  0  0
    8.1328  -13.5426   17.9492 N   0  0  0  0  0  0  0  0  0  0  0  0
    8.7365  -14.4642   20.0744 C   0  0  0  0  0  0  0  0  0  0  0  0
    9.7772  -13.7783   20.3410 O   0  0  0  0  0  0  0  0  0  0  0  0
    7.9026  -14.8436   21.1263 N   0  0  0  0  0  0  0  0  0  0  0  0
    8.0843  -14.4253   22.5261 C   0  0  1  0  0  0  0  0  0  0  0  0
    6.7611  -14.0965   23.0628 C   0  0  0  0  0  0  0  0  0  0  0  0
    6.6816  -13.6158   24.4490 C   0  0  0  0  0  0  0  0  0  0  0  0
    7.8587  -13.2724   25.1314 C   0  0  0  0  0  0  0  0  0  0  0  0
    7.5480  -12.8653   26.3655 N   0  0  0  0  0  0  0  0  0  0  0  0
    6.1989  -12.9485   26.4648 C   0  0  0  0  0  0  0  0  0  0  0  0
    5.6963  -13.4010   25.3044 N   0  0  0  0  0  0  0  0  0  0  0  0
    8.8983  -15.4130   23.2393 C   0  0  0  0  0  0  0  0  0  0  0  0
    8.8638  -16.6077   22.8460 O   0  0  0  0  0  0  0  0  0  0  0  0
   10.5250  -13.4892   28.9402 N   0  0  0  0  0  0  0  0  0  0  0  0
   10.5873  -14.8392   28.5839 C   0  0  0  0  0  0  0  0  0  0  0  0
   11.1790  -15.6640   29.3083 O   0  0  0  0  0  0  0  0  0  0  0  0
    9.9421  -15.3082   27.3251 C   0  0  0  0  0  0  0  0  0  0  0  0
   10.9751  -15.7327   26.3130 C   0  0  0  0  0  0  0  0  0  0  0  0
   10.3850  -16.2546   25.0268 C   0  0  2  0  0  0  0  0  0  0  0  0
    9.7213  -15.1286   24.3396 N   0  0  0  0  0  0  0  0  0  0  0  0
    9.4226  -17.3594   25.2077 C   0  0  0  0  0  0  0  0  0  0  0  0
    8.1694  -17.1098   25.1474 O   0  0  0  0  0  0  0  0  0  0  0  0
    9.7479  -18.6766   25.4411 O   0  0  0  0  0  0  0  0  0  0  0  0
  2  1  1  0
  3  2  2  0
  4  2  1  0
  5  4  1  0
  6  5  1  0
  6  7  1  6
  8  6  1  0
  9  8  2  0
 10  8  1  0
 11 10  1  0
 11 12  1  1
 12 13  1  0
 13 14  2  0
 14 15  1  0
 16 15  1  0
 17 13  1  0
 17 16  2  0
 18 26  1  0
 18 11  1  0
 19 18  2  0
 21 20  1  0
 22 21  2  0
 23 21  1  0
 25 24  1  1
 24 23  1  0
 25 26  1  0
 27 25  1  0
 28 27  2  0
 29 27  1  0
M  END
$$$$
