QFN.pdb
     RDKit          3D

 29 29  0  0  1  0  0  0  0  0999 V2000
    8.2043  -14.9294   16.9728 N   0  0  0  0  0  0  0  0  0  0  0  0
    7.9736  -13.6362   17.5533 C   0  0  0  0  0  0  0  0  0  0  0  0
    8.1689  -12.6729   16.7466 O   0  0  0  0  0  0  0  0  0  0  0  0
    7.5590  -13.4764   18.9386 C   0  0  0  0  0  0  0  0  0  0  0  0
    8.5388  -13.7682   20.0092 C   0  0  0  0  0  0  0  0  0  0  0  0
    8.2527  -14.9266   20.8935 C   0  0  2  0  0  0  0  0  0  0  0  0
    6.8936  -15.3272   21.0423 N   0  0  0  0  0  0  0  0  0  0  0  0
    8.8347  -14.8228   22.2551 C   0  0  0  0  0  0  0  0  0  0  0  0
    9.9890  -14.3446   22.3744 O   0  0  0  0  0  0  0  0  0  0  0  0
    8.1091  -15.2541   23.3838 N   0  0  0  0  0  0  0  0  0  0  0  0
    8.6588  -15.2250   24.7319 C   0  0  1  0  0  0  0  0  0  0  0  0
    7.6099  -15.1412   25.7828 C   0  0  0  0  0  0  0  0  0  0  0  0
    7.1911  -13.7069   25.9967 C   0  0  0  0  0  0  0  0  0  0  0  0
    8.1776  -12.7566   26.0532 C   0  0  0  0  0  0  0  0  0  0  0  0
    7.8791  -11.4075   26.2575 C   0  0  0  0  0  0  0  0  0  0  0  0
    6.5778  -11.0030   26.4088 C   0  0  0  0  0  0  0  0  0  0  0  0
    5.5859  -11.9876   26.3482 C   0  0  0  0  0  0  0  0  0  0  0  0
    5.8863  -13.3308   26.1435 C   0  0  0  0  0  0  0  0  0  0  0  0
    9.6494  -16.2923   24.9001 C   0  0  0  0  0  0  0  0  0  0  0  0
   10.0744  -16.5393   26.0915 O   0  0  0  0  0  0  0  0  0  0  0  0
   12.3938  -20.6041   24.6650 N   0  0  0  0  0  0  0  0  0  0  0  0
   11.3497  -20.6258   23.6669 C   0  0  0  0  0  0  0  0  0  0  0  0
   11.1780  -21.7212   23.0894 O   0  0  0  0  0  0  0  0  0  0  0  0
   10.5623  -19.4255   23.3722 C   0  0  0  0  0  0  0  0  0  0  0  0
   10.9999  -18.2527   24.2089 C   0  0  2  0  0  0  0  0  0  0  0  0
   10.1815  -17.0768   23.8735 N   0  0  0  0  0  0  0  0  0  0  0  0
   12.4358  -17.8965   23.9414 C   0  0  0  0  0  0  0  0  0  0  0  0
   12.7682  -17.0839   22.8414 O   0  0  0  0  0  0  0  0  0  0  0  0
   13.3981  -18.2680   24.6305 O   0  0  0  0  0  0  0  0  0  0  0  0
  2  1  1  0
  2  3  2  0
  4  2  1  0
  5  6  1  0
  5  4  1  0
  6  7  1  1
  8  6  1  0
  8  9  2  0
 10  8  1  0
 11 10  1  0
 12 13  1  0
 11 12  1  1
 13 14  2  0
 13 18  1  0
 14 15  1  0
 15 16  2  0
 17 16  1  0
 18 17  2  0
 19 11  1  0
 20 19  2  0
 21 22  1  0
 22 23  2  0
 24 22  1  0
 25 24  1  6
 25 26  1  0
 26 19  1  0
 27 25  1  0
 28 27  1  0
 29 27  2  0
M  END
$$$$
