QFN.pdb
     RDKit          3D

 29 29  0  0  1  0  0  0  0  0999 V2000
    8.0432  -12.6788   16.8137 N   0  0  0  0  0  0  0  0  0  0  0  0
    8.0728  -14.0258   16.3163 C   0  0  0  0  0  0  0  0  0  0  0  0
    7.5425  -14.1573   15.1681 O   0  0  0  0  0  0  0  0  0  0  0  0
    8.6591  -15.1163   17.0802 C   0  0  0  0  0  0  0  0  0  0  0  0
    9.2122  -14.8239   18.4218 C   0  0  0  0  0  0  0  0  0  0  0  0
    8.9795  -15.8330   19.4864 C   0  0  2  0  0  0  0  0  0  0  0  0
    7.7569  -16.5636   19.4514 N   0  0  0  0  0  0  0  0  0  0  0  0
    9.1500  -15.3220   20.8696 C   0  0  0  0  0  0  0  0  0  0  0  0
   10.2558  -14.8203   21.1870 O   0  0  0  0  0  0  0  0  0  0  0  0
    8.0965  -15.4022   21.8024 N   0  0  0  0  0  0  0  0  0  0  0  0
    8.1797  -14.8242   23.1364 C   0  0  1  0  0  0  0  0  0  0  0  0
    6.9379  -14.1101   23.5360 C   0  0  0  0  0  0  0  0  0  0  0  0
    7.1067  -13.4799   24.8972 C   0  0  0  0  0  0  0  0  0  0  0  0
    6.4913  -14.0870   25.9612 C   0  0  0  0  0  0  0  0  0  0  0  0
    6.5878  -13.5656   27.2534 C   0  0  0  0  0  0  0  0  0  0  0  0
    7.3076  -12.4217   27.4850 C   0  0  0  0  0  0  0  0  0  0  0  0
    7.9279  -11.8174   26.3864 C   0  0  0  0  0  0  0  0  0  0  0  0
    7.8307  -12.3398   25.1003 C   0  0  0  0  0  0  0  0  0  0  0  0
    8.6821  -15.8173   24.0903 C   0  0  0  0  0  0  0  0  0  0  0  0
    7.9820  -16.8831   24.2771 O   0  0  0  0  0  0  0  0  0  0  0  0
   11.6024  -18.4269   23.4962 N   0  0  0  0  0  0  0  0  0  0  0  0
   12.1521  -17.3090   24.2275 C   0  0  0  0  0  0  0  0  0  0  0  0
   12.9801  -16.6105   23.6034 O   0  0  0  0  0  0  0  0  0  0  0  0
   11.7472  -17.0390   25.6098 C   0  0  0  0  0  0  0  0  0  0  0  0
   10.2632  -16.8100   25.7211 C   0  0  2  0  0  0  0  0  0  0  0  0
    9.8663  -15.7128   24.8245 N   0  0  0  0  0  0  0  0  0  0  0  0
    9.8747  -16.4160   27.1189 C   0  0  0  0  0  0  0  0  0  0  0  0
    9.5427  -17.4044   28.0642 O   0  0  0  0  0  0  0  0  0  0  0  0
    9.8174  -15.2491   27.5361 O   0  0  0  0  0  0  0  0  0  0  0  0
  2  1  1  0
  2  3  2  0
  4  2  1  0
  5  6  1  0
  5  4  1  0
  6  7  1  1
  8  6  1  0
  8  9  2  0
 10  8  1  0
 11 10  1  0
 12 13  1  0
 11 12  1  1
 13 14  2  0
 13 18  1  0
 14 15  1  0
 15 16  2  0
 17 16  1  0
 18 17  2  0
 19 11  1  0
 20 19  2  0
 21 22  1  0
 22 23  2  0
 24 22  1  0
 25 24  1  1
 25 26  1  0
 26 19  1  0
 27 25  1  0
 28 27  1  0
 29 27  2  0
M  END
$$$$
