QFN.pdb
     RDKit          3D

 29 29  0  0  1  0  0  0  0  0999 V2000
    8.3733  -12.5209   16.5168 N   0  0  0  0  0  0  0  0  0  0  0  0
    7.9342  -13.8622   16.2510 C   0  0  0  0  0  0  0  0  0  0  0  0
    7.2640  -13.9760   15.1765 O   0  0  0  0  0  0  0  0  0  0  0  0
    8.2411  -14.9653   17.1485 C   0  0  0  0  0  0  0  0  0  0  0  0
    9.0445  -14.6894   18.3608 C   0  0  0  0  0  0  0  0  0  0  0  0
    9.0183  -15.7104   19.4391 C   0  0  2  0  0  0  0  0  0  0  0  0
    7.9506  -16.6537   19.4330 N   0  0  0  0  0  0  0  0  0  0  0  0
    9.1137  -15.1592   20.8141 C   0  0  0  0  0  0  0  0  0  0  0  0
   10.0571  -14.3743   21.0768 O   0  0  0  0  0  0  0  0  0  0  0  0
    8.1696  -15.5124   21.7991 N   0  0  0  0  0  0  0  0  0  0  0  0
    8.1965  -14.9650   23.1483 C   0  0  1  0  0  0  0  0  0  0  0  0
    6.9659  -14.2020   23.4878 C   0  0  0  0  0  0  0  0  0  0  0  0
    7.0886  -13.5872   24.8609 C   0  0  0  0  0  0  0  0  0  0  0  0
    6.4273  -14.1989   25.8943 C   0  0  0  0  0  0  0  0  0  0  0  0
    6.4793  -13.6915   27.1946 C   0  0  0  0  0  0  0  0  0  0  0  0
    7.2004  -12.5571   27.4653 C   0  0  0  0  0  0  0  0  0  0  0  0
    7.8679  -11.9479   26.3975 C   0  0  0  0  0  0  0  0  0  0  0  0
    7.8150  -12.4563   25.1033 C   0  0  0  0  0  0  0  0  0  0  0  0
    8.5938  -15.9988   24.1084 C   0  0  0  0  0  0  0  0  0  0  0  0
    7.9475  -17.1138   24.0971 O   0  0  0  0  0  0  0  0  0  0  0  0
   13.0761  -18.7342   26.5456 N   0  0  0  0  0  0  0  0  0  0  0  0
   11.8446  -18.8016   25.7934 C   0  0  0  0  0  0  0  0  0  0  0  0
   11.2776  -19.9157   25.7852 O   0  0  0  0  0  0  0  0  0  0  0  0
   11.3213  -17.6243   25.0951 C   0  0  0  0  0  0  0  0  0  0  0  0
   10.0863  -17.0824   25.7647 C   0  0  2  0  0  0  0  0  0  0  0  0
    9.6230  -15.8846   25.0466 N   0  0  0  0  0  0  0  0  0  0  0  0
   10.3678  -16.6786   27.1852 C   0  0  0  0  0  0  0  0  0  0  0  0
   10.4646  -17.6580   28.1913 O   0  0  0  0  0  0  0  0  0  0  0  0
   10.5306  -15.5109   27.5709 O   0  0  0  0  0  0  0  0  0  0  0  0
  2  1  1  0
  2  3  2  0
  4  2  1  0
  5  6  1  0
  5  4  1  0
  6  7  1  1
  8  6  1  0
  8  9  2  0
 10  8  1  0
 11 10  1  0
 12 13  1  0
 11 12  1  1
 13 14  2  0
 13 18  1  0
 14 15  1  0
 15 16  2  0
 17 16  1  0
 18 17  2  0
 19 11  1  0
 20 19  2  0
 21 22  1  0
 22 23  2  0
 24 22  1  0
 25 24  1  6
 25 26  1  0
 26 19  1  0
 27 25  1  0
 28 27  1  0
 29 27  2  0
M  END
$$$$
