QFN.pdb
     RDKit          3D

 29 29  0  0  1  0  0  0  0  0999 V2000
    7.6711  -14.9286   16.8195 N   0  0  0  0  0  0  0  0  0  0  0  0
    8.3545  -13.8265   17.4368 C   0  0  0  0  0  0  0  0  0  0  0  0
    9.4930  -13.5818   16.9261 O   0  0  0  0  0  0  0  0  0  0  0  0
    7.7732  -13.0819   18.5432 C   0  0  0  0  0  0  0  0  0  0  0  0
    8.3170  -13.2951   19.9034 C   0  0  0  0  0  0  0  0  0  0  0  0
    8.1194  -14.6360   20.5107 C   0  0  2  0  0  0  0  0  0  0  0  0
    6.8277  -15.2277   20.4050 N   0  0  0  0  0  0  0  0  0  0  0  0
    8.5379  -14.7384   21.9312 C   0  0  0  0  0  0  0  0  0  0  0  0
    9.7152  -14.4217   22.2294 O   0  0  0  0  0  0  0  0  0  0  0  0
    7.6354  -15.1836   22.9180 N   0  0  0  0  0  0  0  0  0  0  0  0
    8.0045  -15.3174   24.3203 C   0  0  1  0  0  0  0  0  0  0  0  0
    6.8514  -15.1369   25.2419 C   0  0  0  0  0  0  0  0  0  0  0  0
    6.9068  -13.7778   25.8962 C   0  0  0  0  0  0  0  0  0  0  0  0
    5.7430  -13.0568   25.9673 C   0  0  0  0  0  0  0  0  0  0  0  0
    5.7068  -11.7868   26.5476 C   0  0  0  0  0  0  0  0  0  0  0  0
    6.8490  -11.2295   27.0623 C   0  0  0  0  0  0  0  0  0  0  0  0
    8.0260  -11.9810   26.9800 C   0  0  0  0  0  0  0  0  0  0  0  0
    8.0588  -13.2463   26.4021 C   0  0  0  0  0  0  0  0  0  0  0  0
    8.8017  -16.5307   24.5226 C   0  0  0  0  0  0  0  0  0  0  0  0
    8.4546  -17.5947   23.8835 O   0  0  0  0  0  0  0  0  0  0  0  0
   12.7188  -19.7930   24.8908 N   0  0  0  0  0  0  0  0  0  0  0  0
   12.8497  -18.5948   24.0945 C   0  0  0  0  0  0  0  0  0  0  0  0
   13.7797  -18.6011   23.2590 O   0  0  0  0  0  0  0  0  0  0  0  0
   11.9380  -17.4625   24.2792 C   0  0  0  0  0  0  0  0  0  0  0  0
   10.8127  -17.8009   25.2206 C   0  0  2  0  0  0  0  0  0  0  0  0
    9.9184  -16.6403   25.3554 N   0  0  0  0  0  0  0  0  0  0  0  0
   11.3300  -18.1359   26.5919 C   0  0  0  0  0  0  0  0  0  0  0  0
   10.8825  -17.4103   27.7117 O   0  0  0  0  0  0  0  0  0  0  0  0
   12.1507  -19.0325   26.8401 O   0  0  0  0  0  0  0  0  0  0  0  0
  2  1  1  0
  2  3  2  0
  4  2  1  0
  5  6  1  0
  5  4  1  0
  6  7  1  1
  8  6  1  0
  8  9  2  0
 10  8  1  0
 11 10  1  0
 12 13  1  0
 11 12  1  1
 13 14  2  0
 13 18  1  0
 14 15  1  0
 15 16  2  0
 17 16  1  0
 18 17  2  0
 19 11  1  0
 20 19  2  0
 21 22  1  0
 22 23  2  0
 24 22  1  0
 25 24  1  6
 25 26  1  0
 26 19  1  0
 27 25  1  0
 28 27  1  0
 29 27  2  0
M  END
$$$$
