QFN.pdb
     RDKit          3D

 29 29  0  0  1  0  0  0  0  0999 V2000
    9.0402  -12.6570   16.3254 N   0  0  0  0  0  0  0  0  0  0  0  0
    8.3838  -13.8978   16.0220 C   0  0  0  0  0  0  0  0  0  0  0  0
    8.3100  -14.1446   14.7768 O   0  0  0  0  0  0  0  0  0  0  0  0
    7.8605  -14.7675   17.0643 C   0  0  0  0  0  0  0  0  0  0  0  0
    8.0843  -14.3918   18.4785 C   0  0  0  0  0  0  0  0  0  0  0  0
    8.5862  -15.4509   19.3907 C   0  0  2  0  0  0  0  0  0  0  0  0
    7.8568  -16.6732   19.4521 N   0  0  0  0  0  0  0  0  0  0  0  0
    8.8189  -15.0041   20.7870 C   0  0  0  0  0  0  0  0  0  0  0  0
    9.9598  -14.5808   21.0944 O   0  0  0  0  0  0  0  0  0  0  0  0
    7.7845  -15.0579   21.7427 N   0  0  0  0  0  0  0  0  0  0  0  0
    7.9501  -14.5855   23.1102 C   0  0  1  0  0  0  0  0  0  0  0  0
    6.8014  -13.7676   23.5829 C   0  0  0  0  0  0  0  0  0  0  0  0
    7.0212  -13.3241   25.0089 C   0  0  0  0  0  0  0  0  0  0  0  0
    8.0115  -12.4061   25.2453 C   0  0  0  0  0  0  0  0  0  0  0  0
    8.2882  -11.9487   26.5356 C   0  0  0  0  0  0  0  0  0  0  0  0
    7.5667  -12.4158   27.6039 C   0  0  0  0  0  0  0  0  0  0  0  0
    6.5607  -13.3519   27.3419 C   0  0  0  0  0  0  0  0  0  0  0  0
    6.2867  -13.8051   26.0551 C   0  0  0  0  0  0  0  0  0  0  0  0
    8.3514  -15.6912   23.9849 C   0  0  0  0  0  0  0  0  0  0  0  0
    7.7130  -16.8059   23.8804 O   0  0  0  0  0  0  0  0  0  0  0  0
   11.2903  -19.7067   25.0672 N   0  0  0  0  0  0  0  0  0  0  0  0
   11.8778  -18.4060   25.2903 C   0  0  0  0  0  0  0  0  0  0  0  0
   12.9392  -18.3994   25.9508 O   0  0  0  0  0  0  0  0  0  0  0  0
   11.2459  -17.1924   24.7656 C   0  0  0  0  0  0  0  0  0  0  0  0
    9.9384  -16.9027   25.4539 C   0  0  2  0  0  0  0  0  0  0  0  0
    9.3763  -15.6465   24.9334 N   0  0  0  0  0  0  0  0  0  0  0  0
   10.1269  -16.7351   26.9360 C   0  0  0  0  0  0  0  0  0  0  0  0
   10.4011  -15.4634   27.4731 O   0  0  0  0  0  0  0  0  0  0  0  0
   10.0599  -17.6536   27.7672 O   0  0  0  0  0  0  0  0  0  0  0  0
  2  1  1  0
  2  3  2  0
  4  2  1  0
  5  6  1  0
  5  4  1  0
  6  7  1  1
  8  6  1  0
  8  9  2  0
 10  8  1  0
 11 10  1  0
 12 13  1  0
 11 12  1  1
 13 14  2  0
 13 18  1  0
 14 15  1  0
 15 16  2  0
 17 16  1  0
 18 17  2  0
 19 11  1  0
 20 19  2  0
 21 22  1  0
 22 23  2  0
 24 22  1  0
 25 24  1  6
 25 26  1  0
 26 19  1  0
 27 25  1  0
 28 27  1  0
 29 27  2  0
M  END
$$$$
