QFN.pdb
     RDKit          3D

 29 29  0  0  1  0  0  0  0  0999 V2000
    8.9062  -12.6930   17.8728 N   0  0  0  0  0  0  0  0  0  0  0  0
    7.8158  -13.5987   18.1033 C   0  0  0  0  0  0  0  0  0  0  0  0
    6.6733  -13.0912   17.8705 O   0  0  0  0  0  0  0  0  0  0  0  0
    8.0308  -14.9622   18.5629 C   0  0  0  0  0  0  0  0  0  0  0  0
    9.4163  -15.4083   18.8326 C   0  0  0  0  0  0  0  0  0  0  0  0
    9.6228  -16.3218   19.9853 C   0  0  2  0  0  0  0  0  0  0  0  0
    8.8091  -17.4888   20.0602 N   0  0  0  0  0  0  0  0  0  0  0  0
    9.5720  -15.6612   21.3137 C   0  0  0  0  0  0  0  0  0  0  0  0
   10.6068  -15.0885   21.7338 O   0  0  0  0  0  0  0  0  0  0  0  0
    8.3916  -15.6807   22.0835 N   0  0  0  0  0  0  0  0  0  0  0  0
    8.3000  -15.0667   23.4008 C   0  0  1  0  0  0  0  0  0  0  0  0
    7.0034  -14.3745   23.6276 C   0  0  0  0  0  0  0  0  0  0  0  0
    6.9846  -13.7228   24.9890 C   0  0  0  0  0  0  0  0  0  0  0  0
    6.2172  -14.3058   25.9639 C   0  0  0  0  0  0  0  0  0  0  0  0
    6.1352  -13.7633   27.2484 C   0  0  0  0  0  0  0  0  0  0  0  0
    6.8282  -12.6225   27.5622 C   0  0  0  0  0  0  0  0  0  0  0  0
    7.6053  -12.0430   26.5537 C   0  0  0  0  0  0  0  0  0  0  0  0
    7.6857  -12.5862   25.2752 C   0  0  0  0  0  0  0  0  0  0  0  0
    8.7053  -16.0219   24.4362 C   0  0  0  0  0  0  0  0  0  0  0  0
    8.0239  -17.1094   24.5544 O   0  0  0  0  0  0  0  0  0  0  0  0
   12.6037  -16.9953   23.9575 N   0  0  0  0  0  0  0  0  0  0  0  0
   11.9224  -17.8057   24.9403 C   0  0  0  0  0  0  0  0  0  0  0  0
   11.6878  -18.9851   24.5984 O   0  0  0  0  0  0  0  0  0  0  0  0
   11.5426  -17.2520   26.2429 C   0  0  0  0  0  0  0  0  0  0  0  0
   10.0764  -16.9141   26.2987 C   0  0  2  0  0  0  0  0  0  0  0  0
    9.7772  -15.8590   25.3177 N   0  0  0  0  0  0  0  0  0  0  0  0
    9.6867  -16.3956   27.6549 C   0  0  0  0  0  0  0  0  0  0  0  0
    9.6707  -17.2620   28.7638 O   0  0  0  0  0  0  0  0  0  0  0  0
    9.3639  -15.2229   27.8993 O   0  0  0  0  0  0  0  0  0  0  0  0
  2  1  1  0
  2  3  2  0
  4  2  1  0
  5  6  1  0
  5  4  1  0
  6  7  1  1
  8  6  1  0
  8  9  2  0
 10  8  1  0
 11 10  1  0
 12 13  1  0
 11 12  1  1
 13 14  2  0
 13 18  1  0
 14 15  1  0
 15 16  2  0
 17 16  1  0
 18 17  2  0
 19 11  1  0
 20 19  2  0
 21 22  1  0
 22 23  2  0
 24 22  1  0
 25 24  1  1
 25 26  1  0
 26 19  1  0
 27 25  1  0
 28 27  1  0
 29 27  2  0
M  END
$$$$
