CCP.pdb
     RDKit          3D

 20 20  0  0  1  0  0  0  0  0999 V2000
    2.8544  -19.0570   21.8797 N   0  0  0  0  0  0  0  0  0  0  0  0
    4.2622  -19.1632   22.1655 C   0  0  1  0  0  0  0  0  0  0  0  0
    4.9942  -19.9535   21.1111 C   0  0  0  0  0  0  0  0  0  0  0  0
    5.0938  -19.0662   19.5411 S   0  0  0  0  0  0  0  0  0  0  0  0
    4.9186  -17.8460   22.2884 C   0  0  0  0  0  0  0  0  0  0  0  0
    4.4437  -16.8911   21.6219 O   0  0  0  0  0  0  0  0  0  0  0  0
    6.0369  -17.5900   23.0998 N   0  0  0  0  0  0  0  0  0  0  0  0
    6.6942  -16.2622   23.1560 C   0  0  1  0  0  0  0  0  0  0  0  0
    7.4374  -16.3308   24.5024 C   0  0  0  0  0  0  0  0  0  0  0  0
    8.4165  -14.8478   24.7539 S   0  0  0  0  0  0  0  0  0  0  0  0
    7.6149  -16.1120   22.0191 C   0  0  0  0  0  0  0  0  0  0  0  0
    8.1437  -17.2134   21.5996 O   0  0  0  0  0  0  0  0  0  0  0  0
    7.9394  -14.8949   21.3869 N   0  0  0  0  0  0  0  0  0  0  0  0
    7.4570  -13.5864   21.8418 C   0  0  0  0  0  0  0  0  0  0  0  0
    7.2425  -12.9095   20.4870 C   0  0  0  0  0  0  0  0  0  0  0  0
    8.5746  -13.2223   19.8380 C   0  0  0  0  0  0  0  0  0  0  0  0
    8.7633  -14.6931   20.2323 C   0  0  1  0  0  0  0  0  0  0  0  0
   10.1978  -14.9087   20.5993 C   0  0  0  0  0  0  0  0  0  0  0  0
   11.1547  -15.0251   19.6176 O   0  0  0  0  0  0  0  0  0  0  0  0
   10.4912  -14.9782   21.8157 O   0  0  0  0  0  0  0  0  0  0  0  0
  2  5  1  0
  2  1  1  6
  3  2  1  0
  4  3  1  0
  5  6  2  0
  7  8  1  0
  7  5  1  0
  8  9  1  1
 10  9  1  0
 11 13  1  0
 11  8  1  0
 12 11  2  0
 13 17  1  0
 14 13  1  0
 14 15  1  0
 15 16  1  0
 17 18  1  1
 17 16  1  0
 18 20  2  0
 18 19  1  0
M  END
$$$$
