CCP.pdb
     RDKit          3D

 20 20  0  0  1  0  0  0  0  0999 V2000
    7.0176  -16.3361   19.1712 N   0  0  0  0  0  0  0  0  0  0  0  0
    8.0038  -15.9157   20.1332 C   0  0  1  0  0  0  0  0  0  0  0  0
    8.7574  -14.6944   19.6721 C   0  0  0  0  0  0  0  0  0  0  0  0
   10.0250  -14.1888   20.8552 S   0  0  0  0  0  0  0  0  0  0  0  0
    7.4179  -15.6197   21.4561 C   0  0  0  0  0  0  0  0  0  0  0  0
    6.4069  -14.8726   21.4944 O   0  0  0  0  0  0  0  0  0  0  0  0
    7.9148  -16.1172   22.6726 N   0  0  0  0  0  0  0  0  0  0  0  0
    7.2554  -15.8484   23.9731 C   0  0  1  0  0  0  0  0  0  0  0  0
    6.8819  -17.2667   24.4407 C   0  0  0  0  0  0  0  0  0  0  0  0
    6.4394  -17.2567   26.1801 S   0  0  0  0  0  0  0  0  0  0  0  0
    8.2024  -15.1922   24.8872 C   0  0  0  0  0  0  0  0  0  0  0  0
    9.4306  -15.5720   24.7607 O   0  0  0  0  0  0  0  0  0  0  0  0
    7.8669  -14.2173   25.8480 N   0  0  0  0  0  0  0  0  0  0  0  0
    6.5226  -13.6498   25.9981 C   0  0  0  0  0  0  0  0  0  0  0  0
    6.8930  -12.2052   26.3380 C   0  0  0  0  0  0  0  0  0  0  0  0
    7.9100  -12.4589   27.4311 C   0  0  0  0  0  0  0  0  0  0  0  0
    8.7217  -13.6114   26.8252 C   0  0  1  0  0  0  0  0  0  0  0  0
    9.0247  -14.6015   27.9054 C   0  0  0  0  0  0  0  0  0  0  0  0
    9.9533  -14.3055   28.8765 O   0  0  0  0  0  0  0  0  0  0  0  0
    8.4107  -15.6939   27.8932 O   0  0  0  0  0  0  0  0  0  0  0  0
  2  5  1  0
  2  1  1  6
  3  2  1  0
  4  3  1  0
  5  6  2  0
  7  8  1  0
  7  5  1  0
  8  9  1  1
 10  9  1  0
 11 13  1  0
 11  8  1  0
 12 11  2  0
 13 17  1  0
 14 13  1  0
 14 15  1  0
 15 16  1  0
 17 18  1  1
 17 16  1  0
 18 20  2  0
 18 19  1  0
M  END
$$$$
