CCP.pdb
     RDKit          3D

 20 20  0  0  1  0  0  0  0  0999 V2000
    4.2135  -20.3633   23.1359 N   0  0  0  0  0  0  0  0  0  0  0  0
    5.4507  -19.9243   23.7286 C   0  0  1  0  0  0  0  0  0  0  0  0
    6.6431  -20.6280   23.1326 C   0  0  0  0  0  0  0  0  0  0  0  0
    6.9184  -22.2509   23.8761 S   0  0  0  0  0  0  0  0  0  0  0  0
    5.6622  -18.4692   23.5914 C   0  0  0  0  0  0  0  0  0  0  0  0
    5.1807  -17.9008   22.5781 O   0  0  0  0  0  0  0  0  0  0  0  0
    6.3649  -17.6793   24.5171 N   0  0  0  0  0  0  0  0  0  0  0  0
    6.7295  -16.2679   24.2466 C   0  0  1  0  0  0  0  0  0  0  0  0
    7.0206  -15.7367   25.6619 C   0  0  0  0  0  0  0  0  0  0  0  0
    7.6227  -14.0476   25.5855 S   0  0  0  0  0  0  0  0  0  0  0  0
    7.9149  -16.2158   23.3777 C   0  0  0  0  0  0  0  0  0  0  0  0
    8.7621  -17.1743   23.5573 O   0  0  0  0  0  0  0  0  0  0  0  0
    8.1704  -15.2294   22.4041 N   0  0  0  0  0  0  0  0  0  0  0  0
    7.3035  -14.0689   22.1726 C   0  0  0  0  0  0  0  0  0  0  0  0
    7.4156  -13.9675   20.6506 C   0  0  0  0  0  0  0  0  0  0  0  0
    8.9217  -14.0319   20.5063 C   0  0  0  0  0  0  0  0  0  0  0  0
    9.2701  -15.1581   21.4884 C   0  0  1  0  0  0  0  0  0  0  0  0
   10.5127  -14.7774   22.2300 C   0  0  0  0  0  0  0  0  0  0  0  0
   11.7302  -14.7784   21.5892 O   0  0  0  0  0  0  0  0  0  0  0  0
   10.4053  -14.4623   23.4382 O   0  0  0  0  0  0  0  0  0  0  0  0
  2  5  1  0
  2  1  1  6
  3  2  1  0
  4  3  1  0
  5  6  2  0
  7  8  1  0
  7  5  1  0
  8  9  1  1
 10  9  1  0
 11 13  1  0
 11  8  1  0
 12 11  2  0
 13 17  1  0
 14 13  1  0
 14 15  1  0
 15 16  1  0
 17 18  1  1
 17 16  1  0
 18 20  2  0
 18 19  1  0
M  END
$$$$
