CCP.pdb
     RDKit          3D

 20 20  0  0  1  0  0  0  0  0999 V2000
    8.0221  -13.6072   20.1261 N   0  0  0  0  0  0  0  0  0  0  0  0
    7.9701  -14.6407   21.1281 C   0  0  1  0  0  0  0  0  0  0  0  0
    8.9426  -15.7557   20.8399 C   0  0  0  0  0  0  0  0  0  0  0  0
    8.1053  -17.2865   20.3734 S   0  0  0  0  0  0  0  0  0  0  0  0
    8.2476  -14.1307   22.4860 C   0  0  0  0  0  0  0  0  0  0  0  0
    9.2778  -13.4277   22.6479 O   0  0  0  0  0  0  0  0  0  0  0  0
    7.4378  -14.3789   23.6071 N   0  0  0  0  0  0  0  0  0  0  0  0
    7.7391  -13.8219   24.9477 C   0  0  1  0  0  0  0  0  0  0  0  0
    6.3294  -13.5733   25.5141 C   0  0  0  0  0  0  0  0  0  0  0  0
    6.4176  -13.1779   27.2627 S   0  0  0  0  0  0  0  0  0  0  0  0
    8.4917  -14.8062   25.7400 C   0  0  0  0  0  0  0  0  0  0  0  0
    8.4050  -16.0238   25.3173 O   0  0  0  0  0  0  0  0  0  0  0  0
    9.2678  -14.5148   26.8797 N   0  0  0  0  0  0  0  0  0  0  0  0
    9.2278  -13.2298   27.5862 C   0  0  0  0  0  0  0  0  0  0  0  0
   10.7052  -13.0990   27.9597 C   0  0  0  0  0  0  0  0  0  0  0  0
   10.9333  -14.4704   28.5603 C   0  0  0  0  0  0  0  0  0  0  0  0
   10.2055  -15.3663   27.5493 C   0  0  1  0  0  0  0  0  0  0  0  0
    9.4665  -16.4297   28.2991 C   0  0  0  0  0  0  0  0  0  0  0  0
   10.1573  -17.4130   28.9690 O   0  0  0  0  0  0  0  0  0  0  0  0
    8.2139  -16.3922   28.2944 O   0  0  0  0  0  0  0  0  0  0  0  0
  2  5  1  0
  2  1  1  6
  3  2  1  0
  4  3  1  0
  5  6  2  0
  7  8  1  0
  7  5  1  0
  8  9  1  1
 10  9  1  0
 11 13  1  0
 11  8  1  0
 12 11  2  0
 13 17  1  0
 14 13  1  0
 14 15  1  0
 15 16  1  0
 17 18  1  1
 17 16  1  0
 18 20  2  0
 18 19  1  0
M  END
$$$$
