CCP.pdb
     RDKit          3D

 20 20  0  0  1  0  0  0  0  0999 V2000
    5.7642  -19.6382   21.6646 N   0  0  0  0  0  0  0  0  0  0  0  0
    6.8120  -18.6856   21.9284 C   0  0  1  0  0  0  0  0  0  0  0  0
    6.9240  -17.6528   20.8362 C   0  0  0  0  0  0  0  0  0  0  0  0
    7.6145  -18.3410   19.3158 S   0  0  0  0  0  0  0  0  0  0  0  0
    6.6270  -17.9774   23.2111 C   0  0  0  0  0  0  0  0  0  0  0  0
    5.4744  -17.5558   23.4858 O   0  0  0  0  0  0  0  0  0  0  0  0
    7.6524  -17.7441   24.1430 N   0  0  0  0  0  0  0  0  0  0  0  0
    7.4054  -17.1024   25.4566 C   0  0  1  0  0  0  0  0  0  0  0  0
    7.8575  -18.1994   26.4376 C   0  0  0  0  0  0  0  0  0  0  0  0
    7.9939  -17.5359   28.0997 S   0  0  0  0  0  0  0  0  0  0  0  0
    8.2153  -15.8806   25.5760 C   0  0  0  0  0  0  0  0  0  0  0  0
    9.3884  -15.9525   25.0399 O   0  0  0  0  0  0  0  0  0  0  0  0
    7.8073  -14.6897   26.2096 N   0  0  0  0  0  0  0  0  0  0  0  0
    6.4558  -14.4680   26.7353 C   0  0  0  0  0  0  0  0  0  0  0  0
    6.2873  -12.9881   26.3871 C   0  0  0  0  0  0  0  0  0  0  0  0
    7.5890  -12.4508   26.9442 C   0  0  0  0  0  0  0  0  0  0  0  0
    8.5849  -13.5125   26.4591 C   0  0  1  0  0  0  0  0  0  0  0  0
    9.5644  -13.7852   27.5569 C   0  0  0  0  0  0  0  0  0  0  0  0
   10.5439  -12.8665   27.8561 O   0  0  0  0  0  0  0  0  0  0  0  0
    9.4613  -14.8651   28.1844 O   0  0  0  0  0  0  0  0  0  0  0  0
  2  5  1  0
  2  1  1  6
  3  2  1  0
  4  3  1  0
  5  6  2  0
  7  8  1  0
  7  5  1  0
  8  9  1  1
 10  9  1  0
 11 13  1  0
 11  8  1  0
 12 11  2  0
 13 17  1  0
 14 13  1  0
 14 15  1  0
 15 16  1  0
 17 18  1  1
 17 16  1  0
 18 20  2  0
 18 19  1  0
M  END
$$$$
