CCP.pdb
     RDKit          3D

 20 20  0  0  1  0  0  0  0  0999 V2000
    8.8812  -14.6682   20.2068 N   0  0  0  0  0  0  0  0  0  0  0  0
    8.3431  -15.4596   21.2833 C   0  0  1  0  0  0  0  0  0  0  0  0
    8.9610  -16.8335   21.3374 C   0  0  0  0  0  0  0  0  0  0  0  0
    8.3007  -17.8246   22.6953 S   0  0  0  0  0  0  0  0  0  0  0  0
    8.5257  -14.8232   22.6034 C   0  0  0  0  0  0  0  0  0  0  0  0
    9.6382  -14.2898   22.8470 O   0  0  0  0  0  0  0  0  0  0  0  0
    7.5397  -14.7746   23.6033 N   0  0  0  0  0  0  0  0  0  0  0  0
    7.7676  -14.1264   24.9172 C   0  0  1  0  0  0  0  0  0  0  0  0
    6.3288  -13.8573   25.3941 C   0  0  0  0  0  0  0  0  0  0  0  0
    6.3284  -13.2977   27.0995 S   0  0  0  0  0  0  0  0  0  0  0  0
    8.4870  -15.0471   25.8104 C   0  0  0  0  0  0  0  0  0  0  0  0
    8.4593  -16.2868   25.4485 O   0  0  0  0  0  0  0  0  0  0  0  0
    9.1750  -14.6756   26.9829 N   0  0  0  0  0  0  0  0  0  0  0  0
    9.0445  -13.3621   27.6229 C   0  0  0  0  0  0  0  0  0  0  0  0
   10.4884  -13.1601   28.0853 C   0  0  0  0  0  0  0  0  0  0  0  0
   10.7220  -14.4933   28.7644 C   0  0  0  0  0  0  0  0  0  0  0  0
   10.0941  -15.4606   27.7523 C   0  0  1  0  0  0  0  0  0  0  0  0
    9.3431  -16.5152   28.5023 C   0  0  0  0  0  0  0  0  0  0  0  0
   10.0193  -17.5458   29.1134 O   0  0  0  0  0  0  0  0  0  0  0  0
    8.0940  -16.4265   28.5527 O   0  0  0  0  0  0  0  0  0  0  0  0
  2  5  1  0
  2  1  1  6
  3  2  1  0
  4  3  1  0
  5  6  2  0
  7  8  1  0
  7  5  1  0
  8  9  1  1
 10  9  1  0
 11 13  1  0
 11  8  1  0
 12 11  2  0
 13 17  1  0
 14 13  1  0
 14 15  1  0
 15 16  1  0
 17 18  1  1
 17 16  1  0
 18 20  2  0
 18 19  1  0
M  END
$$$$
