CCP.pdb
     RDKit          3D

 20 20  0  0  1  0  0  0  0  0999 V2000
    8.1116  -13.9977   20.0516 N   0  0  0  0  0  0  0  0  0  0  0  0
    8.1710  -14.9816   21.1020 C   0  0  1  0  0  0  0  0  0  0  0  0
    9.2764  -15.9814   20.8770 C   0  0  0  0  0  0  0  0  0  0  0  0
    8.6678  -17.6819   20.8781 S   0  0  0  0  0  0  0  0  0  0  0  0
    8.3638  -14.3783   22.4361 C   0  0  0  0  0  0  0  0  0  0  0  0
    9.2747  -13.5206   22.5643 O   0  0  0  0  0  0  0  0  0  0  0  0
    7.5979  -14.6990   23.5695 N   0  0  0  0  0  0  0  0  0  0  0  0
    7.8487  -14.0930   24.8993 C   0  0  1  0  0  0  0  0  0  0  0  0
    6.4193  -13.9047   25.4389 C   0  0  0  0  0  0  0  0  0  0  0  0
    6.4607  -13.4219   27.1671 S   0  0  0  0  0  0  0  0  0  0  0  0
    8.6394  -15.0158   25.7277 C   0  0  0  0  0  0  0  0  0  0  0  0
    8.6753  -16.2341   25.2999 O   0  0  0  0  0  0  0  0  0  0  0  0
    9.3303  -14.6671   26.9055 N   0  0  0  0  0  0  0  0  0  0  0  0
    9.1281  -13.4052   27.6257 C   0  0  0  0  0  0  0  0  0  0  0  0
   10.5664  -13.1321   28.0685 C   0  0  0  0  0  0  0  0  0  0  0  0
   10.9060  -14.4835   28.6615 C   0  0  0  0  0  0  0  0  0  0  0  0
   10.3191  -15.4308   27.6068 C   0  0  1  0  0  0  0  0  0  0  0  0
    9.6597  -16.5764   28.3081 C   0  0  0  0  0  0  0  0  0  0  0  0
   10.4184  -17.5104   28.9750 O   0  0  0  0  0  0  0  0  0  0  0  0
    8.4095  -16.6525   28.2663 O   0  0  0  0  0  0  0  0  0  0  0  0
  2  5  1  0
  2  1  1  6
  3  2  1  0
  4  3  1  0
  5  6  2  0
  7  8  1  0
  7  5  1  0
  8  9  1  1
 10  9  1  0
 11 13  1  0
 11  8  1  0
 12 11  2  0
 13 17  1  0
 14 13  1  0
 14 15  1  0
 15 16  1  0
 17 18  1  1
 17 16  1  0
 18 20  2  0
 18 19  1  0
M  END
$$$$
