CCP.pdb
     RDKit          3D

 20 20  0  0  1  0  0  0  0  0999 V2000
    7.9902  -13.8532   20.0469 N   0  0  0  0  0  0  0  0  0  0  0  0
    8.0538  -14.8446   21.0899 C   0  0  1  0  0  0  0  0  0  0  0  0
    9.1362  -15.8625   20.8359 C   0  0  0  0  0  0  0  0  0  0  0  0
    9.2137  -17.1136   22.1361 S   0  0  0  0  0  0  0  0  0  0  0  0
    8.2851  -14.2533   22.4232 C   0  0  0  0  0  0  0  0  0  0  0  0
    9.1708  -13.3662   22.5243 O   0  0  0  0  0  0  0  0  0  0  0  0
    7.5819  -14.6163   23.5843 N   0  0  0  0  0  0  0  0  0  0  0  0
    7.8512  -13.9993   24.9054 C   0  0  1  0  0  0  0  0  0  0  0  0
    6.4283  -13.7298   25.4277 C   0  0  0  0  0  0  0  0  0  0  0  0
    6.4771  -13.2377   27.1531 S   0  0  0  0  0  0  0  0  0  0  0  0
    8.5871  -14.9452   25.7578 C   0  0  0  0  0  0  0  0  0  0  0  0
    8.5231  -16.1790   25.3805 O   0  0  0  0  0  0  0  0  0  0  0  0
    9.3259  -14.6028   26.9081 N   0  0  0  0  0  0  0  0  0  0  0  0
    9.2230  -13.3063   27.5866 C   0  0  0  0  0  0  0  0  0  0  0  0
   10.6858  -13.1139   27.9901 C   0  0  0  0  0  0  0  0  0  0  0  0
   10.9497  -14.4637   28.6239 C   0  0  0  0  0  0  0  0  0  0  0  0
   10.2783  -15.4057   27.6159 C   0  0  1  0  0  0  0  0  0  0  0  0
    9.5614  -16.4804   28.3710 C   0  0  0  0  0  0  0  0  0  0  0  0
   10.2714  -17.4136   29.0907 O   0  0  0  0  0  0  0  0  0  0  0  0
    8.3092  -16.4988   28.3246 O   0  0  0  0  0  0  0  0  0  0  0  0
  2  5  1  0
  2  1  1  6
  3  2  1  0
  4  3  1  0
  5  6  2  0
  7  8  1  0
  7  5  1  0
  8  9  1  1
 10  9  1  0
 11 13  1  0
 11  8  1  0
 12 11  2  0
 13 17  1  0
 14 13  1  0
 14 15  1  0
 15 16  1  0
 17 18  1  1
 17 16  1  0
 18 20  2  0
 18 19  1  0
M  END
$$$$
