CCP.pdb
     RDKit          3D

 20 20  0  0  1  0  0  0  0  0999 V2000
    3.3692  -19.0710   22.2379 N   0  0  0  0  0  0  0  0  0  0  0  0
    4.7699  -19.0716   22.5738 C   0  0  1  0  0  0  0  0  0  0  0  0
    5.5630  -19.9960   21.6858 C   0  0  0  0  0  0  0  0  0  0  0  0
    7.3042  -20.0690   22.1602 S   0  0  0  0  0  0  0  0  0  0  0  0
    5.3751  -17.7269   22.4916 C   0  0  0  0  0  0  0  0  0  0  0  0
    5.0856  -17.0148   21.4962 O   0  0  0  0  0  0  0  0  0  0  0  0
    6.2515  -17.1919   23.4508 N   0  0  0  0  0  0  0  0  0  0  0  0
    6.8431  -15.8383   23.3235 C   0  0  1  0  0  0  0  0  0  0  0  0
    7.4535  -15.6242   24.7204 C   0  0  0  0  0  0  0  0  0  0  0  0
    8.3512  -14.0712   24.7805 S   0  0  0  0  0  0  0  0  0  0  0  0
    7.8631  -15.8365   22.2640 C   0  0  0  0  0  0  0  0  0  0  0  0
    8.4759  -16.9616   22.0986 O   0  0  0  0  0  0  0  0  0  0  0  0
    8.1964  -14.7325   21.4539 N   0  0  0  0  0  0  0  0  0  0  0  0
    7.6157  -13.3956   21.6192 C   0  0  0  0  0  0  0  0  0  0  0  0
    7.5080  -12.9819   20.1506 C   0  0  0  0  0  0  0  0  0  0  0  0
    8.9101  -13.3237   19.6915 C   0  0  0  0  0  0  0  0  0  0  0  0
    9.1215  -14.6882   20.3607 C   0  0  1  0  0  0  0  0  0  0  0  0
   10.5203  -14.7495   20.8883 C   0  0  0  0  0  0  0  0  0  0  0  0
   11.5766  -14.9523   20.0304 O   0  0  0  0  0  0  0  0  0  0  0  0
   10.6919  -14.6115   22.1221 O   0  0  0  0  0  0  0  0  0  0  0  0
  2  5  1  0
  2  1  1  6
  3  2  1  0
  4  3  1  0
  5  6  2  0
  7  8  1  0
  7  5  1  0
  8  9  1  1
 10  9  1  0
 11 13  1  0
 11  8  1  0
 12 11  2  0
 13 17  1  0
 14 13  1  0
 14 15  1  0
 15 16  1  0
 17 18  1  1
 17 16  1  0
 18 20  2  0
 18 19  1  0
M  END
$$$$
