WLK.pdb
     RDKit          3D

 32 33  0  0  1  0  0  0  0  0999 V2000
    7.2876  -18.5239   24.4674 N   0  0  0  0  0  0  0  0  0  0  0  0
    7.3074  -17.0831   24.1608 C   0  0  1  0  0  0  0  0  0  0  0  0
    7.9125  -16.3675   25.3820 C   0  0  0  0  0  0  0  0  0  0  0  0
    6.9105  -15.4036   25.8930 C   0  0  0  0  0  0  0  0  0  0  0  0
    5.5925  -15.6751   26.2686 C   0  0  0  0  0  0  0  0  0  0  0  0
    5.0330  -14.5275   26.6667 N   0  0  0  0  0  0  0  0  0  0  0  0
    5.8918  -13.5100   26.5812 C   0  0  0  0  0  0  0  0  0  0  0  0
    5.7762  -12.1747   26.8728 C   0  0  0  0  0  0  0  0  0  0  0  0
    6.8846  -11.3736   26.6667 C   0  0  0  0  0  0  0  0  0  0  0  0
    8.0895  -11.8728   26.1820 C   0  0  0  0  0  0  0  0  0  0  0  0
    8.1596  -13.2205   25.9029 C   0  0  0  0  0  0  0  0  0  0  0  0
    7.0685  -14.0398   26.0998 C   0  0  0  0  0  0  0  0  0  0  0  0
    8.2420  -16.8681   23.0250 C   0  0  0  0  0  0  0  0  0  0  0  0
    8.9643  -17.8119   22.5690 O   0  0  0  0  0  0  0  0  0  0  0  0
    6.5285  -13.9673   20.5983 C   0  0  0  0  0  0  0  0  0  0  0  0
    7.8362  -13.6392   19.8634 C   0  0  1  0  0  0  0  0  0  0  0  0
    7.7495  -12.1386   19.6004 C   0  0  0  0  0  0  0  0  0  0  0  0
    8.9930  -13.9861   20.7261 C   0  0  0  0  0  0  0  0  0  0  0  0
    9.0536  -15.4003   21.2185 C   0  0  2  0  0  0  0  0  0  0  0  0
    8.3162  -15.5707   22.4492 N   0  0  0  0  0  0  0  0  0  0  0  0
   10.4910  -15.8127   21.4080 C   0  0  0  0  0  0  0  0  0  0  0  0
   11.2988  -15.8586   20.4499 O   0  0  0  0  0  0  0  0  0  0  0  0
   10.9767  -16.1626   22.6845 N   0  0  0  0  0  0  0  0  0  0  0  0
   12.4059  -16.4747   22.8390 C   0  0  1  0  0  0  0  0  0  0  0  0
   12.7316  -16.5327   24.3190 C   0  0  0  0  0  0  0  0  0  0  0  0
   14.1418  -16.9132   24.5529 C   0  0  0  0  0  0  0  0  0  0  0  0
   14.3889  -16.9184   26.0803 C   0  0  0  0  0  0  0  0  0  0  0  0
   15.8454  -17.2674   26.2661 C   0  0  0  0  0  0  0  0  0  0  0  0
   16.1183  -17.1913   27.6817 N   0  0  0  0  0  0  0  0  0  0  0  0
   12.6597  -17.7749   22.2165 C   0  0  0  0  0  0  0  0  0  0  0  0
   13.8500  -18.0526   21.5966 O   0  0  0  0  0  0  0  0  0  0  0  0
   11.7721  -18.6600   22.2440 O   0  0  0  0  0  0  0  0  0  0  0  0
  2  1  1  1
  3  2  1  0
  3  4  1  0
  4 12  1  0
  4  5  2  0
  5  6  1  0
  7  8  2  0
  7  6  1  0
  9  8  1  0
 10  9  2  0
 11 10  1  0
 11 12  2  0
 12  7  1  0
 13  2  1  0
 14 13  2  0
 16 15  1  1
 16 18  1  0
 16 17  1  0
 19 18  1  1
 19 21  1  0
 19 20  1  0
 20 13  1  0
 21 23  1  0
 22 21  2  0
 23 24  1  0
 24 30  1  0
 24 25  1  1
 25 26  1  0
 27 26  1  0
 28 27  1  0
 29 28  1  0
 30 32  2  0
 30 31  1  0
M  END
$$$$
