WLK.pdb
     RDKit          3D

 32 33  0  0  1  0  0  0  0  0999 V2000
    6.6944  -17.9230   25.5815 N   0  0  0  0  0  0  0  0  0  0  0  0
    7.0509  -16.5548   25.1674 C   0  0  1  0  0  0  0  0  0  0  0  0
    8.4498  -16.2582   25.7370 C   0  0  0  0  0  0  0  0  0  0  0  0
    8.3217  -15.1588   26.7214 C   0  0  0  0  0  0  0  0  0  0  0  0
    8.6337  -15.2034   28.0825 C   0  0  0  0  0  0  0  0  0  0  0  0
    8.3679  -14.0016   28.6055 N   0  0  0  0  0  0  0  0  0  0  0  0
    7.8999  -13.1598   27.6822 C   0  0  0  0  0  0  0  0  0  0  0  0
    7.5001  -11.8491   27.7428 C   0  0  0  0  0  0  0  0  0  0  0  0
    7.0584  -11.2572   26.5735 C   0  0  0  0  0  0  0  0  0  0  0  0
    7.0089  -11.9390   25.3616 C   0  0  0  0  0  0  0  0  0  0  0  0
    7.4203  -13.2541   25.3481 C   0  0  0  0  0  0  0  0  0  0  0  0
    7.8647  -13.8665   26.5005 C   0  0  0  0  0  0  0  0  0  0  0  0
    7.1737  -16.5406   23.6861 C   0  0  0  0  0  0  0  0  0  0  0  0
    6.9695  -17.5872   22.9908 O   0  0  0  0  0  0  0  0  0  0  0  0
    6.8972  -14.0899   18.8784 C   0  0  0  0  0  0  0  0  0  0  0  0
    8.2031  -13.8114   19.6365 C   0  0  1  0  0  0  0  0  0  0  0  0
    8.5723  -12.3871   19.2322 C   0  0  0  0  0  0  0  0  0  0  0  0
    7.9667  -13.9307   21.0969 C   0  0  0  0  0  0  0  0  0  0  0  0
    7.7132  -15.3130   21.6177 C   0  0  2  0  0  0  0  0  0  0  0  0
    7.5291  -15.3199   23.0506 N   0  0  0  0  0  0  0  0  0  0  0  0
    8.8540  -16.2198   21.2321 C   0  0  0  0  0  0  0  0  0  0  0  0
    8.8046  -16.9501   20.2138 O   0  0  0  0  0  0  0  0  0  0  0  0
   10.0259  -16.2738   22.0140 N   0  0  0  0  0  0  0  0  0  0  0  0
   11.2217  -16.9243   21.4564 C   0  0  1  0  0  0  0  0  0  0  0  0
   11.6803  -16.1371   20.2440 C   0  0  0  0  0  0  0  0  0  0  0  0
   11.9446  -17.0210   19.0877 C   0  0  0  0  0  0  0  0  0  0  0  0
   12.7053  -16.1981   18.0207 C   0  0  0  0  0  0  0  0  0  0  0  0
   13.0725  -17.1713   16.9271 C   0  0  0  0  0  0  0  0  0  0  0  0
   12.8223  -16.5052   15.6708 N   0  0  0  0  0  0  0  0  0  0  0  0
   12.2649  -16.9202   22.4831 C   0  0  0  0  0  0  0  0  0  0  0  0
   12.7083  -18.0821   23.0590 O   0  0  0  0  0  0  0  0  0  0  0  0
   12.7682  -15.8328   22.8523 O   0  0  0  0  0  0  0  0  0  0  0  0
  2  1  1  1
  3  2  1  0
  3  4  1  0
  4 12  1  0
  4  5  2  0
  5  6  1  0
  7  8  2  0
  7  6  1  0
  9  8  1  0
 10  9  2  0
 11 10  1  0
 11 12  2  0
 12  7  1  0
 13  2  1  0
 14 13  2  0
 16 15  1  6
 16 18  1  0
 16 17  1  0
 19 18  1  1
 19 21  1  0
 19 20  1  0
 20 13  1  0
 21 23  1  0
 22 21  2  0
 23 24  1  0
 24 30  1  0
 24 25  1  6
 25 26  1  0
 27 26  1  0
 28 27  1  0
 29 28  1  0
 30 32  2  0
 30 31  1  0
M  END
$$$$
