WLK.pdb
     RDKit          3D

 32 33  0  0  1  0  0  0  0  0999 V2000
    6.7594  -18.3973   21.8192 N   0  0  0  0  0  0  0  0  0  0  0  0
    6.8164  -17.9804   23.2310 C   0  0  1  0  0  0  0  0  0  0  0  0
    7.8815  -18.8530   23.9192 C   0  0  0  0  0  0  0  0  0  0  0  0
    7.2000  -19.7065   24.9199 C   0  0  0  0  0  0  0  0  0  0  0  0
    6.0723  -20.5064   24.7195 C   0  0  0  0  0  0  0  0  0  0  0  0
    5.7817  -21.1065   25.8788 N   0  0  0  0  0  0  0  0  0  0  0  0
    6.6419  -20.7589   26.8377 C   0  0  0  0  0  0  0  0  0  0  0  0
    6.7460  -21.1110   28.1593 C   0  0  0  0  0  0  0  0  0  0  0  0
    7.7803  -20.5577   28.8921 C   0  0  0  0  0  0  0  0  0  0  0  0
    8.6999  -19.6722   28.3388 C   0  0  0  0  0  0  0  0  0  0  0  0
    8.5563  -19.3472   27.0074 C   0  0  0  0  0  0  0  0  0  0  0  0
    7.5336  -19.8854   26.2557 C   0  0  0  0  0  0  0  0  0  0  0  0
    7.3087  -16.5785   23.2764 C   0  0  0  0  0  0  0  0  0  0  0  0
    8.2816  -16.1905   22.5529 O   0  0  0  0  0  0  0  0  0  0  0  0
    7.4517  -11.4548   24.9106 C   0  0  0  0  0  0  0  0  0  0  0  0
    7.2644  -12.4464   26.0679 C   0  0  1  0  0  0  0  0  0  0  0  0
    6.3842  -11.6958   27.0630 C   0  0  0  0  0  0  0  0  0  0  0  0
    6.6086  -13.6797   25.5661 C   0  0  0  0  0  0  0  0  0  0  0  0
    7.3576  -14.4526   24.5232 C   0  0  2  0  0  0  0  0  0  0  0  0
    6.6647  -15.6659   24.1554 N   0  0  0  0  0  0  0  0  0  0  0  0
    8.7434  -14.7721   25.0229 C   0  0  0  0  0  0  0  0  0  0  0  0
    9.7266  -14.0382   24.7635 O   0  0  0  0  0  0  0  0  0  0  0  0
    8.9783  -15.9194   25.8079 N   0  0  0  0  0  0  0  0  0  0  0  0
   10.2761  -16.0621   26.4856 C   0  0  1  0  0  0  0  0  0  0  0  0
   10.0742  -16.8701   27.7530 C   0  0  0  0  0  0  0  0  0  0  0  0
   11.3523  -17.1045   28.4600 C   0  0  0  0  0  0  0  0  0  0  0  0
   11.0652  -18.0143   29.6782 C   0  0  0  0  0  0  0  0  0  0  0  0
   12.4044  -18.2913   30.3167 C   0  0  0  0  0  0  0  0  0  0  0  0
   12.1508  -19.0811   31.4984 N   0  0  0  0  0  0  0  0  0  0  0  0
   11.1891  -16.7634   25.5817 C   0  0  0  0  0  0  0  0  0  0  0  0
   12.5465  -16.5905   25.6579 O   0  0  0  0  0  0  0  0  0  0  0  0
   10.7270  -17.5402   24.7127 O   0  0  0  0  0  0  0  0  0  0  0  0
  2  1  1  6
  3  2  1  0
  3  4  1  0
  4 12  1  0
  4  5  2  0
  5  6  1  0
  7  8  2  0
  7  6  1  0
  9  8  1  0
 10  9  2  0
 11 10  1  0
 11 12  2  0
 12  7  1  0
 13  2  1  0
 14 13  2  0
 16 15  1  6
 16 18  1  0
 16 17  1  0
 19 18  1  1
 19 21  1  0
 19 20  1  0
 20 13  1  0
 21 23  1  0
 22 21  2  0
 23 24  1  0
 24 30  1  0
 24 25  1  1
 25 26  1  0
 27 26  1  0
 28 27  1  0
 29 28  1  0
 30 32  2  0
 30 31  1  0
M  END
$$$$
