WLK.pdb
     RDKit          3D

 32 33  0  0  1  0  0  0  0  0999 V2000
    6.8108  -17.8179   25.2178 N   0  0  0  0  0  0  0  0  0  0  0  0
    7.2859  -16.4924   24.7847 C   0  0  1  0  0  0  0  0  0  0  0  0
    8.5301  -16.1587   25.6274 C   0  0  0  0  0  0  0  0  0  0  0  0
    8.1570  -15.1066   26.6012 C   0  0  0  0  0  0  0  0  0  0  0  0
    8.4033  -15.1033   27.9764 C   0  0  0  0  0  0  0  0  0  0  0  0
    7.8997  -13.9722   28.4821 N   0  0  0  0  0  0  0  0  0  0  0  0
    7.3348  -13.2223   27.5342 C   0  0  0  0  0  0  0  0  0  0  0  0
    6.7033  -12.0053   27.5711 C   0  0  0  0  0  0  0  0  0  0  0  0
    6.2216  -11.4949   26.3793 C   0  0  0  0  0  0  0  0  0  0  0  0
    6.3563  -12.1665   25.1683 C   0  0  0  0  0  0  0  0  0  0  0  0
    6.9978  -13.3861   25.1791 C   0  0  0  0  0  0  0  0  0  0  0  0
    7.4867  -13.9161   26.3541 C   0  0  0  0  0  0  0  0  0  0  0  0
    7.7359  -16.6047   23.3724 C   0  0  0  0  0  0  0  0  0  0  0  0
    7.6189  -17.6918   22.7205 O   0  0  0  0  0  0  0  0  0  0  0  0
    7.6125  -12.0566   20.2298 C   0  0  0  0  0  0  0  0  0  0  0  0
    7.4291  -13.4594   20.8267 C   0  0  1  0  0  0  0  0  0  0  0  0
    6.2937  -14.0671   20.0082 C   0  0  0  0  0  0  0  0  0  0  0  0
    8.6899  -14.2296   20.6855 C   0  0  0  0  0  0  0  0  0  0  0  0
    8.7375  -15.5579   21.3780 C   0  0  2  0  0  0  0  0  0  0  0  0
    8.3083  -15.4600   22.7541 N   0  0  0  0  0  0  0  0  0  0  0  0
   10.1337  -16.1214   21.3040 C   0  0  0  0  0  0  0  0  0  0  0  0
   10.7296  -16.2732   20.2111 O   0  0  0  0  0  0  0  0  0  0  0  0
   10.8204  -16.4982   22.4762 N   0  0  0  0  0  0  0  0  0  0  0  0
   12.1589  -17.0960   22.3534 C   0  0  1  0  0  0  0  0  0  0  0  0
   12.7604  -17.2253   23.7395 C   0  0  0  0  0  0  0  0  0  0  0  0
   12.2661  -18.4318   24.4383 C   0  0  0  0  0  0  0  0  0  0  0  0
   12.9665  -18.5072   25.8160 C   0  0  0  0  0  0  0  0  0  0  0  0
   12.3178  -19.6545   26.5514 C   0  0  0  0  0  0  0  0  0  0  0  0
   12.9561  -19.7395   27.8436 N   0  0  0  0  0  0  0  0  0  0  0  0
   12.0147  -18.4180   21.7419 C   0  0  0  0  0  0  0  0  0  0  0  0
   13.0976  -19.1084   21.2635 O   0  0  0  0  0  0  0  0  0  0  0  0
   10.8774  -18.9373   21.6472 O   0  0  0  0  0  0  0  0  0  0  0  0
  2  1  1  1
  3  2  1  0
  3  4  1  0
  4 12  1  0
  4  5  2  0
  5  6  1  0
  7  8  2  0
  7  6  1  0
  9  8  1  0
 10  9  2  0
 11 10  1  0
 11 12  2  0
 12  7  1  0
 13  2  1  0
 14 13  2  0
 16 15  1  6
 16 18  1  0
 16 17  1  0
 19 18  1  1
 19 21  1  0
 19 20  1  0
 20 13  1  0
 21 23  1  0
 22 21  2  0
 23 24  1  0
 24 30  1  0
 24 25  1  1
 25 26  1  0
 27 26  1  0
 28 27  1  0
 29 28  1  0
 30 32  2  0
 30 31  1  0
M  END
$$$$
