WLK.pdb
     RDKit          3D

 32 33  0  0  1  0  0  0  0  0999 V2000
   10.6077  -16.3269   21.5990 N   0  0  0  0  0  0  0  0  0  0  0  0
    9.3619  -15.6048   21.9105 C   0  0  1  0  0  0  0  0  0  0  0  0
    8.1951  -16.4788   21.4166 C   0  0  0  0  0  0  0  0  0  0  0  0
    7.6651  -15.8769   20.1712 C   0  0  0  0  0  0  0  0  0  0  0  0
    6.8209  -16.4793   19.2349 C   0  0  0  0  0  0  0  0  0  0  0  0
    6.5873  -15.5931   18.2609 N   0  0  0  0  0  0  0  0  0  0  0  0
    7.2200  -14.4405   18.4872 C   0  0  0  0  0  0  0  0  0  0  0  0
    7.2786  -13.2638   17.7849 C   0  0  0  0  0  0  0  0  0  0  0  0
    8.0436  -12.2387   18.3110 C   0  0  0  0  0  0  0  0  0  0  0  0
    8.7415  -12.3639   19.5082 C   0  0  0  0  0  0  0  0  0  0  0  0
    8.6535  -13.5641   20.1796 C   0  0  0  0  0  0  0  0  0  0  0  0
    7.8974  -14.6009   19.6756 C   0  0  0  0  0  0  0  0  0  0  0  0
    9.2407  -15.5148   23.3893 C   0  0  0  0  0  0  0  0  0  0  0  0
   10.1426  -15.9752   24.1607 O   0  0  0  0  0  0  0  0  0  0  0  0
    8.1226  -12.2449   27.3998 C   0  0  0  0  0  0  0  0  0  0  0  0
    6.8982  -13.1078   27.0624 C   0  0  1  0  0  0  0  0  0  0  0  0
    5.7114  -12.1765   27.2913 C   0  0  0  0  0  0  0  0  0  0  0  0
    6.9830  -13.5635   25.6524 C   0  0  0  0  0  0  0  0  0  0  0  0
    8.0901  -14.5207   25.3295 C   0  0  2  0  0  0  0  0  0  0  0  0
    8.0826  -14.8970   23.9346 N   0  0  0  0  0  0  0  0  0  0  0  0
    7.9764  -15.7444   26.2024 C   0  0  0  0  0  0  0  0  0  0  0  0
    7.8355  -15.6603   27.4456 O   0  0  0  0  0  0  0  0  0  0  0  0
    8.0247  -17.0362   25.6399 N   0  0  0  0  0  0  0  0  0  0  0  0
    7.8794  -18.2018   26.5256 C   0  0  1  0  0  0  0  0  0  0  0  0
    7.7126  -19.4425   25.6696 C   0  0  0  0  0  0  0  0  0  0  0  0
    6.6159  -19.2856   24.6894 C   0  0  0  0  0  0  0  0  0  0  0  0
    6.5292  -20.5867   23.8564 C   0  0  0  0  0  0  0  0  0  0  0  0
    5.5422  -20.3081   22.7491 C   0  0  0  0  0  0  0  0  0  0  0  0
    5.5885  -21.4377   21.8513 N   0  0  0  0  0  0  0  0  0  0  0  0
    9.0909  -18.3111   27.3397 C   0  0  0  0  0  0  0  0  0  0  0  0
   10.1269  -17.4239   27.2057 O   0  0  0  0  0  0  0  0  0  0  0  0
    9.1928  -19.2362   28.1797 O   0  0  0  0  0  0  0  0  0  0  0  0
  2  1  1  1
  3  2  1  0
  3  4  1  0
  4 12  1  0
  4  5  2  0
  5  6  1  0
  7  8  2  0
  7  6  1  0
  9  8  1  0
 10  9  2  0
 11 10  1  0
 11 12  2  0
 12  7  1  0
 13  2  1  0
 14 13  2  0
 16 15  1  6
 16 18  1  0
 16 17  1  0
 19 18  1  6
 19 21  1  0
 19 20  1  0
 20 13  1  0
 21 23  1  0
 22 21  2  0
 23 24  1  0
 24 30  1  0
 24 25  1  6
 25 26  1  0
 27 26  1  0
 28 27  1  0
 29 28  1  0
 30 32  2  0
 30 31  1  0
M  END
$$$$
