WLK.pdb
     RDKit          3D

 32 33  0  0  1  0  0  0  0  0999 V2000
    7.0021  -17.6603   24.7718 N   0  0  0  0  0  0  0  0  0  0  0  0
    7.4712  -16.3298   24.3475 C   0  0  1  0  0  0  0  0  0  0  0  0
    8.6694  -15.9645   25.2420 C   0  0  0  0  0  0  0  0  0  0  0  0
    8.1601  -15.1947   26.4006 C   0  0  0  0  0  0  0  0  0  0  0  0
    8.1708  -15.5827   27.7427 C   0  0  0  0  0  0  0  0  0  0  0  0
    7.6137  -14.6009   28.4597 N   0  0  0  0  0  0  0  0  0  0  0  0
    7.2331  -13.5847   27.6834 C   0  0  0  0  0  0  0  0  0  0  0  0
    6.6308  -12.3839   27.9603 C   0  0  0  0  0  0  0  0  0  0  0  0
    6.3682  -11.5368   26.8991 C   0  0  0  0  0  0  0  0  0  0  0  0
    6.6908  -11.8607   25.5850 C   0  0  0  0  0  0  0  0  0  0  0  0
    7.2948  -13.0776   25.3540 C   0  0  0  0  0  0  0  0  0  0  0  0
    7.5669  -13.9394   26.3951 C   0  0  0  0  0  0  0  0  0  0  0  0
    7.9868  -16.4463   22.9581 C   0  0  0  0  0  0  0  0  0  0  0  0
    8.0843  -17.5743   22.3762 O   0  0  0  0  0  0  0  0  0  0  0  0
    7.5166  -11.7762   20.0016 C   0  0  0  0  0  0  0  0  0  0  0  0
    7.4311  -13.1544   20.6730 C   0  0  1  0  0  0  0  0  0  0  0  0
    6.0695  -13.6938   20.2448 C   0  0  0  0  0  0  0  0  0  0  0  0
    8.5439  -14.0118   20.1941 C   0  0  0  0  0  0  0  0  0  0  0  0
    8.7018  -15.3371   20.8761 C   0  0  2  0  0  0  0  0  0  0  0  0
    8.3754  -15.2584   22.2813 N   0  0  0  0  0  0  0  0  0  0  0  0
   10.1112  -15.8394   20.6933 C   0  0  0  0  0  0  0  0  0  0  0  0
   10.6300  -15.9585   19.5579 O   0  0  0  0  0  0  0  0  0  0  0  0
   10.8987  -16.1938   21.8077 N   0  0  0  0  0  0  0  0  0  0  0  0
   12.3170  -16.5235   21.5985 C   0  0  1  0  0  0  0  0  0  0  0  0
   13.0303  -15.2883   21.0833 C   0  0  0  0  0  0  0  0  0  0  0  0
   13.6468  -15.5264   19.7599 C   0  0  0  0  0  0  0  0  0  0  0  0
   14.8174  -14.5287   19.5910 C   0  0  0  0  0  0  0  0  0  0  0  0
   15.3473  -14.7401   18.1938 C   0  0  0  0  0  0  0  0  0  0  0  0
   16.4218  -13.7945   18.0047 N   0  0  0  0  0  0  0  0  0  0  0  0
   12.8853  -16.9336   22.8835 C   0  0  0  0  0  0  0  0  0  0  0  0
   13.9984  -17.7300   22.9535 O   0  0  0  0  0  0  0  0  0  0  0  0
   12.3462  -16.5541   23.9500 O   0  0  0  0  0  0  0  0  0  0  0  0
  2  1  1  1
  3  2  1  0
  3  4  1  0
  4 12  1  0
  4  5  2  0
  5  6  1  0
  7  8  2  0
  7  6  1  0
  9  8  1  0
 10  9  2  0
 11 10  1  0
 11 12  2  0
 12  7  1  0
 13  2  1  0
 14 13  2  0
 16 15  1  6
 16 18  1  0
 16 17  1  0
 19 18  1  1
 19 21  1  0
 19 20  1  0
 20 13  1  0
 21 23  1  0
 22 21  2  0
 23 24  1  0
 24 30  1  0
 24 25  1  1
 25 26  1  0
 27 26  1  0
 28 27  1  0
 29 28  1  0
 30 32  2  0
 30 31  1  0
M  END
$$$$
