WLK.pdb
     RDKit          3D

 32 33  0  0  1  0  0  0  0  0999 V2000
    8.7750  -16.7242   24.9636 N   0  0  0  0  0  0  0  0  0  0  0  0
    7.4048  -17.0612   24.5401 C   0  0  1  0  0  0  0  0  0  0  0  0
    6.4472  -16.1676   25.3486 C   0  0  0  0  0  0  0  0  0  0  0  0
    7.2618  -15.1969   26.1157 C   0  0  0  0  0  0  0  0  0  0  0  0
    8.4106  -15.4642   26.8645 C   0  0  0  0  0  0  0  0  0  0  0  0
    8.8315  -14.3125   27.3983 N   0  0  0  0  0  0  0  0  0  0  0  0
    8.0387  -13.2961   27.0539 C   0  0  0  0  0  0  0  0  0  0  0  0
    8.0689  -11.9573   27.3510 C   0  0  0  0  0  0  0  0  0  0  0  0
    7.0736  -11.1583   26.8184 C   0  0  0  0  0  0  0  0  0  0  0  0
    6.0630  -11.6627   26.0060 C   0  0  0  0  0  0  0  0  0  0  0  0
    6.0726  -13.0137   25.7342 C   0  0  0  0  0  0  0  0  0  0  0  0
    7.0539  -13.8311   26.2534 C   0  0  0  0  0  0  0  0  0  0  0  0
    7.2573  -16.6747   23.1123 C   0  0  0  0  0  0  0  0  0  0  0  0
    6.1424  -16.7767   22.5065 O   0  0  0  0  0  0  0  0  0  0  0  0
    7.8632  -12.3412   20.4222 C   0  0  0  0  0  0  0  0  0  0  0  0
    7.4935  -13.7451   20.9221 C   0  0  1  0  0  0  0  0  0  0  0  0
    6.1356  -14.0225   20.2837 C   0  0  0  0  0  0  0  0  0  0  0  0
    8.5238  -14.7183   20.4815 C   0  0  0  0  0  0  0  0  0  0  0  0
    8.3683  -16.1223   20.9823 C   0  0  2  0  0  0  0  0  0  0  0  0
    8.4002  -16.1826   22.4255 N   0  0  0  0  0  0  0  0  0  0  0  0
    9.4499  -16.9945   20.3978 C   0  0  0  0  0  0  0  0  0  0  0  0
    9.4183  -17.3789   19.2046 O   0  0  0  0  0  0  0  0  0  0  0  0
   10.5439  -17.4084   21.1848 N   0  0  0  0  0  0  0  0  0  0  0  0
   11.5552  -18.2926   20.5853 C   0  0  1  0  0  0  0  0  0  0  0  0
   12.7269  -17.4465   20.1258 C   0  0  0  0  0  0  0  0  0  0  0  0
   13.7840  -18.2716   19.5014 C   0  0  0  0  0  0  0  0  0  0  0  0
   14.8908  -17.3211   18.9860 C   0  0  0  0  0  0  0  0  0  0  0  0
   15.4056  -17.9350   17.7070 C   0  0  0  0  0  0  0  0  0  0  0  0
   16.4583  -17.0742   17.2220 N   0  0  0  0  0  0  0  0  0  0  0  0
   11.9925  -19.2454   21.6068 C   0  0  0  0  0  0  0  0  0  0  0  0
   11.4071  -19.2874   22.8453 O   0  0  0  0  0  0  0  0  0  0  0  0
   12.9253  -20.0437   21.3524 O   0  0  0  0  0  0  0  0  0  0  0  0
  2  1  1  1
  3  2  1  0
  3  4  1  0
  4 12  1  0
  4  5  2  0
  5  6  1  0
  7  8  2  0
  7  6  1  0
  9  8  1  0
 10  9  2  0
 11 10  1  0
 11 12  2  0
 12  7  1  0
 13  2  1  0
 14 13  2  0
 16 15  1  6
 16 18  1  0
 16 17  1  0
 19 18  1  1
 19 21  1  0
 19 20  1  0
 20 13  1  0
 21 23  1  0
 22 21  2  0
 23 24  1  0
 24 30  1  0
 24 25  1  1
 25 26  1  0
 27 26  1  0
 28 27  1  0
 29 28  1  0
 30 32  2  0
 30 31  1  0
M  END
$$$$
