WLK.pdb
     RDKit          3D

 32 33  0  0  1  0  0  0  0  0999 V2000
    6.6578  -18.4228   26.1599 N   0  0  0  0  0  0  0  0  0  0  0  0
    7.4305  -17.2213   25.7998 C   0  0  1  0  0  0  0  0  0  0  0  0
    8.8947  -17.4891   26.1918 C   0  0  0  0  0  0  0  0  0  0  0  0
    9.1991  -16.6928   27.4032 C   0  0  0  0  0  0  0  0  0  0  0  0
    9.4855  -17.1770   28.6821 C   0  0  0  0  0  0  0  0  0  0  0  0
    9.6961  -16.1265   29.4825 N   0  0  0  0  0  0  0  0  0  0  0  0
    9.5692  -14.9750   28.8207 C   0  0  0  0  0  0  0  0  0  0  0  0
    9.6919  -13.6656   29.2102 C   0  0  0  0  0  0  0  0  0  0  0  0
    9.4931  -12.6886   28.2517 C   0  0  0  0  0  0  0  0  0  0  0  0
    9.1786  -12.9893   26.9301 C   0  0  0  0  0  0  0  0  0  0  0  0
    9.0656  -14.3184   26.5841 C   0  0  0  0  0  0  0  0  0  0  0  0
    9.2590  -15.3107   27.5215 C   0  0  0  0  0  0  0  0  0  0  0  0
    7.3964  -17.0798   24.3204 C   0  0  0  0  0  0  0  0  0  0  0  0
    7.5238  -18.0865   23.5519 O   0  0  0  0  0  0  0  0  0  0  0  0
    7.0313  -12.4960   20.1458 C   0  0  0  0  0  0  0  0  0  0  0  0
    7.4764  -13.9256   20.4860 C   0  0  1  0  0  0  0  0  0  0  0  0
    8.9558  -13.9540   20.1133 C   0  0  0  0  0  0  0  0  0  0  0  0
    7.2627  -14.1832   21.9319 C   0  0  0  0  0  0  0  0  0  0  0  0
    7.7226  -15.5145   22.4443 C   0  0  2  0  0  0  0  0  0  0  0  0
    7.2173  -15.7810   23.7713 N   0  0  0  0  0  0  0  0  0  0  0  0
    9.2289  -15.5707   22.4365 C   0  0  0  0  0  0  0  0  0  0  0  0
    9.9151  -15.0725   23.3604 O   0  0  0  0  0  0  0  0  0  0  0  0
    9.9201  -16.1939   21.3775 N   0  0  0  0  0  0  0  0  0  0  0  0
   11.2988  -16.6544   21.6036 C   0  0  1  0  0  0  0  0  0  0  0  0
   11.2521  -18.0477   22.2007 C   0  0  0  0  0  0  0  0  0  0  0  0
   12.5944  -18.6679   22.2441 C   0  0  0  0  0  0  0  0  0  0  0  0
   12.4489  -20.0806   22.8584 C   0  0  0  0  0  0  0  0  0  0  0  0
   13.8360  -20.6753   22.8698 C   0  0  0  0  0  0  0  0  0  0  0  0
   13.7406  -21.9505   23.5399 N   0  0  0  0  0  0  0  0  0  0  0  0
   11.9886  -16.6828   20.3129 C   0  0  0  0  0  0  0  0  0  0  0  0
   11.3201  -16.9597   19.1490 O   0  0  0  0  0  0  0  0  0  0  0  0
   13.2199  -16.4522   20.2620 O   0  0  0  0  0  0  0  0  0  0  0  0
  2  1  1  6
  3  2  1  0
  3  4  1  0
  4 12  1  0
  4  5  2  0
  5  6  1  0
  7  8  2  0
  7  6  1  0
  9  8  1  0
 10  9  2  0
 11 10  1  0
 11 12  2  0
 12  7  1  0
 13  2  1  0
 14 13  2  0
 16 15  1  1
 16 18  1  0
 16 17  1  0
 19 18  1  1
 19 21  1  0
 19 20  1  0
 20 13  1  0
 21 23  1  0
 22 21  2  0
 23 24  1  0
 24 30  1  0
 24 25  1  6
 25 26  1  0
 27 26  1  0
 28 27  1  0
 29 28  1  0
 30 32  2  0
 30 31  1  0
M  END
$$$$
