AIP.pdb
     RDKit          3D

 21 21  0  0  1  0  0  0  0  0999 V2000
    9.5205  -17.2623   21.4041 C   0  0  0  0  0  0  0  0  0  0  0  0
    9.0102  -15.8494   21.3245 C   0  0  2  0  0  0  0  0  0  0  0  0
    9.7005  -15.1760   20.2434 N   0  0  0  0  0  0  0  0  0  0  0  0
    9.2649  -15.1538   22.6445 C   0  0  0  0  0  0  0  0  0  0  0  0
   10.3222  -14.5642   22.8630 O   0  0  0  0  0  0  0  0  0  0  0  0
    5.6648  -12.0589   25.8387 C   0  0  0  0  0  0  0  0  0  0  0  0
    6.9955  -12.5012   25.2508 C   0  0  0  0  0  0  0  0  0  0  0  0
    7.0409  -14.0142   25.3600 C   0  0  2  0  0  0  0  0  0  0  0  0
    6.8327  -14.4093   26.8431 C   0  0  0  0  0  0  0  0  0  0  0  0
    8.3147  -14.6370   24.9478 C   0  0  2  0  0  0  0  0  0  0  0  0
    8.2479  -15.2071   23.6110 N   0  0  0  0  0  0  0  0  0  0  0  0
    9.0370  -15.4788   25.9055 C   0  0  0  0  0  0  0  0  0  0  0  0
    9.0183  -16.7383   25.6116 O   0  0  0  0  0  0  0  0  0  0  0  0
    9.7400  -15.1777   27.0693 N   0  0  0  0  0  0  0  0  0  0  0  0
    9.6618  -13.8480   27.7228 C   0  0  0  0  0  0  0  0  0  0  0  0
   11.0642  -13.7076   28.2664 C   0  0  0  0  0  0  0  0  0  0  0  0
   11.1841  -15.0623   28.9706 C   0  0  0  0  0  0  0  0  0  0  0  0
   10.6215  -15.9752   27.8731 C   0  0  1  0  0  0  0  0  0  0  0  0
    9.9219  -17.1147   28.5021 C   0  0  0  0  0  0  0  0  0  0  0  0
    8.7008  -17.2911   28.5700 O   0  0  0  0  0  0  0  0  0  0  0  0
   10.7429  -18.1005   29.0840 O   0  0  0  0  0  0  0  0  0  0  0  0
  2  1  1  1
  2  4  1  0
  3  2  1  0
  4  5  2  0
  7  6  1  0
  8  7  1  0
  8  9  1  1
 10  8  1  0
 11  4  1  0
 10 11  1  6
 12 14  1  0
 12 10  1  0
 13 12  2  0
 14 18  1  0
 15 14  1  0
 15 16  1  0
 16 17  1  0
 17 18  1  0
 18 19  1  1
 19 21  1  0
 20 19  2  0
M  END
$$$$
