AIP.pdb
     RDKit          3D

 21 21  0  0  1  0  0  0  0  0999 V2000
    9.7785  -17.7125   21.6889 C   0  0  0  0  0  0  0  0  0  0  0  0
    9.2717  -16.3225   21.4169 C   0  0  2  0  0  0  0  0  0  0  0  0
    9.9858  -15.7930   20.2729 N   0  0  0  0  0  0  0  0  0  0  0  0
    9.4989  -15.4621   22.6413 C   0  0  0  0  0  0  0  0  0  0  0  0
   10.5698  -14.8861   22.8283 O   0  0  0  0  0  0  0  0  0  0  0  0
    5.8840  -12.2864   26.3337 C   0  0  0  0  0  0  0  0  0  0  0  0
    7.2629  -12.9206   26.2419 C   0  0  0  0  0  0  0  0  0  0  0  0
    7.2077  -13.9251   25.1056 C   0  0  2  0  0  0  0  0  0  0  0  0
    6.1941  -15.0360   25.4766 C   0  0  0  0  0  0  0  0  0  0  0  0
    8.4798  -14.6157   24.8138 C   0  0  2  0  0  0  0  0  0  0  0  0
    8.4404  -15.3460   23.5563 N   0  0  0  0  0  0  0  0  0  0  0  0
    9.1562  -15.3443   25.8905 C   0  0  0  0  0  0  0  0  0  0  0  0
    9.2347  -16.6196   25.6891 O   0  0  0  0  0  0  0  0  0  0  0  0
    9.7310  -14.9220   27.0866 N   0  0  0  0  0  0  0  0  0  0  0  0
    9.5737  -13.5383   27.5983 C   0  0  0  0  0  0  0  0  0  0  0  0
   10.9103  -13.3216   28.2680 C   0  0  0  0  0  0  0  0  0  0  0  0
   10.9673  -14.6015   29.1072 C   0  0  0  0  0  0  0  0  0  0  0  0
   10.5303  -15.6239   28.0498 C   0  0  1  0  0  0  0  0  0  0  0  0
    9.7783  -16.7117   28.7092 C   0  0  0  0  0  0  0  0  0  0  0  0
    8.5613  -16.9169   28.6479 O   0  0  0  0  0  0  0  0  0  0  0  0
   10.5381  -17.6054   29.4891 O   0  0  0  0  0  0  0  0  0  0  0  0
  2  1  1  1
  2  4  1  0
  3  2  1  0
  4  5  2  0
  7  6  1  0
  8  7  1  0
  8  9  1  1
 10  8  1  0
 11  4  1  0
 10 11  1  6
 12 14  1  0
 12 10  1  0
 13 12  2  0
 14 18  1  0
 15 14  1  0
 15 16  1  0
 16 17  1  0
 17 18  1  0
 18 19  1  1
 19 21  1  0
 20 19  2  0
M  END
$$$$
