AIP.pdb
     RDKit          3D

 21 21  0  0  1  0  0  0  0  0999 V2000
    6.4644  -16.4741   21.0180 C   0  0  0  0  0  0  0  0  0  0  0  0
    6.7122  -14.9958   21.1453 C   0  0  2  0  0  0  0  0  0  0  0  0
    7.3042  -14.5251   19.9097 N   0  0  0  0  0  0  0  0  0  0  0  0
    7.6371  -14.7460   22.3172 C   0  0  0  0  0  0  0  0  0  0  0  0
    8.8566  -14.6838   22.1673 O   0  0  0  0  0  0  0  0  0  0  0  0
    5.8860  -11.4814   26.3399 C   0  0  0  0  0  0  0  0  0  0  0  0
    6.6708  -12.1852   25.2441 C   0  0  0  0  0  0  0  0  0  0  0  0
    7.0538  -13.5495   25.7875 C   0  0  2  0  0  0  0  0  0  0  0  0
    8.0111  -13.3523   26.9890 C   0  0  0  0  0  0  0  0  0  0  0  0
    7.7672  -14.4272   24.8384 C   0  0  2  0  0  0  0  0  0  0  0  0
    7.0503  -14.5877   23.5827 N   0  0  0  0  0  0  0  0  0  0  0  0
    8.3647  -15.6710   25.3320 C   0  0  0  0  0  0  0  0  0  0  0  0
    7.4982  -16.5422   25.7362 O   0  0  0  0  0  0  0  0  0  0  0  0
    9.6875  -16.0911   25.4456 N   0  0  0  0  0  0  0  0  0  0  0  0
   10.8291  -15.2437   25.0214 C   0  0  0  0  0  0  0  0  0  0  0  0
   11.7960  -16.2889   24.5167 C   0  0  0  0  0  0  0  0  0  0  0  0
   11.7655  -17.2413   25.7157 C   0  0  0  0  0  0  0  0  0  0  0  0
   10.2513  -17.3089   25.9540 C   0  0  1  0  0  0  0  0  0  0  0  0
    9.9953  -17.4790   27.3994 C   0  0  0  0  0  0  0  0  0  0  0  0
    9.6535  -16.6034   28.2015 O   0  0  0  0  0  0  0  0  0  0  0  0
   10.1613  -18.7819   27.9086 O   0  0  0  0  0  0  0  0  0  0  0  0
  2  1  1  6
  2  4  1  0
  3  2  1  0
  4  5  2  0
  7  6  1  0
  8  7  1  0
  8  9  1  1
 10  8  1  0
 11  4  1  0
 10 11  1  6
 12 14  1  0
 12 10  1  0
 13 12  2  0
 14 18  1  0
 15 14  1  0
 15 16  1  0
 16 17  1  0
 17 18  1  0
 18 19  1  1
 19 21  1  0
 20 19  2  0
M  END
$$$$
