AIP.pdb
     RDKit          3D

 21 21  0  0  1  0  0  0  0  0999 V2000
    9.7036  -17.7358   21.5593 C   0  0  0  0  0  0  0  0  0  0  0  0
    9.2990  -16.2927   21.4300 C   0  0  2  0  0  0  0  0  0  0  0  0
   10.0560  -15.7028   20.3447 N   0  0  0  0  0  0  0  0  0  0  0  0
    9.5795  -15.5789   22.7350 C   0  0  0  0  0  0  0  0  0  0  0  0
   10.6799  -15.0802   22.9672 O   0  0  0  0  0  0  0  0  0  0  0  0
    5.9163  -12.4805   26.4371 C   0  0  0  0  0  0  0  0  0  0  0  0
    7.3108  -13.0783   26.3377 C   0  0  0  0  0  0  0  0  0  0  0  0
    7.2845  -14.0602   25.1808 C   0  0  2  0  0  0  0  0  0  0  0  0
    6.2514  -15.1698   25.4974 C   0  0  0  0  0  0  0  0  0  0  0  0
    8.5601  -14.7551   24.9160 C   0  0  2  0  0  0  0  0  0  0  0  0
    8.5357  -15.5074   23.6711 N   0  0  0  0  0  0  0  0  0  0  0  0
    9.2241  -15.4644   26.0132 C   0  0  0  0  0  0  0  0  0  0  0  0
    9.2820  -16.7459   25.8473 O   0  0  0  0  0  0  0  0  0  0  0  0
    9.8050  -15.0185   27.1976 N   0  0  0  0  0  0  0  0  0  0  0  0
    9.6322  -13.6309   27.6938 C   0  0  0  0  0  0  0  0  0  0  0  0
   10.9723  -13.3858   28.3463 C   0  0  0  0  0  0  0  0  0  0  0  0
   11.0574  -14.6540   29.2007 C   0  0  0  0  0  0  0  0  0  0  0  0
   10.6248  -15.6961   28.1609 C   0  0  1  0  0  0  0  0  0  0  0  0
    9.8964  -16.7866   28.8419 C   0  0  0  0  0  0  0  0  0  0  0  0
    8.6824  -17.0123   28.7943 O   0  0  0  0  0  0  0  0  0  0  0  0
   10.6774  -17.6571   29.6271 O   0  0  0  0  0  0  0  0  0  0  0  0
  2  1  1  1
  2  4  1  0
  3  2  1  0
  4  5  2  0
  7  6  1  0
  8  7  1  0
  8  9  1  1
 10  8  1  0
 11  4  1  0
 10 11  1  6
 12 14  1  0
 12 10  1  0
 13 12  2  0
 14 18  1  0
 15 14  1  0
 15 16  1  0
 16 17  1  0
 17 18  1  0
 18 19  1  1
 19 21  1  0
 20 19  2  0
M  END
$$$$
