AIP.pdb
     RDKit          3D

 21 21  0  0  1  0  0  0  0  0999 V2000
    7.8766  -19.4515   25.1239 C   0  0  0  0  0  0  0  0  0  0  0  0
    6.6489  -18.7730   25.6673 C   0  0  2  0  0  0  0  0  0  0  0  0
    5.5316  -19.6872   25.5456 N   0  0  0  0  0  0  0  0  0  0  0  0
    6.3954  -17.5026   24.8845 C   0  0  0  0  0  0  0  0  0  0  0  0
    5.6188  -17.4836   23.9306 O   0  0  0  0  0  0  0  0  0  0  0  0
    8.6288  -12.6213   27.0045 C   0  0  0  0  0  0  0  0  0  0  0  0
    8.4599  -14.0132   26.4162 C   0  0  0  0  0  0  0  0  0  0  0  0
    7.3373  -13.9248   25.3987 C   0  0  2  0  0  0  0  0  0  0  0  0
    5.9949  -13.7704   26.1556 C   0  0  0  0  0  0  0  0  0  0  0  0
    7.1810  -15.1084   24.5298 C   0  0  2  0  0  0  0  0  0  0  0  0
    7.0807  -16.3457   25.2884 N   0  0  0  0  0  0  0  0  0  0  0  0
    8.0156  -15.2252   23.3309 C   0  0  0  0  0  0  0  0  0  0  0  0
    8.8377  -16.2235   23.3621 O   0  0  0  0  0  0  0  0  0  0  0  0
    8.0885  -14.4660   22.1658 N   0  0  0  0  0  0  0  0  0  0  0  0
    7.2498  -13.2614   21.9491 C   0  0  0  0  0  0  0  0  0  0  0  0
    7.0107  -13.3370   20.4595 C   0  0  0  0  0  0  0  0  0  0  0  0
    8.4566  -13.5349   19.9952 C   0  0  0  0  0  0  0  0  0  0  0  0
    8.9043  -14.6102   20.9941 C   0  0  1  0  0  0  0  0  0  0  0  0
   10.3404  -14.4281   21.2908 C   0  0  0  0  0  0  0  0  0  0  0  0
   10.8320  -13.9516   22.3195 O   0  0  0  0  0  0  0  0  0  0  0  0
   11.2376  -14.8451   20.2881 O   0  0  0  0  0  0  0  0  0  0  0  0
  2  1  1  6
  2  4  1  0
  3  2  1  0
  4  5  2  0
  7  6  1  0
  8  7  1  0
  8  9  1  1
 10  8  1  0
 11  4  1  0
 10 11  1  1
 12 14  1  0
 12 10  1  0
 13 12  2  0
 14 18  1  0
 15 14  1  0
 15 16  1  0
 16 17  1  0
 17 18  1  0
 18 19  1  1
 19 21  1  0
 20 19  2  0
M  END
$$$$
