AIP.pdb
     RDKit          3D

 21 21  0  0  1  0  0  0  0  0999 V2000
    9.0668  -17.3861   21.5356 C   0  0  0  0  0  0  0  0  0  0  0  0
    8.7028  -15.9408   21.3319 C   0  0  2  0  0  0  0  0  0  0  0  0
    9.4269  -15.4469   20.1785 N   0  0  0  0  0  0  0  0  0  0  0  0
    9.0662  -15.1567   22.5746 C   0  0  0  0  0  0  0  0  0  0  0  0
   10.1793  -14.6502   22.7082 O   0  0  0  0  0  0  0  0  0  0  0  0
    5.9545  -11.8992   26.6238 C   0  0  0  0  0  0  0  0  0  0  0  0
    7.2651  -12.6437   26.4239 C   0  0  0  0  0  0  0  0  0  0  0  0
    7.0726  -13.5542   25.2250 C   0  0  2  0  0  0  0  0  0  0  0  0
    5.9498  -14.5701   25.5510 C   0  0  0  0  0  0  0  0  0  0  0  0
    8.2527  -14.3583   24.8496 C   0  0  2  0  0  0  0  0  0  0  0  0
    8.0842  -15.0293   23.5699 N   0  0  0  0  0  0  0  0  0  0  0  0
    8.8955  -15.1950   25.8667 C   0  0  0  0  0  0  0  0  0  0  0  0
    8.7881  -16.4644   25.6429 O   0  0  0  0  0  0  0  0  0  0  0  0
    9.6005  -14.8805   27.0258 N   0  0  0  0  0  0  0  0  0  0  0  0
    9.5682  -13.5269   27.6324 C   0  0  0  0  0  0  0  0  0  0  0  0
   10.9707  -13.4212   28.1835 C   0  0  0  0  0  0  0  0  0  0  0  0
   11.0332  -14.7541   28.9350 C   0  0  0  0  0  0  0  0  0  0  0  0
   10.4445  -15.6826   27.8646 C   0  0  1  0  0  0  0  0  0  0  0  0
    9.6970  -16.7721   28.5261 C   0  0  0  0  0  0  0  0  0  0  0  0
    8.4706  -16.9212   28.5544 O   0  0  0  0  0  0  0  0  0  0  0  0
   10.4735  -17.7397   29.1932 O   0  0  0  0  0  0  0  0  0  0  0  0
  2  1  1  1
  2  4  1  0
  3  2  1  0
  4  5  2  0
  7  6  1  0
  8  7  1  0
  8  9  1  1
 10  8  1  0
 11  4  1  0
 10 11  1  6
 12 14  1  0
 12 10  1  0
 13 12  2  0
 14 18  1  0
 15 14  1  0
 15 16  1  0
 16 17  1  0
 17 18  1  0
 18 19  1  1
 19 21  1  0
 20 19  2  0
M  END
$$$$
