AIP.pdb
     RDKit          3D

 21 21  0  0  1  0  0  0  0  0999 V2000
    9.5847  -17.4653   21.5878 C   0  0  0  0  0  0  0  0  0  0  0  0
    9.0165  -16.0831   21.4159 C   0  0  2  0  0  0  0  0  0  0  0  0
    9.6130  -15.4886   20.2371 N   0  0  0  0  0  0  0  0  0  0  0  0
    9.3243  -15.2622   22.6498 C   0  0  0  0  0  0  0  0  0  0  0  0
   10.3687  -14.6191   22.7458 O   0  0  0  0  0  0  0  0  0  0  0  0
    6.0789  -12.0636   26.5372 C   0  0  0  0  0  0  0  0  0  0  0  0
    7.4042  -12.7999   26.4214 C   0  0  0  0  0  0  0  0  0  0  0  0
    7.2722  -13.7568   25.2508 C   0  0  2  0  0  0  0  0  0  0  0  0
    6.1651  -14.7891   25.5785 C   0  0  0  0  0  0  0  0  0  0  0  0
    8.4832  -14.5430   24.9411 C   0  0  2  0  0  0  0  0  0  0  0  0
    8.3721  -15.2623   23.6815 N   0  0  0  0  0  0  0  0  0  0  0  0
    9.1134  -15.3269   26.0069 C   0  0  0  0  0  0  0  0  0  0  0  0
    9.0812  -16.6041   25.8047 O   0  0  0  0  0  0  0  0  0  0  0  0
    9.7411  -14.9556   27.1932 N   0  0  0  0  0  0  0  0  0  0  0  0
    9.5743  -13.6085   27.7922 C   0  0  0  0  0  0  0  0  0  0  0  0
   10.9391  -13.3895   28.4014 C   0  0  0  0  0  0  0  0  0  0  0  0
   11.0769  -14.7124   29.1606 C   0  0  0  0  0  0  0  0  0  0  0  0
   10.6108  -15.6863   28.0703 C   0  0  1  0  0  0  0  0  0  0  0  0
    9.9260  -16.8320   28.7044 C   0  0  0  0  0  0  0  0  0  0  0  0
    8.7162  -17.0822   28.6774 O   0  0  0  0  0  0  0  0  0  0  0  0
   10.7482  -17.7297   29.4132 O   0  0  0  0  0  0  0  0  0  0  0  0
  2  1  1  1
  2  4  1  0
  3  2  1  0
  4  5  2  0
  7  6  1  0
  8  7  1  0
  8  9  1  1
 10  8  1  0
 11  4  1  0
 10 11  1  6
 12 14  1  0
 12 10  1  0
 13 12  2  0
 14 18  1  0
 15 14  1  0
 15 16  1  0
 16 17  1  0
 17 18  1  0
 18 19  1  1
 19 21  1  0
 20 19  2  0
M  END
$$$$
