AIP.pdb
     RDKit          3D

 21 21  0  0  1  0  0  0  0  0999 V2000
    9.6063  -19.3937   18.8379 C   0  0  0  0  0  0  0  0  0  0  0  0
   10.0854  -18.0070   18.5057 C   0  0  2  0  0  0  0  0  0  0  0  0
   11.4596  -18.0954   18.0558 N   0  0  0  0  0  0  0  0  0  0  0  0
    9.9752  -17.1346   19.7377 C   0  0  0  0  0  0  0  0  0  0  0  0
   10.9015  -17.0444   20.5423 O   0  0  0  0  0  0  0  0  0  0  0  0
    7.3004  -12.3956   19.2218 C   0  0  0  0  0  0  0  0  0  0  0  0
    8.3351  -13.4425   19.6031 C   0  0  0  0  0  0  0  0  0  0  0  0
    7.6721  -14.3673   20.6074 C   0  0  2  0  0  0  0  0  0  0  0  0
    7.3732  -13.5637   21.8972 C   0  0  0  0  0  0  0  0  0  0  0  0
    8.4854  -15.5256   21.0286 C   0  0  2  0  0  0  0  0  0  0  0  0
    8.7749  -16.4315   19.9278 N   0  0  0  0  0  0  0  0  0  0  0  0
    8.1482  -16.2142   22.2775 C   0  0  0  0  0  0  0  0  0  0  0  0
    7.2742  -17.1570   22.1345 O   0  0  0  0  0  0  0  0  0  0  0  0
    8.5926  -16.0458   23.5865 N   0  0  0  0  0  0  0  0  0  0  0  0
    9.5162  -14.9523   23.9771 C   0  0  0  0  0  0  0  0  0  0  0  0
   10.3274  -15.6282   25.0575 C   0  0  0  0  0  0  0  0  0  0  0  0
    9.1798  -16.1945   25.8988 C   0  0  0  0  0  0  0  0  0  0  0  0
    8.3078  -16.7851   24.7830 C   0  0  1  0  0  0  0  0  0  0  0  0
    6.8863  -16.6838   25.1739 C   0  0  0  0  0  0  0  0  0  0  0  0
    6.0557  -15.8719   24.7521 O   0  0  0  0  0  0  0  0  0  0  0  0
    6.4391  -17.6165   26.1302 O   0  0  0  0  0  0  0  0  0  0  0  0
  2  1  1  1
  2  4  1  0
  3  2  1  0
  4  5  2  0
  7  6  1  0
  8  7  1  0
  8  9  1  1
 10  8  1  0
 11  4  1  0
 10 11  1  6
 12 14  1  0
 12 10  1  0
 13 12  2  0
 14 18  1  0
 15 14  1  0
 15 16  1  0
 16 17  1  0
 17 18  1  0
 18 19  1  1
 19 21  1  0
 20 19  2  0
M  END
$$$$
