AIP.pdb
     RDKit          3D

 21 21  0  0  1  0  0  0  0  0999 V2000
    7.2712  -19.6604   25.5721 C   0  0  0  0  0  0  0  0  0  0  0  0
    5.9946  -18.8810   25.7319 C   0  0  2  0  0  0  0  0  0  0  0  0
    4.9067  -19.6737   25.1960 N   0  0  0  0  0  0  0  0  0  0  0  0
    6.1194  -17.5657   24.9934 C   0  0  0  0  0  0  0  0  0  0  0  0
    5.6298  -17.4111   23.8754 O   0  0  0  0  0  0  0  0  0  0  0  0
    6.4139  -12.4171   27.3716 C   0  0  0  0  0  0  0  0  0  0  0  0
    6.0678  -13.4979   26.3597 C   0  0  0  0  0  0  0  0  0  0  0  0
    7.3706  -14.1813   25.9866 C   0  0  2  0  0  0  0  0  0  0  0  0
    8.3069  -13.1362   25.3308 C   0  0  0  0  0  0  0  0  0  0  0  0
    7.2462  -15.2842   25.0128 C   0  0  2  0  0  0  0  0  0  0  0  0
    6.8156  -16.5277   25.6330 N   0  0  0  0  0  0  0  0  0  0  0  0
    8.2971  -15.4670   24.0078 C   0  0  0  0  0  0  0  0  0  0  0  0
    9.2552  -16.2475   24.3901 O   0  0  0  0  0  0  0  0  0  0  0  0
    8.4567  -14.9607   22.7204 N   0  0  0  0  0  0  0  0  0  0  0  0
    7.5703  -13.9084   22.1653 C   0  0  0  0  0  0  0  0  0  0  0  0
    7.5161  -14.3108   20.7103 C   0  0  0  0  0  0  0  0  0  0  0  0
    9.0171  -14.4671   20.4497 C   0  0  0  0  0  0  0  0  0  0  0  0
    9.4143  -15.2680   21.6968 C   0  0  1  0  0  0  0  0  0  0  0  0
   10.7892  -14.8983   22.0925 C   0  0  0  0  0  0  0  0  0  0  0  0
   11.1248  -14.2291   23.0756 O   0  0  0  0  0  0  0  0  0  0  0  0
   11.8211  -15.3626   21.2536 O   0  0  0  0  0  0  0  0  0  0  0  0
  2  1  1  6
  2  4  1  0
  3  2  1  0
  4  5  2  0
  7  6  1  0
  8  7  1  0
  8  9  1  6
 10  8  1  0
 11  4  1  0
 10 11  1  1
 12 14  1  0
 12 10  1  0
 13 12  2  0
 14 18  1  0
 15 14  1  0
 15 16  1  0
 16 17  1  0
 17 18  1  0
 18 19  1  1
 19 21  1  0
 20 19  2  0
M  END
$$$$
