AIP.pdb
     RDKit          3D

 21 21  0  0  1  0  0  0  0  0999 V2000
    7.3165  -19.6211   25.7542 C   0  0  0  0  0  0  0  0  0  0  0  0
    6.0391  -18.8463   25.9296 C   0  0  2  0  0  0  0  0  0  0  0  0
    4.9432  -19.6579   25.4404 N   0  0  0  0  0  0  0  0  0  0  0  0
    6.1357  -17.5474   25.1584 C   0  0  0  0  0  0  0  0  0  0  0  0
    5.6884  -17.4468   24.0168 O   0  0  0  0  0  0  0  0  0  0  0  0
    6.3358  -12.3825   27.5261 C   0  0  0  0  0  0  0  0  0  0  0  0
    5.9910  -13.5102   26.5663 C   0  0  0  0  0  0  0  0  0  0  0  0
    7.3069  -14.1067   26.1014 C   0  0  2  0  0  0  0  0  0  0  0  0
    8.1148  -13.0091   25.3658 C   0  0  0  0  0  0  0  0  0  0  0  0
    7.1874  -15.2303   25.1509 C   0  0  2  0  0  0  0  0  0  0  0  0
    6.7555  -16.4608   25.7958 N   0  0  0  0  0  0  0  0  0  0  0  0
    8.2425  -15.4334   24.1543 C   0  0  0  0  0  0  0  0  0  0  0  0
    9.2042  -16.1974   24.5601 O   0  0  0  0  0  0  0  0  0  0  0  0
    8.4030  -14.9608   22.8542 N   0  0  0  0  0  0  0  0  0  0  0  0
    7.5264  -13.9124   22.2765 C   0  0  0  0  0  0  0  0  0  0  0  0
    7.4621  -14.3499   20.8320 C   0  0  0  0  0  0  0  0  0  0  0  0
    8.9602  -14.5298   20.5700 C   0  0  0  0  0  0  0  0  0  0  0  0
    9.3531  -15.3042   21.8351 C   0  0  1  0  0  0  0  0  0  0  0  0
   10.7335  -14.9406   22.2168 C   0  0  0  0  0  0  0  0  0  0  0  0
   11.0797  -14.2409   23.1747 O   0  0  0  0  0  0  0  0  0  0  0  0
   11.7579  -15.4504   21.3951 O   0  0  0  0  0  0  0  0  0  0  0  0
  2  1  1  6
  2  4  1  0
  3  2  1  0
  4  5  2  0
  7  6  1  0
  8  7  1  0
  8  9  1  6
 10  8  1  0
 11  4  1  0
 10 11  1  1
 12 14  1  0
 12 10  1  0
 13 12  2  0
 14 18  1  0
 15 14  1  0
 15 16  1  0
 16 17  1  0
 17 18  1  0
 18 19  1  1
 19 21  1  0
 20 19  2  0
M  END
$$$$
