AHD.pdb
     RDKit          3D

 24 24  0  0  1  0  0  0  0  0999 V2000
    8.8182  -15.2542   14.8724 C   0  0  0  0  0  0  0  0  0  0  0  0
    9.7916  -16.1964   15.5602 C   0  0  2  0  0  0  0  0  0  0  0  0
    9.0327  -17.2463   16.1709 N   0  0  0  0  0  0  0  0  0  0  0  0
   10.5426  -15.4098   16.6191 C   0  0  0  0  0  0  0  0  0  0  0  0
   11.3345  -14.5066   16.2689 O   0  0  0  0  0  0  0  0  0  0  0  0
   10.3540  -15.6892   17.9863 N   0  0  0  0  0  0  0  0  0  0  0  0
   10.9423  -15.1073   19.1355 C   0  0  1  0  0  0  0  0  0  0  0  0
   10.0325  -14.9055   20.3277 C   0  0  0  0  0  0  0  0  0  0  0  0
    8.7959  -14.1777   20.0362 C   0  0  0  0  0  0  0  0  0  0  0  0
    7.5014  -14.6234   20.1521 C   0  0  0  0  0  0  0  0  0  0  0  0
    6.6529  -13.6773   19.7282 N   0  0  0  0  0  0  0  0  0  0  0  0
    7.4251  -12.6480   19.3509 C   0  0  0  0  0  0  0  0  0  0  0  0
    8.7276  -12.9397   19.5331 N   0  0  0  0  0  0  0  0  0  0  0  0
   12.2255  -15.6496   19.5726 C   0  0  0  0  0  0  0  0  0  0  0  0
   12.4322  -16.8906   19.7417 O   0  0  0  0  0  0  0  0  0  0  0  0
   13.3326  -14.8168   19.8366 N   0  0  0  0  0  0  0  0  0  0  0  0
   14.6376  -15.3856   20.2504 C   0  0  1  0  0  0  0  0  0  0  0  0
   15.6495  -14.3484   19.8840 C   0  0  0  0  0  0  0  0  0  0  0  0
   15.9543  -14.1992   18.4722 C   0  0  0  0  0  0  0  0  0  0  0  0
   16.2455  -13.1006   17.9565 O   0  0  0  0  0  0  0  0  0  0  0  0
   14.5491  -15.4536   21.7326 C   0  0  0  0  0  0  0  0  0  0  0  0
   15.5406  -15.8292   22.3973 O   0  0  0  0  0  0  0  0  0  0  0  0
   15.9227  -15.3192   17.6571 O   0  0  0  0  0  0  0  0  0  0  0  0
   13.4167  -15.1229   22.4653 O   0  0  0  0  0  0  0  0  0  0  0  0
  2  1  1  1
  2  3  1  0
  4  2  1  0
  4  5  2  0
  6  7  1  0
  6  4  1  0
  7  8  1  1
  9  8  1  0
 10  9  2  0
 11 10  1  0
 12 11  1  0
 12 13  2  0
 13  9  1  0
 14  7  1  0
 15 14  2  0
 16 14  1  0
 17 16  1  0
 17 21  1  0
 17 18  1  1
 19 20  2  0
 19 18  1  0
 21 24  1  0
 22 21  2  0
 23 19  1  0
M  END
$$$$
