AHD.pdb
     RDKit          3D

 24 24  0  0  1  0  0  0  0  0999 V2000
    9.2104  -18.1492   16.5924 C   0  0  0  0  0  0  0  0  0  0  0  0
    9.5900  -18.8371   17.8928 C   0  0  2  0  0  0  0  0  0  0  0  0
    8.3877  -19.3156   18.5063 N   0  0  0  0  0  0  0  0  0  0  0  0
   10.2635  -17.8141   18.7894 C   0  0  0  0  0  0  0  0  0  0  0  0
   11.3541  -17.3110   18.4384 O   0  0  0  0  0  0  0  0  0  0  0  0
    9.6710  -17.4300   20.0077 N   0  0  0  0  0  0  0  0  0  0  0  0
   10.1146  -16.5262   21.0035 C   0  0  1  0  0  0  0  0  0  0  0  0
    9.0406  -15.7460   21.7301 C   0  0  0  0  0  0  0  0  0  0  0  0
    8.2790  -14.8234   20.8860 C   0  0  0  0  0  0  0  0  0  0  0  0
    8.5171  -14.4766   19.5781 C   0  0  0  0  0  0  0  0  0  0  0  0
    7.6303  -13.5542   19.1814 N   0  0  0  0  0  0  0  0  0  0  0  0
    6.8451  -13.3326   20.2455 C   0  0  0  0  0  0  0  0  0  0  0  0
    7.2289  -14.0971   21.2863 N   0  0  0  0  0  0  0  0  0  0  0  0
   11.1043  -17.0202   21.9566 C   0  0  0  0  0  0  0  0  0  0  0  0
   11.0862  -18.1994   22.4262 O   0  0  0  0  0  0  0  0  0  0  0  0
   12.1587  -16.2068   22.4209 N   0  0  0  0  0  0  0  0  0  0  0  0
   13.3143  -16.7896   23.1442 C   0  0  1  0  0  0  0  0  0  0  0  0
   14.4504  -15.8543   22.8831 C   0  0  0  0  0  0  0  0  0  0  0  0
   15.7105  -16.1532   23.5397 C   0  0  0  0  0  0  0  0  0  0  0  0
   16.1000  -17.3192   23.7549 O   0  0  0  0  0  0  0  0  0  0  0  0
   12.9358  -16.6816   24.5775 C   0  0  0  0  0  0  0  0  0  0  0  0
   13.5591  -17.3451   25.4361 O   0  0  0  0  0  0  0  0  0  0  0  0
   16.5198  -15.1051   23.9473 O   0  0  0  0  0  0  0  0  0  0  0  0
   11.9115  -15.8766   25.0582 O   0  0  0  0  0  0  0  0  0  0  0  0
  2  1  1  6
  2  3  1  0
  4  2  1  0
  4  5  2  0
  6  7  1  0
  6  4  1  0
  7  8  1  1
  9  8  1  0
 10  9  2  0
 11 10  1  0
 12 11  1  0
 12 13  2  0
 13  9  1  0
 14  7  1  0
 15 14  2  0
 16 14  1  0
 17 16  1  0
 17 21  1  0
 17 18  1  1
 19 20  2  0
 19 18  1  0
 21 24  1  0
 22 21  2  0
 23 19  1  0
M  END
$$$$
