AHD.pdb
     RDKit          3D

 24 24  0  0  1  0  0  0  0  0999 V2000
   10.4771  -19.7175   18.2123 C   0  0  0  0  0  0  0  0  0  0  0  0
    9.6570  -18.4385   18.2056 C   0  0  2  0  0  0  0  0  0  0  0  0
    9.7136  -17.8848   16.8860 N   0  0  0  0  0  0  0  0  0  0  0  0
   10.2745  -17.4760   19.2037 C   0  0  0  0  0  0  0  0  0  0  0  0
   11.5190  -17.3584   19.2566 O   0  0  0  0  0  0  0  0  0  0  0  0
    9.4588  -16.7185   20.0662 N   0  0  0  0  0  0  0  0  0  0  0  0
    9.7879  -15.6764   20.9667 C   0  0  1  0  0  0  0  0  0  0  0  0
    8.7368  -14.6070   21.1707 C   0  0  0  0  0  0  0  0  0  0  0  0
    8.2015  -14.0329   19.9347 C   0  0  0  0  0  0  0  0  0  0  0  0
    8.5133  -12.8274   19.3542 C   0  0  0  0  0  0  0  0  0  0  0  0
    7.7609  -12.6381   18.2621 N   0  0  0  0  0  0  0  0  0  0  0  0
    6.9850  -13.7277   18.1696 C   0  0  0  0  0  0  0  0  0  0  0  0
    7.2432  -14.5816   19.1791 N   0  0  0  0  0  0  0  0  0  0  0  0
   10.3613  -16.0647   22.2521 C   0  0  0  0  0  0  0  0  0  0  0  0
    9.6826  -16.6037   23.1795 O   0  0  0  0  0  0  0  0  0  0  0  0
   11.7256  -15.8639   22.5476 N   0  0  0  0  0  0  0  0  0  0  0  0
   12.4035  -16.6490   23.6069 C   0  0  1  0  0  0  0  0  0  0  0  0
   12.3116  -18.0716   23.1577 C   0  0  0  0  0  0  0  0  0  0  0  0
   13.0444  -19.0541   23.9363 C   0  0  0  0  0  0  0  0  0  0  0  0
   12.9677  -19.1240   25.1800 O   0  0  0  0  0  0  0  0  0  0  0  0
   13.8241  -16.2198   23.5224 C   0  0  0  0  0  0  0  0  0  0  0  0
   14.6610  -16.6802   24.3307 O   0  0  0  0  0  0  0  0  0  0  0  0
   13.8654  -19.9551   23.2776 O   0  0  0  0  0  0  0  0  0  0  0  0
   14.3153  -15.3184   22.5872 O   0  0  0  0  0  0  0  0  0  0  0  0
  2  1  1  6
  2  3  1  0
  4  2  1  0
  4  5  2  0
  6  7  1  0
  6  4  1  0
  7  8  1  1
  9  8  1  0
 10  9  2  0
 11 10  1  0
 12 11  1  0
 12 13  2  0
 13  9  1  0
 14  7  1  0
 15 14  2  0
 16 14  1  0
 17 16  1  0
 17 21  1  0
 17 18  1  6
 19 20  2  0
 19 18  1  0
 21 24  1  0
 22 21  2  0
 23 19  1  0
M  END
$$$$
