AHD.pdb
     RDKit          3D

 24 24  0  0  1  0  0  0  0  0999 V2000
    1.5119  -20.8172   20.7794 C   0  0  0  0  0  0  0  0  0  0  0  0
    1.9520  -20.0943   22.0412 C   0  0  2  0  0  0  0  0  0  0  0  0
    1.4736  -18.7464   21.9672 N   0  0  0  0  0  0  0  0  0  0  0  0
    3.4690  -20.1091   22.0896 C   0  0  0  0  0  0  0  0  0  0  0  0
    4.0758  -21.2023   22.0425 O   0  0  0  0  0  0  0  0  0  0  0  0
    4.1937  -18.9056   22.1869 N   0  0  0  0  0  0  0  0  0  0  0  0
    5.5848  -18.6757   22.3177 C   0  0  1  0  0  0  0  0  0  0  0  0
    6.1747  -17.5993   21.4326 C   0  0  0  0  0  0  0  0  0  0  0  0
    6.3108  -17.9736   20.0237 C   0  0  0  0  0  0  0  0  0  0  0  0
    6.0976  -19.2025   19.4476 C   0  0  0  0  0  0  0  0  0  0  0  0
    6.3903  -19.1516   18.1413 N   0  0  0  0  0  0  0  0  0  0  0  0
    6.7840  -17.8905   17.9123 C   0  0  0  0  0  0  0  0  0  0  0  0
    6.7400  -17.1658   19.0471 N   0  0  0  0  0  0  0  0  0  0  0  0
    6.1140  -18.5533   23.6731 C   0  0  0  0  0  0  0  0  0  0  0  0
    5.6196  -17.7714   24.5423 O   0  0  0  0  0  0  0  0  0  0  0  0
    7.2227  -19.3084   24.1084 N   0  0  0  0  0  0  0  0  0  0  0  0
    7.6836  -19.2504   25.5163 C   0  0  1  0  0  0  0  0  0  0  0  0
    7.2091  -20.5255   26.1353 C   0  0  0  0  0  0  0  0  0  0  0  0
    7.5918  -20.7672   27.5150 C   0  0  0  0  0  0  0  0  0  0  0  0
    7.3352  -21.8337   28.1102 O   0  0  0  0  0  0  0  0  0  0  0  0
    9.1657  -19.3000   25.4142 C   0  0  0  0  0  0  0  0  0  0  0  0
    9.7106  -20.1792   24.7099 O   0  0  0  0  0  0  0  0  0  0  0  0
    8.2707  -19.7767   28.2062 O   0  0  0  0  0  0  0  0  0  0  0  0
   10.0247  -18.4197   26.0589 O   0  0  0  0  0  0  0  0  0  0  0  0
  2  1  1  6
  2  3  1  0
  4  2  1  0
  4  5  2  0
  6  7  1  0
  6  4  1  0
  7  8  1  6
  9  8  1  0
 10  9  2  0
 11 10  1  0
 12 11  1  0
 12 13  2  0
 13  9  1  0
 14  7  1  0
 15 14  2  0
 16 14  1  0
 17 16  1  0
 17 21  1  0
 17 18  1  1
 19 20  2  0
 19 18  1  0
 21 24  1  0
 22 21  2  0
 23 19  1  0
M  END
$$$$
