AHD.pdb
     RDKit          3D

 24 24  0  0  1  0  0  0  0  0999 V2000
    9.8821  -17.3904   16.5230 C   0  0  0  0  0  0  0  0  0  0  0  0
   10.0233  -18.2661   17.7566 C   0  0  2  0  0  0  0  0  0  0  0  0
    8.7505  -18.8683   18.0183 N   0  0  0  0  0  0  0  0  0  0  0  0
   10.4325  -17.3812   18.9199 C   0  0  0  0  0  0  0  0  0  0  0  0
   11.6243  -17.0150   19.0254 O   0  0  0  0  0  0  0  0  0  0  0  0
    9.4834  -16.9722   19.8764 N   0  0  0  0  0  0  0  0  0  0  0  0
    9.6104  -16.1036   20.9876 C   0  0  1  0  0  0  0  0  0  0  0  0
    8.4434  -15.1778   21.2542 C   0  0  0  0  0  0  0  0  0  0  0  0
    7.9854  -14.4207   20.0876 C   0  0  0  0  0  0  0  0  0  0  0  0
    8.3303  -13.1438   19.7158 C   0  0  0  0  0  0  0  0  0  0  0  0
    7.6475  -12.7871   18.6197 N   0  0  0  0  0  0  0  0  0  0  0  0
    6.8815  -13.8449   18.3161 C   0  0  0  0  0  0  0  0  0  0  0  0
    7.0777  -14.8426   19.1997 N   0  0  0  0  0  0  0  0  0  0  0  0
   10.0788  -16.6901   22.2399 C   0  0  0  0  0  0  0  0  0  0  0  0
    9.5829  -17.7467   22.7388 O   0  0  0  0  0  0  0  0  0  0  0  0
   11.1282  -16.1119   22.9840 N   0  0  0  0  0  0  0  0  0  0  0  0
   11.6762  -16.7850   24.1859 C   0  0  1  0  0  0  0  0  0  0  0  0
   13.0269  -16.1788   24.3911 C   0  0  0  0  0  0  0  0  0  0  0  0
   14.0211  -16.4282   23.3626 C   0  0  0  0  0  0  0  0  0  0  0  0
   14.2595  -17.5690   22.9161 O   0  0  0  0  0  0  0  0  0  0  0  0
   10.7867  -16.3365   25.2891 C   0  0  0  0  0  0  0  0  0  0  0  0
   10.9638  -16.7760   26.4472 O   0  0  0  0  0  0  0  0  0  0  0  0
   14.7392  -15.3596   22.8505 O   0  0  0  0  0  0  0  0  0  0  0  0
    9.7390  -15.4383   25.1339 O   0  0  0  0  0  0  0  0  0  0  0  0
  2  1  1  6
  2  3  1  0
  4  2  1  0
  4  5  2  0
  6  7  1  0
  6  4  1  0
  7  8  1  1
  9  8  1  0
 10  9  2  0
 11 10  1  0
 12 11  1  0
 12 13  2  0
 13  9  1  0
 14  7  1  0
 15 14  2  0
 16 14  1  0
 17 16  1  0
 17 21  1  0
 17 18  1  1
 19 20  2  0
 19 18  1  0
 21 24  1  0
 22 21  2  0
 23 19  1  0
M  END
$$$$
