AHD.pdb
     RDKit          3D

 24 24  0  0  1  0  0  0  0  0999 V2000
   11.5272  -18.2614   16.5851 C   0  0  0  0  0  0  0  0  0  0  0  0
   10.3324  -17.3490   16.8047 C   0  0  2  0  0  0  0  0  0  0  0  0
   10.1415  -16.5774   15.6134 N   0  0  0  0  0  0  0  0  0  0  0  0
   10.6447  -16.4349   17.9755 C   0  0  0  0  0  0  0  0  0  0  0  0
   11.3816  -15.4390   17.7996 O   0  0  0  0  0  0  0  0  0  0  0  0
   10.1127  -16.6999   19.2521 N   0  0  0  0  0  0  0  0  0  0  0  0
   10.2084  -15.9676   20.4604 C   0  0  1  0  0  0  0  0  0  0  0  0
    8.9459  -15.2787   20.9310 C   0  0  0  0  0  0  0  0  0  0  0  0
    8.3533  -14.3585   19.9584 C   0  0  0  0  0  0  0  0  0  0  0  0
    8.8424  -13.1494   19.5268 C   0  0  0  0  0  0  0  0  0  0  0  0
    7.9743  -12.5820   18.6787 N   0  0  0  0  0  0  0  0  0  0  0  0
    6.9497  -13.4421   18.5877 C   0  0  0  0  0  0  0  0  0  0  0  0
    7.1681  -14.5242   19.3598 N   0  0  0  0  0  0  0  0  0  0  0  0
   10.8680  -16.6243   21.5854 C   0  0  0  0  0  0  0  0  0  0  0  0
   10.6124  -17.8163   21.9392 O   0  0  0  0  0  0  0  0  0  0  0  0
   11.8459  -15.9664   22.3599 N   0  0  0  0  0  0  0  0  0  0  0  0
   12.5581  -16.6702   23.4533 C   0  0  1  0  0  0  0  0  0  0  0  0
   13.6689  -15.7522   23.8500 C   0  0  0  0  0  0  0  0  0  0  0  0
   14.9042  -15.8519   23.0933 C   0  0  0  0  0  0  0  0  0  0  0  0
   15.0606  -16.6651   22.1596 O   0  0  0  0  0  0  0  0  0  0  0  0
   11.5672  -16.7155   24.5602 C   0  0  0  0  0  0  0  0  0  0  0  0
   10.6347  -15.8817   24.5935 O   0  0  0  0  0  0  0  0  0  0  0  0
   15.9580  -15.0121   23.4157 O   0  0  0  0  0  0  0  0  0  0  0  0
   11.5927  -17.6397   25.5964 O   0  0  0  0  0  0  0  0  0  0  0  0
  2  1  1  6
  2  3  1  0
  4  2  1  0
  4  5  2  0
  6  7  1  0
  6  4  1  0
  7  8  1  1
  9  8  1  0
 10  9  2  0
 11 10  1  0
 12 11  1  0
 12 13  2  0
 13  9  1  0
 14  7  1  0
 15 14  2  0
 16 14  1  0
 17 16  1  0
 17 21  1  0
 17 18  1  1
 19 20  2  0
 19 18  1  0
 21 24  1  0
 22 21  2  0
 23 19  1  0
M  END
$$$$
