AHD.pdb
     RDKit          3D

 24 24  0  0  1  0  0  0  0  0999 V2000
    9.2803  -17.0745   16.1189 C   0  0  0  0  0  0  0  0  0  0  0  0
    9.8920  -17.8631   17.2644 C   0  0  2  0  0  0  0  0  0  0  0  0
    8.8462  -18.6153   17.8903 N   0  0  0  0  0  0  0  0  0  0  0  0
   10.4895  -16.8767   18.2512 C   0  0  0  0  0  0  0  0  0  0  0  0
   11.4802  -16.1912   17.9130 O   0  0  0  0  0  0  0  0  0  0  0  0
    9.9382  -16.7293   19.5385 N   0  0  0  0  0  0  0  0  0  0  0  0
   10.3509  -15.9291   20.6316 C   0  0  1  0  0  0  0  0  0  0  0  0
    9.2568  -15.2050   21.3857 C   0  0  0  0  0  0  0  0  0  0  0  0
    8.3965  -14.3615   20.5536 C   0  0  0  0  0  0  0  0  0  0  0  0
    8.6977  -13.1527   19.9744 C   0  0  0  0  0  0  0  0  0  0  0  0
    7.6206  -12.6682   19.3421 N   0  0  0  0  0  0  0  0  0  0  0  0
    6.6552  -13.5792   19.5318 C   0  0  0  0  0  0  0  0  0  0  0  0
    7.1140  -14.6115   20.2657 N   0  0  0  0  0  0  0  0  0  0  0  0
   11.2959  -16.5243   21.5720 C   0  0  0  0  0  0  0  0  0  0  0  0
   11.1897  -17.7138   22.0022 O   0  0  0  0  0  0  0  0  0  0  0  0
   12.4033  -15.8050   22.0674 N   0  0  0  0  0  0  0  0  0  0  0  0
   13.4749  -16.4823   22.8361 C   0  0  1  0  0  0  0  0  0  0  0  0
   14.5667  -15.4692   22.9598 C   0  0  0  0  0  0  0  0  0  0  0  0
   15.7679  -15.8818   23.6637 C   0  0  0  0  0  0  0  0  0  0  0  0
   15.7509  -16.6979   24.6077 O   0  0  0  0  0  0  0  0  0  0  0  0
   12.8766  -16.6956   24.1800 C   0  0  0  0  0  0  0  0  0  0  0  0
   12.0191  -15.8934   24.6125 O   0  0  0  0  0  0  0  0  0  0  0  0
   16.9879  -15.3512   23.2766 O   0  0  0  0  0  0  0  0  0  0  0  0
   13.2029  -17.7491   25.0239 O   0  0  0  0  0  0  0  0  0  0  0  0
  2  1  1  6
  2  3  1  0
  4  2  1  0
  4  5  2  0
  6  7  1  0
  6  4  1  0
  7  8  1  1
  9  8  1  0
 10  9  2  0
 11 10  1  0
 12 11  1  0
 12 13  2  0
 13  9  1  0
 14  7  1  0
 15 14  2  0
 16 14  1  0
 17 16  1  0
 17 21  1  0
 17 18  1  1
 19 20  2  0
 19 18  1  0
 21 24  1  0
 22 21  2  0
 23 19  1  0
M  END
$$$$
