AHD.pdb
     RDKit          3D

 24 24  0  0  1  0  0  0  0  0999 V2000
   11.2359  -16.6934   16.1402 C   0  0  0  0  0  0  0  0  0  0  0  0
   11.0475  -17.6322   17.3198 C   0  0  2  0  0  0  0  0  0  0  0  0
    9.6741  -18.0373   17.3464 N   0  0  0  0  0  0  0  0  0  0  0  0
   11.3937  -16.8732   18.5879 C   0  0  0  0  0  0  0  0  0  0  0  0
   12.5703  -16.4906   18.7745 O   0  0  0  0  0  0  0  0  0  0  0  0
   10.4033  -16.5988   19.5506 N   0  0  0  0  0  0  0  0  0  0  0  0
   10.4833  -15.9066   20.7834 C   0  0  1  0  0  0  0  0  0  0  0  0
    9.2176  -15.2243   21.2549 C   0  0  0  0  0  0  0  0  0  0  0  0
    8.5509  -14.4053   20.2407 C   0  0  0  0  0  0  0  0  0  0  0  0
    8.8388  -13.1146   19.8685 C   0  0  0  0  0  0  0  0  0  0  0  0
    7.9584  -12.6970   18.9491 N   0  0  0  0  0  0  0  0  0  0  0  0
    7.1274  -13.7312   18.7547 C   0  0  0  0  0  0  0  0  0  0  0  0
    7.4768  -14.7739   19.5329 N   0  0  0  0  0  0  0  0  0  0  0  0
   11.1195  -16.6038   21.8974 C   0  0  0  0  0  0  0  0  0  0  0  0
   10.9361  -17.8364   22.1392 O   0  0  0  0  0  0  0  0  0  0  0  0
   11.9917  -15.9424   22.7866 N   0  0  0  0  0  0  0  0  0  0  0  0
   12.7308  -16.6896   23.8322 C   0  0  1  0  0  0  0  0  0  0  0  0
   13.9404  -15.8611   24.1229 C   0  0  0  0  0  0  0  0  0  0  0  0
   14.9870  -15.8524   23.1164 C   0  0  0  0  0  0  0  0  0  0  0  0
   15.1091  -16.7531   22.2612 O   0  0  0  0  0  0  0  0  0  0  0  0
   11.8321  -16.6413   25.0151 C   0  0  0  0  0  0  0  0  0  0  0  0
   12.1416  -17.2630   26.0560 O   0  0  0  0  0  0  0  0  0  0  0  0
   15.8917  -14.8032   23.0985 O   0  0  0  0  0  0  0  0  0  0  0  0
   10.6355  -15.9379   25.0609 O   0  0  0  0  0  0  0  0  0  0  0  0
  2  1  1  6
  2  3  1  0
  4  2  1  0
  4  5  2  0
  6  7  1  0
  6  4  1  0
  7  8  1  1
  9  8  1  0
 10  9  2  0
 11 10  1  0
 12 11  1  0
 12 13  2  0
 13  9  1  0
 14  7  1  0
 15 14  2  0
 16 14  1  0
 17 16  1  0
 17 21  1  0
 17 18  1  1
 19 20  2  0
 19 18  1  0
 21 24  1  0
 22 21  2  0
 23 19  1  0
M  END
$$$$
