AHD.pdb
     RDKit          3D

 24 24  0  0  1  0  0  0  0  0999 V2000
    8.2501  -20.2242   18.9002 C   0  0  0  0  0  0  0  0  0  0  0  0
    7.9280  -18.7551   18.6851 C   0  0  2  0  0  0  0  0  0  0  0  0
    8.2133  -18.4363   17.3183 N   0  0  0  0  0  0  0  0  0  0  0  0
    8.8123  -17.9373   19.6087 C   0  0  0  0  0  0  0  0  0  0  0  0
   10.0516  -18.1086   19.5855 O   0  0  0  0  0  0  0  0  0  0  0  0
    8.2489  -16.9917   20.4869 N   0  0  0  0  0  0  0  0  0  0  0  0
    8.8621  -16.1212   21.4205 C   0  0  1  0  0  0  0  0  0  0  0  0
    8.1639  -14.8018   21.6689 C   0  0  0  0  0  0  0  0  0  0  0  0
    7.9195  -14.0040   20.4658 C   0  0  0  0  0  0  0  0  0  0  0  0
    6.7131  -13.6112   19.9386 C   0  0  0  0  0  0  0  0  0  0  0  0
    6.9104  -12.9453   18.7929 N   0  0  0  0  0  0  0  0  0  0  0  0
    8.2392  -12.9279   18.6142 C   0  0  0  0  0  0  0  0  0  0  0  0
    8.8625  -13.5672   19.6230 N   0  0  0  0  0  0  0  0  0  0  0  0
    9.2952  -16.7034   22.6876 C   0  0  0  0  0  0  0  0  0  0  0  0
    8.4855  -17.1348   23.5649 O   0  0  0  0  0  0  0  0  0  0  0  0
   10.6601  -16.8264   23.0203 N   0  0  0  0  0  0  0  0  0  0  0  0
   11.0889  -17.5528   24.2395 C   0  0  1  0  0  0  0  0  0  0  0  0
   12.0194  -18.6166   23.7533 C   0  0  0  0  0  0  0  0  0  0  0  0
   12.0027  -19.8800   24.4688 C   0  0  0  0  0  0  0  0  0  0  0  0
   11.2536  -20.0943   25.4437 O   0  0  0  0  0  0  0  0  0  0  0  0
   11.8782  -16.5489   25.0001 C   0  0  0  0  0  0  0  0  0  0  0  0
   12.5363  -15.6806   24.3846 O   0  0  0  0  0  0  0  0  0  0  0  0
   12.8515  -20.8950   24.0576 O   0  0  0  0  0  0  0  0  0  0  0  0
   11.9473  -16.4940   26.3860 O   0  0  0  0  0  0  0  0  0  0  0  0
  2  1  1  6
  2  3  1  0
  4  2  1  0
  4  5  2  0
  6  7  1  0
  6  4  1  0
  7  8  1  1
  9  8  1  0
 10  9  2  0
 11 10  1  0
 12 11  1  0
 12 13  2  0
 13  9  1  0
 14  7  1  0
 15 14  2  0
 16 14  1  0
 17 16  1  0
 17 21  1  0
 17 18  1  6
 19 20  2  0
 19 18  1  0
 21 24  1  0
 22 21  2  0
 23 19  1  0
M  END
$$$$
