AHD.pdb
     RDKit          3D

 24 24  0  0  1  0  0  0  0  0999 V2000
    7.1824  -12.1151   19.2858 C   0  0  0  0  0  0  0  0  0  0  0  0
    8.0691  -13.2943   18.9230 C   0  0  2  0  0  0  0  0  0  0  0  0
    7.4132  -14.0382   17.8897 N   0  0  0  0  0  0  0  0  0  0  0  0
    8.2388  -14.1563   20.1608 C   0  0  0  0  0  0  0  0  0  0  0  0
    8.8763  -13.7087   21.1400 O   0  0  0  0  0  0  0  0  0  0  0  0
    7.6858  -15.4503   20.2132 N   0  0  0  0  0  0  0  0  0  0  0  0
    7.6843  -16.4104   21.2541 C   0  0  1  0  0  0  0  0  0  0  0  0
    6.7368  -17.5788   21.0900 C   0  0  0  0  0  0  0  0  0  0  0  0
    6.6080  -18.4317   22.2731 C   0  0  0  0  0  0  0  0  0  0  0  0
    7.2173  -18.2848   23.4956 C   0  0  0  0  0  0  0  0  0  0  0  0
    6.8905  -19.3090   24.2949 N   0  0  0  0  0  0  0  0  0  0  0  0
    6.0793  -20.0875   23.5644 C   0  0  0  0  0  0  0  0  0  0  0  0
    5.9002  -19.5655   22.3354 N   0  0  0  0  0  0  0  0  0  0  0  0
    8.9833  -16.8830   21.7245 C   0  0  0  0  0  0  0  0  0  0  0  0
    9.9528  -17.1356   20.9451 O   0  0  0  0  0  0  0  0  0  0  0  0
    9.2466  -17.0900   23.0944 N   0  0  0  0  0  0  0  0  0  0  0  0
   10.6020  -17.4619   23.5662 C   0  0  1  0  0  0  0  0  0  0  0  0
   10.7972  -16.6968   24.8353 C   0  0  0  0  0  0  0  0  0  0  0  0
   12.0480  -16.9069   25.5423 C   0  0  0  0  0  0  0  0  0  0  0  0
   13.1192  -17.1669   24.9571 O   0  0  0  0  0  0  0  0  0  0  0  0
   10.4855  -18.9055   23.9004 C   0  0  0  0  0  0  0  0  0  0  0  0
   11.4911  -19.5334   24.3009 O   0  0  0  0  0  0  0  0  0  0  0  0
   12.0604  -16.8166   26.9248 O   0  0  0  0  0  0  0  0  0  0  0  0
    9.3109  -19.6397   23.8011 O   0  0  0  0  0  0  0  0  0  0  0  0
  2  1  1  1
  2  3  1  0
  4  2  1  0
  4  5  2  0
  6  7  1  0
  6  4  1  0
  7  8  1  6
  9  8  1  0
 10  9  2  0
 11 10  1  0
 12 11  1  0
 12 13  2  0
 13  9  1  0
 14  7  1  0
 15 14  2  0
 16 14  1  0
 17 16  1  0
 17 21  1  0
 17 18  1  1
 19 20  2  0
 19 18  1  0
 21 24  1  0
 22 21  2  0
 23 19  1  0
M  END
$$$$
