AQQ.pdb
     RDKit          3D

 24 23  0  0  1  0  0  0  0  0999 V2000
    8.0045  -12.2229   19.9835 C   0  0  0  0  0  0  0  0  0  0  0  0
    8.0530  -13.6235   19.3674 C   0  0  2  0  0  0  0  0  0  0  0  0
    6.8576  -13.8273   18.6092 N   0  0  0  0  0  0  0  0  0  0  0  0
    8.1866  -14.5706   20.4955 C   0  0  0  0  0  0  0  0  0  0  0  0
    7.2217  -15.0168   21.1486 O   0  0  0  0  0  0  0  0  0  0  0  0
   13.2076  -19.0551   22.7130 N   0  0  0  0  0  0  0  0  0  0  0  0
   11.9462  -19.0681   22.1012 C   0  0  0  0  0  0  0  0  0  0  0  0
   11.6713  -19.8839   21.1952 O   0  0  0  0  0  0  0  0  0  0  0  0
   10.8569  -18.1023   22.5016 C   0  0  0  0  0  0  0  0  0  0  0  0
   10.7832  -16.9771   21.5106 C   0  0  0  0  0  0  0  0  0  0  0  0
    9.7139  -16.0333   21.8575 C   0  0  2  0  0  0  0  0  0  0  0  0
    9.4791  -15.0044   20.8664 N   0  0  0  0  0  0  0  0  0  0  0  0
    9.8553  -15.3638   23.1577 C   0  0  0  0  0  0  0  0  0  0  0  0
   10.1543  -14.1668   23.2253 O   0  0  0  0  0  0  0  0  0  0  0  0
    6.7577  -11.3956   26.5447 N   0  0  0  0  0  0  0  0  0  0  0  0
    6.7254  -12.7871   26.2348 C   0  0  0  0  0  0  0  0  0  0  0  0
    5.7469  -13.2602   25.6079 O   0  0  0  0  0  0  0  0  0  0  0  0
    7.8189  -13.7055   26.6314 C   0  0  0  0  0  0  0  0  0  0  0  0
    8.2620  -14.4780   25.4397 C   0  0  0  0  0  0  0  0  0  0  0  0
    9.4487  -15.3777   25.6644 C   0  0  2  0  0  0  0  0  0  0  0  0
    9.6494  -16.0841   24.3904 N   0  0  0  0  0  0  0  0  0  0  0  0
    9.2484  -16.3302   26.7626 C   0  0  0  0  0  0  0  0  0  0  0  0
    9.2487  -15.9780   27.9873 O   0  0  0  0  0  0  0  0  0  0  0  0
    9.0455  -17.6763   26.5291 O   0  0  0  0  0  0  0  0  0  0  0  0
  2  1  1  1
  2  3  1  0
  2  4  1  0
  4 12  1  0
  4  5  2  0
  6  7  1  0
  7  9  1  0
  8  7  2  0
  9 10  1  0
 11 10  1  6
 11 13  1  0
 12 11  1  0
 13 21  1  0
 14 13  2  0
 16 15  1  0
 17 16  2  0
 18 16  1  0
 19 18  1  0
 20 19  1  6
 21 20  1  0
 22 20  1  0
 22 24  1  0
 23 22  2  0
M  END
$$$$
