AQQ.pdb
     RDKit          3D

 24 23  0  0  1  0  0  0  0  0999 V2000
   10.3546  -20.6166   18.0213 C   0  0  0  0  0  0  0  0  0  0  0  0
    9.5922  -19.3882   17.5179 C   0  0  2  0  0  0  0  0  0  0  0  0
    9.8064  -19.2672   16.1090 N   0  0  0  0  0  0  0  0  0  0  0  0
   10.1136  -18.2329   18.2799 C   0  0  0  0  0  0  0  0  0  0  0  0
   11.3269  -18.0192   18.4779 O   0  0  0  0  0  0  0  0  0  0  0  0
    6.7264  -13.0350   19.7351 N   0  0  0  0  0  0  0  0  0  0  0  0
    7.3359  -13.3186   18.5048 C   0  0  0  0  0  0  0  0  0  0  0  0
    7.0496  -12.6737   17.4734 O   0  0  0  0  0  0  0  0  0  0  0  0
    8.3660  -14.4129   18.3600 C   0  0  0  0  0  0  0  0  0  0  0  0
    8.5719  -15.0977   19.6800 C   0  0  0  0  0  0  0  0  0  0  0  0
    9.5973  -16.1433   19.5815 C   0  0  2  0  0  0  0  0  0  0  0  0
    9.1936  -17.3077   18.8217 N   0  0  0  0  0  0  0  0  0  0  0  0
   10.1404  -16.6222   20.8599 C   0  0  0  0  0  0  0  0  0  0  0  0
    9.5593  -17.5003   21.5065 O   0  0  0  0  0  0  0  0  0  0  0  0
   12.6752  -21.3699   23.7925 N   0  0  0  0  0  0  0  0  0  0  0  0
   13.0502  -20.2564   22.9845 C   0  0  0  0  0  0  0  0  0  0  0  0
   13.5720  -20.4536   21.8606 O   0  0  0  0  0  0  0  0  0  0  0  0
   12.8432  -18.8580   23.4298 C   0  0  0  0  0  0  0  0  0  0  0  0
   12.1674  -18.0967   22.3449 C   0  0  0  0  0  0  0  0  0  0  0  0
   11.9727  -16.6285   22.6181 C   0  0  2  0  0  0  0  0  0  0  0  0
   11.3657  -16.0814   21.3956 N   0  0  0  0  0  0  0  0  0  0  0  0
   13.2247  -15.9317   22.9352 C   0  0  0  0  0  0  0  0  0  0  0  0
   13.7826  -15.1181   22.1285 O   0  0  0  0  0  0  0  0  0  0  0  0
   13.8760  -16.1194   24.1387 O   0  0  0  0  0  0  0  0  0  0  0  0
  2  1  1  1
  2  3  1  0
  2  4  1  0
  4 12  1  0
  4  5  2  0
  6  7  1  0
  7  9  1  0
  8  7  2  0
  9 10  1  0
 11 10  1  1
 11 13  1  0
 12 11  1  0
 13 21  1  0
 14 13  2  0
 16 15  1  0
 17 16  2  0
 18 16  1  0
 19 18  1  0
 20 19  1  6
 21 20  1  0
 22 20  1  0
 22 24  1  0
 23 22  2  0
M  END
$$$$
