AQQ.pdb
     RDKit          3D

 24 23  0  0  1  0  0  0  0  0999 V2000
    8.0488  -12.6759   19.6973 C   0  0  0  0  0  0  0  0  0  0  0  0
    8.0789  -14.1272   20.1832 C   0  0  2  0  0  0  0  0  0  0  0  0
    6.7521  -14.6567   20.1133 N   0  0  0  0  0  0  0  0  0  0  0  0
    8.6126  -14.0941   21.5621 C   0  0  0  0  0  0  0  0  0  0  0  0
    9.7880  -13.7875   21.8471 O   0  0  0  0  0  0  0  0  0  0  0  0
    5.2345  -13.1219   26.8040 N   0  0  0  0  0  0  0  0  0  0  0  0
    6.1795  -12.1880   26.3563 C   0  0  0  0  0  0  0  0  0  0  0  0
    6.1982  -11.0191   26.7981 O   0  0  0  0  0  0  0  0  0  0  0  0
    7.2205  -12.5419   25.3215 C   0  0  0  0  0  0  0  0  0  0  0  0
    7.1016  -13.9925   24.9537 C   0  0  0  0  0  0  0  0  0  0  0  0
    8.1603  -14.3916   24.0186 C   0  0  2  0  0  0  0  0  0  0  0  0
    7.7503  -14.4275   22.6306 N   0  0  0  0  0  0  0  0  0  0  0  0
    8.8182  -15.6717   24.3135 C   0  0  0  0  0  0  0  0  0  0  0  0
    8.2874  -16.7436   24.0037 O   0  0  0  0  0  0  0  0  0  0  0  0
   14.6266  -17.4320   22.3210 N   0  0  0  0  0  0  0  0  0  0  0  0
   13.8930  -16.5844   23.2024 C   0  0  0  0  0  0  0  0  0  0  0  0
   14.4829  -15.6524   23.8004 O   0  0  0  0  0  0  0  0  0  0  0  0
   12.4415  -16.7670   23.4403 C   0  0  0  0  0  0  0  0  0  0  0  0
   12.1917  -16.8221   24.9058 C   0  0  0  0  0  0  0  0  0  0  0  0
   10.7490  -16.9909   25.3039 C   0  0  2  0  0  0  0  0  0  0  0  0
   10.1009  -15.7133   24.9722 N   0  0  0  0  0  0  0  0  0  0  0  0
   10.5784  -17.3081   26.7265 C   0  0  0  0  0  0  0  0  0  0  0  0
   10.0783  -16.4840   27.5599 O   0  0  0  0  0  0  0  0  0  0  0  0
   10.9534  -18.5307   27.2483 O   0  0  0  0  0  0  0  0  0  0  0  0
  2  1  1  1
  2  3  1  0
  2  4  1  0
  4 12  1  0
  4  5  2  0
  6  7  1  0
  7  9  1  0
  8  7  2  0
  9 10  1  0
 11 10  1  1
 11 13  1  0
 12 11  1  0
 13 21  1  0
 14 13  2  0
 16 15  1  0
 17 16  2  0
 18 16  1  0
 19 18  1  0
 20 19  1  1
 21 20  1  0
 22 20  1  0
 22 24  1  0
 23 22  2  0
M  END
$$$$
