AQQ.pdb
     RDKit          3D

 24 23  0  0  1  0  0  0  0  0999 V2000
    7.7540  -15.1881   17.3896 C   0  0  0  0  0  0  0  0  0  0  0  0
    7.5648  -13.8316   18.0735 C   0  0  2  0  0  0  0  0  0  0  0  0
    8.0179  -12.8077   17.1836 N   0  0  0  0  0  0  0  0  0  0  0  0
    8.3425  -13.8864   19.3302 C   0  0  0  0  0  0  0  0  0  0  0  0
    9.5580  -13.6156   19.4098 O   0  0  0  0  0  0  0  0  0  0  0  0
    7.3059  -15.6342   26.3370 N   0  0  0  0  0  0  0  0  0  0  0  0
    7.2059  -14.5975   25.3985 C   0  0  0  0  0  0  0  0  0  0  0  0
    6.3049  -13.7348   25.4762 O   0  0  0  0  0  0  0  0  0  0  0  0
    8.1761  -14.4675   24.2490 C   0  0  0  0  0  0  0  0  0  0  0  0
    7.4224  -14.3574   22.9553 C   0  0  0  0  0  0  0  0  0  0  0  0
    8.3385  -14.3122   21.8093 C   0  0  2  0  0  0  0  0  0  0  0  0
    7.6820  -14.2668   20.5198 N   0  0  0  0  0  0  0  0  0  0  0  0
    9.3384  -15.3873   21.7533 C   0  0  0  0  0  0  0  0  0  0  0  0
    9.0514  -16.4966   21.2910 O   0  0  0  0  0  0  0  0  0  0  0  0
   14.3368  -14.1619   18.5095 N   0  0  0  0  0  0  0  0  0  0  0  0
   14.1617  -14.7549   19.7945 C   0  0  0  0  0  0  0  0  0  0  0  0
   15.1167  -14.7650   20.6081 O   0  0  0  0  0  0  0  0  0  0  0  0
   12.8768  -15.3669   20.2083 C   0  0  0  0  0  0  0  0  0  0  0  0
   12.9270  -15.6660   21.6648 C   0  0  0  0  0  0  0  0  0  0  0  0
   11.6708  -16.2664   22.2391 C   0  0  2  0  0  0  0  0  0  0  0  0
   10.6816  -15.1783   22.2358 N   0  0  0  0  0  0  0  0  0  0  0  0
   11.8554  -16.7989   23.5940 C   0  0  0  0  0  0  0  0  0  0  0  0
   11.2851  -16.2935   24.6155 O   0  0  0  0  0  0  0  0  0  0  0  0
   12.6656  -17.8897   23.8419 O   0  0  0  0  0  0  0  0  0  0  0  0
  2  1  1  6
  2  3  1  0
  2  4  1  0
  4 12  1  0
  4  5  2  0
  6  7  1  0
  7  9  1  0
  8  7  2  0
  9 10  1  0
 11 10  1  1
 11 13  1  0
 12 11  1  0
 13 21  1  0
 14 13  2  0
 16 15  1  0
 17 16  2  0
 18 16  1  0
 19 18  1  0
 20 19  1  1
 21 20  1  0
 22 20  1  0
 22 24  1  0
 23 22  2  0
M  END
$$$$
