AQQ.pdb
     RDKit          3D

 24 23  0  0  1  0  0  0  0  0999 V2000
   11.1380  -19.9054   16.8988 C   0  0  0  0  0  0  0  0  0  0  0  0
   11.3179  -18.5010   16.3166 C   0  0  2  0  0  0  0  0  0  0  0  0
   12.5056  -18.4890   15.5198 N   0  0  0  0  0  0  0  0  0  0  0  0
   11.3900  -17.5779   17.4698 C   0  0  0  0  0  0  0  0  0  0  0  0
   12.4533  -17.2502   18.0345 O   0  0  0  0  0  0  0  0  0  0  0  0
    7.6207  -12.0086   20.4893 N   0  0  0  0  0  0  0  0  0  0  0  0
    7.7033  -13.3457   20.0758 C   0  0  0  0  0  0  0  0  0  0  0  0
    6.6829  -13.9901   19.7514 O   0  0  0  0  0  0  0  0  0  0  0  0
    9.0227  -14.0758   20.0004 C   0  0  0  0  0  0  0  0  0  0  0  0
    8.9336  -15.1881   18.9960 C   0  0  0  0  0  0  0  0  0  0  0  0
   10.1580  -15.9975   18.9902 C   0  0  2  0  0  0  0  0  0  0  0  0
   10.1902  -17.0265   17.9724 N   0  0  0  0  0  0  0  0  0  0  0  0
   10.5032  -16.6354   20.2680 C   0  0  0  0  0  0  0  0  0  0  0  0
   10.0528  -17.7474   20.5636 O   0  0  0  0  0  0  0  0  0  0  0  0
   15.7228  -15.1089   23.0824 N   0  0  0  0  0  0  0  0  0  0  0  0
   15.2708  -16.1255   23.9743 C   0  0  0  0  0  0  0  0  0  0  0  0
   16.0257  -16.5243   24.8938 O   0  0  0  0  0  0  0  0  0  0  0  0
   13.9255  -16.7354   23.8527 C   0  0  0  0  0  0  0  0  0  0  0  0
   13.2473  -16.1824   22.6495 C   0  0  0  0  0  0  0  0  0  0  0  0
   11.8396  -16.6693   22.4271 C   0  0  2  0  0  0  0  0  0  0  0  0
   11.3767  -15.9824   21.2121 N   0  0  0  0  0  0  0  0  0  0  0  0
   10.9479  -16.3863   23.5578 C   0  0  0  0  0  0  0  0  0  0  0  0
   10.1471  -15.3951   23.5710 O   0  0  0  0  0  0  0  0  0  0  0  0
   10.9253  -17.1865   24.6832 O   0  0  0  0  0  0  0  0  0  0  0  0
  2  1  1  1
  2  3  1  0
  2  4  1  0
  4 12  1  0
  4  5  2  0
  6  7  1  0
  7  9  1  0
  8  7  2  0
  9 10  1  0
 11 10  1  1
 11 13  1  0
 12 11  1  0
 13 21  1  0
 14 13  2  0
 16 15  1  0
 17 16  2  0
 18 16  1  0
 19 18  1  0
 20 19  1  1
 21 20  1  0
 22 20  1  0
 22 24  1  0
 23 22  2  0
M  END
$$$$
