AQQ.pdb
     RDKit          3D

 24 23  0  0  1  0  0  0  0  0999 V2000
   11.1783  -20.0816   20.0367 C   0  0  0  0  0  0  0  0  0  0  0  0
   11.4775  -19.3801   18.7094 C   0  0  2  0  0  0  0  0  0  0  0  0
   11.3983  -20.3462   17.6577 N   0  0  0  0  0  0  0  0  0  0  0  0
   12.8260  -18.7881   18.8456 C   0  0  0  0  0  0  0  0  0  0  0  0
   13.8652  -19.4555   19.0227 O   0  0  0  0  0  0  0  0  0  0  0  0
   15.3892  -12.7024   16.7729 N   0  0  0  0  0  0  0  0  0  0  0  0
   15.5750  -13.3580   17.9983 C   0  0  0  0  0  0  0  0  0  0  0  0
   15.6669  -12.7205   19.0693 O   0  0  0  0  0  0  0  0  0  0  0  0
   15.6737  -14.8618   18.0900 C   0  0  0  0  0  0  0  0  0  0  0  0
   14.3008  -15.4671   18.0405 C   0  0  0  0  0  0  0  0  0  0  0  0
   14.2388  -16.7071   18.8235 C   0  0  2  0  0  0  0  0  0  0  0  0
   12.9598  -17.3835   18.7727 N   0  0  0  0  0  0  0  0  0  0  0  0
   14.6120  -16.5832   20.2391 C   0  0  0  0  0  0  0  0  0  0  0  0
   13.7516  -16.6029   21.1257 O   0  0  0  0  0  0  0  0  0  0  0  0
   15.5172  -20.5219   24.6413 N   0  0  0  0  0  0  0  0  0  0  0  0
   15.3397  -19.1149   24.4918 C   0  0  0  0  0  0  0  0  0  0  0  0
   14.2744  -18.5793   24.8825 O   0  0  0  0  0  0  0  0  0  0  0  0
   16.3806  -18.2523   23.8842 C   0  0  0  0  0  0  0  0  0  0  0  0
   15.9652  -17.8876   22.5030 C   0  0  0  0  0  0  0  0  0  0  0  0
   16.3969  -16.5195   22.0445 C   0  0  2  0  0  0  0  0  0  0  0  0
   15.9917  -16.4352   20.6334 N   0  0  0  0  0  0  0  0  0  0  0  0
   17.8399  -16.2941   22.1867 C   0  0  0  0  0  0  0  0  0  0  0  0
   18.3643  -15.8500   23.2599 O   0  0  0  0  0  0  0  0  0  0  0  0
   18.7210  -16.5537   21.1553 O   0  0  0  0  0  0  0  0  0  0  0  0
  2  1  1  1
  2  3  1  0
  2  4  1  0
  4 12  1  0
  4  5  2  0
  6  7  1  0
  7  9  1  0
  8  7  2  0
  9 10  1  0
 11 10  1  1
 11 13  1  0
 12 11  1  0
 13 21  1  0
 14 13  2  0
 16 15  1  0
 17 16  2  0
 18 16  1  0
 19 18  1  0
 20 19  1  6
 21 20  1  0
 22 20  1  0
 22 24  1  0
 23 22  2  0
M  END
$$$$
