AQQ.pdb
     RDKit          3D

 24 23  0  0  1  0  0  0  0  0999 V2000
    3.4651  -18.9613   22.8606 C   0  0  0  0  0  0  0  0  0  0  0  0
    4.0019  -18.5692   21.4816 C   0  0  2  0  0  0  0  0  0  0  0  0
    4.0449  -19.7403   20.6617 N   0  0  0  0  0  0  0  0  0  0  0  0
    5.3379  -17.9764   21.7077 C   0  0  0  0  0  0  0  0  0  0  0  0
    6.3484  -18.6363   22.0244 O   0  0  0  0  0  0  0  0  0  0  0  0
    7.3500  -12.6085   19.0935 N   0  0  0  0  0  0  0  0  0  0  0  0
    8.3985  -12.9786   19.9476 C   0  0  0  0  0  0  0  0  0  0  0  0
    9.5187  -12.4290   19.8780 O   0  0  0  0  0  0  0  0  0  0  0  0
    8.2320  -14.0557   20.9925 C   0  0  0  0  0  0  0  0  0  0  0  0
    6.8623  -14.6613   20.8872 C   0  0  0  0  0  0  0  0  0  0  0  0
    6.7753  -15.9130   21.6488 C   0  0  2  0  0  0  0  0  0  0  0  0
    5.4935  -16.5800   21.5593 N   0  0  0  0  0  0  0  0  0  0  0  0
    7.1181  -15.8140   23.0741 C   0  0  0  0  0  0  0  0  0  0  0  0
    6.2551  -15.5457   23.9166 O   0  0  0  0  0  0  0  0  0  0  0  0
    6.6013  -19.0144   26.9149 N   0  0  0  0  0  0  0  0  0  0  0  0
    7.7836  -19.4114   26.2234 C   0  0  0  0  0  0  0  0  0  0  0  0
    8.1097  -20.6227   26.1978 O   0  0  0  0  0  0  0  0  0  0  0  0
    8.6512  -18.4330   25.5258 C   0  0  0  0  0  0  0  0  0  0  0  0
    8.0230  -17.0864   25.5990 C   0  0  0  0  0  0  0  0  0  0  0  0
    8.8128  -15.9754   24.9585 C   0  0  2  0  0  0  0  0  0  0  0  0
    8.4702  -16.0270   23.5294 N   0  0  0  0  0  0  0  0  0  0  0  0
   10.2608  -16.1134   25.1527 C   0  0  0  0  0  0  0  0  0  0  0  0
   10.8088  -16.0610   26.3020 O   0  0  0  0  0  0  0  0  0  0  0  0
   11.1209  -16.3103   24.0901 O   0  0  0  0  0  0  0  0  0  0  0  0
  2  1  1  1
  2  3  1  0
  2  4  1  0
  4 12  1  0
  4  5  2  0
  6  7  1  0
  7  9  1  0
  8  7  2  0
  9 10  1  0
 11 10  1  1
 11 13  1  0
 12 11  1  0
 13 21  1  0
 14 13  2  0
 16 15  1  0
 17 16  2  0
 18 16  1  0
 19 18  1  0
 20 19  1  1
 21 20  1  0
 22 20  1  0
 22 24  1  0
 23 22  2  0
M  END
$$$$
