AQQ.pdb
     RDKit          3D

 24 23  0  0  1  0  0  0  0  0999 V2000
    8.3072  -12.3229   19.4497 C   0  0  0  0  0  0  0  0  0  0  0  0
    8.4849  -13.7302   18.8743 C   0  0  2  0  0  0  0  0  0  0  0  0
    7.5117  -13.9255   17.8445 N   0  0  0  0  0  0  0  0  0  0  0  0
    8.3197  -14.6673   20.0064 C   0  0  0  0  0  0  0  0  0  0  0  0
    7.2162  -15.0957   20.4010 O   0  0  0  0  0  0  0  0  0  0  0  0
    8.8147  -19.5729   20.8518 N   0  0  0  0  0  0  0  0  0  0  0  0
    9.3587  -19.4854   22.1410 C   0  0  0  0  0  0  0  0  0  0  0  0
    9.1878  -20.3940   22.9819 O   0  0  0  0  0  0  0  0  0  0  0  0
   10.1764  -18.2949   22.5811 C   0  0  0  0  0  0  0  0  0  0  0  0
   10.2694  -17.2981   21.4624 C   0  0  0  0  0  0  0  0  0  0  0  0
    9.4357  -16.1202   21.7301 C   0  0  2  0  0  0  0  0  0  0  0  0
    9.4725  -15.1124   20.6914 N   0  0  0  0  0  0  0  0  0  0  0  0
    9.6888  -15.4405   23.0079 C   0  0  0  0  0  0  0  0  0  0  0  0
   10.6882  -14.7304   23.1612 O   0  0  0  0  0  0  0  0  0  0  0  0
    5.3372  -12.7368   25.9463 N   0  0  0  0  0  0  0  0  0  0  0  0
    6.4261  -12.4165   26.8095 C   0  0  0  0  0  0  0  0  0  0  0  0
    6.3082  -11.4787   27.6347 O   0  0  0  0  0  0  0  0  0  0  0  0
    7.7073  -13.1604   26.7666 C   0  0  0  0  0  0  0  0  0  0  0  0
    7.7119  -14.0534   25.5767 C   0  0  0  0  0  0  0  0  0  0  0  0
    8.9795  -14.8404   25.3713 C   0  0  2  0  0  0  0  0  0  0  0  0
    8.7788  -15.5830   24.1181 N   0  0  0  0  0  0  0  0  0  0  0  0
    9.2731  -15.7570   26.4791 C   0  0  0  0  0  0  0  0  0  0  0  0
    8.9711  -16.9946   26.4464 O   0  0  0  0  0  0  0  0  0  0  0  0
    9.9003  -15.3262   27.6318 O   0  0  0  0  0  0  0  0  0  0  0  0
  2  1  1  1
  2  3  1  0
  2  4  1  0
  4 12  1  0
  4  5  2  0
  6  7  1  0
  7  9  1  0
  8  7  2  0
  9 10  1  0
 11 10  1  6
 11 13  1  0
 12 11  1  0
 13 21  1  0
 14 13  2  0
 16 15  1  0
 17 16  2  0
 18 16  1  0
 19 18  1  0
 20 19  1  1
 21 20  1  0
 22 20  1  0
 22 24  1  0
 23 22  2  0
M  END
$$$$
