GKT.pdb
     RDKit          3D

 21 20  0  0  1  0  0  0  0  0999 V2000
    7.3173  -12.9061   18.7763 N   0  0  0  0  0  0  0  0  0  0  0  0
    8.2828  -13.5744   19.6224 C   0  0  0  0  0  0  0  0  0  0  0  0
    7.7120  -13.9636   20.9216 C   0  0  0  0  0  0  0  0  0  0  0  0
    6.7718  -13.2871   21.3880 O   0  0  0  0  0  0  0  0  0  0  0  0
    8.1829  -15.0625   21.6534 N   0  0  0  0  0  0  0  0  0  0  0  0
    7.6448  -15.5545   22.8854 C   0  0  1  0  0  0  0  0  0  0  0  0
    7.9352  -17.0046   23.1521 C   0  0  0  0  0  0  0  0  0  0  0  0
    7.4116  -17.5168   24.4528 C   0  0  0  0  0  0  0  0  0  0  0  0
    7.6529  -18.9548   24.7154 C   0  0  0  0  0  0  0  0  0  0  0  0
    7.0725  -19.5311   25.9545 C   0  0  0  0  0  0  0  0  0  0  0  0
    7.1822  -20.9396   26.1209 N   0  0  0  0  0  0  0  0  0  0  0  0
    8.1942  -14.7957   24.0636 C   0  0  0  0  0  0  0  0  0  0  0  0
    9.4248  -14.5532   24.1286 O   0  0  0  0  0  0  0  0  0  0  0  0
    6.7212  -11.4032   25.6041 C   0  0  0  0  0  0  0  0  0  0  0  0
    6.8780  -12.4768   26.6508 C   0  0  1  0  0  0  0  0  0  0  0  0
    5.6341  -13.0918   26.8047 O   0  0  0  0  0  0  0  0  0  0  0  0
    7.8617  -13.5455   26.2238 C   0  0  2  0  0  0  0  0  0  0  0  0
    7.3673  -14.3326   25.1256 N   0  0  0  0  0  0  0  0  0  0  0  0
    8.2088  -14.4507   27.3407 C   0  0  0  0  0  0  0  0  0  0  0  0
    7.9710  -15.6757   27.2258 O   0  0  0  0  0  0  0  0  0  0  0  0
    8.7878  -14.0106   28.5165 O   0  0  0  0  0  0  0  0  0  0  0  0
  2  1  1  0
  3  4  2  0
  3  2  1  0
  5  3  1  0
  6  5  1  0
  6 12  1  0
  6  7  1  1
  8  7  1  0
  9 10  1  0
  9  8  1  0
 10 11  1  0
 12 13  2  0
 15 14  1  6
 15 16  1  0
 17 19  1  0
 17 15  1  0
 18 12  1  0
 17 18  1  6
 19 21  1  0
 20 19  2  0
M  END
$$$$
