GKT.pdb
     RDKit          3D

 21 20  0  0  1  0  0  0  0  0999 V2000
   10.7415  -18.7758   16.2638 N   0  0  0  0  0  0  0  0  0  0  0  0
   11.3844  -17.9206   17.2384 C   0  0  0  0  0  0  0  0  0  0  0  0
   10.5661  -17.7385   18.4477 C   0  0  0  0  0  0  0  0  0  0  0  0
    9.4621  -17.1649   18.3414 O   0  0  0  0  0  0  0  0  0  0  0  0
   10.9784  -18.1837   19.7113 N   0  0  0  0  0  0  0  0  0  0  0  0
   10.2088  -18.1427   20.9177 C   0  0  1  0  0  0  0  0  0  0  0  0
   10.7922  -18.9384   22.0512 C   0  0  0  0  0  0  0  0  0  0  0  0
   10.8402  -20.4123   21.8190 C   0  0  0  0  0  0  0  0  0  0  0  0
   11.5235  -21.2013   22.8704 C   0  0  0  0  0  0  0  0  0  0  0  0
   11.5888  -22.6733   22.6878 C   0  0  0  0  0  0  0  0  0  0  0  0
   12.3628  -23.4044   23.6311 N   0  0  0  0  0  0  0  0  0  0  0  0
   10.0662  -16.7336   21.4275 C   0  0  0  0  0  0  0  0  0  0  0  0
   11.0865  -16.0128   21.5580 O   0  0  0  0  0  0  0  0  0  0  0  0
    7.9964  -13.8234   19.9977 C   0  0  0  0  0  0  0  0  0  0  0  0
    7.5720  -14.0827   21.4208 C   0  0  1  0  0  0  0  0  0  0  0  0
    6.4505  -14.9129   21.3752 O   0  0  0  0  0  0  0  0  0  0  0  0
    8.6416  -14.8096   22.2079 C   0  0  2  0  0  0  0  0  0  0  0  0
    8.8052  -16.1717   21.7742 N   0  0  0  0  0  0  0  0  0  0  0  0
    8.3564  -14.8025   23.6591 C   0  0  0  0  0  0  0  0  0  0  0  0
    8.1717  -15.8937   24.2469 O   0  0  0  0  0  0  0  0  0  0  0  0
    8.2823  -13.6426   24.4078 O   0  0  0  0  0  0  0  0  0  0  0  0
  2  1  1  0
  3  4  2  0
  3  2  1  0
  5  3  1  0
  6  5  1  0
  6 12  1  0
  6  7  1  1
  8  7  1  0
  9 10  1  0
  9  8  1  0
 10 11  1  0
 12 13  2  0
 15 14  1  6
 15 16  1  0
 17 19  1  0
 17 15  1  0
 18 12  1  0
 17 18  1  6
 19 21  1  0
 20 19  2  0
M  END
$$$$
