GKT.pdb
     RDKit          3D

 21 20  0  0  1  0  0  0  0  0999 V2000
    8.9609  -15.4584   18.3307 N   0  0  0  0  0  0  0  0  0  0  0  0
    9.2569  -16.0738   19.6067 C   0  0  0  0  0  0  0  0  0  0  0  0
    8.2870  -15.6965   20.6470 C   0  0  0  0  0  0  0  0  0  0  0  0
    7.7265  -14.5837   20.5662 O   0  0  0  0  0  0  0  0  0  0  0  0
    7.9694  -16.5375   21.7225 N   0  0  0  0  0  0  0  0  0  0  0  0
    7.1179  -16.2163   22.8276 C   0  0  1  0  0  0  0  0  0  0  0  0
    6.3932  -17.3951   23.4135 C   0  0  0  0  0  0  0  0  0  0  0  0
    5.4248  -18.0548   22.4886 C   0  0  0  0  0  0  0  0  0  0  0  0
    4.8137  -19.3069   22.9925 C   0  0  0  0  0  0  0  0  0  0  0  0
    3.7579  -19.9365   22.1599 C   0  0  0  0  0  0  0  0  0  0  0  0
    3.1473  -21.1125   22.6773 N   0  0  0  0  0  0  0  0  0  0  0  0
    7.8987  -15.6026   23.9588 C   0  0  0  0  0  0  0  0  0  0  0  0
    9.0793  -15.9735   24.1732 O   0  0  0  0  0  0  0  0  0  0  0  0
    7.5819  -11.6125   25.3685 C   0  0  0  0  0  0  0  0  0  0  0  0
    7.4417  -12.7218   26.3796 C   0  0  1  0  0  0  0  0  0  0  0  0
    6.0767  -12.9657   26.5423 O   0  0  0  0  0  0  0  0  0  0  0  0
    8.0777  -14.0094   25.9005 C   0  0  2  0  0  0  0  0  0  0  0  0
    7.3494  -14.6035   24.8111 N   0  0  0  0  0  0  0  0  0  0  0  0
    8.1981  -15.0017   26.9906 C   0  0  0  0  0  0  0  0  0  0  0  0
    7.5838  -16.0896   26.8919 O   0  0  0  0  0  0  0  0  0  0  0  0
    8.9608  -14.7888   28.1238 O   0  0  0  0  0  0  0  0  0  0  0  0
  2  1  1  0
  3  4  2  0
  3  2  1  0
  5  3  1  0
  6  5  1  0
  6 12  1  0
  6  7  1  1
  8  7  1  0
  9 10  1  0
  9  8  1  0
 10 11  1  0
 12 13  2  0
 15 14  1  6
 15 16  1  0
 17 19  1  0
 17 15  1  0
 18 12  1  0
 17 18  1  6
 19 21  1  0
 20 19  2  0
M  END
$$$$
