GKT.pdb
     RDKit          3D

 21 20  0  0  1  0  0  0  0  0999 V2000
    5.9213  -18.5973   17.2547 N   0  0  0  0  0  0  0  0  0  0  0  0
    5.4878  -19.4546   18.3371 C   0  0  0  0  0  0  0  0  0  0  0  0
    5.1717  -18.6963   19.5579 C   0  0  0  0  0  0  0  0  0  0  0  0
    5.4375  -17.4766   19.5894 O   0  0  0  0  0  0  0  0  0  0  0  0
    4.5850  -19.2902   20.6839 N   0  0  0  0  0  0  0  0  0  0  0  0
    4.2970  -18.6460   21.9295 C   0  0  1  0  0  0  0  0  0  0  0  0
    3.3105  -19.3807   22.7926 C   0  0  0  0  0  0  0  0  0  0  0  0
    2.0338  -19.7447   22.1100 C   0  0  0  0  0  0  0  0  0  0  0  0
    0.8095  -19.1367   22.6814 C   0  0  0  0  0  0  0  0  0  0  0  0
   -0.4805  -19.4356   22.0099 C   0  0  0  0  0  0  0  0  0  0  0  0
   -1.3546  -20.3420   22.6717 N   0  0  0  0  0  0  0  0  0  0  0  0
    5.5408  -18.4850   22.7620 C   0  0  0  0  0  0  0  0  0  0  0  0
    6.2747  -19.4800   22.9831 O   0  0  0  0  0  0  0  0  0  0  0  0
    9.1994  -15.5831   24.2721 C   0  0  0  0  0  0  0  0  0  0  0  0
    7.9159  -15.8116   23.5149 C   0  0  1  0  0  0  0  0  0  0  0  0
    8.2563  -16.0457   22.1813 O   0  0  0  0  0  0  0  0  0  0  0  0
    7.1732  -17.0329   24.0138 C   0  0  2  0  0  0  0  0  0  0  0  0
    5.9291  -17.2342   23.3195 N   0  0  0  0  0  0  0  0  0  0  0  0
    6.9017  -16.9560   25.4656 C   0  0  0  0  0  0  0  0  0  0  0  0
    7.8476  -17.1254   26.2699 O   0  0  0  0  0  0  0  0  0  0  0  0
    5.6458  -16.7046   25.9860 O   0  0  0  0  0  0  0  0  0  0  0  0
  2  1  1  0
  3  4  2  0
  3  2  1  0
  5  3  1  0
  6  5  1  0
  6 12  1  0
  6  7  1  1
  8  7  1  0
  9 10  1  0
  9  8  1  0
 10 11  1  0
 12 13  2  0
 15 14  1  1
 15 16  1  0
 17 19  1  0
 17 15  1  0
 18 12  1  0
 17 18  1  6
 19 21  1  0
 20 19  2  0
M  END
$$$$
