GKT.pdb
     RDKit          3D

 21 20  0  0  1  0  0  0  0  0999 V2000
    4.2374  -18.7910   21.2077 N   0  0  0  0  0  0  0  0  0  0  0  0
    4.4811  -17.6812   22.1040 C   0  0  0  0  0  0  0  0  0  0  0  0
    5.8824  -17.2334   22.0701 C   0  0  0  0  0  0  0  0  0  0  0  0
    6.7710  -18.0212   22.4558 O   0  0  0  0  0  0  0  0  0  0  0  0
    6.2561  -15.9588   21.6223 N   0  0  0  0  0  0  0  0  0  0  0  0
    7.5793  -15.4124   21.6268 C   0  0  1  0  0  0  0  0  0  0  0  0
    7.7612  -14.2240   20.7252 C   0  0  0  0  0  0  0  0  0  0  0  0
    7.7387  -14.5384   19.2661 C   0  0  0  0  0  0  0  0  0  0  0  0
    7.9626  -13.3862   18.3621 C   0  0  0  0  0  0  0  0  0  0  0  0
    7.7734  -13.6112   16.9068 C   0  0  0  0  0  0  0  0  0  0  0  0
    7.8182  -12.4634   16.0678 N   0  0  0  0  0  0  0  0  0  0  0  0
    7.9772  -14.9553   23.0047 C   0  0  0  0  0  0  0  0  0  0  0  0
    7.5881  -13.8380   23.4262 O   0  0  0  0  0  0  0  0  0  0  0  0
    7.0859  -13.8603   25.3853 C   0  0  0  0  0  0  0  0  0  0  0  0
    7.7983  -15.0409   25.9948 C   0  0  1  0  0  0  0  0  0  0  0  0
    6.9364  -16.1359   25.9089 O   0  0  0  0  0  0  0  0  0  0  0  0
    9.0588  -15.3963   25.2354 C   0  0  2  0  0  0  0  0  0  0  0  0
    8.7887  -15.7462   23.8661 N   0  0  0  0  0  0  0  0  0  0  0  0
    9.7910  -16.5100   25.8763 C   0  0  0  0  0  0  0  0  0  0  0  0
   10.2621  -16.3450   27.0258 O   0  0  0  0  0  0  0  0  0  0  0  0
    9.9843  -17.7356   25.2667 O   0  0  0  0  0  0  0  0  0  0  0  0
  2  1  1  0
  3  4  2  0
  3  2  1  0
  5  3  1  0
  6  5  1  0
  6 12  1  0
  6  7  1  6
  8  7  1  0
  9 10  1  0
  9  8  1  0
 10 11  1  0
 12 13  2  0
 15 14  1  6
 15 16  1  0
 17 19  1  0
 17 15  1  0
 18 12  1  0
 17 18  1  6
 19 21  1  0
 20 19  2  0
M  END
$$$$
