GKT.pdb
     RDKit          3D

 21 20  0  0  1  0  0  0  0  0999 V2000
    3.9301  -19.6611   22.3227 N   0  0  0  0  0  0  0  0  0  0  0  0
    4.0160  -18.2555   22.6563 C   0  0  0  0  0  0  0  0  0  0  0  0
    5.2265  -17.6242   22.1073 C   0  0  0  0  0  0  0  0  0  0  0  0
    6.1637  -18.3574   21.7289 O   0  0  0  0  0  0  0  0  0  0  0  0
    5.3667  -16.2342   21.9935 N   0  0  0  0  0  0  0  0  0  0  0  0
    6.5656  -15.5272   21.6585 C   0  0  1  0  0  0  0  0  0  0  0  0
    6.3364  -14.1586   21.0818 C   0  0  0  0  0  0  0  0  0  0  0  0
    7.5528  -13.5119   20.5070 C   0  0  0  0  0  0  0  0  0  0  0  0
    7.7853  -13.7594   19.0649 C   0  0  0  0  0  0  0  0  0  0  0  0
    8.9924  -13.1500   18.4518 C   0  0  0  0  0  0  0  0  0  0  0  0
    9.2223  -13.4247   17.0751 N   0  0  0  0  0  0  0  0  0  0  0  0
    7.4393  -15.3290   22.8682 C   0  0  0  0  0  0  0  0  0  0  0  0
    6.9351  -14.9036   23.9370 O   0  0  0  0  0  0  0  0  0  0  0  0
    7.7087  -16.0272   25.5648 C   0  0  0  0  0  0  0  0  0  0  0  0
    9.0777  -16.4854   25.1305 C   0  0  1  0  0  0  0  0  0  0  0  0
    8.9374  -17.7691   24.6000 O   0  0  0  0  0  0  0  0  0  0  0  0
    9.6507  -15.6051   24.0402 C   0  0  2  0  0  0  0  0  0  0  0  0
    8.8352  -15.6069   22.8547 N   0  0  0  0  0  0  0  0  0  0  0  0
   11.0254  -16.0089   23.6735 C   0  0  0  0  0  0  0  0  0  0  0  0
   11.2140  -16.6043   22.5871 O   0  0  0  0  0  0  0  0  0  0  0  0
   12.1238  -15.7608   24.4756 O   0  0  0  0  0  0  0  0  0  0  0  0
  2  1  1  0
  3  4  2  0
  3  2  1  0
  5  3  1  0
  6  5  1  0
  6 12  1  0
  6  7  1  1
  8  7  1  0
  9 10  1  0
  9  8  1  0
 10 11  1  0
 12 13  2  0
 15 14  1  6
 15 16  1  0
 17 19  1  0
 17 15  1  0
 18 12  1  0
 17 18  1  6
 19 21  1  0
 20 19  2  0
M  END
$$$$
