GKT.pdb
     RDKit          3D

 21 20  0  0  1  0  0  0  0  0999 V2000
    8.7528  -16.0518   18.7970 N   0  0  0  0  0  0  0  0  0  0  0  0
    9.4917  -16.3923   19.9939 C   0  0  0  0  0  0  0  0  0  0  0  0
    8.6533  -16.3386   21.2020 C   0  0  0  0  0  0  0  0  0  0  0  0
    7.5875  -15.6894   21.1614 O   0  0  0  0  0  0  0  0  0  0  0  0
    9.0053  -16.9874   22.3936 N   0  0  0  0  0  0  0  0  0  0  0  0
    8.2455  -17.0040   23.6068 C   0  0  1  0  0  0  0  0  0  0  0  0
    8.5451  -18.1679   24.5088 C   0  0  0  0  0  0  0  0  0  0  0  0
    7.7248  -18.2189   25.7549 C   0  0  0  0  0  0  0  0  0  0  0  0
    8.0326  -19.3381   26.6756 C   0  0  0  0  0  0  0  0  0  0  0  0
    7.1688  -19.4972   27.8726 C   0  0  0  0  0  0  0  0  0  0  0  0
    7.5049  -20.5459   28.7730 N   0  0  0  0  0  0  0  0  0  0  0  0
    8.4964  -15.7662   24.4258 C   0  0  0  0  0  0  0  0  0  0  0  0
    9.6646  -15.3175   24.5333 O   0  0  0  0  0  0  0  0  0  0  0  0
    6.5263  -11.6745   26.4911 C   0  0  0  0  0  0  0  0  0  0  0  0
    6.3293  -13.0249   25.8504 C   0  0  1  0  0  0  0  0  0  0  0  0
    5.8389  -12.8058   24.5618 O   0  0  0  0  0  0  0  0  0  0  0  0
    7.6322  -13.7842   25.7161 C   0  0  2  0  0  0  0  0  0  0  0  0
    7.4512  -15.0696   25.0954 N   0  0  0  0  0  0  0  0  0  0  0  0
    8.2940  -13.9758   27.0247 C   0  0  0  0  0  0  0  0  0  0  0  0
    8.6955  -12.9699   27.6552 O   0  0  0  0  0  0  0  0  0  0  0  0
    8.4945  -15.2196   27.5938 O   0  0  0  0  0  0  0  0  0  0  0  0
  2  1  1  0
  3  4  2  0
  3  2  1  0
  5  3  1  0
  6  5  1  0
  6 12  1  0
  6  7  1  1
  8  7  1  0
  9 10  1  0
  9  8  1  0
 10 11  1  0
 12 13  2  0
 15 14  1  6
 15 16  1  0
 17 19  1  0
 17 15  1  0
 18 12  1  0
 17 18  1  1
 19 21  1  0
 20 19  2  0
M  END
$$$$
