GKT.pdb
     RDKit          3D

 21 20  0  0  1  0  0  0  0  0999 V2000
   11.6993  -20.0312   19.9379 N   0  0  0  0  0  0  0  0  0  0  0  0
   11.3291  -21.0530   20.8936 C   0  0  0  0  0  0  0  0  0  0  0  0
   10.0500  -20.7584   21.5587 C   0  0  0  0  0  0  0  0  0  0  0  0
    9.4674  -19.6881   21.2863 O   0  0  0  0  0  0  0  0  0  0  0  0
    9.4626  -21.6319   22.4843 N   0  0  0  0  0  0  0  0  0  0  0  0
    8.2892  -21.3778   23.2640 C   0  0  1  0  0  0  0  0  0  0  0  0
    7.4822  -22.6040   23.5855 C   0  0  0  0  0  0  0  0  0  0  0  0
    6.2083  -22.3385   24.3170 C   0  0  0  0  0  0  0  0  0  0  0  0
    5.4005  -23.5361   24.6459 C   0  0  0  0  0  0  0  0  0  0  0  0
    4.0411  -23.3137   25.1999 C   0  0  0  0  0  0  0  0  0  0  0  0
    3.2368  -24.4677   25.4121 N   0  0  0  0  0  0  0  0  0  0  0  0
    8.6374  -20.7490   24.5866 C   0  0  0  0  0  0  0  0  0  0  0  0
    9.4960  -21.2906   25.3262 O   0  0  0  0  0  0  0  0  0  0  0  0
    8.6873  -16.6395   25.3265 C   0  0  0  0  0  0  0  0  0  0  0  0
    7.9416  -17.4687   26.3409 C   0  0  1  0  0  0  0  0  0  0  0  0
    6.5867  -17.4109   26.0096 O   0  0  0  0  0  0  0  0  0  0  0  0
    8.3564  -18.9242   26.2987 C   0  0  2  0  0  0  0  0  0  0  0  0
    8.0266  -19.5476   25.0445 N   0  0  0  0  0  0  0  0  0  0  0  0
    7.7405  -19.7032   27.3946 C   0  0  0  0  0  0  0  0  0  0  0  0
    6.8265  -20.5161   27.1225 O   0  0  0  0  0  0  0  0  0  0  0  0
    8.1250  -19.5793   28.7168 O   0  0  0  0  0  0  0  0  0  0  0  0
  2  1  1  0
  3  4  2  0
  3  2  1  0
  5  3  1  0
  6  5  1  0
  6 12  1  0
  6  7  1  1
  8  7  1  0
  9 10  1  0
  9  8  1  0
 10 11  1  0
 12 13  2  0
 15 14  1  6
 15 16  1  0
 17 19  1  0
 17 15  1  0
 18 12  1  0
 17 18  1  6
 19 21  1  0
 20 19  2  0
M  END
$$$$
