LNV.pdb
     RDKit          3D

 24 23  0  0  1  0  0  0  0  0999 V2000
    9.0184  -12.2404   19.0755 C   0  0  0  0  0  0  0  0  0  0  0  0
    8.0376  -13.4187   19.1636 C   0  0  2  0  0  0  0  0  0  0  0  0
    6.7543  -12.8596   19.6784 C   0  0  0  0  0  0  0  0  0  0  0  0
    8.6941  -14.4563   20.0009 C   0  0  0  0  0  0  0  0  0  0  0  0
    7.9641  -15.7168   20.2426 C   0  0  2  0  0  0  0  0  0  0  0  0
    6.5703  -15.5966   20.5326 N   0  0  0  0  0  0  0  0  0  0  0  0
    8.6097  -16.4419   21.3717 C   0  0  0  0  0  0  0  0  0  0  0  0
    8.8398  -17.6681   21.3080 O   0  0  0  0  0  0  0  0  0  0  0  0
   11.3562  -19.2726   24.7133 N   0  0  0  0  0  0  0  0  0  0  0  0
   11.5565  -17.9143   24.3691 C   0  0  0  0  0  0  0  0  0  0  0  0
   12.3847  -17.2641   25.0419 O   0  0  0  0  0  0  0  0  0  0  0  0
   10.8244  -17.2982   23.2733 C   0  0  0  0  0  0  0  0  0  0  0  0
    9.6533  -16.4690   23.6788 C   0  0  2  0  0  0  0  0  0  0  0  0
    9.0075  -15.7953   22.5933 N   0  0  0  0  0  0  0  0  0  0  0  0
    9.9287  -15.5714   24.8332 C   0  0  0  0  0  0  0  0  0  0  0  0
   10.8098  -14.6968   24.6690 O   0  0  0  0  0  0  0  0  0  0  0  0
    7.8353  -12.7597   27.9733 C   0  0  0  0  0  0  0  0  0  0  0  0
    7.8382  -13.8932   26.9635 C   0  0  1  0  0  0  0  0  0  0  0  0
    7.5429  -13.2853   25.6219 C   0  0  0  0  0  0  0  0  0  0  0  0
    9.1755  -14.5826   27.0356 C   0  0  2  0  0  0  0  0  0  0  0  0
    9.2644  -15.6644   26.0523 N   0  0  0  0  0  0  0  0  0  0  0  0
    9.4363  -15.0560   28.3950 C   0  0  0  0  0  0  0  0  0  0  0  0
    9.5665  -16.3971   28.7080 O   0  0  0  0  0  0  0  0  0  0  0  0
    9.5483  -14.2320   29.3292 O   0  0  0  0  0  0  0  0  0  0  0  0
  2  1  1  1
  2  3  1  0
  4  2  1  0
  4  5  1  0
  5  7  1  0
  5  6  1  1
  7  8  2  0
  9 10  1  0
 10 11  2  0
 13 12  1  6
 12 10  1  0
 14 13  1  0
 14  7  1  0
 15 13  1  0
 16 15  2  0
 18 17  1  1
 19 18  1  0
 20 18  1  0
 20 21  1  6
 21 15  1  0
 22 23  1  0
 22 20  1  0
 24 22  2  0
M  END
$$$$
