LNV.pdb
     RDKit          3D

 24 23  0  0  1  0  0  0  0  0999 V2000
    8.2801  -11.7964   19.7474 C   0  0  0  0  0  0  0  0  0  0  0  0
    8.1829  -13.3082   19.4960 C   0  0  2  0  0  0  0  0  0  0  0  0
    7.2767  -13.4818   18.3241 C   0  0  0  0  0  0  0  0  0  0  0  0
    7.7417  -13.9241   20.7745 C   0  0  0  0  0  0  0  0  0  0  0  0
    8.2022  -15.2933   21.0802 C   0  0  2  0  0  0  0  0  0  0  0  0
    7.6612  -16.3394   20.2714 N   0  0  0  0  0  0  0  0  0  0  0  0
    7.8917  -15.6026   22.5033 C   0  0  0  0  0  0  0  0  0  0  0  0
    7.2956  -14.7803   23.2306 O   0  0  0  0  0  0  0  0  0  0  0  0
    5.4762  -18.4604   23.6679 N   0  0  0  0  0  0  0  0  0  0  0  0
    6.6687  -19.1661   23.9572 C   0  0  0  0  0  0  0  0  0  0  0  0
    6.7924  -20.3128   23.4762 O   0  0  0  0  0  0  0  0  0  0  0  0
    7.7110  -18.5784   24.7845 C   0  0  0  0  0  0  0  0  0  0  0  0
    8.0053  -17.1425   24.5104 C   0  0  2  0  0  0  0  0  0  0  0  0
    8.2487  -16.8465   23.1311 N   0  0  0  0  0  0  0  0  0  0  0  0
    9.0330  -16.5606   25.4156 C   0  0  0  0  0  0  0  0  0  0  0  0
   10.2303  -16.7929   25.1316 O   0  0  0  0  0  0  0  0  0  0  0  0
   10.3759  -13.4365   28.9602 C   0  0  0  0  0  0  0  0  0  0  0  0
    9.2807  -13.9399   28.0372 C   0  0  1  0  0  0  0  0  0  0  0  0
    9.0774  -12.8879   26.9843 C   0  0  0  0  0  0  0  0  0  0  0  0
    9.7082  -15.2748   27.4860 C   0  0  2  0  0  0  0  0  0  0  0  0
    8.7233  -15.7913   26.5330 N   0  0  0  0  0  0  0  0  0  0  0  0
    9.9664  -16.2199   28.5724 C   0  0  0  0  0  0  0  0  0  0  0  0
    9.1761  -17.3322   28.7998 O   0  0  0  0  0  0  0  0  0  0  0  0
   10.9352  -16.0337   29.3410 O   0  0  0  0  0  0  0  0  0  0  0  0
  2  1  1  1
  2  3  1  0
  4  2  1  0
  4  5  1  0
  5  7  1  0
  5  6  1  6
  7  8  2  0
  9 10  1  0
 10 11  2  0
 13 12  1  6
 12 10  1  0
 14 13  1  0
 14  7  1  0
 15 13  1  0
 16 15  2  0
 18 17  1  1
 19 18  1  0
 20 18  1  0
 20 21  1  6
 21 15  1  0
 22 23  1  0
 22 20  1  0
 24 22  2  0
M  END
$$$$
