LNV.pdb
     RDKit          3D

 24 23  0  0  1  0  0  0  0  0999 V2000
    9.6552  -13.5965   19.7476 C   0  0  0  0  0  0  0  0  0  0  0  0
    8.3934  -13.5847   18.8725 C   0  0  2  0  0  0  0  0  0  0  0  0
    8.0275  -12.1515   18.6821 C   0  0  0  0  0  0  0  0  0  0  0  0
    7.3917  -14.4410   19.5597 C   0  0  0  0  0  0  0  0  0  0  0  0
    7.7844  -15.8193   19.9150 C   0  0  2  0  0  0  0  0  0  0  0  0
    7.3083  -16.8558   19.0547 N   0  0  0  0  0  0  0  0  0  0  0  0
    7.3165  -16.1154   21.2973 C   0  0  0  0  0  0  0  0  0  0  0  0
    6.1013  -16.2428   21.5573 O   0  0  0  0  0  0  0  0  0  0  0  0
    6.3820  -18.6937   25.9004 N   0  0  0  0  0  0  0  0  0  0  0  0
    7.6897  -18.2836   25.5463 C   0  0  0  0  0  0  0  0  0  0  0  0
    8.5342  -18.1920   26.4627 O   0  0  0  0  0  0  0  0  0  0  0  0
    8.0371  -17.9791   24.1669 C   0  0  0  0  0  0  0  0  0  0  0  0
    7.7835  -16.5718   23.7440 C   0  0  2  0  0  0  0  0  0  0  0  0
    8.2125  -16.2733   22.4112 N   0  0  0  0  0  0  0  0  0  0  0  0
    8.2362  -15.5596   24.7363 C   0  0  0  0  0  0  0  0  0  0  0  0
    9.4332  -15.1984   24.6664 O   0  0  0  0  0  0  0  0  0  0  0  0
    7.0400  -12.0424   27.9885 C   0  0  0  0  0  0  0  0  0  0  0  0
    6.5696  -13.2093   27.1390 C   0  0  1  0  0  0  0  0  0  0  0  0
    5.6929  -12.6402   26.0601 C   0  0  0  0  0  0  0  0  0  0  0  0
    7.7850  -13.9291   26.6160 C   0  0  2  0  0  0  0  0  0  0  0  0
    7.4049  -15.0157   25.7106 N   0  0  0  0  0  0  0  0  0  0  0  0
    8.6160  -14.4041   27.7223 C   0  0  0  0  0  0  0  0  0  0  0  0
    9.5796  -13.6162   28.3258 O   0  0  0  0  0  0  0  0  0  0  0  0
    8.4677  -15.5678   28.1559 O   0  0  0  0  0  0  0  0  0  0  0  0
  2  1  1  1
  2  3  1  0
  4  2  1  0
  4  5  1  0
  5  7  1  0
  5  6  1  6
  7  8  2  0
  9 10  1  0
 10 11  2  0
 13 12  1  1
 12 10  1  0
 14 13  1  0
 14  7  1  0
 15 13  1  0
 16 15  2  0
 18 17  1  1
 19 18  1  0
 20 18  1  0
 20 21  1  1
 21 15  1  0
 22 23  1  0
 22 20  1  0
 24 22  2  0
M  END
$$$$
