LNV.pdb
     RDKit          3D

 24 23  0  0  1  0  0  0  0  0999 V2000
    9.6561  -13.0103   19.6428 C   0  0  0  0  0  0  0  0  0  0  0  0
    8.1599  -13.1875   19.3463 C   0  0  2  0  0  0  0  0  0  0  0  0
    7.5309  -11.8498   19.5447 C   0  0  0  0  0  0  0  0  0  0  0  0
    7.6795  -14.2851   20.2258 C   0  0  0  0  0  0  0  0  0  0  0  0
    8.4477  -15.5459   20.2441 C   0  0  2  0  0  0  0  0  0  0  0  0
    7.9647  -16.5948   19.4029 N   0  0  0  0  0  0  0  0  0  0  0  0
    8.5001  -16.0611   21.6403 C   0  0  0  0  0  0  0  0  0  0  0  0
    7.4585  -16.2298   22.3089 O   0  0  0  0  0  0  0  0  0  0  0  0
   11.5889  -19.5361   22.0715 N   0  0  0  0  0  0  0  0  0  0  0  0
   10.6133  -19.1467   23.0203 C   0  0  0  0  0  0  0  0  0  0  0  0
    9.5850  -19.8505   23.1135 O   0  0  0  0  0  0  0  0  0  0  0  0
   10.8006  -17.9701   23.8551 C   0  0  0  0  0  0  0  0  0  0  0  0
    9.8021  -16.8815   23.6514 C   0  0  2  0  0  0  0  0  0  0  0  0
    9.7301  -16.3955   22.3068 N   0  0  0  0  0  0  0  0  0  0  0  0
    9.8981  -15.7880   24.6560 C   0  0  0  0  0  0  0  0  0  0  0  0
   10.9248  -15.0723   24.6131 O   0  0  0  0  0  0  0  0  0  0  0  0
    7.7195  -12.6431   27.6915 C   0  0  0  0  0  0  0  0  0  0  0  0
    7.5821  -13.8860   26.8307 C   0  0  1  0  0  0  0  0  0  0  0  0
    6.8552  -13.4755   25.5818 C   0  0  0  0  0  0  0  0  0  0  0  0
    8.9611  -14.4359   26.5767 C   0  0  2  0  0  0  0  0  0  0  0  0
    8.9197  -15.5382   25.6133 N   0  0  0  0  0  0  0  0  0  0  0  0
    9.5956  -14.8315   27.8341 C   0  0  0  0  0  0  0  0  0  0  0  0
   10.2668  -13.9363   28.6474 O   0  0  0  0  0  0  0  0  0  0  0  0
    9.5431  -16.0237   28.2085 O   0  0  0  0  0  0  0  0  0  0  0  0
  2  1  1  1
  2  3  1  0
  4  2  1  0
  4  5  1  0
  5  7  1  0
  5  6  1  6
  7  8  2  0
  9 10  1  0
 10 11  2  0
 13 12  1  6
 12 10  1  0
 14 13  1  0
 14  7  1  0
 15 13  1  0
 16 15  2  0
 18 17  1  1
 19 18  1  0
 20 18  1  0
 20 21  1  6
 21 15  1  0
 22 23  1  0
 22 20  1  0
 24 22  2  0
M  END
$$$$
