LNV.pdb
     RDKit          3D

 24 23  0  0  1  0  0  0  0  0999 V2000
    9.8040  -13.1397   19.6882 C   0  0  0  0  0  0  0  0  0  0  0  0
    8.5964  -13.3016   18.7536 C   0  0  2  0  0  0  0  0  0  0  0  0
    8.0445  -11.9327   18.5390 C   0  0  0  0  0  0  0  0  0  0  0  0
    7.6914  -14.2901   19.3960 C   0  0  0  0  0  0  0  0  0  0  0  0
    8.2678  -15.5781   19.8308 C   0  0  2  0  0  0  0  0  0  0  0  0
    8.1514  -16.6667   18.9130 N   0  0  0  0  0  0  0  0  0  0  0  0
    7.6306  -15.9856   21.1136 C   0  0  0  0  0  0  0  0  0  0  0  0
    6.5827  -16.6655   21.1299 O   0  0  0  0  0  0  0  0  0  0  0  0
    7.6153  -19.1226   25.7032 N   0  0  0  0  0  0  0  0  0  0  0  0
    6.9789  -18.0590   25.0195 C   0  0  0  0  0  0  0  0  0  0  0  0
    5.9645  -17.5569   25.5489 O   0  0  0  0  0  0  0  0  0  0  0  0
    7.4866  -17.5696   23.7471 C   0  0  0  0  0  0  0  0  0  0  0  0
    7.6190  -16.0879   23.6438 C   0  0  2  0  0  0  0  0  0  0  0  0
    8.1654  -15.6329   22.4013 N   0  0  0  0  0  0  0  0  0  0  0  0
    8.2735  -15.4634   24.8252 C   0  0  0  0  0  0  0  0  0  0  0  0
    9.5018  -15.6657   24.9611 O   0  0  0  0  0  0  0  0  0  0  0  0
    7.1283  -11.8270   25.7650 C   0  0  0  0  0  0  0  0  0  0  0  0
    7.3500  -12.6155   27.0431 C   0  0  1  0  0  0  0  0  0  0  0  0
    5.9936  -13.0032   27.5594 C   0  0  0  0  0  0  0  0  0  0  0  0
    8.2352  -13.7910   26.7218 C   0  0  2  0  0  0  0  0  0  0  0  0
    7.5926  -14.6866   25.7575 N   0  0  0  0  0  0  0  0  0  0  0  0
    8.6221  -14.4920   27.9462 C   0  0  0  0  0  0  0  0  0  0  0  0
    9.4869  -13.9475   28.8785 O   0  0  0  0  0  0  0  0  0  0  0  0
    8.1657  -15.6328   28.1799 O   0  0  0  0  0  0  0  0  0  0  0  0
  2  1  1  1
  2  3  1  0
  4  2  1  0
  4  5  1  0
  5  7  1  0
  5  6  1  6
  7  8  2  0
  9 10  1  0
 10 11  2  0
 13 12  1  1
 12 10  1  0
 14 13  1  0
 14  7  1  0
 15 13  1  0
 16 15  2  0
 18 17  1  6
 19 18  1  0
 20 18  1  0
 20 21  1  6
 21 15  1  0
 22 23  1  0
 22 20  1  0
 24 22  2  0
M  END
$$$$
