LNV.pdb
     RDKit          3D

 24 23  0  0  1  0  0  0  0  0999 V2000
    8.4124  -13.6972   17.7271 C   0  0  0  0  0  0  0  0  0  0  0  0
    8.7319  -15.0868   18.2971 C   0  0  2  0  0  0  0  0  0  0  0  0
    9.5366  -15.7923   17.2582 C   0  0  0  0  0  0  0  0  0  0  0  0
    7.4311  -15.7051   18.6638 C   0  0  0  0  0  0  0  0  0  0  0  0
    6.5180  -14.9360   19.5327 C   0  0  2  0  0  0  0  0  0  0  0  0
    6.8882  -13.5825   19.8010 N   0  0  0  0  0  0  0  0  0  0  0  0
    6.3785  -15.6434   20.8357 C   0  0  0  0  0  0  0  0  0  0  0  0
    5.6722  -16.6678   20.9451 O   0  0  0  0  0  0  0  0  0  0  0  0
    7.9668  -19.1826   24.7285 N   0  0  0  0  0  0  0  0  0  0  0  0
    7.1220  -18.0771   24.4685 C   0  0  0  0  0  0  0  0  0  0  0  0
    6.3206  -17.7391   25.3656 O   0  0  0  0  0  0  0  0  0  0  0  0
    7.1840  -17.3617   23.2034 C   0  0  0  0  0  0  0  0  0  0  0  0
    6.9423  -15.8929   23.2918 C   0  0  2  0  0  0  0  0  0  0  0  0
    7.0346  -15.2067   22.0388 N   0  0  0  0  0  0  0  0  0  0  0  0
    7.7150  -15.2250   24.3739 C   0  0  0  0  0  0  0  0  0  0  0  0
    8.9411  -15.0661   24.1748 O   0  0  0  0  0  0  0  0  0  0  0  0
    7.3760  -11.8532   27.9152 C   0  0  0  0  0  0  0  0  0  0  0  0
    6.6895  -12.8567   27.0062 C   0  0  1  0  0  0  0  0  0  0  0  0
    5.9611  -12.0687   25.9549 C   0  0  0  0  0  0  0  0  0  0  0  0
    7.7399  -13.7824   26.4508 C   0  0  2  0  0  0  0  0  0  0  0  0
    7.1441  -14.7838   25.5637 N   0  0  0  0  0  0  0  0  0  0  0  0
    8.5062  -14.3980   27.5344 C   0  0  0  0  0  0  0  0  0  0  0  0
    9.5430  -13.7486   28.1800 O   0  0  0  0  0  0  0  0  0  0  0  0
    8.2314  -15.5595   27.9080 O   0  0  0  0  0  0  0  0  0  0  0  0
  2  1  1  6
  2  3  1  0
  4  2  1  0
  4  5  1  0
  5  7  1  0
  5  6  1  1
  7  8  2  0
  9 10  1  0
 10 11  2  0
 13 12  1  6
 12 10  1  0
 14 13  1  0
 14  7  1  0
 15 13  1  0
 16 15  2  0
 18 17  1  1
 19 18  1  0
 20 18  1  0
 20 21  1  1
 21 15  1  0
 22 23  1  0
 22 20  1  0
 24 22  2  0
M  END
$$$$
