LNV.pdb
     RDKit          3D

 24 23  0  0  1  0  0  0  0  0999 V2000
    9.3767  -13.1104   19.1624 C   0  0  0  0  0  0  0  0  0  0  0  0
    7.9930  -13.4037   19.7602 C   0  0  2  0  0  0  0  0  0  0  0  0
    7.3641  -12.0792   20.0337 C   0  0  0  0  0  0  0  0  0  0  0  0
    8.2157  -14.2889   20.9331 C   0  0  0  0  0  0  0  0  0  0  0  0
    8.7805  -15.6316   20.6915 C   0  0  2  0  0  0  0  0  0  0  0  0
    8.0040  -16.5080   19.8729 N   0  0  0  0  0  0  0  0  0  0  0  0
    9.0087  -16.3039   22.0004 C   0  0  0  0  0  0  0  0  0  0  0  0
    8.0564  -16.7466   22.6769 O   0  0  0  0  0  0  0  0  0  0  0  0
   11.9899  -19.4367   21.6431 N   0  0  0  0  0  0  0  0  0  0  0  0
   11.3029  -19.3007   22.8732 C   0  0  0  0  0  0  0  0  0  0  0  0
   10.4391  -20.1600   23.1503 O   0  0  0  0  0  0  0  0  0  0  0  0
   11.5913  -18.2008   23.7805 C   0  0  0  0  0  0  0  0  0  0  0  0
   10.5565  -17.1282   23.8274 C   0  0  2  0  0  0  0  0  0  0  0  0
   10.3168  -16.4888   22.5691 N   0  0  0  0  0  0  0  0  0  0  0  0
   10.7515  -16.1588   24.9393 C   0  0  0  0  0  0  0  0  0  0  0  0
   11.8200  -15.5058   24.9364 O   0  0  0  0  0  0  0  0  0  0  0  0
    9.1557  -13.2041   28.4258 C   0  0  0  0  0  0  0  0  0  0  0  0
    8.8073  -14.2209   27.3537 C   0  0  1  0  0  0  0  0  0  0  0  0
    8.3548  -13.4480   26.1477 C   0  0  0  0  0  0  0  0  0  0  0  0
   10.0221  -15.0760   27.1051 C   0  0  2  0  0  0  0  0  0  0  0  0
    9.8197  -15.9568   25.9527 N   0  0  0  0  0  0  0  0  0  0  0  0
   10.3780  -15.8248   28.3105 C   0  0  0  0  0  0  0  0  0  0  0  0
   11.1616  -15.2917   29.3181 O   0  0  0  0  0  0  0  0  0  0  0  0
    9.9697  -16.9978   28.4566 O   0  0  0  0  0  0  0  0  0  0  0  0
  2  1  1  1
  2  3  1  0
  4  2  1  0
  4  5  1  0
  5  7  1  0
  5  6  1  6
  7  8  2  0
  9 10  1  0
 10 11  2  0
 13 12  1  6
 12 10  1  0
 14 13  1  0
 14  7  1  0
 15 13  1  0
 16 15  2  0
 18 17  1  1
 19 18  1  0
 20 18  1  0
 20 21  1  6
 21 15  1  0
 22 23  1  0
 22 20  1  0
 24 22  2  0
M  END
$$$$
