LNV.pdb
     RDKit          3D

 24 23  0  0  1  0  0  0  0  0999 V2000
    9.3112  -13.6536   19.8402 C   0  0  0  0  0  0  0  0  0  0  0  0
    7.8097  -13.4286   19.6098 C   0  0  2  0  0  0  0  0  0  0  0  0
    7.6027  -11.9516   19.6008 C   0  0  0  0  0  0  0  0  0  0  0  0
    7.0983  -14.1932   20.6671 C   0  0  0  0  0  0  0  0  0  0  0  0
    7.3320  -15.6490   20.7467 C   0  0  2  0  0  0  0  0  0  0  0  0
    6.4909  -16.4713   19.9358 N   0  0  0  0  0  0  0  0  0  0  0  0
    7.1806  -16.0875   22.1617 C   0  0  0  0  0  0  0  0  0  0  0  0
    6.1064  -15.9273   22.7789 O   0  0  0  0  0  0  0  0  0  0  0  0
    7.6248  -20.3643   23.0726 N   0  0  0  0  0  0  0  0  0  0  0  0
    7.3317  -19.3995   24.0661 C   0  0  0  0  0  0  0  0  0  0  0  0
    6.1565  -19.3422   24.4868 O   0  0  0  0  0  0  0  0  0  0  0  0
    8.3606  -18.5073   24.5776 C   0  0  0  0  0  0  0  0  0  0  0  0
    8.1452  -17.0597   24.2917 C   0  0  2  0  0  0  0  0  0  0  0  0
    8.2397  -16.7151   22.9054 N   0  0  0  0  0  0  0  0  0  0  0  0
    8.9379  -16.1541   25.1668 C   0  0  0  0  0  0  0  0  0  0  0  0
   10.1644  -16.0714   24.9280 O   0  0  0  0  0  0  0  0  0  0  0  0
    9.0466  -12.4362   28.4004 C   0  0  0  0  0  0  0  0  0  0  0  0
    8.2019  -13.5011   27.7244 C   0  0  1  0  0  0  0  0  0  0  0  0
    7.2793  -12.7910   26.7751 C   0  0  0  0  0  0  0  0  0  0  0  0
    9.1294  -14.4786   27.0513 C   0  0  2  0  0  0  0  0  0  0  0  0
    8.3847  -15.4179   26.2099 N   0  0  0  0  0  0  0  0  0  0  0  0
    9.9556  -15.1680   28.0424 C   0  0  0  0  0  0  0  0  0  0  0  0
    9.8237  -16.5172   28.3178 O   0  0  0  0  0  0  0  0  0  0  0  0
   10.8223  -14.5310   28.6804 O   0  0  0  0  0  0  0  0  0  0  0  0
  2  1  1  1
  2  3  1  0
  4  2  1  0
  4  5  1  0
  5  7  1  0
  5  6  1  6
  7  8  2  0
  9 10  1  0
 10 11  2  0
 13 12  1  6
 12 10  1  0
 14 13  1  0
 14  7  1  0
 15 13  1  0
 16 15  2  0
 18 17  1  6
 19 18  1  0
 20 18  1  0
 20 21  1  1
 21 15  1  0
 22 23  1  0
 22 20  1  0
 24 22  2  0
M  END
$$$$
