LNV.pdb
     RDKit          3D

 24 23  0  0  1  0  0  0  0  0999 V2000
   10.1312  -13.0024   19.3840 C   0  0  0  0  0  0  0  0  0  0  0  0
    8.7365  -13.1583   18.7606 C   0  0  2  0  0  0  0  0  0  0  0  0
    8.0927  -11.8147   18.8297 C   0  0  0  0  0  0  0  0  0  0  0  0
    8.0616  -14.2576   19.4987 C   0  0  0  0  0  0  0  0  0  0  0  0
    8.7791  -15.5403   19.6411 C   0  0  2  0  0  0  0  0  0  0  0  0
    8.4991  -16.5361   18.6556 N   0  0  0  0  0  0  0  0  0  0  0  0
    8.4774  -16.1182   20.9800 C   0  0  0  0  0  0  0  0  0  0  0  0
    7.3604  -16.6163   21.2346 O   0  0  0  0  0  0  0  0  0  0  0  0
   10.6020  -19.1018   25.7533 N   0  0  0  0  0  0  0  0  0  0  0  0
    9.5792  -18.5378   24.9537 C   0  0  0  0  0  0  0  0  0  0  0  0
    8.4140  -18.5622   25.4044 O   0  0  0  0  0  0  0  0  0  0  0  0
    9.8737  -17.9526   23.6549 C   0  0  0  0  0  0  0  0  0  0  0  0
    9.1560  -16.6806   23.3540 C   0  0  2  0  0  0  0  0  0  0  0  0
    9.4318  -16.1443   22.0556 N   0  0  0  0  0  0  0  0  0  0  0  0
    9.2664  -15.6631   24.4341 C   0  0  0  0  0  0  0  0  0  0  0  0
   10.3897  -15.1343   24.5970 O   0  0  0  0  0  0  0  0  0  0  0  0
    7.1437  -12.5499   27.6026 C   0  0  0  0  0  0  0  0  0  0  0  0
    6.9664  -13.5964   26.5172 C   0  0  1  0  0  0  0  0  0  0  0  0
    6.4800  -12.8775   25.2911 C   0  0  0  0  0  0  0  0  0  0  0  0
    8.2838  -14.3007   26.3245 C   0  0  2  0  0  0  0  0  0  0  0  0
    8.2006  -15.2884   25.2463 N   0  0  0  0  0  0  0  0  0  0  0  0
    8.7346  -14.8989   27.5811 C   0  0  0  0  0  0  0  0  0  0  0  0
    9.6064  -14.2591   28.4437 O   0  0  0  0  0  0  0  0  0  0  0  0
    8.3295  -16.0358   27.9087 O   0  0  0  0  0  0  0  0  0  0  0  0
  2  1  1  1
  2  3  1  0
  4  2  1  0
  4  5  1  0
  5  7  1  0
  5  6  1  6
  7  8  2  0
  9 10  1  0
 10 11  2  0
 13 12  1  1
 12 10  1  0
 14 13  1  0
 14  7  1  0
 15 13  1  0
 16 15  2  0
 18 17  1  1
 19 18  1  0
 20 18  1  0
 20 21  1  6
 21 15  1  0
 22 23  1  0
 22 20  1  0
 24 22  2  0
M  END
$$$$
