MSI.pdb
     RDKit          3D

 23 22  0  0  1  0  0  0  0  0999 V2000
   17.7767  -12.7761  -20.6856 C   0  0  0  0  0  0  0  0  0  0  0  0
   19.1602  -13.3558  -21.7067 S   0  0  0  0  0  0  0  0  0  0  0  0
   20.3786  -14.1530  -20.6191 C   0  0  0  0  0  0  0  0  0  0  0  0
   20.1997  -13.5946  -19.2419 C   0  0  0  0  0  0  0  0  0  0  0  0
   21.1761  -14.2555  -18.2711 C   0  0  2  0  0  0  0  0  0  0  0  0
   20.6280  -15.5170  -17.8860 N   0  0  0  0  0  0  0  0  0  0  0  0
   21.3207  -13.3120  -17.1300 C   0  0  0  0  0  0  0  0  0  0  0  0
   20.2932  -13.0626  -16.4532 O   0  0  0  0  0  0  0  0  0  0  0  0
   24.9429  -11.0999  -16.3552 O   0  0  0  0  0  0  0  0  0  0  0  0
   24.0781  -11.4177  -15.3417 C   0  0  0  0  0  0  0  0  0  0  0  0
   22.6530  -11.6338  -15.7892 C   0  0  2  0  0  0  0  0  0  0  0  0
   22.5347  -12.6859  -16.7667 N   0  0  0  0  0  0  0  0  0  0  0  0
   22.1286  -10.3429  -16.2688 C   0  0  0  0  0  0  0  0  0  0  0  0
   21.9367  -10.1386  -17.4903 O   0  0  0  0  0  0  0  0  0  0  0  0
   18.2349   -7.2349  -17.8149 C   0  0  0  0  0  0  0  0  0  0  0  0
   19.4292   -6.9412  -16.9405 C   0  0  0  0  0  0  0  0  0  0  0  0
   20.0563   -8.2160  -16.4819 C   0  0  2  0  0  0  0  0  0  0  0  0
   19.0933   -9.0494  -15.6419 C   0  0  0  0  0  0  0  0  0  0  0  0
   21.3628   -8.0064  -15.7228 C   0  0  2  0  0  0  0  0  0  0  0  0
   21.8428   -9.3285  -15.3155 N   0  0  0  0  0  0  0  0  0  0  0  0
   21.1887   -7.1280  -14.5398 C   0  0  0  0  0  0  0  0  0  0  0  0
   21.1600   -7.6315  -13.2519 O   0  0  0  0  0  0  0  0  0  0  0  0
   21.0600   -5.8823  -14.6691 O   0  0  0  0  0  0  0  0  0  0  0  0
  2  1  1  0
  2  3  1  0
  4  5  1  0
  4  3  1  0
  5  6  1  1
  7  5  1  0
  7  8  2  0
  9 10  1  0
 11 10  1  6
 11 13  1  0
 11 12  1  0
 12  7  1  0
 13 20  1  0
 14 13  2  0
 16 15  1  0
 17 18  1  1
 17 16  1  0
 19 17  1  0
 19 20  1  1
 21 22  1  0
 21 19  1  0
 23 21  2  0
M  END
$$$$
