MSI.pdb
     RDKit          3D

 23 22  0  0  1  0  0  0  0  0999 V2000
   27.6513  -19.2534   -6.7889 C   0  0  0  0  0  0  0  0  0  0  0  0
   26.4814  -19.1226   -8.1698 S   0  0  0  0  0  0  0  0  0  0  0  0
   26.6375  -20.6153   -9.1946 C   0  0  0  0  0  0  0  0  0  0  0  0
   25.7849  -20.4288  -10.4107 C   0  0  0  0  0  0  0  0  0  0  0  0
   25.8544  -21.6674  -11.3017 C   0  0  2  0  0  0  0  0  0  0  0  0
   27.1692  -21.7385  -11.8550 N   0  0  0  0  0  0  0  0  0  0  0  0
   24.7982  -21.4889  -12.3340 C   0  0  0  0  0  0  0  0  0  0  0  0
   25.0819  -20.7860  -13.3348 O   0  0  0  0  0  0  0  0  0  0  0  0
   20.5091  -23.0637  -14.1256 O   0  0  0  0  0  0  0  0  0  0  0  0
   21.3652  -22.9419  -13.0635 C   0  0  0  0  0  0  0  0  0  0  0  0
   22.5225  -22.0039  -13.3060 C   0  0  2  0  0  0  0  0  0  0  0  0
   23.5070  -22.0584  -12.2553 N   0  0  0  0  0  0  0  0  0  0  0  0
   21.9739  -20.6514  -13.5092 C   0  0  0  0  0  0  0  0  0  0  0  0
   21.7501  -19.8935  -12.5364 O   0  0  0  0  0  0  0  0  0  0  0  0
   23.8115  -17.1267  -16.8673 C   0  0  0  0  0  0  0  0  0  0  0  0
   23.0837  -17.8037  -15.7319 C   0  0  0  0  0  0  0  0  0  0  0  0
   21.7186  -18.2186  -16.1712 C   0  0  2  0  0  0  0  0  0  0  0  0
   20.8922  -17.0280  -16.6480 C   0  0  0  0  0  0  0  0  0  0  0  0
   20.9506  -18.9921  -15.1039 C   0  0  2  0  0  0  0  0  0  0  0  0
   21.7019  -20.2200  -14.8355 N   0  0  0  0  0  0  0  0  0  0  0  0
   19.5659  -19.3110  -15.5306 C   0  0  0  0  0  0  0  0  0  0  0  0
   18.4702  -18.6336  -15.0270 O   0  0  0  0  0  0  0  0  0  0  0  0
   19.3387  -20.2176  -16.3742 O   0  0  0  0  0  0  0  0  0  0  0  0
  2  1  1  0
  2  3  1  0
  4  5  1  0
  4  3  1  0
  5  6  1  6
  7  5  1  0
  7  8  2  0
  9 10  1  0
 11 10  1  1
 11 13  1  0
 11 12  1  0
 12  7  1  0
 13 20  1  0
 14 13  2  0
 16 15  1  0
 17 18  1  1
 17 16  1  0
 19 17  1  0
 19 20  1  6
 21 22  1  0
 21 19  1  0
 23 21  2  0
M  END
$$$$
