MSI.pdb
     RDKit          3D

 23 22  0  0  1  0  0  0  0  0999 V2000
   21.7522  -20.0926  -12.1755 C   0  0  0  0  0  0  0  0  0  0  0  0
   21.5091  -20.4275  -13.9423 S   0  0  0  0  0  0  0  0  0  0  0  0
   21.9756  -22.1538  -14.2663 C   0  0  0  0  0  0  0  0  0  0  0  0
   23.2052  -22.4550  -13.4676 C   0  0  0  0  0  0  0  0  0  0  0  0
   24.4368  -21.8578  -14.1453 C   0  0  2  0  0  0  0  0  0  0  0  0
   24.6634  -22.5761  -15.3588 N   0  0  0  0  0  0  0  0  0  0  0  0
   25.5504  -21.9997  -13.1692 C   0  0  0  0  0  0  0  0  0  0  0  0
   25.7626  -23.1437  -12.6977 O   0  0  0  0  0  0  0  0  0  0  0  0
   27.7609  -18.6860  -12.1645 O   0  0  0  0  0  0  0  0  0  0  0  0
   28.2766  -19.8424  -11.6424 C   0  0  0  0  0  0  0  0  0  0  0  0
   27.3202  -21.0098  -11.6602 C   0  0  2  0  0  0  0  0  0  0  0  0
   26.3755  -20.9332  -12.7456 N   0  0  0  0  0  0  0  0  0  0  0  0
   26.6719  -21.0839  -10.3390 C   0  0  0  0  0  0  0  0  0  0  0  0
   25.4281  -21.1985  -10.2365 O   0  0  0  0  0  0  0  0  0  0  0  0
   28.8214  -20.4419   -4.5418 C   0  0  0  0  0  0  0  0  0  0  0  0
   27.6316  -20.6987   -5.4338 C   0  0  0  0  0  0  0  0  0  0  0  0
   28.0406  -20.6319   -6.8680 C   0  0  2  0  0  0  0  0  0  0  0  0
   28.6514  -19.2786   -7.2190 C   0  0  0  0  0  0  0  0  0  0  0  0
   26.9063  -20.9582   -7.8344 C   0  0  2  0  0  0  0  0  0  0  0  0
   27.4875  -21.0229   -9.1769 N   0  0  0  0  0  0  0  0  0  0  0  0
   25.8202  -19.9486   -7.7848 C   0  0  0  0  0  0  0  0  0  0  0  0
   24.6234  -20.1920   -7.1356 O   0  0  0  0  0  0  0  0  0  0  0  0
   25.9521  -18.8248   -8.3370 O   0  0  0  0  0  0  0  0  0  0  0  0
  2  1  1  0
  2  3  1  0
  4  5  1  0
  4  3  1  0
  5  6  1  6
  7  5  1  0
  7  8  2  0
  9 10  1  0
 11 10  1  1
 11 13  1  0
 11 12  1  0
 12  7  1  0
 13 20  1  0
 14 13  2  0
 16 15  1  0
 17 18  1  6
 17 16  1  0
 19 17  1  0
 19 20  1  6
 21 22  1  0
 21 19  1  0
 23 21  2  0
M  END
$$$$
