MSI.pdb
     RDKit          3D

 23 22  0  0  1  0  0  0  0  0999 V2000
   31.1546  -21.3224  -10.9423 C   0  0  0  0  0  0  0  0  0  0  0  0
   30.3108  -21.1869  -12.5430 S   0  0  0  0  0  0  0  0  0  0  0  0
   29.8656  -19.4451  -12.8089 C   0  0  0  0  0  0  0  0  0  0  0  0
   29.0868  -19.3597  -14.0843 C   0  0  0  0  0  0  0  0  0  0  0  0
   27.8829  -20.2983  -14.0340 C   0  0  2  0  0  0  0  0  0  0  0  0
   27.2388  -20.2570  -15.3081 N   0  0  0  0  0  0  0  0  0  0  0  0
   27.0200  -19.7986  -12.9300 C   0  0  0  0  0  0  0  0  0  0  0  0
   26.8399  -18.5585  -12.8541 O   0  0  0  0  0  0  0  0  0  0  0  0
   23.7013  -21.4905  -11.5775 O   0  0  0  0  0  0  0  0  0  0  0  0
   24.1119  -20.2519  -11.1612 C   0  0  0  0  0  0  0  0  0  0  0  0
   25.5907  -20.1537  -10.8758 C   0  0  2  0  0  0  0  0  0  0  0  0
   26.3972  -20.6294  -11.9711 N   0  0  0  0  0  0  0  0  0  0  0  0
   25.8565  -20.8679   -9.6146 C   0  0  0  0  0  0  0  0  0  0  0  0
   26.2428  -22.0601   -9.6177 O   0  0  0  0  0  0  0  0  0  0  0  0
   28.7378  -18.8372   -5.7772 C   0  0  0  0  0  0  0  0  0  0  0  0
   27.9832  -19.7625   -6.7000 C   0  0  0  0  0  0  0  0  0  0  0  0
   26.6034  -19.9947   -6.1793 C   0  0  2  0  0  0  0  0  0  0  0  0
   26.6221  -20.5851   -4.7727 C   0  0  0  0  0  0  0  0  0  0  0  0
   25.7505  -20.8639   -7.0981 C   0  0  2  0  0  0  0  0  0  0  0  0
   25.6660  -20.1760   -8.3880 N   0  0  0  0  0  0  0  0  0  0  0  0
   24.3947  -21.1018   -6.5445 C   0  0  0  0  0  0  0  0  0  0  0  0
   23.2759  -20.4628   -7.0476 O   0  0  0  0  0  0  0  0  0  0  0  0
   24.2143  -21.9012   -5.5887 O   0  0  0  0  0  0  0  0  0  0  0  0
  2  1  1  0
  2  3  1  0
  4  5  1  0
  4  3  1  0
  5  6  1  6
  7  5  1  0
  7  8  2  0
  9 10  1  0
 11 10  1  6
 11 13  1  0
 11 12  1  0
 12  7  1  0
 13 20  1  0
 14 13  2  0
 16 15  1  0
 17 18  1  1
 17 16  1  0
 19 17  1  0
 19 20  1  6
 21 22  1  0
 21 19  1  0
 23 21  2  0
M  END
$$$$
