MSI.pdb
     RDKit          3D

 23 22  0  0  1  0  0  0  0  0999 V2000
   27.5021  -12.4970  -14.9812 C   0  0  0  0  0  0  0  0  0  0  0  0
   27.3955  -14.0889  -15.8456 S   0  0  0  0  0  0  0  0  0  0  0  0
   25.6407  -14.4742  -16.1197 C   0  0  0  0  0  0  0  0  0  0  0  0
   24.9467  -13.2052  -16.5052 C   0  0  0  0  0  0  0  0  0  0  0  0
   23.4869  -13.4852  -16.8564 C   0  0  2  0  0  0  0  0  0  0  0  0
   23.4640  -14.2763  -18.0454 N   0  0  0  0  0  0  0  0  0  0  0  0
   22.8453  -12.1544  -17.0313 C   0  0  0  0  0  0  0  0  0  0  0  0
   23.3194  -11.3962  -17.9125 O   0  0  0  0  0  0  0  0  0  0  0  0
   19.3529  -10.9304  -14.8492 O   0  0  0  0  0  0  0  0  0  0  0  0
   19.6059  -10.5036  -16.1258 C   0  0  0  0  0  0  0  0  0  0  0  0
   21.0722  -10.4402  -16.4778 C   0  0  2  0  0  0  0  0  0  0  0  0
   21.7445  -11.6978  -16.2713 N   0  0  0  0  0  0  0  0  0  0  0  0
   21.6741   -9.3347  -15.7116 C   0  0  0  0  0  0  0  0  0  0  0  0
   22.3881   -9.5605  -14.7067 O   0  0  0  0  0  0  0  0  0  0  0  0
   24.7314   -4.4635  -16.6249 C   0  0  0  0  0  0  0  0  0  0  0  0
   23.6894   -5.0248  -15.6888 C   0  0  0  0  0  0  0  0  0  0  0  0
   23.0231   -6.2070  -16.3109 C   0  0  2  0  0  0  0  0  0  0  0  0
   22.4062   -5.8616  -17.6629 C   0  0  0  0  0  0  0  0  0  0  0  0
   21.9752   -6.8524  -15.4095 C   0  0  2  0  0  0  0  0  0  0  0  0
   21.4288   -8.0007  -16.1355 N   0  0  0  0  0  0  0  0  0  0  0  0
   20.8936   -5.9060  -15.0412 C   0  0  0  0  0  0  0  0  0  0  0  0
   21.0306   -5.0072  -13.9988 O   0  0  0  0  0  0  0  0  0  0  0  0
   19.8036   -5.8882  -15.6711 O   0  0  0  0  0  0  0  0  0  0  0  0
  2  1  1  0
  2  3  1  0
  4  5  1  0
  4  3  1  0
  5  6  1  6
  7  5  1  0
  7  8  2  0
  9 10  1  0
 11 10  1  1
 11 13  1  0
 11 12  1  0
 12  7  1  0
 13 20  1  0
 14 13  2  0
 16 15  1  0
 17 18  1  6
 17 16  1  0
 19 17  1  0
 19 20  1  6
 21 22  1  0
 21 19  1  0
 23 21  2  0
M  END
$$$$
