MSI.pdb
     RDKit          3D

 23 22  0  0  1  0  0  0  0  0999 V2000
   22.9090  -13.0622  -21.3204 C   0  0  0  0  0  0  0  0  0  0  0  0
   21.1664  -13.2852  -21.7750 S   0  0  0  0  0  0  0  0  0  0  0  0
   20.2836  -13.9647  -20.3392 C   0  0  0  0  0  0  0  0  0  0  0  0
   20.2473  -12.9077  -19.2799 C   0  0  0  0  0  0  0  0  0  0  0  0
   21.1395  -13.3039  -18.1052 C   0  0  2  0  0  0  0  0  0  0  0  0
   20.6751  -14.5576  -17.6028 N   0  0  0  0  0  0  0  0  0  0  0  0
   21.0238  -12.2013  -17.1132 C   0  0  0  0  0  0  0  0  0  0  0  0
   19.8868  -11.9751  -16.6314 O   0  0  0  0  0  0  0  0  0  0  0  0
   24.1718  -10.9536  -14.8943 O   0  0  0  0  0  0  0  0  0  0  0  0
   23.3400   -9.9042  -15.1818 C   0  0  0  0  0  0  0  0  0  0  0  0
   22.0018  -10.3123  -15.7479 C   0  0  2  0  0  0  0  0  0  0  0  0
   22.1078  -11.4015  -16.6853 N   0  0  0  0  0  0  0  0  0  0  0  0
   21.3719   -9.1137  -16.3293 C   0  0  0  0  0  0  0  0  0  0  0  0
   21.4801   -8.8567  -17.5512 O   0  0  0  0  0  0  0  0  0  0  0  0
   16.5386   -8.3116  -16.7604 C   0  0  0  0  0  0  0  0  0  0  0  0
   18.0235   -8.1141  -16.9426 C   0  0  0  0  0  0  0  0  0  0  0  0
   18.5425   -7.1518  -15.9261 C   0  0  2  0  0  0  0  0  0  0  0  0
   17.8746   -5.7856  -16.0484 C   0  0  0  0  0  0  0  0  0  0  0  0
   20.0595   -6.9954  -15.9629 C   0  0  2  0  0  0  0  0  0  0  0  0
   20.6353   -8.2500  -15.4744 N   0  0  0  0  0  0  0  0  0  0  0  0
   20.5250   -5.8526  -15.1390 C   0  0  0  0  0  0  0  0  0  0  0  0
   20.8613   -4.6341  -15.7006 O   0  0  0  0  0  0  0  0  0  0  0  0
   20.6308   -5.9538  -13.8885 O   0  0  0  0  0  0  0  0  0  0  0  0
  2  1  1  0
  2  3  1  0
  4  5  1  0
  4  3  1  0
  5  6  1  1
  7  5  1  0
  7  8  2  0
  9 10  1  0
 11 10  1  6
 11 13  1  0
 11 12  1  0
 12  7  1  0
 13 20  1  0
 14 13  2  0
 16 15  1  0
 17 18  1  6
 17 16  1  0
 19 17  1  0
 19 20  1  1
 21 22  1  0
 21 19  1  0
 23 21  2  0
M  END
$$$$
