MSI.pdb
     RDKit          3D

 23 22  0  0  1  0  0  0  0  0999 V2000
   18.2431  -24.2783  -15.4195 C   0  0  0  0  0  0  0  0  0  0  0  0
   18.0623  -23.7918  -17.1583 S   0  0  0  0  0  0  0  0  0  0  0  0
   19.7169  -23.7190  -17.9065 C   0  0  0  0  0  0  0  0  0  0  0  0
   20.6323  -23.0455  -16.9322 C   0  0  0  0  0  0  0  0  0  0  0  0
   20.5161  -21.5278  -17.0581 C   0  0  2  0  0  0  0  0  0  0  0  0
   20.9440  -21.1607  -18.3704 N   0  0  0  0  0  0  0  0  0  0  0  0
   21.3777  -20.9609  -15.9859 C   0  0  0  0  0  0  0  0  0  0  0  0
   22.6148  -20.9270  -16.1969 O   0  0  0  0  0  0  0  0  0  0  0  0
   20.0465  -19.8756  -11.9967 O   0  0  0  0  0  0  0  0  0  0  0  0
   20.8694  -19.0690  -12.7370 C   0  0  0  0  0  0  0  0  0  0  0  0
   21.6986  -19.8045  -13.7614 C   0  0  2  0  0  0  0  0  0  0  0  0
   20.8905  -20.4632  -14.7561 N   0  0  0  0  0  0  0  0  0  0  0  0
   22.5907  -20.7303  -13.0413 C   0  0  0  0  0  0  0  0  0  0  0  0
   22.2896  -21.9389  -12.9026 O   0  0  0  0  0  0  0  0  0  0  0  0
   27.8341  -20.6034  -13.7868 C   0  0  0  0  0  0  0  0  0  0  0  0
   26.4193  -21.0187  -13.4662 C   0  0  0  0  0  0  0  0  0  0  0  0
   26.1107  -20.7293  -12.0345 C   0  0  2  0  0  0  0  0  0  0  0  0
   27.0696  -21.4510  -11.0925 C   0  0  0  0  0  0  0  0  0  0  0  0
   24.6681  -21.0460  -11.6526 C   0  0  2  0  0  0  0  0  0  0  0  0
   23.8053  -20.2247  -12.5042 N   0  0  0  0  0  0  0  0  0  0  0  0
   24.3957  -20.7752  -10.2195 C   0  0  0  0  0  0  0  0  0  0  0  0
   24.5664  -21.7431   -9.2462 O   0  0  0  0  0  0  0  0  0  0  0  0
   23.9961  -19.6444   -9.8365 O   0  0  0  0  0  0  0  0  0  0  0  0
  2  1  1  0
  2  3  1  0
  4  5  1  0
  4  3  1  0
  5  6  1  6
  7  5  1  0
  7  8  2  0
  9 10  1  0
 11 10  1  1
 11 13  1  0
 11 12  1  0
 12  7  1  0
 13 20  1  0
 14 13  2  0
 16 15  1  0
 17 18  1  1
 17 16  1  0
 19 17  1  0
 19 20  1  6
 21 22  1  0
 21 19  1  0
 23 21  2  0
M  END
$$$$
