SHA.pdb
     RDKit          3D

 22 22  0  0  1  0  0  0  0  0999 V2000
   23.1558  -10.0971  -21.0041 O   0  0  0  0  0  0  0  0  0  0  0  0
   22.3317   -9.2099  -20.2939 C   0  0  0  0  0  0  0  0  0  0  0  0
   21.5065  -10.0441  -19.3475 C   0  0  2  0  0  0  0  0  0  0  0  0
   20.5177  -10.8361  -20.0260 N   0  0  0  0  0  0  0  0  0  0  0  0
   20.8461   -9.2283  -18.3020 C   0  0  0  0  0  0  0  0  0  0  0  0
   19.8792   -8.4594  -18.5899 O   0  0  0  0  0  0  0  0  0  0  0  0
   21.2899   -9.2993  -16.9661 N   0  0  0  0  0  0  0  0  0  0  0  0
   20.5846   -8.6494  -15.8903 C   0  0  1  0  0  0  0  0  0  0  0  0
   20.3902   -9.7066  -14.8050 C   0  0  0  0  0  0  0  0  0  0  0  0
   19.2371  -10.5442  -15.2180 C   0  0  0  0  0  0  0  0  0  0  0  0
   18.0620  -10.0749  -15.7801 C   0  0  0  0  0  0  0  0  0  0  0  0
   17.2311  -11.1084  -16.0319 N   0  0  0  0  0  0  0  0  0  0  0  0
   17.8657  -12.2210  -15.6367 C   0  0  0  0  0  0  0  0  0  0  0  0
   19.0814  -11.8800  -15.1434 N   0  0  0  0  0  0  0  0  0  0  0  0
   21.4156   -7.5262  -15.4128 C   0  0  0  0  0  0  0  0  0  0  0  0
   22.6031   -7.7086  -15.0408 O   0  0  0  0  0  0  0  0  0  0  0  0
   20.8870   -3.8114  -15.1415 C   0  0  0  0  0  0  0  0  0  0  0  0
   21.7713   -5.0543  -14.9744 C   0  0  2  0  0  0  0  0  0  0  0  0
   20.9440   -6.1817  -15.3397 N   0  0  0  0  0  0  0  0  0  0  0  0
   22.2018   -5.0827  -13.5744 C   0  0  0  0  0  0  0  0  0  0  0  0
   21.5197   -5.7522  -12.7572 O   0  0  0  0  0  0  0  0  0  0  0  0
   23.3147   -4.4218  -13.0747 O   0  0  0  0  0  0  0  0  0  0  0  0
  1  2  1  0
  3  4  1  6
  3  5  1  0
  3  2  1  0
  5  6  2  0
  7  5  1  0
  7  8  1  0
  8 15  1  0
  9 10  1  0
  8  9  1  1
 10 14  1  0
 11 12  1  0
 11 10  2  0
 12 13  1  0
 13 14  2  0
 15 19  1  0
 15 16  2  0
 18 17  1  1
 18 20  1  0
 19 18  1  0
 20 22  1  0
 21 20  2  0
M  END
$$$$
