SHA.pdb
     RDKit          3D

 22 22  0  0  1  0  0  0  0  0999 V2000
   23.6627  -14.8381  -16.0913 O   0  0  0  0  0  0  0  0  0  0  0  0
   24.6631  -14.6310  -17.0539 C   0  0  0  0  0  0  0  0  0  0  0  0
   25.7436  -15.6474  -16.7856 C   0  0  2  0  0  0  0  0  0  0  0  0
   26.9274  -15.4163  -17.5669 N   0  0  0  0  0  0  0  0  0  0  0  0
   25.2794  -17.0377  -17.0009 C   0  0  0  0  0  0  0  0  0  0  0  0
   25.1703  -17.5140  -18.1715 O   0  0  0  0  0  0  0  0  0  0  0  0
   24.9517  -17.8513  -15.8976 N   0  0  0  0  0  0  0  0  0  0  0  0
   24.3657  -19.1582  -16.0582 C   0  0  1  0  0  0  0  0  0  0  0  0
   25.1412  -20.0924  -15.1313 C   0  0  0  0  0  0  0  0  0  0  0  0
   26.3190  -20.5777  -15.8922 C   0  0  0  0  0  0  0  0  0  0  0  0
   26.6177  -20.2547  -17.2051 C   0  0  0  0  0  0  0  0  0  0  0  0
   27.7594  -20.8702  -17.5788 N   0  0  0  0  0  0  0  0  0  0  0  0
   28.1835  -21.5756  -16.5209 C   0  0  0  0  0  0  0  0  0  0  0  0
   27.3113  -21.3990  -15.4984 N   0  0  0  0  0  0  0  0  0  0  0  0
   22.9424  -19.0702  -15.6752 C   0  0  0  0  0  0  0  0  0  0  0  0
   22.5891  -18.4913  -14.6161 O   0  0  0  0  0  0  0  0  0  0  0  0
   19.7304  -19.7282  -17.4597 C   0  0  0  0  0  0  0  0  0  0  0  0
   20.4839  -19.4714  -16.1477 C   0  0  2  0  0  0  0  0  0  0  0  0
   21.8869  -19.6227  -16.4600 N   0  0  0  0  0  0  0  0  0  0  0  0
   19.9974  -20.4578  -15.1799 C   0  0  0  0  0  0  0  0  0  0  0  0
   20.6481  -21.5249  -15.0420 O   0  0  0  0  0  0  0  0  0  0  0  0
   18.8631  -20.3048  -14.3957 O   0  0  0  0  0  0  0  0  0  0  0  0
  1  2  1  0
  3  4  1  6
  3  5  1  0
  3  2  1  0
  5  6  2  0
  7  5  1  0
  7  8  1  0
  8 15  1  0
  9 10  1  0
  8  9  1  1
 10 14  1  0
 11 12  1  0
 11 10  2  0
 12 13  1  0
 13 14  2  0
 15 19  1  0
 15 16  2  0
 18 17  1  6
 18 20  1  0
 19 18  1  0
 20 22  1  0
 21 20  2  0
M  END
$$$$
