SHA.pdb
     RDKit          3D

 22 22  0  0  1  0  0  0  0  0999 V2000
   19.7847  -10.9598  -21.7172 O   0  0  0  0  0  0  0  0  0  0  0  0
   19.2837  -10.5085  -20.4859 C   0  0  0  0  0  0  0  0  0  0  0  0
   20.3363   -9.6085  -19.8904 C   0  0  2  0  0  0  0  0  0  0  0  0
   21.5916  -10.2797  -19.6933 N   0  0  0  0  0  0  0  0  0  0  0  0
   19.9024   -8.9980  -18.6123 C   0  0  0  0  0  0  0  0  0  0  0  0
   18.8258   -8.3309  -18.5415 O   0  0  0  0  0  0  0  0  0  0  0  0
   20.6884   -9.1541  -17.4528 N   0  0  0  0  0  0  0  0  0  0  0  0
   20.2883   -8.6118  -16.1788 C   0  0  1  0  0  0  0  0  0  0  0  0
   20.3938   -9.7569  -15.1734 C   0  0  0  0  0  0  0  0  0  0  0  0
   19.1538  -10.5617  -15.3019 C   0  0  0  0  0  0  0  0  0  0  0  0
   17.8831  -10.0538  -15.5129 C   0  0  0  0  0  0  0  0  0  0  0  0
   16.9918  -11.0652  -15.5795 N   0  0  0  0  0  0  0  0  0  0  0  0
   17.6825  -12.2019  -15.4137 C   0  0  0  0  0  0  0  0  0  0  0  0
   18.9928  -11.8978  -15.2454 N   0  0  0  0  0  0  0  0  0  0  0  0
   21.2090   -7.5072  -15.8436 C   0  0  0  0  0  0  0  0  0  0  0  0
   22.4531   -7.6872  -15.8054 O   0  0  0  0  0  0  0  0  0  0  0  0
   20.8012   -3.8338  -15.1782 C   0  0  0  0  0  0  0  0  0  0  0  0
   21.6407   -5.1169  -15.1165 C   0  0  2  0  0  0  0  0  0  0  0  0
   20.7658   -6.1843  -15.5453 N   0  0  0  0  0  0  0  0  0  0  0  0
   22.0923   -5.2612  -13.7304 C   0  0  0  0  0  0  0  0  0  0  0  0
   22.9979   -4.4924  -13.3181 O   0  0  0  0  0  0  0  0  0  0  0  0
   21.5937   -6.1895  -12.8278 O   0  0  0  0  0  0  0  0  0  0  0  0
  1  2  1  0
  3  4  1  1
  3  5  1  0
  3  2  1  0
  5  6  2  0
  7  5  1  0
  7  8  1  0
  8 15  1  0
  9 10  1  0
  8  9  1  1
 10 14  1  0
 11 12  1  0
 11 10  2  0
 12 13  1  0
 13 14  2  0
 15 19  1  0
 15 16  2  0
 18 17  1  1
 18 20  1  0
 19 18  1  0
 20 22  1  0
 21 20  2  0
M  END
$$$$
