SHA.pdb
     RDKit          3D

 22 22  0  0  1  0  0  0  0  0999 V2000
   28.9427  -11.1655  -17.6918 O   0  0  0  0  0  0  0  0  0  0  0  0
   28.2887  -10.1892  -16.9239 C   0  0  0  0  0  0  0  0  0  0  0  0
   27.2534  -10.9070  -16.0959 C   0  0  2  0  0  0  0  0  0  0  0  0
   27.4225  -12.3340  -16.1136 N   0  0  0  0  0  0  0  0  0  0  0  0
   25.8695  -10.5735  -16.5059 C   0  0  0  0  0  0  0  0  0  0  0  0
   25.1736  -11.3942  -17.1777 O   0  0  0  0  0  0  0  0  0  0  0  0
   25.3081   -9.3305  -16.1504 N   0  0  0  0  0  0  0  0  0  0  0  0
   23.9748   -8.9522  -16.5459 C   0  0  1  0  0  0  0  0  0  0  0  0
   23.0264   -9.9073  -15.8237 C   0  0  0  0  0  0  0  0  0  0  0  0
   21.6493   -9.5533  -16.2481 C   0  0  0  0  0  0  0  0  0  0  0  0
   20.7265   -8.8567  -15.4864 C   0  0  0  0  0  0  0  0  0  0  0  0
   19.5780   -8.7108  -16.1803 N   0  0  0  0  0  0  0  0  0  0  0  0
   19.7642   -9.3052  -17.3672 C   0  0  0  0  0  0  0  0  0  0  0  0
   21.0191   -9.8160  -17.4092 N   0  0  0  0  0  0  0  0  0  0  0  0
   23.7560   -7.5519  -16.1319 C   0  0  0  0  0  0  0  0  0  0  0  0
   24.0128   -7.1729  -14.9605 O   0  0  0  0  0  0  0  0  0  0  0  0
   22.4144   -4.4827  -17.8459 C   0  0  0  0  0  0  0  0  0  0  0  0
   23.0576   -5.1663  -16.6318 C   0  0  2  0  0  0  0  0  0  0  0  0
   23.2488   -6.5481  -17.0097 N   0  0  0  0  0  0  0  0  0  0  0  0
   22.1308   -4.9967  -15.5100 C   0  0  0  0  0  0  0  0  0  0  0  0
   22.1713   -3.9183  -14.8645 O   0  0  0  0  0  0  0  0  0  0  0  0
   21.2024   -5.9428  -15.1001 O   0  0  0  0  0  0  0  0  0  0  0  0
  1  2  1  0
  3  4  1  6
  3  5  1  0
  3  2  1  0
  5  6  2  0
  7  5  1  0
  7  8  1  0
  8 15  1  0
  9 10  1  0
  8  9  1  1
 10 14  1  0
 11 12  1  0
 11 10  2  0
 12 13  1  0
 13 14  2  0
 15 19  1  0
 15 16  2  0
 18 17  1  6
 18 20  1  0
 19 18  1  0
 20 22  1  0
 21 20  2  0
M  END
$$$$
