SHA.pdb
     RDKit          3D

 22 22  0  0  1  0  0  0  0  0999 V2000
   23.8970   -8.3548  -15.8468 O   0  0  0  0  0  0  0  0  0  0  0  0
   22.6259   -7.8664  -16.1881 C   0  0  0  0  0  0  0  0  0  0  0  0
   21.6654   -9.0207  -16.0561 C   0  0  2  0  0  0  0  0  0  0  0  0
   22.0510  -10.1553  -16.8494 N   0  0  0  0  0  0  0  0  0  0  0  0
   20.2734   -8.6404  -16.3911 C   0  0  0  0  0  0  0  0  0  0  0  0
   19.5533   -9.3845  -17.1238 O   0  0  0  0  0  0  0  0  0  0  0  0
   19.7313   -7.4377  -15.8947 N   0  0  0  0  0  0  0  0  0  0  0  0
   18.3279   -7.1284  -16.0045 C   0  0  1  0  0  0  0  0  0  0  0  0
   17.5879   -8.2123  -15.2229 C   0  0  0  0  0  0  0  0  0  0  0  0
   16.1429   -7.8807  -15.2849 C   0  0  0  0  0  0  0  0  0  0  0  0
   15.6006   -6.7541  -15.8796 C   0  0  0  0  0  0  0  0  0  0  0  0
   14.2571   -6.7714  -15.7516 N   0  0  0  0  0  0  0  0  0  0  0  0
   13.9457   -7.8920  -15.0852 C   0  0  0  0  0  0  0  0  0  0  0  0
   15.0879   -8.5649  -14.8020 N   0  0  0  0  0  0  0  0  0  0  0  0
   18.1084   -5.7904  -15.4200 C   0  0  0  0  0  0  0  0  0  0  0  0
   18.5503   -5.4993  -14.2791 O   0  0  0  0  0  0  0  0  0  0  0  0
   16.6027   -2.5926  -16.6966 C   0  0  0  0  0  0  0  0  0  0  0  0
   17.2241   -3.4184  -15.5621 C   0  0  2  0  0  0  0  0  0  0  0  0
   17.3953   -4.7526  -16.0907 N   0  0  0  0  0  0  0  0  0  0  0  0
   16.2908   -3.3587  -14.4345 C   0  0  0  0  0  0  0  0  0  0  0  0
   15.5404   -4.3472  -14.2321 O   0  0  0  0  0  0  0  0  0  0  0  0
   16.1690   -2.2855  -13.5636 O   0  0  0  0  0  0  0  0  0  0  0  0
  1  2  1  0
  3  4  1  6
  3  5  1  0
  3  2  1  0
  5  6  2  0
  7  5  1  0
  7  8  1  0
  8 15  1  0
  9 10  1  0
  8  9  1  1
 10 14  1  0
 11 12  1  0
 11 10  2  0
 12 13  1  0
 13 14  2  0
 15 19  1  0
 15 16  2  0
 18 17  1  6
 18 20  1  0
 19 18  1  0
 20 22  1  0
 21 20  2  0
M  END
$$$$
