TYF.pdb
     RDKit          3D

 31 32  0  0  1  0  0  0  0  0999 V2000
   13.3105  -17.1590   18.9455 C   0  0  0  0  0  0  0  0  0  0  0  0
   11.8529  -17.3904   18.5344 C   0  0  1  0  0  0  0  0  0  0  0  0
   11.8818  -18.2438   17.4497 O   0  0  0  0  0  0  0  0  0  0  0  0
   11.1940  -18.1186   19.6839 C   0  0  2  0  0  0  0  0  0  0  0  0
    9.8855  -18.5876   19.2859 N   0  0  0  0  0  0  0  0  0  0  0  0
   11.0583  -17.2669   20.8841 C   0  0  0  0  0  0  0  0  0  0  0  0
   12.0796  -16.7000   21.3381 O   0  0  0  0  0  0  0  0  0  0  0  0
    7.0655  -12.3802   18.5032 O   0  0  0  0  0  0  0  0  0  0  0  0
    7.3570  -13.2243   19.5711 C   0  0  0  0  0  0  0  0  0  0  0  0
    6.8676  -14.5112   19.6084 C   0  0  0  0  0  0  0  0  0  0  0  0
    7.1576  -15.3537   20.6726 C   0  0  0  0  0  0  0  0  0  0  0  0
    7.9376  -14.9547   21.7312 C   0  0  0  0  0  0  0  0  0  0  0  0
    8.2713  -15.8177   22.8840 C   0  0  0  0  0  0  0  0  0  0  0  0
    9.6981  -16.3316   22.8076 C   0  0  2  0  0  0  0  0  0  0  0  0
    9.8272  -17.0514   21.5591 N   0  0  0  0  0  0  0  0  0  0  0  0
   10.0519  -17.1116   23.9956 C   0  0  0  0  0  0  0  0  0  0  0  0
    9.8505  -18.3647   24.0839 O   0  0  0  0  0  0  0  0  0  0  0  0
    8.4258  -13.6601   21.6866 C   0  0  0  0  0  0  0  0  0  0  0  0
    8.1428  -12.8161   20.6332 C   0  0  0  0  0  0  0  0  0  0  0  0
   10.6417  -16.4864   25.1040 N   0  0  0  0  0  0  0  0  0  0  0  0
   11.1408  -17.2332   26.2635 C   0  0  1  0  0  0  0  0  0  0  0  0
   11.9871  -16.2428   27.0384 C   0  0  0  0  0  0  0  0  0  0  0  0
   11.2263  -15.1608   27.6644 C   0  0  0  0  0  0  0  0  0  0  0  0
   10.5678  -14.2123   26.9157 C   0  0  0  0  0  0  0  0  0  0  0  0
    9.8694  -13.2243   27.5718 C   0  0  0  0  0  0  0  0  0  0  0  0
    9.8222  -13.1739   28.9480 C   0  0  0  0  0  0  0  0  0  0  0  0
   10.4749  -14.1142   29.7118 C   0  0  0  0  0  0  0  0  0  0  0  0
   11.1696  -15.0970   29.0395 C   0  0  0  0  0  0  0  0  0  0  0  0
   10.0088  -17.7385   27.0274 C   0  0  0  0  0  0  0  0  0  0  0  0
    8.8482  -17.3449   26.7568 O   0  0  0  0  0  0  0  0  0  0  0  0
   10.1577  -18.6500   28.0567 O   0  0  0  0  0  0  0  0  0  0  0  0
  2  1  1  1
  3  2  1  0
  4  2  1  0
  4  5  1  6
  6  4  1  0
  6  7  2  0
  8  9  1  0
  9 19  2  0
 10  9  1  0
 10 11  2  0
 11 12  1  0
 12 18  2  0
 12 13  1  0
 14 13  1  1
 14 15  1  0
 15  6  1  0
 16 14  1  0
 16 20  1  0
 17 16  2  0
 19 18  1  0
 21 20  1  0
 21 29  1  0
 22 23  1  0
 21 22  1  1
 23 24  2  0
 24 25  1  0
 26 25  2  0
 27 26  1  0
 28 27  2  0
 28 23  1  0
 29 30  2  0
 29 31  1  0
M  END
$$$$
