TYF.pdb
     RDKit          3D

 31 32  0  0  1  0  0  0  0  0999 V2000
    6.7560  -19.1756   22.9969 C   0  0  0  0  0  0  0  0  0  0  0  0
    7.7237  -19.6176   21.8946 C   0  0  1  0  0  0  0  0  0  0  0  0
    7.1079  -20.6557   21.2247 O   0  0  0  0  0  0  0  0  0  0  0  0
    7.8456  -18.4525   20.9389 C   0  0  2  0  0  0  0  0  0  0  0  0
    8.4851  -18.8824   19.7155 N   0  0  0  0  0  0  0  0  0  0  0  0
    8.6132  -17.3297   21.5174 C   0  0  0  0  0  0  0  0  0  0  0  0
    9.8610  -17.3313   21.4017 O   0  0  0  0  0  0  0  0  0  0  0  0
    7.9199  -12.8889   16.7472 O   0  0  0  0  0  0  0  0  0  0  0  0
    7.9309  -13.1228   18.1195 C   0  0  0  0  0  0  0  0  0  0  0  0
    8.9448  -12.6317   18.9117 C   0  0  0  0  0  0  0  0  0  0  0  0
    8.9569  -12.8642   20.2800 C   0  0  0  0  0  0  0  0  0  0  0  0
    7.9716  -13.5869   20.9088 C   0  0  0  0  0  0  0  0  0  0  0  0
    7.9448  -13.8586   22.3616 C   0  0  0  0  0  0  0  0  0  0  0  0
    8.7435  -15.1004   22.7164 C   0  0  2  0  0  0  0  0  0  0  0  0
    8.0139  -16.2395   22.2029 N   0  0  0  0  0  0  0  0  0  0  0  0
    9.0306  -15.1619   24.1512 C   0  0  0  0  0  0  0  0  0  0  0  0
    9.6471  -14.2382   24.7722 O   0  0  0  0  0  0  0  0  0  0  0  0
    6.9561  -14.0772   20.1061 C   0  0  0  0  0  0  0  0  0  0  0  0
    6.9360  -13.8510   18.7457 C   0  0  0  0  0  0  0  0  0  0  0  0
    8.6229  -16.2697   24.9086 N   0  0  0  0  0  0  0  0  0  0  0  0
    8.7856  -16.3385   26.3647 C   0  0  1  0  0  0  0  0  0  0  0  0
    7.4416  -15.9289   26.9334 C   0  0  0  0  0  0  0  0  0  0  0  0
    7.2495  -14.4824   27.0430 C   0  0  0  0  0  0  0  0  0  0  0  0
    8.2040  -13.6667   27.6063 C   0  0  0  0  0  0  0  0  0  0  0  0
    7.9571  -12.3143   27.6742 C   0  0  0  0  0  0  0  0  0  0  0  0
    6.7840  -11.7754   27.1925 C   0  0  0  0  0  0  0  0  0  0  0  0
    5.8191  -12.5766   26.6262 C   0  0  0  0  0  0  0  0  0  0  0  0
    6.0817  -13.9286   26.5658 C   0  0  0  0  0  0  0  0  0  0  0  0
    9.1755  -17.6912   26.7367 C   0  0  0  0  0  0  0  0  0  0  0  0
    9.4166  -17.9627   27.9381 O   0  0  0  0  0  0  0  0  0  0  0  0
    9.2938  -18.7095   25.8086 O   0  0  0  0  0  0  0  0  0  0  0  0
  2  1  1  1
  3  2  1  0
  4  2  1  0
  4  5  1  6
  6  4  1  0
  6  7  2  0
  8  9  1  0
  9 19  2  0
 10  9  1  0
 10 11  2  0
 11 12  1  0
 12 18  2  0
 12 13  1  0
 14 13  1  1
 14 15  1  0
 15  6  1  0
 16 14  1  0
 16 20  1  0
 17 16  2  0
 19 18  1  0
 21 20  1  0
 21 29  1  0
 22 23  1  0
 21 22  1  1
 23 24  2  0
 24 25  1  0
 26 25  2  0
 27 26  1  0
 28 27  2  0
 28 23  1  0
 29 30  2  0
 29 31  1  0
M  END
$$$$
