TYF.pdb
     RDKit          3D

 31 32  0  0  1  0  0  0  0  0999 V2000
    5.1021  -20.2995   22.5646 C   0  0  0  0  0  0  0  0  0  0  0  0
    6.1452  -19.2655   23.0004 C   0  0  1  0  0  0  0  0  0  0  0  0
    7.0867  -19.9474   23.7448 O   0  0  0  0  0  0  0  0  0  0  0  0
    6.8152  -18.7742   21.7372 C   0  0  2  0  0  0  0  0  0  0  0  0
    7.3545  -19.8933   20.9973 N   0  0  0  0  0  0  0  0  0  0  0  0
    7.9004  -17.8103   22.0158 C   0  0  0  0  0  0  0  0  0  0  0  0
    9.0884  -18.1900   21.8936 O   0  0  0  0  0  0  0  0  0  0  0  0
    7.9694  -13.7641   16.5321 O   0  0  0  0  0  0  0  0  0  0  0  0
    8.0157  -13.8511   17.9207 C   0  0  0  0  0  0  0  0  0  0  0  0
    7.4779  -12.8581   18.7091 C   0  0  0  0  0  0  0  0  0  0  0  0
    7.5235  -12.9437   20.0937 C   0  0  0  0  0  0  0  0  0  0  0  0
    8.0996  -14.0089   20.7430 C   0  0  0  0  0  0  0  0  0  0  0  0
    8.1704  -14.1409   22.2137 C   0  0  0  0  0  0  0  0  0  0  0  0
    8.7218  -15.4927   22.6312 C   0  0  2  0  0  0  0  0  0  0  0  0
    7.6735  -16.4668   22.4174 N   0  0  0  0  0  0  0  0  0  0  0  0
    9.2474  -15.4589   23.9978 C   0  0  0  0  0  0  0  0  0  0  0  0
   10.1713  -14.6638   24.3627 O   0  0  0  0  0  0  0  0  0  0  0  0
    8.6379  -15.0029   19.9441 C   0  0  0  0  0  0  0  0  0  0  0  0
    8.5971  -14.9261   18.5676 C   0  0  0  0  0  0  0  0  0  0  0  0
    8.7349  -16.3238   24.9758 N   0  0  0  0  0  0  0  0  0  0  0  0
    9.0229  -16.1647   26.4051 C   0  0  1  0  0  0  0  0  0  0  0  0
    7.7084  -15.7404   27.0294 C   0  0  0  0  0  0  0  0  0  0  0  0
    7.3805  -14.3268   26.8404 C   0  0  0  0  0  0  0  0  0  0  0  0
    6.2143  -13.9307   26.2265 C   0  0  0  0  0  0  0  0  0  0  0  0
    5.9697  -12.5836   26.0848 C   0  0  0  0  0  0  0  0  0  0  0  0
    6.8645  -11.6412   26.5431 C   0  0  0  0  0  0  0  0  0  0  0  0
    8.0352  -12.0200   27.1593 C   0  0  0  0  0  0  0  0  0  0  0  0
    8.2651  -13.3726   27.2934 C   0  0  0  0  0  0  0  0  0  0  0  0
    9.5257  -17.4253   26.9326 C   0  0  0  0  0  0  0  0  0  0  0  0
    9.8012  -17.5252   28.1530 O   0  0  0  0  0  0  0  0  0  0  0  0
    9.7163  -18.5385   26.1347 O   0  0  0  0  0  0  0  0  0  0  0  0
  2  1  1  6
  3  2  1  0
  4  2  1  0
  4  5  1  1
  6  4  1  0
  6  7  2  0
  8  9  1  0
  9 19  2  0
 10  9  1  0
 10 11  2  0
 11 12  1  0
 12 18  2  0
 12 13  1  0
 14 13  1  1
 14 15  1  0
 15  6  1  0
 16 14  1  0
 16 20  1  0
 17 16  2  0
 19 18  1  0
 21 20  1  0
 21 29  1  0
 22 23  1  0
 21 22  1  1
 23 24  2  0
 24 25  1  0
 26 25  2  0
 27 26  1  0
 28 27  2  0
 28 23  1  0
 29 30  2  0
 29 31  1  0
M  END
$$$$
