TYF.pdb
     RDKit          3D

 31 32  0  0  1  0  0  0  0  0999 V2000
    8.9573  -12.7663   20.8045 C   0  0  0  0  0  0  0  0  0  0  0  0
    7.6423  -13.2144   20.1587 C   0  0  1  0  0  0  0  0  0  0  0  0
    7.4810  -12.4464   19.0230 O   0  0  0  0  0  0  0  0  0  0  0  0
    7.8440  -14.6493   19.7272 C   0  0  2  0  0  0  0  0  0  0  0  0
    6.6503  -15.1415   19.0765 N   0  0  0  0  0  0  0  0  0  0  0  0
    8.1767  -15.5355   20.8623 C   0  0  0  0  0  0  0  0  0  0  0  0
    7.2423  -16.0073   21.5512 O   0  0  0  0  0  0  0  0  0  0  0  0
   12.8403  -21.1441   25.9526 O   0  0  0  0  0  0  0  0  0  0  0  0
   12.4454  -20.2013   25.0075 C   0  0  0  0  0  0  0  0  0  0  0  0
   11.2494  -20.3312   24.3370 C   0  0  0  0  0  0  0  0  0  0  0  0
   10.8547  -19.3918   23.3946 C   0  0  0  0  0  0  0  0  0  0  0  0
   11.6253  -18.2971   23.0843 C   0  0  0  0  0  0  0  0  0  0  0  0
   11.2444  -17.2732   22.0885 C   0  0  0  0  0  0  0  0  0  0  0  0
    9.8494  -16.7308   22.3448 C   0  0  2  0  0  0  0  0  0  0  0  0
    9.5055  -15.8867   21.2211 N   0  0  0  0  0  0  0  0  0  0  0  0
    9.7622  -16.0689   23.6484 C   0  0  0  0  0  0  0  0  0  0  0  0
   10.3393  -14.9636   23.9014 O   0  0  0  0  0  0  0  0  0  0  0  0
   12.8258  -18.1734   23.7623 C   0  0  0  0  0  0  0  0  0  0  0  0
   13.2259  -19.1019   24.7003 C   0  0  0  0  0  0  0  0  0  0  0  0
    9.0183  -16.6462   24.6879 N   0  0  0  0  0  0  0  0  0  0  0  0
    8.9397  -16.0574   26.0290 C   0  0  1  0  0  0  0  0  0  0  0  0
    7.5037  -15.5946   26.1750 C   0  0  0  0  0  0  0  0  0  0  0  0
    7.3286  -14.1435   26.1052 C   0  0  0  0  0  0  0  0  0  0  0  0
    8.2492  -13.2769   26.6486 C   0  0  0  0  0  0  0  0  0  0  0  0
    8.0212  -11.9235   26.5437 C   0  0  0  0  0  0  0  0  0  0  0  0
    6.8996  -11.4332   25.9109 C   0  0  0  0  0  0  0  0  0  0  0  0
    5.9691  -12.2857   25.3621 C   0  0  0  0  0  0  0  0  0  0  0  0
    6.2122  -13.6379   25.4757 C   0  0  0  0  0  0  0  0  0  0  0  0
    9.3195  -17.0616   27.0127 C   0  0  0  0  0  0  0  0  0  0  0  0
    9.1656  -18.2796   26.7520 O   0  0  0  0  0  0  0  0  0  0  0  0
    9.8526  -16.7275   28.2441 O   0  0  0  0  0  0  0  0  0  0  0  0
  2  1  1  6
  3  2  1  0
  4  2  1  0
  4  5  1  1
  6  4  1  0
  6  7  2  0
  8  9  1  0
  9 19  2  0
 10  9  1  0
 10 11  2  0
 11 12  1  0
 12 18  2  0
 12 13  1  0
 14 13  1  6
 14 15  1  0
 15  6  1  0
 16 14  1  0
 16 20  1  0
 17 16  2  0
 19 18  1  0
 21 20  1  0
 21 29  1  0
 22 23  1  0
 21 22  1  1
 23 24  2  0
 24 25  1  0
 26 25  2  0
 27 26  1  0
 28 27  2  0
 28 23  1  0
 29 30  2  0
 29 31  1  0
M  END
$$$$
