MPH.pdb
     RDKit          3D

 26 27  0  0  1  0  0  0  0  0999 V2000
    5.1022  -12.1218   26.5686 C   0  0  0  0  0  0  0  0  0  0  0  0
    6.7509  -12.7498   26.9735 S   0  0  0  0  0  0  0  0  0  0  0  0
    6.7875  -14.5430   26.7084 C   0  0  0  0  0  0  0  0  0  0  0  0
    5.9786  -14.9017   25.4790 C   0  0  0  0  0  0  0  0  0  0  0  0
    6.2165  -16.3485   25.1134 C   0  0  2  0  0  0  0  0  0  0  0  0
    6.1971  -17.1886   26.3104 N   0  0  0  0  0  0  0  0  0  0  0  0
    7.4821  -16.5700   24.4141 C   0  0  0  0  0  0  0  0  0  0  0  0
    8.0840  -17.6543   24.6201 O   0  0  0  0  0  0  0  0  0  0  0  0
    8.0820  -15.6501   23.5187 N   0  0  0  0  0  0  0  0  0  0  0  0
    7.6888  -14.3097   23.1592 C   0  0  0  0  0  0  0  0  0  0  0  0
    7.8097  -14.3620   21.6308 C   0  0  0  0  0  0  0  0  0  0  0  0
    9.1557  -15.0684   21.5020 C   0  0  0  0  0  0  0  0  0  0  0  0
    9.2785  -15.9195   22.7454 C   0  0  1  0  0  0  0  0  0  0  0  0
   10.5085  -15.6123   23.5264 C   0  0  0  0  0  0  0  0  0  0  0  0
   10.5283  -14.4957   24.1185 O   0  0  0  0  0  0  0  0  0  0  0  0
   11.5656  -16.5375   23.5775 N   0  0  0  0  0  0  0  0  0  0  0  0
   12.7621  -16.1820   24.3323 C   0  0  1  0  0  0  0  0  0  0  0  0
   12.7764  -16.8298   25.6727 C   0  0  0  0  0  0  0  0  0  0  0  0
   11.9494  -16.0679   26.6302 C   0  0  0  0  0  0  0  0  0  0  0  0
   11.1210  -16.5981   27.6300 C   0  0  0  0  0  0  0  0  0  0  0  0
   10.5497  -15.5677   28.2761 N   0  0  0  0  0  0  0  0  0  0  0  0
   10.9776  -14.4143   27.7322 C   0  0  0  0  0  0  0  0  0  0  0  0
   11.8211  -14.7248   26.7407 N   0  0  0  0  0  0  0  0  0  0  0  0
   13.9318  -16.6243   23.5449 C   0  0  0  0  0  0  0  0  0  0  0  0
   15.1040  -16.3962   23.9445 O   0  0  0  0  0  0  0  0  0  0  0  0
   13.6980  -17.3037   22.3435 O   0  0  0  0  0  0  0  0  0  0  0  0
  2  1  1  0
  3  2  1  0
  3  4  1  0
  4  5  1  0
  5  6  1  1
  5  7  1  0
  7  8  2  0
  9  7  1  0
  9 13  1  0
 10 11  1  0
 10  9  1  0
 11 12  1  0
 12 13  1  0
 13 14  1  1
 14 15  2  0
 16 17  1  0
 16 14  1  0
 17 24  1  0
 17 18  1  1
 19 18  1  0
 20 19  2  0
 21 20  1  0
 22 21  1  0
 22 23  2  0
 23 19  1  0
 24 26  1  0
 25 24  2  0
M  END
$$$$
