MPH.pdb
     RDKit          3D

 26 27  0  0  1  0  0  0  0  0999 V2000
    8.1068  -11.8744   27.6726 C   0  0  0  0  0  0  0  0  0  0  0  0
    6.5038  -11.5894   26.8818 S   0  0  0  0  0  0  0  0  0  0  0  0
    5.8453  -13.1688   26.2825 C   0  0  0  0  0  0  0  0  0  0  0  0
    6.8944  -13.8893   25.4610 C   0  0  0  0  0  0  0  0  0  0  0  0
    6.3264  -15.1836   24.9265 C   0  0  2  0  0  0  0  0  0  0  0  0
    6.0011  -16.0921   26.0254 N   0  0  0  0  0  0  0  0  0  0  0  0
    7.2274  -15.8765   24.0057 C   0  0  0  0  0  0  0  0  0  0  0  0
    7.6677  -17.0019   24.3518 O   0  0  0  0  0  0  0  0  0  0  0  0
    7.6419  -15.3717   22.7482 N   0  0  0  0  0  0  0  0  0  0  0  0
    7.3389  -14.1179   22.1026 C   0  0  0  0  0  0  0  0  0  0  0  0
    6.9800  -14.5889   20.6875 C   0  0  0  0  0  0  0  0  0  0  0  0
    8.1168  -15.5777   20.4481 C   0  0  0  0  0  0  0  0  0  0  0  0
    8.4991  -16.0836   21.8206 C   0  0  1  0  0  0  0  0  0  0  0  0
    9.9379  -15.8576   22.1302 C   0  0  0  0  0  0  0  0  0  0  0  0
   10.1849  -15.0659   23.0842 O   0  0  0  0  0  0  0  0  0  0  0  0
   10.9350  -16.5064   21.3812 N   0  0  0  0  0  0  0  0  0  0  0  0
   11.9089  -17.3293   22.0895 C   0  0  1  0  0  0  0  0  0  0  0  0
   11.2692  -18.5202   22.7132 C   0  0  0  0  0  0  0  0  0  0  0  0
   11.0509  -18.3001   24.1572 C   0  0  0  0  0  0  0  0  0  0  0  0
   11.3461  -17.1364   24.8821 C   0  0  0  0  0  0  0  0  0  0  0  0
   10.9948  -17.3516   26.1611 N   0  0  0  0  0  0  0  0  0  0  0  0
   10.4927  -18.5940   26.2774 C   0  0  0  0  0  0  0  0  0  0  0  0
   10.5301  -19.1590   25.0648 N   0  0  0  0  0  0  0  0  0  0  0  0
   12.9260  -17.7586   21.1072 C   0  0  0  0  0  0  0  0  0  0  0  0
   12.5879  -18.1991   19.9769 O   0  0  0  0  0  0  0  0  0  0  0  0
   14.2744  -17.6608   21.4701 O   0  0  0  0  0  0  0  0  0  0  0  0
  2  1  1  0
  3  2  1  0
  3  4  1  0
  4  5  1  0
  5  6  1  1
  5  7  1  0
  7  8  2  0
  9  7  1  0
  9 13  1  0
 10 11  1  0
 10  9  1  0
 11 12  1  0
 12 13  1  0
 13 14  1  1
 14 15  2  0
 16 17  1  0
 16 14  1  0
 17 24  1  0
 17 18  1  6
 19 18  1  0
 20 19  2  0
 21 20  1  0
 22 21  1  0
 22 23  2  0
 23 19  1  0
 24 26  1  0
 25 24  2  0
M  END
$$$$
