MPH.pdb
     RDKit          3D

 26 27  0  0  1  0  0  0  0  0999 V2000
    5.7622  -12.3876   27.1927 C   0  0  0  0  0  0  0  0  0  0  0  0
    7.3504  -13.2509   27.2857 S   0  0  0  0  0  0  0  0  0  0  0  0
    7.1810  -14.8934   26.5369 C   0  0  0  0  0  0  0  0  0  0  0  0
    6.1864  -14.8424   25.3954 C   0  0  0  0  0  0  0  0  0  0  0  0
    6.1389  -16.1817   24.6973 C   0  0  2  0  0  0  0  0  0  0  0  0
    6.0576  -17.2660   25.6752 N   0  0  0  0  0  0  0  0  0  0  0  0
    7.2922  -16.4262   23.8313 C   0  0  0  0  0  0  0  0  0  0  0  0
    7.8141  -17.5695   23.8586 O   0  0  0  0  0  0  0  0  0  0  0  0
    7.8666  -15.4669   22.9609 N   0  0  0  0  0  0  0  0  0  0  0  0
    7.5280  -14.0808   22.7496 C   0  0  0  0  0  0  0  0  0  0  0  0
    7.5090  -14.0075   21.2174 C   0  0  0  0  0  0  0  0  0  0  0  0
    8.7912  -14.7731   20.9061 C   0  0  0  0  0  0  0  0  0  0  0  0
    8.9704  -15.7339   22.0596 C   0  0  1  0  0  0  0  0  0  0  0  0
   10.2818  -15.5636   22.7439 C   0  0  0  0  0  0  0  0  0  0  0  0
   10.2372  -15.1642   23.9424 O   0  0  0  0  0  0  0  0  0  0  0  0
   11.4792  -15.8416   22.0618 N   0  0  0  0  0  0  0  0  0  0  0  0
   12.4881  -16.6522   22.7345 C   0  0  1  0  0  0  0  0  0  0  0  0
   11.9531  -17.9889   23.1132 C   0  0  0  0  0  0  0  0  0  0  0  0
   11.5754  -18.0153   24.5408 C   0  0  0  0  0  0  0  0  0  0  0  0
   11.6270  -16.9418   25.4418 C   0  0  0  0  0  0  0  0  0  0  0  0
   11.1982  -17.3885   26.6344 N   0  0  0  0  0  0  0  0  0  0  0  0
   10.8790  -18.6909   26.5287 C   0  0  0  0  0  0  0  0  0  0  0  0
   11.1094  -19.0609   25.2635 N   0  0  0  0  0  0  0  0  0  0  0  0
   13.6253  -16.8084   21.8038 C   0  0  0  0  0  0  0  0  0  0  0  0
   14.8120  -16.6846   22.2064 O   0  0  0  0  0  0  0  0  0  0  0  0
   13.3442  -17.0979   20.4634 O   0  0  0  0  0  0  0  0  0  0  0  0
  2  1  1  0
  3  2  1  0
  3  4  1  0
  4  5  1  0
  5  6  1  1
  5  7  1  0
  7  8  2  0
  9  7  1  0
  9 13  1  0
 10 11  1  0
 10  9  1  0
 11 12  1  0
 12 13  1  0
 13 14  1  1
 14 15  2  0
 16 17  1  0
 16 14  1  0
 17 24  1  0
 17 18  1  6
 19 18  1  0
 20 19  2  0
 21 20  1  0
 22 21  1  0
 22 23  2  0
 23 19  1  0
 24 26  1  0
 25 24  2  0
M  END
$$$$
