MPH.pdb
     RDKit          3D

 26 27  0  0  1  0  0  0  0  0999 V2000
    5.8258  -11.9771   26.8536 C   0  0  0  0  0  0  0  0  0  0  0  0
    7.4865  -12.6950   26.9097 S   0  0  0  0  0  0  0  0  0  0  0  0
    7.3953  -14.4455   26.4465 C   0  0  0  0  0  0  0  0  0  0  0  0
    6.2889  -14.6566   25.4336 C   0  0  0  0  0  0  0  0  0  0  0  0
    6.2927  -16.0924   24.9627 C   0  0  2  0  0  0  0  0  0  0  0  0
    6.3388  -17.0053   26.1043 N   0  0  0  0  0  0  0  0  0  0  0  0
    7.4100  -16.4086   24.0730 C   0  0  0  0  0  0  0  0  0  0  0  0
    7.8826  -17.5727   24.1162 O   0  0  0  0  0  0  0  0  0  0  0  0
    8.0008  -15.4973   23.1630 N   0  0  0  0  0  0  0  0  0  0  0  0
    7.7321  -14.0976   22.9406 C   0  0  0  0  0  0  0  0  0  0  0  0
    7.6539  -14.0475   21.4093 C   0  0  0  0  0  0  0  0  0  0  0  0
    8.8771  -14.8895   21.0603 C   0  0  0  0  0  0  0  0  0  0  0  0
    9.0497  -15.8407   22.2228 C   0  0  1  0  0  0  0  0  0  0  0  0
   10.3958  -15.7344   22.8504 C   0  0  0  0  0  0  0  0  0  0  0  0
   10.5558  -14.7838   23.6682 O   0  0  0  0  0  0  0  0  0  0  0  0
   11.4046  -16.6580   22.5258 N   0  0  0  0  0  0  0  0  0  0  0  0
   12.6843  -16.5587   23.2186 C   0  0  1  0  0  0  0  0  0  0  0  0
   13.0533  -17.8436   23.8740 C   0  0  0  0  0  0  0  0  0  0  0  0
   12.0889  -18.1823   24.9402 C   0  0  0  0  0  0  0  0  0  0  0  0
   11.9893  -17.5802   26.2028 C   0  0  0  0  0  0  0  0  0  0  0  0
   10.9851  -18.1807   26.8637 N   0  0  0  0  0  0  0  0  0  0  0  0
   10.4474  -19.1317   26.0790 C   0  0  0  0  0  0  0  0  0  0  0  0
   11.1186  -19.1260   24.9213 N   0  0  0  0  0  0  0  0  0  0  0  0
   13.7053  -16.1920   22.2153 C   0  0  0  0  0  0  0  0  0  0  0  0
   13.4219  -16.1523   20.9890 O   0  0  0  0  0  0  0  0  0  0  0  0
   14.9950  -15.8904   22.6682 O   0  0  0  0  0  0  0  0  0  0  0  0
  2  1  1  0
  3  2  1  0
  3  4  1  0
  4  5  1  0
  5  6  1  1
  5  7  1  0
  7  8  2  0
  9  7  1  0
  9 13  1  0
 10 11  1  0
 10  9  1  0
 11 12  1  0
 12 13  1  0
 13 14  1  1
 14 15  2  0
 16 17  1  0
 16 14  1  0
 17 24  1  0
 17 18  1  6
 19 18  1  0
 20 19  2  0
 21 20  1  0
 22 21  1  0
 22 23  2  0
 23 19  1  0
 24 26  1  0
 25 24  2  0
M  END
$$$$
