MPH.pdb
     RDKit          3D

 26 27  0  0  1  0  0  0  0  0999 V2000
    8.5265  -12.6498   28.2930 C   0  0  0  0  0  0  0  0  0  0  0  0
    7.1821  -12.8632   27.0999 S   0  0  0  0  0  0  0  0  0  0  0  0
    7.1373  -14.5918   26.5549 C   0  0  0  0  0  0  0  0  0  0  0  0
    6.1045  -14.7634   25.4601 C   0  0  0  0  0  0  0  0  0  0  0  0
    6.0635  -16.2073   25.0164 C   0  0  2  0  0  0  0  0  0  0  0  0
    6.1751  -17.1003   26.1692 N   0  0  0  0  0  0  0  0  0  0  0  0
    7.1170  -16.5515   24.0618 C   0  0  0  0  0  0  0  0  0  0  0  0
    7.5234  -17.7409   24.0406 O   0  0  0  0  0  0  0  0  0  0  0  0
    7.7154  -15.6408   23.1560 N   0  0  0  0  0  0  0  0  0  0  0  0
    7.4818  -14.2305   22.9634 C   0  0  0  0  0  0  0  0  0  0  0  0
    7.3752  -14.1509   21.4351 C   0  0  0  0  0  0  0  0  0  0  0  0
    8.5672  -15.0202   21.0471 C   0  0  0  0  0  0  0  0  0  0  0  0
    8.7356  -15.9964   22.1892 C   0  0  1  0  0  0  0  0  0  0  0  0
   10.0962  -15.9388   22.7915 C   0  0  0  0  0  0  0  0  0  0  0  0
   10.3057  -14.9946   23.6054 O   0  0  0  0  0  0  0  0  0  0  0  0
   11.0647  -16.8983   22.4488 N   0  0  0  0  0  0  0  0  0  0  0  0
   12.4017  -16.7673   23.0170 C   0  0  1  0  0  0  0  0  0  0  0  0
   12.8259  -18.0138   23.7118 C   0  0  0  0  0  0  0  0  0  0  0  0
   11.9709  -18.2735   24.8878 C   0  0  0  0  0  0  0  0  0  0  0  0
   10.8389  -19.1000   24.9353 C   0  0  0  0  0  0  0  0  0  0  0  0
   10.3555  -19.0592   26.1884 N   0  0  0  0  0  0  0  0  0  0  0  0
   11.1277  -18.2473   26.9326 C   0  0  0  0  0  0  0  0  0  0  0  0
   12.0992  -17.7779   26.1409 N   0  0  0  0  0  0  0  0  0  0  0  0
   13.3290  -16.4675   21.9062 C   0  0  0  0  0  0  0  0  0  0  0  0
   12.9250  -16.4491   20.7136 O   0  0  0  0  0  0  0  0  0  0  0  0
   14.6679  -16.2049   22.2189 O   0  0  0  0  0  0  0  0  0  0  0  0
  2  1  1  0
  3  2  1  0
  3  4  1  0
  4  5  1  0
  5  6  1  1
  5  7  1  0
  7  8  2  0
  9  7  1  0
  9 13  1  0
 10 11  1  0
 10  9  1  0
 11 12  1  0
 12 13  1  0
 13 14  1  1
 14 15  2  0
 16 17  1  0
 16 14  1  0
 17 24  1  0
 17 18  1  6
 19 18  1  0
 20 19  2  0
 21 20  1  0
 22 21  1  0
 22 23  2  0
 23 19  1  0
 24 26  1  0
 25 24  2  0
M  END
$$$$
