MPH.pdb
     RDKit          3D

 26 27  0  0  1  0  0  0  0  0999 V2000
    6.1483  -12.1468   27.8719 C   0  0  0  0  0  0  0  0  0  0  0  0
    7.5821  -13.2260   27.6351 S   0  0  0  0  0  0  0  0  0  0  0  0
    7.0423  -14.7729   26.8587 C   0  0  0  0  0  0  0  0  0  0  0  0
    6.4933  -14.4940   25.4747 C   0  0  0  0  0  0  0  0  0  0  0  0
    6.1623  -15.7960   24.7830 C   0  0  2  0  0  0  0  0  0  0  0  0
    5.9602  -16.8604   25.7653 N   0  0  0  0  0  0  0  0  0  0  0  0
    7.1911  -16.2291   23.8376 C   0  0  0  0  0  0  0  0  0  0  0  0
    7.5231  -17.4416   23.8471 O   0  0  0  0  0  0  0  0  0  0  0  0
    7.8434  -15.3808   22.9089 N   0  0  0  0  0  0  0  0  0  0  0  0
    7.6669  -13.9726   22.6510 C   0  0  0  0  0  0  0  0  0  0  0  0
    7.5981  -13.9553   21.1185 C   0  0  0  0  0  0  0  0  0  0  0  0
    8.7654  -14.8832   20.7969 C   0  0  0  0  0  0  0  0  0  0  0  0
    8.8714  -15.8146   21.9830 C   0  0  1  0  0  0  0  0  0  0  0  0
   10.2191  -15.7802   22.6152 C   0  0  0  0  0  0  0  0  0  0  0  0
   10.4449  -14.8102   23.3936 O   0  0  0  0  0  0  0  0  0  0  0  0
   11.1590  -16.7879   22.3368 N   0  0  0  0  0  0  0  0  0  0  0  0
   12.4566  -16.7279   23.0001 C   0  0  1  0  0  0  0  0  0  0  0  0
   12.7408  -17.9758   23.7607 C   0  0  0  0  0  0  0  0  0  0  0  0
   11.8212  -18.1091   24.9088 C   0  0  0  0  0  0  0  0  0  0  0  0
   11.9232  -17.4549   26.1451 C   0  0  0  0  0  0  0  0  0  0  0  0
   10.8889  -17.8536   26.9047 N   0  0  0  0  0  0  0  0  0  0  0  0
   10.1405  -18.7269   26.2073 C   0  0  0  0  0  0  0  0  0  0  0  0
   10.7094  -18.8753   25.0052 N   0  0  0  0  0  0  0  0  0  0  0  0
   13.4814  -16.5293   21.9542 C   0  0  0  0  0  0  0  0  0  0  0  0
   14.6842  -16.3154   22.2597 O   0  0  0  0  0  0  0  0  0  0  0  0
   13.0757  -16.5860   20.6157 O   0  0  0  0  0  0  0  0  0  0  0  0
  2  1  1  0
  3  2  1  0
  3  4  1  0
  4  5  1  0
  5  6  1  1
  5  7  1  0
  7  8  2  0
  9  7  1  0
  9 13  1  0
 10 11  1  0
 10  9  1  0
 11 12  1  0
 12 13  1  0
 13 14  1  1
 14 15  2  0
 16 17  1  0
 16 14  1  0
 17 24  1  0
 17 18  1  6
 19 18  1  0
 20 19  2  0
 21 20  1  0
 22 21  1  0
 22 23  2  0
 23 19  1  0
 24 26  1  0
 25 24  2  0
M  END
$$$$
