MPH.pdb
     RDKit          3D

 26 27  0  0  1  0  0  0  0  0999 V2000
    9.1009  -13.0329   28.7560 C   0  0  0  0  0  0  0  0  0  0  0  0
    7.9238  -13.0733   27.3815 S   0  0  0  0  0  0  0  0  0  0  0  0
    7.7457  -14.7809   26.7990 C   0  0  0  0  0  0  0  0  0  0  0  0
    6.7579  -14.8368   25.6519 C   0  0  0  0  0  0  0  0  0  0  0  0
    6.5786  -16.2674   25.1995 C   0  0  2  0  0  0  0  0  0  0  0  0
    7.1044  -17.1914   26.2037 N   0  0  0  0  0  0  0  0  0  0  0  0
    7.2269  -16.5573   23.9206 C   0  0  0  0  0  0  0  0  0  0  0  0
    7.4920  -17.7574   23.6564 O   0  0  0  0  0  0  0  0  0  0  0  0
    7.5790  -15.5828   22.9542 N   0  0  0  0  0  0  0  0  0  0  0  0
    7.5964  -14.1435   23.0470 C   0  0  0  0  0  0  0  0  0  0  0  0
    6.8889  -13.7509   21.7436 C   0  0  0  0  0  0  0  0  0  0  0  0
    7.5970  -14.6901   20.7722 C   0  0  0  0  0  0  0  0  0  0  0  0
    8.0069  -15.8853   21.6023 C   0  0  1  0  0  0  0  0  0  0  0  0
    9.4720  -16.1441   21.5431 C   0  0  0  0  0  0  0  0  0  0  0  0
    9.8897  -16.7508   20.5157 O   0  0  0  0  0  0  0  0  0  0  0  0
   10.3097  -15.7219   22.5901 N   0  0  0  0  0  0  0  0  0  0  0  0
   11.6969  -16.1728   22.5928 C   0  0  1  0  0  0  0  0  0  0  0  0
   12.6266  -15.0860   22.1793 C   0  0  0  0  0  0  0  0  0  0  0  0
   12.5759  -14.8830   20.7173 C   0  0  0  0  0  0  0  0  0  0  0  0
   11.6114  -14.1558   20.0047 C   0  0  0  0  0  0  0  0  0  0  0  0
   11.9324  -14.2192   18.7014 N   0  0  0  0  0  0  0  0  0  0  0  0
   13.0520  -14.9508   18.5581 C   0  0  0  0  0  0  0  0  0  0  0  0
   13.4333  -15.3471   19.7782 N   0  0  0  0  0  0  0  0  0  0  0  0
   12.0171  -16.6164   23.9656 C   0  0  0  0  0  0  0  0  0  0  0  0
   13.1681  -17.0352   24.2579 O   0  0  0  0  0  0  0  0  0  0  0  0
   11.0040  -16.5572   24.9298 O   0  0  0  0  0  0  0  0  0  0  0  0
  2  1  1  0
  3  2  1  0
  3  4  1  0
  4  5  1  0
  5  6  1  1
  5  7  1  0
  7  8  2  0
  9  7  1  0
  9 13  1  0
 10 11  1  0
 10  9  1  0
 11 12  1  0
 12 13  1  0
 13 14  1  1
 14 15  2  0
 16 17  1  0
 16 14  1  0
 17 24  1  0
 17 18  1  1
 19 18  1  0
 20 19  2  0
 21 20  1  0
 22 21  1  0
 22 23  2  0
 23 19  1  0
 24 26  1  0
 25 24  2  0
M  END
$$$$
