FPW.pdb
     RDKit          3D

 33 36  0  0  1  0  0  0  0  0999 V2000
   28.6746  -19.3019  -19.2692 N   0  0  0  0  0  0  0  0  0  0  0  0
   27.4042  -19.3395  -18.5664 C   0  0  1  0  0  0  0  0  0  0  0  0
   26.7120  -20.6095  -19.0496 C   0  0  0  0  0  0  0  0  0  0  0  0
   26.1776  -20.3965  -20.4075 C   0  0  0  0  0  0  0  0  0  0  0  0
   25.0379  -19.6487  -20.5955 C   0  0  0  0  0  0  0  0  0  0  0  0
   24.5387  -19.4541  -21.8785 C   0  0  0  0  0  0  0  0  0  0  0  0
   25.1501  -19.9885  -22.9791 C   0  0  0  0  0  0  0  0  0  0  0  0
   26.2939  -20.7408  -22.8071 C   0  0  0  0  0  0  0  0  0  0  0  0
   26.7812  -20.9256  -21.5093 C   0  0  0  0  0  0  0  0  0  0  0  0
   27.6129  -19.3226  -17.1036 C   0  0  0  0  0  0  0  0  0  0  0  0
   28.6914  -19.8673  -16.7008 O   0  0  0  0  0  0  0  0  0  0  0  0
   26.6895  -18.7459  -16.2003 N   0  0  0  0  0  0  0  0  0  0  0  0
   25.4072  -18.1764  -16.5156 C   0  0  0  0  0  0  0  0  0  0  0  0
   24.8635  -17.5581  -15.2360 C   0  0  0  0  0  0  0  0  0  0  0  0
   26.0628  -17.4300  -14.3188 C   0  0  0  0  0  0  0  0  0  0  0  0
   26.8977  -18.6294  -14.7926 C   0  0  1  0  0  0  0  0  0  0  0  0
   26.3116  -19.7958  -14.0452 C   0  0  0  0  0  0  0  0  0  0  0  0
   25.3561  -20.4196  -14.5706 O   0  0  0  0  0  0  0  0  0  0  0  0
   26.7835  -20.2151  -12.7922 N   0  0  0  0  0  0  0  0  0  0  0  0
   26.3807  -21.4328  -12.1168 C   0  0  1  0  0  0  0  0  0  0  0  0
   27.2801  -21.7628  -10.9605 C   0  0  0  0  0  0  0  0  0  0  0  0
   26.8908  -20.9205   -9.8037 C   0  0  0  0  0  0  0  0  0  0  0  0
   25.6887  -20.2342   -9.5916 C   0  0  0  0  0  0  0  0  0  0  0  0
   25.7472  -19.5838   -8.4215 N   0  0  0  0  0  0  0  0  0  0  0  0
   26.9335  -19.7936   -7.8234 C   0  0  0  0  0  0  0  0  0  0  0  0
   27.5019  -19.3728   -6.6377 C   0  0  0  0  0  0  0  0  0  0  0  0
   28.7807  -19.7482   -6.2518 C   0  0  0  0  0  0  0  0  0  0  0  0
   29.4890  -20.5723   -7.1015 C   0  0  0  0  0  0  0  0  0  0  0  0
   28.9190  -20.9950   -8.2920 C   0  0  0  0  0  0  0  0  0  0  0  0
   27.6420  -20.6178   -8.6732 C   0  0  0  0  0  0  0  0  0  0  0  0
   24.9877  -21.3032  -11.6195 C   0  0  0  0  0  0  0  0  0  0  0  0
   24.4360  -20.1964  -11.4241 O   0  0  0  0  0  0  0  0  0  0  0  0
   24.2384  -22.4661  -11.3504 O   0  0  0  0  0  0  0  0  0  0  0  0
  2  1  1  6
  2  3  1  0
  3  4  1  0
  4  5  2  0
  4  9  1  0
  5  6  1  0
  6  7  2  0
  8  7  1  0
  9  8  2  0
 10 12  1  0
 10  2  1  0
 11 10  2  0
 12 16  1  0
 13 12  1  0
 13 14  1  0
 14 15  1  0
 16 15  1  0
 17 19  1  0
 16 17  1  1
 18 17  2  0
 20 21  1  1
 20 19  1  0
 22 21  1  0
 22 30  1  0
 23 24  1  0
 23 22  2  0
 24 25  1  0
 25 30  2  0
 25 26  1  0
 26 27  2  0
 27 28  1  0
 29 28  2  0
 30 29  1  0
 31 20  1  0
 31 33  1  0
 32 31  2  0
M  END
$$$$
