FPW.pdb
     RDKit          3D

 33 36  0  0  1  0  0  0  0  0999 V2000
   21.6673  -11.0060  -17.7289 N   0  0  0  0  0  0  0  0  0  0  0  0
   21.5271   -9.5673  -17.8694 C   0  0  1  0  0  0  0  0  0  0  0  0
   20.1205   -9.3495  -18.4168 C   0  0  0  0  0  0  0  0  0  0  0  0
   20.0613   -9.7939  -19.8218 C   0  0  0  0  0  0  0  0  0  0  0  0
   20.5041   -8.9687  -20.8301 C   0  0  0  0  0  0  0  0  0  0  0  0
   20.4429   -9.3937  -22.1525 C   0  0  0  0  0  0  0  0  0  0  0  0
   19.9501  -10.6233  -22.4929 C   0  0  0  0  0  0  0  0  0  0  0  0
   19.5023  -11.4623  -21.4933 C   0  0  0  0  0  0  0  0  0  0  0  0
   19.5717  -11.0177  -20.1691 C   0  0  0  0  0  0  0  0  0  0  0  0
   21.7490   -8.8894  -16.5754 C   0  0  0  0  0  0  0  0  0  0  0  0
   21.4340   -9.5673  -15.5442 O   0  0  0  0  0  0  0  0  0  0  0  0
   22.2737   -7.5797  -16.4718 N   0  0  0  0  0  0  0  0  0  0  0  0
   22.6007   -6.6879  -17.5515 C   0  0  0  0  0  0  0  0  0  0  0  0
   23.2665   -5.4650  -16.9379 C   0  0  0  0  0  0  0  0  0  0  0  0
   23.6786   -5.8968  -15.5451 C   0  0  0  0  0  0  0  0  0  0  0  0
   22.5765   -6.9230  -15.2407 C   0  0  1  0  0  0  0  0  0  0  0  0
   21.4242   -6.0843  -14.7596 C   0  0  0  0  0  0  0  0  0  0  0  0
   20.7367   -5.4717  -15.6140 O   0  0  0  0  0  0  0  0  0  0  0  0
   21.0860   -5.9569  -13.4039 N   0  0  0  0  0  0  0  0  0  0  0  0
   19.8617   -5.3628  -12.9046 C   0  0  1  0  0  0  0  0  0  0  0  0
   19.1800   -6.2374  -11.8920 C   0  0  0  0  0  0  0  0  0  0  0  0
   20.0989   -6.4371  -10.7452 C   0  0  0  0  0  0  0  0  0  0  0  0
   20.1908   -5.6921   -9.5630 C   0  0  0  0  0  0  0  0  0  0  0  0
   21.1599   -6.2007   -8.7899 N   0  0  0  0  0  0  0  0  0  0  0  0
   21.7350   -7.2590   -9.3885 C   0  0  0  0  0  0  0  0  0  0  0  0
   22.7524   -8.1257   -9.0424 C   0  0  0  0  0  0  0  0  0  0  0  0
   23.1593   -9.1627   -9.8696 C   0  0  0  0  0  0  0  0  0  0  0  0
   22.5075   -9.3116  -11.0762 C   0  0  0  0  0  0  0  0  0  0  0  0
   21.4860   -8.4419  -11.4242 C   0  0  0  0  0  0  0  0  0  0  0  0
   21.0830   -7.4080  -10.5952 C   0  0  0  0  0  0  0  0  0  0  0  0
   20.1503   -4.0453  -12.2840 C   0  0  0  0  0  0  0  0  0  0  0  0
   19.2537   -3.2247  -11.9831 O   0  0  0  0  0  0  0  0  0  0  0  0
   21.4859   -3.6853  -12.0144 O   0  0  0  0  0  0  0  0  0  0  0  0
  2  1  1  1
  2  3  1  0
  3  4  1  0
  4  5  2  0
  4  9  1  0
  5  6  1  0
  6  7  2  0
  8  7  1  0
  9  8  2  0
 10 12  1  0
 10  2  1  0
 11 10  2  0
 12 16  1  0
 13 12  1  0
 13 14  1  0
 14 15  1  0
 16 15  1  0
 17 19  1  0
 16 17  1  6
 18 17  2  0
 20 21  1  1
 20 19  1  0
 22 21  1  0
 22 30  1  0
 23 24  1  0
 23 22  2  0
 24 25  1  0
 25 30  2  0
 25 26  1  0
 26 27  2  0
 27 28  1  0
 29 28  2  0
 30 29  1  0
 31 20  1  0
 31 33  1  0
 32 31  2  0
M  END
$$$$
