FPW.pdb
     RDKit          3D

 33 36  0  0  1  0  0  0  0  0999 V2000
   27.2284  -20.7960  -16.8044 N   0  0  0  0  0  0  0  0  0  0  0  0
   27.7836  -20.0704  -15.6755 C   0  0  1  0  0  0  0  0  0  0  0  0
   27.1076  -18.7037  -15.7010 C   0  0  0  0  0  0  0  0  0  0  0  0
   27.6467  -17.9051  -16.8176 C   0  0  0  0  0  0  0  0  0  0  0  0
   29.0042  -17.8422  -17.0341 C   0  0  0  0  0  0  0  0  0  0  0  0
   29.5050  -17.0854  -18.0875 C   0  0  0  0  0  0  0  0  0  0  0  0
   28.6830  -16.3895  -18.9304 C   0  0  0  0  0  0  0  0  0  0  0  0
   27.3194  -16.4425  -18.7265 C   0  0  0  0  0  0  0  0  0  0  0  0
   26.8340  -17.2089  -17.6620 C   0  0  0  0  0  0  0  0  0  0  0  0
   27.5473  -20.8023  -14.4137 C   0  0  0  0  0  0  0  0  0  0  0  0
   26.4708  -21.4816  -14.3713 O   0  0  0  0  0  0  0  0  0  0  0  0
   28.4439  -20.7619  -13.3202 N   0  0  0  0  0  0  0  0  0  0  0  0
   29.6930  -20.0530  -13.2478 C   0  0  0  0  0  0  0  0  0  0  0  0
   30.3535  -20.4401  -11.9328 C   0  0  0  0  0  0  0  0  0  0  0  0
   29.6379  -21.6992  -11.4871 C   0  0  0  0  0  0  0  0  0  0  0  0
   28.2447  -21.4464  -12.0832 C   0  0  1  0  0  0  0  0  0  0  0  0
   27.5693  -20.5695  -11.0646 C   0  0  0  0  0  0  0  0  0  0  0  0
   28.0674  -19.4409  -10.8273 O   0  0  0  0  0  0  0  0  0  0  0  0
   26.4125  -20.9559  -10.3710 N   0  0  0  0  0  0  0  0  0  0  0  0
   25.7343  -20.1531   -9.3726 C   0  0  1  0  0  0  0  0  0  0  0  0
   24.8931  -19.0734   -9.9901 C   0  0  0  0  0  0  0  0  0  0  0  0
   24.0663  -19.6749  -11.0643 C   0  0  0  0  0  0  0  0  0  0  0  0
   23.1303  -20.7119  -10.9655 C   0  0  0  0  0  0  0  0  0  0  0  0
   22.6099  -20.9593  -12.1752 N   0  0  0  0  0  0  0  0  0  0  0  0
   23.1464  -20.1397  -13.0968 C   0  0  0  0  0  0  0  0  0  0  0  0
   22.9723  -19.9742  -14.4563 C   0  0  0  0  0  0  0  0  0  0  0  0
   23.6749  -19.0258  -15.1859 C   0  0  0  0  0  0  0  0  0  0  0  0
   24.5739  -18.2320  -14.5044 C   0  0  0  0  0  0  0  0  0  0  0  0
   24.7491  -18.3975  -13.1396 C   0  0  0  0  0  0  0  0  0  0  0  0
   24.0456  -19.3456  -12.4153 C   0  0  0  0  0  0  0  0  0  0  0  0
   24.8671  -21.0139   -8.5292 C   0  0  0  0  0  0  0  0  0  0  0  0
   24.6487  -22.2194   -8.7876 O   0  0  0  0  0  0  0  0  0  0  0  0
   24.2545  -20.4674   -7.3836 O   0  0  0  0  0  0  0  0  0  0  0  0
  2  1  1  6
  2  3  1  0
  3  4  1  0
  4  5  2  0
  4  9  1  0
  5  6  1  0
  6  7  2  0
  8  7  1  0
  9  8  2  0
 10 12  1  0
 10  2  1  0
 11 10  2  0
 12 16  1  0
 13 12  1  0
 13 14  1  0
 14 15  1  0
 16 15  1  0
 17 19  1  0
 16 17  1  1
 18 17  2  0
 20 21  1  6
 20 19  1  0
 22 21  1  0
 22 30  1  0
 23 24  1  0
 23 22  2  0
 24 25  1  0
 25 30  2  0
 25 26  1  0
 26 27  2  0
 27 28  1  0
 29 28  2  0
 30 29  1  0
 31 20  1  0
 31 33  1  0
 32 31  2  0
M  END
$$$$
