FPW.pdb
     RDKit          3D

 33 36  0  0  1  0  0  0  0  0999 V2000
   26.2022  -18.4314   -8.5432 N   0  0  0  0  0  0  0  0  0  0  0  0
   27.1715  -19.3031   -9.1834 C   0  0  1  0  0  0  0  0  0  0  0  0
   27.1847  -20.5773   -8.3458 C   0  0  0  0  0  0  0  0  0  0  0  0
   27.7387  -20.2867   -7.0103 C   0  0  0  0  0  0  0  0  0  0  0  0
   28.8270  -19.4553   -6.8761 C   0  0  0  0  0  0  0  0  0  0  0  0
   29.3451  -19.1878   -5.6139 C   0  0  0  0  0  0  0  0  0  0  0  0
   28.8028  -19.7306   -4.4817 C   0  0  0  0  0  0  0  0  0  0  0  0
   27.7112  -20.5663   -4.5997 C   0  0  0  0  0  0  0  0  0  0  0  0
   27.2039  -20.8237   -5.8773 C   0  0  0  0  0  0  0  0  0  0  0  0
   26.8054  -19.5490  -10.5937 C   0  0  0  0  0  0  0  0  0  0  0  0
   25.5690  -19.4131  -10.8673 O   0  0  0  0  0  0  0  0  0  0  0  0
   27.7498  -19.9105  -11.5830 N   0  0  0  0  0  0  0  0  0  0  0  0
   29.0847  -20.4013  -11.3703 C   0  0  0  0  0  0  0  0  0  0  0  0
   29.7485  -20.5033  -12.7356 C   0  0  0  0  0  0  0  0  0  0  0  0
   28.8924  -19.6563  -13.6553 C   0  0  0  0  0  0  0  0  0  0  0  0
   27.5191  -19.8345  -12.9899 C   0  0  1  0  0  0  0  0  0  0  0  0
   27.0161  -21.1399  -13.5425 C   0  0  0  0  0  0  0  0  0  0  0  0
   27.6520  -22.1874  -13.2661 O   0  0  0  0  0  0  0  0  0  0  0  0
   25.8729  -21.2377  -14.3501 N   0  0  0  0  0  0  0  0  0  0  0  0
   25.2428  -22.4795  -14.7525 C   0  0  1  0  0  0  0  0  0  0  0  0
   24.6074  -23.1932  -13.5941 C   0  0  0  0  0  0  0  0  0  0  0  0
   23.6596  -22.2658  -12.9302 C   0  0  0  0  0  0  0  0  0  0  0  0
   22.4924  -21.6933  -13.4510 C   0  0  0  0  0  0  0  0  0  0  0  0
   21.9306  -20.9054  -12.5241 N   0  0  0  0  0  0  0  0  0  0  0  0
   22.6593  -20.9125  -11.3936 C   0  0  0  0  0  0  0  0  0  0  0  0
   22.5372  -20.2941  -10.1653 C   0  0  0  0  0  0  0  0  0  0  0  0
   23.4582  -20.4800   -9.1444 C   0  0  0  0  0  0  0  0  0  0  0  0
   24.5257  -21.3182   -9.3911 C   0  0  0  0  0  0  0  0  0  0  0  0
   24.6489  -21.9393  -10.6239 C   0  0  0  0  0  0  0  0  0  0  0  0
   23.7270  -21.7508  -11.6402 C   0  0  0  0  0  0  0  0  0  0  0  0
   24.2051  -22.2150  -15.7809 C   0  0  0  0  0  0  0  0  0  0  0  0
   23.8368  -21.0598  -16.0934 O   0  0  0  0  0  0  0  0  0  0  0  0
   23.5970  -23.2992  -16.4449 O   0  0  0  0  0  0  0  0  0  0  0  0
  2  1  1  1
  2  3  1  0
  3  4  1  0
  4  5  2  0
  4  9  1  0
  5  6  1  0
  6  7  2  0
  8  7  1  0
  9  8  2  0
 10 12  1  0
 10  2  1  0
 11 10  2  0
 12 16  1  0
 13 12  1  0
 13 14  1  0
 14 15  1  0
 16 15  1  0
 17 19  1  0
 16 17  1  6
 18 17  2  0
 20 21  1  1
 20 19  1  0
 22 21  1  0
 22 30  1  0
 23 24  1  0
 23 22  2  0
 24 25  1  0
 25 30  2  0
 25 26  1  0
 26 27  2  0
 27 28  1  0
 29 28  2  0
 30 29  1  0
 31 20  1  0
 31 33  1  0
 32 31  2  0
M  END
$$$$
