FPW.pdb
     RDKit          3D

 33 36  0  0  1  0  0  0  0  0999 V2000
   25.9384  -20.2103  -17.7313 N   0  0  0  0  0  0  0  0  0  0  0  0
   26.5273  -19.4815  -16.6217 C   0  0  1  0  0  0  0  0  0  0  0  0
   25.7906  -18.1469  -16.5780 C   0  0  0  0  0  0  0  0  0  0  0  0
   26.1486  -17.3443  -17.7623 C   0  0  0  0  0  0  0  0  0  0  0  0
   25.2748  -17.2401  -18.8202 C   0  0  0  0  0  0  0  0  0  0  0  0
   25.6203  -16.4834  -19.9343 C   0  0  0  0  0  0  0  0  0  0  0  0
   26.8178  -15.8278  -20.0179 C   0  0  0  0  0  0  0  0  0  0  0  0
   27.7048  -15.9225  -18.9653 C   0  0  0  0  0  0  0  0  0  0  0  0
   27.3400  -16.6880  -17.8531 C   0  0  0  0  0  0  0  0  0  0  0  0
   26.3999  -20.2470  -15.3642 C   0  0  0  0  0  0  0  0  0  0  0  0
   25.3754  -20.9996  -15.2859 O   0  0  0  0  0  0  0  0  0  0  0  0
   27.3411  -20.1614  -14.3116 N   0  0  0  0  0  0  0  0  0  0  0  0
   28.6195  -19.5035  -14.3417 C   0  0  0  0  0  0  0  0  0  0  0  0
   29.3168  -19.8166  -13.0261 C   0  0  0  0  0  0  0  0  0  0  0  0
   28.5700  -21.0057  -12.4565 C   0  0  0  0  0  0  0  0  0  0  0  0
   27.1650  -20.7396  -13.0181 C   0  0  1  0  0  0  0  0  0  0  0  0
   26.5672  -19.7587  -12.0469 C   0  0  0  0  0  0  0  0  0  0  0  0
   26.5442  -18.5441  -12.3664 O   0  0  0  0  0  0  0  0  0  0  0  0
   26.0370  -20.1400  -10.8051 N   0  0  0  0  0  0  0  0  0  0  0  0
   24.6242  -20.1945  -10.4855 C   0  0  1  0  0  0  0  0  0  0  0  0
   23.8680  -21.0996  -11.4149 C   0  0  0  0  0  0  0  0  0  0  0  0
   23.2381  -20.2718  -12.4719 C   0  0  0  0  0  0  0  0  0  0  0  0
   23.3451  -18.8904  -12.6756 C   0  0  0  0  0  0  0  0  0  0  0  0
   22.6101  -18.5385  -13.7392 N   0  0  0  0  0  0  0  0  0  0  0  0
   22.0053  -19.6150  -14.2725 C   0  0  0  0  0  0  0  0  0  0  0  0
   21.1594  -19.8113  -15.3457 C   0  0  0  0  0  0  0  0  0  0  0  0
   20.6670  -21.0633  -15.6851 C   0  0  0  0  0  0  0  0  0  0  0  0
   21.0520  -22.1346  -14.9060 C   0  0  0  0  0  0  0  0  0  0  0  0
   21.9013  -21.9382  -13.8284 C   0  0  0  0  0  0  0  0  0  0  0  0
   22.3903  -20.6865  -13.4932 C   0  0  0  0  0  0  0  0  0  0  0  0
   24.4346  -20.6707   -9.0921 C   0  0  0  0  0  0  0  0  0  0  0  0
   23.8989  -19.9719   -8.2019 O   0  0  0  0  0  0  0  0  0  0  0  0
   24.8703  -21.9633   -8.7375 O   0  0  0  0  0  0  0  0  0  0  0  0
  2  1  1  6
  2  3  1  0
  3  4  1  0
  4  5  2  0
  4  9  1  0
  5  6  1  0
  6  7  2  0
  8  7  1  0
  9  8  2  0
 10 12  1  0
 10  2  1  0
 11 10  2  0
 12 16  1  0
 13 12  1  0
 13 14  1  0
 14 15  1  0
 16 15  1  0
 17 19  1  0
 16 17  1  1
 18 17  2  0
 20 21  1  6
 20 19  1  0
 22 21  1  0
 22 30  1  0
 23 24  1  0
 23 22  2  0
 24 25  1  0
 25 30  2  0
 25 26  1  0
 26 27  2  0
 27 28  1  0
 29 28  2  0
 30 29  1  0
 31 20  1  0
 31 33  1  0
 32 31  2  0
M  END
$$$$
