FPW.pdb
     RDKit          3D

 33 36  0  0  1  0  0  0  0  0999 V2000
   29.4783  -22.7890  -17.8690 N   0  0  0  0  0  0  0  0  0  0  0  0
   28.3733  -21.8894  -17.5883 C   0  0  1  0  0  0  0  0  0  0  0  0
   27.1284  -22.6058  -18.1007 C   0  0  0  0  0  0  0  0  0  0  0  0
   26.3840  -21.7158  -19.0111 C   0  0  0  0  0  0  0  0  0  0  0  0
   25.4180  -20.8691  -18.5178 C   0  0  0  0  0  0  0  0  0  0  0  0
   24.7187  -20.0346  -19.3826 C   0  0  0  0  0  0  0  0  0  0  0  0
   24.9606  -20.0250  -20.7288 C   0  0  0  0  0  0  0  0  0  0  0  0
   25.9263  -20.8683  -21.2387 C   0  0  0  0  0  0  0  0  0  0  0  0
   26.6193  -21.7004  -20.3537 C   0  0  0  0  0  0  0  0  0  0  0  0
   28.3021  -21.5795  -16.1453 C   0  0  0  0  0  0  0  0  0  0  0  0
   28.7778  -22.4729  -15.3721 O   0  0  0  0  0  0  0  0  0  0  0  0
   27.7479  -20.3795  -15.6415 N   0  0  0  0  0  0  0  0  0  0  0  0
   27.0466  -19.3681  -16.3852 C   0  0  0  0  0  0  0  0  0  0  0  0
   26.7809  -18.2125  -15.4317 C   0  0  0  0  0  0  0  0  0  0  0  0
   27.7246  -18.4363  -14.2674 C   0  0  0  0  0  0  0  0  0  0  0  0
   27.8075  -19.9703  -14.2749 C   0  0  1  0  0  0  0  0  0  0  0  0
   26.5858  -20.4023  -13.5110 C   0  0  0  0  0  0  0  0  0  0  0  0
   25.4693  -20.3247  -14.0814 O   0  0  0  0  0  0  0  0  0  0  0  0
   26.6392  -20.8855  -12.1949 N   0  0  0  0  0  0  0  0  0  0  0  0
   25.5736  -21.6103  -11.5313 C   0  0  1  0  0  0  0  0  0  0  0  0
   26.0131  -22.1833  -10.2147 C   0  0  0  0  0  0  0  0  0  0  0  0
   26.2991  -21.0643   -9.2844 C   0  0  0  0  0  0  0  0  0  0  0  0
   25.4930  -19.9618   -8.9745 C   0  0  0  0  0  0  0  0  0  0  0  0
   26.1288  -19.1789   -8.0923 N   0  0  0  0  0  0  0  0  0  0  0  0
   27.3322  -19.6947   -7.7844 C   0  0  0  0  0  0  0  0  0  0  0  0
   28.3632  -19.3042   -6.9534 C   0  0  0  0  0  0  0  0  0  0  0  0
   29.5298  -20.0431   -6.8184 C   0  0  0  0  0  0  0  0  0  0  0  0
   29.6385  -21.2063   -7.5519 C   0  0  0  0  0  0  0  0  0  0  0  0
   28.6038  -21.5989   -8.3862 C   0  0  0  0  0  0  0  0  0  0  0  0
   27.4410  -20.8581   -8.5180 C   0  0  0  0  0  0  0  0  0  0  0  0
   24.4132  -20.7133  -11.3009 C   0  0  0  0  0  0  0  0  0  0  0  0
   23.2738  -21.1387  -11.0030 O   0  0  0  0  0  0  0  0  0  0  0  0
   24.5826  -19.3191  -11.4181 O   0  0  0  0  0  0  0  0  0  0  0  0
  2  1  1  1
  2  3  1  0
  3  4  1  0
  4  5  2  0
  4  9  1  0
  5  6  1  0
  6  7  2  0
  8  7  1  0
  9  8  2  0
 10 12  1  0
 10  2  1  0
 11 10  2  0
 12 16  1  0
 13 12  1  0
 13 14  1  0
 14 15  1  0
 16 15  1  0
 17 19  1  0
 16 17  1  1
 18 17  2  0
 20 21  1  1
 20 19  1  0
 22 21  1  0
 22 30  1  0
 23 24  1  0
 23 22  2  0
 24 25  1  0
 25 30  2  0
 25 26  1  0
 26 27  2  0
 27 28  1  0
 29 28  2  0
 30 29  1  0
 31 20  1  0
 31 33  1  0
 32 31  2  0
M  END
$$$$
