FPW.pdb
     RDKit          3D

 33 36  0  0  1  0  0  0  0  0999 V2000
   25.4006  -16.1535  -20.5062 N   0  0  0  0  0  0  0  0  0  0  0  0
   25.1993  -15.7411  -19.1283 C   0  0  1  0  0  0  0  0  0  0  0  0
   23.9836  -14.8207  -19.1551 C   0  0  0  0  0  0  0  0  0  0  0  0
   24.2877  -13.6214  -19.9577 C   0  0  0  0  0  0  0  0  0  0  0  0
   25.3831  -12.8446  -19.6573 C   0  0  0  0  0  0  0  0  0  0  0  0
   25.6621  -11.7141  -20.4171 C   0  0  0  0  0  0  0  0  0  0  0  0
   24.8735  -11.3401  -21.4702 C   0  0  0  0  0  0  0  0  0  0  0  0
   23.7714  -12.1087  -21.7840 C   0  0  0  0  0  0  0  0  0  0  0  0
   23.5067  -13.2422  -21.0085 C   0  0  0  0  0  0  0  0  0  0  0  0
   25.0091  -16.9151  -18.2513 C   0  0  0  0  0  0  0  0  0  0  0  0
   24.5467  -17.9541  -18.8247 O   0  0  0  0  0  0  0  0  0  0  0  0
   25.3144  -16.9024  -16.8701 N   0  0  0  0  0  0  0  0  0  0  0  0
   25.9421  -15.8414  -16.1297 C   0  0  0  0  0  0  0  0  0  0  0  0
   26.1870  -16.3608  -14.7207 C   0  0  0  0  0  0  0  0  0  0  0  0
   26.0665  -17.8675  -14.8287 C   0  0  0  0  0  0  0  0  0  0  0  0
   25.0448  -17.9780  -15.9707 C   0  0  1  0  0  0  0  0  0  0  0  0
   23.7166  -17.8102  -15.2851 C   0  0  0  0  0  0  0  0  0  0  0  0
   23.4738  -16.7160  -14.7179 O   0  0  0  0  0  0  0  0  0  0  0  0
   22.7416  -18.8186  -15.2515 N   0  0  0  0  0  0  0  0  0  0  0  0
   21.3925  -18.6545  -14.7473 C   0  0  1  0  0  0  0  0  0  0  0  0
   20.6172  -17.6319  -15.5271 C   0  0  0  0  0  0  0  0  0  0  0  0
   20.6249  -18.0231  -16.9576 C   0  0  0  0  0  0  0  0  0  0  0  0
   20.5504  -19.3081  -17.5093 C   0  0  0  0  0  0  0  0  0  0  0  0
   20.5973  -19.2227  -18.8457 N   0  0  0  0  0  0  0  0  0  0  0  0
   20.7003  -17.9389  -19.2336 C   0  0  0  0  0  0  0  0  0  0  0  0
   20.7828  -17.3067  -20.4581 C   0  0  0  0  0  0  0  0  0  0  0  0
   20.8849  -15.9281  -20.5776 C   0  0  0  0  0  0  0  0  0  0  0  0
   20.9023  -15.1850  -19.4156 C   0  0  0  0  0  0  0  0  0  0  0  0
   20.8194  -15.8192  -18.1860 C   0  0  0  0  0  0  0  0  0  0  0  0
   20.7177  -17.1957  -18.0714 C   0  0  0  0  0  0  0  0  0  0  0  0
   20.6674  -19.9490  -14.7999 C   0  0  0  0  0  0  0  0  0  0  0  0
   19.5444  -20.1209  -14.2735 O   0  0  0  0  0  0  0  0  0  0  0  0
   21.2532  -21.0434  -15.4672 O   0  0  0  0  0  0  0  0  0  0  0  0
  2  1  1  6
  2  3  1  0
  3  4  1  0
  4  5  2  0
  4  9  1  0
  5  6  1  0
  6  7  2  0
  8  7  1  0
  9  8  2  0
 10 12  1  0
 10  2  1  0
 11 10  2  0
 12 16  1  0
 13 12  1  0
 13 14  1  0
 14 15  1  0
 16 15  1  0
 17 19  1  0
 16 17  1  1
 18 17  2  0
 20 21  1  6
 20 19  1  0
 22 21  1  0
 22 30  1  0
 23 24  1  0
 23 22  2  0
 24 25  1  0
 25 30  2  0
 25 26  1  0
 26 27  2  0
 27 28  1  0
 29 28  2  0
 30 29  1  0
 31 20  1  0
 31 33  1  0
 32 31  2  0
M  END
$$$$
