FPW.pdb
     RDKit          3D

 33 36  0  0  1  0  0  0  0  0999 V2000
   27.2801  -17.8148  -17.6351 N   0  0  0  0  0  0  0  0  0  0  0  0
   27.3374  -18.7754  -16.5473 C   0  0  1  0  0  0  0  0  0  0  0  0
   26.9173  -18.0018  -15.3021 C   0  0  0  0  0  0  0  0  0  0  0  0
   27.0372  -18.8695  -14.1157 C   0  0  0  0  0  0  0  0  0  0  0  0
   28.2564  -19.4037  -13.7668 C   0  0  0  0  0  0  0  0  0  0  0  0
   28.3611  -20.2228  -12.6482 C   0  0  0  0  0  0  0  0  0  0  0  0
   27.2775  -20.5218  -11.8690 C   0  0  0  0  0  0  0  0  0  0  0  0
   26.0481  -19.9938  -12.2058 C   0  0  0  0  0  0  0  0  0  0  0  0
   25.9620  -19.1721  -13.3342 C   0  0  0  0  0  0  0  0  0  0  0  0
   26.4630  -19.9341  -16.8235 C   0  0  0  0  0  0  0  0  0  0  0  0
   25.3452  -19.6557  -17.3668 O   0  0  0  0  0  0  0  0  0  0  0  0
   26.8269  -21.2652  -16.5125 N   0  0  0  0  0  0  0  0  0  0  0  0
   28.0008  -21.7015  -15.8057 C   0  0  0  0  0  0  0  0  0  0  0  0
   28.0153  -23.2222  -15.8546 C   0  0  0  0  0  0  0  0  0  0  0  0
   27.0530  -23.5908  -16.9656 C   0  0  0  0  0  0  0  0  0  0  0  0
   26.0648  -22.4184  -16.8703 C   0  0  1  0  0  0  0  0  0  0  0  0
   25.1241  -22.8268  -15.7698 C   0  0  0  0  0  0  0  0  0  0  0  0
   25.6154  -23.2295  -14.6861 O   0  0  0  0  0  0  0  0  0  0  0  0
   23.7281  -22.7781  -15.9011 N   0  0  0  0  0  0  0  0  0  0  0  0
   22.7830  -23.0283  -14.8308 C   0  0  1  0  0  0  0  0  0  0  0  0
   22.8803  -22.0026  -13.7384 C   0  0  0  0  0  0  0  0  0  0  0  0
   22.7065  -20.6569  -14.3369 C   0  0  0  0  0  0  0  0  0  0  0  0
   21.5943  -20.1424  -15.0147 C   0  0  0  0  0  0  0  0  0  0  0  0
   21.8514  -18.8862  -15.4037 N   0  0  0  0  0  0  0  0  0  0  0  0
   23.0877  -18.5176  -15.0233 C   0  0  0  0  0  0  0  0  0  0  0  0
   23.8346  -17.3649  -15.1628 C   0  0  0  0  0  0  0  0  0  0  0  0
   25.1229  -17.2484  -14.6608 C   0  0  0  0  0  0  0  0  0  0  0  0
   25.6536  -18.3383  -14.0024 C   0  0  0  0  0  0  0  0  0  0  0  0
   24.9043  -19.4957  -13.8620 C   0  0  0  0  0  0  0  0  0  0  0  0
   23.6186  -19.6076  -14.3648 C   0  0  0  0  0  0  0  0  0  0  0  0
   21.3974  -23.0312  -15.3643 C   0  0  0  0  0  0  0  0  0  0  0  0
   20.4090  -23.3945  -14.6868 O   0  0  0  0  0  0  0  0  0  0  0  0
   21.1653  -22.6099  -16.6889 O   0  0  0  0  0  0  0  0  0  0  0  0
  2  1  1  6
  2  3  1  0
  3  4  1  0
  4  5  2  0
  4  9  1  0
  5  6  1  0
  6  7  2  0
  8  7  1  0
  9  8  2  0
 10 12  1  0
 10  2  1  0
 11 10  2  0
 12 16  1  0
 13 12  1  0
 13 14  1  0
 14 15  1  0
 16 15  1  0
 17 19  1  0
 16 17  1  1
 18 17  2  0
 20 21  1  1
 20 19  1  0
 22 21  1  0
 22 30  1  0
 23 24  1  0
 23 22  2  0
 24 25  1  0
 25 30  2  0
 25 26  1  0
 26 27  2  0
 27 28  1  0
 29 28  2  0
 30 29  1  0
 31 20  1  0
 31 33  1  0
 32 31  2  0
M  END
$$$$
