FPW.pdb
     RDKit          3D

 33 36  0  0  1  0  0  0  0  0999 V2000
   28.3401  -18.4159  -15.1040 N   0  0  0  0  0  0  0  0  0  0  0  0
   28.4946  -19.5507  -14.2109 C   0  0  1  0  0  0  0  0  0  0  0  0
   29.6267  -19.1684  -13.2633 C   0  0  0  0  0  0  0  0  0  0  0  0
   30.3868  -20.3749  -12.8873 C   0  0  0  0  0  0  0  0  0  0  0  0
   30.2918  -20.8861  -11.6132 C   0  0  0  0  0  0  0  0  0  0  0  0
   31.0133  -22.0226  -11.2654 C   0  0  0  0  0  0  0  0  0  0  0  0
   31.8278  -22.6616  -12.1593 C   0  0  0  0  0  0  0  0  0  0  0  0
   31.9336  -22.1613  -13.4408 C   0  0  0  0  0  0  0  0  0  0  0  0
   31.2005  -21.0173  -13.7723 C   0  0  0  0  0  0  0  0  0  0  0  0
   27.2292  -19.8385  -13.5041 C   0  0  0  0  0  0  0  0  0  0  0  0
   26.7036  -18.8467  -12.9023 O   0  0  0  0  0  0  0  0  0  0  0  0
   26.6304  -21.1200  -13.4874 N   0  0  0  0  0  0  0  0  0  0  0  0
   26.9942  -22.2584  -14.2873 C   0  0  0  0  0  0  0  0  0  0  0  0
   25.9665  -23.3465  -14.0135 C   0  0  0  0  0  0  0  0  0  0  0  0
   24.7951  -22.6309  -13.3716 C   0  0  0  0  0  0  0  0  0  0  0  0
   25.5329  -21.4909  -12.6530 C   0  0  1  0  0  0  0  0  0  0  0  0
   25.9986  -22.1159  -11.3665 C   0  0  0  0  0  0  0  0  0  0  0  0
   27.0853  -22.7460  -11.3703 O   0  0  0  0  0  0  0  0  0  0  0  0
   25.2747  -22.0264  -10.1679 N   0  0  0  0  0  0  0  0  0  0  0  0
   25.5770  -21.1177   -9.0797 C   0  0  1  0  0  0  0  0  0  0  0  0
   26.7923  -20.2818   -9.3613 C   0  0  0  0  0  0  0  0  0  0  0  0
   27.0928  -19.4653   -8.1603 C   0  0  0  0  0  0  0  0  0  0  0  0
   26.8703  -18.0974   -7.9593 C   0  0  0  0  0  0  0  0  0  0  0  0
   27.2939  -17.7520   -6.7359 N   0  0  0  0  0  0  0  0  0  0  0  0
   27.7957  -18.8202   -6.0908 C   0  0  0  0  0  0  0  0  0  0  0  0
   28.3507  -19.0179   -4.8423 C   0  0  0  0  0  0  0  0  0  0  0  0
   28.8016  -20.2593   -4.4172 C   0  0  0  0  0  0  0  0  0  0  0  0
   28.6794  -21.3182   -5.2927 C   0  0  0  0  0  0  0  0  0  0  0  0
   28.1222  -21.1204   -6.5463 C   0  0  0  0  0  0  0  0  0  0  0  0
   27.6734  -19.8793   -6.9665 C   0  0  0  0  0  0  0  0  0  0  0  0
   24.4226  -20.2177   -8.8311 C   0  0  0  0  0  0  0  0  0  0  0  0
   24.1175  -19.8030   -7.6897 O   0  0  0  0  0  0  0  0  0  0  0  0
   23.6240  -19.8015   -9.9152 O   0  0  0  0  0  0  0  0  0  0  0  0
  2  1  1  6
  2  3  1  0
  3  4  1  0
  4  5  2  0
  4  9  1  0
  5  6  1  0
  6  7  2  0
  8  7  1  0
  9  8  2  0
 10 12  1  0
 10  2  1  0
 11 10  2  0
 12 16  1  0
 13 12  1  0
 13 14  1  0
 14 15  1  0
 16 15  1  0
 17 19  1  0
 16 17  1  1
 18 17  2  0
 20 21  1  6
 20 19  1  0
 22 21  1  0
 22 30  1  0
 23 24  1  0
 23 22  2  0
 24 25  1  0
 25 30  2  0
 25 26  1  0
 26 27  2  0
 27 28  1  0
 29 28  2  0
 30 29  1  0
 31 20  1  0
 31 33  1  0
 32 31  2  0
M  END
$$$$
