TMS.pdb
     RDKit          3D

 22 21  0  0  1  0  0  0  0  0999 V2000
    6.8448  -17.6470   20.9706 C   0  0  0  0  0  0  0  0  0  0  0  0
    7.9653  -17.1896   20.0631 C   0  0  1  0  0  0  0  0  0  0  0  0
    7.6022  -17.3602   18.7343 O   0  0  0  0  0  0  0  0  0  0  0  0
    8.1786  -15.6952   20.3216 C   0  0  2  0  0  0  0  0  0  0  0  0
    9.1239  -15.2686   19.2915 N   0  0  0  0  0  0  0  0  0  0  0  0
    8.6854  -15.4503   21.6820 C   0  0  0  0  0  0  0  0  0  0  0  0
    9.8914  -15.7132   21.9885 O   0  0  0  0  0  0  0  0  0  0  0  0
    7.0933  -10.9040   26.8071 C   0  0  0  0  0  0  0  0  0  0  0  0
    6.4389  -12.5728   27.0400 S   0  0  0  0  0  0  0  0  0  0  0  0
    7.5799  -13.7282   26.1924 C   0  0  0  0  0  0  0  0  0  0  0  0
    7.2571  -13.8554   24.7546 C   0  0  0  0  0  0  0  0  0  0  0  0
    8.2779  -14.6953   24.0308 C   0  0  2  0  0  0  0  0  0  0  0  0
    7.8187  -14.9177   22.6519 N   0  0  0  0  0  0  0  0  0  0  0  0
    8.4807  -15.9702   24.7138 C   0  0  0  0  0  0  0  0  0  0  0  0
    7.5795  -16.8141   24.8451 O   0  0  0  0  0  0  0  0  0  0  0  0
   12.2461  -17.6388   25.1127 O   0  0  0  0  0  0  0  0  0  0  0  0
   11.0825  -18.3726   25.1603 C   0  0  0  0  0  0  0  0  0  0  0  0
    9.9884  -17.5980   25.8791 C   0  0  2  0  0  0  0  0  0  0  0  0
    9.7639  -16.3121   25.2775 N   0  0  0  0  0  0  0  0  0  0  0  0
   10.2619  -17.4216   27.3071 C   0  0  0  0  0  0  0  0  0  0  0  0
   10.3206  -16.2825   27.8696 O   0  0  0  0  0  0  0  0  0  0  0  0
   10.4793  -18.5113   28.1580 O   0  0  0  0  0  0  0  0  0  0  0  0
  2  1  1  1
  2  3  1  0
  4  2  1  0
  4  5  1  6
  6  4  1  0
  6  7  2  0
  8  9  1  0
  9 10  1  0
 10 11  1  0
 12 11  1  1
 12 13  1  0
 12 14  1  0
 13  6  1  0
 14 15  2  0
 14 19  1  0
 16 17  1  0
 18 17  1  6
 18 20  1  0
 19 18  1  0
 20 21  2  0
 20 22  1  0
M  END
$$$$
