TMS.pdb
     RDKit          3D

 22 21  0  0  1  0  0  0  0  0999 V2000
    6.8854  -14.6174   18.3354 C   0  0  0  0  0  0  0  0  0  0  0  0
    7.5419  -14.8100   19.6847 C   0  0  1  0  0  0  0  0  0  0  0  0
    8.8419  -15.2681   19.5212 O   0  0  0  0  0  0  0  0  0  0  0  0
    7.5907  -13.4394   20.3664 C   0  0  2  0  0  0  0  0  0  0  0  0
    8.3326  -12.5868   19.4394 N   0  0  0  0  0  0  0  0  0  0  0  0
    8.2319  -13.5180   21.6895 C   0  0  0  0  0  0  0  0  0  0  0  0
    9.4743  -13.2848   21.8297 O   0  0  0  0  0  0  0  0  0  0  0  0
    7.3589  -11.6080   27.9882 C   0  0  0  0  0  0  0  0  0  0  0  0
    6.0509  -11.7202   26.7456 S   0  0  0  0  0  0  0  0  0  0  0  0
    6.8299  -12.2755   25.1836 C   0  0  0  0  0  0  0  0  0  0  0  0
    7.1199  -13.7257   25.2054 C   0  0  0  0  0  0  0  0  0  0  0  0
    8.0838  -14.1134   24.1136 C   0  0  2  0  0  0  0  0  0  0  0  0
    7.4540  -13.8558   22.8103 N   0  0  0  0  0  0  0  0  0  0  0  0
    8.4624  -15.5192   24.2293 C   0  0  0  0  0  0  0  0  0  0  0  0
    7.7035  -16.4488   23.9108 O   0  0  0  0  0  0  0  0  0  0  0  0
   12.3710  -16.5092   24.2356 O   0  0  0  0  0  0  0  0  0  0  0  0
   11.4508  -17.4947   23.9588 C   0  0  0  0  0  0  0  0  0  0  0  0
   10.1727  -17.2743   24.7537 C   0  0  2  0  0  0  0  0  0  0  0  0
    9.7617  -15.8972   24.7292 N   0  0  0  0  0  0  0  0  0  0  0  0
   10.2850  -17.7198   26.1444 C   0  0  0  0  0  0  0  0  0  0  0  0
   10.0074  -16.9767   27.1385 O   0  0  0  0  0  0  0  0  0  0  0  0
   10.7110  -19.0114   26.4746 O   0  0  0  0  0  0  0  0  0  0  0  0
  2  1  1  6
  2  3  1  0
  4  2  1  0
  4  5  1  6
  6  4  1  0
  6  7  2  0
  8  9  1  0
  9 10  1  0
 10 11  1  0
 12 11  1  1
 12 13  1  0
 12 14  1  0
 13  6  1  0
 14 15  2  0
 14 19  1  0
 16 17  1  0
 18 17  1  1
 18 20  1  0
 19 18  1  0
 20 21  2  0
 20 22  1  0
M  END
$$$$
