TMS.pdb
     RDKit          3D

 22 21  0  0  1  0  0  0  0  0999 V2000
    6.8450  -15.9607   19.4724 C   0  0  0  0  0  0  0  0  0  0  0  0
    7.8290  -14.9979   18.8455 C   0  0  1  0  0  0  0  0  0  0  0  0
    7.5057  -14.7867   17.5122 O   0  0  0  0  0  0  0  0  0  0  0  0
    7.7029  -13.6674   19.5936 C   0  0  2  0  0  0  0  0  0  0  0  0
    8.4232  -12.7026   18.7648 N   0  0  0  0  0  0  0  0  0  0  0  0
    8.2570  -13.7596   20.9545 C   0  0  0  0  0  0  0  0  0  0  0  0
    9.5045  -13.9187   21.1440 O   0  0  0  0  0  0  0  0  0  0  0  0
    7.0392  -11.8803   28.4126 C   0  0  0  0  0  0  0  0  0  0  0  0
    6.1771  -12.2471   26.8667 S   0  0  0  0  0  0  0  0  0  0  0  0
    7.3804  -13.0634   25.7528 C   0  0  0  0  0  0  0  0  0  0  0  0
    6.8896  -13.1052   24.3581 C   0  0  0  0  0  0  0  0  0  0  0  0
    7.9106  -13.7123   23.4306 C   0  0  2  0  0  0  0  0  0  0  0  0
    7.3892  -13.6694   22.0565 N   0  0  0  0  0  0  0  0  0  0  0  0
    8.2137  -15.0872   23.8194 C   0  0  0  0  0  0  0  0  0  0  0  0
    7.4187  -16.0255   23.6489 O   0  0  0  0  0  0  0  0  0  0  0  0
   11.3697  -18.5080   23.9640 O   0  0  0  0  0  0  0  0  0  0  0  0
   11.0428  -17.1850   23.7705 C   0  0  0  0  0  0  0  0  0  0  0  0
    9.8572  -16.7924   24.6388 C   0  0  2  0  0  0  0  0  0  0  0  0
    9.4764  -15.4221   24.4313 N   0  0  0  0  0  0  0  0  0  0  0  0
   10.1001  -17.0150   26.0659 C   0  0  0  0  0  0  0  0  0  0  0  0
   10.4611  -18.1366   26.5445 O   0  0  0  0  0  0  0  0  0  0  0  0
    9.9487  -15.9926   27.0095 O   0  0  0  0  0  0  0  0  0  0  0  0
  2  1  1  1
  2  3  1  0
  4  2  1  0
  4  5  1  6
  6  4  1  0
  6  7  2  0
  8  9  1  0
  9 10  1  0
 10 11  1  0
 12 11  1  1
 12 13  1  0
 12 14  1  0
 13  6  1  0
 14 15  2  0
 14 19  1  0
 16 17  1  0
 18 17  1  6
 18 20  1  0
 19 18  1  0
 20 21  2  0
 20 22  1  0
M  END
$$$$
