TMS.pdb
     RDKit          3D

 22 21  0  0  1  0  0  0  0  0999 V2000
    6.5543  -17.5604   20.9540 C   0  0  0  0  0  0  0  0  0  0  0  0
    7.6302  -17.1885   19.9577 C   0  0  1  0  0  0  0  0  0  0  0  0
    7.1988  -17.4602   18.6667 O   0  0  0  0  0  0  0  0  0  0  0  0
    7.8661  -15.6806   20.0849 C   0  0  2  0  0  0  0  0  0  0  0  0
    8.7662  -15.3485   18.9821 N   0  0  0  0  0  0  0  0  0  0  0  0
    8.4367  -15.3329   21.3968 C   0  0  0  0  0  0  0  0  0  0  0  0
    9.6593  -15.5635   21.6608 O   0  0  0  0  0  0  0  0  0  0  0  0
    7.0209  -11.8891   28.3382 C   0  0  0  0  0  0  0  0  0  0  0  0
    6.3597  -12.2017   26.6851 S   0  0  0  0  0  0  0  0  0  0  0  0
    7.5397  -13.3096   25.8274 C   0  0  0  0  0  0  0  0  0  0  0  0
    7.1431  -13.5439   24.4219 C   0  0  0  0  0  0  0  0  0  0  0  0
    8.1312  -14.4309   23.7090 C   0  0  2  0  0  0  0  0  0  0  0  0
    7.6130  -14.7374   22.3676 N   0  0  0  0  0  0  0  0  0  0  0  0
    8.3621  -15.6615   24.4610 C   0  0  0  0  0  0  0  0  0  0  0  0
    7.4725  -16.5038   24.6626 O   0  0  0  0  0  0  0  0  0  0  0  0
   12.1358  -17.2062   24.7695 O   0  0  0  0  0  0  0  0  0  0  0  0
   11.0208  -17.9940   24.9448 C   0  0  0  0  0  0  0  0  0  0  0  0
    9.9216  -17.2183   25.6546 C   0  0  2  0  0  0  0  0  0  0  0  0
    9.6609  -15.9583   25.0141 N   0  0  0  0  0  0  0  0  0  0  0  0
   10.2129  -16.9884   27.0714 C   0  0  0  0  0  0  0  0  0  0  0  0
   10.2203  -15.8328   27.6025 O   0  0  0  0  0  0  0  0  0  0  0  0
   10.5063  -18.0409   27.9459 O   0  0  0  0  0  0  0  0  0  0  0  0
  2  1  1  1
  2  3  1  0
  4  2  1  0
  4  5  1  6
  6  4  1  0
  6  7  2  0
  8  9  1  0
  9 10  1  0
 10 11  1  0
 12 11  1  1
 12 13  1  0
 12 14  1  0
 13  6  1  0
 14 15  2  0
 14 19  1  0
 16 17  1  0
 18 17  1  6
 18 20  1  0
 19 18  1  0
 20 21  2  0
 20 22  1  0
M  END
$$$$
