TMS.pdb
     RDKit          3D

 22 21  0  0  1  0  0  0  0  0999 V2000
    6.7341  -17.9951   20.8574 C   0  0  0  0  0  0  0  0  0  0  0  0
    7.7689  -17.5843   19.8333 C   0  0  1  0  0  0  0  0  0  0  0  0
    7.3278  -17.9020   18.5561 O   0  0  0  0  0  0  0  0  0  0  0  0
    7.9258  -16.0639   19.9300 C   0  0  2  0  0  0  0  0  0  0  0  0
    8.7691  -15.7017   18.7923 N   0  0  0  0  0  0  0  0  0  0  0  0
    8.5199  -15.6639   21.2164 C   0  0  0  0  0  0  0  0  0  0  0  0
    9.7706  -15.7702   21.4210 O   0  0  0  0  0  0  0  0  0  0  0  0
    7.3554  -11.7973   27.9483 C   0  0  0  0  0  0  0  0  0  0  0  0
    6.6359  -12.2268   26.3467 S   0  0  0  0  0  0  0  0  0  0  0  0
    7.7415  -13.4616   25.5667 C   0  0  0  0  0  0  0  0  0  0  0  0
    7.3023  -13.7957   24.1945 C   0  0  0  0  0  0  0  0  0  0  0  0
    8.2396  -14.7760   23.5372 C   0  0  2  0  0  0  0  0  0  0  0  0
    7.6871  -15.1575   22.2291 N   0  0  0  0  0  0  0  0  0  0  0  0
    8.4291  -15.9565   24.3759 C   0  0  0  0  0  0  0  0  0  0  0  0
    7.5110  -16.7502   24.6379 O   0  0  0  0  0  0  0  0  0  0  0  0
   12.1310  -17.6999   24.7223 O   0  0  0  0  0  0  0  0  0  0  0  0
   10.9495  -18.3754   24.9281 C   0  0  0  0  0  0  0  0  0  0  0  0
    9.9448  -17.4916   25.6513 C   0  0  2  0  0  0  0  0  0  0  0  0
    9.7182  -16.2584   24.9486 N   0  0  0  0  0  0  0  0  0  0  0  0
   10.3383  -17.1958   27.0307 C   0  0  0  0  0  0  0  0  0  0  0  0
   10.5028  -16.0136   27.4700 O   0  0  0  0  0  0  0  0  0  0  0  0
   10.5618  -18.2098   27.9691 O   0  0  0  0  0  0  0  0  0  0  0  0
  2  1  1  1
  2  3  1  0
  4  2  1  0
  4  5  1  6
  6  4  1  0
  6  7  2  0
  8  9  1  0
  9 10  1  0
 10 11  1  0
 12 11  1  1
 12 13  1  0
 12 14  1  0
 13  6  1  0
 14 15  2  0
 14 19  1  0
 16 17  1  0
 18 17  1  6
 18 20  1  0
 19 18  1  0
 20 21  2  0
 20 22  1  0
M  END
$$$$
