TMS.pdb
     RDKit          3D

 22 21  0  0  1  0  0  0  0  0999 V2000
    6.8712  -17.5628   18.8757 C   0  0  0  0  0  0  0  0  0  0  0  0
    7.4613  -17.3079   20.2450 C   0  0  1  0  0  0  0  0  0  0  0  0
    8.4954  -18.2003   20.4921 O   0  0  0  0  0  0  0  0  0  0  0  0
    8.0353  -15.8881   20.2358 C   0  0  2  0  0  0  0  0  0  0  0  0
    9.0875  -15.9166   19.2215 N   0  0  0  0  0  0  0  0  0  0  0  0
    8.5469  -15.5047   21.5620 C   0  0  0  0  0  0  0  0  0  0  0  0
    9.7668  -15.6884   21.8713 O   0  0  0  0  0  0  0  0  0  0  0  0
    7.0083  -11.4516   28.1071 C   0  0  0  0  0  0  0  0  0  0  0  0
    6.3043  -12.0554   26.5555 S   0  0  0  0  0  0  0  0  0  0  0  0
    7.5114  -13.2263   25.8293 C   0  0  0  0  0  0  0  0  0  0  0  0
    7.0750  -13.7026   24.4988 C   0  0  0  0  0  0  0  0  0  0  0  0
    8.1456  -14.5233   23.8267 C   0  0  2  0  0  0  0  0  0  0  0  0
    7.6692  -14.9272   22.4957 N   0  0  0  0  0  0  0  0  0  0  0  0
    8.4800  -15.6979   24.6279 C   0  0  0  0  0  0  0  0  0  0  0  0
    7.6921  -16.6421   24.7992 O   0  0  0  0  0  0  0  0  0  0  0  0
   11.9661  -18.6069   26.0974 O   0  0  0  0  0  0  0  0  0  0  0  0
   11.5594  -17.4765   25.4256 C   0  0  0  0  0  0  0  0  0  0  0  0
   10.1758  -17.0457   25.8880 C   0  0  2  0  0  0  0  0  0  0  0  0
    9.7671  -15.8148   25.2686 N   0  0  0  0  0  0  0  0  0  0  0  0
   10.0804  -16.9088   27.3431 C   0  0  0  0  0  0  0  0  0  0  0  0
    9.8048  -15.8109   27.9229 O   0  0  0  0  0  0  0  0  0  0  0  0
   10.2892  -17.9933   28.2027 O   0  0  0  0  0  0  0  0  0  0  0  0
  2  1  1  6
  2  3  1  0
  4  2  1  0
  4  5  1  6
  6  4  1  0
  6  7  2  0
  8  9  1  0
  9 10  1  0
 10 11  1  0
 12 11  1  1
 12 13  1  0
 12 14  1  0
 13  6  1  0
 14 15  2  0
 14 19  1  0
 16 17  1  0
 18 17  1  1
 18 20  1  0
 19 18  1  0
 20 21  2  0
 20 22  1  0
M  END
$$$$
