TMS.pdb
     RDKit          3D

 22 21  0  0  1  0  0  0  0  0999 V2000
    6.9153  -15.8849   19.5898 C   0  0  0  0  0  0  0  0  0  0  0  0
    7.8793  -14.9031   18.9612 C   0  0  1  0  0  0  0  0  0  0  0  0
    7.5279  -14.6704   17.6386 O   0  0  0  0  0  0  0  0  0  0  0  0
    7.7580  -13.5874   19.7357 C   0  0  2  0  0  0  0  0  0  0  0  0
    8.4732  -12.6066   18.9215 N   0  0  0  0  0  0  0  0  0  0  0  0
    8.3204  -13.7060   21.0912 C   0  0  0  0  0  0  0  0  0  0  0  0
    9.5782  -13.7184   21.2792 O   0  0  0  0  0  0  0  0  0  0  0  0
    6.7728  -10.7019   27.0832 C   0  0  0  0  0  0  0  0  0  0  0  0
    6.2372  -12.4270   27.0147 S   0  0  0  0  0  0  0  0  0  0  0  0
    7.3918  -13.3118   25.9014 C   0  0  0  0  0  0  0  0  0  0  0  0
    6.9629  -13.2213   24.4888 C   0  0  0  0  0  0  0  0  0  0  0  0
    7.9718  -13.8512   23.5631 C   0  0  2  0  0  0  0  0  0  0  0  0
    7.4492  -13.8063   22.1896 N   0  0  0  0  0  0  0  0  0  0  0  0
    8.2512  -15.2290   23.9588 C   0  0  0  0  0  0  0  0  0  0  0  0
    7.3782  -16.1114   23.9866 O   0  0  0  0  0  0  0  0  0  0  0  0
   12.1670  -16.7020   24.1249 O   0  0  0  0  0  0  0  0  0  0  0  0
   11.0813  -17.5266   23.9355 C   0  0  0  0  0  0  0  0  0  0  0  0
    9.8688  -16.9990   24.6875 C   0  0  2  0  0  0  0  0  0  0  0  0
    9.5816  -15.6336   24.3427 N   0  0  0  0  0  0  0  0  0  0  0  0
   10.0094  -17.1104   26.1411 C   0  0  0  0  0  0  0  0  0  0  0  0
    9.9821  -16.1074   26.9225 O   0  0  0  0  0  0  0  0  0  0  0  0
   10.1854  -18.3462   26.7740 O   0  0  0  0  0  0  0  0  0  0  0  0
  2  1  1  1
  2  3  1  0
  4  2  1  0
  4  5  1  6
  6  4  1  0
  6  7  2  0
  8  9  1  0
  9 10  1  0
 10 11  1  0
 12 11  1  1
 12 13  1  0
 12 14  1  0
 13  6  1  0
 14 15  2  0
 14 19  1  0
 16 17  1  0
 18 17  1  6
 18 20  1  0
 19 18  1  0
 20 21  2  0
 20 22  1  0
M  END
$$$$
