DTK.pdb
     RDKit          3D

 25 24  0  0  1  0  0  0  0  0999 V2000
   20.1127  -13.8727  -15.9964 N   0  0  0  0  0  0  0  0  0  0  0  0
   19.5445  -12.7671  -16.7450 C   0  0  1  0  0  0  0  0  0  0  0  0
   18.0760  -12.9934  -17.0368 C   0  0  0  0  0  0  0  0  0  0  0  0
   17.9399  -14.2541  -17.8244 C   0  0  0  0  0  0  0  0  0  0  0  0
   18.7872  -14.6318  -18.6470 O   0  0  0  0  0  0  0  0  0  0  0  0
   19.6947  -11.4878  -15.9929 C   0  0  0  0  0  0  0  0  0  0  0  0
   18.8895  -11.1348  -15.1046 O   0  0  0  0  0  0  0  0  0  0  0  0
   16.7846  -15.0019  -17.5818 O   0  0  0  0  0  0  0  0  0  0  0  0
   22.9682  -10.0604  -14.2000 C   0  0  0  0  0  0  0  0  0  0  0  0
   22.5216   -9.1571  -15.3301 C   0  0  1  0  0  0  0  0  0  0  0  0
   23.4038   -9.1208  -16.3678 O   0  0  0  0  0  0  0  0  0  0  0  0
   21.0752   -9.3967  -15.7021 C   0  0  2  0  0  0  0  0  0  0  0  0
   20.7832  -10.6481  -16.2951 N   0  0  0  0  0  0  0  0  0  0  0  0
   20.6319   -8.2138  -16.4896 C   0  0  0  0  0  0  0  0  0  0  0  0
   20.6670   -8.2895  -17.7449 O   0  0  0  0  0  0  0  0  0  0  0  0
   20.1763   -7.0140  -15.9299 N   0  0  0  0  0  0  0  0  0  0  0  0
   19.7304   -5.8456  -16.8022 C   0  0  1  0  0  0  0  0  0  0  0  0
   18.2661   -5.7605  -16.6601 C   0  0  0  0  0  0  0  0  0  0  0  0
   17.5172   -4.6405  -17.2091 C   0  0  0  0  0  0  0  0  0  0  0  0
   16.0594   -4.4951  -17.0971 C   0  0  0  0  0  0  0  0  0  0  0  0
   15.6223   -3.1591  -17.7974 C   0  0  0  0  0  0  0  0  0  0  0  0
   14.1997   -3.0371  -17.5496 N   0  0  0  0  0  0  0  0  0  0  0  0
   20.5126   -4.7520  -16.2050 C   0  0  0  0  0  0  0  0  0  0  0  0
   20.8743   -4.8476  -14.9765 O   0  0  0  0  0  0  0  0  0  0  0  0
   20.9169   -3.6112  -16.8301 O   0  0  0  0  0  0  0  0  0  0  0  0
  2  1  1  1
  3  2  1  0
  4  3  1  0
  5  4  2  0
  6  2  1  0
  7  6  2  0
  8  4  1  0
 10  9  1  1
 10 12  1  0
 11 10  1  0
 12 14  1  0
 12 13  1  6
 13  6  1  0
 14 16  1  0
 15 14  2  0
 16 17  1  0
 17 18  1  1
 17 23  1  0
 18 19  1  0
 20 19  1  0
 21 22  1  0
 21 20  1  0
 23 24  2  0
 23 25  1  0
M  END
$$$$
