DTK.pdb
     RDKit          3D

 25 24  0  0  1  0  0  0  0  0999 V2000
   24.0150  -20.9580   -9.0775 N   0  0  0  0  0  0  0  0  0  0  0  0
   23.7234  -20.8571  -10.4954 C   0  0  1  0  0  0  0  0  0  0  0  0
   22.4263  -20.1158  -10.7421 C   0  0  0  0  0  0  0  0  0  0  0  0
   21.2918  -21.0174  -10.3841 C   0  0  0  0  0  0  0  0  0  0  0  0
   21.4532  -22.1739   -9.9671 O   0  0  0  0  0  0  0  0  0  0  0  0
   24.8251  -20.1519  -11.2121 C   0  0  0  0  0  0  0  0  0  0  0  0
   25.3285  -19.0899  -10.7868 O   0  0  0  0  0  0  0  0  0  0  0  0
   20.0121  -20.4800  -10.5465 O   0  0  0  0  0  0  0  0  0  0  0  0
   28.3693  -21.1113  -12.2007 C   0  0  0  0  0  0  0  0  0  0  0  0
   27.5470  -20.9897  -13.4662 C   0  0  1  0  0  0  0  0  0  0  0  0
   27.3532  -22.1822  -14.0961 O   0  0  0  0  0  0  0  0  0  0  0  0
   26.3086  -20.1479  -13.2522 C   0  0  2  0  0  0  0  0  0  0  0  0
   25.3152  -20.7030  -12.4109 N   0  0  0  0  0  0  0  0  0  0  0  0
   25.8282  -19.7390  -14.6005 C   0  0  0  0  0  0  0  0  0  0  0  0
   24.7768  -20.2706  -15.0422 O   0  0  0  0  0  0  0  0  0  0  0  0
   26.4669  -18.7995  -15.4189 N   0  0  0  0  0  0  0  0  0  0  0  0
   25.9234  -18.4426  -16.7980 C   0  0  1  0  0  0  0  0  0  0  0  0
   25.8329  -16.9723  -16.8374 C   0  0  0  0  0  0  0  0  0  0  0  0
   25.1831  -16.2844  -17.9425 C   0  0  0  0  0  0  0  0  0  0  0  0
   25.2409  -14.8311  -18.1515 C   0  0  0  0  0  0  0  0  0  0  0  0
   24.4735  -14.4727  -19.4740 C   0  0  0  0  0  0  0  0  0  0  0  0
   24.5882  -13.0347  -19.6129 N   0  0  0  0  0  0  0  0  0  0  0  0
   26.9457  -19.0607  -17.6567 C   0  0  0  0  0  0  0  0  0  0  0  0
   28.0762  -19.3840  -17.1403 O   0  0  0  0  0  0  0  0  0  0  0  0
   26.8239  -19.3452  -18.9833 O   0  0  0  0  0  0  0  0  0  0  0  0
  2  1  1  1
  3  2  1  0
  4  3  1  0
  5  4  2  0
  6  2  1  0
  7  6  2  0
  8  4  1  0
 10  9  1  1
 10 12  1  0
 11 10  1  0
 12 14  1  0
 12 13  1  6
 13  6  1  0
 14 16  1  0
 15 14  2  0
 16 17  1  0
 17 18  1  1
 17 23  1  0
 18 19  1  0
 20 19  1  0
 21 22  1  0
 21 20  1  0
 23 24  2  0
 23 25  1  0
M  END
$$$$
