DTK.pdb
     RDKit          3D

 25 24  0  0  1  0  0  0  0  0999 V2000
   24.4688  -20.6761   -9.4114 N   0  0  0  0  0  0  0  0  0  0  0  0
   23.8768  -20.7555  -10.7339 C   0  0  1  0  0  0  0  0  0  0  0  0
   22.4662  -20.2053  -10.7426 C   0  0  0  0  0  0  0  0  0  0  0  0
   21.6435  -20.9999   -9.7835 C   0  0  0  0  0  0  0  0  0  0  0  0
   20.4216  -20.8396   -9.6470 O   0  0  0  0  0  0  0  0  0  0  0  0
   24.6952  -19.9987  -11.7250 C   0  0  0  0  0  0  0  0  0  0  0  0
   24.5925  -18.7620  -11.8731 O   0  0  0  0  0  0  0  0  0  0  0  0
   22.3355  -21.9533   -9.0319 O   0  0  0  0  0  0  0  0  0  0  0  0
   28.6656  -20.6856  -12.4154 C   0  0  0  0  0  0  0  0  0  0  0  0
   27.8207  -20.8261  -13.6639 C   0  0  1  0  0  0  0  0  0  0  0  0
   27.8003  -22.0959  -14.1572 O   0  0  0  0  0  0  0  0  0  0  0  0
   26.4728  -20.1575  -13.5076 C   0  0  2  0  0  0  0  0  0  0  0  0
   25.6167  -20.7037  -12.5220 N   0  0  0  0  0  0  0  0  0  0  0  0
   25.8784  -20.0645  -14.8692 C   0  0  0  0  0  0  0  0  0  0  0  0
   24.9909  -20.8975  -15.1875 O   0  0  0  0  0  0  0  0  0  0  0  0
   26.2389  -19.1105  -15.8285 N   0  0  0  0  0  0  0  0  0  0  0  0
   25.5607  -19.0555  -17.1930 C   0  0  1  0  0  0  0  0  0  0  0  0
   25.1147  -17.6630  -17.3758 C   0  0  0  0  0  0  0  0  0  0  0  0
   24.0888  -17.3194  -18.3485 C   0  0  0  0  0  0  0  0  0  0  0  0
   23.6576  -15.9441  -18.6346 C   0  0  0  0  0  0  0  0  0  0  0  0
   22.5640  -15.9739  -19.7613 C   0  0  0  0  0  0  0  0  0  0  0  0
   22.2259  -14.5872  -20.0121 N   0  0  0  0  0  0  0  0  0  0  0  0
   26.6607  -19.5114  -18.0571 C   0  0  0  0  0  0  0  0  0  0  0  0
   26.3794  -20.0226  -19.2011 O   0  0  0  0  0  0  0  0  0  0  0  0
   27.9918  -19.4455  -17.7751 O   0  0  0  0  0  0  0  0  0  0  0  0
  2  1  1  1
  3  2  1  0
  4  3  1  0
  5  4  2  0
  6  2  1  0
  7  6  2  0
  8  4  1  0
 10  9  1  1
 10 12  1  0
 11 10  1  0
 12 14  1  0
 12 13  1  1
 13  6  1  0
 14 16  1  0
 15 14  2  0
 16 17  1  0
 17 18  1  6
 17 23  1  0
 18 19  1  0
 20 19  1  0
 21 22  1  0
 21 20  1  0
 23 24  2  0
 23 25  1  0
M  END
$$$$
