DTK.pdb
     RDKit          3D

 25 24  0  0  1  0  0  0  0  0999 V2000
   20.4673  -15.5494  -18.0073 N   0  0  0  0  0  0  0  0  0  0  0  0
   19.3968  -14.5699  -18.0134 C   0  0  1  0  0  0  0  0  0  0  0  0
   18.1163  -15.1462  -17.4467 C   0  0  0  0  0  0  0  0  0  0  0  0
   17.7482  -16.3530  -18.2442 C   0  0  0  0  0  0  0  0  0  0  0  0
   17.8946  -16.4212  -19.4735 O   0  0  0  0  0  0  0  0  0  0  0  0
   19.7773  -13.3670  -17.2177 C   0  0  0  0  0  0  0  0  0  0  0  0
   20.0894  -13.4347  -16.0094 O   0  0  0  0  0  0  0  0  0  0  0  0
   17.2191  -17.4241  -17.5191 O   0  0  0  0  0  0  0  0  0  0  0  0
   22.1061  -10.3377  -18.6705 C   0  0  0  0  0  0  0  0  0  0  0  0
   20.7677   -9.8482  -18.1589 C   0  0  1  0  0  0  0  0  0  0  0  0
   19.9806   -9.3196  -19.1374 O   0  0  0  0  0  0  0  0  0  0  0  0
   20.1051  -10.8663  -17.2574 C   0  0  2  0  0  0  0  0  0  0  0  0
   19.7851  -12.1102  -17.8514 N   0  0  0  0  0  0  0  0  0  0  0  0
   18.9627  -10.1770  -16.5971 C   0  0  0  0  0  0  0  0  0  0  0  0
   17.8066  -10.3759  -17.0519 O   0  0  0  0  0  0  0  0  0  0  0  0
   19.0829   -9.3165  -15.4992 N   0  0  0  0  0  0  0  0  0  0  0  0
   17.8676   -8.6261  -14.8900 C   0  0  1  0  0  0  0  0  0  0  0  0
   17.7550   -9.1314  -13.5104 C   0  0  0  0  0  0  0  0  0  0  0  0
   16.7002   -8.6709  -12.6205 C   0  0  0  0  0  0  0  0  0  0  0  0
   16.4765   -9.2034  -11.2694 C   0  0  0  0  0  0  0  0  0  0  0  0
   15.1976   -8.5277  -10.6576 C   0  0  0  0  0  0  0  0  0  0  0  0
   14.9748   -9.1930   -9.3895 N   0  0  0  0  0  0  0  0  0  0  0  0
   18.2567   -7.2155  -15.0429 C   0  0  0  0  0  0  0  0  0  0  0  0
   19.5035   -6.9232  -15.1390 O   0  0  0  0  0  0  0  0  0  0  0  0
   17.4152   -6.1459  -15.1023 O   0  0  0  0  0  0  0  0  0  0  0  0
  2  1  1  1
  3  2  1  0
  4  3  1  0
  5  4  2  0
  6  2  1  0
  7  6  2  0
  8  4  1  0
 10  9  1  6
 10 12  1  0
 11 10  1  0
 12 14  1  0
 12 13  1  6
 13  6  1  0
 14 16  1  0
 15 14  2  0
 16 17  1  0
 17 18  1  1
 17 23  1  0
 18 19  1  0
 20 19  1  0
 21 22  1  0
 21 20  1  0
 23 24  2  0
 23 25  1  0
M  END
$$$$
