DTK.pdb
     RDKit          3D

 25 24  0  0  1  0  0  0  0  0999 V2000
   19.0155  -10.9376  -15.2375 N   0  0  0  0  0  0  0  0  0  0  0  0
   17.9853   -9.9852  -14.8673 C   0  0  1  0  0  0  0  0  0  0  0  0
   16.6030  -10.5113  -15.1918 C   0  0  0  0  0  0  0  0  0  0  0  0
   16.4976  -10.6806  -16.6711 C   0  0  0  0  0  0  0  0  0  0  0  0
   16.6529   -9.7461  -17.4711 O   0  0  0  0  0  0  0  0  0  0  0  0
   18.0526   -9.6745  -13.4100 C   0  0  0  0  0  0  0  0  0  0  0  0
   18.0292  -10.5653  -12.5336 O   0  0  0  0  0  0  0  0  0  0  0  0
   16.2089  -11.9731  -17.1172 O   0  0  0  0  0  0  0  0  0  0  0  0
   20.7758   -7.6762  -11.5589 C   0  0  0  0  0  0  0  0  0  0  0  0
   19.4591   -6.9422  -11.4173 C   0  0  1  0  0  0  0  0  0  0  0  0
   19.4423   -5.7423  -12.0626 O   0  0  0  0  0  0  0  0  0  0  0  0
   18.2788   -7.8503  -11.6825 C   0  0  2  0  0  0  0  0  0  0  0  0
   18.1460   -8.3289  -13.0077 N   0  0  0  0  0  0  0  0  0  0  0  0
   17.0751   -7.1595  -11.1443 C   0  0  0  0  0  0  0  0  0  0  0  0
   16.3959   -6.4510  -11.9315 O   0  0  0  0  0  0  0  0  0  0  0  0
   16.6415   -7.2412   -9.8155 N   0  0  0  0  0  0  0  0  0  0  0  0
   15.3744   -6.5356   -9.3450 C   0  0  1  0  0  0  0  0  0  0  0  0
   14.6703   -7.4915   -8.4722 C   0  0  0  0  0  0  0  0  0  0  0  0
   13.4236   -7.1356   -7.8121 C   0  0  0  0  0  0  0  0  0  0  0  0
   12.7180   -8.0104   -6.8656 C   0  0  0  0  0  0  0  0  0  0  0  0
   11.4217   -7.2807   -6.3620 C   0  0  0  0  0  0  0  0  0  0  0  0
   10.7342   -8.2428   -5.5242 N   0  0  0  0  0  0  0  0  0  0  0  0
   15.9543   -5.3527   -8.6901 C   0  0  0  0  0  0  0  0  0  0  0  0
   15.2449   -4.2864   -8.5951 O   0  0  0  0  0  0  0  0  0  0  0  0
   17.2005   -5.2573   -8.1481 O   0  0  0  0  0  0  0  0  0  0  0  0
  2  1  1  1
  3  2  1  0
  4  3  1  0
  5  4  2  0
  6  2  1  0
  7  6  2  0
  8  4  1  0
 10  9  1  6
 10 12  1  0
 11 10  1  0
 12 14  1  0
 12 13  1  6
 13  6  1  0
 14 16  1  0
 15 14  2  0
 16 17  1  0
 17 18  1  1
 17 23  1  0
 18 19  1  0
 20 19  1  0
 21 22  1  0
 21 20  1  0
 23 24  2  0
 23 25  1  0
M  END
$$$$
