DTK.pdb
     RDKit          3D

 25 24  0  0  1  0  0  0  0  0999 V2000
   23.5534  -19.4091  -15.6726 N   0  0  0  0  0  0  0  0  0  0  0  0
   23.3617  -20.6367  -14.9230 C   0  0  1  0  0  0  0  0  0  0  0  0
   24.6858  -21.2613  -14.5363 C   0  0  0  0  0  0  0  0  0  0  0  0
   25.3128  -21.8361  -15.7629 C   0  0  0  0  0  0  0  0  0  0  0  0
   24.7662  -21.8127  -16.8756 O   0  0  0  0  0  0  0  0  0  0  0  0
   22.5699  -20.3811  -13.6851 C   0  0  0  0  0  0  0  0  0  0  0  0
   22.9682  -19.6148  -12.7817 O   0  0  0  0  0  0  0  0  0  0  0  0
   26.5733  -22.4137  -15.5891 O   0  0  0  0  0  0  0  0  0  0  0  0
   19.9448  -18.4272  -12.5391 C   0  0  0  0  0  0  0  0  0  0  0  0
   19.3635  -19.8240  -12.5977 C   0  0  1  0  0  0  0  0  0  0  0  0
   18.4965  -20.0007  -13.6338 O   0  0  0  0  0  0  0  0  0  0  0  0
   20.4321  -20.8835  -12.4439 C   0  0  2  0  0  0  0  0  0  0  0  0
   21.3288  -21.0267  -13.5293 N   0  0  0  0  0  0  0  0  0  0  0  0
   19.7398  -22.1367  -12.0362 C   0  0  0  0  0  0  0  0  0  0  0  0
   19.5258  -23.0098  -12.9164 O   0  0  0  0  0  0  0  0  0  0  0  0
   19.3056  -22.4154  -10.7346 N   0  0  0  0  0  0  0  0  0  0  0  0
   18.6447  -23.7433  -10.3813 C   0  0  1  0  0  0  0  0  0  0  0  0
   18.6929  -23.8497   -8.9124 C   0  0  0  0  0  0  0  0  0  0  0  0
   18.3372  -25.0855   -8.2320 C   0  0  0  0  0  0  0  0  0  0  0  0
   18.4715  -25.2921   -6.7834 C   0  0  0  0  0  0  0  0  0  0  0  0
   17.9103  -26.7116   -6.4141 C   0  0  0  0  0  0  0  0  0  0  0  0
   18.0704  -26.8320   -4.9788 N   0  0  0  0  0  0  0  0  0  0  0  0
   17.3160  -23.5492  -10.9824 C   0  0  0  0  0  0  0  0  0  0  0  0
   16.7946  -22.3757  -10.9682 O   0  0  0  0  0  0  0  0  0  0  0  0
   16.5504  -24.5049  -11.5791 O   0  0  0  0  0  0  0  0  0  0  0  0
  2  1  1  1
  3  2  1  0
  4  3  1  0
  5  4  2  0
  6  2  1  0
  7  6  2  0
  8  4  1  0
 10  9  1  6
 10 12  1  0
 11 10  1  0
 12 14  1  0
 12 13  1  6
 13  6  1  0
 14 16  1  0
 15 14  2  0
 16 17  1  0
 17 18  1  1
 17 23  1  0
 18 19  1  0
 20 19  1  0
 21 22  1  0
 21 20  1  0
 23 24  2  0
 23 25  1  0
M  END
$$$$
