DTK.pdb
     RDKit          3D

 25 24  0  0  1  0  0  0  0  0999 V2000
   24.8328  -10.7495  -20.4832 N   0  0  0  0  0  0  0  0  0  0  0  0
   24.7199  -11.7017  -19.3941 C   0  0  1  0  0  0  0  0  0  0  0  0
   25.9933  -12.5035  -19.2260 C   0  0  0  0  0  0  0  0  0  0  0  0
   26.1664  -13.3722  -20.4275 C   0  0  0  0  0  0  0  0  0  0  0  0
   26.3014  -12.9204  -21.5743 O   0  0  0  0  0  0  0  0  0  0  0  0
   24.4176  -11.0032  -18.1113 C   0  0  0  0  0  0  0  0  0  0  0  0
   24.3540  -11.6070  -17.0189 O   0  0  0  0  0  0  0  0  0  0  0  0
   26.1685  -14.7490  -20.1885 O   0  0  0  0  0  0  0  0  0  0  0  0
   26.1544   -7.6815  -16.8485 C   0  0  0  0  0  0  0  0  0  0  0  0
   24.6589   -7.4723  -16.9587 C   0  0  1  0  0  0  0  0  0  0  0  0
   24.3148   -6.5482  -17.8989 O   0  0  0  0  0  0  0  0  0  0  0  0
   23.9114   -8.7859  -17.0204 C   0  0  2  0  0  0  0  0  0  0  0  0
   24.1960   -9.6134  -18.1326 N   0  0  0  0  0  0  0  0  0  0  0  0
   22.4693   -8.4695  -16.8300 C   0  0  0  0  0  0  0  0  0  0  0  0
   21.7147   -8.5115  -17.8358 O   0  0  0  0  0  0  0  0  0  0  0  0
   21.8881   -8.1252  -15.6036 N   0  0  0  0  0  0  0  0  0  0  0  0
   20.4056   -7.7874  -15.4904 C   0  0  1  0  0  0  0  0  0  0  0  0
   19.7042   -9.0691  -15.2990 C   0  0  0  0  0  0  0  0  0  0  0  0
   18.2597   -9.1231  -15.1343 C   0  0  0  0  0  0  0  0  0  0  0  0
   17.4934  -10.3716  -15.0198 C   0  0  0  0  0  0  0  0  0  0  0  0
   15.9637  -10.0276  -14.9304 C   0  0  0  0  0  0  0  0  0  0  0  0
   15.2795  -11.3044  -14.8880 N   0  0  0  0  0  0  0  0  0  0  0  0
   20.4269   -6.8722  -14.3387 C   0  0  0  0  0  0  0  0  0  0  0  0
   21.4448   -6.8844  -13.5559 O   0  0  0  0  0  0  0  0  0  0  0  0
   19.4582   -5.9767  -13.9987 O   0  0  0  0  0  0  0  0  0  0  0  0
  2  1  1  6
  3  2  1  0
  4  3  1  0
  5  4  2  0
  6  2  1  0
  7  6  2  0
  8  4  1  0
 10  9  1  6
 10 12  1  0
 11 10  1  0
 12 14  1  0
 12 13  1  6
 13  6  1  0
 14 16  1  0
 15 14  2  0
 16 17  1  0
 17 18  1  1
 17 23  1  0
 18 19  1  0
 20 19  1  0
 21 22  1  0
 21 20  1  0
 23 24  2  0
 23 25  1  0
M  END
$$$$
