DTK.pdb
     RDKit          3D

 25 24  0  0  1  0  0  0  0  0999 V2000
   19.9734  -14.5228  -16.6224 N   0  0  0  0  0  0  0  0  0  0  0  0
   20.0503  -13.2375  -17.2915 C   0  0  1  0  0  0  0  0  0  0  0  0
   18.8908  -13.0398  -18.2450 C   0  0  0  0  0  0  0  0  0  0  0  0
   18.9139  -14.1419  -19.2514 C   0  0  0  0  0  0  0  0  0  0  0  0
   19.8949  -14.3787  -19.9719 O   0  0  0  0  0  0  0  0  0  0  0  0
   20.0525  -12.1246  -16.2983 C   0  0  0  0  0  0  0  0  0  0  0  0
   19.3213  -12.1303  -15.2847 O   0  0  0  0  0  0  0  0  0  0  0  0
   17.7493  -14.9088  -19.3416 O   0  0  0  0  0  0  0  0  0  0  0  0
   22.9684  -10.6706  -14.2374 C   0  0  0  0  0  0  0  0  0  0  0  0
   22.4687   -9.6094  -15.1949 C   0  0  1  0  0  0  0  0  0  0  0  0
   23.3714   -9.2957  -16.1660 O   0  0  0  0  0  0  0  0  0  0  0  0
   21.0625   -9.9000  -15.6707 C   0  0  2  0  0  0  0  0  0  0  0  0
   20.9094  -11.0285  -16.5109 N   0  0  0  0  0  0  0  0  0  0  0  0
   20.5258   -8.6285  -16.2285 C   0  0  0  0  0  0  0  0  0  0  0  0
   20.6395   -8.4284  -17.4654 O   0  0  0  0  0  0  0  0  0  0  0  0
   19.8999   -7.6316  -15.4704 N   0  0  0  0  0  0  0  0  0  0  0  0
   19.4239   -6.3287  -16.1034 C   0  0  1  0  0  0  0  0  0  0  0  0
   18.0461   -6.1175  -15.6255 C   0  0  0  0  0  0  0  0  0  0  0  0
   17.3074   -4.9091  -15.9584 C   0  0  0  0  0  0  0  0  0  0  0  0
   15.9705   -4.5950  -15.4360 C   0  0  0  0  0  0  0  0  0  0  0  0
   15.5067   -3.2105  -16.0141 C   0  0  0  0  0  0  0  0  0  0  0  0
   14.2332   -2.9314  -15.3811 N   0  0  0  0  0  0  0  0  0  0  0  0
   20.4443   -5.3972  -15.5978 C   0  0  0  0  0  0  0  0  0  0  0  0
   21.0491   -5.6764  -14.4999 O   0  0  0  0  0  0  0  0  0  0  0  0
   20.8396   -4.2334  -16.1852 O   0  0  0  0  0  0  0  0  0  0  0  0
  2  1  1  1
  3  2  1  0
  4  3  1  0
  5  4  2  0
  6  2  1  0
  7  6  2  0
  8  4  1  0
 10  9  1  6
 10 12  1  0
 11 10  1  0
 12 14  1  0
 12 13  1  6
 13  6  1  0
 14 16  1  0
 15 14  2  0
 16 17  1  0
 17 18  1  1
 17 23  1  0
 18 19  1  0
 20 19  1  0
 21 22  1  0
 21 20  1  0
 23 24  2  0
 23 25  1  0
M  END
$$$$
