DTK.pdb
     RDKit          3D

 25 24  0  0  1  0  0  0  0  0999 V2000
   28.2633  -21.7039  -16.1202 N   0  0  0  0  0  0  0  0  0  0  0  0
   27.4182  -20.7600  -15.4128 C   0  0  1  0  0  0  0  0  0  0  0  0
   26.8143  -19.7422  -16.3574 C   0  0  0  0  0  0  0  0  0  0  0  0
   27.9083  -19.1685  -17.1954 C   0  0  0  0  0  0  0  0  0  0  0  0
   29.0840  -19.5565  -17.1299 O   0  0  0  0  0  0  0  0  0  0  0  0
   26.3163  -21.4691  -14.7001 C   0  0  0  0  0  0  0  0  0  0  0  0
   25.9758  -22.6369  -14.9870 O   0  0  0  0  0  0  0  0  0  0  0  0
   27.5313  -18.1506  -18.0755 O   0  0  0  0  0  0  0  0  0  0  0  0
   25.9537  -21.4341  -10.7392 C   0  0  0  0  0  0  0  0  0  0  0  0
   24.6680  -20.9606  -11.3835 C   0  0  1  0  0  0  0  0  0  0  0  0
   24.3606  -19.6684  -11.0798 O   0  0  0  0  0  0  0  0  0  0  0  0
   24.6075  -21.3258  -12.8501 C   0  0  2  0  0  0  0  0  0  0  0  0
   25.6357  -20.7980  -13.6669 N   0  0  0  0  0  0  0  0  0  0  0  0
   23.2252  -21.0228  -13.3122 C   0  0  0  0  0  0  0  0  0  0  0  0
   23.0254  -19.9358  -13.9133 O   0  0  0  0  0  0  0  0  0  0  0  0
   22.1234  -21.8659  -13.1240 N   0  0  0  0  0  0  0  0  0  0  0  0
   20.7351  -21.4890  -13.6292 C   0  0  1  0  0  0  0  0  0  0  0  0
   19.9888  -22.7525  -13.7647 C   0  0  0  0  0  0  0  0  0  0  0  0
   18.6096  -22.7698  -14.2273 C   0  0  0  0  0  0  0  0  0  0  0  0
   17.7473  -23.9590  -14.1910 C   0  0  0  0  0  0  0  0  0  0  0  0
   16.3864  -23.6270  -14.9012 C   0  0  0  0  0  0  0  0  0  0  0  0
   15.6210  -24.8572  -14.8699 N   0  0  0  0  0  0  0  0  0  0  0  0
   20.2982  -20.5800  -12.5581 C   0  0  0  0  0  0  0  0  0  0  0  0
   20.6942  -20.8018  -11.3568 O   0  0  0  0  0  0  0  0  0  0  0  0
   19.4975  -19.4872  -12.7008 O   0  0  0  0  0  0  0  0  0  0  0  0
  2  1  1  6
  3  2  1  0
  4  3  1  0
  5  4  2  0
  6  2  1  0
  7  6  2  0
  8  4  1  0
 10  9  1  6
 10 12  1  0
 11 10  1  0
 12 14  1  0
 12 13  1  6
 13  6  1  0
 14 16  1  0
 15 14  2  0
 16 17  1  0
 17 18  1  1
 17 23  1  0
 18 19  1  0
 20 19  1  0
 21 22  1  0
 21 20  1  0
 23 24  2  0
 23 25  1  0
M  END
$$$$
