HYW.pdb
     RDKit          3D

 37 40  0  0  1  0  0  0  0  0999 V2000
   23.2984  -18.9099  -16.2072 N   0  0  0  0  0  0  0  0  0  0  0  0
   23.4599  -18.4497  -14.8461 C   0  0  1  0  0  0  0  0  0  0  0  0
   22.1163  -18.3634  -14.1998 C   0  0  0  0  0  0  0  0  0  0  0  0
   21.3229  -17.2805  -14.8340 C   0  0  0  0  0  0  0  0  0  0  0  0
   21.4374  -15.9256  -14.5688 C   0  0  0  0  0  0  0  0  0  0  0  0
   20.5562  -15.2725  -15.3383 N   0  0  0  0  0  0  0  0  0  0  0  0
   19.8794  -16.1626  -16.0891 C   0  0  0  0  0  0  0  0  0  0  0  0
   20.3547  -17.3809  -15.7734 N   0  0  0  0  0  0  0  0  0  0  0  0
   24.3912  -19.3152  -14.0776 C   0  0  0  0  0  0  0  0  0  0  0  0
   24.0897  -20.5092  -13.8803 O   0  0  0  0  0  0  0  0  0  0  0  0
   31.9743  -22.5323  -10.7273 O   0  0  0  0  0  0  0  0  0  0  0  0
   30.9736  -21.8072  -11.3624 C   0  0  0  0  0  0  0  0  0  0  0  0
   29.9064  -22.5383  -11.8704 C   0  0  0  0  0  0  0  0  0  0  0  0
   28.9074  -21.8387  -12.5019 C   0  0  0  0  0  0  0  0  0  0  0  0
   28.8937  -20.4560  -12.6652 C   0  0  0  0  0  0  0  0  0  0  0  0
   27.8366  -19.7421  -13.3669 C   0  0  0  0  0  0  0  0  0  0  0  0
   26.5063  -19.6454  -12.7205 C   0  0  2  0  0  0  0  0  0  0  0  0
   25.6112  -18.8414  -13.5573 N   0  0  0  0  0  0  0  0  0  0  0  0
   26.4310  -19.0799  -11.3769 C   0  0  0  0  0  0  0  0  0  0  0  0
   27.1597  -18.0883  -11.0850 O   0  0  0  0  0  0  0  0  0  0  0  0
   29.9713  -19.7721  -12.1463 C   0  0  0  0  0  0  0  0  0  0  0  0
   30.9923  -20.4387  -11.5063 C   0  0  0  0  0  0  0  0  0  0  0  0
   25.5997  -19.5240  -10.3150 N   0  0  0  0  0  0  0  0  0  0  0  0
   25.7324  -20.8432   -9.7287 C   0  0  1  0  0  0  0  0  0  0  0  0
   25.6600  -20.8267   -8.2213 C   0  0  0  0  0  0  0  0  0  0  0  0
   26.5841  -19.8429   -7.6123 C   0  0  0  0  0  0  0  0  0  0  0  0
   26.8268  -18.5868   -8.1412 C   0  0  0  0  0  0  0  0  0  0  0  0
   27.7082  -17.9981   -7.3251 N   0  0  0  0  0  0  0  0  0  0  0  0
   28.0254  -18.8277   -6.3130 C   0  0  0  0  0  0  0  0  0  0  0  0
   28.8752  -18.6687   -5.2450 C   0  0  0  0  0  0  0  0  0  0  0  0
   29.0281  -19.6840   -4.3327 C   0  0  0  0  0  0  0  0  0  0  0  0
   28.3325  -20.8668   -4.4810 C   0  0  0  0  0  0  0  0  0  0  0  0
   27.4755  -21.0373   -5.5521 C   0  0  0  0  0  0  0  0  0  0  0  0
   27.3292  -20.0090   -6.4641 C   0  0  0  0  0  0  0  0  0  0  0  0
   24.7834  -21.8386  -10.2273 C   0  0  0  0  0  0  0  0  0  0  0  0
   23.7818  -21.4885  -10.9395 O   0  0  0  0  0  0  0  0  0  0  0  0
   24.9506  -23.1736   -9.9383 O   0  0  0  0  0  0  0  0  0  0  0  0
  2  1  1  6
  2  3  1  0
  3  4  1  0
  4  8  1  0
  4  5  2  0
  5  6  1  0
  7  6  1  0
  8  7  2  0
  9  2  1  0
  9 10  2  0
 11 12  1  0
 12 22  2  0
 13 14  2  0
 13 12  1  0
 14 15  1  0
 15 21  2  0
 16 15  1  0
 17 18  1  0
 17 16  1  6
 18  9  1  0
 19 17  1  0
 20 19  2  0
 21 22  1  0
 23 19  1  0
 24 25  1  1
 24 23  1  0
 25 26  1  0
 26 27  2  0
 26 34  1  0
 27 28  1  0
 28 29  1  0
 29 30  2  0
 30 31  1  0
 32 31  2  0
 33 32  1  0
 34 33  2  0
 34 29  1  0
 35 24  1  0
 36 35  2  0
 37 35  1  0
M  END
$$$$
