HYW.pdb
     RDKit          3D

 37 40  0  0  1  0  0  0  0  0999 V2000
   27.3349  -23.0379  -16.8767 N   0  0  0  0  0  0  0  0  0  0  0  0
   26.3198  -22.0476  -17.1584 C   0  0  1  0  0  0  0  0  0  0  0  0
   25.8670  -22.2048  -18.5728 C   0  0  0  0  0  0  0  0  0  0  0  0
   26.8684  -21.6046  -19.4899 C   0  0  0  0  0  0  0  0  0  0  0  0
   26.8013  -20.3408  -20.0535 C   0  0  0  0  0  0  0  0  0  0  0  0
   27.8873  -20.1653  -20.8184 N   0  0  0  0  0  0  0  0  0  0  0  0
   28.6499  -21.2742  -20.7651 C   0  0  0  0  0  0  0  0  0  0  0  0
   28.0197  -22.1427  -19.9538 N   0  0  0  0  0  0  0  0  0  0  0  0
   25.1873  -22.1301  -16.2004 C   0  0  0  0  0  0  0  0  0  0  0  0
   24.7305  -23.2491  -15.8928 O   0  0  0  0  0  0  0  0  0  0  0  0
   19.8432  -18.9244   -9.6926 O   0  0  0  0  0  0  0  0  0  0  0  0
   20.7768  -19.1400  -10.6988 C   0  0  0  0  0  0  0  0  0  0  0  0
   21.8378  -19.9824  -10.3890 C   0  0  0  0  0  0  0  0  0  0  0  0
   22.7711  -20.2073  -11.3712 C   0  0  0  0  0  0  0  0  0  0  0  0
   22.7243  -19.6513  -12.6468 C   0  0  0  0  0  0  0  0  0  0  0  0
   23.7444  -19.8817  -13.6596 C   0  0  0  0  0  0  0  0  0  0  0  0
   23.5832  -21.0428  -14.5667 C   0  0  2  0  0  0  0  0  0  0  0  0
   24.6017  -20.9888  -15.6191 N   0  0  0  0  0  0  0  0  0  0  0  0
   22.3017  -21.2175  -15.2435 C   0  0  0  0  0  0  0  0  0  0  0  0
   22.0071  -20.4559  -16.2092 O   0  0  0  0  0  0  0  0  0  0  0  0
   21.6555  -18.8227  -12.9097 C   0  0  0  0  0  0  0  0  0  0  0  0
   20.6995  -18.5731  -11.9505 C   0  0  0  0  0  0  0  0  0  0  0  0
   21.3065  -22.1833  -14.9391 N   0  0  0  0  0  0  0  0  0  0  0  0
   20.0197  -22.2046  -15.6066 C   0  0  1  0  0  0  0  0  0  0  0  0
   19.3860  -23.5743  -15.6180 C   0  0  0  0  0  0  0  0  0  0  0  0
   19.2084  -24.1367  -14.2597 C   0  0  0  0  0  0  0  0  0  0  0  0
   18.1925  -23.7593  -13.3985 C   0  0  0  0  0  0  0  0  0  0  0  0
   18.3615  -24.4737  -12.2803 N   0  0  0  0  0  0  0  0  0  0  0  0
   19.4340  -25.2784  -12.4046 C   0  0  0  0  0  0  0  0  0  0  0  0
   19.9936  -26.1814  -11.5331 C   0  0  0  0  0  0  0  0  0  0  0  0
   21.1084  -26.8928  -11.9043 C   0  0  0  0  0  0  0  0  0  0  0  0
   21.6728  -26.7069  -13.1501 C   0  0  0  0  0  0  0  0  0  0  0  0
   21.1179  -25.8006  -14.0341 C   0  0  0  0  0  0  0  0  0  0  0  0
   19.9962  -25.0901  -13.6502 C   0  0  0  0  0  0  0  0  0  0  0  0
   19.0417  -21.2458  -15.0926 C   0  0  0  0  0  0  0  0  0  0  0  0
   19.2635  -20.6007  -14.0120 O   0  0  0  0  0  0  0  0  0  0  0  0
   17.8618  -21.0196  -15.7635 O   0  0  0  0  0  0  0  0  0  0  0  0
  2  1  1  1
  2  3  1  0
  3  4  1  0
  4  8  1  0
  4  5  2  0
  5  6  1  0
  7  6  1  0
  8  7  2  0
  9  2  1  0
  9 10  2  0
 11 12  1  0
 12 22  2  0
 13 14  2  0
 13 12  1  0
 14 15  1  0
 15 21  2  0
 16 15  1  0
 17 18  1  0
 17 16  1  6
 18  9  1  0
 19 17  1  0
 20 19  2  0
 21 22  1  0
 23 19  1  0
 24 25  1  1
 24 23  1  0
 25 26  1  0
 26 27  2  0
 26 34  1  0
 27 28  1  0
 28 29  1  0
 29 30  2  0
 30 31  1  0
 32 31  2  0
 33 32  1  0
 34 33  2  0
 34 29  1  0
 35 24  1  0
 36 35  2  0
 37 35  1  0
M  END
$$$$
