HYW.pdb
     RDKit          3D

 37 40  0  0  1  0  0  0  0  0999 V2000
   27.1881  -19.1877  -16.7079 N   0  0  0  0  0  0  0  0  0  0  0  0
   27.9958  -18.7484  -15.5921 C   0  0  1  0  0  0  0  0  0  0  0  0
   28.4293  -17.3395  -15.8311 C   0  0  0  0  0  0  0  0  0  0  0  0
   29.1930  -17.2581  -17.1017 C   0  0  0  0  0  0  0  0  0  0  0  0
   29.2466  -16.1645  -17.9505 C   0  0  0  0  0  0  0  0  0  0  0  0
   30.0372  -16.4767  -18.9862 N   0  0  0  0  0  0  0  0  0  0  0  0
   30.4934  -17.7345  -18.8312 C   0  0  0  0  0  0  0  0  0  0  0  0
   29.9730  -18.1995  -17.6811 N   0  0  0  0  0  0  0  0  0  0  0  0
   27.2788  -18.8971  -14.2994 C   0  0  0  0  0  0  0  0  0  0  0  0
   27.0554  -17.8839  -13.6073 O   0  0  0  0  0  0  0  0  0  0  0  0
   20.9227  -18.3599  -16.2902 O   0  0  0  0  0  0  0  0  0  0  0  0
   21.8682  -19.0516  -15.5432 C   0  0  0  0  0  0  0  0  0  0  0  0
   21.8838  -18.7987  -14.1768 C   0  0  0  0  0  0  0  0  0  0  0  0
   22.8119  -19.4731  -13.4218 C   0  0  0  0  0  0  0  0  0  0  0  0
   23.7308  -20.3866  -13.9315 C   0  0  0  0  0  0  0  0  0  0  0  0
   24.7254  -21.0646  -13.1127 C   0  0  0  0  0  0  0  0  0  0  0  0
   25.9206  -20.3002  -12.6837 C   0  0  2  0  0  0  0  0  0  0  0  0
   26.8365  -20.1442  -13.8171 N   0  0  0  0  0  0  0  0  0  0  0  0
   26.7180  -20.8276  -11.5805 C   0  0  0  0  0  0  0  0  0  0  0  0
   27.5876  -21.7144  -11.8189 O   0  0  0  0  0  0  0  0  0  0  0  0
   23.6794  -20.6062  -15.2907 C   0  0  0  0  0  0  0  0  0  0  0  0
   22.7628  -19.9488  -16.0806 C   0  0  0  0  0  0  0  0  0  0  0  0
   26.6355  -20.4452  -10.2157 N   0  0  0  0  0  0  0  0  0  0  0  0
   26.5762  -21.4177   -9.1422 C   0  0  1  0  0  0  0  0  0  0  0  0
   27.7946  -21.3857   -8.2520 C   0  0  0  0  0  0  0  0  0  0  0  0
   27.7616  -20.2757   -7.2725 C   0  0  0  0  0  0  0  0  0  0  0  0
   26.9109  -19.1882   -7.3718 C   0  0  0  0  0  0  0  0  0  0  0  0
   27.1736  -18.4067   -6.3184 N   0  0  0  0  0  0  0  0  0  0  0  0
   28.1471  -18.9562   -5.5677 C   0  0  0  0  0  0  0  0  0  0  0  0
   28.7451  -18.5285   -4.4069 C   0  0  0  0  0  0  0  0  0  0  0  0
   29.7336  -19.2842   -3.8255 C   0  0  0  0  0  0  0  0  0  0  0  0
   30.1325  -20.4740   -4.4002 C   0  0  0  0  0  0  0  0  0  0  0  0
   29.5377  -20.9132   -5.5682 C   0  0  0  0  0  0  0  0  0  0  0  0
   28.5439  -20.1448   -6.1448 C   0  0  0  0  0  0  0  0  0  0  0  0
   25.3838  -21.3344   -8.2989 C   0  0  0  0  0  0  0  0  0  0  0  0
   25.2366  -22.1119   -7.2954 O   0  0  0  0  0  0  0  0  0  0  0  0
   24.3956  -20.4161   -8.5702 O   0  0  0  0  0  0  0  0  0  0  0  0
  2  1  1  6
  2  3  1  0
  3  4  1  0
  4  8  1  0
  4  5  2  0
  5  6  1  0
  7  6  1  0
  8  7  2  0
  9  2  1  0
  9 10  2  0
 11 12  1  0
 12 22  2  0
 13 14  2  0
 13 12  1  0
 14 15  1  0
 15 21  2  0
 16 15  1  0
 17 18  1  0
 17 16  1  6
 18  9  1  0
 19 17  1  0
 20 19  2  0
 21 22  1  0
 23 19  1  0
 24 25  1  1
 24 23  1  0
 25 26  1  0
 26 27  2  0
 26 34  1  0
 27 28  1  0
 28 29  1  0
 29 30  2  0
 30 31  1  0
 32 31  2  0
 33 32  1  0
 34 33  2  0
 34 29  1  0
 35 24  1  0
 36 35  2  0
 37 35  1  0
M  END
$$$$
