HYW.pdb
     RDKit          3D

 37 40  0  0  1  0  0  0  0  0999 V2000
   25.9818  -19.0001  -16.3544 N   0  0  0  0  0  0  0  0  0  0  0  0
   26.6590  -18.6815  -15.1173 C   0  0  1  0  0  0  0  0  0  0  0  0
   27.1402  -17.2689  -15.1768 C   0  0  0  0  0  0  0  0  0  0  0  0
   28.2330  -17.1526  -16.1751 C   0  0  0  0  0  0  0  0  0  0  0  0
   28.6678  -18.1554  -17.0263 C   0  0  0  0  0  0  0  0  0  0  0  0
   29.6659  -17.6660  -17.7743 N   0  0  0  0  0  0  0  0  0  0  0  0
   29.8868  -16.3822  -17.4320 C   0  0  0  0  0  0  0  0  0  0  0  0
   29.0090  -16.0812  -16.4581 N   0  0  0  0  0  0  0  0  0  0  0  0
   25.7922  -18.9235  -13.9353 C   0  0  0  0  0  0  0  0  0  0  0  0
   24.9527  -18.0608  -13.6092 O   0  0  0  0  0  0  0  0  0  0  0  0
   19.5026  -19.8521  -15.4834 O   0  0  0  0  0  0  0  0  0  0  0  0
   20.5943  -20.2127  -14.7033 C   0  0  0  0  0  0  0  0  0  0  0  0
   21.6091  -20.9131  -15.3443 C   0  0  0  0  0  0  0  0  0  0  0  0
   22.6966  -21.2784  -14.5891 C   0  0  0  0  0  0  0  0  0  0  0  0
   22.8479  -20.9953  -13.2343 C   0  0  0  0  0  0  0  0  0  0  0  0
   23.9975  -21.4221  -12.4497 C   0  0  0  0  0  0  0  0  0  0  0  0
   24.9853  -20.3969  -12.0373 C   0  0  2  0  0  0  0  0  0  0  0  0
   25.8783  -20.0960  -13.1597 N   0  0  0  0  0  0  0  0  0  0  0  0
   25.8455  -20.6874  -10.8942 C   0  0  0  0  0  0  0  0  0  0  0  0
   27.0440  -21.0353  -11.0989 O   0  0  0  0  0  0  0  0  0  0  0  0
   21.8177  -20.2997  -12.6402 C   0  0  0  0  0  0  0  0  0  0  0  0
   20.7111  -19.9161  -13.3645 C   0  0  0  0  0  0  0  0  0  0  0  0
   25.4855  -20.6184   -9.5226 N   0  0  0  0  0  0  0  0  0  0  0  0
   26.4124  -20.9600   -8.4615 C   0  0  1  0  0  0  0  0  0  0  0  0
   27.5491  -19.9753   -8.3343 C   0  0  0  0  0  0  0  0  0  0  0  0
   28.5059  -20.3374   -7.2637 C   0  0  0  0  0  0  0  0  0  0  0  0
   29.4538  -21.3387   -7.3866 C   0  0  0  0  0  0  0  0  0  0  0  0
   30.1202  -21.3713   -6.2272 N   0  0  0  0  0  0  0  0  0  0  0  0
   29.6327  -20.4374   -5.3886 C   0  0  0  0  0  0  0  0  0  0  0  0
   29.9897  -20.0982   -4.1057 C   0  0  0  0  0  0  0  0  0  0  0  0
   29.3249  -19.0894   -3.4524 C   0  0  0  0  0  0  0  0  0  0  0  0
   28.2974  -18.4114   -4.0766 C   0  0  0  0  0  0  0  0  0  0  0  0
   27.9301  -18.7450   -5.3668 C   0  0  0  0  0  0  0  0  0  0  0  0
   28.6058  -19.7618   -6.0149 C   0  0  0  0  0  0  0  0  0  0  0  0
   25.8034  -21.1376   -7.1433 C   0  0  0  0  0  0  0  0  0  0  0  0
   24.8474  -20.3825   -6.7572 O   0  0  0  0  0  0  0  0  0  0  0  0
   26.2490  -22.1223   -6.2917 O   0  0  0  0  0  0  0  0  0  0  0  0
  2  1  1  6
  2  3  1  0
  3  4  1  0
  4  8  1  0
  4  5  2  0
  5  6  1  0
  7  6  1  0
  8  7  2  0
  9  2  1  0
  9 10  2  0
 11 12  1  0
 12 22  2  0
 13 14  2  0
 13 12  1  0
 14 15  1  0
 15 21  2  0
 16 15  1  0
 17 18  1  0
 17 16  1  6
 18  9  1  0
 19 17  1  0
 20 19  2  0
 21 22  1  0
 23 19  1  0
 24 25  1  1
 24 23  1  0
 25 26  1  0
 26 27  2  0
 26 34  1  0
 27 28  1  0
 28 29  1  0
 29 30  2  0
 30 31  1  0
 32 31  2  0
 33 32  1  0
 34 33  2  0
 34 29  1  0
 35 24  1  0
 36 35  2  0
 37 35  1  0
M  END
$$$$
