HYW.pdb
     RDKit          3D

 37 40  0  0  1  0  0  0  0  0999 V2000
   28.4786  -19.8854  -19.1557 N   0  0  0  0  0  0  0  0  0  0  0  0
   27.8409  -18.9793  -18.2268 C   0  0  1  0  0  0  0  0  0  0  0  0
   26.8551  -18.1376  -18.9684 C   0  0  0  0  0  0  0  0  0  0  0  0
   27.5615  -17.3093  -19.9780 C   0  0  0  0  0  0  0  0  0  0  0  0
   27.0627  -16.9317  -21.2141 C   0  0  0  0  0  0  0  0  0  0  0  0
   27.9924  -16.1909  -21.8321 N   0  0  0  0  0  0  0  0  0  0  0  0
   29.0720  -16.0799  -21.0344 C   0  0  0  0  0  0  0  0  0  0  0  0
   28.7979  -16.7645  -19.9093 N   0  0  0  0  0  0  0  0  0  0  0  0
   27.2107  -19.7039  -17.0933 C   0  0  0  0  0  0  0  0  0  0  0  0
   26.3459  -20.5707  -17.3305 O   0  0  0  0  0  0  0  0  0  0  0  0
   24.9612  -20.8099   -8.4662 O   0  0  0  0  0  0  0  0  0  0  0  0
   25.6133  -20.5997   -9.6749 C   0  0  0  0  0  0  0  0  0  0  0  0
   25.8470  -19.2768  -10.0306 C   0  0  0  0  0  0  0  0  0  0  0  0
   26.4904  -19.0492  -11.2225 C   0  0  0  0  0  0  0  0  0  0  0  0
   26.9206  -20.0489  -12.0908 C   0  0  0  0  0  0  0  0  0  0  0  0
   27.5729  -19.7788  -13.3640 C   0  0  0  0  0  0  0  0  0  0  0  0
   26.7879  -19.9632  -14.6077 C   0  0  2  0  0  0  0  0  0  0  0  0
   27.5507  -19.4522  -15.7500 N   0  0  0  0  0  0  0  0  0  0  0  0
   25.4665  -19.3481  -14.6877 C   0  0  0  0  0  0  0  0  0  0  0  0
   25.3773  -18.0883  -14.7541 O   0  0  0  0  0  0  0  0  0  0  0  0
   26.6679  -21.3451  -11.6980 C   0  0  0  0  0  0  0  0  0  0  0  0
   26.0252  -21.6131  -10.5100 C   0  0  0  0  0  0  0  0  0  0  0  0
   24.2169  -20.0219  -14.7059 N   0  0  0  0  0  0  0  0  0  0  0  0
   23.0375  -19.4819  -14.0587 C   0  0  1  0  0  0  0  0  0  0  0  0
   22.3460  -18.4244  -14.8843 C   0  0  0  0  0  0  0  0  0  0  0  0
   22.2316  -18.7947  -16.3134 C   0  0  0  0  0  0  0  0  0  0  0  0
   21.7446  -20.0130  -16.7549 C   0  0  0  0  0  0  0  0  0  0  0  0
   21.7971  -19.9780  -18.0911 N   0  0  0  0  0  0  0  0  0  0  0  0
   22.2931  -18.7956  -18.5025 C   0  0  0  0  0  0  0  0  0  0  0  0
   22.5311  -18.3035  -19.7632 C   0  0  0  0  0  0  0  0  0  0  0  0
   23.0521  -17.0424  -19.9204 C   0  0  0  0  0  0  0  0  0  0  0  0
   23.3396  -16.2630  -18.8181 C   0  0  0  0  0  0  0  0  0  0  0  0
   23.1044  -16.7488  -17.5455 C   0  0  0  0  0  0  0  0  0  0  0  0
   22.5799  -18.0192  -17.3989 C   0  0  0  0  0  0  0  0  0  0  0  0
   22.0444  -20.4774  -13.6551 C   0  0  0  0  0  0  0  0  0  0  0  0
   22.2195  -21.7171  -13.9108 O   0  0  0  0  0  0  0  0  0  0  0  0
   20.9004  -20.0977  -12.9914 O   0  0  0  0  0  0  0  0  0  0  0  0
  2  1  1  6
  2  3  1  0
  3  4  1  0
  4  8  1  0
  4  5  2  0
  5  6  1  0
  7  6  1  0
  8  7  2  0
  9  2  1  0
  9 10  2  0
 11 12  1  0
 12 22  2  0
 13 14  2  0
 13 12  1  0
 14 15  1  0
 15 21  2  0
 16 15  1  0
 17 18  1  0
 17 16  1  1
 18  9  1  0
 19 17  1  0
 20 19  2  0
 21 22  1  0
 23 19  1  0
 24 25  1  6
 24 23  1  0
 25 26  1  0
 26 27  2  0
 26 34  1  0
 27 28  1  0
 28 29  1  0
 29 30  2  0
 30 31  1  0
 32 31  2  0
 33 32  1  0
 34 33  2  0
 34 29  1  0
 35 24  1  0
 36 35  2  0
 37 35  1  0
M  END
$$$$
