HYW.pdb
     RDKit          3D

 37 40  0  0  1  0  0  0  0  0999 V2000
   26.2773  -20.7527  -19.0666 N   0  0  0  0  0  0  0  0  0  0  0  0
   25.7579  -19.8315  -18.0806 C   0  0  1  0  0  0  0  0  0  0  0  0
   24.5140  -19.1999  -18.6136 C   0  0  0  0  0  0  0  0  0  0  0  0
   24.8596  -18.2517  -19.7025 C   0  0  0  0  0  0  0  0  0  0  0  0
   24.2095  -18.1394  -20.9207 C   0  0  0  0  0  0  0  0  0  0  0  0
   24.8117  -17.1750  -21.6294 N   0  0  0  0  0  0  0  0  0  0  0  0
   25.8272  -16.6637  -20.9071 C   0  0  0  0  0  0  0  0  0  0  0  0
   25.8463  -17.3268  -19.7368 N   0  0  0  0  0  0  0  0  0  0  0  0
   25.5266  -20.4961  -16.7722 C   0  0  0  0  0  0  0  0  0  0  0  0
   24.9755  -21.6146  -16.7467 O   0  0  0  0  0  0  0  0  0  0  0  0
   25.2001  -20.9544   -7.8033 O   0  0  0  0  0  0  0  0  0  0  0  0
   25.5370  -20.7594   -9.1371 C   0  0  0  0  0  0  0  0  0  0  0  0
   25.3890  -19.4689   -9.6310 C   0  0  0  0  0  0  0  0  0  0  0  0
   25.7169  -19.2568  -10.9477 C   0  0  0  0  0  0  0  0  0  0  0  0
   26.1843  -20.2421  -11.8134 C   0  0  0  0  0  0  0  0  0  0  0  0
   26.4950  -19.9966  -13.2143 C   0  0  0  0  0  0  0  0  0  0  0  0
   25.5217  -20.4455  -14.2381 C   0  0  2  0  0  0  0  0  0  0  0  0
   25.9061  -19.9123  -15.5480 N   0  0  0  0  0  0  0  0  0  0  0  0
   24.1153  -20.1020  -14.0512 C   0  0  0  0  0  0  0  0  0  0  0  0
   23.7411  -18.9105  -14.2512 O   0  0  0  0  0  0  0  0  0  0  0  0
   26.3153  -21.5062  -11.2813 C   0  0  0  0  0  0  0  0  0  0  0  0
   25.9965  -21.7578   -9.9654 C   0  0  0  0  0  0  0  0  0  0  0  0
   23.0718  -20.9821  -13.6607 N   0  0  0  0  0  0  0  0  0  0  0  0
   21.7993  -20.4995  -13.1613 C   0  0  1  0  0  0  0  0  0  0  0  0
   21.0691  -19.6298  -14.1554 C   0  0  0  0  0  0  0  0  0  0  0  0
   20.6915  -20.3584  -15.3880 C   0  0  0  0  0  0  0  0  0  0  0  0
   20.2671  -21.6759  -15.4023 C   0  0  0  0  0  0  0  0  0  0  0  0
   20.0239  -21.9797  -16.6821 N   0  0  0  0  0  0  0  0  0  0  0  0
   20.2761  -20.9137  -17.4652 C   0  0  0  0  0  0  0  0  0  0  0  0
   20.1752  -20.7458  -18.8253 C   0  0  0  0  0  0  0  0  0  0  0  0
   20.4976  -19.5376  -19.3933 C   0  0  0  0  0  0  0  0  0  0  0  0
   20.9238  -18.4871  -18.6059 C   0  0  0  0  0  0  0  0  0  0  0  0
   21.0293  -18.6456  -17.2368 C   0  0  0  0  0  0  0  0  0  0  0  0
   20.7023  -19.8658  -16.6757 C   0  0  0  0  0  0  0  0  0  0  0  0
   20.8834  -21.5413  -12.6965 C   0  0  0  0  0  0  0  0  0  0  0  0
   21.1624  -22.7777  -12.8590 O   0  0  0  0  0  0  0  0  0  0  0  0
   19.7017  -21.2097  -12.0744 O   0  0  0  0  0  0  0  0  0  0  0  0
  2  1  1  6
  2  3  1  0
  3  4  1  0
  4  8  1  0
  4  5  2  0
  5  6  1  0
  7  6  1  0
  8  7  2  0
  9  2  1  0
  9 10  2  0
 11 12  1  0
 12 22  2  0
 13 14  2  0
 13 12  1  0
 14 15  1  0
 15 21  2  0
 16 15  1  0
 17 18  1  0
 17 16  1  1
 18  9  1  0
 19 17  1  0
 20 19  2  0
 21 22  1  0
 23 19  1  0
 24 25  1  6
 24 23  1  0
 25 26  1  0
 26 27  2  0
 26 34  1  0
 27 28  1  0
 28 29  1  0
 29 30  2  0
 30 31  1  0
 32 31  2  0
 33 32  1  0
 34 33  2  0
 34 29  1  0
 35 24  1  0
 36 35  2  0
 37 35  1  0
M  END
$$$$
