HYW.pdb
     RDKit          3D

 37 40  0  0  1  0  0  0  0  0999 V2000
   28.8899  -22.5245  -17.8123 N   0  0  0  0  0  0  0  0  0  0  0  0
   27.7134  -21.7355  -17.5227 C   0  0  1  0  0  0  0  0  0  0  0  0
   26.6892  -21.9844  -18.5807 C   0  0  0  0  0  0  0  0  0  0  0  0
   27.0862  -21.2969  -19.8353 C   0  0  0  0  0  0  0  0  0  0  0  0
   28.3838  -21.0378  -20.2457 C   0  0  0  0  0  0  0  0  0  0  0  0
   28.3312  -20.4053  -21.4257 N   0  0  0  0  0  0  0  0  0  0  0  0
   27.0431  -20.2494  -21.7871 C   0  0  0  0  0  0  0  0  0  0  0  0
   26.2951  -20.7959  -20.8116 N   0  0  0  0  0  0  0  0  0  0  0  0
   27.1848  -22.0116  -16.1621 C   0  0  0  0  0  0  0  0  0  0  0  0
   26.5947  -23.0888  -15.9453 O   0  0  0  0  0  0  0  0  0  0  0  0
   25.5739  -20.5430   -7.4574 O   0  0  0  0  0  0  0  0  0  0  0  0
   26.0722  -20.5491   -8.7543 C   0  0  0  0  0  0  0  0  0  0  0  0
   25.4821  -19.6640   -9.6486 C   0  0  0  0  0  0  0  0  0  0  0  0
   25.9613  -19.6559  -10.9357 C   0  0  0  0  0  0  0  0  0  0  0  0
   26.9914  -20.4696  -11.3996 C   0  0  0  0  0  0  0  0  0  0  0  0
   27.4593  -20.4630  -12.7782 C   0  0  0  0  0  0  0  0  0  0  0  0
   26.7536  -21.3168  -13.7630 C   0  0  2  0  0  0  0  0  0  0  0  0
   27.3223  -21.1012  -15.0964 N   0  0  0  0  0  0  0  0  0  0  0  0
   25.3089  -21.1607  -13.9022 C   0  0  0  0  0  0  0  0  0  0  0  0
   24.8575  -20.2065  -14.5988 O   0  0  0  0  0  0  0  0  0  0  0  0
   27.5467  -21.3313  -10.4791 C   0  0  0  0  0  0  0  0  0  0  0  0
   27.0931  -21.3683   -9.1794 C   0  0  0  0  0  0  0  0  0  0  0  0
   24.3073  -21.9886  -13.3303 N   0  0  0  0  0  0  0  0  0  0  0  0
   22.9033  -21.6276  -13.3465 C   0  0  1  0  0  0  0  0  0  0  0  0
   21.9903  -22.8229  -13.4717 C   0  0  0  0  0  0  0  0  0  0  0  0
   20.5562  -22.4546  -13.4572 C   0  0  0  0  0  0  0  0  0  0  0  0
   19.8327  -22.1373  -14.5940 C   0  0  0  0  0  0  0  0  0  0  0  0
   18.5897  -21.8602  -14.1846 N   0  0  0  0  0  0  0  0  0  0  0  0
   18.5048  -21.9905  -12.8470 C   0  0  0  0  0  0  0  0  0  0  0  0
   17.4488  -21.8133  -11.9858 C   0  0  0  0  0  0  0  0  0  0  0  0
   17.6220  -22.0120  -10.6379 C   0  0  0  0  0  0  0  0  0  0  0  0
   18.8527  -22.3894  -10.1399 C   0  0  0  0  0  0  0  0  0  0  0  0
   19.9216  -22.5698  -10.9976 C   0  0  0  0  0  0  0  0  0  0  0  0
   19.7362  -22.3672  -12.3523 C   0  0  0  0  0  0  0  0  0  0  0  0
   22.4597  -20.8229  -12.2082 C   0  0  0  0  0  0  0  0  0  0  0  0
   21.5461  -19.9403  -12.3474 O   0  0  0  0  0  0  0  0  0  0  0  0
   23.0185  -21.0006  -10.9634 O   0  0  0  0  0  0  0  0  0  0  0  0
  2  1  1  6
  2  3  1  0
  3  4  1  0
  4  8  1  0
  4  5  2  0
  5  6  1  0
  7  6  1  0
  8  7  2  0
  9  2  1  0
  9 10  2  0
 11 12  1  0
 12 22  2  0
 13 14  2  0
 13 12  1  0
 14 15  1  0
 15 21  2  0
 16 15  1  0
 17 18  1  0
 17 16  1  1
 18  9  1  0
 19 17  1  0
 20 19  2  0
 21 22  1  0
 23 19  1  0
 24 25  1  1
 24 23  1  0
 25 26  1  0
 26 27  2  0
 26 34  1  0
 27 28  1  0
 28 29  1  0
 29 30  2  0
 30 31  1  0
 32 31  2  0
 33 32  1  0
 34 33  2  0
 34 29  1  0
 35 24  1  0
 36 35  2  0
 37 35  1  0
M  END
$$$$
