MLH.pdb
     RDKit          3D

 27 27  0  0  1  0  0  0  0  0999 V2000
   21.2405  -33.9964  -11.4627 C   0  0  0  0  0  0  0  0  0  0  0  0
   22.3955  -33.9771  -12.8429 S   0  0  0  0  0  0  0  0  0  0  0  0
   21.8200  -32.9423  -14.2029 C   0  0  0  0  0  0  0  0  0  0  0  0
   21.7756  -31.4695  -13.7893 C   0  0  0  0  0  0  0  0  0  0  0  0
   23.0634  -30.8352  -14.2452 C   0  0  2  0  0  0  0  0  0  0  0  0
   24.0993  -31.1900  -13.2931 N   0  0  0  0  0  0  0  0  0  0  0  0
   22.9500  -29.3511  -14.2345 C   0  0  0  0  0  0  0  0  0  0  0  0
   23.1626  -28.6615  -13.2039 O   0  0  0  0  0  0  0  0  0  0  0  0
   25.5623  -26.0209  -15.5367 C   0  0  0  0  0  0  0  0  0  0  0  0
   24.8147  -26.7103  -16.6116 C   0  0  2  0  0  0  0  0  0  0  0  0
   25.3098  -26.1481  -17.9559 C   0  0  0  0  0  0  0  0  0  0  0  0
   23.3535  -26.6030  -16.6277 C   0  0  0  0  0  0  0  0  0  0  0  0
   22.5745  -27.2026  -15.5088 C   0  0  2  0  0  0  0  0  0  0  0  0
   22.5854  -28.6212  -15.4236 N   0  0  0  0  0  0  0  0  0  0  0  0
   21.2031  -26.6688  -15.3838 C   0  0  0  0  0  0  0  0  0  0  0  0
   20.2916  -27.2848  -15.9795 O   0  0  0  0  0  0  0  0  0  0  0  0
   20.8509  -25.5173  -14.6421 N   0  0  0  0  0  0  0  0  0  0  0  0
   19.4560  -25.0513  -14.6348 C   0  0  1  0  0  0  0  0  0  0  0  0
   19.4505  -23.8593  -13.6925 C   0  0  0  0  0  0  0  0  0  0  0  0
   18.0796  -23.3200  -13.5915 C   0  0  0  0  0  0  0  0  0  0  0  0
   16.9206  -23.7146  -14.1922 C   0  0  0  0  0  0  0  0  0  0  0  0
   15.9519  -22.8859  -13.7771 N   0  0  0  0  0  0  0  0  0  0  0  0
   16.4746  -21.9969  -12.9438 C   0  0  0  0  0  0  0  0  0  0  0  0
   17.7717  -22.2518  -12.8229 N   0  0  0  0  0  0  0  0  0  0  0  0
   19.1017  -24.6607  -15.9996 C   0  0  0  0  0  0  0  0  0  0  0  0
   17.8063  -24.8542  -16.5194 O   0  0  0  0  0  0  0  0  0  0  0  0
   19.9594  -24.1390  -16.7438 O   0  0  0  0  0  0  0  0  0  0  0  0
  2  1  1  0
  3  2  1  0
  4  3  1  0
  4  5  1  0
  5  7  1  0
  5  6  1  1
  7  8  2  0
 10  9  1  1
 11 10  1  0
 13 12  1  6
 12 10  1  0
 14  7  1  0
 14 13  1  0
 15 16  2  0
 15 13  1  0
 17 15  1  0
 18 25  1  0
 18 17  1  0
 18 19  1  1
 20 19  1  0
 21 20  2  0
 22 21  1  0
 23 22  1  0
 23 24  2  0
 24 20  1  0
 25 26  1  0
 27 25  2  0
M  END
$$$$
