MLH.pdb
     RDKit          3D

 27 27  0  0  1  0  0  0  0  0999 V2000
   24.5226  -31.5372   -6.3262 C   0  0  0  0  0  0  0  0  0  0  0  0
   24.4513  -32.3499   -7.9305 S   0  0  0  0  0  0  0  0  0  0  0  0
   26.0557  -32.9929   -8.4444 C   0  0  0  0  0  0  0  0  0  0  0  0
   26.7260  -33.7654   -7.3059 C   0  0  0  0  0  0  0  0  0  0  0  0
   27.9797  -34.3880   -7.8617 C   0  0  2  0  0  0  0  0  0  0  0  0
   27.5885  -35.4665   -8.7502 N   0  0  0  0  0  0  0  0  0  0  0  0
   28.7929  -34.9932   -6.7718 C   0  0  0  0  0  0  0  0  0  0  0  0
   28.5961  -36.1607   -6.3461 O   0  0  0  0  0  0  0  0  0  0  0  0
   33.3953  -36.2702   -5.6056 C   0  0  0  0  0  0  0  0  0  0  0  0
   33.0439  -34.8453   -5.7945 C   0  0  2  0  0  0  0  0  0  0  0  0
   34.3241  -34.0188   -5.5789 C   0  0  0  0  0  0  0  0  0  0  0  0
   32.0174  -34.2570   -4.9301 C   0  0  0  0  0  0  0  0  0  0  0  0
   30.6154  -34.7474   -5.0399 C   0  0  2  0  0  0  0  0  0  0  0  0
   29.8622  -34.2588   -6.1416 N   0  0  0  0  0  0  0  0  0  0  0  0
   29.8489  -34.6491   -3.7812 C   0  0  0  0  0  0  0  0  0  0  0  0
   29.0046  -33.7300   -3.6944 O   0  0  0  0  0  0  0  0  0  0  0  0
   30.0021  -35.5163   -2.6745 N   0  0  0  0  0  0  0  0  0  0  0  0
   29.1843  -35.3138   -1.4691 C   0  0  1  0  0  0  0  0  0  0  0  0
   27.8447  -35.9507   -1.7981 C   0  0  0  0  0  0  0  0  0  0  0  0
   26.9946  -35.9570   -0.5906 C   0  0  0  0  0  0  0  0  0  0  0  0
   27.1856  -35.3929    0.6362 C   0  0  0  0  0  0  0  0  0  0  0  0
   26.1205  -35.7021    1.3895 N   0  0  0  0  0  0  0  0  0  0  0  0
   25.2832  -36.4357    0.6695 C   0  0  0  0  0  0  0  0  0  0  0  0
   25.8058  -36.5977   -0.5399 N   0  0  0  0  0  0  0  0  0  0  0  0
   29.8447  -35.9936   -0.3543 C   0  0  0  0  0  0  0  0  0  0  0  0
   29.7955  -35.4912    0.9614 O   0  0  0  0  0  0  0  0  0  0  0  0
   30.4776  -37.0525   -0.5535 O   0  0  0  0  0  0  0  0  0  0  0  0
  2  1  1  0
  3  2  1  0
  4  3  1  0
  4  5  1  0
  5  7  1  0
  5  6  1  6
  7  8  2  0
 10  9  1  1
 11 10  1  0
 13 12  1  1
 12 10  1  0
 14  7  1  0
 14 13  1  0
 15 16  2  0
 15 13  1  0
 17 15  1  0
 18 25  1  0
 18 17  1  0
 18 19  1  6
 20 19  1  0
 21 20  2  0
 22 21  1  0
 23 22  1  0
 23 24  2  0
 24 20  1  0
 25 26  1  0
 27 25  2  0
M  END
$$$$
