MLH.pdb
     RDKit          3D

 27 27  0  0  1  0  0  0  0  0999 V2000
   20.4327  -20.4114  -20.0261 C   0  0  0  0  0  0  0  0  0  0  0  0
   21.6411  -20.6907  -21.3303 S   0  0  0  0  0  0  0  0  0  0  0  0
   23.3354  -20.4765  -20.7514 C   0  0  0  0  0  0  0  0  0  0  0  0
   23.3677  -20.1815  -19.2501 C   0  0  0  0  0  0  0  0  0  0  0  0
   24.8092  -19.9822  -18.8616 C   0  0  2  0  0  0  0  0  0  0  0  0
   25.4766  -21.2683  -18.9413 N   0  0  0  0  0  0  0  0  0  0  0  0
   24.9137  -19.5227  -17.4498 C   0  0  0  0  0  0  0  0  0  0  0  0
   25.0121  -20.3203  -16.4818 O   0  0  0  0  0  0  0  0  0  0  0  0
   28.1764  -16.9847  -16.3952 C   0  0  0  0  0  0  0  0  0  0  0  0
   26.9687  -16.1417  -16.5383 C   0  0  2  0  0  0  0  0  0  0  0  0
   27.3972  -14.6779  -16.3331 C   0  0  0  0  0  0  0  0  0  0  0  0
   25.8402  -16.3764  -15.6336 C   0  0  0  0  0  0  0  0  0  0  0  0
   25.0337  -17.6181  -15.7947 C   0  0  2  0  0  0  0  0  0  0  0  0
   24.9072  -18.1190  -17.1187 N   0  0  0  0  0  0  0  0  0  0  0  0
   23.7247  -17.5717  -15.1121 C   0  0  0  0  0  0  0  0  0  0  0  0
   23.7228  -17.2810  -13.8952 O   0  0  0  0  0  0  0  0  0  0  0  0
   22.4816  -17.8313  -15.7343 N   0  0  0  0  0  0  0  0  0  0  0  0
   21.2451  -17.7970  -14.9388 C   0  0  1  0  0  0  0  0  0  0  0  0
   20.7548  -16.3629  -15.0463 C   0  0  0  0  0  0  0  0  0  0  0  0
   19.4726  -16.2274  -14.3264 C   0  0  0  0  0  0  0  0  0  0  0  0
   19.0692  -16.7276  -13.1235 C   0  0  0  0  0  0  0  0  0  0  0  0
   17.8055  -16.3257  -12.9260 N   0  0  0  0  0  0  0  0  0  0  0  0
   17.4188  -15.5974  -13.9642 C   0  0  0  0  0  0  0  0  0  0  0  0
   18.4273  -15.5306  -14.8248 N   0  0  0  0  0  0  0  0  0  0  0  0
   20.2960  -18.7369  -15.5360 C   0  0  0  0  0  0  0  0  0  0  0  0
   19.2680  -19.3395  -14.7837 O   0  0  0  0  0  0  0  0  0  0  0  0
   20.3828  -19.0286  -16.7480 O   0  0  0  0  0  0  0  0  0  0  0  0
  2  1  1  0
  3  2  1  0
  4  3  1  0
  4  5  1  0
  5  7  1  0
  5  6  1  1
  7  8  2  0
 10  9  1  1
 11 10  1  0
 13 12  1  6
 12 10  1  0
 14  7  1  0
 14 13  1  0
 15 16  2  0
 15 13  1  0
 17 15  1  0
 18 25  1  0
 18 17  1  0
 18 19  1  6
 20 19  1  0
 21 20  2  0
 22 21  1  0
 23 22  1  0
 23 24  2  0
 24 20  1  0
 25 26  1  0
 27 25  2  0
M  END
$$$$
