MLH.pdb
     RDKit          3D

 27 27  0  0  1  0  0  0  0  0999 V2000
   29.5743  -19.1540  -19.5474 C   0  0  0  0  0  0  0  0  0  0  0  0
   29.7358  -17.8275  -18.3418 S   0  0  0  0  0  0  0  0  0  0  0  0
   28.2712  -17.6648  -17.3024 C   0  0  0  0  0  0  0  0  0  0  0  0
   27.6030  -19.0238  -17.0815 C   0  0  0  0  0  0  0  0  0  0  0  0
   26.2541  -18.7666  -16.4629 C   0  0  2  0  0  0  0  0  0  0  0  0
   26.2965  -17.4663  -15.8200 N   0  0  0  0  0  0  0  0  0  0  0  0
   25.9634  -19.7692  -15.4018 C   0  0  0  0  0  0  0  0  0  0  0  0
   25.7432  -20.9816  -15.6556 O   0  0  0  0  0  0  0  0  0  0  0  0
   25.6124  -20.3488   -9.1664 C   0  0  0  0  0  0  0  0  0  0  0  0
   25.3945  -20.8656  -10.5357 C   0  0  2  0  0  0  0  0  0  0  0  0
   25.9392  -22.3041  -10.5813 C   0  0  0  0  0  0  0  0  0  0  0  0
   26.0077  -20.1519  -11.6590 C   0  0  0  0  0  0  0  0  0  0  0  0
   25.3429  -20.1979  -12.9910 C   0  0  2  0  0  0  0  0  0  0  0  0
   25.9196  -19.3928  -14.0103 N   0  0  0  0  0  0  0  0  0  0  0  0
   23.8778  -20.0203  -12.9327 C   0  0  0  0  0  0  0  0  0  0  0  0
   23.4494  -18.9330  -12.4860 O   0  0  0  0  0  0  0  0  0  0  0  0
   22.9317  -20.9875  -13.3442 N   0  0  0  0  0  0  0  0  0  0  0  0
   21.5527  -20.5771  -13.6493 C   0  0  1  0  0  0  0  0  0  0  0  0
   21.5412  -20.3428  -15.1505 C   0  0  0  0  0  0  0  0  0  0  0  0
   20.1886  -19.9263  -15.5718 C   0  0  0  0  0  0  0  0  0  0  0  0
   19.0355  -19.7897  -14.8566 C   0  0  0  0  0  0  0  0  0  0  0  0
   18.0791  -19.3963  -15.7099 N   0  0  0  0  0  0  0  0  0  0  0  0
   18.6036  -19.2870  -16.9227 C   0  0  0  0  0  0  0  0  0  0  0  0
   19.8897  -19.6078  -16.8507 N   0  0  0  0  0  0  0  0  0  0  0  0
   20.6596  -21.6716  -13.2681 C   0  0  0  0  0  0  0  0  0  0  0  0
   19.3952  -21.4374  -12.6915 O   0  0  0  0  0  0  0  0  0  0  0  0
   21.0098  -22.8573  -13.4497 O   0  0  0  0  0  0  0  0  0  0  0  0
  2  1  1  0
  3  2  1  0
  4  3  1  0
  4  5  1  0
  5  7  1  0
  5  6  1  1
  7  8  2  0
 10  9  1  1
 11 10  1  0
 13 12  1  1
 12 10  1  0
 14  7  1  0
 14 13  1  0
 15 16  2  0
 15 13  1  0
 17 15  1  0
 18 25  1  0
 18 17  1  0
 18 19  1  6
 20 19  1  0
 21 20  2  0
 22 21  1  0
 23 22  1  0
 23 24  2  0
 24 20  1  0
 25 26  1  0
 27 25  2  0
M  END
$$$$
