MLH.pdb
     RDKit          3D

 27 27  0  0  1  0  0  0  0  0999 V2000
   20.7444  -21.0513   -8.4336 C   0  0  0  0  0  0  0  0  0  0  0  0
   21.9287  -21.4302   -7.1323 S   0  0  0  0  0  0  0  0  0  0  0  0
   23.6347  -21.2132   -7.6747 C   0  0  0  0  0  0  0  0  0  0  0  0
   23.6918  -20.5185   -9.0371 C   0  0  0  0  0  0  0  0  0  0  0  0
   25.1058  -20.6352   -9.5427 C   0  0  2  0  0  0  0  0  0  0  0  0
   25.9731  -19.9351   -8.6136 N   0  0  0  0  0  0  0  0  0  0  0  0
   25.2480  -19.9639  -10.8635 C   0  0  0  0  0  0  0  0  0  0  0  0
   24.9687  -18.7502  -11.0417 O   0  0  0  0  0  0  0  0  0  0  0  0
   28.4791  -20.5159  -16.1824 C   0  0  0  0  0  0  0  0  0  0  0  0
   27.3236  -20.0085  -15.4098 C   0  0  2  0  0  0  0  0  0  0  0  0
   27.4533  -18.4770  -15.3324 C   0  0  0  0  0  0  0  0  0  0  0  0
   27.1387  -20.4812  -14.0353 C   0  0  0  0  0  0  0  0  0  0  0  0
   25.9032  -20.0927  -13.2998 C   0  0  2  0  0  0  0  0  0  0  0  0
   25.7202  -20.6840  -12.0204 N   0  0  0  0  0  0  0  0  0  0  0  0
   24.6728  -20.1817  -14.1120 C   0  0  0  0  0  0  0  0  0  0  0  0
   24.2830  -21.3247  -14.4389 O   0  0  0  0  0  0  0  0  0  0  0  0
   23.9096  -19.0718  -14.5430 N   0  0  0  0  0  0  0  0  0  0  0  0
   22.6809  -19.2881  -15.3218 C   0  0  1  0  0  0  0  0  0  0  0  0
   21.9576  -17.9525  -15.2833 C   0  0  0  0  0  0  0  0  0  0  0  0
   20.7284  -18.0366  -16.0974 C   0  0  0  0  0  0  0  0  0  0  0  0
   20.1867  -19.0807  -16.7875 C   0  0  0  0  0  0  0  0  0  0  0  0
   19.0665  -18.6351  -17.3741 N   0  0  0  0  0  0  0  0  0  0  0  0
   18.9015  -17.3554  -17.0692 C   0  0  0  0  0  0  0  0  0  0  0  0
   19.9091  -16.9794  -16.2910 N   0  0  0  0  0  0  0  0  0  0  0  0
   23.0671  -19.6525  -16.6852 C   0  0  0  0  0  0  0  0  0  0  0  0
   22.3806  -20.6423  -17.4165 O   0  0  0  0  0  0  0  0  0  0  0  0
   24.0327  -19.0816  -17.2359 O   0  0  0  0  0  0  0  0  0  0  0  0
  2  1  1  0
  3  2  1  0
  4  3  1  0
  4  5  1  0
  5  7  1  0
  5  6  1  1
  7  8  2  0
 10  9  1  1
 11 10  1  0
 13 12  1  6
 12 10  1  0
 14  7  1  0
 14 13  1  0
 15 16  2  0
 15 13  1  0
 17 15  1  0
 18 25  1  0
 18 17  1  0
 18 19  1  6
 20 19  1  0
 21 20  2  0
 22 21  1  0
 23 22  1  0
 23 24  2  0
 24 20  1  0
 25 26  1  0
 27 25  2  0
M  END
$$$$
