MLH.pdb
     RDKit          3D

 27 27  0  0  1  0  0  0  0  0999 V2000
   17.9418  -22.9188  -11.3703 C   0  0  0  0  0  0  0  0  0  0  0  0
   18.2384  -23.9622  -12.8065 S   0  0  0  0  0  0  0  0  0  0  0  0
   18.6479  -23.0025  -14.2772 C   0  0  0  0  0  0  0  0  0  0  0  0
   19.4506  -21.7526  -13.9093 C   0  0  0  0  0  0  0  0  0  0  0  0
   20.7825  -21.8522  -14.6054 C   0  0  2  0  0  0  0  0  0  0  0  0
   21.3690  -23.1362  -14.2691 N   0  0  0  0  0  0  0  0  0  0  0  0
   21.7142  -20.8030  -14.1088 C   0  0  0  0  0  0  0  0  0  0  0  0
   21.3979  -19.5867  -14.0508 O   0  0  0  0  0  0  0  0  0  0  0  0
   23.1120  -19.9063  -10.2716 C   0  0  0  0  0  0  0  0  0  0  0  0
   24.0861  -20.8386  -10.8813 C   0  0  2  0  0  0  0  0  0  0  0  0
   25.1560  -21.1516   -9.8204 C   0  0  0  0  0  0  0  0  0  0  0  0
   24.8047  -20.4117  -12.0848 C   0  0  0  0  0  0  0  0  0  0  0  0
   24.0342  -20.1694  -13.3362 C   0  0  2  0  0  0  0  0  0  0  0  0
   23.0448  -21.1358  -13.6632 N   0  0  0  0  0  0  0  0  0  0  0  0
   24.8796  -19.8514  -14.5048 C   0  0  0  0  0  0  0  0  0  0  0  0
   25.8294  -20.6270  -14.7533 O   0  0  0  0  0  0  0  0  0  0  0  0
   24.6912  -18.7385  -15.3569 N   0  0  0  0  0  0  0  0  0  0  0  0
   25.5213  -18.5924  -16.5621 C   0  0  1  0  0  0  0  0  0  0  0  0
   25.3338  -19.8947  -17.3221 C   0  0  0  0  0  0  0  0  0  0  0  0
   24.1159  -19.8072  -18.1526 C   0  0  0  0  0  0  0  0  0  0  0  0
   22.8498  -20.2612  -17.9274 C   0  0  0  0  0  0  0  0  0  0  0  0
   22.1121  -19.9388  -18.9995 N   0  0  0  0  0  0  0  0  0  0  0  0
   22.8798  -19.3038  -19.8743 C   0  0  0  0  0  0  0  0  0  0  0  0
   24.1041  -19.2177  -19.3686 N   0  0  0  0  0  0  0  0  0  0  0  0
   25.0185  -17.4478  -17.3224 C   0  0  0  0  0  0  0  0  0  0  0  0
   25.6313  -17.0167  -18.5159 O   0  0  0  0  0  0  0  0  0  0  0  0
   24.0171  -16.8191  -16.9180 O   0  0  0  0  0  0  0  0  0  0  0  0
  2  1  1  0
  3  2  1  0
  4  3  1  0
  4  5  1  0
  5  7  1  0
  5  6  1  1
  7  8  2  0
 10  9  1  1
 11 10  1  0
 13 12  1  1
 12 10  1  0
 14  7  1  0
 14 13  1  0
 15 16  2  0
 15 13  1  0
 17 15  1  0
 18 25  1  0
 18 17  1  0
 18 19  1  6
 20 19  1  0
 21 20  2  0
 22 21  1  0
 23 22  1  0
 23 24  2  0
 24 20  1  0
 25 26  1  0
 27 25  2  0
M  END
$$$$
