FCT.pdb
     RDKit          3D

 25 25  0  0  1  0  0  0  0  0999 V2000
   28.8546  -21.8630   -9.2157 N   0  0  0  0  0  0  0  0  0  0  0  0
   27.7159  -21.2677   -8.5885 C   0  0  1  0  0  0  0  0  0  0  0  0
   28.1129  -19.8365   -8.2191 C   0  0  0  0  0  0  0  0  0  0  0  0
   28.2897  -19.6754   -6.7603 C   0  0  0  0  0  0  0  0  0  0  0  0
   29.3507  -18.9794   -6.2332 C   0  0  0  0  0  0  0  0  0  0  0  0
   29.5076  -18.8346   -4.8501 C   0  0  0  0  0  0  0  0  0  0  0  0
   28.5943  -19.3914   -3.9884 C   0  0  0  0  0  0  0  0  0  0  0  0
   27.5270  -20.0911   -4.5096 C   0  0  0  0  0  0  0  0  0  0  0  0
   27.3788  -20.2305   -5.8948 C   0  0  0  0  0  0  0  0  0  0  0  0
   26.5221  -21.1874   -9.4429 C   0  0  0  0  0  0  0  0  0  0  0  0
   26.6534  -21.5500  -10.6467 O   0  0  0  0  0  0  0  0  0  0  0  0
   25.2600  -20.7279   -8.9717 N   0  0  0  0  0  0  0  0  0  0  0  0
   24.0752  -21.1194   -9.6611 C   0  0  1  0  0  0  0  0  0  0  0  0
   22.9028  -21.0626   -8.6836 C   0  0  0  0  0  0  0  0  0  0  0  0
   23.2037  -22.3155   -7.3941 S   0  0  0  0  0  0  0  0  0  0  0  0
   23.8011  -20.2865  -10.8627 C   0  0  0  0  0  0  0  0  0  0  0  0
   23.6192  -19.0469  -10.7508 O   0  0  0  0  0  0  0  0  0  0  0  0
   25.7283  -19.4698  -13.9260 C   0  0  0  0  0  0  0  0  0  0  0  0
   24.4331  -20.0395  -14.4003 C   0  0  1  0  0  0  0  0  0  0  0  0
   24.6645  -21.3765  -14.7795 O   0  0  0  0  0  0  0  0  0  0  0  0
   23.3631  -20.0738  -13.3378 C   0  0  2  0  0  0  0  0  0  0  0  0
   23.7295  -20.8253  -12.1775 N   0  0  0  0  0  0  0  0  0  0  0  0
   22.0719  -20.5288  -13.9256 C   0  0  0  0  0  0  0  0  0  0  0  0
   21.4501  -19.7179  -14.8788 O   0  0  0  0  0  0  0  0  0  0  0  0
   21.5116  -21.5889  -13.6195 O   0  0  0  0  0  0  0  0  0  0  0  0
  2  1  1  6
  2 10  1  0
  3  2  1  0
  4  5  2  0
  4  3  1  0
  6  5  1  0
  7  6  2  0
  8  7  1  0
  8  9  2  0
  9  4  1  0
 10 12  1  0
 10 11  2  0
 12 13  1  0
 13 14  1  1
 14 15  1  0
 16 13  1  0
 16 17  2  0
 19 18  1  1
 19 20  1  0
 19 21  1  0
 21 22  1  1
 22 16  1  0
 23 21  1  0
 24 23  1  0
 25 23  2  0
M  END
$$$$
