FCT.pdb
     RDKit          3D

 25 25  0  0  1  0  0  0  0  0999 V2000
   25.0180  -19.4411   -7.8905 N   0  0  0  0  0  0  0  0  0  0  0  0
   26.2119  -19.8481   -8.5636 C   0  0  1  0  0  0  0  0  0  0  0  0
   26.8200  -20.9835   -7.7368 C   0  0  0  0  0  0  0  0  0  0  0  0
   27.5591  -20.4724   -6.5629 C   0  0  0  0  0  0  0  0  0  0  0  0
   28.7024  -19.7225   -6.6990 C   0  0  0  0  0  0  0  0  0  0  0  0
   29.3938  -19.2450   -5.5797 C   0  0  0  0  0  0  0  0  0  0  0  0
   28.9362  -19.5211   -4.3145 C   0  0  0  0  0  0  0  0  0  0  0  0
   27.7898  -20.2729   -4.1698 C   0  0  0  0  0  0  0  0  0  0  0  0
   27.1051  -20.7461   -5.2957 C   0  0  0  0  0  0  0  0  0  0  0  0
   25.9996  -20.3596   -9.9255 C   0  0  0  0  0  0  0  0  0  0  0  0
   24.8019  -20.5027  -10.3037 O   0  0  0  0  0  0  0  0  0  0  0  0
   27.0681  -20.6891  -10.8063 N   0  0  0  0  0  0  0  0  0  0  0  0
   26.8429  -20.6639  -12.2138 C   0  0  1  0  0  0  0  0  0  0  0  0
   28.1204  -21.1160  -12.9186 C   0  0  0  0  0  0  0  0  0  0  0  0
   27.7681  -21.1746  -14.7062 S   0  0  0  0  0  0  0  0  0  0  0  0
   25.6858  -21.5002  -12.6311 C   0  0  0  0  0  0  0  0  0  0  0  0
   25.5409  -22.6622  -12.1720 O   0  0  0  0  0  0  0  0  0  0  0  0
   21.8658  -20.2282  -12.7404 C   0  0  0  0  0  0  0  0  0  0  0  0
   22.4141  -21.6134  -12.8289 C   0  0  1  0  0  0  0  0  0  0  0  0
   21.3639  -22.4674  -13.2202 O   0  0  0  0  0  0  0  0  0  0  0  0
   23.5009  -21.7679  -13.8633 C   0  0  2  0  0  0  0  0  0  0  0  0
   24.6977  -21.0502  -13.5506 N   0  0  0  0  0  0  0  0  0  0  0  0
   22.9729  -21.4318  -15.2152 C   0  0  0  0  0  0  0  0  0  0  0  0
   21.9359  -22.2085  -15.7386 O   0  0  0  0  0  0  0  0  0  0  0  0
   23.3993  -20.4998  -15.9088 O   0  0  0  0  0  0  0  0  0  0  0  0
  2  1  1  1
  2 10  1  0
  3  2  1  0
  4  5  2  0
  4  3  1  0
  6  5  1  0
  7  6  2  0
  8  7  1  0
  8  9  2  0
  9  4  1  0
 10 12  1  0
 10 11  2  0
 12 13  1  0
 13 14  1  6
 14 15  1  0
 16 13  1  0
 16 17  2  0
 19 18  1  6
 19 20  1  0
 19 21  1  0
 21 22  1  1
 22 16  1  0
 23 21  1  0
 24 23  1  0
 25 23  2  0
M  END
$$$$
