FCT.pdb
     RDKit          3D

 25 25  0  0  1  0  0  0  0  0999 V2000
   26.9812  -24.7693  -16.0972 N   0  0  0  0  0  0  0  0  0  0  0  0
   26.7063  -23.3978  -15.8010 C   0  0  1  0  0  0  0  0  0  0  0  0
   25.9229  -22.8375  -16.9905 C   0  0  0  0  0  0  0  0  0  0  0  0
   26.7863  -22.6462  -18.1751 C   0  0  0  0  0  0  0  0  0  0  0  0
   26.6818  -23.4516  -19.2835 C   0  0  0  0  0  0  0  0  0  0  0  0
   27.5057  -23.2609  -20.3986 C   0  0  0  0  0  0  0  0  0  0  0  0
   28.4416  -22.2556  -20.4032 C   0  0  0  0  0  0  0  0  0  0  0  0
   28.5525  -21.4434  -19.2948 C   0  0  0  0  0  0  0  0  0  0  0  0
   27.7237  -21.6421  -18.1841 C   0  0  0  0  0  0  0  0  0  0  0  0
   25.8902  -23.1861  -14.5966 C   0  0  0  0  0  0  0  0  0  0  0  0
   24.9830  -24.0346  -14.3626 O   0  0  0  0  0  0  0  0  0  0  0  0
   26.0833  -22.0883  -13.7114 N   0  0  0  0  0  0  0  0  0  0  0  0
   25.1746  -21.8985  -12.6294 C   0  0  1  0  0  0  0  0  0  0  0  0
   25.9111  -21.1888  -11.4949 C   0  0  0  0  0  0  0  0  0  0  0  0
   24.6961  -20.8560  -10.1772 S   0  0  0  0  0  0  0  0  0  0  0  0
   23.9555  -21.1418  -13.0217 C   0  0  0  0  0  0  0  0  0  0  0  0
   24.0503  -19.9752  -13.4823 O   0  0  0  0  0  0  0  0  0  0  0  0
   21.3767  -21.8333  -15.5951 C   0  0  0  0  0  0  0  0  0  0  0  0
   20.6303  -21.6281  -14.3192 C   0  0  1  0  0  0  0  0  0  0  0  0
   20.2688  -22.8965  -13.8237 O   0  0  0  0  0  0  0  0  0  0  0  0
   21.4488  -20.9634  -13.2407 C   0  0  2  0  0  0  0  0  0  0  0  0
   22.6421  -21.6759  -12.9038 N   0  0  0  0  0  0  0  0  0  0  0  0
   20.5976  -20.6845  -12.0502 C   0  0  0  0  0  0  0  0  0  0  0  0
   19.4868  -19.8509  -12.2047 O   0  0  0  0  0  0  0  0  0  0  0  0
   20.8152  -21.1491  -10.9241 O   0  0  0  0  0  0  0  0  0  0  0  0
  2  1  1  6
  2 10  1  0
  3  2  1  0
  4  5  2  0
  4  3  1  0
  6  5  1  0
  7  6  2  0
  8  7  1  0
  8  9  2  0
  9  4  1  0
 10 12  1  0
 10 11  2  0
 12 13  1  0
 13 14  1  1
 14 15  1  0
 16 13  1  0
 16 17  2  0
 19 18  1  6
 19 20  1  0
 19 21  1  0
 21 22  1  1
 22 16  1  0
 23 21  1  0
 24 23  1  0
 25 23  2  0
M  END
$$$$
