FCT.pdb
     RDKit          3D

 25 25  0  0  1  0  0  0  0  0999 V2000
   27.9789  -21.7126  -15.8842 N   0  0  0  0  0  0  0  0  0  0  0  0
   27.4734  -20.7008  -15.0095 C   0  0  1  0  0  0  0  0  0  0  0  0
   26.6934  -19.7133  -15.8806 C   0  0  0  0  0  0  0  0  0  0  0  0
   27.5813  -18.7041  -16.4957 C   0  0  0  0  0  0  0  0  0  0  0  0
   27.9154  -17.5417  -15.8436 C   0  0  0  0  0  0  0  0  0  0  0  0
   28.7564  -16.5934  -16.4371 C   0  0  0  0  0  0  0  0  0  0  0  0
   29.2665  -16.8114  -17.6935 C   0  0  0  0  0  0  0  0  0  0  0  0
   28.9359  -17.9753  -18.3542 C   0  0  0  0  0  0  0  0  0  0  0  0
   28.0938  -18.9180  -17.7521 C   0  0  0  0  0  0  0  0  0  0  0  0
   26.5555  -21.1945  -13.9727 C   0  0  0  0  0  0  0  0  0  0  0  0
   25.7959  -22.1540  -14.2893 O   0  0  0  0  0  0  0  0  0  0  0  0
   26.4964  -20.6428  -12.6618 N   0  0  0  0  0  0  0  0  0  0  0  0
   25.4200  -21.0073  -11.8012 C   0  0  1  0  0  0  0  0  0  0  0  0
   25.7437  -20.5272  -10.3877 C   0  0  0  0  0  0  0  0  0  0  0  0
   24.3520  -21.0093   -9.3135 S   0  0  0  0  0  0  0  0  0  0  0  0
   24.1085  -20.4705  -12.2533 C   0  0  0  0  0  0  0  0  0  0  0  0
   23.9825  -19.2516  -12.5372 O   0  0  0  0  0  0  0  0  0  0  0  0
   22.3191  -20.7592  -15.2595 C   0  0  0  0  0  0  0  0  0  0  0  0
   21.3274  -21.2126  -14.2406 C   0  0  1  0  0  0  0  0  0  0  0  0
   21.3132  -22.6215  -14.2515 O   0  0  0  0  0  0  0  0  0  0  0  0
   21.6752  -20.7979  -12.8327 C   0  0  2  0  0  0  0  0  0  0  0  0
   22.9465  -21.2802  -12.3892 N   0  0  0  0  0  0  0  0  0  0  0  0
   20.5712  -21.1664  -11.9026 C   0  0  0  0  0  0  0  0  0  0  0  0
   20.8408  -22.0708  -10.8721 O   0  0  0  0  0  0  0  0  0  0  0  0
   19.4211  -20.7175  -11.9870 O   0  0  0  0  0  0  0  0  0  0  0  0
  2  1  1  6
  2 10  1  0
  3  2  1  0
  4  5  2  0
  4  3  1  0
  6  5  1  0
  7  6  2  0
  8  7  1  0
  8  9  2  0
  9  4  1  0
 10 12  1  0
 10 11  2  0
 12 13  1  0
 13 14  1  1
 14 15  1  0
 16 13  1  0
 16 17  2  0
 19 18  1  6
 19 20  1  0
 19 21  1  0
 21 22  1  1
 22 16  1  0
 23 21  1  0
 24 23  1  0
 25 23  2  0
M  END
$$$$
