FCT.pdb
     RDKit          3D

 25 25  0  0  1  0  0  0  0  0999 V2000
   17.4112  -11.4925  -15.4184 N   0  0  0  0  0  0  0  0  0  0  0  0
   17.3795  -10.0659  -15.5084 C   0  0  1  0  0  0  0  0  0  0  0  0
   15.9159   -9.6687  -15.7146 C   0  0  0  0  0  0  0  0  0  0  0  0
   15.5670   -9.5844  -17.1487 C   0  0  0  0  0  0  0  0  0  0  0  0
   14.9019  -10.6004  -17.7917 C   0  0  0  0  0  0  0  0  0  0  0  0
   14.5780  -10.5091  -19.1502 C   0  0  0  0  0  0  0  0  0  0  0  0
   14.9232   -9.3913  -19.8699 C   0  0  0  0  0  0  0  0  0  0  0  0
   15.5907   -8.3678  -19.2317 C   0  0  0  0  0  0  0  0  0  0  0  0
   15.9103   -8.4685  -17.8723 C   0  0  0  0  0  0  0  0  0  0  0  0
   17.8604   -9.3688  -14.3067 C   0  0  0  0  0  0  0  0  0  0  0  0
   17.5798   -9.8910  -13.1902 O   0  0  0  0  0  0  0  0  0  0  0  0
   18.6100   -8.1598  -14.3585 N   0  0  0  0  0  0  0  0  0  0  0  0
   19.1018   -7.5933  -13.1462 C   0  0  1  0  0  0  0  0  0  0  0  0
   20.5299   -7.1054  -13.3819 C   0  0  0  0  0  0  0  0  0  0  0  0
   21.1757   -6.5098  -11.7846 S   0  0  0  0  0  0  0  0  0  0  0  0
   18.2457   -6.4909  -12.6320 C   0  0  0  0  0  0  0  0  0  0  0  0
   17.7099   -5.6764  -13.4268 O   0  0  0  0  0  0  0  0  0  0  0  0
   16.2069   -4.1700   -8.6675 C   0  0  0  0  0  0  0  0  0  0  0  0
   17.1167   -5.2205   -9.2113 C   0  0  1  0  0  0  0  0  0  0  0  0
   16.5845   -6.4760   -8.8567 O   0  0  0  0  0  0  0  0  0  0  0  0
   17.2221   -5.2086  -10.7159 C   0  0  2  0  0  0  0  0  0  0  0  0
   17.9866   -6.2943  -11.2469 N   0  0  0  0  0  0  0  0  0  0  0  0
   17.7153   -3.8831  -11.1843 C   0  0  0  0  0  0  0  0  0  0  0  0
   16.7846   -2.8639  -11.4027 O   0  0  0  0  0  0  0  0  0  0  0  0
   18.9078   -3.6268  -11.3936 O   0  0  0  0  0  0  0  0  0  0  0  0
  2  1  1  1
  2 10  1  0
  3  2  1  0
  4  5  2  0
  4  3  1  0
  6  5  1  0
  7  6  2  0
  8  7  1  0
  8  9  2  0
  9  4  1  0
 10 12  1  0
 10 11  2  0
 12 13  1  0
 13 14  1  6
 14 15  1  0
 16 13  1  0
 16 17  2  0
 19 18  1  6
 19 20  1  0
 19 21  1  0
 21 22  1  1
 22 16  1  0
 23 21  1  0
 24 23  1  0
 25 23  2  0
M  END
$$$$
