MER.pdb
     RDKit          3D

 29 28  0  0  1  0  0  0  0  0999 V2000
    8.0996  -11.7953   20.3804 C   0  0  0  0  0  0  0  0  0  0  0  0
    7.5254  -12.2819   18.7315 S   0  0  0  0  0  0  0  0  0  0  0  0
    6.7747  -13.9242   18.8401 C   0  0  0  0  0  0  0  0  0  0  0  0
    7.5124  -14.7970   19.8436 C   0  0  0  0  0  0  0  0  0  0  0  0
    8.0114  -16.0321   19.0952 C   0  0  2  0  0  0  0  0  0  0  0  0
    6.8450  -16.8475   18.8173 N   0  0  0  0  0  0  0  0  0  0  0  0
    8.9514  -16.7195   20.0152 C   0  0  0  0  0  0  0  0  0  0  0  0
    8.5963  -17.0042   21.1855 O   0  0  0  0  0  0  0  0  0  0  0  0
   10.2945  -17.0931   19.6331 N   0  0  0  0  0  0  0  0  0  0  0  0
   11.1701  -17.8025   20.4972 C   0  0  1  0  0  0  0  0  0  0  0  0
   12.2280  -18.6028   19.8169 C   0  0  0  0  0  0  0  0  0  0  0  0
   13.1919  -19.3526   20.6442 C   0  0  0  0  0  0  0  0  0  0  0  0
   14.1548  -20.1343   19.8727 C   0  0  0  0  0  0  0  0  0  0  0  0
   13.8293  -21.1580   19.2416 O   0  0  0  0  0  0  0  0  0  0  0  0
   11.8394  -16.9225   21.4930 C   0  0  0  0  0  0  0  0  0  0  0  0
   12.5457  -15.9684   21.0676 O   0  0  0  0  0  0  0  0  0  0  0  0
   15.5163  -19.7564   19.8090 O   0  0  0  0  0  0  0  0  0  0  0  0
   10.0058  -15.9788   29.6395 N   0  0  0  0  0  0  0  0  0  0  0  0
   10.2487  -14.8474   28.8129 C   0  0  0  0  0  0  0  0  0  0  0  0
    9.7073  -13.7374   29.1290 N   0  0  0  0  0  0  0  0  0  0  0  0
   11.0796  -14.9997   27.6766 N   0  0  0  0  0  0  0  0  0  0  0  0
   11.9564  -16.1252   27.5844 C   0  0  0  0  0  0  0  0  0  0  0  0
   12.8067  -15.9793   26.3131 C   0  0  0  0  0  0  0  0  0  0  0  0
   12.0110  -16.5979   25.2107 C   0  0  0  0  0  0  0  0  0  0  0  0
   12.5490  -16.2912   23.8291 C   0  0  2  0  0  0  0  0  0  0  0  0
   11.7471  -17.0699   22.8971 N   0  0  0  0  0  0  0  0  0  0  0  0
   13.9664  -16.7664   23.8193 C   0  0  0  0  0  0  0  0  0  0  0  0
   15.0396  -15.9112   23.8548 O   0  0  0  0  0  0  0  0  0  0  0  0
   14.1918  -18.0039   23.7769 O   0  0  0  0  0  0  0  0  0  0  0  0
  2  1  1  0
  3  2  1  0
  4  5  1  0
  4  3  1  0
  5  6  1  1
  7  5  1  0
  7  8  2  0
  9  7  1  0
 10  9  1  0
 10 11  1  6
 12 11  1  0
 12 13  1  0
 13 17  1  0
 13 14  2  0
 15 10  1  0
 16 15  2  0
 18 19  1  0
 19 20  2  0
 19 21  1  0
 21 22  1  0
 22 23  1  0
 23 24  1  0
 25 24  1  1
 25 26  1  0
 25 27  1  0
 26 15  1  0
 27 28  1  0
 29 27  2  0
M  END
$$$$
