MER.pdb
     RDKit          3D

 29 28  0  0  1  0  0  0  0  0999 V2000
    8.1196  -12.3630   21.8109 C   0  0  0  0  0  0  0  0  0  0  0  0
    7.9595  -12.4890   20.0098 S   0  0  0  0  0  0  0  0  0  0  0  0
    7.0758  -14.0165   19.6116 C   0  0  0  0  0  0  0  0  0  0  0  0
    7.6374  -15.1928   20.3951 C   0  0  0  0  0  0  0  0  0  0  0  0
    8.5400  -15.9830   19.4489 C   0  0  2  0  0  0  0  0  0  0  0  0
    7.6695  -16.6110   18.4740 N   0  0  0  0  0  0  0  0  0  0  0  0
    9.2358  -16.9900   20.2882 C   0  0  0  0  0  0  0  0  0  0  0  0
    8.7235  -17.3766   21.3674 O   0  0  0  0  0  0  0  0  0  0  0  0
   10.5090  -17.5712   19.9268 N   0  0  0  0  0  0  0  0  0  0  0  0
   11.1479  -18.5695   20.7090 C   0  0  1  0  0  0  0  0  0  0  0  0
   12.2691  -19.2862   20.0370 C   0  0  0  0  0  0  0  0  0  0  0  0
   12.9210  -20.4044   20.7445 C   0  0  0  0  0  0  0  0  0  0  0  0
   13.2237  -21.5510   19.8917 C   0  0  0  0  0  0  0  0  0  0  0  0
   13.6171  -21.4222   18.7166 O   0  0  0  0  0  0  0  0  0  0  0  0
   11.6570  -18.0500   22.0071 C   0  0  0  0  0  0  0  0  0  0  0  0
   12.0821  -16.8637   22.0502 O   0  0  0  0  0  0  0  0  0  0  0  0
   13.0810  -22.8739   20.3712 O   0  0  0  0  0  0  0  0  0  0  0  0
   11.3221  -21.6837   30.0105 N   0  0  0  0  0  0  0  0  0  0  0  0
   12.3297  -20.6930   30.1708 C   0  0  0  0  0  0  0  0  0  0  0  0
   12.9962  -20.6757   31.2574 N   0  0  0  0  0  0  0  0  0  0  0  0
   12.5507  -19.7699   29.1203 N   0  0  0  0  0  0  0  0  0  0  0  0
   11.9796  -20.0108   27.8320 C   0  0  0  0  0  0  0  0  0  0  0  0
   12.4603  -18.9124   26.8713 C   0  0  0  0  0  0  0  0  0  0  0  0
   11.8626  -19.2364   25.5413 C   0  0  0  0  0  0  0  0  0  0  0  0
   12.2080  -18.2333   24.4610 C   0  0  2  0  0  0  0  0  0  0  0  0
   11.7038  -18.7877   23.2134 N   0  0  0  0  0  0  0  0  0  0  0  0
   13.7005  -18.1529   24.4294 C   0  0  0  0  0  0  0  0  0  0  0  0
   14.4051  -17.1362   25.0245 O   0  0  0  0  0  0  0  0  0  0  0  0
   14.3447  -19.0544   23.8324 O   0  0  0  0  0  0  0  0  0  0  0  0
  2  1  1  0
  3  2  1  0
  4  5  1  0
  4  3  1  0
  5  6  1  6
  7  5  1  0
  7  8  2  0
  9  7  1  0
 10  9  1  0
 10 11  1  6
 12 11  1  0
 12 13  1  0
 13 17  1  0
 13 14  2  0
 15 10  1  0
 16 15  2  0
 18 19  1  0
 19 20  2  0
 19 21  1  0
 21 22  1  0
 22 23  1  0
 23 24  1  0
 25 24  1  1
 25 26  1  0
 25 27  1  0
 26 15  1  0
 27 28  1  0
 29 27  2  0
M  END
$$$$
