MER.pdb
     RDKit          3D

 29 28  0  0  1  0  0  0  0  0999 V2000
    7.3633  -11.3103   22.4213 C   0  0  0  0  0  0  0  0  0  0  0  0
    7.7792  -11.3133   20.6570 S   0  0  0  0  0  0  0  0  0  0  0  0
    7.5513  -12.9874   20.0103 C   0  0  0  0  0  0  0  0  0  0  0  0
    8.0918  -14.0263   20.9806 C   0  0  0  0  0  0  0  0  0  0  0  0
    7.8923  -15.3985   20.3388 C   0  0  2  0  0  0  0  0  0  0  0  0
    6.4606  -15.6015   20.2315 N   0  0  0  0  0  0  0  0  0  0  0  0
    8.5151  -16.3796   21.2619 C   0  0  0  0  0  0  0  0  0  0  0  0
    7.8473  -16.8749   22.2029 O   0  0  0  0  0  0  0  0  0  0  0  0
    9.8886  -16.8133   21.1394 N   0  0  0  0  0  0  0  0  0  0  0  0
   10.5024  -17.6934   22.0696 C   0  0  1  0  0  0  0  0  0  0  0  0
   11.9457  -17.9751   21.8247 C   0  0  0  0  0  0  0  0  0  0  0  0
   12.6471  -18.9131   22.7214 C   0  0  0  0  0  0  0  0  0  0  0  0
   14.0566  -19.1082   22.3918 C   0  0  0  0  0  0  0  0  0  0  0  0
   14.8165  -18.1577   22.1249 O   0  0  0  0  0  0  0  0  0  0  0  0
   10.3641  -17.2350   23.4784 C   0  0  0  0  0  0  0  0  0  0  0  0
   10.7970  -16.0895   23.7790 O   0  0  0  0  0  0  0  0  0  0  0  0
   14.6257  -20.4027   22.3616 O   0  0  0  0  0  0  0  0  0  0  0  0
    5.0885  -22.1272   28.2754 N   0  0  0  0  0  0  0  0  0  0  0  0
    6.3683  -22.1434   27.6556 C   0  0  0  0  0  0  0  0  0  0  0  0
    7.2645  -22.9136   28.1341 N   0  0  0  0  0  0  0  0  0  0  0  0
    6.5937  -21.3065   26.5360 N   0  0  0  0  0  0  0  0  0  0  0  0
    6.7802  -19.9018   26.7261 C   0  0  0  0  0  0  0  0  0  0  0  0
    8.1581  -19.5121   26.1694 C   0  0  0  0  0  0  0  0  0  0  0  0
    8.2810  -18.0367   26.3667 C   0  0  0  0  0  0  0  0  0  0  0  0
    9.5916  -17.4656   25.8678 C   0  0  2  0  0  0  0  0  0  0  0  0
    9.7787  -17.9889   24.5227 N   0  0  0  0  0  0  0  0  0  0  0  0
   10.6501  -17.9918   26.7830 C   0  0  0  0  0  0  0  0  0  0  0  0
   10.7761  -17.5862   28.0883 O   0  0  0  0  0  0  0  0  0  0  0  0
   11.4646  -18.8445   26.3428 O   0  0  0  0  0  0  0  0  0  0  0  0
  2  1  1  0
  3  2  1  0
  4  5  1  0
  4  3  1  0
  5  6  1  1
  7  5  1  0
  7  8  2  0
  9  7  1  0
 10  9  1  0
 10 11  1  6
 12 11  1  0
 12 13  1  0
 13 17  1  0
 13 14  2  0
 15 10  1  0
 16 15  2  0
 18 19  1  0
 19 20  2  0
 19 21  1  0
 21 22  1  0
 22 23  1  0
 23 24  1  0
 25 24  1  1
 25 26  1  0
 25 27  1  0
 26 15  1  0
 27 28  1  0
 29 27  2  0
M  END
$$$$
