MER.pdb
     RDKit          3D

 29 28  0  0  1  0  0  0  0  0999 V2000
    8.9460  -12.1558   19.9197 C   0  0  0  0  0  0  0  0  0  0  0  0
    7.1690  -12.3525   20.2189 S   0  0  0  0  0  0  0  0  0  0  0  0
    6.7274  -14.0888   19.9679 C   0  0  0  0  0  0  0  0  0  0  0  0
    7.5809  -15.0007   20.8356 C   0  0  0  0  0  0  0  0  0  0  0  0
    8.1574  -16.0865   19.9283 C   0  0  2  0  0  0  0  0  0  0  0  0
    7.0466  -16.9324   19.5371 N   0  0  0  0  0  0  0  0  0  0  0  0
    9.1455  -16.8285   20.7503 C   0  0  0  0  0  0  0  0  0  0  0  0
    9.0583  -16.8220   22.0029 O   0  0  0  0  0  0  0  0  0  0  0  0
   10.2378  -17.5825   20.1775 N   0  0  0  0  0  0  0  0  0  0  0  0
   11.2343  -18.2132   20.9685 C   0  0  1  0  0  0  0  0  0  0  0  0
   12.2326  -19.0215   20.2118 C   0  0  0  0  0  0  0  0  0  0  0  0
   13.2767  -19.7431   20.9634 C   0  0  0  0  0  0  0  0  0  0  0  0
   14.2264  -20.4629   20.1187 C   0  0  0  0  0  0  0  0  0  0  0  0
   15.4382  -20.1756   20.0837 O   0  0  0  0  0  0  0  0  0  0  0  0
   11.9844  -17.2560   21.8259 C   0  0  0  0  0  0  0  0  0  0  0  0
   12.2997  -16.1371   21.3375 O   0  0  0  0  0  0  0  0  0  0  0  0
   13.8039  -21.5311   19.2935 O   0  0  0  0  0  0  0  0  0  0  0  0
    9.8208  -15.3284   29.9311 N   0  0  0  0  0  0  0  0  0  0  0  0
    9.8931  -14.6834   28.6657 C   0  0  0  0  0  0  0  0  0  0  0  0
    9.7604  -13.4163   28.6220 N   0  0  0  0  0  0  0  0  0  0  0  0
   10.1092  -15.4726   27.5102 N   0  0  0  0  0  0  0  0  0  0  0  0
   11.4439  -15.7800   27.1002 C   0  0  0  0  0  0  0  0  0  0  0  0
   11.3788  -16.6276   25.8204 C   0  0  0  0  0  0  0  0  0  0  0  0
   12.7954  -16.8742   25.4159 C   0  0  0  0  0  0  0  0  0  0  0  0
   13.0840  -16.5196   23.9725 C   0  0  2  0  0  0  0  0  0  0  0  0
   12.3782  -17.5013   23.1625 N   0  0  0  0  0  0  0  0  0  0  0  0
   14.5614  -16.6642   23.7958 C   0  0  0  0  0  0  0  0  0  0  0  0
   15.4627  -15.7443   24.2710 O   0  0  0  0  0  0  0  0  0  0  0  0
   15.0043  -17.6718   23.1851 O   0  0  0  0  0  0  0  0  0  0  0  0
  2  1  1  0
  3  2  1  0
  4  5  1  0
  4  3  1  0
  5  6  1  1
  7  5  1  0
  7  8  2  0
  9  7  1  0
 10  9  1  0
 10 11  1  6
 12 11  1  0
 12 13  1  0
 13 17  1  0
 13 14  2  0
 15 10  1  0
 16 15  2  0
 18 19  1  0
 19 20  2  0
 19 21  1  0
 21 22  1  0
 22 23  1  0
 23 24  1  0
 25 24  1  1
 25 26  1  0
 25 27  1  0
 26 15  1  0
 27 28  1  0
 29 27  2  0
M  END
$$$$
