MER.pdb
     RDKit          3D

 29 28  0  0  1  0  0  0  0  0999 V2000
    7.6782  -12.2305   28.1331 C   0  0  0  0  0  0  0  0  0  0  0  0
    6.7860  -11.4551   26.7589 S   0  0  0  0  0  0  0  0  0  0  0  0
    6.3406  -12.7353   25.5608 C   0  0  0  0  0  0  0  0  0  0  0  0
    7.3122  -13.9036   25.6229 C   0  0  0  0  0  0  0  0  0  0  0  0
    6.8797  -14.9147   24.5621 C   0  0  2  0  0  0  0  0  0  0  0  0
    5.5926  -15.4325   24.9838 N   0  0  0  0  0  0  0  0  0  0  0  0
    7.9187  -15.9744   24.5549 C   0  0  0  0  0  0  0  0  0  0  0  0
    7.8735  -16.9100   25.3910 O   0  0  0  0  0  0  0  0  0  0  0  0
    9.0151  -15.9950   23.6131 N   0  0  0  0  0  0  0  0  0  0  0  0
    9.9962  -17.0216   23.5983 C   0  0  1  0  0  0  0  0  0  0  0  0
   10.9381  -16.9874   22.4432 C   0  0  0  0  0  0  0  0  0  0  0  0
   12.0008  -18.0073   22.3645 C   0  0  0  0  0  0  0  0  0  0  0  0
   13.1896  -17.5715   21.6363 C   0  0  0  0  0  0  0  0  0  0  0  0
   13.1246  -17.0394   20.5117 O   0  0  0  0  0  0  0  0  0  0  0  0
   10.8095  -17.0632   24.8436 C   0  0  0  0  0  0  0  0  0  0  0  0
   11.4552  -16.0304   25.1700 O   0  0  0  0  0  0  0  0  0  0  0  0
   14.4824  -17.7376   22.1854 O   0  0  0  0  0  0  0  0  0  0  0  0
   13.4401  -22.6416   30.1616 N   0  0  0  0  0  0  0  0  0  0  0  0
   12.5659  -22.1546   31.1721 C   0  0  0  0  0  0  0  0  0  0  0  0
   12.3343  -22.8960   32.1830 N   0  0  0  0  0  0  0  0  0  0  0  0
   11.9910  -20.8703   31.0146 N   0  0  0  0  0  0  0  0  0  0  0  0
   11.2345  -20.5708   29.8390 C   0  0  0  0  0  0  0  0  0  0  0  0
   11.9713  -19.4784   29.0490 C   0  0  0  0  0  0  0  0  0  0  0  0
   11.1697  -19.2538   27.8088 C   0  0  0  0  0  0  0  0  0  0  0  0
   11.7354  -18.1759   26.9084 C   0  0  2  0  0  0  0  0  0  0  0  0
   10.9193  -18.1813   25.7034 N   0  0  0  0  0  0  0  0  0  0  0  0
   13.1358  -18.5918   26.5905 C   0  0  0  0  0  0  0  0  0  0  0  0
   14.2312  -18.0801   27.2406 O   0  0  0  0  0  0  0  0  0  0  0  0
   13.3249  -19.4485   25.6880 O   0  0  0  0  0  0  0  0  0  0  0  0
  2  1  1  0
  3  2  1  0
  4  5  1  0
  4  3  1  0
  5  6  1  1
  7  5  1  0
  7  8  2  0
  9  7  1  0
 10  9  1  0
 10 11  1  6
 12 11  1  0
 12 13  1  0
 13 17  1  0
 13 14  2  0
 15 10  1  0
 16 15  2  0
 18 19  1  0
 19 20  2  0
 19 21  1  0
 21 22  1  0
 22 23  1  0
 23 24  1  0
 25 24  1  1
 25 26  1  0
 25 27  1  0
 26 15  1  0
 27 28  1  0
 29 27  2  0
M  END
$$$$
