MER.pdb
     RDKit          3D

 29 28  0  0  1  0  0  0  0  0999 V2000
    5.8996  -11.4184   26.9828 C   0  0  0  0  0  0  0  0  0  0  0  0
    6.7524  -12.9380   26.4839 S   0  0  0  0  0  0  0  0  0  0  0  0
    6.5596  -13.1516   24.6978 C   0  0  0  0  0  0  0  0  0  0  0  0
    6.3500  -14.6153   24.3420 C   0  0  0  0  0  0  0  0  0  0  0  0
    7.2237  -15.4439   25.2826 C   0  0  2  0  0  0  0  0  0  0  0  0
    8.0174  -14.5022   26.0479 N   0  0  0  0  0  0  0  0  0  0  0  0
    8.0740  -16.2944   24.4129 C   0  0  0  0  0  0  0  0  0  0  0  0
    7.5683  -17.2490   23.7729 O   0  0  0  0  0  0  0  0  0  0  0  0
    9.4951  -16.0835   24.2532 N   0  0  0  0  0  0  0  0  0  0  0  0
   10.3872  -17.1190   23.8678 C   0  0  1  0  0  0  0  0  0  0  0  0
   11.2681  -16.8032   22.7073 C   0  0  0  0  0  0  0  0  0  0  0  0
   12.1549  -17.8587   22.1826 C   0  0  0  0  0  0  0  0  0  0  0  0
   12.9943  -17.4289   21.0672 C   0  0  0  0  0  0  0  0  0  0  0  0
   12.5414  -16.7846   20.1018 O   0  0  0  0  0  0  0  0  0  0  0  0
   11.2573  -17.5786   24.9839 C   0  0  0  0  0  0  0  0  0  0  0  0
   11.8398  -16.7072   25.6849 O   0  0  0  0  0  0  0  0  0  0  0  0
   14.3758  -17.7304   21.0361 O   0  0  0  0  0  0  0  0  0  0  0  0
    9.2917  -23.1760   30.7125 N   0  0  0  0  0  0  0  0  0  0  0  0
    9.9504  -22.1040   31.3752 C   0  0  0  0  0  0  0  0  0  0  0  0
    9.8021  -21.9871   32.6360 N   0  0  0  0  0  0  0  0  0  0  0  0
   10.7418  -21.2135   30.6100 N   0  0  0  0  0  0  0  0  0  0  0  0
   10.8139  -21.3691   29.1906 C   0  0  0  0  0  0  0  0  0  0  0  0
   11.6878  -20.2419   28.6193 C   0  0  0  0  0  0  0  0  0  0  0  0
   11.7165  -20.4506   27.1406 C   0  0  0  0  0  0  0  0  0  0  0  0
   12.4048  -19.3341   26.3842 C   0  0  2  0  0  0  0  0  0  0  0  0
   11.4879  -18.9313   25.3281 N   0  0  0  0  0  0  0  0  0  0  0  0
   13.6440  -19.9305   25.7982 C   0  0  0  0  0  0  0  0  0  0  0  0
   14.8276  -20.0177   26.4881 O   0  0  0  0  0  0  0  0  0  0  0  0
   13.6066  -20.3738   24.6208 O   0  0  0  0  0  0  0  0  0  0  0  0
  2  1  1  0
  3  2  1  0
  4  5  1  0
  4  3  1  0
  5  6  1  6
  7  5  1  0
  7  8  2  0
  9  7  1  0
 10  9  1  0
 10 11  1  6
 12 11  1  0
 12 13  1  0
 13 17  1  0
 13 14  2  0
 15 10  1  0
 16 15  2  0
 18 19  1  0
 19 20  2  0
 19 21  1  0
 21 22  1  0
 22 23  1  0
 23 24  1  0
 25 24  1  1
 25 26  1  0
 25 27  1  0
 26 15  1  0
 27 28  1  0
 29 27  2  0
M  END
$$$$
