CEM.pdb
     RDKit          3D

 24 23  0  0  1  0  0  0  0  0999 V2000
   20.5647  -22.0298  -13.3294 N   0  0  0  0  0  0  0  0  0  0  0  0
   21.2462  -20.9163  -12.7095 C   0  0  1  0  0  0  0  0  0  0  0  0
   20.4071  -20.3118  -11.5977 C   0  0  0  0  0  0  0  0  0  0  0  0
   19.0747  -19.3687  -12.3730 S   0  0  0  0  0  0  0  0  0  0  0  0
   22.5389  -21.4059  -12.1599 C   0  0  0  0  0  0  0  0  0  0  0  0
   22.5322  -22.5035  -11.5555 O   0  0  0  0  0  0  0  0  0  0  0  0
   23.7440  -20.6491  -12.3175 N   0  0  0  0  0  0  0  0  0  0  0  0
   25.0375  -21.1796  -11.8330 C   0  0  1  0  0  0  0  0  0  0  0  0
   26.0517  -20.8455  -12.8629 C   0  0  0  0  0  0  0  0  0  0  0  0
   27.4367  -21.3181  -12.6595 C   0  0  0  0  0  0  0  0  0  0  0  0
   28.3807  -21.0185  -13.7573 C   0  0  0  0  0  0  0  0  0  0  0  0
   28.0227  -20.3041  -14.7161 O   0  0  0  0  0  0  0  0  0  0  0  0
   25.2678  -20.6538  -10.4841 C   0  0  0  0  0  0  0  0  0  0  0  0
   24.7049  -19.5487  -10.1407 O   0  0  0  0  0  0  0  0  0  0  0  0
   29.6707  -21.5166  -13.7503 O   0  0  0  0  0  0  0  0  0  0  0  0
   30.2179  -22.2235   -6.3760 C   0  0  0  0  0  0  0  0  0  0  0  0
   29.2798  -21.0493   -5.3840 S   0  0  0  0  0  0  0  0  0  0  0  0
   27.8625  -20.3706   -6.2355 C   0  0  0  0  0  0  0  0  0  0  0  0
   27.5600  -21.0942   -7.5301 C   0  0  0  0  0  0  0  0  0  0  0  0
   26.3646  -20.5415   -8.2299 C   0  0  2  0  0  0  0  0  0  0  0  0
   26.0586  -21.2280   -9.4687 N   0  0  0  0  0  0  0  0  0  0  0  0
   26.6288  -19.0929   -8.5147 C   0  0  0  0  0  0  0  0  0  0  0  0
   26.2580  -18.2345   -7.6842 O   0  0  0  0  0  0  0  0  0  0  0  0
   27.2731  -18.6782   -9.6732 O   0  0  0  0  0  0  0  0  0  0  0  0
  2  1  1  1
  2  5  1  0
  3  2  1  0
  4  3  1  0
  5  6  2  0
  7  5  1  0
  7  8  1  0
  8  9  1  6
 10  9  1  0
 10 11  1  0
 11 15  1  0
 11 12  2  0
 13  8  1  0
 13 21  1  0
 14 13  2  0
 16 17  1  0
 18 17  1  0
 19 18  1  0
 20 21  1  0
 20 19  1  6
 22 24  1  0
 22 20  1  0
 23 22  2  0
M  END
$$$$
