CEM.pdb
     RDKit          3D

 24 23  0  0  1  0  0  0  0  0999 V2000
   26.1937  -21.2112  -15.7483 N   0  0  0  0  0  0  0  0  0  0  0  0
   25.1488  -22.1845  -15.5258 C   0  0  1  0  0  0  0  0  0  0  0  0
   25.6934  -23.4244  -14.8390 C   0  0  0  0  0  0  0  0  0  0  0  0
   24.3341  -24.6062  -14.6918 S   0  0  0  0  0  0  0  0  0  0  0  0
   24.0973  -21.5575  -14.6808 C   0  0  0  0  0  0  0  0  0  0  0  0
   24.4723  -20.9116  -13.6747 O   0  0  0  0  0  0  0  0  0  0  0  0
   22.7095  -21.6888  -15.0076 N   0  0  0  0  0  0  0  0  0  0  0  0
   21.6753  -21.0100  -14.1959 C   0  0  1  0  0  0  0  0  0  0  0  0
   21.0821  -19.9537  -15.0521 C   0  0  0  0  0  0  0  0  0  0  0  0
   19.9742  -19.1468  -14.5005 C   0  0  0  0  0  0  0  0  0  0  0  0
   20.3660  -17.8598  -13.8871 C   0  0  0  0  0  0  0  0  0  0  0  0
   21.2407  -17.1490  -14.4233 O   0  0  0  0  0  0  0  0  0  0  0  0
   20.7606  -22.0319  -13.6783 C   0  0  0  0  0  0  0  0  0  0  0  0
   20.3244  -22.9413  -14.4777 O   0  0  0  0  0  0  0  0  0  0  0  0
   19.7799  -17.4150  -12.7163 O   0  0  0  0  0  0  0  0  0  0  0  0
   18.9449  -25.4944   -7.6127 C   0  0  0  0  0  0  0  0  0  0  0  0
   17.7757  -24.3434   -8.3550 S   0  0  0  0  0  0  0  0  0  0  0  0
   17.9654  -24.1781  -10.1244 C   0  0  0  0  0  0  0  0  0  0  0  0
   19.0469  -23.1894  -10.5038 C   0  0  0  0  0  0  0  0  0  0  0  0
   19.2967  -23.1491  -11.9736 C   0  0  2  0  0  0  0  0  0  0  0  0
   20.2772  -22.1548  -12.3603 N   0  0  0  0  0  0  0  0  0  0  0  0
   17.9925  -22.8535  -12.6526 C   0  0  0  0  0  0  0  0  0  0  0  0
   17.5507  -21.6837  -12.6333 O   0  0  0  0  0  0  0  0  0  0  0  0
   17.2623  -23.8410  -13.3013 O   0  0  0  0  0  0  0  0  0  0  0  0
  2  1  1  1
  2  5  1  0
  3  2  1  0
  4  3  1  0
  5  6  2  0
  7  5  1  0
  7  8  1  0
  8  9  1  6
 10  9  1  0
 10 11  1  0
 11 15  1  0
 11 12  2  0
 13  8  1  0
 13 21  1  0
 14 13  2  0
 16 17  1  0
 18 17  1  0
 19 18  1  0
 20 21  1  0
 20 19  1  1
 22 24  1  0
 22 20  1  0
 23 22  2  0
M  END
$$$$
