CEM.pdb
     RDKit          3D

 24 23  0  0  1  0  0  0  0  0999 V2000
   16.9388  -12.2305  -17.8037 N   0  0  0  0  0  0  0  0  0  0  0  0
   17.0765  -11.5861  -16.5174 C   0  0  1  0  0  0  0  0  0  0  0  0
   17.8245  -12.4735  -15.5383 C   0  0  0  0  0  0  0  0  0  0  0  0
   16.6142  -13.5685  -14.7625 S   0  0  0  0  0  0  0  0  0  0  0  0
   17.8148  -10.3092  -16.7103 C   0  0  0  0  0  0  0  0  0  0  0  0
   18.8350  -10.3347  -17.4373 O   0  0  0  0  0  0  0  0  0  0  0  0
   17.3737   -9.0979  -16.0872 N   0  0  0  0  0  0  0  0  0  0  0  0
   18.1671   -7.8548  -16.2071 C   0  0  1  0  0  0  0  0  0  0  0  0
   17.2742   -6.7360  -15.8176 C   0  0  0  0  0  0  0  0  0  0  0  0
   17.8421   -5.3730  -15.7677 C   0  0  0  0  0  0  0  0  0  0  0  0
   17.9982   -4.6986  -17.0741 C   0  0  0  0  0  0  0  0  0  0  0  0
   17.1061   -4.7958  -17.9417 O   0  0  0  0  0  0  0  0  0  0  0  0
   19.3956   -8.0226  -15.4251 C   0  0  0  0  0  0  0  0  0  0  0  0
   19.3246   -8.5656  -14.2605 O   0  0  0  0  0  0  0  0  0  0  0  0
   19.1244   -3.9509  -17.3657 O   0  0  0  0  0  0  0  0  0  0  0  0
   26.8602  -10.0977  -14.4720 C   0  0  0  0  0  0  0  0  0  0  0  0
   25.4535   -9.7631  -15.5454 S   0  0  0  0  0  0  0  0  0  0  0  0
   24.1781   -8.7854  -14.7634 C   0  0  0  0  0  0  0  0  0  0  0  0
   22.9565   -8.6136  -15.6406 C   0  0  0  0  0  0  0  0  0  0  0  0
   21.8560   -7.8784  -14.9530 C   0  0  2  0  0  0  0  0  0  0  0  0
   20.7025   -7.6522  -15.8004 N   0  0  0  0  0  0  0  0  0  0  0  0
   22.4028   -6.5599  -14.4928 C   0  0  0  0  0  0  0  0  0  0  0  0
   22.3168   -5.5699  -15.2520 O   0  0  0  0  0  0  0  0  0  0  0  0
   23.0012   -6.4075  -13.2486 O   0  0  0  0  0  0  0  0  0  0  0  0
  2  1  1  6
  2  5  1  0
  3  2  1  0
  4  3  1  0
  5  6  2  0
  7  5  1  0
  7  8  1  0
  8  9  1  1
 10  9  1  0
 10 11  1  0
 11 15  1  0
 11 12  2  0
 13  8  1  0
 13 21  1  0
 14 13  2  0
 16 17  1  0
 18 17  1  0
 19 18  1  0
 20 21  1  0
 20 19  1  6
 22 24  1  0
 22 20  1  0
 23 22  2  0
M  END
$$$$
