CEM.pdb
     RDKit          3D

 24 23  0  0  1  0  0  0  0  0999 V2000
   17.3460  -15.0970  -18.1412 N   0  0  0  0  0  0  0  0  0  0  0  0
   18.1624  -14.4795  -17.1209 C   0  0  1  0  0  0  0  0  0  0  0  0
   19.3822  -15.3281  -16.8085 C   0  0  0  0  0  0  0  0  0  0  0  0
   18.8034  -16.8326  -15.9916 S   0  0  0  0  0  0  0  0  0  0  0  0
   18.5881  -13.1404  -17.6092 C   0  0  0  0  0  0  0  0  0  0  0  0
   18.1887  -12.7835  -18.7420 O   0  0  0  0  0  0  0  0  0  0  0  0
   19.4229  -12.2931  -16.8121 N   0  0  0  0  0  0  0  0  0  0  0  0
   19.7395  -10.9161  -17.2513 C   0  0  1  0  0  0  0  0  0  0  0  0
   18.4509  -10.1864  -17.3395 C   0  0  0  0  0  0  0  0  0  0  0  0
   18.4876   -8.7294  -17.5820 C   0  0  0  0  0  0  0  0  0  0  0  0
   17.6800   -7.9078  -16.6553 C   0  0  0  0  0  0  0  0  0  0  0  0
   17.3814   -8.3457  -15.5253 O   0  0  0  0  0  0  0  0  0  0  0  0
   20.7477  -10.3686  -16.3387 C   0  0  0  0  0  0  0  0  0  0  0  0
   20.6018  -10.5412  -15.0718 O   0  0  0  0  0  0  0  0  0  0  0  0
   17.2393   -6.6467  -17.0126 O   0  0  0  0  0  0  0  0  0  0  0  0
   26.9116  -11.8564  -15.3251 C   0  0  0  0  0  0  0  0  0  0  0  0
   26.9025  -10.0560  -15.2897 S   0  0  0  0  0  0  0  0  0  0  0  0
   25.2882   -9.3584  -14.9715 C   0  0  0  0  0  0  0  0  0  0  0  0
   24.2756   -9.7257  -16.0350 C   0  0  0  0  0  0  0  0  0  0  0  0
   22.9017   -9.2462  -15.7083 C   0  0  2  0  0  0  0  0  0  0  0  0
   21.9085   -9.6479  -16.6839 N   0  0  0  0  0  0  0  0  0  0  0  0
   22.9453   -7.7491  -15.6286 C   0  0  0  0  0  0  0  0  0  0  0  0
   23.1936   -7.2078  -14.5290 O   0  0  0  0  0  0  0  0  0  0  0  0
   22.7179   -6.9480  -16.7402 O   0  0  0  0  0  0  0  0  0  0  0  0
  2  1  1  6
  2  5  1  0
  3  2  1  0
  4  3  1  0
  5  6  2  0
  7  5  1  0
  7  8  1  0
  8  9  1  1
 10  9  1  0
 10 11  1  0
 11 15  1  0
 11 12  2  0
 13  8  1  0
 13 21  1  0
 14 13  2  0
 16 17  1  0
 18 17  1  0
 19 18  1  0
 20 21  1  0
 20 19  1  6
 22 24  1  0
 22 20  1  0
 23 22  2  0
M  END
$$$$
