CEM.pdb
     RDKit          3D

 24 23  0  0  1  0  0  0  0  0999 V2000
   19.0191  -10.0291  -17.3318 N   0  0  0  0  0  0  0  0  0  0  0  0
   18.1514  -10.1865  -16.1869 C   0  0  1  0  0  0  0  0  0  0  0  0
   18.5914  -11.3556  -15.3236 C   0  0  0  0  0  0  0  0  0  0  0  0
   18.1544  -12.8741  -16.2006 S   0  0  0  0  0  0  0  0  0  0  0  0
   18.1897   -8.9284  -15.3941 C   0  0  0  0  0  0  0  0  0  0  0  0
   17.4349   -8.8494  -14.3970 O   0  0  0  0  0  0  0  0  0  0  0  0
   19.0579   -7.8499  -15.7590 N   0  0  0  0  0  0  0  0  0  0  0  0
   19.0604   -6.5881  -14.9862 C   0  0  1  0  0  0  0  0  0  0  0  0
   20.4307   -6.4198  -14.4431 C   0  0  0  0  0  0  0  0  0  0  0  0
   20.7821   -5.1268  -13.8206 C   0  0  0  0  0  0  0  0  0  0  0  0
   22.1459   -5.0401  -13.2564 C   0  0  0  0  0  0  0  0  0  0  0  0
   22.5939   -3.9439  -12.8618 O   0  0  0  0  0  0  0  0  0  0  0  0
   18.5593   -5.5208  -15.8571 C   0  0  0  0  0  0  0  0  0  0  0  0
   18.9292   -5.4957  -17.0895 O   0  0  0  0  0  0  0  0  0  0  0  0
   22.9519   -6.1589  -13.1522 O   0  0  0  0  0  0  0  0  0  0  0  0
   13.0685   -0.5646  -18.5206 C   0  0  0  0  0  0  0  0  0  0  0  0
   13.6255   -1.7355  -17.2709 S   0  0  0  0  0  0  0  0  0  0  0  0
   15.3744   -2.0928  -17.3595 C   0  0  0  0  0  0  0  0  0  0  0  0
   15.7954   -3.1819  -16.3963 C   0  0  0  0  0  0  0  0  0  0  0  0
   17.2606   -3.4558  -16.4457 C   0  0  2  0  0  0  0  0  0  0  0  0
   17.6843   -4.4735  -15.5053 N   0  0  0  0  0  0  0  0  0  0  0  0
   17.9773   -2.1725  -16.1480 C   0  0  0  0  0  0  0  0  0  0  0  0
   18.2972   -1.9171  -14.9662 O   0  0  0  0  0  0  0  0  0  0  0  0
   18.2956   -1.2607  -17.1463 O   0  0  0  0  0  0  0  0  0  0  0  0
  2  1  1  6
  2  5  1  0
  3  2  1  0
  4  3  1  0
  5  6  2  0
  7  5  1  0
  7  8  1  0
  8  9  1  6
 10  9  1  0
 10 11  1  0
 11 15  1  0
 11 12  2  0
 13  8  1  0
 13 21  1  0
 14 13  2  0
 16 17  1  0
 18 17  1  0
 19 18  1  0
 20 21  1  0
 20 19  1  1
 22 24  1  0
 22 20  1  0
 23 22  2  0
M  END
$$$$
