CEM.pdb
     RDKit          3D

 24 23  0  0  1  0  0  0  0  0999 V2000
   25.7490  -16.9181  -18.0058 N   0  0  0  0  0  0  0  0  0  0  0  0
   26.4936  -18.0584  -17.5221 C   0  0  1  0  0  0  0  0  0  0  0  0
   27.8939  -17.6559  -17.0945 C   0  0  0  0  0  0  0  0  0  0  0  0
   27.7307  -16.5129  -15.7043 S   0  0  0  0  0  0  0  0  0  0  0  0
   25.7590  -18.6414  -16.3675 C   0  0  0  0  0  0  0  0  0  0  0  0
   24.9375  -17.9055  -15.7728 O   0  0  0  0  0  0  0  0  0  0  0  0
   25.9843  -19.9935  -15.9535 N   0  0  0  0  0  0  0  0  0  0  0  0
   25.2060  -20.5822  -14.8413 C   0  0  1  0  0  0  0  0  0  0  0  0
   24.8422  -21.9600  -15.2538 C   0  0  0  0  0  0  0  0  0  0  0  0
   25.8405  -23.0328  -15.0655 C   0  0  0  0  0  0  0  0  0  0  0  0
   25.4085  -24.3856  -15.4767 C   0  0  0  0  0  0  0  0  0  0  0  0
   26.1254  -25.3766  -15.2276 O   0  0  0  0  0  0  0  0  0  0  0  0
   25.9948  -20.4468  -13.6132 C   0  0  0  0  0  0  0  0  0  0  0  0
   27.2747  -20.3467  -13.7015 O   0  0  0  0  0  0  0  0  0  0  0  0
   24.2122  -24.5861  -16.1407 O   0  0  0  0  0  0  0  0  0  0  0  0
   26.8333  -19.2503   -5.7751 C   0  0  0  0  0  0  0  0  0  0  0  0
   25.7313  -19.6264   -7.1488 S   0  0  0  0  0  0  0  0  0  0  0  0
   26.5920  -20.0071   -8.6682 C   0  0  0  0  0  0  0  0  0  0  0  0
   25.6623  -20.0837   -9.8602 C   0  0  0  0  0  0  0  0  0  0  0  0
   26.3874  -20.3467  -11.1367 C   0  0  2  0  0  0  0  0  0  0  0  0
   25.5120  -20.4079  -12.2897 N   0  0  0  0  0  0  0  0  0  0  0  0
   27.1130  -21.6512  -10.9917 C   0  0  0  0  0  0  0  0  0  0  0  0
   26.5706  -22.6964  -11.4129 O   0  0  0  0  0  0  0  0  0  0  0  0
   28.3687  -21.7313  -10.4036 O   0  0  0  0  0  0  0  0  0  0  0  0
  2  1  1  1
  2  5  1  0
  3  2  1  0
  4  3  1  0
  5  6  2  0
  7  5  1  0
  7  8  1  0
  8  9  1  6
 10  9  1  0
 10 11  1  0
 11 15  1  0
 11 12  2  0
 13  8  1  0
 13 21  1  0
 14 13  2  0
 16 17  1  0
 18 17  1  0
 19 18  1  0
 20 21  1  0
 20 19  1  1
 22 24  1  0
 22 20  1  0
 23 22  2  0
M  END
$$$$
