CEM.pdb
     RDKit          3D

 24 23  0  0  1  0  0  0  0  0999 V2000
   25.8160  -11.9748  -18.4138 N   0  0  0  0  0  0  0  0  0  0  0  0
   25.2037  -11.9168  -17.1059 C   0  0  1  0  0  0  0  0  0  0  0  0
   26.2306  -11.5934  -16.0351 C   0  0  0  0  0  0  0  0  0  0  0  0
   27.3642  -12.9966  -15.9270 S   0  0  0  0  0  0  0  0  0  0  0  0
   24.1485  -10.8686  -17.1293 C   0  0  0  0  0  0  0  0  0  0  0  0
   24.3416   -9.8690  -17.8598 O   0  0  0  0  0  0  0  0  0  0  0  0
   22.9575  -11.0000  -16.3454 N   0  0  0  0  0  0  0  0  0  0  0  0
   21.8943   -9.9730  -16.4096 C   0  0  1  0  0  0  0  0  0  0  0  0
   20.6384  -10.6266  -15.9664 C   0  0  0  0  0  0  0  0  0  0  0  0
   19.4350   -9.7864  -15.7970 C   0  0  0  0  0  0  0  0  0  0  0  0
   18.2043  -10.5061  -15.4053 C   0  0  0  0  0  0  0  0  0  0  0  0
   18.1640  -11.1439  -14.3331 O   0  0  0  0  0  0  0  0  0  0  0  0
   22.3403   -8.8083  -15.6393 C   0  0  0  0  0  0  0  0  0  0  0  0
   23.3990   -8.9079  -14.9143 O   0  0  0  0  0  0  0  0  0  0  0  0
   17.0783  -10.4916  -16.2078 O   0  0  0  0  0  0  0  0  0  0  0  0
   26.5316   -3.0742  -17.2569 C   0  0  0  0  0  0  0  0  0  0  0  0
   25.5723   -4.5798  -17.4931 S   0  0  0  0  0  0  0  0  0  0  0  0
   24.2954   -4.8104  -16.2640 C   0  0  0  0  0  0  0  0  0  0  0  0
   23.5230   -6.0970  -16.4617 C   0  0  0  0  0  0  0  0  0  0  0  0
   22.4916   -6.3142  -15.4065 C   0  0  2  0  0  0  0  0  0  0  0  0
   21.7351   -7.5366  -15.5890 N   0  0  0  0  0  0  0  0  0  0  0  0
   21.5572   -5.1414  -15.4301 C   0  0  0  0  0  0  0  0  0  0  0  0
   20.5613   -5.1751  -16.1859 O   0  0  0  0  0  0  0  0  0  0  0  0
   21.7662   -4.0203  -14.6373 O   0  0  0  0  0  0  0  0  0  0  0  0
  2  1  1  6
  2  5  1  0
  3  2  1  0
  4  3  1  0
  5  6  2  0
  7  5  1  0
  7  8  1  0
  8  9  1  1
 10  9  1  0
 10 11  1  0
 11 15  1  0
 11 12  2  0
 13  8  1  0
 13 21  1  0
 14 13  2  0
 16 17  1  0
 18 17  1  0
 19 18  1  0
 20 21  1  0
 20 19  1  6
 22 24  1  0
 22 20  1  0
 23 22  2  0
M  END
$$$$
