CEM.pdb
     RDKit          3D

 24 23  0  0  1  0  0  0  0  0999 V2000
   16.7745  -12.4743  -12.9416 N   0  0  0  0  0  0  0  0  0  0  0  0
   16.6243  -11.1183  -13.4184 C   0  0  1  0  0  0  0  0  0  0  0  0
   15.1614  -10.7734  -13.6345 C   0  0  0  0  0  0  0  0  0  0  0  0
   14.6111  -11.6432  -15.1200 S   0  0  0  0  0  0  0  0  0  0  0  0
   17.2182  -10.1994  -12.4106 C   0  0  0  0  0  0  0  0  0  0  0  0
   17.0009  -10.4477  -11.2018 O   0  0  0  0  0  0  0  0  0  0  0  0
   18.0082   -9.0741  -12.8100 N   0  0  0  0  0  0  0  0  0  0  0  0
   18.5252   -8.1195  -11.8046 C   0  0  1  0  0  0  0  0  0  0  0  0
   19.6715   -7.4156  -12.4302 C   0  0  0  0  0  0  0  0  0  0  0  0
   20.3171   -6.3221  -11.6749 C   0  0  0  0  0  0  0  0  0  0  0  0
   21.4203   -5.6288  -12.3736 C   0  0  0  0  0  0  0  0  0  0  0  0
   22.0136   -6.1867  -13.3195 O   0  0  0  0  0  0  0  0  0  0  0  0
   17.4069   -7.2874  -11.3508 C   0  0  0  0  0  0  0  0  0  0  0  0
   16.5740   -6.8333  -12.2205 O   0  0  0  0  0  0  0  0  0  0  0  0
   21.8191   -4.3581  -12.0015 O   0  0  0  0  0  0  0  0  0  0  0  0
   11.9156   -5.1920   -6.0554 C   0  0  0  0  0  0  0  0  0  0  0  0
   13.3062   -6.2284   -6.5402 S   0  0  0  0  0  0  0  0  0  0  0  0
   14.1079   -5.6866   -8.0429 C   0  0  0  0  0  0  0  0  0  0  0  0
   15.2874   -6.5572   -8.4196 C   0  0  0  0  0  0  0  0  0  0  0  0
   15.9482   -6.1128   -9.6806 C   0  0  2  0  0  0  0  0  0  0  0  0
   17.1109   -6.9050  -10.0271 N   0  0  0  0  0  0  0  0  0  0  0  0
   16.3553   -4.6801   -9.5048 C   0  0  0  0  0  0  0  0  0  0  0  0
   15.4670   -3.8070   -9.3931 O   0  0  0  0  0  0  0  0  0  0  0  0
   17.6895   -4.2960   -9.4626 O   0  0  0  0  0  0  0  0  0  0  0  0
  2  1  1  1
  2  5  1  0
  3  2  1  0
  4  3  1  0
  5  6  2  0
  7  5  1  0
  7  8  1  0
  8  9  1  6
 10  9  1  0
 10 11  1  0
 11 15  1  0
 11 12  2  0
 13  8  1  0
 13 21  1  0
 14 13  2  0
 16 17  1  0
 18 17  1  0
 19 18  1  0
 20 21  1  0
 20 19  1  1
 22 24  1  0
 22 20  1  0
 23 22  2  0
M  END
$$$$
