PND.pdb
     RDKit          3D

 24 24  0  0  1  0  0  0  0  0999 V2000
   -3.2377  -25.4884   24.1708 N   0  0  0  0  0  0  0  0  0  0  0  0
   -2.2424  -26.1089   23.3360 C   0  0  0  0  0  0  0  0  0  0  0  0
   -2.3804  -27.5987   23.5705 C   0  0  0  0  0  0  0  0  0  0  0  0
   -3.8586  -27.7459   23.8105 C   0  0  0  0  0  0  0  0  0  0  0  0
   -4.3912  -26.3850   24.2049 C   0  0  1  0  0  0  0  0  0  0  0  0
   -4.9756  -26.3509   25.5528 C   0  0  0  0  0  0  0  0  0  0  0  0
   -5.9509  -27.0910   25.8603 O   0  0  0  0  0  0  0  0  0  0  0  0
   -2.0270  -26.9558   29.3545 N   0  0  0  0  0  0  0  0  0  0  0  0
   -3.4450  -26.6907   29.3753 C   0  0  0  0  0  0  0  0  0  0  0  0
   -4.2131  -27.6199   29.7914 O   0  0  0  0  0  0  0  0  0  0  0  0
   -3.9480  -25.3744   28.9214 C   0  0  0  0  0  0  0  0  0  0  0  0
   -5.0884  -25.4933   27.9164 C   0  0  2  0  0  0  0  0  0  0  0  0
   -4.4959  -25.4972   26.5976 N   0  0  0  0  0  0  0  0  0  0  0  0
   -5.9968  -24.3506   28.1247 C   0  0  0  0  0  0  0  0  0  0  0  0
   -5.5959  -23.2085   27.7639 O   0  0  0  0  0  0  0  0  0  0  0  0
   -7.2772  -24.4511   28.6971 N   0  0  0  0  0  0  0  0  0  0  0  0
   -8.1555  -23.3010   28.9625 C   0  0  1  0  0  0  0  0  0  0  0  0
   -9.5258  -23.8001   29.3653 C   0  0  0  0  0  0  0  0  0  0  0  0
  -10.4138  -22.6671   29.6381 C   0  0  0  0  0  0  0  0  0  0  0  0
  -10.3510  -21.6185   28.9647 O   0  0  0  0  0  0  0  0  0  0  0  0
   -7.5512  -22.6309   30.1390 C   0  0  0  0  0  0  0  0  0  0  0  0
   -7.8827  -21.5046   30.5646 O   0  0  0  0  0  0  0  0  0  0  0  0
  -11.3769  -22.6845   30.6560 O   0  0  0  0  0  0  0  0  0  0  0  0
   -6.5323  -23.2596   30.8620 O   0  0  0  0  0  0  0  0  0  0  0  0
  1  5  1  0
  1  2  1  0
  2  3  1  0
  4  3  1  0
  5  4  1  0
  6  7  2  0
  5  6  1  1
  8  9  1  0
  9 10  2  0
 11  9  1  0
 12 11  1  1
 12 13  1  0
 13  6  1  0
 14 15  2  0
 14 12  1  0
 16 14  1  0
 17 16  1  0
 17 18  1  1
 19 18  1  0
 20 19  2  0
 21 24  1  0
 21 17  1  0
 22 21  2  0
 23 19  1  0
M  END
$$$$
