PND.pdb
     RDKit          3D

 24 24  0  0  1  0  0  0  0  0999 V2000
    7.4151  -14.8786   20.2464 N   0  0  0  0  0  0  0  0  0  0  0  0
    6.7178  -14.1137   19.2458 C   0  0  0  0  0  0  0  0  0  0  0  0
    7.1129  -12.6710   19.4823 C   0  0  0  0  0  0  0  0  0  0  0  0
    8.5299  -12.8067   19.9705 C   0  0  0  0  0  0  0  0  0  0  0  0
    8.7040  -14.2260   20.4669 C   0  0  1  0  0  0  0  0  0  0  0  0
    9.0380  -14.3119   21.8954 C   0  0  0  0  0  0  0  0  0  0  0  0
   10.1668  -13.9450   22.3250 O   0  0  0  0  0  0  0  0  0  0  0  0
    7.5243  -12.4257   24.8332 N   0  0  0  0  0  0  0  0  0  0  0  0
    6.7560  -13.5425   25.3273 C   0  0  0  0  0  0  0  0  0  0  0  0
    5.6693  -13.2849   25.9432 O   0  0  0  0  0  0  0  0  0  0  0  0
    7.2476  -14.9213   25.1061 C   0  0  0  0  0  0  0  0  0  0  0  0
    8.5221  -14.9662   24.2705 C   0  0  2  0  0  0  0  0  0  0  0  0
    8.1313  -14.8056   22.8877 N   0  0  0  0  0  0  0  0  0  0  0  0
    9.1849  -16.2586   24.5241 C   0  0  0  0  0  0  0  0  0  0  0  0
    8.5249  -17.3115   24.2977 O   0  0  0  0  0  0  0  0  0  0  0  0
   10.5012  -16.3935   25.0001 N   0  0  0  0  0  0  0  0  0  0  0  0
   11.1658  -17.6848   25.2355 C   0  0  1  0  0  0  0  0  0  0  0  0
   12.6656  -17.4866   25.2166 C   0  0  0  0  0  0  0  0  0  0  0  0
   13.1393  -17.3636   23.8356 C   0  0  0  0  0  0  0  0  0  0  0  0
   12.6003  -17.9996   22.9071 O   0  0  0  0  0  0  0  0  0  0  0  0
   10.7739  -18.0627   26.6147 C   0  0  0  0  0  0  0  0  0  0  0  0
   10.1280  -17.3335   27.3959 O   0  0  0  0  0  0  0  0  0  0  0  0
   14.2109  -16.5375   23.4706 O   0  0  0  0  0  0  0  0  0  0  0  0
   11.1264  -19.3143   27.1297 O   0  0  0  0  0  0  0  0  0  0  0  0
  1  5  1  0
  1  2  1  0
  2  3  1  0
  4  3  1  0
  5  4  1  0
  6  7  2  0
  5  6  1  1
  8  9  1  0
  9 10  2  0
 11  9  1  0
 12 11  1  1
 12 13  1  0
 13  6  1  0
 14 15  2  0
 14 12  1  0
 16 14  1  0
 17 16  1  0
 17 18  1  1
 19 18  1  0
 20 19  2  0
 21 24  1  0
 21 17  1  0
 22 21  2  0
 23 19  1  0
M  END
$$$$
