PND.pdb
     RDKit          3D

 24 24  0  0  1  0  0  0  0  0999 V2000
    9.2448  -13.7645   18.5917 N   0  0  0  0  0  0  0  0  0  0  0  0
    8.3106  -13.0645   17.7493 C   0  0  0  0  0  0  0  0  0  0  0  0
    6.9730  -13.1572   18.4535 C   0  0  0  0  0  0  0  0  0  0  0  0
    7.3761  -13.1322   19.9031 C   0  0  0  0  0  0  0  0  0  0  0  0
    8.8336  -13.5344   19.9751 C   0  0  1  0  0  0  0  0  0  0  0  0
    9.0666  -14.7630   20.7470 C   0  0  0  0  0  0  0  0  0  0  0  0
    8.6555  -14.8750   21.9353 O   0  0  0  0  0  0  0  0  0  0  0  0
    8.5768  -18.1329   17.8444 N   0  0  0  0  0  0  0  0  0  0  0  0
    8.5320  -18.2391   19.2825 C   0  0  0  0  0  0  0  0  0  0  0  0
    7.3837  -18.2887   19.8351 O   0  0  0  0  0  0  0  0  0  0  0  0
    9.7967  -18.2856   20.0505 C   0  0  0  0  0  0  0  0  0  0  0  0
    9.9525  -17.1050   21.0025 C   0  0  2  0  0  0  0  0  0  0  0  0
    9.7603  -15.9016   20.2246 N   0  0  0  0  0  0  0  0  0  0  0  0
   11.2972  -17.1813   21.6028 C   0  0  0  0  0  0  0  0  0  0  0  0
   11.6516  -18.2817   22.1115 O   0  0  0  0  0  0  0  0  0  0  0  0
   12.2076  -16.1104   21.6446 N   0  0  0  0  0  0  0  0  0  0  0  0
   13.5158  -16.1645   22.3157 C   0  0  1  0  0  0  0  0  0  0  0  0
   14.3868  -15.0375   21.8058 C   0  0  0  0  0  0  0  0  0  0  0  0
   14.7104  -15.2514   20.3930 C   0  0  0  0  0  0  0  0  0  0  0  0
   14.8502  -16.4007   19.9276 O   0  0  0  0  0  0  0  0  0  0  0  0
   13.2164  -15.8986   23.7433 C   0  0  0  0  0  0  0  0  0  0  0  0
   12.1027  -15.5438   24.1827 O   0  0  0  0  0  0  0  0  0  0  0  0
   14.8815  -14.1980   19.4847 O   0  0  0  0  0  0  0  0  0  0  0  0
   14.2161  -16.0397   24.7112 O   0  0  0  0  0  0  0  0  0  0  0  0
  1  5  1  0
  1  2  1  0
  2  3  1  0
  4  3  1  0
  5  4  1  0
  6  7  2  0
  5  6  1  1
  8  9  1  0
  9 10  2  0
 11  9  1  0
 12 11  1  6
 12 13  1  0
 13  6  1  0
 14 15  2  0
 14 12  1  0
 16 14  1  0
 17 16  1  0
 17 18  1  6
 19 18  1  0
 20 19  2  0
 21 24  1  0
 21 17  1  0
 22 21  2  0
 23 19  1  0
M  END
$$$$
