PND.pdb
     RDKit          3D

 24 24  0  0  1  0  0  0  0  0999 V2000
    7.4035  -15.2690   19.4907 N   0  0  0  0  0  0  0  0  0  0  0  0
    6.4875  -14.5148   18.6754 C   0  0  0  0  0  0  0  0  0  0  0  0
    6.8798  -13.0628   18.8524 C   0  0  0  0  0  0  0  0  0  0  0  0
    8.3714  -13.1570   19.0279 C   0  0  0  0  0  0  0  0  0  0  0  0
    8.6894  -14.5761   19.4476 C   0  0  1  0  0  0  0  0  0  0  0  0
    9.3204  -14.6698   20.7715 C   0  0  0  0  0  0  0  0  0  0  0  0
   10.4853  -14.2267   20.9721 O   0  0  0  0  0  0  0  0  0  0  0  0
   10.2300  -15.2600   25.8324 N   0  0  0  0  0  0  0  0  0  0  0  0
    8.8050  -15.1563   25.6322 C   0  0  0  0  0  0  0  0  0  0  0  0
    8.0747  -14.9878   26.6641 O   0  0  0  0  0  0  0  0  0  0  0  0
    8.2520  -15.2477   24.2619 C   0  0  0  0  0  0  0  0  0  0  0  0
    9.3355  -15.3513   23.1943 C   0  0  2  0  0  0  0  0  0  0  0  0
    8.6790  -15.2558   21.9097 N   0  0  0  0  0  0  0  0  0  0  0  0
   10.0320  -16.6379   23.3789 C   0  0  0  0  0  0  0  0  0  0  0  0
    9.3472  -17.6950   23.2848 O   0  0  0  0  0  0  0  0  0  0  0  0
   11.4058  -16.7626   23.6517 N   0  0  0  0  0  0  0  0  0  0  0  0
   12.1041  -18.0487   23.8030 C   0  0  1  0  0  0  0  0  0  0  0  0
   13.5977  -17.8188   23.7305 C   0  0  0  0  0  0  0  0  0  0  0  0
   13.9441  -17.1566   22.4702 C   0  0  0  0  0  0  0  0  0  0  0  0
   13.4990  -17.5673   21.3793 O   0  0  0  0  0  0  0  0  0  0  0  0
   11.7782  -18.4930   25.1795 C   0  0  0  0  0  0  0  0  0  0  0  0
   11.4659  -19.6601   25.4953 O   0  0  0  0  0  0  0  0  0  0  0  0
   14.7838  -16.0364   22.4063 O   0  0  0  0  0  0  0  0  0  0  0  0
   11.8068  -17.5814   26.2397 O   0  0  0  0  0  0  0  0  0  0  0  0
  1  5  1  0
  1  2  1  0
  2  3  1  0
  4  3  1  0
  5  4  1  0
  6  7  2  0
  5  6  1  1
  8  9  1  0
  9 10  2  0
 11  9  1  0
 12 11  1  1
 12 13  1  0
 13  6  1  0
 14 15  2  0
 14 12  1  0
 16 14  1  0
 17 16  1  0
 17 18  1  1
 19 18  1  0
 20 19  2  0
 21 24  1  0
 21 17  1  0
 22 21  2  0
 23 19  1  0
M  END
$$$$
