NVE.pdb
     RDKit          3D

 25 24  0  0  1  0  0  0  0  0999 V2000
    9.1195  -16.3958   13.2531 N   0  0  0  0  0  0  0  0  0  0  0  0
    9.9667  -16.9804   14.2280 C   0  0  0  0  0  0  0  0  0  0  0  0
   10.4481  -18.0989   13.9738 O   0  0  0  0  0  0  0  0  0  0  0  0
   10.2475  -16.2741   15.4761 C   0  0  0  0  0  0  0  0  0  0  0  0
    9.5951  -16.8578   16.6947 C   0  0  2  0  0  0  0  0  0  0  0  0
    8.1794  -17.0102   16.4539 N   0  0  0  0  0  0  0  0  0  0  0  0
    9.7613  -16.0113   17.9157 C   0  0  0  0  0  0  0  0  0  0  0  0
   10.9156  -15.8009   18.3580 O   0  0  0  0  0  0  0  0  0  0  0  0
    7.4049  -12.7753   19.1451 C   0  0  0  0  0  0  0  0  0  0  0  0
    7.6310  -13.9042   20.1160 C   0  0  2  0  0  0  0  0  0  0  0  0
    7.6146  -13.3164   21.5154 C   0  0  0  0  0  0  0  0  0  0  0  0
    8.7684  -14.7978   19.8539 C   0  0  2  0  0  0  0  0  0  0  0  0
    8.6519  -15.4524   18.5676 N   0  0  0  0  0  0  0  0  0  0  0  0
    9.2966  -15.6364   20.9137 C   0  0  0  0  0  0  0  0  0  0  0  0
    8.7342  -16.7794   21.0935 O   0  0  0  0  0  0  0  0  0  0  0  0
   10.3522  -15.3406   21.7624 N   0  0  0  0  0  0  0  0  0  0  0  0
   11.0424  -16.3167   22.5968 C   0  0  1  0  0  0  0  0  0  0  0  0
   12.5424  -16.0974   22.5665 C   0  0  0  0  0  0  0  0  0  0  0  0
   13.2021  -17.0295   23.5678 C   0  0  0  0  0  0  0  0  0  0  0  0
   14.6718  -16.8926   23.5564 C   0  0  0  0  0  0  0  0  0  0  0  0
   15.2713  -16.3618   24.5192 O   0  0  0  0  0  0  0  0  0  0  0  0
   10.5883  -16.1154   23.9880 C   0  0  0  0  0  0  0  0  0  0  0  0
   10.7997  -17.1007   24.9295 O   0  0  0  0  0  0  0  0  0  0  0  0
   15.4745  -17.3344   22.4981 O   0  0  0  0  0  0  0  0  0  0  0  0
   10.0124  -15.0594   24.3248 O   0  0  0  0  0  0  0  0  0  0  0  0
  1  2  1  0
  2  4  1  0
  2  3  2  0
  5  7  1  0
  5  4  1  0
  5  6  1  6
  7  8  2  0
 10  9  1  6
 10 11  1  0
 10 12  1  0
 12 14  1  0
 12 13  1  6
 13  7  1  0
 14 15  2  0
 14 16  1  0
 16 17  1  0
 17 22  1  0
 17 18  1  1
 19 18  1  0
 20 19  1  0
 21 20  2  0
 22 23  1  0
 24 20  1  0
 25 22  2  0
M  END
$$$$
