NVE.pdb
     RDKit          3D

 25 24  0  0  1  0  0  0  0  0999 V2000
    7.1506  -16.9260   19.2903 N   0  0  0  0  0  0  0  0  0  0  0  0
    8.0199  -15.8092   19.2066 C   0  0  0  0  0  0  0  0  0  0  0  0
    8.4540  -15.5026   18.0819 O   0  0  0  0  0  0  0  0  0  0  0  0
    8.3768  -15.0638   20.4118 C   0  0  0  0  0  0  0  0  0  0  0  0
    7.8623  -15.6490   21.6941 C   0  0  2  0  0  0  0  0  0  0  0  0
    6.4253  -15.5129   21.7404 N   0  0  0  0  0  0  0  0  0  0  0  0
    8.4224  -14.9865   22.9116 C   0  0  0  0  0  0  0  0  0  0  0  0
    9.6667  -14.9254   23.0533 O   0  0  0  0  0  0  0  0  0  0  0  0
    7.6341  -12.3404   27.0639 C   0  0  0  0  0  0  0  0  0  0  0  0
    7.1967  -12.9568   25.7613 C   0  0  2  0  0  0  0  0  0  0  0  0
    5.7659  -13.4323   25.9359 C   0  0  0  0  0  0  0  0  0  0  0  0
    8.0910  -13.9545   25.1567 C   0  0  2  0  0  0  0  0  0  0  0  0
    7.5811  -14.4352   23.8895 N   0  0  0  0  0  0  0  0  0  0  0  0
    8.7138  -14.9718   25.9830 C   0  0  0  0  0  0  0  0  0  0  0  0
    7.9858  -15.9745   26.3286 O   0  0  0  0  0  0  0  0  0  0  0  0
   10.0207  -14.9843   26.4456 N   0  0  0  0  0  0  0  0  0  0  0  0
   10.6056  -16.0532   27.2460 C   0  0  1  0  0  0  0  0  0  0  0  0
   12.1034  -16.1423   27.0271 C   0  0  0  0  0  0  0  0  0  0  0  0
   12.3928  -16.0902   25.5371 C   0  0  0  0  0  0  0  0  0  0  0  0
   13.8426  -16.1112   25.2606 C   0  0  0  0  0  0  0  0  0  0  0  0
   14.2677  -16.2380   24.0896 O   0  0  0  0  0  0  0  0  0  0  0  0
   10.3797  -15.7212   28.6676 C   0  0  0  0  0  0  0  0  0  0  0  0
   10.6297  -16.6647   29.6420 O   0  0  0  0  0  0  0  0  0  0  0  0
   14.8152  -15.9940   26.2605 O   0  0  0  0  0  0  0  0  0  0  0  0
    9.9629  -14.5918   29.0007 O   0  0  0  0  0  0  0  0  0  0  0  0
  1  2  1  0
  2  4  1  0
  2  3  2  0
  5  7  1  0
  5  4  1  0
  5  6  1  6
  7  8  2  0
 10  9  1  1
 10 11  1  0
 10 12  1  0
 12 14  1  0
 12 13  1  6
 13  7  1  0
 14 15  2  0
 14 16  1  0
 16 17  1  0
 17 22  1  0
 17 18  1  1
 19 18  1  0
 20 19  1  0
 21 20  2  0
 22 23  1  0
 24 20  1  0
 25 22  2  0
M  END
$$$$
