NVE.pdb
     RDKit          3D

 25 24  0  0  1  0  0  0  0  0999 V2000
    6.3457  -18.3978   20.7810 N   0  0  0  0  0  0  0  0  0  0  0  0
    7.7325  -18.2008   20.9999 C   0  0  0  0  0  0  0  0  0  0  0  0
    8.5199  -18.6931   20.1722 O   0  0  0  0  0  0  0  0  0  0  0  0
    8.1928  -17.4442   22.1622 C   0  0  0  0  0  0  0  0  0  0  0  0
    7.9893  -15.9603   22.0732 C   0  0  2  0  0  0  0  0  0  0  0  0
    8.7358  -15.4406   20.9515 N   0  0  0  0  0  0  0  0  0  0  0  0
    8.4376  -15.2287   23.2974 C   0  0  0  0  0  0  0  0  0  0  0  0
    9.6601  -14.9989   23.4557 O   0  0  0  0  0  0  0  0  0  0  0  0
    6.4905  -12.1629   25.1459 C   0  0  0  0  0  0  0  0  0  0  0  0
    6.9376  -13.2800   26.0517 C   0  0  2  0  0  0  0  0  0  0  0  0
    7.3121  -12.6654   27.3881 C   0  0  0  0  0  0  0  0  0  0  0  0
    7.9388  -14.2158   25.5201 C   0  0  2  0  0  0  0  0  0  0  0  0
    7.5161  -14.7980   24.2635 N   0  0  0  0  0  0  0  0  0  0  0  0
    8.6258  -15.1326   26.4106 C   0  0  0  0  0  0  0  0  0  0  0  0
    7.9106  -16.0230   27.0026 O   0  0  0  0  0  0  0  0  0  0  0  0
    9.9822  -15.1569   26.6966 N   0  0  0  0  0  0  0  0  0  0  0  0
   10.6130  -16.0711   27.6409 C   0  0  1  0  0  0  0  0  0  0  0  0
   12.0821  -16.2621   27.3177 C   0  0  0  0  0  0  0  0  0  0  0  0
   12.2142  -16.8143   25.9091 C   0  0  0  0  0  0  0  0  0  0  0  0
   13.6062  -17.1959   25.5997 C   0  0  0  0  0  0  0  0  0  0  0  0
   14.5002  -16.3248   25.5008 O   0  0  0  0  0  0  0  0  0  0  0  0
   10.5255  -15.4580   28.9821 C   0  0  0  0  0  0  0  0  0  0  0  0
   10.8019  -16.2133   30.1025 O   0  0  0  0  0  0  0  0  0  0  0  0
   14.0115  -18.5209   25.4010 O   0  0  0  0  0  0  0  0  0  0  0  0
   10.2029  -14.2587   29.1158 O   0  0  0  0  0  0  0  0  0  0  0  0
  1  2  1  0
  2  4  1  0
  2  3  2  0
  5  7  1  0
  5  4  1  0
  5  6  1  6
  7  8  2  0
 10  9  1  6
 10 11  1  0
 10 12  1  0
 12 14  1  0
 12 13  1  6
 13  7  1  0
 14 15  2  0
 14 16  1  0
 16 17  1  0
 17 22  1  0
 17 18  1  6
 19 18  1  0
 20 19  1  0
 21 20  2  0
 22 23  1  0
 24 20  1  0
 25 22  2  0
M  END
$$$$
