NVE.pdb
     RDKit          3D

 25 24  0  0  1  0  0  0  0  0999 V2000
    7.1686  -17.3408   19.0684 N   0  0  0  0  0  0  0  0  0  0  0  0
    6.5316  -16.5627   20.0678 C   0  0  0  0  0  0  0  0  0  0  0  0
    5.3205  -16.3195   19.9208 O   0  0  0  0  0  0  0  0  0  0  0  0
    7.2923  -16.0770   21.2170 C   0  0  0  0  0  0  0  0  0  0  0  0
    7.1297  -14.6149   21.5121 C   0  0  2  0  0  0  0  0  0  0  0  0
    7.5752  -13.8440   20.3751 N   0  0  0  0  0  0  0  0  0  0  0  0
    7.9113  -14.1629   22.7037 C   0  0  0  0  0  0  0  0  0  0  0  0
    9.1591  -14.0760   22.6159 O   0  0  0  0  0  0  0  0  0  0  0  0
    6.0141  -13.0421   26.5840 C   0  0  0  0  0  0  0  0  0  0  0  0
    7.4010  -12.7608   26.0688 C   0  0  2  0  0  0  0  0  0  0  0  0
    7.4109  -11.3428   25.5275 C   0  0  0  0  0  0  0  0  0  0  0  0
    7.9945  -13.7535   25.1614 C   0  0  2  0  0  0  0  0  0  0  0  0
    7.2724  -13.8360   23.9091 N   0  0  0  0  0  0  0  0  0  0  0  0
    8.4583  -15.0280   25.6772 C   0  0  0  0  0  0  0  0  0  0  0  0
    7.6398  -16.0187   25.6173 O   0  0  0  0  0  0  0  0  0  0  0  0
    9.6992  -15.3003   26.2323 N   0  0  0  0  0  0  0  0  0  0  0  0
   10.1717  -16.6320   26.5909 C   0  0  1  0  0  0  0  0  0  0  0  0
   11.5390  -16.9051   25.9953 C   0  0  0  0  0  0  0  0  0  0  0  0
   12.0400  -18.2492   26.4942 C   0  0  0  0  0  0  0  0  0  0  0  0
   13.3475  -18.5986   25.9048 C   0  0  0  0  0  0  0  0  0  0  0  0
   14.2152  -19.1942   26.5831 O   0  0  0  0  0  0  0  0  0  0  0  0
   10.3066  -16.6769   28.0613 C   0  0  0  0  0  0  0  0  0  0  0  0
   10.5104  -17.8841   28.6964 O   0  0  0  0  0  0  0  0  0  0  0  0
   13.6977  -18.2966   24.5835 O   0  0  0  0  0  0  0  0  0  0  0  0
   10.2381  -15.6310   28.7407 O   0  0  0  0  0  0  0  0  0  0  0  0
  1  2  1  0
  2  4  1  0
  2  3  2  0
  5  7  1  0
  5  4  1  0
  5  6  1  6
  7  8  2  0
 10  9  1  6
 10 11  1  0
 10 12  1  0
 12 14  1  0
 12 13  1  6
 13  7  1  0
 14 15  2  0
 14 16  1  0
 16 17  1  0
 17 22  1  0
 17 18  1  6
 19 18  1  0
 20 19  1  0
 21 20  2  0
 22 23  1  0
 24 20  1  0
 25 22  2  0
M  END
$$$$
