NVE.pdb
     RDKit          3D

 25 24  0  0  1  0  0  0  0  0999 V2000
    6.8635  -19.5978   16.0749 N   0  0  0  0  0  0  0  0  0  0  0  0
    8.2661  -19.4911   16.2512 C   0  0  0  0  0  0  0  0  0  0  0  0
    8.9930  -20.1376   15.4759 O   0  0  0  0  0  0  0  0  0  0  0  0
    8.8113  -18.6465   17.3117 C   0  0  0  0  0  0  0  0  0  0  0  0
    8.7964  -17.1747   17.0200 C   0  0  2  0  0  0  0  0  0  0  0  0
    9.7186  -16.8897   15.9458 N   0  0  0  0  0  0  0  0  0  0  0  0
    9.1905  -16.3365   18.1936 C   0  0  0  0  0  0  0  0  0  0  0  0
   10.4084  -16.1607   18.4344 O   0  0  0  0  0  0  0  0  0  0  0  0
    7.4444  -12.8709   19.3791 C   0  0  0  0  0  0  0  0  0  0  0  0
    7.6286  -13.9012   20.4620 C   0  0  2  0  0  0  0  0  0  0  0  0
    7.8745  -13.1602   21.7637 C   0  0  0  0  0  0  0  0  0  0  0  0
    8.5841  -14.9872   20.2002 C   0  0  2  0  0  0  0  0  0  0  0  0
    8.2236  -15.7476   19.0219 N   0  0  0  0  0  0  0  0  0  0  0  0
    9.1037  -15.7820   21.2973 C   0  0  0  0  0  0  0  0  0  0  0  0
    8.4085  -16.7999   21.6658 O   0  0  0  0  0  0  0  0  0  0  0  0
   10.2793  -15.5653   21.9995 N   0  0  0  0  0  0  0  0  0  0  0  0
   10.7756  -16.4235   23.0684 C   0  0  1  0  0  0  0  0  0  0  0  0
   12.2003  -16.0626   23.4416 C   0  0  0  0  0  0  0  0  0  0  0  0
   13.1370  -16.5313   22.3418 C   0  0  0  0  0  0  0  0  0  0  0  0
   14.5231  -16.0808   22.5753 C   0  0  0  0  0  0  0  0  0  0  0  0
   15.1051  -15.3477   21.7435 O   0  0  0  0  0  0  0  0  0  0  0  0
    9.9290  -16.1917   24.2565 C   0  0  0  0  0  0  0  0  0  0  0  0
   10.0302  -17.0301   25.3469 O   0  0  0  0  0  0  0  0  0  0  0  0
   15.2621  -16.4322   23.7110 O   0  0  0  0  0  0  0  0  0  0  0  0
    9.1184  -15.2418   24.2871 O   0  0  0  0  0  0  0  0  0  0  0  0
  1  2  1  0
  2  4  1  0
  2  3  2  0
  5  7  1  0
  5  4  1  0
  5  6  1  6
  7  8  2  0
 10  9  1  6
 10 11  1  0
 10 12  1  0
 12 14  1  0
 12 13  1  6
 13  7  1  0
 14 15  2  0
 14 16  1  0
 16 17  1  0
 17 22  1  0
 17 18  1  1
 19 18  1  0
 20 19  1  0
 21 20  2  0
 22 23  1  0
 24 20  1  0
 25 22  2  0
M  END
$$$$
