NVE.pdb
     RDKit          3D

 25 24  0  0  1  0  0  0  0  0999 V2000
    7.9278  -18.6145   14.7810 N   0  0  0  0  0  0  0  0  0  0  0  0
    8.5071  -17.3527   14.4944 C   0  0  0  0  0  0  0  0  0  0  0  0
    8.6999  -17.0677   13.2990 O   0  0  0  0  0  0  0  0  0  0  0  0
    8.8553  -16.4401   15.5812 C   0  0  0  0  0  0  0  0  0  0  0  0
    8.6426  -16.9885   16.9616 C   0  0  2  0  0  0  0  0  0  0  0  0
    7.2270  -17.1403   17.2041 N   0  0  0  0  0  0  0  0  0  0  0  0
    9.1978  -16.1111   18.0372 C   0  0  0  0  0  0  0  0  0  0  0  0
   10.4232  -15.8453   18.0337 O   0  0  0  0  0  0  0  0  0  0  0  0
    6.7927  -14.3464   21.4789 C   0  0  0  0  0  0  0  0  0  0  0  0
    7.9663  -13.8514   20.6755 C   0  0  2  0  0  0  0  0  0  0  0  0
    7.4292  -12.9197   19.6044 C   0  0  0  0  0  0  0  0  0  0  0  0
    8.9107  -14.8603   20.1745 C   0  0  2  0  0  0  0  0  0  0  0  0
    8.3725  -15.5843   19.0418 N   0  0  0  0  0  0  0  0  0  0  0  0
    9.6722  -15.6725   21.1050 C   0  0  0  0  0  0  0  0  0  0  0  0
    9.2188  -16.8480   21.3657 O   0  0  0  0  0  0  0  0  0  0  0  0
   10.8474  -15.3198   21.7504 N   0  0  0  0  0  0  0  0  0  0  0  0
   11.6631  -16.2322   22.5425 C   0  0  1  0  0  0  0  0  0  0  0  0
   13.0982  -15.7499   22.6252 C   0  0  0  0  0  0  0  0  0  0  0  0
   13.9283  -16.7820   23.3683 C   0  0  0  0  0  0  0  0  0  0  0  0
   15.3699  -16.4699   23.3091 C   0  0  0  0  0  0  0  0  0  0  0  0
   15.7620  -15.3102   23.0463 O   0  0  0  0  0  0  0  0  0  0  0  0
   11.1151  -16.2448   23.9142 C   0  0  0  0  0  0  0  0  0  0  0  0
   11.4626  -17.2570   24.7841 O   0  0  0  0  0  0  0  0  0  0  0  0
   16.3701  -17.4224   23.5366 O   0  0  0  0  0  0  0  0  0  0  0  0
   10.3370  -15.3465   24.2988 O   0  0  0  0  0  0  0  0  0  0  0  0
  1  2  1  0
  2  4  1  0
  2  3  2  0
  5  7  1  0
  5  4  1  0
  5  6  1  1
  7  8  2  0
 10  9  1  6
 10 11  1  0
 10 12  1  0
 12 14  1  0
 12 13  1  1
 13  7  1  0
 14 15  2  0
 14 16  1  0
 16 17  1  0
 17 22  1  0
 17 18  1  1
 19 18  1  0
 20 19  1  0
 21 20  2  0
 22 23  1  0
 24 20  1  0
 25 22  2  0
M  END
$$$$
