NVE.pdb
     RDKit          3D

 25 24  0  0  1  0  0  0  0  0999 V2000
    7.5839  -20.4086   16.0870 N   0  0  0  0  0  0  0  0  0  0  0  0
    7.0013  -19.3284   16.7966 C   0  0  0  0  0  0  0  0  0  0  0  0
    5.8353  -19.0103   16.5021 O   0  0  0  0  0  0  0  0  0  0  0  0
    7.7638  -18.6318   17.8304 C   0  0  0  0  0  0  0  0  0  0  0  0
    8.0557  -17.1893   17.5384 C   0  0  2  0  0  0  0  0  0  0  0  0
    8.8914  -17.0975   16.3642 N   0  0  0  0  0  0  0  0  0  0  0  0
    8.7622  -16.4922   18.6564 C   0  0  0  0  0  0  0  0  0  0  0  0
    9.9890  -16.6929   18.8201 O   0  0  0  0  0  0  0  0  0  0  0  0
    6.7346  -13.9955   21.8810 C   0  0  0  0  0  0  0  0  0  0  0  0
    8.0154  -13.8078   21.1115 C   0  0  2  0  0  0  0  0  0  0  0  0
    7.7416  -12.8105   20.0005 C   0  0  0  0  0  0  0  0  0  0  0  0
    8.7169  -15.0214   20.6688 C   0  0  2  0  0  0  0  0  0  0  0  0
    8.0767  -15.6222   19.5173 N   0  0  0  0  0  0  0  0  0  0  0  0
    9.2200  -15.9702   21.6446 C   0  0  0  0  0  0  0  0  0  0  0  0
    8.5657  -17.0687   21.7872 O   0  0  0  0  0  0  0  0  0  0  0  0
   10.3402  -15.8239   22.4483 N   0  0  0  0  0  0  0  0  0  0  0  0
   10.8639  -16.8561   23.3346 C   0  0  1  0  0  0  0  0  0  0  0  0
   12.2835  -17.2317   22.9565 C   0  0  0  0  0  0  0  0  0  0  0  0
   13.2028  -16.0579   23.2454 C   0  0  0  0  0  0  0  0  0  0  0  0
   14.5905  -16.3336   22.8244 C   0  0  0  0  0  0  0  0  0  0  0  0
   14.8906  -17.4250   22.2889 O   0  0  0  0  0  0  0  0  0  0  0  0
   10.8977  -16.2961   24.7011 C   0  0  0  0  0  0  0  0  0  0  0  0
   11.1809  -17.1160   25.7733 O   0  0  0  0  0  0  0  0  0  0  0  0
   15.6376  -15.4195   22.9902 O   0  0  0  0  0  0  0  0  0  0  0  0
   10.6720  -15.0836   24.8997 O   0  0  0  0  0  0  0  0  0  0  0  0
  1  2  1  0
  2  4  1  0
  2  3  2  0
  5  7  1  0
  5  4  1  0
  5  6  1  6
  7  8  2  0
 10  9  1  6
 10 11  1  0
 10 12  1  0
 12 14  1  0
 12 13  1  6
 13  7  1  0
 14 15  2  0
 14 16  1  0
 16 17  1  0
 17 22  1  0
 17 18  1  6
 19 18  1  0
 20 19  1  0
 21 20  2  0
 22 23  1  0
 24 20  1  0
 25 22  2  0
M  END
$$$$
