NVE.pdb
     RDKit          3D

 25 24  0  0  1  0  0  0  0  0999 V2000
    6.4851  -13.6945   18.5177 N   0  0  0  0  0  0  0  0  0  0  0  0
    6.9656  -14.8813   19.1264 C   0  0  0  0  0  0  0  0  0  0  0  0
    6.8629  -15.9397   18.4809 O   0  0  0  0  0  0  0  0  0  0  0  0
    7.5548  -14.8352   20.4629 C   0  0  0  0  0  0  0  0  0  0  0  0
    7.4278  -13.5157   21.1659 C   0  0  2  0  0  0  0  0  0  0  0  0
    8.0948  -12.4946   20.3927 N   0  0  0  0  0  0  0  0  0  0  0  0
    8.0287  -13.5163   22.5349 C   0  0  0  0  0  0  0  0  0  0  0  0
    9.2719  -13.4047   22.6539 O   0  0  0  0  0  0  0  0  0  0  0  0
    5.7182  -13.3127   26.3960 C   0  0  0  0  0  0  0  0  0  0  0  0
    7.1047  -12.9006   25.9768 C   0  0  2  0  0  0  0  0  0  0  0  0
    7.0480  -11.4369   25.5790 C   0  0  0  0  0  0  0  0  0  0  0  0
    7.7958  -13.7601   25.0049 C   0  0  2  0  0  0  0  0  0  0  0  0
    7.2264  -13.6377   23.6792 N   0  0  0  0  0  0  0  0  0  0  0  0
    8.1883  -15.1078   25.3725 C   0  0  0  0  0  0  0  0  0  0  0  0
    7.3484  -16.0512   25.1286 O   0  0  0  0  0  0  0  0  0  0  0  0
    9.3812  -15.4965   25.9624 N   0  0  0  0  0  0  0  0  0  0  0  0
    9.7322  -16.8725   26.2920 C   0  0  1  0  0  0  0  0  0  0  0  0
   11.1499  -17.1929   25.8600 C   0  0  0  0  0  0  0  0  0  0  0  0
   11.2048  -17.2627   24.3439 C   0  0  0  0  0  0  0  0  0  0  0  0
   12.5771  -17.5045   23.8568 C   0  0  0  0  0  0  0  0  0  0  0  0
   13.5334  -17.5942   24.6602 O   0  0  0  0  0  0  0  0  0  0  0  0
    9.6700  -17.0094   27.7615 C   0  0  0  0  0  0  0  0  0  0  0  0
    9.8132  -18.2519   28.3429 O   0  0  0  0  0  0  0  0  0  0  0  0
   12.8952  -17.6462   22.5010 O   0  0  0  0  0  0  0  0  0  0  0  0
    9.4884  -16.0100   28.4884 O   0  0  0  0  0  0  0  0  0  0  0  0
  1  2  1  0
  2  4  1  0
  2  3  2  0
  5  7  1  0
  5  4  1  0
  5  6  1  6
  7  8  2  0
 10  9  1  6
 10 11  1  0
 10 12  1  0
 12 14  1  0
 12 13  1  6
 13  7  1  0
 14 15  2  0
 14 16  1  0
 16 17  1  0
 17 22  1  0
 17 18  1  1
 19 18  1  0
 20 19  1  0
 21 20  2  0
 22 23  1  0
 24 20  1  0
 25 22  2  0
M  END
$$$$
