NVE.pdb
     RDKit          3D

 25 24  0  0  1  0  0  0  0  0999 V2000
    7.8295  -21.0871   16.3338 N   0  0  0  0  0  0  0  0  0  0  0  0
    7.2125  -20.0173   17.0301 C   0  0  0  0  0  0  0  0  0  0  0  0
    5.9913  -19.8509   16.8614 O   0  0  0  0  0  0  0  0  0  0  0  0
    8.0044  -19.1573   17.9068 C   0  0  0  0  0  0  0  0  0  0  0  0
    7.9608  -17.6961   17.5686 C   0  0  2  0  0  0  0  0  0  0  0  0
    8.6210  -17.4771   16.3029 N   0  0  0  0  0  0  0  0  0  0  0  0
    8.6330  -16.8340   18.5884 C   0  0  0  0  0  0  0  0  0  0  0  0
    9.8828  -16.8662   18.6842 O   0  0  0  0  0  0  0  0  0  0  0  0
    8.2372  -13.0894   21.8576 C   0  0  0  0  0  0  0  0  0  0  0  0
    7.6468  -14.0941   20.9036 C   0  0  2  0  0  0  0  0  0  0  0  0
    6.3193  -14.5504   21.4809 C   0  0  0  0  0  0  0  0  0  0  0  0
    8.5179  -15.1925   20.4612 C   0  0  2  0  0  0  0  0  0  0  0  0
    7.8901  -15.9950   19.4323 N   0  0  0  0  0  0  0  0  0  0  0  0
    9.2892  -15.9478   21.4308 C   0  0  0  0  0  0  0  0  0  0  0  0
    8.8379  -17.1045   21.7676 O   0  0  0  0  0  0  0  0  0  0  0  0
   10.4718  -15.5582   22.0405 N   0  0  0  0  0  0  0  0  0  0  0  0
   11.3126  -16.4313   22.8504 C   0  0  1  0  0  0  0  0  0  0  0  0
   12.7799  -16.0902   22.6778 C   0  0  0  0  0  0  0  0  0  0  0  0
   13.6043  -16.9433   23.6261 C   0  0  0  0  0  0  0  0  0  0  0  0
   15.0441  -16.6328   23.5296 C   0  0  0  0  0  0  0  0  0  0  0  0
   15.8784  -17.2462   24.2336 O   0  0  0  0  0  0  0  0  0  0  0  0
   10.9627  -16.1998   24.2668 C   0  0  0  0  0  0  0  0  0  0  0  0
   11.2268  -17.1726   25.2081 O   0  0  0  0  0  0  0  0  0  0  0  0
   15.5619  -15.6584   22.6682 O   0  0  0  0  0  0  0  0  0  0  0  0
   10.4279  -15.1293   24.6253 O   0  0  0  0  0  0  0  0  0  0  0  0
  1  2  1  0
  2  4  1  0
  2  3  2  0
  5  7  1  0
  5  4  1  0
  5  6  1  6
  7  8  2  0
 10  9  1  1
 10 11  1  0
 10 12  1  0
 12 14  1  0
 12 13  1  1
 13  7  1  0
 14 15  2  0
 14 16  1  0
 16 17  1  0
 17 22  1  0
 17 18  1  1
 19 18  1  0
 20 19  1  0
 21 20  2  0
 22 23  1  0
 24 20  1  0
 25 22  2  0
M  END
$$$$
