NVE.pdb
     RDKit          3D

 25 24  0  0  1  0  0  0  0  0999 V2000
    5.1869  -16.3537   19.8586 N   0  0  0  0  0  0  0  0  0  0  0  0
    5.6740  -17.2564   20.8373 C   0  0  0  0  0  0  0  0  0  0  0  0
    5.3262  -18.4471   20.7438 O   0  0  0  0  0  0  0  0  0  0  0  0
    6.5502  -16.7799   21.9052 C   0  0  0  0  0  0  0  0  0  0  0  0
    6.7450  -15.2928   21.9486 C   0  0  2  0  0  0  0  0  0  0  0  0
    7.3144  -14.8474   20.6984 N   0  0  0  0  0  0  0  0  0  0  0  0
    7.6555  -14.8487   23.0480 C   0  0  0  0  0  0  0  0  0  0  0  0
    8.8941  -14.8563   22.8530 O   0  0  0  0  0  0  0  0  0  0  0  0
    7.7512  -12.9900   27.6731 C   0  0  0  0  0  0  0  0  0  0  0  0
    7.4465  -12.9812   26.1983 C   0  0  2  0  0  0  0  0  0  0  0  0
    5.9468  -12.8082   26.0404 C   0  0  0  0  0  0  0  0  0  0  0  0
    8.0134  -14.0695   25.3889 C   0  0  2  0  0  0  0  0  0  0  0  0
    7.1467  -14.4257   24.2850 N   0  0  0  0  0  0  0  0  0  0  0  0
    8.6656  -15.1943   26.0331 C   0  0  0  0  0  0  0  0  0  0  0  0
    7.9071  -16.1052   26.5331 O   0  0  0  0  0  0  0  0  0  0  0  0
   10.0298  -15.3997   26.1702 N   0  0  0  0  0  0  0  0  0  0  0  0
   10.6320  -16.5676   26.8015 C   0  0  1  0  0  0  0  0  0  0  0  0
   11.9880  -16.8767   26.1973 C   0  0  0  0  0  0  0  0  0  0  0  0
   12.2772  -15.8810   25.0876 C   0  0  0  0  0  0  0  0  0  0  0  0
   13.5147  -16.2197   24.3577 C   0  0  0  0  0  0  0  0  0  0  0  0
   14.6367  -16.0307   24.8807 O   0  0  0  0  0  0  0  0  0  0  0  0
   10.8402  -16.2464   28.2282 C   0  0  0  0  0  0  0  0  0  0  0  0
   11.2881  -17.2218   29.0943 O   0  0  0  0  0  0  0  0  0  0  0  0
   13.5193  -16.7605   23.0666 O   0  0  0  0  0  0  0  0  0  0  0  0
   10.6148  -15.0973   28.6631 O   0  0  0  0  0  0  0  0  0  0  0  0
  1  2  1  0
  2  4  1  0
  2  3  2  0
  5  7  1  0
  5  4  1  0
  5  6  1  6
  7  8  2  0
 10  9  1  1
 10 11  1  0
 10 12  1  0
 12 14  1  0
 12 13  1  1
 13  7  1  0
 14 15  2  0
 14 16  1  0
 16 17  1  0
 17 22  1  0
 17 18  1  6
 19 18  1  0
 20 19  1  0
 21 20  2  0
 22 23  1  0
 24 20  1  0
 25 22  2  0
M  END
$$$$
