GYR.pdb
     RDKit          3D

 28 28  0  0  1  0  0  0  0  0999 V2000
   23.8240  -20.7092  -19.2499 N   0  0  0  0  0  0  0  0  0  0  0  0
   22.8550  -20.2435  -18.3238 C   0  0  0  0  0  0  0  0  0  0  0  0
   23.0287  -20.7909  -16.9515 C   0  0  0  0  0  0  0  0  0  0  0  0
   23.9559  -21.6085  -16.7276 O   0  0  0  0  0  0  0  0  0  0  0  0
   27.2991  -16.7329  -15.2480 O   0  0  0  0  0  0  0  0  0  0  0  0
   26.2074  -17.5037  -14.8280 C   0  0  0  0  0  0  0  0  0  0  0  0
   24.9199  -17.0841  -15.0689 C   0  0  0  0  0  0  0  0  0  0  0  0
   23.8408  -17.8385  -14.6584 C   0  0  0  0  0  0  0  0  0  0  0  0
   23.9891  -19.0421  -13.9913 C   0  0  0  0  0  0  0  0  0  0  0  0
   22.8148  -19.8380  -13.5686 C   0  0  0  0  0  0  0  0  0  0  0  0
   22.4139  -20.9260  -14.5005 C   0  0  2  0  0  0  0  0  0  0  0  0
   22.1979  -20.4398  -15.8638 N   0  0  0  0  0  0  0  0  0  0  0  0
   21.2622  -21.7452  -14.0646 C   0  0  0  0  0  0  0  0  0  0  0  0
   20.0625  -21.3048  -14.1599 O   0  0  0  0  0  0  0  0  0  0  0  0
   25.2811  -19.4508  -13.7562 C   0  0  0  0  0  0  0  0  0  0  0  0
   26.3783  -18.6997  -14.1647 C   0  0  0  0  0  0  0  0  0  0  0  0
   18.0133  -25.2641   -8.9003 N   0  0  0  0  0  0  0  0  0  0  0  0
   18.8684  -24.5114   -8.0577 C   0  0  0  0  0  0  0  0  0  0  0  0
   18.6181  -24.5064   -6.7852 N   0  0  0  0  0  0  0  0  0  0  0  0
   19.9587  -23.7943   -8.6180 N   0  0  0  0  0  0  0  0  0  0  0  0
   19.7031  -22.8116   -9.6490 C   0  0  0  0  0  0  0  0  0  0  0  0
   18.9905  -23.4470  -10.8462 C   0  0  0  0  0  0  0  0  0  0  0  0
   19.5008  -22.8208  -12.0930 C   0  0  0  0  0  0  0  0  0  0  0  0
   20.1798  -23.7721  -13.0557 C   0  0  2  0  0  0  0  0  0  0  0  0
   21.3868  -23.0546  -13.5226 N   0  0  0  0  0  0  0  0  0  0  0  0
   19.2606  -24.0102  -14.1913 C   0  0  0  0  0  0  0  0  0  0  0  0
   19.6440  -23.5335  -15.4483 O   0  0  0  0  0  0  0  0  0  0  0  0
   18.1661  -24.6067  -14.1056 O   0  0  0  0  0  0  0  0  0  0  0  0
  2  1  1  0
  3  2  1  0
  4  3  2  0
  6 16  2  0
  6  5  1  0
  7  6  1  0
  8  9  1  0
  8  7  2  0
  9 15  2  0
 10  9  1  0
 11 10  1  1
 11 12  1  0
 12  3  1  0
 13 25  1  0
 13 11  1  0
 14 13  2  0
 15 16  1  0
 18 19  2  0
 18 17  1  0
 20 18  1  0
 21 20  1  0
 22 21  1  0
 23 22  1  0
 24 23  1  1
 24 25  1  0
 26 27  1  0
 26 24  1  0
 28 26  2  0
M  END
$$$$
