GYR.pdb
     RDKit          3D

 28 28  0  0  1  0  0  0  0  0999 V2000
   28.0070  -23.8270  -17.3620 N   0  0  0  0  0  0  0  0  0  0  0  0
   27.6967  -22.5143  -16.9213 C   0  0  0  0  0  0  0  0  0  0  0  0
   26.9370  -22.4774  -15.6428 C   0  0  0  0  0  0  0  0  0  0  0  0
   26.3667  -23.5200  -15.2351 O   0  0  0  0  0  0  0  0  0  0  0  0
   23.7521  -20.3551   -7.6240 O   0  0  0  0  0  0  0  0  0  0  0  0
   24.4290  -20.3487   -8.8505 C   0  0  0  0  0  0  0  0  0  0  0  0
   25.6401  -20.9863   -8.9853 C   0  0  0  0  0  0  0  0  0  0  0  0
   26.3113  -20.9840  -10.1901 C   0  0  0  0  0  0  0  0  0  0  0  0
   25.8125  -20.3501  -11.3149 C   0  0  0  0  0  0  0  0  0  0  0  0
   26.5479  -20.3693  -12.5993 C   0  0  0  0  0  0  0  0  0  0  0  0
   25.9730  -21.2523  -13.6494 C   0  0  2  0  0  0  0  0  0  0  0  0
   26.8158  -21.3182  -14.8439 N   0  0  0  0  0  0  0  0  0  0  0  0
   24.5739  -20.9610  -14.0300 C   0  0  0  0  0  0  0  0  0  0  0  0
   24.2933  -20.0149  -14.8476 O   0  0  0  0  0  0  0  0  0  0  0  0
   24.6010  -19.7160  -11.1673 C   0  0  0  0  0  0  0  0  0  0  0  0
   23.9136  -19.7107   -9.9581 C   0  0  0  0  0  0  0  0  0  0  0  0
   20.5101  -25.8848  -14.8363 N   0  0  0  0  0  0  0  0  0  0  0  0
   19.1524  -25.7042  -14.4735 C   0  0  0  0  0  0  0  0  0  0  0  0
   18.4056  -26.7592  -14.3671 N   0  0  0  0  0  0  0  0  0  0  0  0
   18.6524  -24.3956  -14.2395 N   0  0  0  0  0  0  0  0  0  0  0  0
   19.3120  -23.2660  -14.8583 C   0  0  0  0  0  0  0  0  0  0  0  0
   19.7520  -22.2449  -13.8054 C   0  0  0  0  0  0  0  0  0  0  0  0
   21.1985  -22.4384  -13.5277 C   0  0  0  0  0  0  0  0  0  0  0  0
   22.0867  -21.2765  -13.9197 C   0  0  2  0  0  0  0  0  0  0  0  0
   23.4554  -21.6890  -13.5372 N   0  0  0  0  0  0  0  0  0  0  0  0
   21.6737  -20.0952  -13.1288 C   0  0  0  0  0  0  0  0  0  0  0  0
   21.0301  -19.0541  -13.8041 O   0  0  0  0  0  0  0  0  0  0  0  0
   21.8603  -19.9629  -11.9005 O   0  0  0  0  0  0  0  0  0  0  0  0
  2  1  1  0
  3  2  1  0
  4  3  2  0
  6 16  2  0
  6  5  1  0
  7  6  1  0
  8  9  1  0
  8  7  2  0
  9 15  2  0
 10  9  1  0
 11 10  1  1
 11 12  1  0
 12  3  1  0
 13 25  1  0
 13 11  1  0
 14 13  2  0
 15 16  1  0
 18 19  2  0
 18 17  1  0
 20 18  1  0
 21 20  1  0
 22 21  1  0
 23 22  1  0
 24 23  1  1
 24 25  1  0
 26 27  1  0
 26 24  1  0
 28 26  2  0
M  END
$$$$
