GYR.pdb
     RDKit          3D

 28 28  0  0  1  0  0  0  0  0999 V2000
   30.0341  -23.2609  -17.9309 N   0  0  0  0  0  0  0  0  0  0  0  0
   29.3134  -22.0990  -17.5511 C   0  0  0  0  0  0  0  0  0  0  0  0
   28.5253  -22.2671  -16.3006 C   0  0  0  0  0  0  0  0  0  0  0  0
   28.3138  -23.4233  -15.8569 O   0  0  0  0  0  0  0  0  0  0  0  0
   24.1403  -20.4818   -8.6945 O   0  0  0  0  0  0  0  0  0  0  0  0
   24.9484  -20.4355   -9.8379 C   0  0  0  0  0  0  0  0  0  0  0  0
   24.4894  -19.8543  -10.9968 C   0  0  0  0  0  0  0  0  0  0  0  0
   25.2801  -19.8051  -12.1256 C   0  0  0  0  0  0  0  0  0  0  0  0
   26.5607  -20.3294  -12.1566 C   0  0  0  0  0  0  0  0  0  0  0  0
   27.3933  -20.2564  -13.3783 C   0  0  0  0  0  0  0  0  0  0  0  0
   27.1828  -21.3549  -14.3591 C   0  0  2  0  0  0  0  0  0  0  0  0
   27.9900  -21.1841  -15.5678 N   0  0  0  0  0  0  0  0  0  0  0  0
   25.7744  -21.6229  -14.7221 C   0  0  0  0  0  0  0  0  0  0  0  0
   25.1816  -20.9360  -15.6272 O   0  0  0  0  0  0  0  0  0  0  0  0
   27.0082  -20.9080  -10.9919 C   0  0  0  0  0  0  0  0  0  0  0  0
   26.2211  -20.9643   -9.8464 C   0  0  0  0  0  0  0  0  0  0  0  0
   20.2731  -26.5195  -16.9084 N   0  0  0  0  0  0  0  0  0  0  0  0
   21.5627  -27.1053  -16.9461 C   0  0  0  0  0  0  0  0  0  0  0  0
   21.9187  -27.7231  -18.0295 N   0  0  0  0  0  0  0  0  0  0  0  0
   22.4178  -27.0027  -15.8169 N   0  0  0  0  0  0  0  0  0  0  0  0
   21.9377  -26.3372  -14.6250 C   0  0  0  0  0  0  0  0  0  0  0  0
   21.9997  -24.8156  -14.7851 C   0  0  0  0  0  0  0  0  0  0  0  0
   23.3696  -24.3548  -14.4414 C   0  0  0  0  0  0  0  0  0  0  0  0
   23.5981  -22.8647  -14.5827 C   0  0  2  0  0  0  0  0  0  0  0  0
   24.9844  -22.6395  -14.1169 N   0  0  0  0  0  0  0  0  0  0  0  0
   22.6441  -22.1670  -13.6914 C   0  0  0  0  0  0  0  0  0  0  0  0
   21.4755  -21.6558  -14.2634 O   0  0  0  0  0  0  0  0  0  0  0  0
   22.8101  -22.0022  -12.4640 O   0  0  0  0  0  0  0  0  0  0  0  0
  2  1  1  0
  3  2  1  0
  4  3  2  0
  6 16  2  0
  6  5  1  0
  7  6  1  0
  8  9  1  0
  8  7  2  0
  9 15  2  0
 10  9  1  0
 11 10  1  1
 11 12  1  0
 12  3  1  0
 13 25  1  0
 13 11  1  0
 14 13  2  0
 15 16  1  0
 18 19  2  0
 18 17  1  0
 20 18  1  0
 21 20  1  0
 22 21  1  0
 23 22  1  0
 24 23  1  1
 24 25  1  0
 26 27  1  0
 26 24  1  0
 28 26  2  0
M  END
$$$$
