GYR.pdb
     RDKit          3D

 28 28  0  0  1  0  0  0  0  0999 V2000
   27.7438  -21.7130  -18.9118 N   0  0  0  0  0  0  0  0  0  0  0  0
   26.5631  -21.0301  -18.5204 C   0  0  0  0  0  0  0  0  0  0  0  0
   26.0946  -21.3825  -17.1532 C   0  0  0  0  0  0  0  0  0  0  0  0
   26.5319  -22.4231  -16.6016 O   0  0  0  0  0  0  0  0  0  0  0  0
   23.2005  -21.5414   -8.8209 O   0  0  0  0  0  0  0  0  0  0  0  0
   23.6392  -21.1825  -10.1019 C   0  0  0  0  0  0  0  0  0  0  0  0
   22.8054  -20.5105  -10.9650 C   0  0  0  0  0  0  0  0  0  0  0  0
   23.2313  -20.1539  -12.2273 C   0  0  0  0  0  0  0  0  0  0  0  0
   24.5022  -20.4471  -12.6907 C   0  0  0  0  0  0  0  0  0  0  0  0
   24.9387  -20.0459  -14.0470 C   0  0  0  0  0  0  0  0  0  0  0  0
   24.6184  -21.0126  -15.1313 C   0  0  2  0  0  0  0  0  0  0  0  0
   25.1697  -20.6024  -16.4235 N   0  0  0  0  0  0  0  0  0  0  0  0
   23.1872  -21.3562  -15.2754 C   0  0  0  0  0  0  0  0  0  0  0  0
   22.3679  -20.5541  -15.8479 O   0  0  0  0  0  0  0  0  0  0  0  0
   25.3263  -21.1194  -11.8187 C   0  0  0  0  0  0  0  0  0  0  0  0
   24.9094  -21.4848  -10.5430 C   0  0  0  0  0  0  0  0  0  0  0  0
   18.3855  -24.1410   -9.5052 N   0  0  0  0  0  0  0  0  0  0  0  0
   17.4848  -24.6901  -10.4512 C   0  0  0  0  0  0  0  0  0  0  0  0
   16.2454  -24.8357  -10.0979 N   0  0  0  0  0  0  0  0  0  0  0  0
   17.9536  -25.0604  -11.7397 N   0  0  0  0  0  0  0  0  0  0  0  0
   19.3374  -24.8163  -12.0853 C   0  0  0  0  0  0  0  0  0  0  0  0
   19.4429  -23.9012  -13.3086 C   0  0  0  0  0  0  0  0  0  0  0  0
   20.8789  -23.6513  -13.5956 C   0  0  0  0  0  0  0  0  0  0  0  0
   21.1466  -22.7239  -14.7621 C   0  0  2  0  0  0  0  0  0  0  0  0
   22.6180  -22.5731  -14.8073 N   0  0  0  0  0  0  0  0  0  0  0  0
   20.5121  -21.4194  -14.4671 C   0  0  0  0  0  0  0  0  0  0  0  0
   21.2152  -20.5238  -13.6560 O   0  0  0  0  0  0  0  0  0  0  0  0
   19.3924  -21.0627  -14.8913 O   0  0  0  0  0  0  0  0  0  0  0  0
  2  1  1  0
  3  2  1  0
  4  3  2  0
  6 16  2  0
  6  5  1  0
  7  6  1  0
  8  9  1  0
  8  7  2  0
  9 15  2  0
 10  9  1  0
 11 10  1  1
 11 12  1  0
 12  3  1  0
 13 25  1  0
 13 11  1  0
 14 13  2  0
 15 16  1  0
 18 19  2  0
 18 17  1  0
 20 18  1  0
 21 20  1  0
 22 21  1  0
 23 22  1  0
 24 23  1  1
 24 25  1  0
 26 27  1  0
 26 24  1  0
 28 26  2  0
M  END
$$$$
