GYR.pdb
     RDKit          3D

 28 28  0  0  1  0  0  0  0  0999 V2000
   23.4195  -18.6585  -18.1542 N   0  0  0  0  0  0  0  0  0  0  0  0
   23.8763  -18.6591  -16.8107 C   0  0  0  0  0  0  0  0  0  0  0  0
   23.5567  -19.9100  -16.0717 C   0  0  0  0  0  0  0  0  0  0  0  0
   23.0169  -20.8656  -16.6832 O   0  0  0  0  0  0  0  0  0  0  0  0
   28.8476  -23.6083  -16.8062 O   0  0  0  0  0  0  0  0  0  0  0  0
   27.8195  -23.2070  -15.9434 C   0  0  0  0  0  0  0  0  0  0  0  0
   27.7688  -21.9182  -15.4661 C   0  0  0  0  0  0  0  0  0  0  0  0
   26.7591  -21.5168  -14.6167 C   0  0  0  0  0  0  0  0  0  0  0  0
   25.7547  -22.3743  -14.2025 C   0  0  0  0  0  0  0  0  0  0  0  0
   24.6767  -21.9170  -13.2971 C   0  0  0  0  0  0  0  0  0  0  0  0
   23.4932  -21.3156  -13.9684 C   0  0  2  0  0  0  0  0  0  0  0  0
   23.8289  -20.0918  -14.6972 N   0  0  0  0  0  0  0  0  0  0  0  0
   22.3183  -21.0843  -13.1004 C   0  0  0  0  0  0  0  0  0  0  0  0
   22.1975  -20.0026  -12.4240 O   0  0  0  0  0  0  0  0  0  0  0  0
   25.8164  -23.6602  -14.6863 C   0  0  0  0  0  0  0  0  0  0  0  0
   26.8291  -24.0781  -15.5434 C   0  0  0  0  0  0  0  0  0  0  0  0
   17.7974  -20.7507  -17.0312 N   0  0  0  0  0  0  0  0  0  0  0  0
   16.7065  -20.3017  -16.2464 C   0  0  0  0  0  0  0  0  0  0  0  0
   15.5073  -20.5230  -16.6884 N   0  0  0  0  0  0  0  0  0  0  0  0
   16.9492  -19.6327  -15.0174 N   0  0  0  0  0  0  0  0  0  0  0  0
   18.3141  -19.4154  -14.5887 C   0  0  0  0  0  0  0  0  0  0  0  0
   18.9410  -20.7159  -14.0782 C   0  0  0  0  0  0  0  0  0  0  0  0
   19.4425  -20.4944  -12.6974 C   0  0  0  0  0  0  0  0  0  0  0  0
   20.1163  -21.6918  -12.0612 C   0  0  2  0  0  0  0  0  0  0  0  0
   21.2529  -22.0153  -12.9519 N   0  0  0  0  0  0  0  0  0  0  0  0
   19.1477  -22.8112  -12.0487 C   0  0  0  0  0  0  0  0  0  0  0  0
   18.1919  -22.8317  -11.0288 O   0  0  0  0  0  0  0  0  0  0  0  0
   19.1246  -23.7392  -12.8849 O   0  0  0  0  0  0  0  0  0  0  0  0
  2  1  1  0
  3  2  1  0
  4  3  2  0
  6 16  2  0
  6  5  1  0
  7  6  1  0
  8  9  1  0
  8  7  2  0
  9 15  2  0
 10  9  1  0
 11 10  1  1
 11 12  1  0
 12  3  1  0
 13 25  1  0
 13 11  1  0
 14 13  2  0
 15 16  1  0
 18 19  2  0
 18 17  1  0
 20 18  1  0
 21 20  1  0
 22 21  1  0
 23 22  1  0
 24 23  1  6
 24 25  1  0
 26 27  1  0
 26 24  1  0
 28 26  2  0
M  END
$$$$
