GYR.pdb
     RDKit          3D

 28 28  0  0  1  0  0  0  0  0999 V2000
   17.2226  -19.5091    1.6902 N   0  0  0  0  0  0  0  0  0  0  0  0
   16.5456  -18.6929    2.6331 C   0  0  0  0  0  0  0  0  0  0  0  0
   17.4546  -18.0024    3.5870 C   0  0  0  0  0  0  0  0  0  0  0  0
   18.6734  -18.3067    3.6061 O   0  0  0  0  0  0  0  0  0  0  0  0
   21.4310  -10.9530    6.6299 O   0  0  0  0  0  0  0  0  0  0  0  0
   20.4496  -11.9227    6.3869 C   0  0  0  0  0  0  0  0  0  0  0  0
   19.9715  -12.7070    7.4104 C   0  0  0  0  0  0  0  0  0  0  0  0
   19.0051  -13.6631    7.1778 C   0  0  0  0  0  0  0  0  0  0  0  0
   18.4695  -13.8847    5.9210 C   0  0  0  0  0  0  0  0  0  0  0  0
   17.4266  -14.9112    5.6985 C   0  0  0  0  0  0  0  0  0  0  0  0
   17.9315  -16.2716    5.3705 C   0  0  2  0  0  0  0  0  0  0  0  0
   17.0216  -17.0057    4.4901 N   0  0  0  0  0  0  0  0  0  0  0  0
   18.3024  -17.1098    6.5311 C   0  0  0  0  0  0  0  0  0  0  0  0
   17.5297  -18.0437    6.9473 O   0  0  0  0  0  0  0  0  0  0  0  0
   18.9558  -13.0944    4.9059 C   0  0  0  0  0  0  0  0  0  0  0  0
   19.9302  -12.1265    5.1267 C   0  0  0  0  0  0  0  0  0  0  0  0
   25.6951  -17.0131   11.2746 N   0  0  0  0  0  0  0  0  0  0  0  0
   24.9953  -18.0763   11.8972 C   0  0  0  0  0  0  0  0  0  0  0  0
   25.5838  -18.7075   12.8654 N   0  0  0  0  0  0  0  0  0  0  0  0
   23.6901  -18.4178   11.4533 N   0  0  0  0  0  0  0  0  0  0  0  0
   23.2221  -17.9133   10.1804 C   0  0  0  0  0  0  0  0  0  0  0  0
   21.7712  -18.3316    9.9259 C   0  0  0  0  0  0  0  0  0  0  0  0
   21.2236  -17.5063    8.8187 C   0  0  0  0  0  0  0  0  0  0  0  0
   19.8366  -17.8975    8.3541 C   0  0  2  0  0  0  0  0  0  0  0  0
   19.5151  -16.9560    7.2586 N   0  0  0  0  0  0  0  0  0  0  0  0
   18.9007  -17.6992    9.4838 C   0  0  0  0  0  0  0  0  0  0  0  0
   18.5300  -18.8247   10.2254 O   0  0  0  0  0  0  0  0  0  0  0  0
   18.4183  -16.5970    9.8208 O   0  0  0  0  0  0  0  0  0  0  0  0
  2  1  1  0
  3  2  1  0
  4  3  2  0
  6 16  2  0
  6  5  1  0
  7  6  1  0
  8  9  1  0
  8  7  2  0
  9 15  2  0
 10  9  1  0
 11 10  1  1
 11 12  1  0
 12  3  1  0
 13 25  1  0
 13 11  1  0
 14 13  2  0
 15 16  1  0
 18 19  2  0
 18 17  1  0
 20 18  1  0
 21 20  1  0
 22 21  1  0
 23 22  1  0
 24 23  1  1
 24 25  1  0
 26 27  1  0
 26 24  1  0
 28 26  2  0
M  END
$$$$
