GYR.pdb
     RDKit          3D

 28 28  0  0  1  0  0  0  0  0999 V2000
   28.0807  -21.2474  -16.2467 N   0  0  0  0  0  0  0  0  0  0  0  0
   26.8399  -21.1241  -16.9241 C   0  0  0  0  0  0  0  0  0  0  0  0
   25.8251  -20.3370  -16.1733 C   0  0  0  0  0  0  0  0  0  0  0  0
   26.0569  -20.0103  -14.9826 O   0  0  0  0  0  0  0  0  0  0  0  0
   27.8718  -14.3576  -16.6471 O   0  0  0  0  0  0  0  0  0  0  0  0
   26.7637  -15.2146  -16.6351 C   0  0  0  0  0  0  0  0  0  0  0  0
   26.0000  -15.3561  -15.5001 C   0  0  0  0  0  0  0  0  0  0  0  0
   24.9076  -16.1977  -15.4820 C   0  0  0  0  0  0  0  0  0  0  0  0
   24.5231  -16.9366  -16.5874 C   0  0  0  0  0  0  0  0  0  0  0  0
   23.3412  -17.8266  -16.5456 C   0  0  0  0  0  0  0  0  0  0  0  0
   23.5829  -19.1803  -15.9778 C   0  0  2  0  0  0  0  0  0  0  0  0
   24.5926  -19.9269  -16.7294 N   0  0  0  0  0  0  0  0  0  0  0  0
   22.3765  -20.0129  -15.7817 C   0  0  0  0  0  0  0  0  0  0  0  0
   21.8618  -20.6722  -16.7528 O   0  0  0  0  0  0  0  0  0  0  0  0
   25.2946  -16.7867  -17.7160 C   0  0  0  0  0  0  0  0  0  0  0  0
   26.3988  -15.9413  -17.7479 C   0  0  0  0  0  0  0  0  0  0  0  0
   19.5677  -24.7932  -10.2952 N   0  0  0  0  0  0  0  0  0  0  0  0
   18.2173  -24.3738  -10.3849 C   0  0  0  0  0  0  0  0  0  0  0  0
   17.2911  -25.2503  -10.1481 N   0  0  0  0  0  0  0  0  0  0  0  0
   17.9173  -23.0280  -10.7255 N   0  0  0  0  0  0  0  0  0  0  0  0
   18.9925  -22.1411  -11.1146 C   0  0  0  0  0  0  0  0  0  0  0  0
   19.0714  -22.0123  -12.6384 C   0  0  0  0  0  0  0  0  0  0  0  0
   20.1434  -21.0425  -12.9807 C   0  0  0  0  0  0  0  0  0  0  0  0
   20.4445  -20.9165  -14.4592 C   0  0  2  0  0  0  0  0  0  0  0  0
   21.7085  -20.1506  -14.5332 N   0  0  0  0  0  0  0  0  0  0  0  0
   19.3476  -20.1463  -15.0875 C   0  0  0  0  0  0  0  0  0  0  0  0
   18.3666  -20.8609  -15.7813 O   0  0  0  0  0  0  0  0  0  0  0  0
   19.2370  -18.9026  -15.0421 O   0  0  0  0  0  0  0  0  0  0  0  0
  2  1  1  0
  3  2  1  0
  4  3  2  0
  6 16  2  0
  6  5  1  0
  7  6  1  0
  8  9  1  0
  8  7  2  0
  9 15  2  0
 10  9  1  0
 11 10  1  6
 11 12  1  0
 12  3  1  0
 13 25  1  0
 13 11  1  0
 14 13  2  0
 15 16  1  0
 18 19  2  0
 18 17  1  0
 20 18  1  0
 21 20  1  0
 22 21  1  0
 23 22  1  0
 24 23  1  1
 24 25  1  0
 26 27  1  0
 26 24  1  0
 28 26  2  0
M  END
$$$$
