GYR.pdb
     RDKit          3D

 28 28  0  0  1  0  0  0  0  0999 V2000
   31.1985  -22.7961  -10.3569 N   0  0  0  0  0  0  0  0  0  0  0  0
   30.6478  -21.5025  -10.1647 C   0  0  0  0  0  0  0  0  0  0  0  0
   29.2290  -21.5177   -9.7176 C   0  0  0  0  0  0  0  0  0  0  0  0
   28.6032  -22.6068   -9.6918 O   0  0  0  0  0  0  0  0  0  0  0  0
   29.8693  -19.8475   -3.1036 O   0  0  0  0  0  0  0  0  0  0  0  0
   29.1230  -19.7190   -4.2822 C   0  0  0  0  0  0  0  0  0  0  0  0
   28.2210  -20.6901   -4.6493 C   0  0  0  0  0  0  0  0  0  0  0  0
   27.4829  -20.5693   -5.8080 C   0  0  0  0  0  0  0  0  0  0  0  0
   27.6056  -19.4812   -6.6545 C   0  0  0  0  0  0  0  0  0  0  0  0
   26.7956  -19.3704   -7.8885 C   0  0  0  0  0  0  0  0  0  0  0  0
   27.1117  -20.3642   -8.9494 C   0  0  2  0  0  0  0  0  0  0  0  0
   28.5294  -20.3589   -9.3124 N   0  0  0  0  0  0  0  0  0  0  0  0
   26.2750  -20.2840  -10.1663 C   0  0  0  0  0  0  0  0  0  0  0  0
   26.6229  -19.5566  -11.1623 O   0  0  0  0  0  0  0  0  0  0  0  0
   28.5108  -18.5171   -6.2768 C   0  0  0  0  0  0  0  0  0  0  0  0
   29.2615  -18.6265   -5.1108 C   0  0  0  0  0  0  0  0  0  0  0  0
   26.3200  -25.3108  -16.1231 N   0  0  0  0  0  0  0  0  0  0  0  0
   26.1662  -23.9778  -16.5781 C   0  0  0  0  0  0  0  0  0  0  0  0
   26.6921  -23.6604  -17.7204 N   0  0  0  0  0  0  0  0  0  0  0  0
   25.4526  -23.0395  -15.7860 N   0  0  0  0  0  0  0  0  0  0  0  0
   24.9740  -23.4370  -14.4795 C   0  0  0  0  0  0  0  0  0  0  0  0
   24.2780  -22.2700  -13.7732 C   0  0  0  0  0  0  0  0  0  0  0  0
   24.8739  -22.1056  -12.4224 C   0  0  0  0  0  0  0  0  0  0  0  0
   24.3395  -20.9344  -11.6252 C   0  0  2  0  0  0  0  0  0  0  0  0
   25.0513  -20.9911  -10.3292 N   0  0  0  0  0  0  0  0  0  0  0  0
   22.8891  -21.1443  -11.4165 C   0  0  0  0  0  0  0  0  0  0  0  0
   22.0372  -20.9174  -12.5014 O   0  0  0  0  0  0  0  0  0  0  0  0
   22.3725  -21.5091  -10.3390 O   0  0  0  0  0  0  0  0  0  0  0  0
  2  1  1  0
  3  2  1  0
  4  3  2  0
  6 16  2  0
  6  5  1  0
  7  6  1  0
  8  9  1  0
  8  7  2  0
  9 15  2  0
 10  9  1  0
 11 10  1  1
 11 12  1  0
 12  3  1  0
 13 25  1  0
 13 11  1  0
 14 13  2  0
 15 16  1  0
 18 19  2  0
 18 17  1  0
 20 18  1  0
 21 20  1  0
 22 21  1  0
 23 22  1  0
 24 23  1  6
 24 25  1  0
 26 27  1  0
 26 24  1  0
 28 26  2  0
M  END
$$$$
