GYR.pdb
     RDKit          3D

 28 28  0  0  1  0  0  0  0  0999 V2000
   22.9772  -11.9002  -17.8237 N   0  0  0  0  0  0  0  0  0  0  0  0
   22.9831  -10.4970  -17.6124 C   0  0  0  0  0  0  0  0  0  0  0  0
   22.2070  -10.0696  -16.4174 C   0  0  0  0  0  0  0  0  0  0  0  0
   21.1931  -10.7274  -16.0742 O   0  0  0  0  0  0  0  0  0  0  0  0
   19.5272   -5.6089   -9.1386 O   0  0  0  0  0  0  0  0  0  0  0  0
   20.2702   -6.1543  -10.1936 C   0  0  0  0  0  0  0  0  0  0  0  0
   20.4693   -7.5123  -10.2813 C   0  0  0  0  0  0  0  0  0  0  0  0
   21.1994   -8.0554  -11.3176 C   0  0  0  0  0  0  0  0  0  0  0  0
   21.7646   -7.2775  -12.3132 C   0  0  0  0  0  0  0  0  0  0  0  0
   22.5368   -7.8852  -13.4201 C   0  0  0  0  0  0  0  0  0  0  0  0
   21.7224   -8.4643  -14.5221 C   0  0  2  0  0  0  0  0  0  0  0  0
   22.5479   -8.9470  -15.6299 N   0  0  0  0  0  0  0  0  0  0  0  0
   20.6387   -7.5986  -15.0354 C   0  0  0  0  0  0  0  0  0  0  0  0
   20.8799   -6.6678  -15.8826 O   0  0  0  0  0  0  0  0  0  0  0  0
   21.5587   -5.9213  -12.2143 C   0  0  0  0  0  0  0  0  0  0  0  0
   20.8244   -5.3604  -11.1745 C   0  0  0  0  0  0  0  0  0  0  0  0
   12.0146   -9.0445  -15.2197 N   0  0  0  0  0  0  0  0  0  0  0  0
   12.0695   -7.7279  -15.7404 C   0  0  0  0  0  0  0  0  0  0  0  0
   10.9677   -7.1989  -16.1745 N   0  0  0  0  0  0  0  0  0  0  0  0
   13.3077   -7.0329  -15.7732 N   0  0  0  0  0  0  0  0  0  0  0  0
   14.5024   -7.6948  -15.2953 C   0  0  0  0  0  0  0  0  0  0  0  0
   15.7415   -6.8274  -15.5341 C   0  0  0  0  0  0  0  0  0  0  0  0
   16.9371   -7.5551  -15.0362 C   0  0  0  0  0  0  0  0  0  0  0  0
   18.2555   -6.8420  -15.2497 C   0  0  2  0  0  0  0  0  0  0  0  0
   19.2766   -7.7264  -14.6455 N   0  0  0  0  0  0  0  0  0  0  0  0
   18.2049   -5.5545  -14.5210 C   0  0  0  0  0  0  0  0  0  0  0  0
   18.2663   -4.3787  -15.2745 O   0  0  0  0  0  0  0  0  0  0  0  0
   18.1118   -5.4446  -13.2798 O   0  0  0  0  0  0  0  0  0  0  0  0
  2  1  1  0
  3  2  1  0
  4  3  2  0
  6 16  2  0
  6  5  1  0
  7  6  1  0
  8  9  1  0
  8  7  2  0
  9 15  2  0
 10  9  1  0
 11 10  1  1
 11 12  1  0
 12  3  1  0
 13 25  1  0
 13 11  1  0
 14 13  2  0
 15 16  1  0
 18 19  2  0
 18 17  1  0
 20 18  1  0
 21 20  1  0
 22 21  1  0
 23 22  1  0
 24 23  1  1
 24 25  1  0
 26 27  1  0
 26 24  1  0
 28 26  2  0
M  END
$$$$
