FQV.pdb
     RDKit          3D

 28 28  0  0  1  0  0  0  0  0999 V2000
    5.8317  -18.1673   23.7745 N   0  0  0  0  0  0  0  0  0  0  0  0
    6.3470  -16.8058   24.0104 C   0  0  1  0  0  0  0  0  0  0  0  0
    5.5674  -16.1696   25.1128 C   0  0  0  0  0  0  0  0  0  0  0  0
    6.0156  -14.7969   25.3653 C   0  0  0  0  0  0  0  0  0  0  0  0
    6.1530  -14.2593   26.6291 C   0  0  0  0  0  0  0  0  0  0  0  0
    6.6003  -12.9838   26.8393 C   0  0  0  0  0  0  0  0  0  0  0  0
    6.9310  -12.1906   25.7710 C   0  0  0  0  0  0  0  0  0  0  0  0
    6.8041  -12.7010   24.4916 C   0  0  0  0  0  0  0  0  0  0  0  0
    6.3546  -13.9813   24.2897 C   0  0  0  0  0  0  0  0  0  0  0  0
    7.7927  -16.9358   24.2904 C   0  0  0  0  0  0  0  0  0  0  0  0
    8.1693  -17.7422   25.1745 O   0  0  0  0  0  0  0  0  0  0  0  0
   12.3784  -14.4946   20.3488 N   0  0  0  0  0  0  0  0  0  0  0  0
   13.0717  -15.1989   21.3593 C   0  0  0  0  0  0  0  0  0  0  0  0
   14.3113  -15.3338   21.2547 O   0  0  0  0  0  0  0  0  0  0  0  0
   12.3765  -15.7840   22.5414 C   0  0  0  0  0  0  0  0  0  0  0  0
   10.8971  -15.5925   22.4662 C   0  0  0  0  0  0  0  0  0  0  0  0
   10.1402  -16.1554   23.6709 C   0  0  2  0  0  0  0  0  0  0  0  0
    8.7291  -16.1606   23.5642 N   0  0  0  0  0  0  0  0  0  0  0  0
   10.7196  -15.6507   24.9021 C   0  0  0  0  0  0  0  0  0  0  0  0
   11.2843  -14.5185   24.9575 O   0  0  0  0  0  0  0  0  0  0  0  0
   10.5387  -14.3525   29.3119 C   0  0  0  0  0  0  0  0  0  0  0  0
   10.0397  -14.8150   27.9558 C   0  0  1  0  0  0  0  0  0  0  0  0
    9.9465  -13.5899   27.0720 C   0  0  0  0  0  0  0  0  0  0  0  0
   11.0419  -15.7677   27.3948 C   0  0  2  0  0  0  0  0  0  0  0  0
   10.7160  -16.3548   26.1461 N   0  0  0  0  0  0  0  0  0  0  0  0
   11.2700  -16.8496   28.3867 C   0  0  0  0  0  0  0  0  0  0  0  0
   11.9215  -16.6337   29.5899 O   0  0  0  0  0  0  0  0  0  0  0  0
   10.8648  -18.0134   28.1458 O   0  0  0  0  0  0  0  0  0  0  0  0
  2  1  1  1
  2  3  1  0
  3  4  1  0
  4  9  2  0
  5  4  1  0
  5  6  2  0
  6  7  1  0
  7  8  2  0
  9  8  1  0
 10  2  1  0
 10 18  1  0
 11 10  2  0
 13 15  1  0
 13 12  1  0
 14 13  2  0
 17 16  1  6
 16 15  1  0
 17 18  1  0
 19 17  1  0
 20 19  2  0
 22 21  1  1
 23 22  1  0
 24 25  1  6
 24 22  1  0
 25 19  1  0
 26 24  1  0
 27 26  1  0
 28 26  2  0
M  END
$$$$
