FQV.pdb
     RDKit          3D

 28 28  0  0  1  0  0  0  0  0999 V2000
    5.6033  -16.6544   24.9902 N   0  0  0  0  0  0  0  0  0  0  0  0
    6.5622  -16.2591   23.9419 C   0  0  1  0  0  0  0  0  0  0  0  0
    6.3674  -14.8153   23.6171 C   0  0  0  0  0  0  0  0  0  0  0  0
    6.6873  -13.9587   24.7629 C   0  0  0  0  0  0  0  0  0  0  0  0
    7.8530  -13.2271   24.8669 C   0  0  0  0  0  0  0  0  0  0  0  0
    8.1155  -12.4127   25.9341 C   0  0  0  0  0  0  0  0  0  0  0  0
    7.2020  -12.3022   26.9506 C   0  0  0  0  0  0  0  0  0  0  0  0
    6.0238  -13.0229   26.8752 C   0  0  0  0  0  0  0  0  0  0  0  0
    5.7686  -13.8375   25.8013 C   0  0  0  0  0  0  0  0  0  0  0  0
    7.9119  -16.5873   24.4478 C   0  0  0  0  0  0  0  0  0  0  0  0
    8.0642  -16.8037   25.6740 O   0  0  0  0  0  0  0  0  0  0  0  0
   12.4632  -18.5549   20.7975 N   0  0  0  0  0  0  0  0  0  0  0  0
   13.2805  -18.0058   21.8115 C   0  0  0  0  0  0  0  0  0  0  0  0
   14.5189  -18.1696   21.7388 O   0  0  0  0  0  0  0  0  0  0  0  0
   12.7170  -17.2406   22.9604 C   0  0  0  0  0  0  0  0  0  0  0  0
   11.3407  -16.7380   22.6708 C   0  0  0  0  0  0  0  0  0  0  0  0
   10.3750  -16.8703   23.8502 C   0  0  2  0  0  0  0  0  0  0  0  0
    9.0077  -16.6575   23.5536 N   0  0  0  0  0  0  0  0  0  0  0  0
   10.9215  -16.2032   25.0175 C   0  0  0  0  0  0  0  0  0  0  0  0
   11.7296  -15.2336   24.9133 O   0  0  0  0  0  0  0  0  0  0  0  0
   10.5323  -14.1466   29.2403 C   0  0  0  0  0  0  0  0  0  0  0  0
    9.9525  -14.8538   28.0297 C   0  0  1  0  0  0  0  0  0  0  0  0
    9.6407  -13.7911   26.9979 C   0  0  0  0  0  0  0  0  0  0  0  0
   10.9896  -15.7856   27.4978 C   0  0  2  0  0  0  0  0  0  0  0  0
   10.6168  -16.5573   26.3684 N   0  0  0  0  0  0  0  0  0  0  0  0
   11.4018  -16.7043   28.5898 C   0  0  0  0  0  0  0  0  0  0  0  0
   12.2650  -16.3199   29.6026 O   0  0  0  0  0  0  0  0  0  0  0  0
   10.9626  -17.8804   28.6156 O   0  0  0  0  0  0  0  0  0  0  0  0
  2  1  1  1
  2  3  1  0
  3  4  1  0
  4  9  2  0
  5  4  1  0
  5  6  2  0
  6  7  1  0
  7  8  2  0
  9  8  1  0
 10  2  1  0
 10 18  1  0
 11 10  2  0
 13 15  1  0
 13 12  1  0
 14 13  2  0
 17 16  1  6
 16 15  1  0
 17 18  1  0
 19 17  1  0
 20 19  2  0
 22 21  1  1
 23 22  1  0
 24 25  1  6
 24 22  1  0
 25 19  1  0
 26 24  1  0
 27 26  1  0
 28 26  2  0
M  END
$$$$
