FQV.pdb
     RDKit          3D

 28 28  0  0  1  0  0  0  0  0999 V2000
    9.4533  -16.1816   20.8762 N   0  0  0  0  0  0  0  0  0  0  0  0
    8.8896  -15.3141   21.9271 C   0  0  1  0  0  0  0  0  0  0  0  0
    7.4928  -14.9393   21.5580 C   0  0  0  0  0  0  0  0  0  0  0  0
    7.4590  -14.1240   20.3401 C   0  0  0  0  0  0  0  0  0  0  0  0
    6.9681  -14.5765   19.1321 C   0  0  0  0  0  0  0  0  0  0  0  0
    6.9216  -13.7863   18.0166 C   0  0  0  0  0  0  0  0  0  0  0  0
    7.3733  -12.4931   18.0756 C   0  0  0  0  0  0  0  0  0  0  0  0
    7.8712  -12.0103   19.2724 C   0  0  0  0  0  0  0  0  0  0  0  0
    7.9144  -12.8096   20.3864 C   0  0  0  0  0  0  0  0  0  0  0  0
    8.9991  -16.0557   23.2013 C   0  0  0  0  0  0  0  0  0  0  0  0
    8.2310  -15.7546   24.1463 O   0  0  0  0  0  0  0  0  0  0  0  0
   10.8560  -22.1476   25.5429 N   0  0  0  0  0  0  0  0  0  0  0  0
   11.8380  -21.1570   25.3145 C   0  0  0  0  0  0  0  0  0  0  0  0
   12.9568  -21.5098   24.8791 O   0  0  0  0  0  0  0  0  0  0  0  0
   11.5849  -19.7108   25.5745 C   0  0  0  0  0  0  0  0  0  0  0  0
   11.2832  -18.9652   24.3160 C   0  0  0  0  0  0  0  0  0  0  0  0
   10.3681  -17.7561   24.5197 C   0  0  2  0  0  0  0  0  0  0  0  0
    9.9563  -17.0897   23.3411 N   0  0  0  0  0  0  0  0  0  0  0  0
   10.8573  -16.9415   25.6167 C   0  0  0  0  0  0  0  0  0  0  0  0
   12.0114  -16.4205   25.5965 O   0  0  0  0  0  0  0  0  0  0  0  0
   10.2362  -13.8130   29.2521 C   0  0  0  0  0  0  0  0  0  0  0  0
    9.5644  -14.7064   28.2263 C   0  0  1  0  0  0  0  0  0  0  0  0
    9.2110  -13.8368   27.0390 C   0  0  0  0  0  0  0  0  0  0  0  0
   10.5444  -15.7529   27.8122 C   0  0  2  0  0  0  0  0  0  0  0  0
   10.1130  -16.6486   26.8014 N   0  0  0  0  0  0  0  0  0  0  0  0
   10.9312  -16.5373   29.0128 C   0  0  0  0  0  0  0  0  0  0  0  0
   11.8160  -16.0575   29.9645 O   0  0  0  0  0  0  0  0  0  0  0  0
   10.4494  -17.6828   29.1922 O   0  0  0  0  0  0  0  0  0  0  0  0
  2  1  1  6
  2  3  1  0
  3  4  1  0
  4  9  2  0
  5  4  1  0
  5  6  2  0
  6  7  1  0
  7  8  2  0
  9  8  1  0
 10  2  1  0
 10 18  1  0
 11 10  2  0
 13 15  1  0
 13 12  1  0
 14 13  2  0
 17 16  1  6
 16 15  1  0
 17 18  1  0
 19 17  1  0
 20 19  2  0
 22 21  1  1
 23 22  1  0
 24 25  1  6
 24 22  1  0
 25 19  1  0
 26 24  1  0
 27 26  1  0
 28 26  2  0
M  END
$$$$
