FQV.pdb
     RDKit          3D

 28 28  0  0  1  0  0  0  0  0999 V2000
    7.7741  -18.1557   19.7507 N   0  0  0  0  0  0  0  0  0  0  0  0
    8.0409  -16.8995   20.4757 C   0  0  1  0  0  0  0  0  0  0  0  0
    7.0143  -15.8851   20.0952 C   0  0  0  0  0  0  0  0  0  0  0  0
    7.2146  -14.6224   20.8126 C   0  0  0  0  0  0  0  0  0  0  0  0
    7.8709  -13.5344   20.2737 C   0  0  0  0  0  0  0  0  0  0  0  0
    8.0202  -12.3568   20.9535 C   0  0  0  0  0  0  0  0  0  0  0  0
    7.5074  -12.2282   22.2186 C   0  0  0  0  0  0  0  0  0  0  0  0
    6.8440  -13.3011   22.7861 C   0  0  0  0  0  0  0  0  0  0  0  0
    6.6989  -14.4786   22.0972 C   0  0  0  0  0  0  0  0  0  0  0  0
    8.0581  -17.2300   21.9166 C   0  0  0  0  0  0  0  0  0  0  0  0
    7.1316  -17.9313   22.3892 O   0  0  0  0  0  0  0  0  0  0  0  0
   11.3420  -20.5884   25.3806 N   0  0  0  0  0  0  0  0  0  0  0  0
   11.9838  -19.7243   24.4645 C   0  0  0  0  0  0  0  0  0  0  0  0
   13.1457  -20.0009   24.0913 O   0  0  0  0  0  0  0  0  0  0  0  0
   11.3237  -18.4987   23.9305 C   0  0  0  0  0  0  0  0  0  0  0  0
    9.9578  -18.3092   24.5042 C   0  0  0  0  0  0  0  0  0  0  0  0
    9.3088  -16.9766   24.1246 C   0  0  2  0  0  0  0  0  0  0  0  0
    9.1099  -16.7606   22.7402 N   0  0  0  0  0  0  0  0  0  0  0  0
    9.9000  -15.8983   24.8953 C   0  0  0  0  0  0  0  0  0  0  0  0
   10.9618  -15.3174   24.5224 O   0  0  0  0  0  0  0  0  0  0  0  0
    8.9659  -12.4655   25.7982 C   0  0  0  0  0  0  0  0  0  0  0  0
    9.1799  -13.1474   27.1365 C   0  0  1  0  0  0  0  0  0  0  0  0
    7.8139  -13.5174   27.6732 C   0  0  0  0  0  0  0  0  0  0  0  0
    9.9827  -14.3833   26.9025 C   0  0  2  0  0  0  0  0  0  0  0  0
    9.3650  -15.3914   26.1200 N   0  0  0  0  0  0  0  0  0  0  0  0
   10.3533  -14.9607   28.2199 C   0  0  0  0  0  0  0  0  0  0  0  0
   11.1455  -14.2859   29.1342 O   0  0  0  0  0  0  0  0  0  0  0  0
    9.9435  -16.1041   28.5383 O   0  0  0  0  0  0  0  0  0  0  0  0
  2  1  1  6
  2  3  1  0
  3  4  1  0
  4  9  2  0
  5  4  1  0
  5  6  2  0
  6  7  1  0
  7  8  2  0
  9  8  1  0
 10  2  1  0
 10 18  1  0
 11 10  2  0
 13 15  1  0
 13 12  1  0
 14 13  2  0
 17 16  1  6
 16 15  1  0
 17 18  1  0
 19 17  1  0
 20 19  2  0
 22 21  1  6
 23 22  1  0
 24 25  1  6
 24 22  1  0
 25 19  1  0
 26 24  1  0
 27 26  1  0
 28 26  2  0
M  END
$$$$
