FQV.pdb
     RDKit          3D

 28 28  0  0  1  0  0  0  0  0999 V2000
    7.3254  -16.0452   20.4187 N   0  0  0  0  0  0  0  0  0  0  0  0
    7.7663  -15.2162   21.5559 C   0  0  1  0  0  0  0  0  0  0  0  0
    6.6570  -14.3012   21.9560 C   0  0  0  0  0  0  0  0  0  0  0  0
    7.0828  -13.3650   23.0007 C   0  0  0  0  0  0  0  0  0  0  0  0
    7.7735  -12.1979   22.7442 C   0  0  0  0  0  0  0  0  0  0  0  0
    8.1351  -11.3265   23.7346 C   0  0  0  0  0  0  0  0  0  0  0  0
    7.8105  -11.6004   25.0383 C   0  0  0  0  0  0  0  0  0  0  0  0
    7.1182  -12.7625   25.3274 C   0  0  0  0  0  0  0  0  0  0  0  0
    6.7595  -13.6311   24.3280 C   0  0  0  0  0  0  0  0  0  0  0  0
    8.1980  -16.1441   22.6226 C   0  0  0  0  0  0  0  0  0  0  0  0
    7.3673  -16.9596   23.0901 O   0  0  0  0  0  0  0  0  0  0  0  0
   12.9263  -21.0462   24.0345 N   0  0  0  0  0  0  0  0  0  0  0  0
   12.9222  -19.6355   23.9465 C   0  0  0  0  0  0  0  0  0  0  0  0
   13.8784  -19.0669   23.3735 O   0  0  0  0  0  0  0  0  0  0  0  0
   11.8197  -18.8062   24.5118 C   0  0  0  0  0  0  0  0  0  0  0  0
   11.2602  -17.8617   23.4989 C   0  0  0  0  0  0  0  0  0  0  0  0
   10.1528  -16.9576   24.0441 C   0  0  2  0  0  0  0  0  0  0  0  0
    9.5308  -16.1073   23.0992 N   0  0  0  0  0  0  0  0  0  0  0  0
   10.5652  -16.3723   25.3065 C   0  0  0  0  0  0  0  0  0  0  0  0
   11.3284  -15.3628   25.3549 O   0  0  0  0  0  0  0  0  0  0  0  0
    9.8637  -15.0033   29.8374 C   0  0  0  0  0  0  0  0  0  0  0  0
    9.3224  -15.6753   28.5895 C   0  0  1  0  0  0  0  0  0  0  0  0
    8.6158  -14.6103   27.7788 C   0  0  0  0  0  0  0  0  0  0  0  0
   10.4791  -16.2147   27.8162 C   0  0  2  0  0  0  0  0  0  0  0  0
   10.1675  -16.8567   26.5911 N   0  0  0  0  0  0  0  0  0  0  0  0
   11.2201  -17.1684   28.6808 C   0  0  0  0  0  0  0  0  0  0  0  0
   12.1807  -16.7591   29.5911 O   0  0  0  0  0  0  0  0  0  0  0  0
   10.9826  -18.3987   28.6002 O   0  0  0  0  0  0  0  0  0  0  0  0
  2  1  1  6
  2  3  1  0
  3  4  1  0
  4  9  2  0
  5  4  1  0
  5  6  2  0
  6  7  1  0
  7  8  2  0
  9  8  1  0
 10  2  1  0
 10 18  1  0
 11 10  2  0
 13 15  1  0
 13 12  1  0
 14 13  2  0
 17 16  1  6
 16 15  1  0
 17 18  1  0
 19 17  1  0
 20 19  2  0
 22 21  1  1
 23 22  1  0
 24 25  1  6
 24 22  1  0
 25 19  1  0
 26 24  1  0
 27 26  1  0
 28 26  2  0
M  END
$$$$
