FQV.pdb
     RDKit          3D

 28 28  0  0  1  0  0  0  0  0999 V2000
    6.0787  -15.0942   21.9216 N   0  0  0  0  0  0  0  0  0  0  0  0
    7.5376  -14.8797   21.9071 C   0  0  1  0  0  0  0  0  0  0  0  0
    7.8236  -13.4321   22.1316 C   0  0  0  0  0  0  0  0  0  0  0  0
    7.5084  -13.0287   23.5053 C   0  0  0  0  0  0  0  0  0  0  0  0
    7.7528  -11.7654   24.0048 C   0  0  0  0  0  0  0  0  0  0  0  0
    7.4234  -11.4052   25.2826 C   0  0  0  0  0  0  0  0  0  0  0  0
    6.8273  -12.3152   26.1172 C   0  0  0  0  0  0  0  0  0  0  0  0
    6.5693  -13.5897   25.6457 C   0  0  0  0  0  0  0  0  0  0  0  0
    6.9030  -13.9427   24.3627 C   0  0  0  0  0  0  0  0  0  0  0  0
    8.1142  -15.7751   22.9324 C   0  0  0  0  0  0  0  0  0  0  0  0
    7.3420  -16.3679   23.7236 O   0  0  0  0  0  0  0  0  0  0  0  0
   12.8258  -19.8014   21.8749 N   0  0  0  0  0  0  0  0  0  0  0  0
   12.9429  -19.5405   23.2591 C   0  0  0  0  0  0  0  0  0  0  0  0
   13.9198  -20.0170   23.8793 O   0  0  0  0  0  0  0  0  0  0  0  0
   11.9443  -18.7190   24.0013 C   0  0  0  0  0  0  0  0  0  0  0  0
   11.2962  -17.7027   23.1192 C   0  0  0  0  0  0  0  0  0  0  0  0
   10.2460  -16.8478   23.8314 C   0  0  2  0  0  0  0  0  0  0  0  0
    9.5164  -15.9566   23.0091 N   0  0  0  0  0  0  0  0  0  0  0  0
   10.7879  -16.3265   25.0728 C   0  0  0  0  0  0  0  0  0  0  0  0
   11.7883  -15.5502   25.0889 O   0  0  0  0  0  0  0  0  0  0  0  0
   10.3418  -14.4872   29.4506 C   0  0  0  0  0  0  0  0  0  0  0  0
    9.6696  -15.1590   28.2680 C   0  0  1  0  0  0  0  0  0  0  0  0
    9.1787  -14.0608   27.3494 C   0  0  0  0  0  0  0  0  0  0  0  0
   10.6922  -15.9871   27.5641 C   0  0  2  0  0  0  0  0  0  0  0  0
   10.2676  -16.6237   26.3705 N   0  0  0  0  0  0  0  0  0  0  0  0
   11.1906  -17.0214   28.5064 C   0  0  0  0  0  0  0  0  0  0  0  0
   12.1978  -16.7718   29.4240 O   0  0  0  0  0  0  0  0  0  0  0  0
   10.6938  -18.1744   28.4881 O   0  0  0  0  0  0  0  0  0  0  0  0
  2  1  1  1
  2  3  1  0
  3  4  1  0
  4  9  2  0
  5  4  1  0
  5  6  2  0
  6  7  1  0
  7  8  2  0
  9  8  1  0
 10  2  1  0
 10 18  1  0
 11 10  2  0
 13 15  1  0
 13 12  1  0
 14 13  2  0
 17 16  1  6
 16 15  1  0
 17 18  1  0
 19 17  1  0
 20 19  2  0
 22 21  1  1
 23 22  1  0
 24 25  1  6
 24 22  1  0
 25 19  1  0
 26 24  1  0
 27 26  1  0
 28 26  2  0
M  END
$$$$
