FQV.pdb
     RDKit          3D

 28 28  0  0  1  0  0  0  0  0999 V2000
    6.6094  -18.2853   20.2949 N   0  0  0  0  0  0  0  0  0  0  0  0
    7.2825  -17.0151   20.6239 C   0  0  1  0  0  0  0  0  0  0  0  0
    6.2973  -15.8980   20.5290 C   0  0  0  0  0  0  0  0  0  0  0  0
    6.9275  -14.6013   20.7948 C   0  0  0  0  0  0  0  0  0  0  0  0
    7.5984  -13.8683   19.8369 C   0  0  0  0  0  0  0  0  0  0  0  0
    8.1540  -12.6470   20.1032 C   0  0  0  0  0  0  0  0  0  0  0  0
    8.0537  -12.1101   21.3609 C   0  0  0  0  0  0  0  0  0  0  0  0
    7.3872  -12.8208   22.3427 C   0  0  0  0  0  0  0  0  0  0  0  0
    6.8330  -14.0450   22.0670 C   0  0  0  0  0  0  0  0  0  0  0  0
    7.8804  -17.1804   21.9658 C   0  0  0  0  0  0  0  0  0  0  0  0
    7.1923  -17.7002   22.8768 O   0  0  0  0  0  0  0  0  0  0  0  0
   12.2039  -19.7396   20.4899 N   0  0  0  0  0  0  0  0  0  0  0  0
   12.4640  -19.1681   21.7562 C   0  0  0  0  0  0  0  0  0  0  0  0
   13.6438  -18.8727   22.0506 O   0  0  0  0  0  0  0  0  0  0  0  0
   11.3825  -18.9068   22.7486 C   0  0  0  0  0  0  0  0  0  0  0  0
   11.3799  -17.4847   23.2050 C   0  0  0  0  0  0  0  0  0  0  0  0
    9.9786  -16.8981   23.3877 C   0  0  2  0  0  0  0  0  0  0  0  0
    9.2105  -16.7588   22.2073 N   0  0  0  0  0  0  0  0  0  0  0  0
   10.0277  -15.7668   24.2954 C   0  0  0  0  0  0  0  0  0  0  0  0
   10.6715  -14.7134   24.0128 O   0  0  0  0  0  0  0  0  0  0  0  0
    8.7793  -12.7324   27.7521 C   0  0  0  0  0  0  0  0  0  0  0  0
    8.3654  -13.8185   26.7768 C   0  0  1  0  0  0  0  0  0  0  0  0
    7.9403  -13.1317   25.4968 C   0  0  0  0  0  0  0  0  0  0  0  0
    9.5535  -14.6828   26.5160 C   0  0  2  0  0  0  0  0  0  0  0  0
    9.3756  -15.7205   25.5665 N   0  0  0  0  0  0  0  0  0  0  0  0
    9.9916  -15.2820   27.8027 C   0  0  0  0  0  0  0  0  0  0  0  0
   10.6697  -14.5588   28.7701 O   0  0  0  0  0  0  0  0  0  0  0  0
    9.7484  -16.4900   28.0440 O   0  0  0  0  0  0  0  0  0  0  0  0
  2  1  1  1
  2  3  1  0
  3  4  1  0
  4  9  2  0
  5  4  1  0
  5  6  2  0
  6  7  1  0
  7  8  2  0
  9  8  1  0
 10  2  1  0
 10 18  1  0
 11 10  2  0
 13 15  1  0
 13 12  1  0
 14 13  2  0
 17 16  1  6
 16 15  1  0
 17 18  1  0
 19 17  1  0
 20 19  2  0
 22 21  1  1
 23 22  1  0
 24 25  1  6
 24 22  1  0
 25 19  1  0
 26 24  1  0
 27 26  1  0
 28 26  2  0
M  END
$$$$
