GMA.pdb
     RDKit          3D

 18 17  0  0  1  0  0  0  0  0999 V2000
    8.1642  -12.9689   19.2923 N   0  0  0  0  0  0  0  0  0  0  0  0
    7.2920  -13.6513   20.2127 C   0  0  0  0  0  0  0  0  0  0  0  0
    7.9330  -13.7900   21.5634 C   0  0  0  0  0  0  0  0  0  0  0  0
    9.1668  -13.5603   21.6772 O   0  0  0  0  0  0  0  0  0  0  0  0
    6.5020  -10.3732   27.2236 C   0  0  0  0  0  0  0  0  0  0  0  0
    6.5882  -12.1753   27.0525 S   0  0  0  0  0  0  0  0  0  0  0  0
    6.6917  -12.5580   25.2782 C   0  0  0  0  0  0  0  0  0  0  0  0
    6.8326  -14.0312   25.0804 C   0  0  0  0  0  0  0  0  0  0  0  0
    7.8061  -14.3766   23.9860 C   0  0  2  0  0  0  0  0  0  0  0  0
    7.1629  -14.1731   22.6916 N   0  0  0  0  0  0  0  0  0  0  0  0
    8.3240  -15.7502   24.0525 C   0  0  0  0  0  0  0  0  0  0  0  0
    7.5792  -16.7444   23.9284 O   0  0  0  0  0  0  0  0  0  0  0  0
   11.3907  -17.5315   23.4884 C   0  0  0  0  0  0  0  0  0  0  0  0
   10.1940  -17.3259   24.4024 C   0  0  2  0  0  0  0  0  0  0  0  0
    9.7316  -15.9797   24.2668 N   0  0  0  0  0  0  0  0  0  0  0  0
   10.5450  -17.6022   25.8038 C   0  0  0  0  0  0  0  0  0  0  0  0
   11.0179  -18.7149   26.1220 O   0  0  0  0  0  0  0  0  0  0  0  0
   10.3808  -16.6776   26.8345 O   0  0  0  0  0  0  0  0  0  0  0  0
  1  2  1  0
  2  3  1  0
  3  4  2  0
  6  5  1  0
  7  6  1  0
  7  8  1  0
  9  8  1  1
 10  9  1  0
 10  3  1  0
 11 15  1  0
 11  9  1  0
 12 11  2  0
 14 13  1  6
 14 15  1  0
 16 14  1  0
 16 18  1  0
 17 16  2  0
M  END
$$$$
