GMA.pdb
     RDKit          3D

 18 17  0  0  1  0  0  0  0  0999 V2000
    8.0915  -16.4290   19.0138 N   0  0  0  0  0  0  0  0  0  0  0  0
    7.2060  -16.3245   20.1446 C   0  0  0  0  0  0  0  0  0  0  0  0
    7.8854  -15.6532   21.3033 C   0  0  0  0  0  0  0  0  0  0  0  0
    9.1264  -15.4435   21.2418 O   0  0  0  0  0  0  0  0  0  0  0  0
    7.1211  -11.5004   27.9197 C   0  0  0  0  0  0  0  0  0  0  0  0
    6.2570  -12.3448   26.5689 S   0  0  0  0  0  0  0  0  0  0  0  0
    7.4889  -13.3068   25.6403 C   0  0  0  0  0  0  0  0  0  0  0  0
    6.8553  -13.9218   24.4362 C   0  0  0  0  0  0  0  0  0  0  0  0
    7.8276  -14.7321   23.6222 C   0  0  2  0  0  0  0  0  0  0  0  0
    7.1429  -15.2619   22.4470 N   0  0  0  0  0  0  0  0  0  0  0  0
    8.4476  -15.8438   24.3566 C   0  0  0  0  0  0  0  0  0  0  0  0
    7.7738  -16.7858   24.8225 O   0  0  0  0  0  0  0  0  0  0  0  0
   11.8662  -17.2104   24.5463 C   0  0  0  0  0  0  0  0  0  0  0  0
   10.4698  -17.0388   25.1212 C   0  0  2  0  0  0  0  0  0  0  0  0
    9.8757  -15.8672   24.5567 N   0  0  0  0  0  0  0  0  0  0  0  0
   10.5110  -16.9297   26.5874 C   0  0  0  0  0  0  0  0  0  0  0  0
   10.9604  -17.8743   27.2721 O   0  0  0  0  0  0  0  0  0  0  0  0
   10.0687  -15.8082   27.2879 O   0  0  0  0  0  0  0  0  0  0  0  0
  1  2  1  0
  2  3  1  0
  3  4  2  0
  6  5  1  0
  7  6  1  0
  7  8  1  0
  9  8  1  1
 10  9  1  0
 10  3  1  0
 11 15  1  0
 11  9  1  0
 12 11  2  0
 14 13  1  6
 14 15  1  0
 16 14  1  0
 16 18  1  0
 17 16  2  0
M  END
$$$$
