GMA.pdb
     RDKit          3D

 18 17  0  0  1  0  0  0  0  0999 V2000
    8.0622  -15.8597   18.9244 N   0  0  0  0  0  0  0  0  0  0  0  0
    7.1367  -15.7005   20.0160 C   0  0  0  0  0  0  0  0  0  0  0  0
    7.8457  -15.2709   21.2680 C   0  0  0  0  0  0  0  0  0  0  0  0
    9.1055  -15.2876   21.2893 O   0  0  0  0  0  0  0  0  0  0  0  0
    7.2934  -11.3264   28.0330 C   0  0  0  0  0  0  0  0  0  0  0  0
    6.4049  -11.9859   26.5979 S   0  0  0  0  0  0  0  0  0  0  0  0
    7.5559  -13.0484   25.6752 C   0  0  0  0  0  0  0  0  0  0  0  0
    6.9037  -13.5460   24.4275 C   0  0  0  0  0  0  0  0  0  0  0  0
    7.8063  -14.4404   23.6212 C   0  0  2  0  0  0  0  0  0  0  0  0
    7.1098  -14.8536   22.4068 N   0  0  0  0  0  0  0  0  0  0  0  0
    8.2663  -15.6369   24.3398 C   0  0  0  0  0  0  0  0  0  0  0  0
    7.4809  -16.5442   24.6839 O   0  0  0  0  0  0  0  0  0  0  0  0
   11.3993  -17.4432   24.5648 C   0  0  0  0  0  0  0  0  0  0  0  0
   10.1034  -17.0225   25.2382 C   0  0  2  0  0  0  0  0  0  0  0  0
    9.6626  -15.7878   24.6674 N   0  0  0  0  0  0  0  0  0  0  0  0
   10.2859  -16.8728   26.6900 C   0  0  0  0  0  0  0  0  0  0  0  0
   10.1799  -15.7456   27.2204 O   0  0  0  0  0  0  0  0  0  0  0  0
   10.5787  -17.9369   27.5421 O   0  0  0  0  0  0  0  0  0  0  0  0
  1  2  1  0
  2  3  1  0
  3  4  2  0
  6  5  1  0
  7  6  1  0
  7  8  1  0
  9  8  1  1
 10  9  1  0
 10  3  1  0
 11 15  1  0
 11  9  1  0
 12 11  2  0
 14 13  1  6
 14 15  1  0
 16 14  1  0
 16 18  1  0
 17 16  2  0
M  END
$$$$
