GMA.pdb
     RDKit          3D

 18 17  0  0  1  0  0  0  0  0999 V2000
    5.1867  -19.3894   21.5619 N   0  0  0  0  0  0  0  0  0  0  0  0
    5.2278  -18.9828   22.9427 C   0  0  0  0  0  0  0  0  0  0  0  0
    6.1644  -17.8255   23.1381 C   0  0  0  0  0  0  0  0  0  0  0  0
    6.9968  -17.5573   22.2309 O   0  0  0  0  0  0  0  0  0  0  0  0
    7.7655  -11.2453   27.0989 C   0  0  0  0  0  0  0  0  0  0  0  0
    6.6531  -12.6658   26.9291 S   0  0  0  0  0  0  0  0  0  0  0  0
    7.4351  -13.8475   25.7900 C   0  0  0  0  0  0  0  0  0  0  0  0
    6.5077  -14.9858   25.5184 C   0  0  0  0  0  0  0  0  0  0  0  0
    7.0816  -15.9785   24.5439 C   0  0  2  0  0  0  0  0  0  0  0  0
    6.1127  -17.0477   24.3233 N   0  0  0  0  0  0  0  0  0  0  0  0
    8.3583  -16.5697   24.9684 C   0  0  0  0  0  0  0  0  0  0  0  0
    8.4249  -17.4045   25.8943 O   0  0  0  0  0  0  0  0  0  0  0  0
   11.7262  -16.7230   23.3674 C   0  0  0  0  0  0  0  0  0  0  0  0
   10.7425  -17.0051   24.4910 C   0  0  2  0  0  0  0  0  0  0  0  0
    9.5831  -16.1882   24.3095 N   0  0  0  0  0  0  0  0  0  0  0  0
   11.3490  -16.7392   25.8044 C   0  0  0  0  0  0  0  0  0  0  0  0
   12.3523  -17.3880   26.1723 O   0  0  0  0  0  0  0  0  0  0  0  0
   10.8652  -15.7820   26.6953 O   0  0  0  0  0  0  0  0  0  0  0  0
  1  2  1  0
  2  3  1  0
  3  4  2  0
  6  5  1  0
  7  6  1  0
  7  8  1  0
  9  8  1  1
 10  9  1  0
 10  3  1  0
 11 15  1  0
 11  9  1  0
 12 11  2  0
 14 13  1  6
 14 15  1  0
 16 14  1  0
 16 18  1  0
 17 16  2  0
M  END
$$$$
