GMA.pdb
     RDKit          3D

 18 17  0  0  1  0  0  0  0  0999 V2000
    7.4650  -19.6559   18.4827 N   0  0  0  0  0  0  0  0  0  0  0  0
    7.1563  -18.7518   19.5601 C   0  0  0  0  0  0  0  0  0  0  0  0
    8.3435  -17.9012   19.9093 C   0  0  0  0  0  0  0  0  0  0  0  0
    9.4481  -18.1414   19.3527 O   0  0  0  0  0  0  0  0  0  0  0  0
    7.2525  -12.3132   22.5787 C   0  0  0  0  0  0  0  0  0  0  0  0
    7.6195  -12.2769   20.8044 S   0  0  0  0  0  0  0  0  0  0  0  0
    8.1810  -13.9373   20.3217 C   0  0  0  0  0  0  0  0  0  0  0  0
    8.8626  -14.6010   21.4726 C   0  0  0  0  0  0  0  0  0  0  0  0
    9.3631  -15.9785   21.1311 C   0  0  2  0  0  0  0  0  0  0  0  0
    8.2232  -16.8457   20.8495 N   0  0  0  0  0  0  0  0  0  0  0  0
   10.1872  -16.5965   22.1791 C   0  0  0  0  0  0  0  0  0  0  0  0
    9.7375  -16.8354   23.3189 O   0  0  0  0  0  0  0  0  0  0  0  0
   12.7741  -18.9341   22.4842 C   0  0  0  0  0  0  0  0  0  0  0  0
   12.3331  -17.5535   22.9416 C   0  0  2  0  0  0  0  0  0  0  0  0
   11.5592  -16.9455   21.9043 N   0  0  0  0  0  0  0  0  0  0  0  0
   13.4921  -16.7096   23.2699 C   0  0  0  0  0  0  0  0  0  0  0  0
   14.2396  -17.0177   24.2235 O   0  0  0  0  0  0  0  0  0  0  0  0
   13.8244  -15.5521   22.5670 O   0  0  0  0  0  0  0  0  0  0  0  0
  1  2  1  0
  2  3  1  0
  3  4  2  0
  6  5  1  0
  7  6  1  0
  7  8  1  0
  9  8  1  1
 10  9  1  0
 10  3  1  0
 11 15  1  0
 11  9  1  0
 12 11  2  0
 14 13  1  6
 14 15  1  0
 16 14  1  0
 16 18  1  0
 17 16  2  0
M  END
$$$$
