KFK.pdb
     RDKit          3D

 30 30  0  0  1  0  0  0  0  0999 V2000
    7.8101  -16.4810   19.5284 N   0  0  0  0  0  0  0  0  0  0  0  0
    9.1513  -15.9673   19.7879 C   0  0  1  0  0  0  0  0  0  0  0  0
    9.4081  -14.9094   18.7603 C   0  0  0  0  0  0  0  0  0  0  0  0
    8.6004  -15.0399   17.4967 C   0  0  0  0  0  0  0  0  0  0  0  0
    8.9643  -13.9346   16.4983 C   0  0  0  0  0  0  0  0  0  0  0  0
    8.1784  -14.0656   15.2165 C   0  0  0  0  0  0  0  0  0  0  0  0
    8.5737  -12.9694   14.3364 N   0  0  0  0  0  0  0  0  0  0  0  0
    9.2814  -15.4436   21.1394 C   0  0  0  0  0  0  0  0  0  0  0  0
   10.4009  -15.0086   21.5509 O   0  0  0  0  0  0  0  0  0  0  0  0
    8.2424  -15.3645   22.0956 N   0  0  0  0  0  0  0  0  0  0  0  0
    8.4160  -14.7947   23.4319 C   0  0  1  0  0  0  0  0  0  0  0  0
    7.2287  -13.9384   23.7183 C   0  0  0  0  0  0  0  0  0  0  0  0
    7.2606  -13.3053   25.0546 C   0  0  0  0  0  0  0  0  0  0  0  0
    8.1720  -12.2837   25.2933 C   0  0  0  0  0  0  0  0  0  0  0  0
    8.2046  -11.6659   26.5192 C   0  0  0  0  0  0  0  0  0  0  0  0
    7.3520  -12.0284   27.5379 C   0  0  0  0  0  0  0  0  0  0  0  0
    6.4490  -13.0354   27.3128 C   0  0  0  0  0  0  0  0  0  0  0  0
    6.4086  -13.6722   26.0643 C   0  0  0  0  0  0  0  0  0  0  0  0
    8.7037  -15.8415   24.4205 C   0  0  0  0  0  0  0  0  0  0  0  0
    7.9107  -16.8302   24.4752 O   0  0  0  0  0  0  0  0  0  0  0  0
    9.8259  -15.8005   25.3212 N   0  0  0  0  0  0  0  0  0  0  0  0
   10.1604  -16.9940   26.0235 C   0  0  1  0  0  0  0  0  0  0  0  0
   11.4002  -17.6756   25.4887 C   0  0  0  0  0  0  0  0  0  0  0  0
   11.7369  -18.9171   26.2704 C   0  0  0  0  0  0  0  0  0  0  0  0
   12.9743  -19.5369   25.6718 C   0  0  0  0  0  0  0  0  0  0  0  0
   13.3816  -20.8260   26.3588 C   0  0  0  0  0  0  0  0  0  0  0  0
   14.5594  -21.3067   25.6585 N   0  0  0  0  0  0  0  0  0  0  0  0
   10.3602  -16.7261   27.5058 C   0  0  0  0  0  0  0  0  0  0  0  0
   10.3120  -15.5601   27.9473 O   0  0  0  0  0  0  0  0  0  0  0  0
   10.5880  -17.8254   28.3004 O   0  0  0  0  0  0  0  0  0  0  0  0
  2  3  1  0
  2  1  1  1
  4  3  1  0
  5  4  1  0
  6  5  1  0
  7  6  1  0
  8 10  1  0
  8  2  1  0
  9  8  2  0
 11 10  1  0
 11 12  1  1
 12 13  1  0
 13 18  2  0
 14 15  2  0
 14 13  1  0
 15 16  1  0
 16 17  2  0
 18 17  1  0
 19 20  2  0
 19 11  1  0
 21 19  1  0
 22 28  1  0
 22 21  1  0
 22 23  1  6
 24 23  1  0
 25 24  1  0
 26 27  1  0
 26 25  1  0
 28 30  1  0
 29 28  2  0
M  END
$$$$
