KFK.pdb
     RDKit          3D

 30 30  0  0  1  0  0  0  0  0999 V2000
    7.8415  -16.6061   19.5842 N   0  0  0  0  0  0  0  0  0  0  0  0
    9.0427  -15.7976   19.7671 C   0  0  1  0  0  0  0  0  0  0  0  0
    9.0041  -14.7337   18.7147 C   0  0  0  0  0  0  0  0  0  0  0  0
    8.7750  -15.2328   17.3131 C   0  0  0  0  0  0  0  0  0  0  0  0
    8.8718  -14.0850   16.3011 C   0  0  0  0  0  0  0  0  0  0  0  0
    8.5134  -14.5431   14.9084 C   0  0  0  0  0  0  0  0  0  0  0  0
    8.5175  -13.3706   14.0379 N   0  0  0  0  0  0  0  0  0  0  0  0
    9.1157  -15.2263   21.1035 C   0  0  0  0  0  0  0  0  0  0  0  0
   10.1772  -14.6500   21.4948 O   0  0  0  0  0  0  0  0  0  0  0  0
    8.0793  -15.2462   22.0656 N   0  0  0  0  0  0  0  0  0  0  0  0
    8.2367  -14.7502   23.4329 C   0  0  1  0  0  0  0  0  0  0  0  0
    7.0384  -13.9230   23.7568 C   0  0  0  0  0  0  0  0  0  0  0  0
    7.0351  -13.3967   25.1391 C   0  0  0  0  0  0  0  0  0  0  0  0
    7.8490  -12.3135   25.4483 C   0  0  0  0  0  0  0  0  0  0  0  0
    7.8457  -11.7937   26.7192 C   0  0  0  0  0  0  0  0  0  0  0  0
    7.0512  -12.3159   27.7153 C   0  0  0  0  0  0  0  0  0  0  0  0
    6.2446  -13.3848   27.4207 C   0  0  0  0  0  0  0  0  0  0  0  0
    6.2415  -13.9226   26.1258 C   0  0  0  0  0  0  0  0  0  0  0  0
    8.5275  -15.8477   24.3640 C   0  0  0  0  0  0  0  0  0  0  0  0
    7.6632  -16.7699   24.4715 O   0  0  0  0  0  0  0  0  0  0  0  0
    9.7291  -15.9264   25.1528 N   0  0  0  0  0  0  0  0  0  0  0  0
    9.9045  -17.0674   25.9877 C   0  0  1  0  0  0  0  0  0  0  0  0
   11.0246  -17.9759   25.5322 C   0  0  0  0  0  0  0  0  0  0  0  0
   10.9478  -18.2613   24.0562 C   0  0  0  0  0  0  0  0  0  0  0  0
   12.1027  -19.1560   23.6825 C   0  0  0  0  0  0  0  0  0  0  0  0
   12.1806  -19.4299   22.1931 C   0  0  0  0  0  0  0  0  0  0  0  0
   13.4079  -20.1762   21.9795 N   0  0  0  0  0  0  0  0  0  0  0  0
   10.1684  -16.6634   27.4285 C   0  0  0  0  0  0  0  0  0  0  0  0
   10.3234  -15.4620   27.7275 O   0  0  0  0  0  0  0  0  0  0  0  0
   10.2200  -17.6834   28.3497 O   0  0  0  0  0  0  0  0  0  0  0  0
  2  3  1  0
  2  1  1  1
  4  3  1  0
  5  4  1  0
  6  5  1  0
  7  6  1  0
  8 10  1  0
  8  2  1  0
  9  8  2  0
 11 10  1  0
 11 12  1  1
 12 13  1  0
 13 18  2  0
 14 15  2  0
 14 13  1  0
 15 16  1  0
 16 17  2  0
 18 17  1  0
 19 20  2  0
 19 11  1  0
 21 19  1  0
 22 28  1  0
 22 21  1  0
 22 23  1  6
 24 23  1  0
 25 24  1  0
 26 27  1  0
 26 25  1  0
 28 30  1  0
 29 28  2  0
M  END
$$$$
