KFK.pdb
     RDKit          3D

 30 30  0  0  1  0  0  0  0  0999 V2000
   10.1723  -16.4193   19.2686 N   0  0  0  0  0  0  0  0  0  0  0  0
    9.0204  -16.6725   20.1281 C   0  0  1  0  0  0  0  0  0  0  0  0
    8.8987  -18.1595   20.2500 C   0  0  0  0  0  0  0  0  0  0  0  0
    8.8340  -18.9022   18.9422 C   0  0  0  0  0  0  0  0  0  0  0  0
    8.5581  -20.3927   19.1728 C   0  0  0  0  0  0  0  0  0  0  0  0
    8.4294  -21.1402   17.8679 C   0  0  0  0  0  0  0  0  0  0  0  0
    8.2422  -22.5545   18.1801 N   0  0  0  0  0  0  0  0  0  0  0  0
    9.1632  -16.0386   21.4302 C   0  0  0  0  0  0  0  0  0  0  0  0
   10.2506  -16.1452   22.0769 O   0  0  0  0  0  0  0  0  0  0  0  0
    8.1694  -15.2786   22.0898 N   0  0  0  0  0  0  0  0  0  0  0  0
    8.3474  -14.6975   23.4206 C   0  0  1  0  0  0  0  0  0  0  0  0
    7.1960  -13.7840   23.6751 C   0  0  0  0  0  0  0  0  0  0  0  0
    7.1837  -13.2079   25.0373 C   0  0  0  0  0  0  0  0  0  0  0  0
    8.3549  -13.2242   25.7850 C   0  0  0  0  0  0  0  0  0  0  0  0
    8.3732  -12.6750   27.0435 C   0  0  0  0  0  0  0  0  0  0  0  0
    7.2535  -12.0988   27.6006 C   0  0  0  0  0  0  0  0  0  0  0  0
    6.0927  -12.0778   26.8712 C   0  0  0  0  0  0  0  0  0  0  0  0
    6.0644  -12.6363   25.5855 C   0  0  0  0  0  0  0  0  0  0  0  0
    8.5710  -15.7416   24.4285 C   0  0  0  0  0  0  0  0  0  0  0  0
    7.6732  -16.6274   24.5643 O   0  0  0  0  0  0  0  0  0  0  0  0
    9.7431  -15.8072   25.2616 N   0  0  0  0  0  0  0  0  0  0  0  0
    9.9768  -17.0095   25.9893 C   0  0  1  0  0  0  0  0  0  0  0  0
   11.1193  -17.8317   25.4358 C   0  0  0  0  0  0  0  0  0  0  0  0
   11.3338  -19.0945   26.2265 C   0  0  0  0  0  0  0  0  0  0  0  0
   12.4552  -19.8733   25.5867 C   0  0  0  0  0  0  0  0  0  0  0  0
   12.7688  -21.1655   26.3158 C   0  0  0  0  0  0  0  0  0  0  0  0
   13.8505  -21.7964   25.5804 N   0  0  0  0  0  0  0  0  0  0  0  0
   10.2559  -16.7235   27.4553 C   0  0  0  0  0  0  0  0  0  0  0  0
   10.9002  -15.7079   27.7874 O   0  0  0  0  0  0  0  0  0  0  0  0
    9.7615  -17.6333   28.3605 O   0  0  0  0  0  0  0  0  0  0  0  0
  2  3  1  0
  2  1  1  6
  4  3  1  0
  5  4  1  0
  6  5  1  0
  7  6  1  0
  8 10  1  0
  8  2  1  0
  9  8  2  0
 11 10  1  0
 11 12  1  1
 12 13  1  0
 13 18  2  0
 14 15  2  0
 14 13  1  0
 15 16  1  0
 16 17  2  0
 18 17  1  0
 19 20  2  0
 19 11  1  0
 21 19  1  0
 22 28  1  0
 22 21  1  0
 22 23  1  6
 24 23  1  0
 25 24  1  0
 26 27  1  0
 26 25  1  0
 28 30  1  0
 29 28  2  0
M  END
$$$$
