KFK.pdb
     RDKit          3D

 30 30  0  0  1  0  0  0  0  0999 V2000
    7.9414  -16.5432   19.5310 N   0  0  0  0  0  0  0  0  0  0  0  0
    9.2614  -15.9945   19.8249 C   0  0  1  0  0  0  0  0  0  0  0  0
    9.5208  -14.9362   18.7984 C   0  0  0  0  0  0  0  0  0  0  0  0
    8.5620  -14.9264   17.6379 C   0  0  0  0  0  0  0  0  0  0  0  0
    8.9065  -13.8026   16.6533 C   0  0  0  0  0  0  0  0  0  0  0  0
    7.8528  -13.6630   15.5818 C   0  0  0  0  0  0  0  0  0  0  0  0
    8.2599  -12.5774   14.6940 N   0  0  0  0  0  0  0  0  0  0  0  0
    9.3401  -15.4603   21.1763 C   0  0  0  0  0  0  0  0  0  0  0  0
   10.4207  -14.9433   21.5969 O   0  0  0  0  0  0  0  0  0  0  0  0
    8.2894  -15.4564   22.1228 N   0  0  0  0  0  0  0  0  0  0  0  0
    8.4177  -14.9004   23.4700 C   0  0  1  0  0  0  0  0  0  0  0  0
    7.1562  -14.1679   23.7812 C   0  0  0  0  0  0  0  0  0  0  0  0
    7.1474  -13.5412   25.1209 C   0  0  0  0  0  0  0  0  0  0  0  0
    6.3760  -14.1127   26.1257 C   0  0  0  0  0  0  0  0  0  0  0  0
    6.3698  -13.5614   27.3833 C   0  0  0  0  0  0  0  0  0  0  0  0
    7.1133  -12.4436   27.6899 C   0  0  0  0  0  0  0  0  0  0  0  0
    7.8777  -11.8719   26.7056 C   0  0  0  0  0  0  0  0  0  0  0  0
    7.8901  -12.4276   25.4184 C   0  0  0  0  0  0  0  0  0  0  0  0
    8.8116  -15.9351   24.4344 C   0  0  0  0  0  0  0  0  0  0  0  0
    8.1408  -17.0117   24.4461 O   0  0  0  0  0  0  0  0  0  0  0  0
    9.9065  -15.7889   25.3576 N   0  0  0  0  0  0  0  0  0  0  0  0
   10.3251  -16.9416   26.0827 C   0  0  1  0  0  0  0  0  0  0  0  0
   11.4400  -17.7043   25.4024 C   0  0  0  0  0  0  0  0  0  0  0  0
   11.8206  -18.9417   26.1704 C   0  0  0  0  0  0  0  0  0  0  0  0
   12.8897  -19.6726   25.3981 C   0  0  0  0  0  0  0  0  0  0  0  0
   13.2640  -21.0035   26.0213 C   0  0  0  0  0  0  0  0  0  0  0  0
   14.3152  -20.7220   26.9829 N   0  0  0  0  0  0  0  0  0  0  0  0
   10.7779  -16.5777   27.4867 C   0  0  0  0  0  0  0  0  0  0  0  0
   10.8634  -15.3815   27.8308 O   0  0  0  0  0  0  0  0  0  0  0  0
   11.0748  -17.6274   28.3244 O   0  0  0  0  0  0  0  0  0  0  0  0
  2  3  1  0
  2  1  1  6
  4  3  1  0
  5  4  1  0
  6  5  1  0
  7  6  1  0
  8 10  1  0
  8  2  1  0
  9  8  2  0
 11 10  1  0
 11 12  1  1
 12 13  1  0
 13 18  2  0
 14 15  2  0
 14 13  1  0
 15 16  1  0
 16 17  2  0
 18 17  1  0
 19 20  2  0
 19 11  1  0
 21 19  1  0
 22 28  1  0
 22 21  1  0
 22 23  1  6
 24 23  1  0
 25 24  1  0
 26 27  1  0
 26 25  1  0
 28 30  1  0
 29 28  2  0
M  END
$$$$
