KFK.pdb
     RDKit          3D

 30 30  0  0  1  0  0  0  0  0999 V2000
    9.8775  -16.6157   19.3763 N   0  0  0  0  0  0  0  0  0  0  0  0
    9.3553  -17.2505   20.5822 C   0  0  1  0  0  0  0  0  0  0  0  0
   10.1771  -18.4817   20.8053 C   0  0  0  0  0  0  0  0  0  0  0  0
    9.4519  -19.7811   20.5776 C   0  0  0  0  0  0  0  0  0  0  0  0
    9.0783  -20.4398   21.9107 C   0  0  0  0  0  0  0  0  0  0  0  0
    8.4935  -21.8157   21.7037 C   0  0  0  0  0  0  0  0  0  0  0  0
    8.0334  -22.3050   23.0004 N   0  0  0  0  0  0  0  0  0  0  0  0
    9.4040  -16.3589   21.7312 C   0  0  0  0  0  0  0  0  0  0  0  0
   10.5111  -15.8678   22.1124 O   0  0  0  0  0  0  0  0  0  0  0  0
    8.2943  -15.9606   22.5123 N   0  0  0  0  0  0  0  0  0  0  0  0
    8.3994  -15.0769   23.6736 C   0  0  1  0  0  0  0  0  0  0  0  0
    7.1290  -14.3011   23.7704 C   0  0  0  0  0  0  0  0  0  0  0  0
    7.0293  -13.4734   24.9921 C   0  0  0  0  0  0  0  0  0  0  0  0
    7.8001  -12.3211   25.0886 C   0  0  0  0  0  0  0  0  0  0  0  0
    7.7074  -11.5251   26.2037 C   0  0  0  0  0  0  0  0  0  0  0  0
    6.8637  -11.8329   27.2476 C   0  0  0  0  0  0  0  0  0  0  0  0
    6.0990  -12.9677   27.1624 C   0  0  0  0  0  0  0  0  0  0  0  0
    6.1871  -13.7868   26.0278 C   0  0  0  0  0  0  0  0  0  0  0  0
    8.7849  -15.8263   24.8760 C   0  0  0  0  0  0  0  0  0  0  0  0
    8.0770  -16.8298   25.1935 O   0  0  0  0  0  0  0  0  0  0  0  0
    9.9113  -15.4810   25.7033 N   0  0  0  0  0  0  0  0  0  0  0  0
   10.3130  -16.4119   26.7041 C   0  0  1  0  0  0  0  0  0  0  0  0
   11.7313  -16.9064   26.5269 C   0  0  0  0  0  0  0  0  0  0  0  0
   11.7768  -18.2287   25.8090 C   0  0  0  0  0  0  0  0  0  0  0  0
   12.9931  -18.2462   24.9179 C   0  0  0  0  0  0  0  0  0  0  0  0
   13.1226  -19.5287   24.1191 C   0  0  0  0  0  0  0  0  0  0  0  0
   14.2570  -19.3435   23.2316 N   0  0  0  0  0  0  0  0  0  0  0  0
   10.1808  -15.8185   28.0967 C   0  0  0  0  0  0  0  0  0  0  0  0
    9.7806  -14.6463   28.2465 O   0  0  0  0  0  0  0  0  0  0  0  0
   10.5206  -16.6402   29.1460 O   0  0  0  0  0  0  0  0  0  0  0  0
  2  3  1  0
  2  1  1  6
  4  3  1  0
  5  4  1  0
  6  5  1  0
  7  6  1  0
  8 10  1  0
  8  2  1  0
  9  8  2  0
 11 10  1  0
 11 12  1  1
 12 13  1  0
 13 18  2  0
 14 15  2  0
 14 13  1  0
 15 16  1  0
 16 17  2  0
 18 17  1  0
 19 20  2  0
 19 11  1  0
 21 19  1  0
 22 28  1  0
 22 21  1  0
 22 23  1  6
 24 23  1  0
 25 24  1  0
 26 27  1  0
 26 25  1  0
 28 30  1  0
 29 28  2  0
M  END
$$$$
