KFK.pdb
     RDKit          3D

 30 30  0  0  1  0  0  0  0  0999 V2000
    7.6284  -16.4202   19.4601 N   0  0  0  0  0  0  0  0  0  0  0  0
    8.9046  -15.7413   19.6608 C   0  0  1  0  0  0  0  0  0  0  0  0
    8.9527  -14.6227   18.6671 C   0  0  0  0  0  0  0  0  0  0  0  0
    8.4384  -14.9676   17.2950 C   0  0  0  0  0  0  0  0  0  0  0  0
    8.7494  -13.8463   16.2965 C   0  0  0  0  0  0  0  0  0  0  0  0
    8.2942  -14.2042   14.9027 C   0  0  0  0  0  0  0  0  0  0  0  0
    8.5966  -13.0730   14.0300 N   0  0  0  0  0  0  0  0  0  0  0  0
    9.0528  -15.2533   21.0237 C   0  0  0  0  0  0  0  0  0  0  0  0
   10.1477  -14.7322   21.4002 O   0  0  0  0  0  0  0  0  0  0  0  0
    8.0586  -15.3010   22.0284 N   0  0  0  0  0  0  0  0  0  0  0  0
    8.2512  -14.7779   23.3811 C   0  0  1  0  0  0  0  0  0  0  0  0
    7.0407  -13.9823   23.7371 C   0  0  0  0  0  0  0  0  0  0  0  0
    7.1039  -13.3738   25.0836 C   0  0  0  0  0  0  0  0  0  0  0  0
    6.2011  -13.7920   26.0538 C   0  0  0  0  0  0  0  0  0  0  0  0
    6.2553  -13.2574   27.3175 C   0  0  0  0  0  0  0  0  0  0  0  0
    7.1881  -12.3056   27.6639 C   0  0  0  0  0  0  0  0  0  0  0  0
    8.0834  -11.8859   26.7140 C   0  0  0  0  0  0  0  0  0  0  0  0
    8.0355  -12.4259   25.4209 C   0  0  0  0  0  0  0  0  0  0  0  0
    8.6103  -15.8505   24.3173 C   0  0  0  0  0  0  0  0  0  0  0  0
    7.7990  -16.8178   24.4399 O   0  0  0  0  0  0  0  0  0  0  0  0
    9.8216  -15.8570   25.0952 N   0  0  0  0  0  0  0  0  0  0  0  0
   10.0768  -16.9893   25.9213 C   0  0  1  0  0  0  0  0  0  0  0  0
   11.3235  -17.7493   25.5267 C   0  0  0  0  0  0  0  0  0  0  0  0
   11.0023  -19.1387   25.0449 C   0  0  0  0  0  0  0  0  0  0  0  0
   12.2901  -19.8167   24.6507 C   0  0  0  0  0  0  0  0  0  0  0  0
   12.0876  -21.2451   24.1836 C   0  0  0  0  0  0  0  0  0  0  0  0
   13.4076  -21.7621   23.8684 N   0  0  0  0  0  0  0  0  0  0  0  0
   10.1980  -16.5917   27.3828 C   0  0  0  0  0  0  0  0  0  0  0  0
   10.1090  -15.3935   27.7191 O   0  0  0  0  0  0  0  0  0  0  0  0
   10.4038  -17.6142   28.2793 O   0  0  0  0  0  0  0  0  0  0  0  0
  2  3  1  0
  2  1  1  1
  4  3  1  0
  5  4  1  0
  6  5  1  0
  7  6  1  0
  8 10  1  0
  8  2  1  0
  9  8  2  0
 11 10  1  0
 11 12  1  1
 12 13  1  0
 13 18  2  0
 14 15  2  0
 14 13  1  0
 15 16  1  0
 16 17  2  0
 18 17  1  0
 19 20  2  0
 19 11  1  0
 21 19  1  0
 22 28  1  0
 22 21  1  0
 22 23  1  6
 24 23  1  0
 25 24  1  0
 26 27  1  0
 26 25  1  0
 28 30  1  0
 29 28  2  0
M  END
$$$$
