KFK.pdb
     RDKit          3D

 30 30  0  0  1  0  0  0  0  0999 V2000
    7.7607  -16.4313   19.3933 N   0  0  0  0  0  0  0  0  0  0  0  0
    8.5559  -15.2085   19.3461 C   0  0  1  0  0  0  0  0  0  0  0  0
    7.8556  -14.2813   18.4023 C   0  0  0  0  0  0  0  0  0  0  0  0
    7.4561  -14.8944   17.0868 C   0  0  0  0  0  0  0  0  0  0  0  0
    8.1017  -14.1447   15.9155 C   0  0  0  0  0  0  0  0  0  0  0  0
    7.7566  -14.7830   14.5920 C   0  0  0  0  0  0  0  0  0  0  0  0
    8.4638  -14.0504   13.5452 N   0  0  0  0  0  0  0  0  0  0  0  0
    8.7148  -14.6115   20.6637 C   0  0  0  0  0  0  0  0  0  0  0  0
    9.3614  -13.5274   20.8002 O   0  0  0  0  0  0  0  0  0  0  0  0
    8.2025  -15.1364   21.8730 N   0  0  0  0  0  0  0  0  0  0  0  0
    8.3865  -14.4940   23.1745 C   0  0  1  0  0  0  0  0  0  0  0  0
    7.0341  -14.2131   23.7376 C   0  0  0  0  0  0  0  0  0  0  0  0
    7.0659  -13.5077   25.0373 C   0  0  0  0  0  0  0  0  0  0  0  0
    7.4829  -12.1826   25.0733 C   0  0  0  0  0  0  0  0  0  0  0  0
    7.4993  -11.5006   26.2651 C   0  0  0  0  0  0  0  0  0  0  0  0
    7.1104  -12.0928   27.4459 C   0  0  0  0  0  0  0  0  0  0  0  0
    6.6974  -13.3999   27.4213 C   0  0  0  0  0  0  0  0  0  0  0  0
    6.6776  -14.1044   26.2092 C   0  0  0  0  0  0  0  0  0  0  0  0
    9.2855  -15.2789   24.0298 C   0  0  0  0  0  0  0  0  0  0  0  0
    9.0685  -16.5254   24.1207 O   0  0  0  0  0  0  0  0  0  0  0  0
   10.3860  -14.7102   24.7633 N   0  0  0  0  0  0  0  0  0  0  0  0
   11.1494  -15.5767   25.5974 C   0  0  1  0  0  0  0  0  0  0  0  0
   10.5590  -15.7512   26.9789 C   0  0  0  0  0  0  0  0  0  0  0  0
   11.3827  -16.6844   27.8253 C   0  0  0  0  0  0  0  0  0  0  0  0
   10.7683  -16.7489   29.2008 C   0  0  0  0  0  0  0  0  0  0  0  0
   11.5051  -17.6900   30.1341 C   0  0  0  0  0  0  0  0  0  0  0  0
   10.8982  -17.5242   31.4429 N   0  0  0  0  0  0  0  0  0  0  0  0
   11.3124  -16.9496   24.9669 C   0  0  0  0  0  0  0  0  0  0  0  0
   12.4394  -17.4798   24.8947 O   0  0  0  0  0  0  0  0  0  0  0  0
   10.1654  -17.5473   24.4990 O   0  0  0  0  0  0  0  0  0  0  0  0
  2  3  1  0
  2  1  1  1
  4  3  1  0
  5  4  1  0
  6  5  1  0
  7  6  1  0
  8 10  1  0
  8  2  1  0
  9  8  2  0
 11 10  1  0
 11 12  1  1
 12 13  1  0
 13 18  2  0
 14 15  2  0
 14 13  1  0
 15 16  1  0
 16 17  2  0
 18 17  1  0
 19 20  2  0
 19 11  1  0
 21 19  1  0
 22 28  1  0
 22 21  1  0
 22 23  1  1
 24 23  1  0
 25 24  1  0
 26 27  1  0
 26 25  1  0
 28 30  1  0
 29 28  2  0
M  END
$$$$
