KFK.pdb
     RDKit          3D

 30 30  0  0  1  0  0  0  0  0999 V2000
    7.1741  -15.6726   20.3003 N   0  0  0  0  0  0  0  0  0  0  0  0
    8.4356  -14.9862   20.5600 C   0  0  1  0  0  0  0  0  0  0  0  0
    8.2965  -13.6093   19.9892 C   0  0  0  0  0  0  0  0  0  0  0  0
    7.7571  -13.5539   18.5849 C   0  0  0  0  0  0  0  0  0  0  0  0
    8.8887  -13.3404   17.5725 C   0  0  0  0  0  0  0  0  0  0  0  0
    8.3558  -13.2066   16.1667 C   0  0  0  0  0  0  0  0  0  0  0  0
    9.4920  -12.9759   15.2787 N   0  0  0  0  0  0  0  0  0  0  0  0
    8.7517  -14.9476   21.9800 C   0  0  0  0  0  0  0  0  0  0  0  0
    9.8631  -14.4773   22.3745 O   0  0  0  0  0  0  0  0  0  0  0  0
    7.9126  -15.4032   23.0233 N   0  0  0  0  0  0  0  0  0  0  0  0
    8.3184  -15.4404   24.4285 C   0  0  1  0  0  0  0  0  0  0  0  0
    7.0904  -15.2816   25.2602 C   0  0  0  0  0  0  0  0  0  0  0  0
    6.9339  -13.9288   25.8373 C   0  0  0  0  0  0  0  0  0  0  0  0
    7.9766  -13.0190   25.7110 C   0  0  0  0  0  0  0  0  0  0  0  0
    7.8453  -11.7500   26.2192 C   0  0  0  0  0  0  0  0  0  0  0  0
    6.6978  -11.3398   26.8603 C   0  0  0  0  0  0  0  0  0  0  0  0
    5.6631  -12.2299   26.9904 C   0  0  0  0  0  0  0  0  0  0  0  0
    5.7882  -13.5278   26.4750 C   0  0  0  0  0  0  0  0  0  0  0  0
    9.1348  -16.6274   24.7125 C   0  0  0  0  0  0  0  0  0  0  0  0
    8.7135  -17.7448   24.2847 O   0  0  0  0  0  0  0  0  0  0  0  0
   10.3730  -16.5863   25.4455 N   0  0  0  0  0  0  0  0  0  0  0  0
   11.0760  -17.8108   25.6351 C   0  0  1  0  0  0  0  0  0  0  0  0
   12.5019  -17.7663   25.1328 C   0  0  0  0  0  0  0  0  0  0  0  0
   13.2073  -19.0805   25.3354 C   0  0  0  0  0  0  0  0  0  0  0  0
   14.6113  -18.9561   24.7996 C   0  0  0  0  0  0  0  0  0  0  0  0
   15.3972  -20.2495   24.8942 C   0  0  0  0  0  0  0  0  0  0  0  0
   16.7346  -19.9500   24.4142 N   0  0  0  0  0  0  0  0  0  0  0  0
   11.0940  -18.2175   27.0990 C   0  0  0  0  0  0  0  0  0  0  0  0
   10.6566  -17.4424   27.9735 O   0  0  0  0  0  0  0  0  0  0  0  0
   11.6079  -19.4615   27.3815 O   0  0  0  0  0  0  0  0  0  0  0  0
  2  3  1  0
  2  1  1  1
  4  3  1  0
  5  4  1  0
  6  5  1  0
  7  6  1  0
  8 10  1  0
  8  2  1  0
  9  8  2  0
 11 10  1  0
 11 12  1  1
 12 13  1  0
 13 18  2  0
 14 15  2  0
 14 13  1  0
 15 16  1  0
 16 17  2  0
 18 17  1  0
 19 20  2  0
 19 11  1  0
 21 19  1  0
 22 28  1  0
 22 21  1  0
 22 23  1  1
 24 23  1  0
 25 24  1  0
 26 27  1  0
 26 25  1  0
 28 30  1  0
 29 28  2  0
M  END
$$$$
