KFK.pdb
     RDKit          3D

 30 30  0  0  1  0  0  0  0  0999 V2000
    8.8210  -16.0910   18.8067 N   0  0  0  0  0  0  0  0  0  0  0  0
    8.1842  -16.7350   19.9511 C   0  0  1  0  0  0  0  0  0  0  0  0
    8.6504  -18.1576   19.9528 C   0  0  0  0  0  0  0  0  0  0  0  0
    8.0659  -19.0204   18.8666 C   0  0  0  0  0  0  0  0  0  0  0  0
    6.5617  -19.2258   19.0813 C   0  0  0  0  0  0  0  0  0  0  0  0
    5.9438  -20.0136   17.9518 C   0  0  0  0  0  0  0  0  0  0  0  0
    4.5125  -20.1282   18.2183 N   0  0  0  0  0  0  0  0  0  0  0  0
    8.5066  -16.0645   21.2017 C   0  0  0  0  0  0  0  0  0  0  0  0
    9.7177  -15.9079   21.5491 O   0  0  0  0  0  0  0  0  0  0  0  0
    7.5681  -15.5428   22.1222 N   0  0  0  0  0  0  0  0  0  0  0  0
    7.9432  -14.9054   23.3846 C   0  0  1  0  0  0  0  0  0  0  0  0
    6.7376  -14.2064   23.9163 C   0  0  0  0  0  0  0  0  0  0  0  0
    6.9705  -13.5140   25.2024 C   0  0  0  0  0  0  0  0  0  0  0  0
    7.0018  -14.2622   26.3731 C   0  0  0  0  0  0  0  0  0  0  0  0
    7.2387  -13.6441   27.5762 C   0  0  0  0  0  0  0  0  0  0  0  0
    7.4503  -12.2864   27.6658 C   0  0  0  0  0  0  0  0  0  0  0  0
    7.4213  -11.5390   26.5167 C   0  0  0  0  0  0  0  0  0  0  0  0
    7.1798  -12.1613   25.2836 C   0  0  0  0  0  0  0  0  0  0  0  0
    8.5791  -15.8666   24.2944 C   0  0  0  0  0  0  0  0  0  0  0  0
    8.0083  -16.9880   24.4549 O   0  0  0  0  0  0  0  0  0  0  0  0
    9.8018  -15.6013   25.0064 N   0  0  0  0  0  0  0  0  0  0  0  0
   10.4468  -16.6946   25.6532 C   0  0  1  0  0  0  0  0  0  0  0  0
   11.8732  -16.9036   25.1957 C   0  0  0  0  0  0  0  0  0  0  0  0
   12.5102  -18.0869   25.8739 C   0  0  0  0  0  0  0  0  0  0  0  0
   13.9098  -18.2483   25.3368 C   0  0  0  0  0  0  0  0  0  0  0  0
   14.6245  -19.4602   25.9029 C   0  0  0  0  0  0  0  0  0  0  0  0
   15.9427  -19.4775   25.2939 N   0  0  0  0  0  0  0  0  0  0  0  0
   10.4459  -16.5229   27.1629 C   0  0  0  0  0  0  0  0  0  0  0  0
   10.8911  -17.4259   27.8998 O   0  0  0  0  0  0  0  0  0  0  0  0
    9.9380  -15.3383   27.6431 O   0  0  0  0  0  0  0  0  0  0  0  0
  2  3  1  0
  2  1  1  6
  4  3  1  0
  5  4  1  0
  6  5  1  0
  7  6  1  0
  8 10  1  0
  8  2  1  0
  9  8  2  0
 11 10  1  0
 11 12  1  1
 12 13  1  0
 13 18  2  0
 14 15  2  0
 14 13  1  0
 15 16  1  0
 16 17  2  0
 18 17  1  0
 19 20  2  0
 19 11  1  0
 21 19  1  0
 22 28  1  0
 22 21  1  0
 22 23  1  6
 24 23  1  0
 25 24  1  0
 26 27  1  0
 26 25  1  0
 28 30  1  0
 29 28  2  0
M  END
$$$$
