KFK.pdb
     RDKit          3D

 30 30  0  0  1  0  0  0  0  0999 V2000
    7.2825  -15.7194   21.0880 N   0  0  0  0  0  0  0  0  0  0  0  0
    8.5851  -15.0861   21.2670 C   0  0  1  0  0  0  0  0  0  0  0  0
    8.5010  -13.7454   20.6062 C   0  0  0  0  0  0  0  0  0  0  0  0
    7.7172  -13.7170   19.3213 C   0  0  0  0  0  0  0  0  0  0  0  0
    8.6521  -13.5859   18.1131 C   0  0  0  0  0  0  0  0  0  0  0  0
    7.8791  -13.5376   16.8177 C   0  0  0  0  0  0  0  0  0  0  0  0
    8.8447  -13.5054   15.7226 N   0  0  0  0  0  0  0  0  0  0  0  0
    8.9446  -14.9687   22.6722 C   0  0  0  0  0  0  0  0  0  0  0  0
   10.0585  -14.4590   23.0063 O   0  0  0  0  0  0  0  0  0  0  0  0
    8.1475  -15.3846   23.7638 N   0  0  0  0  0  0  0  0  0  0  0  0
    8.6017  -15.3529   25.1542 C   0  0  1  0  0  0  0  0  0  0  0  0
    7.4049  -15.1382   26.0183 C   0  0  0  0  0  0  0  0  0  0  0  0
    7.0064  -13.7191   26.1403 C   0  0  0  0  0  0  0  0  0  0  0  0
    7.9858  -12.7363   26.0615 C   0  0  0  0  0  0  0  0  0  0  0  0
    7.6367  -11.4111   26.1496 C   0  0  0  0  0  0  0  0  0  0  0  0
    6.3286  -11.0144   26.3159 C   0  0  0  0  0  0  0  0  0  0  0  0
    5.3546  -11.9762   26.3949 C   0  0  0  0  0  0  0  0  0  0  0  0
    5.7016  -13.3318   26.3063 C   0  0  0  0  0  0  0  0  0  0  0  0
    9.4172  -16.5319   25.4717 C   0  0  0  0  0  0  0  0  0  0  0  0
    9.8133  -16.6656   26.6694 O   0  0  0  0  0  0  0  0  0  0  0  0
    9.7870  -17.5297   24.5023 N   0  0  0  0  0  0  0  0  0  0  0  0
   10.6688  -18.5684   24.9185 C   0  0  1  0  0  0  0  0  0  0  0  0
   10.9366  -19.5943   23.8398 C   0  0  0  0  0  0  0  0  0  0  0  0
   11.7784  -20.7338   24.3484 C   0  0  0  0  0  0  0  0  0  0  0  0
   11.9849  -21.7144   23.2218 C   0  0  0  0  0  0  0  0  0  0  0  0
   12.7277  -22.9638   23.6540 C   0  0  0  0  0  0  0  0  0  0  0  0
   12.9773  -23.7286   22.4450 N   0  0  0  0  0  0  0  0  0  0  0  0
   11.9998  -18.0081   25.3908 C   0  0  0  0  0  0  0  0  0  0  0  0
   12.5765  -17.1171   24.7349 O   0  0  0  0  0  0  0  0  0  0  0  0
   12.5057  -18.5347   26.5563 O   0  0  0  0  0  0  0  0  0  0  0  0
  2  3  1  0
  2  1  1  1
  4  3  1  0
  5  4  1  0
  6  5  1  0
  7  6  1  0
  8 10  1  0
  8  2  1  0
  9  8  2  0
 11 10  1  0
 11 12  1  1
 12 13  1  0
 13 18  2  0
 14 15  2  0
 14 13  1  0
 15 16  1  0
 16 17  2  0
 18 17  1  0
 19 20  2  0
 19 11  1  0
 21 19  1  0
 22 28  1  0
 22 21  1  0
 22 23  1  6
 24 23  1  0
 25 24  1  0
 26 27  1  0
 26 25  1  0
 28 30  1  0
 29 28  2  0
M  END
$$$$
