KFK.pdb
     RDKit          3D

 30 30  0  0  1  0  0  0  0  0999 V2000
    9.8065  -16.3099   19.0779 N   0  0  0  0  0  0  0  0  0  0  0  0
    8.6605  -16.4690   19.9674 C   0  0  1  0  0  0  0  0  0  0  0  0
    8.4571  -17.9419   20.1406 C   0  0  0  0  0  0  0  0  0  0  0  0
    8.0589  -18.6809   18.8910 C   0  0  0  0  0  0  0  0  0  0  0  0
    7.7434  -20.1490   19.2008 C   0  0  0  0  0  0  0  0  0  0  0  0
    7.4115  -20.9205   17.9467 C   0  0  0  0  0  0  0  0  0  0  0  0
    7.0339  -22.2746   18.3424 N   0  0  0  0  0  0  0  0  0  0  0  0
    8.8666  -15.8032   21.2449 C   0  0  0  0  0  0  0  0  0  0  0  0
   10.0228  -15.7693   21.7685 O   0  0  0  0  0  0  0  0  0  0  0  0
    7.8662  -15.1576   22.0081 N   0  0  0  0  0  0  0  0  0  0  0  0
    8.1044  -14.5855   23.3334 C   0  0  1  0  0  0  0  0  0  0  0  0
    6.9480  -13.7023   23.6614 C   0  0  0  0  0  0  0  0  0  0  0  0
    6.9819  -13.1653   25.0391 C   0  0  0  0  0  0  0  0  0  0  0  0
    7.8626  -12.1323   25.3369 C   0  0  0  0  0  0  0  0  0  0  0  0
    7.8958  -11.6027   26.6034 C   0  0  0  0  0  0  0  0  0  0  0  0
    7.0737  -12.0662   27.6061 C   0  0  0  0  0  0  0  0  0  0  0  0
    6.2012  -13.0852   27.3228 C   0  0  0  0  0  0  0  0  0  0  0  0
    6.1603  -13.6325   26.0325 C   0  0  0  0  0  0  0  0  0  0  0  0
    8.4082  -15.6337   24.3157 C   0  0  0  0  0  0  0  0  0  0  0  0
    7.5920  -16.5999   24.4135 O   0  0  0  0  0  0  0  0  0  0  0  0
    9.5708  -15.6178   25.1645 N   0  0  0  0  0  0  0  0  0  0  0  0
    9.8428  -16.7791   25.9435 C   0  0  1  0  0  0  0  0  0  0  0  0
   10.9259  -17.6551   25.3540 C   0  0  0  0  0  0  0  0  0  0  0  0
   11.1713  -18.8811   26.1921 C   0  0  0  0  0  0  0  0  0  0  0  0
   12.1988  -19.7372   25.4958 C   0  0  0  0  0  0  0  0  0  0  0  0
   12.4893  -21.0300   26.2333 C   0  0  0  0  0  0  0  0  0  0  0  0
   13.4594  -21.7500   25.4274 N   0  0  0  0  0  0  0  0  0  0  0  0
   10.2405  -16.4122   27.3634 C   0  0  0  0  0  0  0  0  0  0  0  0
   10.8341  -15.3393   27.5940 O   0  0  0  0  0  0  0  0  0  0  0  0
    9.9078  -17.3170   28.3444 O   0  0  0  0  0  0  0  0  0  0  0  0
  2  3  1  0
  2  1  1  6
  4  3  1  0
  5  4  1  0
  6  5  1  0
  7  6  1  0
  8 10  1  0
  8  2  1  0
  9  8  2  0
 11 10  1  0
 11 12  1  1
 12 13  1  0
 13 18  2  0
 14 15  2  0
 14 13  1  0
 15 16  1  0
 16 17  2  0
 18 17  1  0
 19 20  2  0
 19 11  1  0
 21 19  1  0
 22 28  1  0
 22 21  1  0
 22 23  1  6
 24 23  1  0
 25 24  1  0
 26 27  1  0
 26 25  1  0
 28 30  1  0
 29 28  2  0
M  END
$$$$
