WCV.pdb
     RDKit          3D

 28 29  0  0  1  0  0  0  0  0999 V2000
    6.6644  -17.9461   24.2303 N   0  0  0  0  0  0  0  0  0  0  0  0
    7.3774  -16.8771   23.6016 C   0  0  1  0  0  0  0  0  0  0  0  0
    7.9722  -15.8529   24.4842 C   0  0  0  0  0  0  0  0  0  0  0  0
    7.0742  -15.1096   25.3560 C   0  0  0  0  0  0  0  0  0  0  0  0
    6.0189  -15.5316   26.1319 C   0  0  0  0  0  0  0  0  0  0  0  0
    5.5150  -14.4388   26.7725 N   0  0  0  0  0  0  0  0  0  0  0  0
    6.2058  -13.3469   26.4333 C   0  0  0  0  0  0  0  0  0  0  0  0
    6.1399  -11.9919   26.7724 C   0  0  0  0  0  0  0  0  0  0  0  0
    7.0222  -11.0755   26.2399 C   0  0  0  0  0  0  0  0  0  0  0  0
    8.0130  -11.4739   25.3444 C   0  0  0  0  0  0  0  0  0  0  0  0
    8.0718  -12.8032   25.0195 C   0  0  0  0  0  0  0  0  0  0  0  0
    7.1960  -13.7287   25.5430 C   0  0  0  0  0  0  0  0  0  0  0  0
    8.2762  -17.3748   22.5152 C   0  0  0  0  0  0  0  0  0  0  0  0
    8.8157  -18.4861   22.6618 O   0  0  0  0  0  0  0  0  0  0  0  0
    8.5307  -16.6281   21.3412 N   0  0  0  0  0  0  0  0  0  0  0  0
    9.6506  -16.8671   20.4497 C   0  0  1  0  0  0  0  0  0  0  0  0
    9.5258  -16.1472   19.1691 C   0  0  0  0  0  0  0  0  0  0  0  0
    7.9814  -16.6749   18.3820 S   0  0  0  0  0  0  0  0  0  0  0  0
   10.9462  -16.6963   21.1609 C   0  0  0  0  0  0  0  0  0  0  0  0
   11.3860  -15.5520   21.3650 O   0  0  0  0  0  0  0  0  0  0  0  0
   14.1129  -18.5443   24.3957 C   0  0  0  0  0  0  0  0  0  0  0  0
   12.8190  -18.3668   23.6869 C   0  0  1  0  0  0  0  0  0  0  0  0
   11.8519  -17.6014   24.5639 C   0  0  0  0  0  0  0  0  0  0  0  0
   12.9305  -17.6978   22.3314 C   0  0  2  0  0  0  0  0  0  0  0  0
   11.6588  -17.8418   21.5961 N   0  0  0  0  0  0  0  0  0  0  0  0
   14.0593  -18.2230   21.5398 C   0  0  0  0  0  0  0  0  0  0  0  0
   15.3060  -17.5990   21.4869 O   0  0  0  0  0  0  0  0  0  0  0  0
   13.9624  -19.2725   20.8598 O   0  0  0  0  0  0  0  0  0  0  0  0
  2  1  1  1
  2  3  1  0
  3  4  1  0
  4  5  2  0
  6  5  1  0
  7  6  1  0
  8  7  2  0
  9  8  1  0
 10  9  2  0
 10 11  1  0
 11 12  2  0
 12  7  1  0
 12  4  1  0
 13  2  1  0
 13 14  2  0
 15 13  1  0
 16 15  1  0
 17 18  1  0
 16 17  1  6
 19 16  1  0
 20 19  2  0
 22 21  1  1
 22 24  1  0
 23 22  1  0
 24 25  1  6
 24 26  1  0
 25 19  1  0
 26 28  2  0
 26 27  1  0
M  END
$$$$
