WCV.pdb
     RDKit          3D

 28 29  0  0  1  0  0  0  0  0999 V2000
    6.7556  -17.5292   23.9016 N   0  0  0  0  0  0  0  0  0  0  0  0
    7.8593  -16.6776   24.2227 C   0  0  1  0  0  0  0  0  0  0  0  0
    7.7900  -15.9367   25.4987 C   0  0  0  0  0  0  0  0  0  0  0  0
    6.6790  -15.0146   25.6839 C   0  0  0  0  0  0  0  0  0  0  0  0
    5.3752  -15.2404   26.0621 C   0  0  0  0  0  0  0  0  0  0  0  0
    4.7423  -14.0336   26.1013 N   0  0  0  0  0  0  0  0  0  0  0  0
    5.5898  -13.0578   25.7636 C   0  0  0  0  0  0  0  0  0  0  0  0
    5.4963  -11.6682   25.6385 C   0  0  0  0  0  0  0  0  0  0  0  0
    6.5824  -10.9075   25.2597 C   0  0  0  0  0  0  0  0  0  0  0  0
    7.8134  -11.5030   24.9904 C   0  0  0  0  0  0  0  0  0  0  0  0
    7.8966  -12.8643   25.1175 C   0  0  0  0  0  0  0  0  0  0  0  0
    6.8193  -13.6360   25.4937 C   0  0  0  0  0  0  0  0  0  0  0  0
    9.1700  -17.3429   23.9482 C   0  0  0  0  0  0  0  0  0  0  0  0
    9.3595  -18.4816   24.4120 O   0  0  0  0  0  0  0  0  0  0  0  0
   10.1897  -16.7232   23.1887 N   0  0  0  0  0  0  0  0  0  0  0  0
   11.6090  -16.8825   23.4459 C   0  0  1  0  0  0  0  0  0  0  0  0
   12.4497  -16.3798   22.3439 C   0  0  0  0  0  0  0  0  0  0  0  0
   12.0067  -17.2946   20.8439 S   0  0  0  0  0  0  0  0  0  0  0  0
   11.9650  -16.3898   24.8038 C   0  0  0  0  0  0  0  0  0  0  0  0
   12.6005  -15.3284   24.9226 O   0  0  0  0  0  0  0  0  0  0  0  0
    9.6296  -15.2686   27.0408 C   0  0  0  0  0  0  0  0  0  0  0  0
   11.0669  -15.2516   27.4178 C   0  0  1  0  0  0  0  0  0  0  0  0
   11.2250  -14.7076   28.8212 C   0  0  0  0  0  0  0  0  0  0  0  0
   11.7645  -16.5921   27.2997 C   0  0  2  0  0  0  0  0  0  0  0  0
   11.5726  -17.1382   25.9419 N   0  0  0  0  0  0  0  0  0  0  0  0
   11.3085  -17.5519   28.3231 C   0  0  0  0  0  0  0  0  0  0  0  0
   11.5639  -17.3895   29.6850 O   0  0  0  0  0  0  0  0  0  0  0  0
   10.6579  -18.5820   28.0248 O   0  0  0  0  0  0  0  0  0  0  0  0
  2  1  1  1
  2  3  1  0
  3  4  1  0
  4  5  2  0
  6  5  1  0
  7  6  1  0
  8  7  2  0
  9  8  1  0
 10  9  2  0
 10 11  1  0
 11 12  2  0
 12  7  1  0
 12  4  1  0
 13  2  1  0
 13 14  2  0
 15 13  1  0
 16 15  1  0
 17 18  1  0
 16 17  1  6
 19 16  1  0
 20 19  2  0
 22 21  1  1
 22 24  1  0
 23 22  1  0
 24 25  1  6
 24 26  1  0
 25 19  1  0
 26 28  2  0
 26 27  1  0
M  END
$$$$
