WCV.pdb
     RDKit          3D

 28 29  0  0  1  0  0  0  0  0999 V2000
    6.5357  -17.3869   24.8818 N   0  0  0  0  0  0  0  0  0  0  0  0
    7.5930  -16.5246   24.4518 C   0  0  1  0  0  0  0  0  0  0  0  0
    7.8613  -15.3262   25.2726 C   0  0  0  0  0  0  0  0  0  0  0  0
    6.7273  -14.4882   25.6338 C   0  0  0  0  0  0  0  0  0  0  0  0
    5.5477  -14.7959   26.2724 C   0  0  0  0  0  0  0  0  0  0  0  0
    4.8262  -13.6446   26.3834 N   0  0  0  0  0  0  0  0  0  0  0  0
    5.4989  -12.6254   25.8420 C   0  0  0  0  0  0  0  0  0  0  0  0
    5.2558  -11.2583   25.6772 C   0  0  0  0  0  0  0  0  0  0  0  0
    6.1734  -10.4361   25.0577 C   0  0  0  0  0  0  0  0  0  0  0  0
    7.3783  -10.9446   24.5762 C   0  0  0  0  0  0  0  0  0  0  0  0
    7.6093  -12.2843   24.7437 C   0  0  0  0  0  0  0  0  0  0  0  0
    6.7008  -13.1169   25.3593 C   0  0  0  0  0  0  0  0  0  0  0  0
    8.8069  -17.2973   24.0453 C   0  0  0  0  0  0  0  0  0  0  0  0
    9.0439  -18.3696   24.6297 O   0  0  0  0  0  0  0  0  0  0  0  0
    9.6849  -16.8500   23.0305 N   0  0  0  0  0  0  0  0  0  0  0  0
   11.1321  -16.9124   23.1187 C   0  0  1  0  0  0  0  0  0  0  0  0
   11.8019  -16.3593   21.9274 C   0  0  0  0  0  0  0  0  0  0  0  0
   13.5526  -16.8193   22.0091 S   0  0  0  0  0  0  0  0  0  0  0  0
   11.6111  -16.3908   24.4271 C   0  0  0  0  0  0  0  0  0  0  0  0
   12.5594  -15.5880   24.4559 O   0  0  0  0  0  0  0  0  0  0  0  0
   11.1794  -15.3844   29.1264 C   0  0  0  0  0  0  0  0  0  0  0  0
   10.7940  -15.5349   27.6991 C   0  0  1  0  0  0  0  0  0  0  0  0
   10.8665  -14.1938   27.0016 C   0  0  0  0  0  0  0  0  0  0  0  0
   11.6041  -16.5621   26.9334 C   0  0  2  0  0  0  0  0  0  0  0  0
   10.9774  -16.8167   25.6215 N   0  0  0  0  0  0  0  0  0  0  0  0
   11.7729  -17.8177   27.6893 C   0  0  0  0  0  0  0  0  0  0  0  0
   12.7939  -18.0134   28.6197 O   0  0  0  0  0  0  0  0  0  0  0  0
   10.9999  -18.7938   27.5372 O   0  0  0  0  0  0  0  0  0  0  0  0
  2  1  1  1
  2  3  1  0
  3  4  1  0
  4  5  2  0
  6  5  1  0
  7  6  1  0
  8  7  2  0
  9  8  1  0
 10  9  2  0
 10 11  1  0
 11 12  2  0
 12  7  1  0
 12  4  1  0
 13  2  1  0
 13 14  2  0
 15 13  1  0
 16 15  1  0
 17 18  1  0
 16 17  1  6
 19 16  1  0
 20 19  2  0
 22 21  1  1
 22 24  1  0
 23 22  1  0
 24 25  1  6
 24 26  1  0
 25 19  1  0
 26 28  2  0
 26 27  1  0
M  END
$$$$
