WCV.pdb
     RDKit          3D

 28 29  0  0  1  0  0  0  0  0999 V2000
    6.1556  -18.7713   21.7271 N   0  0  0  0  0  0  0  0  0  0  0  0
    6.8611  -17.5959   22.1359 C   0  0  1  0  0  0  0  0  0  0  0  0
    6.2164  -16.2946   21.8656 C   0  0  0  0  0  0  0  0  0  0  0  0
    6.8773  -15.3956   20.9308 C   0  0  0  0  0  0  0  0  0  0  0  0
    7.2361  -15.5711   19.6139 C   0  0  0  0  0  0  0  0  0  0  0  0
    7.8156  -14.4135   19.1865 N   0  0  0  0  0  0  0  0  0  0  0  0
    7.8384  -13.5169   20.1765 C   0  0  0  0  0  0  0  0  0  0  0  0
    8.2953  -12.2018   20.3074 C   0  0  0  0  0  0  0  0  0  0  0  0
    8.1735  -11.5153   21.4972 C   0  0  0  0  0  0  0  0  0  0  0  0
    7.5864  -12.1132   22.6108 C   0  0  0  0  0  0  0  0  0  0  0  0
    7.1397  -13.4007   22.4732 C   0  0  0  0  0  0  0  0  0  0  0  0
    7.2564  -14.0983   21.2912 C   0  0  0  0  0  0  0  0  0  0  0  0
    7.4350  -17.7441   23.5086 C   0  0  0  0  0  0  0  0  0  0  0  0
    6.6510  -17.7655   24.4742 O   0  0  0  0  0  0  0  0  0  0  0  0
    8.8259  -17.8568   23.7401 N   0  0  0  0  0  0  0  0  0  0  0  0
    9.4263  -17.9779   25.0557 C   0  0  1  0  0  0  0  0  0  0  0  0
   10.4136  -19.0700   25.1354 C   0  0  0  0  0  0  0  0  0  0  0  0
   11.1229  -19.0588   26.8027 S   0  0  0  0  0  0  0  0  0  0  0  0
    9.8874  -16.6551   25.5569 C   0  0  0  0  0  0  0  0  0  0  0  0
   10.7536  -16.0286   24.9230 O   0  0  0  0  0  0  0  0  0  0  0  0
    8.2854  -13.3986   26.3715 C   0  0  0  0  0  0  0  0  0  0  0  0
    8.9293  -13.8771   27.6224 C   0  0  1  0  0  0  0  0  0  0  0  0
    7.8719  -14.3319   28.6048 C   0  0  0  0  0  0  0  0  0  0  0  0
    9.9566  -14.9735   27.4218 C   0  0  2  0  0  0  0  0  0  0  0  0
    9.3306  -16.1289   26.7495 N   0  0  0  0  0  0  0  0  0  0  0  0
   10.5929  -15.3821   28.6886 C   0  0  0  0  0  0  0  0  0  0  0  0
   11.3842  -14.5243   29.4531 O   0  0  0  0  0  0  0  0  0  0  0  0
   10.4586  -16.5380   29.1570 O   0  0  0  0  0  0  0  0  0  0  0  0
  2  1  1  1
  2  3  1  0
  3  4  1  0
  4  5  2  0
  6  5  1  0
  7  6  1  0
  8  7  2  0
  9  8  1  0
 10  9  2  0
 10 11  1  0
 11 12  2  0
 12  7  1  0
 12  4  1  0
 13  2  1  0
 13 14  2  0
 15 13  1  0
 16 15  1  0
 17 18  1  0
 16 17  1  6
 19 16  1  0
 20 19  2  0
 22 21  1  6
 22 24  1  0
 23 22  1  0
 24 25  1  1
 24 26  1  0
 25 19  1  0
 26 28  2  0
 26 27  1  0
M  END
$$$$
