WCV.pdb
     RDKit          3D

 28 29  0  0  1  0  0  0  0  0999 V2000
    7.0172  -16.0142   22.4269 N   0  0  0  0  0  0  0  0  0  0  0  0
    8.2672  -15.7627   23.0756 C   0  0  1  0  0  0  0  0  0  0  0  0
    8.2934  -15.8602   24.5492 C   0  0  0  0  0  0  0  0  0  0  0  0
    7.2243  -15.2040   25.2878 C   0  0  0  0  0  0  0  0  0  0  0  0
    6.0273  -15.6904   25.7615 C   0  0  0  0  0  0  0  0  0  0  0  0
    5.3918  -14.6689   26.4027 N   0  0  0  0  0  0  0  0  0  0  0  0
    6.1354  -13.5603   26.3529 C   0  0  0  0  0  0  0  0  0  0  0  0
    5.9919  -12.2530   26.8278 C   0  0  0  0  0  0  0  0  0  0  0  0
    6.9652  -11.3003   26.6112 C   0  0  0  0  0  0  0  0  0  0  0  0
    8.1286  -11.6132   25.9105 C   0  0  0  0  0  0  0  0  0  0  0  0
    8.2619  -12.8966   25.4508 C   0  0  0  0  0  0  0  0  0  0  0  0
    7.2970  -13.8574   25.6590 C   0  0  0  0  0  0  0  0  0  0  0  0
    9.4003  -16.4435   22.3767 C   0  0  0  0  0  0  0  0  0  0  0  0
    9.2455  -16.7698   21.1863 O   0  0  0  0  0  0  0  0  0  0  0  0
   10.6272  -16.7268   23.0211 N   0  0  0  0  0  0  0  0  0  0  0  0
   11.6865  -17.5309   22.4403 C   0  0  1  0  0  0  0  0  0  0  0  0
   12.0989  -17.0564   21.1067 C   0  0  0  0  0  0  0  0  0  0  0  0
   12.8944  -15.4414   21.3119 S   0  0  0  0  0  0  0  0  0  0  0  0
   12.7887  -17.7484   23.4157 C   0  0  0  0  0  0  0  0  0  0  0  0
   13.3667  -16.7679   23.9147 O   0  0  0  0  0  0  0  0  0  0  0  0
   11.4977  -20.2749   26.0009 C   0  0  0  0  0  0  0  0  0  0  0  0
   12.9270  -20.5484   25.7002 C   0  0  1  0  0  0  0  0  0  0  0  0
   13.0407  -21.7490   24.7859 C   0  0  0  0  0  0  0  0  0  0  0  0
   13.6819  -19.3739   25.1100 C   0  0  2  0  0  0  0  0  0  0  0  0
   13.1620  -19.0713   23.7621 N   0  0  0  0  0  0  0  0  0  0  0  0
   15.1382  -19.6068   25.0730 C   0  0  0  0  0  0  0  0  0  0  0  0
   15.9314  -19.6448   26.2202 O   0  0  0  0  0  0  0  0  0  0  0  0
   15.7554  -19.7855   23.9957 O   0  0  0  0  0  0  0  0  0  0  0  0
  2  1  1  6
  2  3  1  0
  3  4  1  0
  4  5  2  0
  6  5  1  0
  7  6  1  0
  8  7  2  0
  9  8  1  0
 10  9  2  0
 10 11  1  0
 11 12  2  0
 12  7  1  0
 12  4  1  0
 13  2  1  0
 13 14  2  0
 15 13  1  0
 16 15  1  0
 17 18  1  0
 16 17  1  6
 19 16  1  0
 20 19  2  0
 22 21  1  6
 22 24  1  0
 23 22  1  0
 24 25  1  6
 24 26  1  0
 25 19  1  0
 26 28  2  0
 26 27  1  0
M  END
$$$$
