WCV.pdb
     RDKit          3D

 28 29  0  0  1  0  0  0  0  0999 V2000
    7.1410  -17.3585   21.1189 N   0  0  0  0  0  0  0  0  0  0  0  0
    6.7267  -17.2056   22.4796 C   0  0  1  0  0  0  0  0  0  0  0  0
    6.3294  -18.4296   23.2047 C   0  0  0  0  0  0  0  0  0  0  0  0
    5.4163  -19.3442   22.5349 C   0  0  0  0  0  0  0  0  0  0  0  0
    5.6609  -20.3997   21.6864 C   0  0  0  0  0  0  0  0  0  0  0  0
    4.4577  -20.9439   21.3476 N   0  0  0  0  0  0  0  0  0  0  0  0
    3.4661  -20.2770   21.9447 C   0  0  0  0  0  0  0  0  0  0  0  0
    2.0723  -20.3881   21.9632 C   0  0  0  0  0  0  0  0  0  0  0  0
    1.2934  -19.5219   22.7012 C   0  0  0  0  0  0  0  0  0  0  0  0
    1.8744  -18.5051   23.4569 C   0  0  0  0  0  0  0  0  0  0  0  0
    3.2402  -18.4049   23.4348 C   0  0  0  0  0  0  0  0  0  0  0  0
    4.0299  -19.2625   22.7009 C   0  0  0  0  0  0  0  0  0  0  0  0
    7.6354  -16.2897   23.2353 C   0  0  0  0  0  0  0  0  0  0  0  0
    8.8622  -16.4780   23.1511 O   0  0  0  0  0  0  0  0  0  0  0  0
    7.1483  -15.2301   24.0357 N   0  0  0  0  0  0  0  0  0  0  0  0
    7.8350  -14.7073   25.2025 C   0  0  1  0  0  0  0  0  0  0  0  0
    7.1233  -13.5765   25.8257 C   0  0  0  0  0  0  0  0  0  0  0  0
    8.1473  -12.9559   27.1857 S   0  0  0  0  0  0  0  0  0  0  0  0
    8.2333  -15.8046   26.1248 C   0  0  0  0  0  0  0  0  0  0  0  0
    7.3560  -16.5077   26.6544 O   0  0  0  0  0  0  0  0  0  0  0  0
   12.2720  -17.2345   26.1118 C   0  0  0  0  0  0  0  0  0  0  0  0
   11.0740  -17.9842   26.5712 C   0  0  1  0  0  0  0  0  0  0  0  0
   11.4947  -19.1288   27.4673 C   0  0  0  0  0  0  0  0  0  0  0  0
   10.0301  -17.1355   27.2697 C   0  0  2  0  0  0  0  0  0  0  0  0
    9.6081  -16.0323   26.3845 N   0  0  0  0  0  0  0  0  0  0  0  0
   10.5067  -16.6179   28.5664 C   0  0  0  0  0  0  0  0  0  0  0  0
   10.6427  -15.2561   28.8376 O   0  0  0  0  0  0  0  0  0  0  0  0
   10.8216  -17.3806   29.5111 O   0  0  0  0  0  0  0  0  0  0  0  0
  2  1  1  6
  2  3  1  0
  3  4  1  0
  4  5  2  0
  6  5  1  0
  7  6  1  0
  8  7  2  0
  9  8  1  0
 10  9  2  0
 10 11  1  0
 11 12  2  0
 12  7  1  0
 12  4  1  0
 13  2  1  0
 13 14  2  0
 15 13  1  0
 16 15  1  0
 17 18  1  0
 16 17  1  1
 19 16  1  0
 20 19  2  0
 22 21  1  1
 22 24  1  0
 23 22  1  0
 24 25  1  6
 24 26  1  0
 25 19  1  0
 26 28  2  0
 26 27  1  0
M  END
$$$$
