KIL.pdb
     RDKit          3D

 26 25  0  0  1  0  0  0  0  0999 V2000
    7.0833  -17.1892   21.0903 N   0  0  0  0  0  0  0  0  0  0  0  0
    8.3724  -16.6292   20.8422 C   0  0  1  0  0  0  0  0  0  0  0  0
    8.4240  -15.8126   19.5652 C   0  0  0  0  0  0  0  0  0  0  0  0
    8.1814  -16.7284   18.3722 C   0  0  0  0  0  0  0  0  0  0  0  0
    9.5691  -17.0150   17.7849 C   0  0  0  0  0  0  0  0  0  0  0  0
    9.4103  -17.8300   16.5229 C   0  0  0  0  0  0  0  0  0  0  0  0
   10.7626  -18.0144   15.9758 N   0  0  0  0  0  0  0  0  0  0  0  0
    8.8464  -15.7549   21.9407 C   0  0  0  0  0  0  0  0  0  0  0  0
    9.9145  -15.1021   21.8458 O   0  0  0  0  0  0  0  0  0  0  0  0
    5.8745  -12.2948   24.6839 C   0  0  0  0  0  0  0  0  0  0  0  0
    7.0627  -13.0405   24.0566 C   0  0  0  0  0  0  0  0  0  0  0  0
    7.5165  -14.1510   24.9527 C   0  0  2  0  0  0  0  0  0  0  0  0
    7.9318  -13.5225   26.2717 C   0  0  0  0  0  0  0  0  0  0  0  0
    8.5781  -14.9747   24.3375 C   0  0  2  0  0  0  0  0  0  0  0  0
    8.0808  -15.6504   23.1250 N   0  0  0  0  0  0  0  0  0  0  0  0
    9.0472  -16.0574   25.2327 C   0  0  0  0  0  0  0  0  0  0  0  0
    8.9211  -17.2530   24.8155 O   0  0  0  0  0  0  0  0  0  0  0  0
   10.9911  -13.1667   29.0526 C   0  0  0  0  0  0  0  0  0  0  0  0
   10.7858  -14.6578   28.8855 C   0  0  2  0  0  0  0  0  0  0  0  0
   10.7991  -15.4255   30.1755 C   0  0  0  0  0  0  0  0  0  0  0  0
   11.5180  -15.2532   27.7536 C   0  0  0  0  0  0  0  0  0  0  0  0
   10.9145  -16.2994   26.9267 C   0  0  2  0  0  0  0  0  0  0  0  0
    9.6177  -15.7980   26.5109 N   0  0  0  0  0  0  0  0  0  0  0  0
   10.8831  -17.6742   27.3954 C   0  0  0  0  0  0  0  0  0  0  0  0
    9.7330  -18.4105   27.6186 O   0  0  0  0  0  0  0  0  0  0  0  0
   11.9520  -18.2850   27.6332 O   0  0  0  0  0  0  0  0  0  0  0  0
  2  3  1  0
  2  1  1  1
  4  3  1  0
  5  4  1  0
  5  6  1  0
  7  6  1  0
  8  9  2  0
  8  2  1  0
 11 10  1  0
 12 11  1  0
 12 14  1  0
 12 13  1  1
 14 15  1  6
 15  8  1  0
 16 14  1  0
 17 16  2  0
 19 18  1  1
 19 21  1  0
 20 19  1  0
 22 21  1  1
 22 23  1  0
 22 24  1  0
 23 16  1  0
 24 25  1  0
 26 24  2  0
M  END
$$$$
