KIL.pdb
     RDKit          3D

 26 25  0  0  1  0  0  0  0  0999 V2000
    6.5473  -17.6835   22.4603 N   0  0  0  0  0  0  0  0  0  0  0  0
    7.7973  -17.4257   21.8217 C   0  0  1  0  0  0  0  0  0  0  0  0
    7.6473  -17.0744   20.3539 C   0  0  0  0  0  0  0  0  0  0  0  0
    7.0398  -18.2586   19.6127 C   0  0  0  0  0  0  0  0  0  0  0  0
    7.0033  -17.8446   18.1361 C   0  0  0  0  0  0  0  0  0  0  0  0
    6.3120  -18.9258   17.3391 C   0  0  0  0  0  0  0  0  0  0  0  0
    5.0099  -19.1483   17.9850 N   0  0  0  0  0  0  0  0  0  0  0  0
    8.5589  -16.3264   22.4596 C   0  0  0  0  0  0  0  0  0  0  0  0
    9.6243  -15.8895   21.9595 O   0  0  0  0  0  0  0  0  0  0  0  0
    5.5461  -12.8803   25.5112 C   0  0  0  0  0  0  0  0  0  0  0  0
    6.5708  -13.4280   24.5056 C   0  0  0  0  0  0  0  0  0  0  0  0
    7.7979  -13.9082   25.2167 C   0  0  2  0  0  0  0  0  0  0  0  0
    8.4145  -12.7057   25.9103 C   0  0  0  0  0  0  0  0  0  0  0  0
    8.7361  -14.6074   24.3142 C   0  0  2  0  0  0  0  0  0  0  0  0
    8.0781  -15.7531   23.6596 N   0  0  0  0  0  0  0  0  0  0  0  0
    9.8999  -15.1745   25.0336 C   0  0  0  0  0  0  0  0  0  0  0  0
   11.0535  -14.7594   24.6928 O   0  0  0  0  0  0  0  0  0  0  0  0
   11.3072  -13.8109   28.0508 C   0  0  0  0  0  0  0  0  0  0  0  0
   10.2934  -14.7985   28.5898 C   0  0  2  0  0  0  0  0  0  0  0  0
    9.8517  -14.5154   29.9963 C   0  0  0  0  0  0  0  0  0  0  0  0
   10.5724  -16.2062   28.2545 C   0  0  0  0  0  0  0  0  0  0  0  0
   10.8669  -16.6138   26.8799 C   0  0  2  0  0  0  0  0  0  0  0  0
    9.7607  -16.1450   26.0659 N   0  0  0  0  0  0  0  0  0  0  0  0
   11.2611  -17.9822   26.5919 C   0  0  0  0  0  0  0  0  0  0  0  0
   12.3988  -18.6000   27.0806 O   0  0  0  0  0  0  0  0  0  0  0  0
   10.5525  -18.7003   25.8474 O   0  0  0  0  0  0  0  0  0  0  0  0
  2  3  1  0
  2  1  1  1
  4  3  1  0
  5  4  1  0
  5  6  1  0
  7  6  1  0
  8  9  2  0
  8  2  1  0
 11 10  1  0
 12 11  1  0
 12 14  1  0
 12 13  1  6
 14 15  1  1
 15  8  1  0
 16 14  1  0
 17 16  2  0
 19 18  1  1
 19 21  1  0
 20 19  1  0
 22 21  1  1
 22 23  1  0
 22 24  1  0
 23 16  1  0
 24 25  1  0
 26 24  2  0
M  END
$$$$
