KIL.pdb
     RDKit          3D

 26 25  0  0  1  0  0  0  0  0999 V2000
    7.9727  -17.2418   20.5821 N   0  0  0  0  0  0  0  0  0  0  0  0
    8.7221  -16.0507   20.3442 C   0  0  1  0  0  0  0  0  0  0  0  0
    8.0359  -15.1068   19.3754 C   0  0  0  0  0  0  0  0  0  0  0  0
    8.8114  -15.0801   18.0645 C   0  0  0  0  0  0  0  0  0  0  0  0
    8.0695  -14.0805   17.1681 C   0  0  0  0  0  0  0  0  0  0  0  0
    8.7673  -14.0076   15.8303 C   0  0  0  0  0  0  0  0  0  0  0  0
    7.9606  -13.1098   14.9906 N   0  0  0  0  0  0  0  0  0  0  0  0
    8.9997  -15.2831   21.5810 C   0  0  0  0  0  0  0  0  0  0  0  0
    9.7747  -14.2955   21.5806 O   0  0  0  0  0  0  0  0  0  0  0  0
    6.0973  -13.1291   26.3165 C   0  0  0  0  0  0  0  0  0  0  0  0
    7.4678  -13.5810   25.7885 C   0  0  0  0  0  0  0  0  0  0  0  0
    7.3008  -14.5551   24.6637 C   0  0  2  0  0  0  0  0  0  0  0  0
    6.5073  -15.7325   25.2032 C   0  0  0  0  0  0  0  0  0  0  0  0
    8.5915  -14.9471   24.0601 C   0  0  2  0  0  0  0  0  0  0  0  0
    8.3794  -15.6687   22.7919 N   0  0  0  0  0  0  0  0  0  0  0  0
    9.3629  -15.8731   24.9210 C   0  0  0  0  0  0  0  0  0  0  0  0
    9.7603  -16.9616   24.3951 O   0  0  0  0  0  0  0  0  0  0  0  0
   11.3238  -13.6285   28.1119 C   0  0  0  0  0  0  0  0  0  0  0  0
   10.1939  -14.4499   28.6970 C   0  0  2  0  0  0  0  0  0  0  0  0
    9.7469  -13.9948   30.0560 C   0  0  0  0  0  0  0  0  0  0  0  0
   10.3271  -15.9039   28.4967 C   0  0  0  0  0  0  0  0  0  0  0  0
   10.3938  -16.4809   27.1532 C   0  0  2  0  0  0  0  0  0  0  0  0
    9.6596  -15.5816   26.2824 N   0  0  0  0  0  0  0  0  0  0  0  0
   10.0747  -17.8826   26.9432 C   0  0  0  0  0  0  0  0  0  0  0  0
    8.8514  -18.3616   26.5085 O   0  0  0  0  0  0  0  0  0  0  0  0
   10.9374  -18.7663   27.1602 O   0  0  0  0  0  0  0  0  0  0  0  0
  2  3  1  0
  2  1  1  1
  4  3  1  0
  5  4  1  0
  5  6  1  0
  7  6  1  0
  8  9  2  0
  8  2  1  0
 11 10  1  0
 12 11  1  0
 12 14  1  0
 12 13  1  1
 14 15  1  6
 15  8  1  0
 16 14  1  0
 17 16  2  0
 19 18  1  1
 19 21  1  0
 20 19  1  0
 22 21  1  1
 22 23  1  0
 22 24  1  0
 23 16  1  0
 24 25  1  0
 26 24  2  0
M  END
$$$$
