KIL.pdb
     RDKit          3D

 26 25  0  0  1  0  0  0  0  0999 V2000
    9.5707  -19.1404   18.9004 N   0  0  0  0  0  0  0  0  0  0  0  0
    8.5973  -18.5166   19.7372 C   0  0  1  0  0  0  0  0  0  0  0  0
    8.1217  -19.4180   20.8604 C   0  0  0  0  0  0  0  0  0  0  0  0
    8.8784  -20.7388   20.8002 C   0  0  0  0  0  0  0  0  0  0  0  0
    8.2766  -21.6084   21.9113 C   0  0  0  0  0  0  0  0  0  0  0  0
    9.0591  -22.8972   22.0053 C   0  0  0  0  0  0  0  0  0  0  0  0
   10.2473  -22.6022   22.8196 N   0  0  0  0  0  0  0  0  0  0  0  0
    9.0842  -17.2625   20.3583 C   0  0  0  0  0  0  0  0  0  0  0  0
   10.3098  -17.0034   20.4405 O   0  0  0  0  0  0  0  0  0  0  0  0
    7.2069  -12.6564   18.8109 C   0  0  0  0  0  0  0  0  0  0  0  0
    8.1334  -13.7148   19.4296 C   0  0  0  0  0  0  0  0  0  0  0  0
    7.7946  -13.9288   20.8723 C   0  0  2  0  0  0  0  0  0  0  0  0
    8.0122  -12.6057   21.5858 C   0  0  0  0  0  0  0  0  0  0  0  0
    8.5529  -15.0473   21.4703 C   0  0  2  0  0  0  0  0  0  0  0  0
    8.1500  -16.3331   20.8715 N   0  0  0  0  0  0  0  0  0  0  0  0
    8.3040  -15.1895   22.9234 C   0  0  0  0  0  0  0  0  0  0  0  0
    7.1982  -15.7112   23.2760 O   0  0  0  0  0  0  0  0  0  0  0  0
    5.9751  -12.4005   26.4726 C   0  0  0  0  0  0  0  0  0  0  0  0
    7.3874  -12.9356   26.5853 C   0  0  2  0  0  0  0  0  0  0  0  0
    8.2883  -12.1059   27.4535 C   0  0  0  0  0  0  0  0  0  0  0  0
    7.9582  -13.4275   25.3189 C   0  0  0  0  0  0  0  0  0  0  0  0
    8.9056  -14.5431   25.2973 C   0  0  2  0  0  0  0  0  0  0  0  0
    9.2453  -14.7672   23.9043 N   0  0  0  0  0  0  0  0  0  0  0  0
    8.6133  -15.7643   26.0279 C   0  0  0  0  0  0  0  0  0  0  0  0
    7.9479  -16.8604   25.5078 O   0  0  0  0  0  0  0  0  0  0  0  0
    8.9671  -15.8843   27.2248 O   0  0  0  0  0  0  0  0  0  0  0  0
  2  3  1  0
  2  1  1  1
  4  3  1  0
  5  4  1  0
  5  6  1  0
  7  6  1  0
  8  9  2  0
  8  2  1  0
 11 10  1  0
 12 11  1  0
 12 14  1  0
 12 13  1  1
 14 15  1  6
 15  8  1  0
 16 14  1  0
 17 16  2  0
 19 18  1  6
 19 21  1  0
 20 19  1  0
 22 21  1  6
 22 23  1  0
 22 24  1  0
 23 16  1  0
 24 25  1  0
 26 24  2  0
M  END
$$$$
