KIL.pdb
     RDKit          3D

 26 25  0  0  1  0  0  0  0  0999 V2000
    8.2215  -15.4723   20.3978 N   0  0  0  0  0  0  0  0  0  0  0  0
    7.5641  -15.7851   21.6253 C   0  0  1  0  0  0  0  0  0  0  0  0
    7.2684  -17.2652   21.7744 C   0  0  0  0  0  0  0  0  0  0  0  0
    6.3487  -17.7108   20.6446 C   0  0  0  0  0  0  0  0  0  0  0  0
    6.7802  -19.1428   20.3038 C   0  0  0  0  0  0  0  0  0  0  0  0
    5.8093  -19.7240   19.3030 C   0  0  0  0  0  0  0  0  0  0  0  0
    6.3918  -20.9963   18.8513 N   0  0  0  0  0  0  0  0  0  0  0  0
    8.3371  -15.3704   22.8195 C   0  0  0  0  0  0  0  0  0  0  0  0
    9.5888  -15.2784   22.7920 O   0  0  0  0  0  0  0  0  0  0  0  0
    5.8560  -11.8525   26.1445 C   0  0  0  0  0  0  0  0  0  0  0  0
    6.9441  -12.5662   25.3272 C   0  0  0  0  0  0  0  0  0  0  0  0
    7.4475  -13.7693   26.0628 C   0  0  2  0  0  0  0  0  0  0  0  0
    8.0983  -13.2735   27.3426 C   0  0  0  0  0  0  0  0  0  0  0  0
    8.3447  -14.6024   25.2353 C   0  0  2  0  0  0  0  0  0  0  0  0
    7.6529  -15.0704   24.0202 N   0  0  0  0  0  0  0  0  0  0  0  0
    8.7894  -15.8283   25.9375 C   0  0  0  0  0  0  0  0  0  0  0  0
    7.8868  -16.6400   26.3193 O   0  0  0  0  0  0  0  0  0  0  0  0
   11.1030  -18.8640   24.2241 C   0  0  0  0  0  0  0  0  0  0  0  0
   12.0589  -17.8481   24.8139 C   0  0  2  0  0  0  0  0  0  0  0  0
   13.4584  -17.9426   24.2791 C   0  0  0  0  0  0  0  0  0  0  0  0
   11.9179  -17.6470   26.2670 C   0  0  0  0  0  0  0  0  0  0  0  0
   10.6249  -17.3078   26.8633 C   0  0  2  0  0  0  0  0  0  0  0  0
   10.1622  -16.1095   26.1879 N   0  0  0  0  0  0  0  0  0  0  0  0
   10.4777  -17.2543   28.3077 C   0  0  0  0  0  0  0  0  0  0  0  0
   10.4891  -18.3537   29.1479 O   0  0  0  0  0  0  0  0  0  0  0  0
   10.3233  -16.1528   28.8865 O   0  0  0  0  0  0  0  0  0  0  0  0
  2  3  1  0
  2  1  1  6
  4  3  1  0
  5  4  1  0
  5  6  1  0
  7  6  1  0
  8  9  2  0
  8  2  1  0
 11 10  1  0
 12 11  1  0
 12 14  1  0
 12 13  1  1
 14 15  1  6
 15  8  1  0
 16 14  1  0
 17 16  2  0
 19 18  1  1
 19 21  1  0
 20 19  1  0
 22 21  1  1
 22 23  1  0
 22 24  1  0
 23 16  1  0
 24 25  1  0
 26 24  2  0
M  END
$$$$
