KIL.pdb
     RDKit          3D

 26 25  0  0  1  0  0  0  0  0999 V2000
    8.9347  -19.1081   19.7301 N   0  0  0  0  0  0  0  0  0  0  0  0
    9.1969  -18.7837   21.0950 C   0  0  1  0  0  0  0  0  0  0  0  0
   10.2678  -19.6617   21.7137 C   0  0  0  0  0  0  0  0  0  0  0  0
   10.6447  -20.7634   20.7314 C   0  0  0  0  0  0  0  0  0  0  0  0
   11.5698  -21.7084   21.5086 C   0  0  0  0  0  0  0  0  0  0  0  0
   11.9589  -22.8617   20.6139 C   0  0  0  0  0  0  0  0  0  0  0  0
   11.9425  -24.0652   21.4585 N   0  0  0  0  0  0  0  0  0  0  0  0
    9.6199  -17.3765   21.2860 C   0  0  0  0  0  0  0  0  0  0  0  0
   10.7862  -16.9990   21.0151 O   0  0  0  0  0  0  0  0  0  0  0  0
    6.3656  -13.6944   19.4067 C   0  0  0  0  0  0  0  0  0  0  0  0
    7.6697  -14.3654   19.8653 C   0  0  0  0  0  0  0  0  0  0  0  0
    7.8559  -14.1948   21.3412 C   0  0  2  0  0  0  0  0  0  0  0  0
    7.9960  -12.7059   21.6071 C   0  0  0  0  0  0  0  0  0  0  0  0
    8.9861  -14.9910   21.8633 C   0  0  2  0  0  0  0  0  0  0  0  0
    8.6915  -16.4336   21.7848 N   0  0  0  0  0  0  0  0  0  0  0  0
    9.2605  -14.7179   23.2929 C   0  0  0  0  0  0  0  0  0  0  0  0
    9.7743  -13.5901   23.5818 O   0  0  0  0  0  0  0  0  0  0  0  0
    5.7303  -12.6312   26.1598 C   0  0  0  0  0  0  0  0  0  0  0  0
    7.0854  -13.2811   26.3465 C   0  0  2  0  0  0  0  0  0  0  0  0
    8.2092  -12.3059   26.5456 C   0  0  0  0  0  0  0  0  0  0  0  0
    7.3477  -14.4183   25.4467 C   0  0  0  0  0  0  0  0  0  0  0  0
    8.5084  -15.2882   25.6433 C   0  0  2  0  0  0  0  0  0  0  0  0
    8.9719  -15.6609   24.3196 N   0  0  0  0  0  0  0  0  0  0  0  0
    8.4360  -16.4052   26.5695 C   0  0  0  0  0  0  0  0  0  0  0  0
    7.9329  -17.6577   26.2647 O   0  0  0  0  0  0  0  0  0  0  0  0
    8.8452  -16.2763   27.7477 O   0  0  0  0  0  0  0  0  0  0  0  0
  2  3  1  0
  2  1  1  6
  4  3  1  0
  5  4  1  0
  5  6  1  0
  7  6  1  0
  8  9  2  0
  8  2  1  0
 11 10  1  0
 12 11  1  0
 12 14  1  0
 12 13  1  6
 14 15  1  1
 15  8  1  0
 16 14  1  0
 17 16  2  0
 19 18  1  6
 19 21  1  0
 20 19  1  0
 22 21  1  6
 22 23  1  0
 22 24  1  0
 23 16  1  0
 24 25  1  0
 26 24  2  0
M  END
$$$$
