KIL.pdb
     RDKit          3D

 26 25  0  0  1  0  0  0  0  0999 V2000
    8.5766  -16.1816   20.0415 N   0  0  0  0  0  0  0  0  0  0  0  0
    8.1186  -16.4989   21.3555 C   0  0  1  0  0  0  0  0  0  0  0  0
    8.4216  -17.9302   21.7551 C   0  0  0  0  0  0  0  0  0  0  0  0
    7.7592  -18.8800   20.7651 C   0  0  0  0  0  0  0  0  0  0  0  0
    8.0607  -20.2914   21.2847 C   0  0  0  0  0  0  0  0  0  0  0  0
    7.4841  -21.3032   20.3225 C   0  0  0  0  0  0  0  0  0  0  0  0
    7.8057  -22.6283   20.8727 N   0  0  0  0  0  0  0  0  0  0  0  0
    8.6972  -15.6208   22.3994 C   0  0  0  0  0  0  0  0  0  0  0  0
    9.8063  -15.0546   22.2403 O   0  0  0  0  0  0  0  0  0  0  0  0
    5.6052  -12.1529   25.1695 C   0  0  0  0  0  0  0  0  0  0  0  0
    6.8082  -12.8135   24.4785 C   0  0  0  0  0  0  0  0  0  0  0  0
    7.4259  -13.8432   25.3730 C   0  0  2  0  0  0  0  0  0  0  0  0
    7.8718  -13.1300   26.6378 C   0  0  0  0  0  0  0  0  0  0  0  0
    8.5144  -14.5891   24.7077 C   0  0  2  0  0  0  0  0  0  0  0  0
    7.9870  -15.4131   23.6045 N   0  0  0  0  0  0  0  0  0  0  0  0
    9.1952  -15.5355   25.6212 C   0  0  0  0  0  0  0  0  0  0  0  0
    8.4650  -16.3734   26.2409 O   0  0  0  0  0  0  0  0  0  0  0  0
   10.3820  -13.5253   28.9259 C   0  0  0  0  0  0  0  0  0  0  0  0
   10.3487  -15.0270   28.7320 C   0  0  2  0  0  0  0  0  0  0  0  0
    9.9204  -15.7917   29.9508 C   0  0  0  0  0  0  0  0  0  0  0  0
   11.4906  -15.5718   27.9764 C   0  0  0  0  0  0  0  0  0  0  0  0
   11.2870  -16.3799   26.7730 C   0  0  2  0  0  0  0  0  0  0  0  0
   10.6053  -15.5280   25.8161 N   0  0  0  0  0  0  0  0  0  0  0  0
   10.7159  -17.7119   26.8752 C   0  0  0  0  0  0  0  0  0  0  0  0
    9.8346  -18.2695   25.9658 O   0  0  0  0  0  0  0  0  0  0  0  0
   11.0097  -18.4524   27.8434 O   0  0  0  0  0  0  0  0  0  0  0  0
  2  3  1  0
  2  1  1  6
  4  3  1  0
  5  4  1  0
  5  6  1  0
  7  6  1  0
  8  9  2  0
  8  2  1  0
 11 10  1  0
 12 11  1  0
 12 14  1  0
 12 13  1  1
 14 15  1  6
 15  8  1  0
 16 14  1  0
 17 16  2  0
 19 18  1  1
 19 21  1  0
 20 19  1  0
 22 21  1  1
 22 23  1  0
 22 24  1  0
 23 16  1  0
 24 25  1  0
 26 24  2  0
M  END
$$$$
