PFP.pdb
     RDKit          3D

 26 28  0  0  1  0  0  0  0  0999 V2000
    9.0877  -17.5651   20.3824 N   0  0  0  0  0  0  0  0  0  0  0  0
    8.9771  -17.6482   18.9591 C   0  0  0  0  0  0  0  0  0  0  0  0
    9.9986  -16.7228   18.3547 C   0  0  0  0  0  0  0  0  0  0  0  0
   10.3376  -15.8159   19.5196 C   0  0  0  0  0  0  0  0  0  0  0  0
   10.2685  -16.7746   20.6834 C   0  0  1  0  0  0  0  0  0  0  0  0
   10.1602  -16.0522   21.9448 C   0  0  0  0  0  0  0  0  0  0  0  0
   11.1384  -15.3746   22.4127 O   0  0  0  0  0  0  0  0  0  0  0  0
    8.9714  -16.0588   22.7156 N   0  0  0  0  0  0  0  0  0  0  0  0
    8.8366  -15.3028   23.9270 C   0  0  1  0  0  0  0  0  0  0  0  0
    7.5462  -14.5166   23.8222 C   0  0  0  0  0  0  0  0  0  0  0  0
    7.3396  -13.6742   25.0236 C   0  0  0  0  0  0  0  0  0  0  0  0
    6.7418  -14.2063   26.1388 C   0  0  0  0  0  0  0  0  0  0  0  0
    6.5410  -13.4410   27.2643 C   0  0  0  0  0  0  0  0  0  0  0  0
    6.9451  -12.1290   27.2680 C   0  0  0  0  0  0  0  0  0  0  0  0
    7.5515  -11.5680   26.1533 C   0  0  0  0  0  0  0  0  0  0  0  0
    7.7346  -12.3652   25.0481 C   0  0  0  0  0  0  0  0  0  0  0  0
    9.0286  -15.9685   25.1903 C   0  0  0  0  0  0  0  0  0  0  0  0
    8.6449  -17.2105   25.1984 O   0  0  0  0  0  0  0  0  0  0  0  0
    9.5459  -15.5500   26.4188 N   0  0  0  0  0  0  0  0  0  0  0  0
    9.3691  -14.2829   27.0731 C   0  0  0  0  0  0  0  0  0  0  0  0
   10.8216  -13.8902   27.3068 C   0  0  0  0  0  0  0  0  0  0  0  0
   11.4377  -15.2456   27.6825 C   0  0  0  0  0  0  0  0  0  0  0  0
   10.4047  -16.2910   27.3499 C   0  0  1  0  0  0  0  0  0  0  0  0
    9.6525  -16.7778   28.5147 C   0  0  0  0  0  0  0  0  0  0  0  0
   10.2247  -17.5052   29.5621 O   0  0  0  0  0  0  0  0  0  0  0  0
    8.4194  -16.5517   28.6204 O   0  0  0  0  0  0  0  0  0  0  0  0
  1  5  1  0
  1  2  1  0
  2  3  1  0
  4  3  1  0
  5  4  1  0
  6  7  2  0
  5  6  1  1
  8  6  1  0
  9  8  1  0
  9 10  1  1
 11 10  1  0
 11 16  1  0
 12 11  2  0
 13 12  1  0
 13 14  2  0
 14 15  1  0
 15 16  2  0
 17  9  1  0
 18 17  2  0
 19 17  1  0
 19 20  1  0
 21 20  1  0
 22 23  1  0
 22 21  1  0
 23 19  1  0
 23 24  1  1
 24 25  1  0
 26 24  2  0
M  END
$$$$
