PFP.pdb
     RDKit          3D

 26 28  0  0  1  0  0  0  0  0999 V2000
    9.3605  -17.6542   20.5557 N   0  0  0  0  0  0  0  0  0  0  0  0
    9.4141  -17.7725   19.1317 C   0  0  0  0  0  0  0  0  0  0  0  0
   10.5703  -16.9463   18.6358 C   0  0  0  0  0  0  0  0  0  0  0  0
   10.8387  -16.0322   19.8135 C   0  0  0  0  0  0  0  0  0  0  0  0
   10.5557  -16.9466   20.9806 C   0  0  1  0  0  0  0  0  0  0  0  0
   10.3553  -16.1796   22.2038 C   0  0  0  0  0  0  0  0  0  0  0  0
   11.3210  -15.5635   22.7719 O   0  0  0  0  0  0  0  0  0  0  0  0
    9.0864  -16.0728   22.8252 N   0  0  0  0  0  0  0  0  0  0  0  0
    8.8842  -15.3347   24.0382 C   0  0  1  0  0  0  0  0  0  0  0  0
    7.5517  -14.6254   23.9132 C   0  0  0  0  0  0  0  0  0  0  0  0
    7.2892  -13.7776   25.0998 C   0  0  0  0  0  0  0  0  0  0  0  0
    6.6645  -14.3122   26.1990 C   0  0  0  0  0  0  0  0  0  0  0  0
    6.4117  -13.5420   27.3106 C   0  0  0  0  0  0  0  0  0  0  0  0
    6.7905  -12.2225   27.3166 C   0  0  0  0  0  0  0  0  0  0  0  0
    7.4233  -11.6589   26.2180 C   0  0  0  0  0  0  0  0  0  0  0  0
    7.6583  -12.4611   25.1263 C   0  0  0  0  0  0  0  0  0  0  0  0
    9.0914  -15.9968   25.3010 C   0  0  0  0  0  0  0  0  0  0  0  0
    8.7588  -17.2534   25.3012 O   0  0  0  0  0  0  0  0  0  0  0  0
    9.5795  -15.5622   26.5358 N   0  0  0  0  0  0  0  0  0  0  0  0
    9.4249  -14.2719   27.1491 C   0  0  0  0  0  0  0  0  0  0  0  0
   10.8813  -13.9233   27.4248 C   0  0  0  0  0  0  0  0  0  0  0  0
   11.4350  -15.2882   27.8588 C   0  0  0  0  0  0  0  0  0  0  0  0
   10.3778  -16.3061   27.5171 C   0  0  1  0  0  0  0  0  0  0  0  0
    9.5680  -16.7337   28.6664 C   0  0  0  0  0  0  0  0  0  0  0  0
   10.0549  -17.5258   29.7099 O   0  0  0  0  0  0  0  0  0  0  0  0
    8.3609  -16.3921   28.7612 O   0  0  0  0  0  0  0  0  0  0  0  0
  1  5  1  0
  1  2  1  0
  2  3  1  0
  4  3  1  0
  5  4  1  0
  6  7  2  0
  5  6  1  1
  8  6  1  0
  9  8  1  0
  9 10  1  1
 11 10  1  0
 11 16  1  0
 12 11  2  0
 13 12  1  0
 13 14  2  0
 14 15  1  0
 15 16  2  0
 17  9  1  0
 18 17  2  0
 19 17  1  0
 19 20  1  0
 21 20  1  0
 22 23  1  0
 22 21  1  0
 23 19  1  0
 23 24  1  1
 24 25  1  0
 26 24  2  0
M  END
$$$$
