PFP.pdb
     RDKit          3D

 26 28  0  0  1  0  0  0  0  0999 V2000
    8.0979  -15.6702   19.6695 N   0  0  0  0  0  0  0  0  0  0  0  0
    7.6966  -15.3430   18.3365 C   0  0  0  0  0  0  0  0  0  0  0  0
    8.3871  -14.0661   17.9391 C   0  0  0  0  0  0  0  0  0  0  0  0
    8.8097  -13.5005   19.2792 C   0  0  0  0  0  0  0  0  0  0  0  0
    9.1616  -14.7541   20.0427 C   0  0  1  0  0  0  0  0  0  0  0  0
    9.2074  -14.4929   21.4760 C   0  0  0  0  0  0  0  0  0  0  0  0
   10.2083  -13.9099   22.0172 O   0  0  0  0  0  0  0  0  0  0  0  0
    8.1502  -14.8658   22.3426 N   0  0  0  0  0  0  0  0  0  0  0  0
    8.1539  -14.5471   23.7410 C   0  0  1  0  0  0  0  0  0  0  0  0
    6.8134  -13.9181   24.0598 C   0  0  0  0  0  0  0  0  0  0  0  0
    6.7818  -13.4152   25.4533 C   0  0  0  0  0  0  0  0  0  0  0  0
    7.1280  -12.1139   25.7199 C   0  0  0  0  0  0  0  0  0  0  0  0
    7.1052  -11.6276   27.0067 C   0  0  0  0  0  0  0  0  0  0  0  0
    6.7309  -12.4575   28.0342 C   0  0  0  0  0  0  0  0  0  0  0  0
    6.3765  -13.7766   27.7905 C   0  0  0  0  0  0  0  0  0  0  0  0
    6.4120  -14.2252   26.4912 C   0  0  0  0  0  0  0  0  0  0  0  0
    8.5822  -15.5487   24.6840 C   0  0  0  0  0  0  0  0  0  0  0  0
    8.2857  -16.7655   24.3359 O   0  0  0  0  0  0  0  0  0  0  0  0
    9.2556  -15.4804   25.9063 N   0  0  0  0  0  0  0  0  0  0  0  0
    9.2887  -14.3920   26.8439 C   0  0  0  0  0  0  0  0  0  0  0  0
   10.7924  -14.2011   26.9890 C   0  0  0  0  0  0  0  0  0  0  0  0
   11.2780  -15.6577   26.9771 C   0  0  0  0  0  0  0  0  0  0  0  0
   10.1039  -16.4957   26.5413 C   0  0  1  0  0  0  0  0  0  0  0  0
    9.4103  -17.1711   27.6468 C   0  0  0  0  0  0  0  0  0  0  0  0
    8.0773  -16.9307   27.9919 O   0  0  0  0  0  0  0  0  0  0  0  0
   10.0089  -18.0233   28.3526 O   0  0  0  0  0  0  0  0  0  0  0  0
  1  5  1  0
  1  2  1  0
  2  3  1  0
  4  3  1  0
  5  4  1  0
  6  7  2  0
  5  6  1  1
  8  6  1  0
  9  8  1  0
  9 10  1  1
 11 10  1  0
 11 16  1  0
 12 11  2  0
 13 12  1  0
 13 14  2  0
 14 15  1  0
 15 16  2  0
 17  9  1  0
 18 17  2  0
 19 17  1  0
 19 20  1  0
 21 20  1  0
 22 23  1  0
 22 21  1  0
 23 19  1  0
 23 24  1  1
 24 25  1  0
 26 24  2  0
M  END
$$$$
