PFP.pdb
     RDKit          3D

 26 28  0  0  1  0  0  0  0  0999 V2000
    8.3449  -15.6943   19.7280 N   0  0  0  0  0  0  0  0  0  0  0  0
    7.9466  -15.4148   18.3834 C   0  0  0  0  0  0  0  0  0  0  0  0
    8.5520  -14.0975   17.9792 C   0  0  0  0  0  0  0  0  0  0  0  0
    8.9081  -13.4849   19.3180 C   0  0  0  0  0  0  0  0  0  0  0  0
    9.3336  -14.6997   20.1064 C   0  0  1  0  0  0  0  0  0  0  0  0
    9.3336  -14.4163   21.5362 C   0  0  0  0  0  0  0  0  0  0  0  0
   10.2757  -13.7483   22.0849 O   0  0  0  0  0  0  0  0  0  0  0  0
    8.2945  -14.8603   22.3910 N   0  0  0  0  0  0  0  0  0  0  0  0
    8.2438  -14.5160   23.7824 C   0  0  1  0  0  0  0  0  0  0  0  0
    6.8641  -13.9529   24.0537 C   0  0  0  0  0  0  0  0  0  0  0  0
    6.7843  -13.3800   25.4179 C   0  0  0  0  0  0  0  0  0  0  0  0
    7.0839  -12.0562   25.6235 C   0  0  0  0  0  0  0  0  0  0  0  0
    7.0158  -11.5051   26.8822 C   0  0  0  0  0  0  0  0  0  0  0  0
    6.6431  -12.2923   27.9433 C   0  0  0  0  0  0  0  0  0  0  0  0
    6.3354  -13.6328   27.7614 C   0  0  0  0  0  0  0  0  0  0  0  0
    6.4152  -14.1466   26.4885 C   0  0  0  0  0  0  0  0  0  0  0  0
    8.6984  -15.4758   24.7560 C   0  0  0  0  0  0  0  0  0  0  0  0
    8.5306  -16.7141   24.3977 O   0  0  0  0  0  0  0  0  0  0  0  0
    9.2867  -15.3484   26.0168 N   0  0  0  0  0  0  0  0  0  0  0  0
    9.1888  -14.2490   26.9370 C   0  0  0  0  0  0  0  0  0  0  0  0
   10.6645  -13.9570   27.1729 C   0  0  0  0  0  0  0  0  0  0  0  0
   11.2442  -15.3782   27.2150 C   0  0  0  0  0  0  0  0  0  0  0  0
   10.1575  -16.2974   26.7201 C   0  0  1  0  0  0  0  0  0  0  0  0
    9.4407  -17.0041   27.7907 C   0  0  0  0  0  0  0  0  0  0  0  0
   10.0019  -18.0282   28.5587 O   0  0  0  0  0  0  0  0  0  0  0  0
    8.2508  -16.7057   28.0695 O   0  0  0  0  0  0  0  0  0  0  0  0
  1  5  1  0
  1  2  1  0
  2  3  1  0
  4  3  1  0
  5  4  1  0
  6  7  2  0
  5  6  1  1
  8  6  1  0
  9  8  1  0
  9 10  1  1
 11 10  1  0
 11 16  1  0
 12 11  2  0
 13 12  1  0
 13 14  2  0
 14 15  1  0
 15 16  2  0
 17  9  1  0
 18 17  2  0
 19 17  1  0
 19 20  1  0
 21 20  1  0
 22 23  1  0
 22 21  1  0
 23 19  1  0
 23 24  1  1
 24 25  1  0
 26 24  2  0
M  END
$$$$
