PFP.pdb
     RDKit          3D

 26 28  0  0  1  0  0  0  0  0999 V2000
    7.8721  -15.5487   19.5016 N   0  0  0  0  0  0  0  0  0  0  0  0
    7.4785  -15.1663   18.1812 C   0  0  0  0  0  0  0  0  0  0  0  0
    8.3080  -13.9797   17.7698 C   0  0  0  0  0  0  0  0  0  0  0  0
    8.8312  -13.4785   19.1000 C   0  0  0  0  0  0  0  0  0  0  0  0
    9.0484  -14.7707   19.8494 C   0  0  1  0  0  0  0  0  0  0  0  0
    9.1631  -14.5267   21.2818 C   0  0  0  0  0  0  0  0  0  0  0  0
   10.1833  -13.9383   21.7797 O   0  0  0  0  0  0  0  0  0  0  0  0
    8.1552  -14.9230   22.1954 N   0  0  0  0  0  0  0  0  0  0  0  0
    8.2028  -14.5825   23.5879 C   0  0  1  0  0  0  0  0  0  0  0  0
    6.9199  -13.8454   23.9121 C   0  0  0  0  0  0  0  0  0  0  0  0
    6.9567  -13.2976   25.2884 C   0  0  0  0  0  0  0  0  0  0  0  0
    7.4846  -12.0510   25.5157 C   0  0  0  0  0  0  0  0  0  0  0  0
    7.5279  -11.5244   26.7860 C   0  0  0  0  0  0  0  0  0  0  0  0
    7.0359  -12.2581   27.8368 C   0  0  0  0  0  0  0  0  0  0  0  0
    6.4974  -13.5204   27.6329 C   0  0  0  0  0  0  0  0  0  0  0  0
    6.4720  -14.0119   26.3491 C   0  0  0  0  0  0  0  0  0  0  0  0
    8.5645  -15.5988   24.5429 C   0  0  0  0  0  0  0  0  0  0  0  0
    8.0380  -16.7628   24.3031 O   0  0  0  0  0  0  0  0  0  0  0  0
    9.3710  -15.5902   25.6838 N   0  0  0  0  0  0  0  0  0  0  0  0
    9.6979  -14.4785   26.5336 C   0  0  0  0  0  0  0  0  0  0  0  0
   11.2184  -14.5564   26.5137 C   0  0  0  0  0  0  0  0  0  0  0  0
   11.4374  -16.0756   26.5570 C   0  0  0  0  0  0  0  0  0  0  0  0
   10.0938  -16.7081   26.3015 C   0  0  1  0  0  0  0  0  0  0  0  0
    9.4199  -17.1879   27.5160 C   0  0  0  0  0  0  0  0  0  0  0  0
    8.2421  -16.6323   28.0236 O   0  0  0  0  0  0  0  0  0  0  0  0
    9.8922  -18.1522   28.1715 O   0  0  0  0  0  0  0  0  0  0  0  0
  1  5  1  0
  1  2  1  0
  2  3  1  0
  4  3  1  0
  5  4  1  0
  6  7  2  0
  5  6  1  1
  8  6  1  0
  9  8  1  0
  9 10  1  1
 11 10  1  0
 11 16  1  0
 12 11  2  0
 13 12  1  0
 13 14  2  0
 14 15  1  0
 15 16  2  0
 17  9  1  0
 18 17  2  0
 19 17  1  0
 19 20  1  0
 21 20  1  0
 22 23  1  0
 22 21  1  0
 23 19  1  0
 23 24  1  1
 24 25  1  0
 26 24  2  0
M  END
$$$$
