PFP.pdb
     RDKit          3D

 26 28  0  0  1  0  0  0  0  0999 V2000
    9.4422  -16.9839   19.9489 N   0  0  0  0  0  0  0  0  0  0  0  0
   10.0138  -17.2881   18.6740 C   0  0  0  0  0  0  0  0  0  0  0  0
   11.5096  -17.3429   18.8319 C   0  0  0  0  0  0  0  0  0  0  0  0
   11.7203  -16.6092   20.1402 C   0  0  0  0  0  0  0  0  0  0  0  0
   10.5102  -17.0423   20.9317 C   0  0  1  0  0  0  0  0  0  0  0  0
   10.2864  -16.1535   22.0651 C   0  0  0  0  0  0  0  0  0  0  0  0
   11.1785  -15.3215   22.4481 O   0  0  0  0  0  0  0  0  0  0  0  0
    9.0741  -16.1607   22.7986 N   0  0  0  0  0  0  0  0  0  0  0  0
    8.8839  -15.3654   23.9770 C   0  0  1  0  0  0  0  0  0  0  0  0
    7.5848  -14.6071   23.7998 C   0  0  0  0  0  0  0  0  0  0  0  0
    7.3287  -13.7169   24.9564 C   0  0  0  0  0  0  0  0  0  0  0  0
    6.7062  -14.2103   26.0759 C   0  0  0  0  0  0  0  0  0  0  0  0
    6.4593  -13.4004   27.1602 C   0  0  0  0  0  0  0  0  0  0  0  0
    6.8420  -12.0827   27.1181 C   0  0  0  0  0  0  0  0  0  0  0  0
    7.4727  -11.5602   25.9982 C   0  0  0  0  0  0  0  0  0  0  0  0
    7.7018  -12.4014   24.9350 C   0  0  0  0  0  0  0  0  0  0  0  0
    9.0427  -15.9830   25.2689 C   0  0  0  0  0  0  0  0  0  0  0  0
    8.6315  -17.2150   25.3214 O   0  0  0  0  0  0  0  0  0  0  0  0
    9.5514  -15.5260   26.4873 N   0  0  0  0  0  0  0  0  0  0  0  0
    9.3907  -14.2307   27.0885 C   0  0  0  0  0  0  0  0  0  0  0  0
   10.8473  -13.8571   27.3274 C   0  0  0  0  0  0  0  0  0  0  0  0
   11.4313  -15.2080   27.7652 C   0  0  0  0  0  0  0  0  0  0  0  0
   10.3825  -16.2458   27.4593 C   0  0  1  0  0  0  0  0  0  0  0  0
    9.6049  -16.6713   28.6314 C   0  0  0  0  0  0  0  0  0  0  0  0
   10.1459  -17.3767   29.7100 O   0  0  0  0  0  0  0  0  0  0  0  0
    8.3774  -16.4089   28.7148 O   0  0  0  0  0  0  0  0  0  0  0  0
  1  5  1  0
  1  2  1  0
  2  3  1  0
  4  3  1  0
  5  4  1  0
  6  7  2  0
  5  6  1  1
  8  6  1  0
  9  8  1  0
  9 10  1  1
 11 10  1  0
 11 16  1  0
 12 11  2  0
 13 12  1  0
 13 14  2  0
 14 15  1  0
 15 16  2  0
 17  9  1  0
 18 17  2  0
 19 17  1  0
 19 20  1  0
 21 20  1  0
 22 23  1  0
 22 21  1  0
 23 19  1  0
 23 24  1  1
 24 25  1  0
 26 24  2  0
M  END
$$$$
