CQL.pdb
     RDKit          3D

 24 23  0  0  1  0  0  0  0  0999 V2000
    9.7070  -14.2862   19.1369 N   0  0  0  0  0  0  0  0  0  0  0  0
    8.4860  -14.0133   19.8289 C   0  0  1  0  0  0  0  0  0  0  0  0
    7.3281  -14.1103   18.8831 C   0  0  0  0  0  0  0  0  0  0  0  0
    7.6041  -12.7948   17.6233 S   0  0  0  0  0  0  0  0  0  0  0  0
    8.3461  -14.9424   21.0198 C   0  0  0  0  0  0  0  0  0  0  0  0
    7.2373  -14.9335   21.5662 O   0  0  0  0  0  0  0  0  0  0  0  0
    9.7142  -20.0988   21.5272 N   0  0  0  0  0  0  0  0  0  0  0  0
   10.2480  -19.2980   20.4547 C   0  0  0  0  0  0  0  0  0  0  0  0
   10.1650  -19.7992   19.3139 O   0  0  0  0  0  0  0  0  0  0  0  0
   10.8300  -17.9841   20.7811 C   0  0  0  0  0  0  0  0  0  0  0  0
   10.7292  -17.5877   22.2176 C   0  0  0  0  0  0  0  0  0  0  0  0
    9.7056  -16.5382   22.5255 C   0  0  2  0  0  0  0  0  0  0  0  0
    9.4173  -15.7091   21.4132 N   0  0  0  0  0  0  0  0  0  0  0  0
    9.8737  -15.8914   23.8486 C   0  0  0  0  0  0  0  0  0  0  0  0
   10.5789  -16.3469   24.7631 O   0  0  0  0  0  0  0  0  0  0  0  0
    7.5319  -12.2794   27.5193 C   0  0  0  0  0  0  0  0  0  0  0  0
    6.7037  -13.2959   26.6894 C   0  0  1  0  0  0  0  0  0  0  0  0
    5.3751  -12.5780   26.4600 C   0  0  0  0  0  0  0  0  0  0  0  0
    7.4548  -13.6449   25.4632 C   0  0  0  0  0  0  0  0  0  0  0  0
    8.7303  -14.3733   25.5409 C   0  0  2  0  0  0  0  0  0  0  0  0
    9.2123  -14.6506   24.1649 N   0  0  0  0  0  0  0  0  0  0  0  0
    8.8322  -15.5766   26.3592 C   0  0  0  0  0  0  0  0  0  0  0  0
    9.4994  -15.7213   27.3916 O   0  0  0  0  0  0  0  0  0  0  0  0
    8.1073  -16.7119   25.9557 O   0  0  0  0  0  0  0  0  0  0  0  0
  2  1  1  6
  2  3  1  0
  3  4  1  0
  5  2  1  0
  6  5  2  0
  7  8  1  0
  8 10  1  0
  9  8  2  0
 10 11  1  0
 12 11  1  6
 12 13  1  0
 13  5  1  0
 14 21  1  0
 14 12  1  0
 15 14  2  0
 17 16  1  1
 18 17  1  0
 20 19  1  6
 19 17  1  0
 20 22  1  0
 20 21  1  0
 22 24  1  0
 23 22  2  0
M  END
$$$$
