CQL.pdb
     RDKit          3D

 24 23  0  0  1  0  0  0  0  0999 V2000
   10.5402  -14.3668   19.0287 N   0  0  0  0  0  0  0  0  0  0  0  0
    9.4146  -13.6122   19.4844 C   0  0  1  0  0  0  0  0  0  0  0  0
    8.3682  -13.5551   18.4137 C   0  0  0  0  0  0  0  0  0  0  0  0
    7.1937  -12.2356   18.9366 S   0  0  0  0  0  0  0  0  0  0  0  0
    8.8899  -14.1962   20.7824 C   0  0  0  0  0  0  0  0  0  0  0  0
    7.9915  -13.5447   21.3269 O   0  0  0  0  0  0  0  0  0  0  0  0
   10.6670  -20.3315   20.9380 N   0  0  0  0  0  0  0  0  0  0  0  0
   11.3229  -19.0509   21.0172 C   0  0  0  0  0  0  0  0  0  0  0  0
   12.5671  -19.0868   21.1185 O   0  0  0  0  0  0  0  0  0  0  0  0
   10.4946  -17.8329   20.9692 C   0  0  0  0  0  0  0  0  0  0  0  0
    9.6191  -17.6170   22.1598 C   0  0  0  0  0  0  0  0  0  0  0  0
    9.1660  -16.2059   22.3783 C   0  0  2  0  0  0  0  0  0  0  0  0
    9.4231  -15.3679   21.2650 N   0  0  0  0  0  0  0  0  0  0  0  0
    9.4583  -15.6735   23.7303 C   0  0  0  0  0  0  0  0  0  0  0  0
   10.5921  -15.3588   24.1259 O   0  0  0  0  0  0  0  0  0  0  0  0
    8.3005  -12.2609   25.4406 C   0  0  0  0  0  0  0  0  0  0  0  0
    7.7090  -12.8326   26.7564 C   0  0  1  0  0  0  0  0  0  0  0  0
    6.3762  -12.1005   26.9017 C   0  0  0  0  0  0  0  0  0  0  0  0
    7.6137  -14.3050   26.6440 C   0  0  0  0  0  0  0  0  0  0  0  0
    8.7286  -15.0941   26.0984 C   0  0  2  0  0  0  0  0  0  0  0  0
    8.4105  -15.4762   24.7000 N   0  0  0  0  0  0  0  0  0  0  0  0
    9.2283  -16.2515   26.8325 C   0  0  0  0  0  0  0  0  0  0  0  0
    8.9993  -17.4435   26.5897 O   0  0  0  0  0  0  0  0  0  0  0  0
   10.0604  -16.0198   27.9420 O   0  0  0  0  0  0  0  0  0  0  0  0
  2  1  1  6
  2  3  1  0
  3  4  1  0
  5  2  1  0
  6  5  2  0
  7  8  1  0
  8 10  1  0
  9  8  2  0
 10 11  1  0
 12 11  1  6
 12 13  1  0
 13  5  1  0
 14 21  1  0
 14 12  1  0
 15 14  2  0
 17 16  1  6
 18 17  1  0
 20 19  1  1
 19 17  1  0
 20 22  1  0
 20 21  1  0
 22 24  1  0
 23 22  2  0
M  END
$$$$
