CQL.pdb
     RDKit          3D

 24 23  0  0  1  0  0  0  0  0999 V2000
    7.6467  -14.9270   18.0797 N   0  0  0  0  0  0  0  0  0  0  0  0
    8.2024  -14.2809   19.2277 C   0  0  1  0  0  0  0  0  0  0  0  0
    7.6309  -12.9030   19.3673 C   0  0  0  0  0  0  0  0  0  0  0  0
    8.4770  -12.1595   20.8251 S   0  0  0  0  0  0  0  0  0  0  0  0
    7.9779  -15.1335   20.4621 C   0  0  0  0  0  0  0  0  0  0  0  0
    6.8067  -15.4762   20.6586 O   0  0  0  0  0  0  0  0  0  0  0  0
   11.7948  -19.6136   21.9961 N   0  0  0  0  0  0  0  0  0  0  0  0
   11.0961  -19.4809   23.2494 C   0  0  0  0  0  0  0  0  0  0  0  0
   11.3398  -20.3628   24.0993 O   0  0  0  0  0  0  0  0  0  0  0  0
   10.1769  -18.3424   23.4245 C   0  0  0  0  0  0  0  0  0  0  0  0
   10.1042  -17.4049   22.2640 C   0  0  0  0  0  0  0  0  0  0  0  0
    9.2149  -16.2143   22.4530 C   0  0  2  0  0  0  0  0  0  0  0  0
    9.0450  -15.4616   21.2647 N   0  0  0  0  0  0  0  0  0  0  0  0
    9.4459  -15.4745   23.7165 C   0  0  0  0  0  0  0  0  0  0  0  0
   10.4746  -14.8263   23.9671 O   0  0  0  0  0  0  0  0  0  0  0  0
    5.8099  -12.3235   26.4184 C   0  0  0  0  0  0  0  0  0  0  0  0
    7.0714  -12.9047   25.7263 C   0  0  1  0  0  0  0  0  0  0  0  0
    8.0245  -11.7133   25.6526 C   0  0  0  0  0  0  0  0  0  0  0  0
    7.5625  -14.0610   26.5083 C   0  0  0  0  0  0  0  0  0  0  0  0
    8.7461  -14.8184   26.0735 C   0  0  2  0  0  0  0  0  0  0  0  0
    8.4571  -15.4559   24.7648 N   0  0  0  0  0  0  0  0  0  0  0  0
    9.3634  -15.7843   26.9757 C   0  0  0  0  0  0  0  0  0  0  0  0
   10.0352  -15.5371   27.9855 O   0  0  0  0  0  0  0  0  0  0  0  0
    9.1966  -17.1514   26.6924 O   0  0  0  0  0  0  0  0  0  0  0  0
  2  1  1  6
  2  3  1  0
  3  4  1  0
  5  2  1  0
  6  5  2  0
  7  8  1  0
  8 10  1  0
  9  8  2  0
 10 11  1  0
 12 11  1  6
 12 13  1  0
 13  5  1  0
 14 21  1  0
 14 12  1  0
 15 14  2  0
 17 16  1  1
 18 17  1  0
 20 19  1  1
 19 17  1  0
 20 22  1  0
 20 21  1  0
 22 24  1  0
 23 22  2  0
M  END
$$$$
