CQL.pdb
     RDKit          3D

 24 23  0  0  1  0  0  0  0  0999 V2000
    7.5143  -13.8776   18.3846 N   0  0  0  0  0  0  0  0  0  0  0  0
    8.6739  -14.0978   19.1915 C   0  0  1  0  0  0  0  0  0  0  0  0
    9.3991  -12.8051   19.4102 C   0  0  0  0  0  0  0  0  0  0  0  0
    8.2346  -11.7360   20.3563 S   0  0  0  0  0  0  0  0  0  0  0  0
    8.2804  -14.7732   20.4915 C   0  0  0  0  0  0  0  0  0  0  0  0
    7.0987  -14.6270   20.8234 O   0  0  0  0  0  0  0  0  0  0  0  0
   11.0979  -20.0922   21.8077 N   0  0  0  0  0  0  0  0  0  0  0  0
   10.4716  -19.8512   23.0830 C   0  0  0  0  0  0  0  0  0  0  0  0
   10.5623  -20.7798   23.9131 O   0  0  0  0  0  0  0  0  0  0  0  0
    9.7954  -18.5601   23.3010 C   0  0  0  0  0  0  0  0  0  0  0  0
    9.9640  -17.5648   22.2003 C   0  0  0  0  0  0  0  0  0  0  0  0
    9.2056  -16.2839   22.3687 C   0  0  2  0  0  0  0  0  0  0  0  0
    9.2219  -15.4787   21.2029 N   0  0  0  0  0  0  0  0  0  0  0  0
    9.4158  -15.6176   23.6759 C   0  0  0  0  0  0  0  0  0  0  0  0
   10.4538  -15.0150   23.9927 O   0  0  0  0  0  0  0  0  0  0  0  0
    5.2352  -12.9315   26.0683 C   0  0  0  0  0  0  0  0  0  0  0  0
    6.6351  -13.2621   25.4859 C   0  0  1  0  0  0  0  0  0  0  0  0
    7.3303  -11.9034   25.4231 C   0  0  0  0  0  0  0  0  0  0  0  0
    7.2916  -14.2700   26.3476 C   0  0  0  0  0  0  0  0  0  0  0  0
    8.5758  -14.8733   25.9598 C   0  0  2  0  0  0  0  0  0  0  0  0
    8.3936  -15.6227   24.6918 N   0  0  0  0  0  0  0  0  0  0  0  0
    9.3175  -15.6846   26.9189 C   0  0  0  0  0  0  0  0  0  0  0  0
    9.8303  -15.3026   27.9787 O   0  0  0  0  0  0  0  0  0  0  0  0
    9.4868  -17.0512   26.6350 O   0  0  0  0  0  0  0  0  0  0  0  0
  2  1  1  6
  2  3  1  0
  3  4  1  0
  5  2  1  0
  6  5  2  0
  7  8  1  0
  8 10  1  0
  9  8  2  0
 10 11  1  0
 12 11  1  6
 12 13  1  0
 13  5  1  0
 14 21  1  0
 14 12  1  0
 15 14  2  0
 17 16  1  1
 18 17  1  0
 20 19  1  1
 19 17  1  0
 20 22  1  0
 20 21  1  0
 22 24  1  0
 23 22  2  0
M  END
$$$$
