CQL.pdb
     RDKit          3D

 24 23  0  0  1  0  0  0  0  0999 V2000
    8.4987  -15.2643   17.7851 N   0  0  0  0  0  0  0  0  0  0  0  0
    8.5503  -14.5069   18.9966 C   0  0  1  0  0  0  0  0  0  0  0  0
    7.8338  -13.2034   18.8171 C   0  0  0  0  0  0  0  0  0  0  0  0
    8.1166  -12.2624   20.3755 S   0  0  0  0  0  0  0  0  0  0  0  0
    7.9922  -15.3263   20.1447 C   0  0  0  0  0  0  0  0  0  0  0  0
    6.8666  -15.8003   19.9540 O   0  0  0  0  0  0  0  0  0  0  0  0
    9.6827  -20.3007   22.3098 N   0  0  0  0  0  0  0  0  0  0  0  0
   10.6802  -19.3269   21.9449 C   0  0  0  0  0  0  0  0  0  0  0  0
   11.7868  -19.7911   21.5993 O   0  0  0  0  0  0  0  0  0  0  0  0
   10.3223  -17.8985   22.0035 C   0  0  0  0  0  0  0  0  0  0  0  0
    8.9237  -17.6152   22.4441 C   0  0  0  0  0  0  0  0  0  0  0  0
    8.5537  -16.1655   22.5200 C   0  0  2  0  0  0  0  0  0  0  0  0
    8.7362  -15.4870   21.2896 N   0  0  0  0  0  0  0  0  0  0  0  0
    8.9985  -15.4863   23.7601 C   0  0  0  0  0  0  0  0  0  0  0  0
   10.1409  -15.0335   23.9361 O   0  0  0  0  0  0  0  0  0  0  0  0
    5.7481  -12.0921   26.6001 C   0  0  0  0  0  0  0  0  0  0  0  0
    6.9491  -12.7219   25.8456 C   0  0  1  0  0  0  0  0  0  0  0  0
    7.8773  -11.5360   25.5901 C   0  0  0  0  0  0  0  0  0  0  0  0
    7.5223  -13.8084   26.6705 C   0  0  0  0  0  0  0  0  0  0  0  0
    8.5776  -14.6838   26.1381 C   0  0  2  0  0  0  0  0  0  0  0  0
    8.1027  -15.2980   24.8733 N   0  0  0  0  0  0  0  0  0  0  0  0
    9.1794  -15.7008   26.9936 C   0  0  0  0  0  0  0  0  0  0  0  0
    9.8125  -15.5140   28.0407 O   0  0  0  0  0  0  0  0  0  0  0  0
    9.0446  -17.0474   26.6122 O   0  0  0  0  0  0  0  0  0  0  0  0
  2  1  1  6
  2  3  1  0
  3  4  1  0
  5  2  1  0
  6  5  2  0
  7  8  1  0
  8 10  1  0
  9  8  2  0
 10 11  1  0
 12 11  1  6
 12 13  1  0
 13  5  1  0
 14 21  1  0
 14 12  1  0
 15 14  2  0
 17 16  1  1
 18 17  1  0
 20 19  1  1
 19 17  1  0
 20 22  1  0
 20 21  1  0
 22 24  1  0
 23 22  2  0
M  END
$$$$
