CQL.pdb
     RDKit          3D

 24 23  0  0  1  0  0  0  0  0999 V2000
    7.4588  -16.2523   18.6975 N   0  0  0  0  0  0  0  0  0  0  0  0
    7.7482  -15.3395   19.7591 C   0  0  1  0  0  0  0  0  0  0  0  0
    7.3033  -13.9590   19.3837 C   0  0  0  0  0  0  0  0  0  0  0  0
    8.5792  -13.3265   18.2149 S   0  0  0  0  0  0  0  0  0  0  0  0
    7.1147  -15.8262   21.0486 C   0  0  0  0  0  0  0  0  0  0  0  0
    5.9085  -16.0866   20.9764 O   0  0  0  0  0  0  0  0  0  0  0  0
    7.5997  -20.6199   24.0128 N   0  0  0  0  0  0  0  0  0  0  0  0
    7.3868  -19.8173   25.1905 C   0  0  0  0  0  0  0  0  0  0  0  0
    7.1887  -20.4519   26.2477 O   0  0  0  0  0  0  0  0  0  0  0  0
    7.4233  -18.3501   25.0572 C   0  0  0  0  0  0  0  0  0  0  0  0
    7.6036  -17.8467   23.6626 C   0  0  0  0  0  0  0  0  0  0  0  0
    7.6511  -16.3565   23.5171 C   0  0  2  0  0  0  0  0  0  0  0  0
    7.8840  -15.9423   22.1822 N   0  0  0  0  0  0  0  0  0  0  0  0
    8.3881  -15.6610   24.5987 C   0  0  0  0  0  0  0  0  0  0  0  0
    9.6168  -15.7302   24.7618 O   0  0  0  0  0  0  0  0  0  0  0  0
    5.9578  -11.2285   27.1716 C   0  0  0  0  0  0  0  0  0  0  0  0
    6.8330  -12.1705   26.3029 C   0  0  1  0  0  0  0  0  0  0  0  0
    7.6666  -11.2106   25.4561 C   0  0  0  0  0  0  0  0  0  0  0  0
    7.6065  -13.0669   27.1904 C   0  0  0  0  0  0  0  0  0  0  0  0
    8.4512  -14.1349   26.6341 C   0  0  2  0  0  0  0  0  0  0  0  0
    7.7037  -14.8294   25.5564 N   0  0  0  0  0  0  0  0  0  0  0  0
    9.0694  -15.1114   27.5243 C   0  0  0  0  0  0  0  0  0  0  0  0
    9.9901  -14.9101   28.3267 O   0  0  0  0  0  0  0  0  0  0  0  0
    8.5906  -16.4329   27.4879 O   0  0  0  0  0  0  0  0  0  0  0  0
  2  1  1  6
  2  3  1  0
  3  4  1  0
  5  2  1  0
  6  5  2  0
  7  8  1  0
  8 10  1  0
  9  8  2  0
 10 11  1  0
 12 11  1  6
 12 13  1  0
 13  5  1  0
 14 21  1  0
 14 12  1  0
 15 14  2  0
 17 16  1  1
 18 17  1  0
 20 19  1  1
 19 17  1  0
 20 22  1  0
 20 21  1  0
 22 24  1  0
 23 22  2  0
M  END
$$$$
