GSR.pdb
     RDKit          3D

 22 21  0  0  1  0  0  0  0  0999 V2000
    8.7674  -13.7096   15.8449 N   0  0  0  0  0  0  0  0  0  0  0  0
    7.6804  -13.8190   16.7887 C   0  0  0  0  0  0  0  0  0  0  0  0
    8.2985  -13.9260   18.1659 C   0  0  0  0  0  0  0  0  0  0  0  0
    9.5208  -14.1895   18.2883 O   0  0  0  0  0  0  0  0  0  0  0  0
    7.6150  -13.5753   22.9557 O   0  0  0  0  0  0  0  0  0  0  0  0
    7.0093  -13.4783   21.6861 C   0  0  0  0  0  0  0  0  0  0  0  0
    8.0397  -13.8971   20.6655 C   0  0  2  0  0  0  0  0  0  0  0  0
    7.5212  -13.7337   19.3299 N   0  0  0  0  0  0  0  0  0  0  0  0
    8.5525  -15.2567   20.9321 C   0  0  0  0  0  0  0  0  0  0  0  0
    7.8824  -16.2663   20.5877 O   0  0  0  0  0  0  0  0  0  0  0  0
   16.1588  -18.8901   21.7866 N   0  0  0  0  0  0  0  0  0  0  0  0
   15.5885  -19.4598   20.6020 C   0  0  0  0  0  0  0  0  0  0  0  0
   16.3977  -19.9257   19.7287 N   0  0  0  0  0  0  0  0  0  0  0  0
   14.1931  -19.4831   20.4508 N   0  0  0  0  0  0  0  0  0  0  0  0
   13.5207  -18.1730   20.2738 C   0  0  0  0  0  0  0  0  0  0  0  0
   12.4481  -18.0359   21.2954 C   0  0  0  0  0  0  0  0  0  0  0  0
   11.4723  -16.9727   21.1073 C   0  0  0  0  0  0  0  0  0  0  0  0
   10.2480  -16.8537   21.9092 C   0  0  2  0  0  0  0  0  0  0  0  0
    9.7829  -15.4433   21.5687 N   0  0  0  0  0  0  0  0  0  0  0  0
   10.2577  -16.8701   23.3518 C   0  0  0  0  0  0  0  0  0  0  0  0
   10.5431  -17.9584   23.9698 O   0  0  0  0  0  0  0  0  0  0  0  0
    9.9909  -15.7887   24.1700 O   0  0  0  0  0  0  0  0  0  0  0  0
  1  2  1  0
  2  3  1  0
  3  4  2  0
  3  8  1  0
  5  6  1  0
  7  6  1  1
  7  9  1  0
  8  7  1  0
  9 10  2  0
  9 19  1  0
 11 12  1  0
 12 13  2  0
 12 14  1  0
 14 15  1  0
 15 16  1  0
 17 16  1  0
 18 17  1  6
 18 20  1  0
 19 18  1  0
 20 22  1  0
 21 20  2  0
M  END
$$$$
