GSR.pdb
     RDKit          3D

 22 21  0  0  1  0  0  0  0  0999 V2000
    9.8841  -17.0490   11.8696 N   0  0  0  0  0  0  0  0  0  0  0  0
   10.9007  -16.3178   12.5878 C   0  0  0  0  0  0  0  0  0  0  0  0
   11.9065  -17.3321   13.0874 C   0  0  0  0  0  0  0  0  0  0  0  0
   11.5199  -18.3311   13.7438 O   0  0  0  0  0  0  0  0  0  0  0  0
   15.8808  -16.4094   12.7955 O   0  0  0  0  0  0  0  0  0  0  0  0
   15.6286  -17.7938   12.7063 C   0  0  0  0  0  0  0  0  0  0  0  0
   14.2982  -18.0502   13.3716 C   0  0  2  0  0  0  0  0  0  0  0  0
   13.2868  -17.1776   12.8282 N   0  0  0  0  0  0  0  0  0  0  0  0
   14.4006  -17.9819   14.8438 C   0  0  0  0  0  0  0  0  0  0  0  0
   14.0250  -16.9487   15.4587 O   0  0  0  0  0  0  0  0  0  0  0  0
   12.8197  -23.2083   19.3112 N   0  0  0  0  0  0  0  0  0  0  0  0
   11.6484  -22.6278   19.8978 C   0  0  0  0  0  0  0  0  0  0  0  0
   10.7323  -23.4286   20.2901 N   0  0  0  0  0  0  0  0  0  0  0  0
   11.5555  -21.2321   20.0159 N   0  0  0  0  0  0  0  0  0  0  0  0
   11.6043  -20.4527   18.7549 C   0  0  0  0  0  0  0  0  0  0  0  0
   12.9240  -19.7735   18.6548 C   0  0  0  0  0  0  0  0  0  0  0  0
   13.5392  -19.6904   17.3386 C   0  0  0  0  0  0  0  0  0  0  0  0
   14.8338  -19.0414   17.0954 C   0  0  2  0  0  0  0  0  0  0  0  0
   14.9147  -19.0574   15.5740 N   0  0  0  0  0  0  0  0  0  0  0  0
   16.0867  -19.6245   17.5093 C   0  0  0  0  0  0  0  0  0  0  0  0
   16.5772  -20.6069   16.8444 O   0  0  0  0  0  0  0  0  0  0  0  0
   16.8497  -19.2109   18.5849 O   0  0  0  0  0  0  0  0  0  0  0  0
  1  2  1  0
  2  3  1  0
  3  4  2  0
  3  8  1  0
  5  6  1  0
  7  6  1  6
  7  9  1  0
  8  7  1  0
  9 10  2  0
  9 19  1  0
 11 12  1  0
 12 13  2  0
 12 14  1  0
 14 15  1  0
 15 16  1  0
 17 16  1  0
 18 17  1  6
 18 20  1  0
 19 18  1  0
 20 22  1  0
 21 20  2  0
M  END
$$$$
