GSR.pdb
     RDKit          3D

 22 21  0  0  1  0  0  0  0  0999 V2000
    7.0593  -22.6013   22.7822 N   0  0  0  0  0  0  0  0  0  0  0  0
    7.8140  -21.3707   22.7686 C   0  0  0  0  0  0  0  0  0  0  0  0
    8.9684  -21.5484   23.7308 C   0  0  0  0  0  0  0  0  0  0  0  0
    8.9767  -22.5161   24.5320 O   0  0  0  0  0  0  0  0  0  0  0  0
   12.0568  -18.6901   24.0258 O   0  0  0  0  0  0  0  0  0  0  0  0
   12.3936  -20.0577   23.9603 C   0  0  0  0  0  0  0  0  0  0  0  0
   11.2363  -20.8320   24.5431 C   0  0  2  0  0  0  0  0  0  0  0  0
   10.0493  -20.6387   23.7473 N   0  0  0  0  0  0  0  0  0  0  0  0
   11.0379  -20.5247   25.9744 C   0  0  0  0  0  0  0  0  0  0  0  0
   10.1747  -19.6780   26.3278 O   0  0  0  0  0  0  0  0  0  0  0  0
    9.2110  -25.4376   30.6139 N   0  0  0  0  0  0  0  0  0  0  0  0
    9.5925  -24.9426   31.9032 C   0  0  0  0  0  0  0  0  0  0  0  0
    8.8085  -25.1929   32.8816 N   0  0  0  0  0  0  0  0  0  0  0  0
   10.7869  -24.2174   32.0379 N   0  0  0  0  0  0  0  0  0  0  0  0
   11.5491  -23.9531   30.7933 C   0  0  0  0  0  0  0  0  0  0  0  0
   11.2138  -22.5908   30.2988 C   0  0  0  0  0  0  0  0  0  0  0  0
   11.8368  -22.1536   29.0584 C   0  0  0  0  0  0  0  0  0  0  0  0
   11.5475  -20.8605   28.4254 C   0  0  2  0  0  0  0  0  0  0  0  0
   11.8023  -21.1646   26.9544 N   0  0  0  0  0  0  0  0  0  0  0  0
   12.3386  -19.6793   28.6710 C   0  0  0  0  0  0  0  0  0  0  0  0
   13.2930  -19.3791   27.8669 O   0  0  0  0  0  0  0  0  0  0  0  0
   12.1608  -18.7962   29.7191 O   0  0  0  0  0  0  0  0  0  0  0  0
  1  2  1  0
  2  3  1  0
  3  4  2  0
  3  8  1  0
  5  6  1  0
  7  6  1  6
  7  9  1  0
  8  7  1  0
  9 10  2  0
  9 19  1  0
 11 12  1  0
 12 13  2  0
 12 14  1  0
 14 15  1  0
 15 16  1  0
 17 16  1  0
 18 17  1  1
 18 20  1  0
 19 18  1  0
 20 22  1  0
 21 20  2  0
M  END
$$$$
