GSR.pdb
     RDKit          3D

 22 21  0  0  1  0  0  0  0  0999 V2000
    6.8268  -12.4552   18.8474 N   0  0  0  0  0  0  0  0  0  0  0  0
    8.2705  -12.4575   18.8412 C   0  0  0  0  0  0  0  0  0  0  0  0
    8.7141  -13.7625   19.4660 C   0  0  0  0  0  0  0  0  0  0  0  0
    7.8938  -14.4624   20.1108 O   0  0  0  0  0  0  0  0  0  0  0  0
   12.8046  -14.9884   19.7110 O   0  0  0  0  0  0  0  0  0  0  0  0
   11.8171  -15.8675   19.2211 C   0  0  0  0  0  0  0  0  0  0  0  0
   10.5094  -15.4753   19.8651 C   0  0  2  0  0  0  0  0  0  0  0  0
   10.0462  -14.2155   19.3380 N   0  0  0  0  0  0  0  0  0  0  0  0
   10.5981  -15.4957   21.3396 C   0  0  0  0  0  0  0  0  0  0  0  0
   10.9636  -14.4667   21.9676 O   0  0  0  0  0  0  0  0  0  0  0  0
    6.0213  -20.1259   28.0958 N   0  0  0  0  0  0  0  0  0  0  0  0
    7.2731  -20.4271   27.4673 C   0  0  0  0  0  0  0  0  0  0  0  0
    7.5653  -21.6613   27.3066 N   0  0  0  0  0  0  0  0  0  0  0  0
    8.1115  -19.3768   27.0614 N   0  0  0  0  0  0  0  0  0  0  0  0
    8.1402  -19.0706   25.6105 C   0  0  0  0  0  0  0  0  0  0  0  0
    9.1666  -18.0245   25.3553 C   0  0  0  0  0  0  0  0  0  0  0  0
    9.4093  -17.6440   23.9718 C   0  0  0  0  0  0  0  0  0  0  0  0
   10.4239  -16.6596   23.5746 C   0  0  2  0  0  0  0  0  0  0  0  0
   10.2805  -16.6522   22.0578 N   0  0  0  0  0  0  0  0  0  0  0  0
   11.8359  -16.8701   23.7822 C   0  0  0  0  0  0  0  0  0  0  0  0
   12.4960  -17.5939   22.9526 O   0  0  0  0  0  0  0  0  0  0  0  0
   12.5837  -16.3429   24.8180 O   0  0  0  0  0  0  0  0  0  0  0  0
  1  2  1  0
  2  3  1  0
  3  4  2  0
  3  8  1  0
  5  6  1  0
  7  6  1  6
  7  9  1  0
  8  7  1  0
  9 10  2  0
  9 19  1  0
 11 12  1  0
 12 13  2  0
 12 14  1  0
 14 15  1  0
 15 16  1  0
 17 16  1  0
 18 17  1  1
 18 20  1  0
 19 18  1  0
 20 22  1  0
 21 20  2  0
M  END
$$$$
