GSR.pdb
     RDKit          3D

 22 21  0  0  1  0  0  0  0  0999 V2000
    5.1138  -21.8400   23.6704 N   0  0  0  0  0  0  0  0  0  0  0  0
    5.3246  -21.1505   24.9211 C   0  0  0  0  0  0  0  0  0  0  0  0
    6.7553  -20.6573   24.9195 C   0  0  0  0  0  0  0  0  0  0  0  0
    7.5188  -20.9443   23.9639 O   0  0  0  0  0  0  0  0  0  0  0  0
    8.1426  -18.4427   28.1404 O   0  0  0  0  0  0  0  0  0  0  0  0
    8.7033  -18.1469   26.8809 C   0  0  0  0  0  0  0  0  0  0  0  0
    8.6180  -19.4023   26.0471 C   0  0  2  0  0  0  0  0  0  0  0  0
    7.2562  -19.8721   25.9819 N   0  0  0  0  0  0  0  0  0  0  0  0
    9.5710  -20.4320   26.5096 C   0  0  0  0  0  0  0  0  0  0  0  0
    9.2459  -21.2304   27.4282 O   0  0  0  0  0  0  0  0  0  0  0  0
   10.7438  -27.0688   22.7616 N   0  0  0  0  0  0  0  0  0  0  0  0
   11.7366  -27.3198   23.7638 C   0  0  0  0  0  0  0  0  0  0  0  0
   12.1474  -28.5237   23.8919 N   0  0  0  0  0  0  0  0  0  0  0  0
   12.2086  -26.2560   24.5487 N   0  0  0  0  0  0  0  0  0  0  0  0
   11.4983  -24.9612   24.4117 C   0  0  0  0  0  0  0  0  0  0  0  0
   12.2234  -23.9245   25.1942 C   0  0  0  0  0  0  0  0  0  0  0  0
   11.6718  -22.5779   25.1995 C   0  0  0  0  0  0  0  0  0  0  0  0
   11.7641  -21.6755   26.3543 C   0  0  2  0  0  0  0  0  0  0  0  0
   10.8428  -20.5352   25.9389 N   0  0  0  0  0  0  0  0  0  0  0  0
   12.9879  -21.0072   26.7241 C   0  0  0  0  0  0  0  0  0  0  0  0
   13.5096  -20.1530   25.9204 O   0  0  0  0  0  0  0  0  0  0  0  0
   13.6788  -21.1913   27.9069 O   0  0  0  0  0  0  0  0  0  0  0  0
  1  2  1  0
  2  3  1  0
  3  4  2  0
  3  8  1  0
  5  6  1  0
  7  6  1  1
  7  9  1  0
  8  7  1  0
  9 10  2  0
  9 19  1  0
 11 12  1  0
 12 13  2  0
 12 14  1  0
 14 15  1  0
 15 16  1  0
 17 16  1  0
 18 17  1  6
 18 20  1  0
 19 18  1  0
 20 22  1  0
 21 20  2  0
M  END
$$$$
