GSR.pdb
     RDKit          3D

 22 21  0  0  1  0  0  0  0  0999 V2000
    1.8248  -19.5423   21.0177 N   0  0  0  0  0  0  0  0  0  0  0  0
    2.2667  -18.1982   21.3048 C   0  0  0  0  0  0  0  0  0  0  0  0
    3.7785  -18.2320   21.3634 C   0  0  0  0  0  0  0  0  0  0  0  0
    4.3802  -19.3307   21.4602 O   0  0  0  0  0  0  0  0  0  0  0  0
    5.9410  -14.7001   20.9689 O   0  0  0  0  0  0  0  0  0  0  0  0
    6.5338  -15.9046   20.5378 C   0  0  0  0  0  0  0  0  0  0  0  0
    5.9752  -17.0116   21.3988 C   0  0  2  0  0  0  0  0  0  0  0  0
    4.5362  -17.0406   21.3109 N   0  0  0  0  0  0  0  0  0  0  0  0
    6.4754  -16.9305   22.7865 C   0  0  0  0  0  0  0  0  0  0  0  0
    5.7791  -16.3807   23.6808 O   0  0  0  0  0  0  0  0  0  0  0  0
    9.0578  -21.6516   27.7796 N   0  0  0  0  0  0  0  0  0  0  0  0
    8.1383  -21.2187   28.7896 C   0  0  0  0  0  0  0  0  0  0  0  0
    8.3512  -21.6189   29.9850 N   0  0  0  0  0  0  0  0  0  0  0  0
    7.0627  -20.3899   28.4337 N   0  0  0  0  0  0  0  0  0  0  0  0
    6.8367  -20.1787   26.9831 C   0  0  0  0  0  0  0  0  0  0  0  0
    7.6136  -18.9905   26.5387 C   0  0  0  0  0  0  0  0  0  0  0  0
    7.4678  -18.5718   25.1526 C   0  0  0  0  0  0  0  0  0  0  0  0
    8.1847  -17.4257   24.5790 C   0  0  2  0  0  0  0  0  0  0  0  0
    7.7238  -17.4591   23.1272 N   0  0  0  0  0  0  0  0  0  0  0  0
    9.6230  -17.3782   24.4789 C   0  0  0  0  0  0  0  0  0  0  0  0
   10.1910  -17.7033   23.3747 O   0  0  0  0  0  0  0  0  0  0  0  0
   10.4869  -16.9928   25.4866 O   0  0  0  0  0  0  0  0  0  0  0  0
  1  2  1  0
  2  3  1  0
  3  4  2  0
  3  8  1  0
  5  6  1  0
  7  6  1  6
  7  9  1  0
  8  7  1  0
  9 10  2  0
  9 19  1  0
 11 12  1  0
 12 13  2  0
 12 14  1  0
 14 15  1  0
 15 16  1  0
 17 16  1  0
 18 17  1  1
 18 20  1  0
 19 18  1  0
 20 22  1  0
 21 20  2  0
M  END
$$$$
