IKW.pdb
     RDKit          3D

 32 33  0  0  1  0  0  0  0  0999 V2000
    7.4997  -11.7217   19.2680 C   0  0  0  0  0  0  0  0  0  0  0  0
    7.4639  -13.2060   19.1046 C   0  0  0  0  0  0  0  0  0  0  0  0
    8.0886  -13.9300   20.3136 C   0  0  2  0  0  0  0  0  0  0  0  0
    9.4959  -13.4664   20.4950 C   0  0  0  0  0  0  0  0  0  0  0  0
    7.9394  -15.3998   20.0015 C   0  0  2  0  0  0  0  0  0  0  0  0
    6.4873  -15.6147   19.8982 N   0  0  0  0  0  0  0  0  0  0  0  0
    8.5334  -16.3080   20.9827 C   0  0  0  0  0  0  0  0  0  0  0  0
    7.8633  -16.6194   22.0317 O   0  0  0  0  0  0  0  0  0  0  0  0
    9.8096  -16.9134   20.9161 N   0  0  0  0  0  0  0  0  0  0  0  0
   10.3781  -17.6814   22.0123 C   0  0  1  0  0  0  0  0  0  0  0  0
   11.3449  -18.7455   21.5497 C   0  0  0  0  0  0  0  0  0  0  0  0
   10.8792  -19.3859   20.2629 C   0  0  0  0  0  0  0  0  0  0  0  0
   11.8953  -20.3760   19.7737 C   0  0  0  0  0  0  0  0  0  0  0  0
   11.4950  -21.0502   18.4843 C   0  0  0  0  0  0  0  0  0  0  0  0
   11.1293  -22.4299   18.8411 N   0  0  0  0  0  0  0  0  0  0  0  0
   11.0593  -16.7224   22.9593 C   0  0  0  0  0  0  0  0  0  0  0  0
   11.5074  -15.6255   22.5450 O   0  0  0  0  0  0  0  0  0  0  0  0
   11.2073  -17.0401   24.3351 N   0  0  0  0  0  0  0  0  0  0  0  0
   10.6759  -16.2561   25.4258 C   0  0  1  0  0  0  0  0  0  0  0  0
    9.3531  -15.6484   25.1329 C   0  0  0  0  0  0  0  0  0  0  0  0
    8.9495  -14.7258   26.2098 C   0  0  0  0  0  0  0  0  0  0  0  0
    9.4874  -14.6566   27.4756 C   0  0  0  0  0  0  0  0  0  0  0  0
    8.8581  -13.7032   28.1591 N   0  0  0  0  0  0  0  0  0  0  0  0
    7.9157  -13.1458   27.3617 C   0  0  0  0  0  0  0  0  0  0  0  0
    7.0175  -12.1252   27.6275 C   0  0  0  0  0  0  0  0  0  0  0  0
    6.1469  -11.7351   26.6325 C   0  0  0  0  0  0  0  0  0  0  0  0
    6.1886  -12.3672   25.3972 C   0  0  0  0  0  0  0  0  0  0  0  0
    7.0734  -13.3818   25.1152 C   0  0  0  0  0  0  0  0  0  0  0  0
    7.9555  -13.7764   26.1250 C   0  0  0  0  0  0  0  0  0  0  0  0
   10.7162  -17.0426   26.7037 C   0  0  0  0  0  0  0  0  0  0  0  0
   10.2199  -18.1860   26.8034 O   0  0  0  0  0  0  0  0  0  0  0  0
   11.3141  -16.5224   27.8345 O   0  0  0  0  0  0  0  0  0  0  0  0
  2  1  1  0
  3  2  1  0
  3  4  1  6
  5  3  1  0
  5  6  1  1
  7  8  2  0
  7  5  1  0
  9  7  1  0
 10 16  1  0
 10  9  1  0
 10 11  1  6
 12 11  1  0
 12 13  1  0
 14 13  1  0
 14 15  1  0
 16 17  2  0
 18 19  1  0
 18 16  1  0
 19 20  1  6
 20 21  1  0
 21 22  2  0
 21 29  1  0
 22 23  1  0
 23 24  1  0
 24 25  2  0
 25 26  1  0
 27 26  2  0
 28 27  1  0
 29 28  2  0
 29 24  1  0
 30 19  1  0
 31 30  2  0
 32 30  1  0
M  END
$$$$
