IKW.pdb
     RDKit          3D

 32 33  0  0  1  0  0  0  0  0999 V2000
    7.2817  -11.6578   19.2257 C   0  0  0  0  0  0  0  0  0  0  0  0
    7.7302  -13.0660   19.0093 C   0  0  0  0  0  0  0  0  0  0  0  0
    7.6702  -13.8919   20.3095 C   0  0  2  0  0  0  0  0  0  0  0  0
    8.4998  -13.2264   21.3571 C   0  0  0  0  0  0  0  0  0  0  0  0
    8.1372  -15.2716   19.9114 C   0  0  2  0  0  0  0  0  0  0  0  0
    7.1880  -15.7024   18.8727 N   0  0  0  0  0  0  0  0  0  0  0  0
    8.1980  -16.2466   21.0004 C   0  0  0  0  0  0  0  0  0  0  0  0
    7.1107  -16.6034   21.5809 O   0  0  0  0  0  0  0  0  0  0  0  0
    9.3561  -16.8737   21.5151 N   0  0  0  0  0  0  0  0  0  0  0  0
    9.3320  -17.7440   22.6799 C   0  0  1  0  0  0  0  0  0  0  0  0
   10.1231  -19.0155   22.4845 C   0  0  0  0  0  0  0  0  0  0  0  0
    9.2733  -20.0987   21.8624 C   0  0  0  0  0  0  0  0  0  0  0  0
    9.2590  -19.9591   20.3683 C   0  0  0  0  0  0  0  0  0  0  0  0
    8.4567  -21.0353   19.6787 C   0  0  0  0  0  0  0  0  0  0  0  0
    8.5107  -20.7272   18.2411 N   0  0  0  0  0  0  0  0  0  0  0  0
    9.8608  -16.9675   23.8623 C   0  0  0  0  0  0  0  0  0  0  0  0
   10.7402  -16.0857   23.7060 O   0  0  0  0  0  0  0  0  0  0  0  0
    9.3759  -17.2178   25.1731 N   0  0  0  0  0  0  0  0  0  0  0  0
    9.9754  -16.7121   26.3862 C   0  0  1  0  0  0  0  0  0  0  0  0
    8.9863  -16.3478   27.4320 C   0  0  0  0  0  0  0  0  0  0  0  0
    7.8904  -15.5438   26.8605 C   0  0  0  0  0  0  0  0  0  0  0  0
    6.7320  -16.0229   26.2907 C   0  0  0  0  0  0  0  0  0  0  0  0
    5.9924  -14.9921   25.8875 N   0  0  0  0  0  0  0  0  0  0  0  0
    6.6474  -13.8441   26.1836 C   0  0  0  0  0  0  0  0  0  0  0  0
    6.2793  -12.5278   25.9585 C   0  0  0  0  0  0  0  0  0  0  0  0
    7.1353  -11.5243   26.3593 C   0  0  0  0  0  0  0  0  0  0  0  0
    8.3362  -11.8514   26.9741 C   0  0  0  0  0  0  0  0  0  0  0  0
    8.7181  -13.1522   27.2060 C   0  0  0  0  0  0  0  0  0  0  0  0
    7.8493  -14.1686   26.7991 C   0  0  0  0  0  0  0  0  0  0  0  0
   11.0536  -17.6411   26.8637 C   0  0  0  0  0  0  0  0  0  0  0  0
   11.2181  -18.7824   26.3799 O   0  0  0  0  0  0  0  0  0  0  0  0
   11.9177  -17.2612   27.8715 O   0  0  0  0  0  0  0  0  0  0  0  0
  2  1  1  0
  3  2  1  0
  3  4  1  1
  5  3  1  0
  5  6  1  6
  7  8  2  0
  7  5  1  0
  9  7  1  0
 10 16  1  0
 10  9  1  0
 10 11  1  6
 12 11  1  0
 12 13  1  0
 14 13  1  0
 14 15  1  0
 16 17  2  0
 18 19  1  0
 18 16  1  0
 19 20  1  1
 20 21  1  0
 21 22  2  0
 21 29  1  0
 22 23  1  0
 23 24  1  0
 24 25  2  0
 25 26  1  0
 27 26  2  0
 28 27  1  0
 29 28  2  0
 29 24  1  0
 30 19  1  0
 31 30  2  0
 32 30  1  0
M  END
$$$$
