IKW.pdb
     RDKit          3D

 32 33  0  0  1  0  0  0  0  0999 V2000
    8.0880  -12.0292   18.7389 C   0  0  0  0  0  0  0  0  0  0  0  0
    7.9059  -13.5089   18.6477 C   0  0  0  0  0  0  0  0  0  0  0  0
    8.0194  -14.1856   20.0281 C   0  0  2  0  0  0  0  0  0  0  0  0
    9.3691  -13.9115   20.6040 C   0  0  0  0  0  0  0  0  0  0  0  0
    7.7242  -15.6434   19.7678 C   0  0  2  0  0  0  0  0  0  0  0  0
    6.3649  -15.6548   19.2043 N   0  0  0  0  0  0  0  0  0  0  0  0
    7.8114  -16.5150   20.9396 C   0  0  0  0  0  0  0  0  0  0  0  0
    7.1006  -16.2451   21.9733 O   0  0  0  0  0  0  0  0  0  0  0  0
    8.6154  -17.6695   21.0813 N   0  0  0  0  0  0  0  0  0  0  0  0
    8.7651  -18.3784   22.3422 C   0  0  1  0  0  0  0  0  0  0  0  0
    9.3655  -19.7545   22.1791 C   0  0  0  0  0  0  0  0  0  0  0  0
    9.4818  -20.4619   23.5092 C   0  0  0  0  0  0  0  0  0  0  0  0
    8.4198  -21.5145   23.6365 C   0  0  0  0  0  0  0  0  0  0  0  0
    8.4944  -22.2796   24.9351 C   0  0  0  0  0  0  0  0  0  0  0  0
    7.7300  -21.4942   25.9166 N   0  0  0  0  0  0  0  0  0  0  0  0
    9.6159  -17.5349   23.2616 C   0  0  0  0  0  0  0  0  0  0  0  0
   10.6233  -16.9283   22.8225 O   0  0  0  0  0  0  0  0  0  0  0  0
    9.2955  -17.4103   24.6391 N   0  0  0  0  0  0  0  0  0  0  0  0
   10.0749  -16.6711   25.6049 C   0  0  1  0  0  0  0  0  0  0  0  0
    9.7400  -15.2256   25.6593 C   0  0  0  0  0  0  0  0  0  0  0  0
    8.3195  -15.0285   26.0017 C   0  0  0  0  0  0  0  0  0  0  0  0
    7.3364  -15.9928   26.0117 C   0  0  0  0  0  0  0  0  0  0  0  0
    6.1843  -15.4291   26.3681 N   0  0  0  0  0  0  0  0  0  0  0  0
    6.3959  -14.1101   26.5921 C   0  0  0  0  0  0  0  0  0  0  0  0
    5.5069  -13.1209   26.9792 C   0  0  0  0  0  0  0  0  0  0  0  0
    5.9777  -11.8354   27.1410 C   0  0  0  0  0  0  0  0  0  0  0  0
    7.3200  -11.5625   26.9147 C   0  0  0  0  0  0  0  0  0  0  0  0
    8.2171  -12.5316   26.5302 C   0  0  0  0  0  0  0  0  0  0  0  0
    7.7382  -13.8345   26.3665 C   0  0  0  0  0  0  0  0  0  0  0  0
   10.0393  -17.3560   26.9403 C   0  0  0  0  0  0  0  0  0  0  0  0
    9.2460  -18.2883   27.1948 O   0  0  0  0  0  0  0  0  0  0  0  0
   10.8973  -16.9743   27.9527 O   0  0  0  0  0  0  0  0  0  0  0  0
  2  1  1  0
  3  2  1  0
  3  4  1  6
  5  3  1  0
  5  6  1  1
  7  8  2  0
  7  5  1  0
  9  7  1  0
 10 16  1  0
 10  9  1  0
 10 11  1  6
 12 11  1  0
 12 13  1  0
 14 13  1  0
 14 15  1  0
 16 17  2  0
 18 19  1  0
 18 16  1  0
 19 20  1  1
 20 21  1  0
 21 22  2  0
 21 29  1  0
 22 23  1  0
 23 24  1  0
 24 25  2  0
 25 26  1  0
 27 26  2  0
 28 27  1  0
 29 28  2  0
 29 24  1  0
 30 19  1  0
 31 30  2  0
 32 30  1  0
M  END
$$$$
