IKW.pdb
     RDKit          3D

 32 33  0  0  1  0  0  0  0  0999 V2000
    7.2161  -12.1077   17.8564 C   0  0  0  0  0  0  0  0  0  0  0  0
    8.3030  -13.0419   18.2773 C   0  0  0  0  0  0  0  0  0  0  0  0
    7.9367  -13.8016   19.5677 C   0  0  2  0  0  0  0  0  0  0  0  0
    7.6884  -12.8210   20.6656 C   0  0  0  0  0  0  0  0  0  0  0  0
    9.0959  -14.7398   19.8045 C   0  0  2  0  0  0  0  0  0  0  0  0
    9.2410  -15.4810   18.5415 N   0  0  0  0  0  0  0  0  0  0  0  0
    8.9340  -15.6569   20.9328 C   0  0  0  0  0  0  0  0  0  0  0  0
    8.7939  -15.1755   22.1140 O   0  0  0  0  0  0  0  0  0  0  0  0
    8.9104  -17.0699   20.8821 N   0  0  0  0  0  0  0  0  0  0  0  0
    8.7207  -17.8998   22.0611 C   0  0  1  0  0  0  0  0  0  0  0  0
    8.9211  -19.3713   21.7868 C   0  0  0  0  0  0  0  0  0  0  0  0
    8.7640  -20.1894   23.0473 C   0  0  0  0  0  0  0  0  0  0  0  0
    9.0899  -21.6297   22.7803 C   0  0  0  0  0  0  0  0  0  0  0  0
    8.8792  -22.5190   23.9811 C   0  0  0  0  0  0  0  0  0  0  0  0
    9.4769  -23.8186   23.6370 N   0  0  0  0  0  0  0  0  0  0  0  0
    9.6742  -17.4260   23.1321 C   0  0  0  0  0  0  0  0  0  0  0  0
   10.9096  -17.3836   22.9145 O   0  0  0  0  0  0  0  0  0  0  0  0
    9.1948  -17.0196   24.4052 N   0  0  0  0  0  0  0  0  0  0  0  0
   10.0305  -16.6180   25.5130 C   0  0  1  0  0  0  0  0  0  0  0  0
    9.8580  -15.1960   25.9040 C   0  0  0  0  0  0  0  0  0  0  0  0
    8.4330  -14.8173   25.8908 C   0  0  0  0  0  0  0  0  0  0  0  0
    7.3601  -15.6651   25.7285 C   0  0  0  0  0  0  0  0  0  0  0  0
    6.2373  -14.9512   25.7696 N   0  0  0  0  0  0  0  0  0  0  0  0
    6.5567  -13.6481   25.9562 C   0  0  0  0  0  0  0  0  0  0  0  0
    5.7345  -12.5384   26.0629 C   0  0  0  0  0  0  0  0  0  0  0  0
    6.3141  -11.3020   26.2520 C   0  0  0  0  0  0  0  0  0  0  0  0
    7.6961  -11.1967   26.3309 C   0  0  0  0  0  0  0  0  0  0  0  0
    8.5280  -12.2871   26.2275 C   0  0  0  0  0  0  0  0  0  0  0  0
    7.9389  -13.5400   26.0356 C   0  0  0  0  0  0  0  0  0  0  0  0
    9.8894  -17.5852   26.6523 C   0  0  0  0  0  0  0  0  0  0  0  0
    8.9572  -18.4162   26.7149 O   0  0  0  0  0  0  0  0  0  0  0  0
   10.8008  -17.5921   27.6896 O   0  0  0  0  0  0  0  0  0  0  0  0
  2  1  1  0
  3  2  1  0
  3  4  1  1
  5  3  1  0
  5  6  1  6
  7  8  2  0
  7  5  1  0
  9  7  1  0
 10 16  1  0
 10  9  1  0
 10 11  1  6
 12 11  1  0
 12 13  1  0
 14 13  1  0
 14 15  1  0
 16 17  2  0
 18 19  1  0
 18 16  1  0
 19 20  1  1
 20 21  1  0
 21 22  2  0
 21 29  1  0
 22 23  1  0
 23 24  1  0
 24 25  2  0
 25 26  1  0
 27 26  2  0
 28 27  1  0
 29 28  2  0
 29 24  1  0
 30 19  1  0
 31 30  2  0
 32 30  1  0
M  END
$$$$
