IKW.pdb
     RDKit          3D

 32 33  0  0  1  0  0  0  0  0999 V2000
    5.8072  -11.6085   26.5129 C   0  0  0  0  0  0  0  0  0  0  0  0
    5.5442  -12.8944   25.7999 C   0  0  0  0  0  0  0  0  0  0  0  0
    6.8524  -13.6032   25.3968 C   0  0  2  0  0  0  0  0  0  0  0  0
    7.7656  -12.6211   24.7411 C   0  0  0  0  0  0  0  0  0  0  0  0
    6.4142  -14.7489   24.5162 C   0  0  2  0  0  0  0  0  0  0  0  0
    5.5702  -15.5858   25.3838 N   0  0  0  0  0  0  0  0  0  0  0  0
    7.5005  -15.5339   23.9295 C   0  0  0  0  0  0  0  0  0  0  0  0
    7.9584  -16.5453   24.5727 O   0  0  0  0  0  0  0  0  0  0  0  0
    8.1360  -15.3082   22.6866 N   0  0  0  0  0  0  0  0  0  0  0  0
    9.2606  -16.1025   22.2184 C   0  0  1  0  0  0  0  0  0  0  0  0
    9.6864  -15.7532   20.8122 C   0  0  0  0  0  0  0  0  0  0  0  0
    8.4912  -15.4654   19.9340 C   0  0  0  0  0  0  0  0  0  0  0  0
    8.5872  -16.2369   18.6504 C   0  0  0  0  0  0  0  0  0  0  0  0
    7.3393  -16.1444   17.8069 C   0  0  0  0  0  0  0  0  0  0  0  0
    7.6167  -16.9100   16.5816 N   0  0  0  0  0  0  0  0  0  0  0  0
   10.4080  -15.9130   23.1819 C   0  0  0  0  0  0  0  0  0  0  0  0
   10.8722  -14.7685   23.4054 O   0  0  0  0  0  0  0  0  0  0  0  0
   10.9850  -17.0227   23.8536 N   0  0  0  0  0  0  0  0  0  0  0  0
   12.1673  -16.9636   24.6815 C   0  0  1  0  0  0  0  0  0  0  0  0
   12.0354  -17.7044   25.9616 C   0  0  0  0  0  0  0  0  0  0  0  0
   10.8726  -17.2223   26.7295 C   0  0  0  0  0  0  0  0  0  0  0  0
    9.6788  -17.8837   26.9126 C   0  0  0  0  0  0  0  0  0  0  0  0
    8.8774  -17.1267   27.6588 N   0  0  0  0  0  0  0  0  0  0  0  0
    9.5267  -15.9789   27.9682 C   0  0  0  0  0  0  0  0  0  0  0  0
    9.1038  -14.8932   28.7173 C   0  0  0  0  0  0  0  0  0  0  0  0
    9.9661  -13.8311   28.8871 C   0  0  0  0  0  0  0  0  0  0  0  0
   11.2277  -13.8722   28.3094 C   0  0  0  0  0  0  0  0  0  0  0  0
   11.6648  -14.9415   27.5628 C   0  0  0  0  0  0  0  0  0  0  0  0
   10.7894  -16.0175   27.3914 C   0  0  0  0  0  0  0  0  0  0  0  0
   13.3835  -17.3357   23.8841 C   0  0  0  0  0  0  0  0  0  0  0  0
   13.3095  -17.8002   22.7255 O   0  0  0  0  0  0  0  0  0  0  0  0
   14.6497  -17.1749   24.4110 O   0  0  0  0  0  0  0  0  0  0  0  0
  2  1  1  0
  3  2  1  0
  3  4  1  6
  5  3  1  0
  5  6  1  1
  7  8  2  0
  7  5  1  0
  9  7  1  0
 10 16  1  0
 10  9  1  0
 10 11  1  6
 12 11  1  0
 12 13  1  0
 14 13  1  0
 14 15  1  0
 16 17  2  0
 18 19  1  0
 18 16  1  0
 19 20  1  1
 20 21  1  0
 21 22  2  0
 21 29  1  0
 22 23  1  0
 23 24  1  0
 24 25  2  0
 25 26  1  0
 27 26  2  0
 28 27  1  0
 29 28  2  0
 29 24  1  0
 30 19  1  0
 31 30  2  0
 32 30  1  0
M  END
$$$$
