IKW.pdb
     RDKit          3D

 32 33  0  0  1  0  0  0  0  0999 V2000
    6.6417  -12.0778   19.3212 C   0  0  0  0  0  0  0  0  0  0  0  0
    7.2002  -13.3969   18.8981 C   0  0  0  0  0  0  0  0  0  0  0  0
    7.7916  -14.1765   20.0892 C   0  0  2  0  0  0  0  0  0  0  0  0
    8.8179  -13.3340   20.7713 C   0  0  0  0  0  0  0  0  0  0  0  0
    8.3192  -15.4571   19.4875 C   0  0  2  0  0  0  0  0  0  0  0  0
    7.1432  -16.0940   18.8736 N   0  0  0  0  0  0  0  0  0  0  0  0
    8.9724  -16.3651   20.4305 C   0  0  0  0  0  0  0  0  0  0  0  0
    8.2496  -17.0610   21.2303 O   0  0  0  0  0  0  0  0  0  0  0  0
   10.3621  -16.5822   20.5762 N   0  0  0  0  0  0  0  0  0  0  0  0
   10.9278  -17.3902   21.6448 C   0  0  1  0  0  0  0  0  0  0  0  0
   12.2760  -17.9738   21.2944 C   0  0  0  0  0  0  0  0  0  0  0  0
   12.2200  -18.7371   19.9917 C   0  0  0  0  0  0  0  0  0  0  0  0
   13.5899  -19.2122   19.6045 C   0  0  0  0  0  0  0  0  0  0  0  0
   13.6025  -20.0069   18.3218 C   0  0  0  0  0  0  0  0  0  0  0  0
   15.0071  -20.3734   18.0820 N   0  0  0  0  0  0  0  0  0  0  0  0
   11.0274  -16.5335   22.8844 C   0  0  0  0  0  0  0  0  0  0  0  0
   11.5252  -15.3826   22.8274 O   0  0  0  0  0  0  0  0  0  0  0  0
   10.5616  -17.0103   24.1380 N   0  0  0  0  0  0  0  0  0  0  0  0
    9.5717  -16.3499   24.9569 C   0  0  1  0  0  0  0  0  0  0  0  0
    8.4780  -15.7186   24.1758 C   0  0  0  0  0  0  0  0  0  0  0  0
    7.5468  -14.9989   25.0640 C   0  0  0  0  0  0  0  0  0  0  0  0
    6.3941  -15.5016   25.6251 C   0  0  0  0  0  0  0  0  0  0  0  0
    5.8233  -14.5504   26.3611 N   0  0  0  0  0  0  0  0  0  0  0  0
    6.5833  -13.4313   26.2915 C   0  0  0  0  0  0  0  0  0  0  0  0
    6.3979  -12.1932   26.8843 C   0  0  0  0  0  0  0  0  0  0  0  0
    7.3288  -11.2033   26.6527 C   0  0  0  0  0  0  0  0  0  0  0  0
    8.4219  -11.4661   25.8382 C   0  0  0  0  0  0  0  0  0  0  0  0
    8.6225  -12.6890   25.2415 C   0  0  0  0  0  0  0  0  0  0  0  0
    7.6778  -13.6916   25.4772 C   0  0  0  0  0  0  0  0  0  0  0  0
    9.0934  -17.2692   26.0430 C   0  0  0  0  0  0  0  0  0  0  0  0
    8.9909  -16.9034   27.2343 O   0  0  0  0  0  0  0  0  0  0  0  0
    8.7428  -18.5744   25.7598 O   0  0  0  0  0  0  0  0  0  0  0  0
  2  1  1  0
  3  2  1  0
  3  4  1  6
  5  3  1  0
  5  6  1  1
  7  8  2  0
  7  5  1  0
  9  7  1  0
 10 16  1  0
 10  9  1  0
 10 11  1  6
 12 11  1  0
 12 13  1  0
 14 13  1  0
 14 15  1  0
 16 17  2  0
 18 19  1  0
 18 16  1  0
 19 20  1  6
 20 21  1  0
 21 22  2  0
 21 29  1  0
 22 23  1  0
 23 24  1  0
 24 25  2  0
 25 26  1  0
 27 26  2  0
 28 27  1  0
 29 28  2  0
 29 24  1  0
 30 19  1  0
 31 30  2  0
 32 30  1  0
M  END
$$$$
