IKW.pdb
     RDKit          3D

 32 33  0  0  1  0  0  0  0  0999 V2000
    8.0644  -12.6023   27.2113 C   0  0  0  0  0  0  0  0  0  0  0  0
    7.3246  -13.5439   26.3185 C   0  0  0  0  0  0  0  0  0  0  0  0
    7.0393  -12.9190   24.9384 C   0  0  2  0  0  0  0  0  0  0  0  0
    6.2039  -11.6943   25.1130 C   0  0  0  0  0  0  0  0  0  0  0  0
    6.3873  -14.0243   24.1426 C   0  0  2  0  0  0  0  0  0  0  0  0
    5.3447  -14.5605   25.0319 N   0  0  0  0  0  0  0  0  0  0  0  0
    7.2898  -15.0858   23.6963 C   0  0  0  0  0  0  0  0  0  0  0  0
    7.2786  -16.2136   24.3080 O   0  0  0  0  0  0  0  0  0  0  0  0
    8.2128  -15.0218   22.6269 N   0  0  0  0  0  0  0  0  0  0  0  0
    9.0702  -16.1361   22.2554 C   0  0  1  0  0  0  0  0  0  0  0  0
    9.5597  -16.0555   20.8290 C   0  0  0  0  0  0  0  0  0  0  0  0
   10.2418  -17.3374   20.4113 C   0  0  0  0  0  0  0  0  0  0  0  0
   10.6486  -17.2674   18.9685 C   0  0  0  0  0  0  0  0  0  0  0  0
   11.3084  -18.5317   18.4753 C   0  0  0  0  0  0  0  0  0  0  0  0
   11.5460  -18.3343   17.0368 N   0  0  0  0  0  0  0  0  0  0  0  0
   10.2364  -16.1765   23.2141 C   0  0  0  0  0  0  0  0  0  0  0  0
   11.0423  -15.2166   23.2809 O   0  0  0  0  0  0  0  0  0  0  0  0
   10.4459  -17.2987   24.0584 N   0  0  0  0  0  0  0  0  0  0  0  0
   11.5248  -17.4261   25.0104 C   0  0  1  0  0  0  0  0  0  0  0  0
   11.0850  -17.8932   26.3495 C   0  0  0  0  0  0  0  0  0  0  0  0
   10.0500  -17.0006   26.9028 C   0  0  0  0  0  0  0  0  0  0  0  0
    8.6880  -17.1996   26.8627 C   0  0  0  0  0  0  0  0  0  0  0  0
    8.0856  -16.1750   27.4622 N   0  0  0  0  0  0  0  0  0  0  0  0
    9.0309  -15.3068   27.8950 C   0  0  0  0  0  0  0  0  0  0  0  0
    8.8913  -14.1045   28.5685 C   0  0  0  0  0  0  0  0  0  0  0  0
   10.0269  -13.3973   28.9012 C   0  0  0  0  0  0  0  0  0  0  0  0
   11.2741  -13.9007   28.5574 C   0  0  0  0  0  0  0  0  0  0  0  0
   11.4321  -15.0924   27.8891 C   0  0  0  0  0  0  0  0  0  0  0  0
   10.2798  -15.8082   27.5524 C   0  0  0  0  0  0  0  0  0  0  0  0
   12.6486  -18.2295   24.4231 C   0  0  0  0  0  0  0  0  0  0  0  0
   12.5306  -18.8652   23.3528 O   0  0  0  0  0  0  0  0  0  0  0  0
   13.8747  -18.2955   25.0548 O   0  0  0  0  0  0  0  0  0  0  0  0
  2  1  1  0
  3  2  1  0
  3  4  1  1
  5  3  1  0
  5  6  1  1
  7  8  2  0
  7  5  1  0
  9  7  1  0
 10 16  1  0
 10  9  1  0
 10 11  1  6
 12 11  1  0
 12 13  1  0
 14 13  1  0
 14 15  1  0
 16 17  2  0
 18 19  1  0
 18 16  1  0
 19 20  1  1
 20 21  1  0
 21 22  2  0
 21 29  1  0
 22 23  1  0
 23 24  1  0
 24 25  2  0
 25 26  1  0
 27 26  2  0
 28 27  1  0
 29 28  2  0
 29 24  1  0
 30 19  1  0
 31 30  2  0
 32 30  1  0
M  END
$$$$
