IKW.pdb
     RDKit          3D

 32 33  0  0  1  0  0  0  0  0999 V2000
    6.4176  -22.3468   25.4655 C   0  0  0  0  0  0  0  0  0  0  0  0
    5.8775  -21.3721   24.4709 C   0  0  0  0  0  0  0  0  0  0  0  0
    6.9356  -20.3298   24.0584 C   0  0  2  0  0  0  0  0  0  0  0  0
    7.4976  -19.6844   25.2816 C   0  0  0  0  0  0  0  0  0  0  0  0
    6.2093  -19.3930   23.1230 C   0  0  2  0  0  0  0  0  0  0  0  0
    5.6371  -20.2681   22.0874 N   0  0  0  0  0  0  0  0  0  0  0  0
    7.0371  -18.3462   22.5235 C   0  0  0  0  0  0  0  0  0  0  0  0
    8.2272  -18.6341   22.1396 O   0  0  0  0  0  0  0  0  0  0  0  0
    6.6732  -16.9977   22.3033 N   0  0  0  0  0  0  0  0  0  0  0  0
    7.5976  -16.0054   21.7782 C   0  0  1  0  0  0  0  0  0  0  0  0
    6.9038  -14.8735   21.0583 C   0  0  0  0  0  0  0  0  0  0  0  0
    7.9030  -13.9347   20.4235 C   0  0  0  0  0  0  0  0  0  0  0  0
    7.5909  -13.7446   18.9680 C   0  0  0  0  0  0  0  0  0  0  0  0
    8.6139  -12.9023   18.2461 C   0  0  0  0  0  0  0  0  0  0  0  0
    8.2014  -12.8796   16.8340 N   0  0  0  0  0  0  0  0  0  0  0  0
    8.4252  -15.4755   22.9249 C   0  0  0  0  0  0  0  0  0  0  0  0
    8.6109  -14.2418   23.0623 O   0  0  0  0  0  0  0  0  0  0  0  0
    9.0098  -16.3594   23.8698 N   0  0  0  0  0  0  0  0  0  0  0  0
   10.1537  -16.0475   24.6951 C   0  0  1  0  0  0  0  0  0  0  0  0
    9.9813  -14.8195   25.5119 C   0  0  0  0  0  0  0  0  0  0  0  0
    8.5587  -14.5948   25.8278 C   0  0  0  0  0  0  0  0  0  0  0  0
    7.5803  -15.5577   25.9368 C   0  0  0  0  0  0  0  0  0  0  0  0
    6.4243  -14.9655   26.2287 N   0  0  0  0  0  0  0  0  0  0  0  0
    6.6288  -13.6292   26.3128 C   0  0  0  0  0  0  0  0  0  0  0  0
    5.7338  -12.6092   26.5910 C   0  0  0  0  0  0  0  0  0  0  0  0
    6.1978  -11.3115   26.6176 C   0  0  0  0  0  0  0  0  0  0  0  0
    7.5395  -11.0571   26.3675 C   0  0  0  0  0  0  0  0  0  0  0  0
    8.4425  -12.0566   26.0898 C   0  0  0  0  0  0  0  0  0  0  0  0
    7.9705  -13.3719   26.0631 C   0  0  0  0  0  0  0  0  0  0  0  0
   10.5721  -17.2525   25.4864 C   0  0  0  0  0  0  0  0  0  0  0  0
    9.8884  -18.2987   25.5269 O   0  0  0  0  0  0  0  0  0  0  0  0
   11.7482  -17.2486   26.2100 O   0  0  0  0  0  0  0  0  0  0  0  0
  2  1  1  0
  3  2  1  0
  3  4  1  1
  5  3  1  0
  5  6  1  6
  7  8  2  0
  7  5  1  0
  9  7  1  0
 10 16  1  0
 10  9  1  0
 10 11  1  1
 12 11  1  0
 12 13  1  0
 14 13  1  0
 14 15  1  0
 16 17  2  0
 18 19  1  0
 18 16  1  0
 19 20  1  1
 20 21  1  0
 21 22  2  0
 21 29  1  0
 22 23  1  0
 23 24  1  0
 24 25  2  0
 25 26  1  0
 27 26  2  0
 28 27  1  0
 29 28  2  0
 29 24  1  0
 30 19  1  0
 31 30  2  0
 32 30  1  0
M  END
$$$$
