ALI.pdb
     RDKit          3D

 22 21  0  0  1  0  0  0  0  0999 V2000
   12.3285  -16.4932   19.1253 C   0  0  0  0  0  0  0  0  0  0  0  0
   11.4968  -17.3311   20.0454 C   0  0  2  0  0  0  0  0  0  0  0  0
   10.3437  -17.8697   19.3963 N   0  0  0  0  0  0  0  0  0  0  0  0
   11.1137  -16.5687   21.2939 C   0  0  0  0  0  0  0  0  0  0  0  0
   12.0198  -16.0849   22.0082 O   0  0  0  0  0  0  0  0  0  0  0  0
    8.2923  -13.2290   21.2344 C   0  0  0  0  0  0  0  0  0  0  0  0
    7.5793  -14.5924   21.1994 C   0  0  2  0  0  0  0  0  0  0  0  0
    6.1399  -14.3825   20.8399 C   0  0  0  0  0  0  0  0  0  0  0  0
    7.7576  -15.3015   22.5162 C   0  0  0  0  0  0  0  0  0  0  0  0
    9.2071  -15.6347   22.7277 C   0  0  2  0  0  0  0  0  0  0  0  0
    9.7611  -16.4012   21.6543 N   0  0  0  0  0  0  0  0  0  0  0  0
    9.5858  -16.0603   24.0658 C   0  0  0  0  0  0  0  0  0  0  0  0
    9.9752  -17.2760   24.1870 O   0  0  0  0  0  0  0  0  0  0  0  0
   10.2210  -12.3043   27.9277 C   0  0  0  0  0  0  0  0  0  0  0  0
   10.3925  -13.5017   27.0217 C   0  0  0  0  0  0  0  0  0  0  0  0
    9.7417  -14.7401   27.5994 C   0  0  2  0  0  0  0  0  0  0  0  0
   10.4527  -15.2533   28.8091 C   0  0  0  0  0  0  0  0  0  0  0  0
    9.8505  -15.8207   26.5173 C   0  0  2  0  0  0  0  0  0  0  0  0
    9.5625  -15.2678   25.2189 N   0  0  0  0  0  0  0  0  0  0  0  0
    8.9467  -16.9581   26.8474 C   0  0  0  0  0  0  0  0  0  0  0  0
    7.7256  -16.9601   26.5350 O   0  0  0  0  0  0  0  0  0  0  0  0
    9.4257  -18.0723   27.5207 O   0  0  0  0  0  0  0  0  0  0  0  0
  2  1  1  6
  3  2  1  0
  4  2  1  0
  4 11  1  0
  5  4  2  0
  7  6  1  1
  7  9  1  0
  8  7  1  0
 10  9  1  1
 10 11  1  0
 10 12  1  0
 12 19  1  0
 13 12  2  0
 14 15  1  0
 16 17  1  1
 16 15  1  0
 16 18  1  0
 18 20  1  0
 18 19  1  6
 20 21  2  0
 20 22  1  0
M  END
$$$$
