ALI.pdb
     RDKit          3D

 22 21  0  0  1  0  0  0  0  0999 V2000
   11.3198  -19.0039   20.7799 C   0  0  0  0  0  0  0  0  0  0  0  0
   10.3613  -17.9906   20.2368 C   0  0  2  0  0  0  0  0  0  0  0  0
   10.6615  -17.6272   18.8881 N   0  0  0  0  0  0  0  0  0  0  0  0
   10.2833  -16.7700   21.1261 C   0  0  0  0  0  0  0  0  0  0  0  0
   10.4650  -15.6407   20.6193 O   0  0  0  0  0  0  0  0  0  0  0  0
    8.5193  -13.4564   22.3226 C   0  0  0  0  0  0  0  0  0  0  0  0
    7.9858  -14.7249   21.6337 C   0  0  2  0  0  0  0  0  0  0  0  0
    6.7139  -14.3929   20.9146 C   0  0  0  0  0  0  0  0  0  0  0  0
    7.8171  -15.8286   22.6447 C   0  0  0  0  0  0  0  0  0  0  0  0
    9.1297  -16.1136   23.3174 C   0  0  2  0  0  0  0  0  0  0  0  0
   10.0109  -16.8934   22.5038 N   0  0  0  0  0  0  0  0  0  0  0  0
    9.0704  -16.4903   24.7209 C   0  0  0  0  0  0  0  0  0  0  0  0
    8.6722  -17.6827   24.9733 O   0  0  0  0  0  0  0  0  0  0  0  0
    9.7272  -13.5509   29.5521 C   0  0  0  0  0  0  0  0  0  0  0  0
    9.5183  -14.6926   28.5841 C   0  0  0  0  0  0  0  0  0  0  0  0
   10.7364  -14.9212   27.7151 C   0  0  2  0  0  0  0  0  0  0  0  0
   11.0552  -13.7457   26.8497 C   0  0  0  0  0  0  0  0  0  0  0  0
   10.3808  -16.0862   26.7841 C   0  0  2  0  0  0  0  0  0  0  0  0
    9.4063  -15.6743   25.8070 N   0  0  0  0  0  0  0  0  0  0  0  0
    9.9030  -17.2463   27.5874 C   0  0  0  0  0  0  0  0  0  0  0  0
   10.6607  -17.8814   28.3693 O   0  0  0  0  0  0  0  0  0  0  0  0
    8.5864  -17.6745   27.5012 O   0  0  0  0  0  0  0  0  0  0  0  0
  2  1  1  1
  3  2  1  0
  4  2  1  0
  4 11  1  0
  5  4  2  0
  7  6  1  1
  7  9  1  0
  8  7  1  0
 10  9  1  6
 10 11  1  0
 10 12  1  0
 12 19  1  0
 13 12  2  0
 14 15  1  0
 16 17  1  6
 16 15  1  0
 16 18  1  0
 18 20  1  0
 18 19  1  6
 20 21  2  0
 20 22  1  0
M  END
$$$$
