ALI.pdb
     RDKit          3D

 22 21  0  0  1  0  0  0  0  0999 V2000
    8.5877  -17.8600   21.1567 C   0  0  0  0  0  0  0  0  0  0  0  0
    8.4495  -16.3708   21.0986 C   0  0  2  0  0  0  0  0  0  0  0  0
    9.1847  -15.7988   20.0154 N   0  0  0  0  0  0  0  0  0  0  0  0
    8.8278  -15.7280   22.4142 C   0  0  0  0  0  0  0  0  0  0  0  0
   10.0204  -15.4026   22.6066 O   0  0  0  0  0  0  0  0  0  0  0  0
    7.7165  -12.2210   24.9937 C   0  0  0  0  0  0  0  0  0  0  0  0
    6.4882  -13.1322   24.8230 C   0  0  2  0  0  0  0  0  0  0  0  0
    5.3054  -12.4866   25.4781 C   0  0  0  0  0  0  0  0  0  0  0  0
    6.7843  -14.5045   25.3686 C   0  0  0  0  0  0  0  0  0  0  0  0
    8.0469  -15.0394   24.7550 C   0  0  2  0  0  0  0  0  0  0  0  0
    7.8595  -15.4957   23.4121 N   0  0  0  0  0  0  0  0  0  0  0  0
    8.8680  -15.8916   25.6004 C   0  0  0  0  0  0  0  0  0  0  0  0
    9.1107  -17.0695   25.1556 O   0  0  0  0  0  0  0  0  0  0  0  0
   10.5673  -13.5879   30.0331 C   0  0  0  0  0  0  0  0  0  0  0  0
   10.7686  -14.2929   28.7115 C   0  0  0  0  0  0  0  0  0  0  0  0
   10.7511  -15.7981   28.8702 C   0  0  2  0  0  0  0  0  0  0  0  0
   12.0863  -16.3530   29.2468 C   0  0  0  0  0  0  0  0  0  0  0  0
   10.3968  -16.3662   27.4910 C   0  0  2  0  0  0  0  0  0  0  0  0
    9.4097  -15.5421   26.8424 N   0  0  0  0  0  0  0  0  0  0  0  0
    9.9364  -17.7763   27.6292 C   0  0  0  0  0  0  0  0  0  0  0  0
   10.7347  -18.7512   27.5962 O   0  0  0  0  0  0  0  0  0  0  0  0
    8.5917  -18.0696   27.8016 O   0  0  0  0  0  0  0  0  0  0  0  0
  2  1  1  1
  3  2  1  0
  4  2  1  0
  4 11  1  0
  5  4  2  0
  7  6  1  1
  7  9  1  0
  8  7  1  0
 10  9  1  1
 10 11  1  0
 10 12  1  0
 12 19  1  0
 13 12  2  0
 14 15  1  0
 16 17  1  6
 16 15  1  0
 16 18  1  0
 18 20  1  0
 18 19  1  1
 20 21  2  0
 20 22  1  0
M  END
$$$$
