ALI.pdb
     RDKit          3D

 22 21  0  0  1  0  0  0  0  0999 V2000
    9.2721  -19.3253   19.8955 C   0  0  0  0  0  0  0  0  0  0  0  0
    9.1902  -19.0410   21.3627 C   0  0  2  0  0  0  0  0  0  0  0  0
    7.8788  -19.2593   21.8859 N   0  0  0  0  0  0  0  0  0  0  0  0
    9.6809  -17.6473   21.6847 C   0  0  0  0  0  0  0  0  0  0  0  0
   10.8833  -17.3681   21.4811 O   0  0  0  0  0  0  0  0  0  0  0  0
    8.9619  -13.6443   20.1538 C   0  0  0  0  0  0  0  0  0  0  0  0
    7.7337  -14.2814   20.8275 C   0  0  2  0  0  0  0  0  0  0  0  0
    6.5143  -13.4855   20.4744 C   0  0  0  0  0  0  0  0  0  0  0  0
    7.9565  -14.3851   22.3135 C   0  0  0  0  0  0  0  0  0  0  0  0
    9.0914  -15.3274   22.5979 C   0  0  2  0  0  0  0  0  0  0  0  0
    8.8051  -16.6731   22.2057 N   0  0  0  0  0  0  0  0  0  0  0  0
    9.7546  -15.1740   23.8831 C   0  0  0  0  0  0  0  0  0  0  0  0
   10.9370  -14.6784   23.8573 O   0  0  0  0  0  0  0  0  0  0  0  0
    7.6969  -12.2815   27.2135 C   0  0  0  0  0  0  0  0  0  0  0  0
    8.6559  -13.1712   26.4565 C   0  0  0  0  0  0  0  0  0  0  0  0
    9.0854  -14.3644   27.2829 C   0  0  2  0  0  0  0  0  0  0  0  0
    9.9515  -13.9824   28.4389 C   0  0  0  0  0  0  0  0  0  0  0  0
    9.9314  -15.2420   26.3532 C   0  0  2  0  0  0  0  0  0  0  0  0
    9.2211  -15.5162   25.1307 N   0  0  0  0  0  0  0  0  0  0  0  0
   10.3223  -16.4944   27.0591 C   0  0  0  0  0  0  0  0  0  0  0  0
   11.2133  -16.5145   27.9504 O   0  0  0  0  0  0  0  0  0  0  0  0
    9.7093  -17.7009   26.7548 O   0  0  0  0  0  0  0  0  0  0  0  0
  2  1  1  6
  3  2  1  0
  4  2  1  0
  4 11  1  0
  5  4  2  0
  7  6  1  6
  7  9  1  0
  8  7  1  0
 10  9  1  1
 10 11  1  0
 10 12  1  0
 12 19  1  0
 13 12  2  0
 14 15  1  0
 16 17  1  1
 16 15  1  0
 16 18  1  0
 18 20  1  0
 18 19  1  6
 20 21  2  0
 20 22  1  0
M  END
$$$$
