ALI.pdb
     RDKit          3D

 22 21  0  0  1  0  0  0  0  0999 V2000
    7.2309  -18.6372   22.5273 C   0  0  0  0  0  0  0  0  0  0  0  0
    7.3109  -17.2693   21.9251 C   0  0  2  0  0  0  0  0  0  0  0  0
    7.7596  -17.2980   20.5691 N   0  0  0  0  0  0  0  0  0  0  0  0
    8.1655  -16.3447   22.7630 C   0  0  0  0  0  0  0  0  0  0  0  0
    9.3862  -16.2518   22.5055 O   0  0  0  0  0  0  0  0  0  0  0  0
    7.3747  -11.9751   24.2026 C   0  0  0  0  0  0  0  0  0  0  0  0
    6.4757  -13.0671   24.8088 C   0  0  2  0  0  0  0  0  0  0  0  0
    5.3680  -12.4164   25.5801 C   0  0  0  0  0  0  0  0  0  0  0  0
    7.3008  -14.0073   25.6477 C   0  0  0  0  0  0  0  0  0  0  0  0
    8.2629  -14.7631   24.7760 C   0  0  2  0  0  0  0  0  0  0  0  0
    7.6043  -15.5968   23.8180 N   0  0  0  0  0  0  0  0  0  0  0  0
    9.4123  -15.3558   25.4413 C   0  0  0  0  0  0  0  0  0  0  0  0
   10.5642  -14.9247   25.0784 O   0  0  0  0  0  0  0  0  0  0  0  0
   10.3567  -13.6614   29.6052 C   0  0  0  0  0  0  0  0  0  0  0  0
   10.5227  -14.4722   28.3406 C   0  0  0  0  0  0  0  0  0  0  0  0
   10.4144  -15.9580   28.6085 C   0  0  2  0  0  0  0  0  0  0  0  0
   11.5342  -16.4740   29.4523 C   0  0  0  0  0  0  0  0  0  0  0  0
   10.5229  -16.6446   27.2421 C   0  0  2  0  0  0  0  0  0  0  0  0
    9.3711  -16.3438   26.4315 N   0  0  0  0  0  0  0  0  0  0  0  0
   10.7014  -18.1120   27.4275 C   0  0  0  0  0  0  0  0  0  0  0  0
    9.7419  -18.9239   27.3331 O   0  0  0  0  0  0  0  0  0  0  0  0
   11.9498  -18.6439   27.7150 O   0  0  0  0  0  0  0  0  0  0  0  0
  2  1  1  1
  3  2  1  0
  4  2  1  0
  4 11  1  0
  5  4  2  0
  7  6  1  1
  7  9  1  0
  8  7  1  0
 10  9  1  1
 10 11  1  0
 10 12  1  0
 12 19  1  0
 13 12  2  0
 14 15  1  0
 16 17  1  1
 16 15  1  0
 16 18  1  0
 18 20  1  0
 18 19  1  6
 20 21  2  0
 20 22  1  0
M  END
$$$$
