ALI.pdb
     RDKit          3D

 22 21  0  0  1  0  0  0  0  0999 V2000
   11.6812  -19.1473   20.6352 C   0  0  0  0  0  0  0  0  0  0  0  0
   11.5281  -17.7630   20.0870 C   0  0  2  0  0  0  0  0  0  0  0  0
   12.6879  -17.3296   19.3742 N   0  0  0  0  0  0  0  0  0  0  0  0
   11.1536  -16.7768   21.1705 C   0  0  0  0  0  0  0  0  0  0  0  0
   12.0647  -16.2294   21.8303 O   0  0  0  0  0  0  0  0  0  0  0  0
    8.5658  -13.1788   20.8476 C   0  0  0  0  0  0  0  0  0  0  0  0
    7.7507  -14.4831   20.7980 C   0  0  2  0  0  0  0  0  0  0  0  0
    6.3424  -14.1649   20.3973 C   0  0  0  0  0  0  0  0  0  0  0  0
    7.8368  -15.1956   22.1223 C   0  0  0  0  0  0  0  0  0  0  0  0
    9.2621  -15.5731   22.4103 C   0  0  2  0  0  0  0  0  0  0  0  0
    9.8033  -16.4736   21.4392 N   0  0  0  0  0  0  0  0  0  0  0  0
    9.5858  -15.8731   23.7960 C   0  0  0  0  0  0  0  0  0  0  0  0
    9.8539  -17.0979   24.0651 O   0  0  0  0  0  0  0  0  0  0  0  0
   10.5963  -13.5525   29.4869 C   0  0  0  0  0  0  0  0  0  0  0  0
   10.5342  -14.6513   28.4512 C   0  0  0  0  0  0  0  0  0  0  0  0
   10.0255  -14.1399   27.1205 C   0  0  2  0  0  0  0  0  0  0  0  0
    8.6310  -13.6099   27.2023 C   0  0  0  0  0  0  0  0  0  0  0  0
    9.9952  -15.3527   26.1832 C   0  0  2  0  0  0  0  0  0  0  0  0
    9.6297  -14.9524   24.8489 N   0  0  0  0  0  0  0  0  0  0  0  0
    9.0684  -16.3857   26.7246 C   0  0  0  0  0  0  0  0  0  0  0  0
    7.8443  -16.4151   26.4252 O   0  0  0  0  0  0  0  0  0  0  0  0
    9.5279  -17.3668   27.5910 O   0  0  0  0  0  0  0  0  0  0  0  0
  2  1  1  1
  3  2  1  0
  4  2  1  0
  4 11  1  0
  5  4  2  0
  7  6  1  1
  7  9  1  0
  8  7  1  0
 10  9  1  1
 10 11  1  0
 10 12  1  0
 12 19  1  0
 13 12  2  0
 14 15  1  0
 16 17  1  1
 16 15  1  0
 16 18  1  0
 18 20  1  0
 18 19  1  6
 20 21  2  0
 20 22  1  0
M  END
$$$$
