ALI.pdb
     RDKit          3D

 22 21  0  0  1  0  0  0  0  0999 V2000
    9.8709  -16.0557   19.4826 C   0  0  0  0  0  0  0  0  0  0  0  0
    9.5358  -16.8827   20.6843 C   0  0  2  0  0  0  0  0  0  0  0  0
    8.2455  -17.4880   20.5845 N   0  0  0  0  0  0  0  0  0  0  0  0
    9.6655  -16.0823   21.9608 C   0  0  0  0  0  0  0  0  0  0  0  0
   10.7736  -15.5771   22.2471 O   0  0  0  0  0  0  0  0  0  0  0  0
    5.8424  -13.6148   26.2243 C   0  0  0  0  0  0  0  0  0  0  0  0
    7.2417  -13.7721   25.6034 C   0  0  2  0  0  0  0  0  0  0  0  0
    7.8100  -12.4134   25.3276 C   0  0  0  0  0  0  0  0  0  0  0  0
    7.1654  -14.6368   24.3726 C   0  0  0  0  0  0  0  0  0  0  0  0
    8.5095  -15.2446   24.0881 C   0  0  2  0  0  0  0  0  0  0  0  0
    8.5617  -15.9035   22.8194 N   0  0  0  0  0  0  0  0  0  0  0  0
    9.1493  -15.9472   25.1890 C   0  0  0  0  0  0  0  0  0  0  0  0
    8.9976  -17.2202   25.2159 O   0  0  0  0  0  0  0  0  0  0  0  0
   10.4819  -13.9189   30.2126 C   0  0  0  0  0  0  0  0  0  0  0  0
   10.0617  -14.8545   29.1025 C   0  0  0  0  0  0  0  0  0  0  0  0
   11.2404  -15.2873   28.2573 C   0  0  2  0  0  0  0  0  0  0  0  0
   11.9340  -14.1364   27.6041 C   0  0  0  0  0  0  0  0  0  0  0  0
   10.6622  -16.1620   27.1389 C   0  0  2  0  0  0  0  0  0  0  0  0
    9.9071  -15.3619   26.2095 N   0  0  0  0  0  0  0  0  0  0  0  0
    9.8368  -17.2535   27.7277 C   0  0  0  0  0  0  0  0  0  0  0  0
    8.5767  -17.2234   27.7198 O   0  0  0  0  0  0  0  0  0  0  0  0
   10.4361  -18.3583   28.3144 O   0  0  0  0  0  0  0  0  0  0  0  0
  2  1  1  6
  3  2  1  0
  4  2  1  0
  4 11  1  0
  5  4  2  0
  7  6  1  6
  7  9  1  0
  8  7  1  0
 10  9  1  1
 10 11  1  0
 10 12  1  0
 12 19  1  0
 13 12  2  0
 14 15  1  0
 16 17  1  6
 16 15  1  0
 16 18  1  0
 18 20  1  0
 18 19  1  6
 20 21  2  0
 20 22  1  0
M  END
$$$$
