ALI.pdb
     RDKit          3D

 22 21  0  0  1  0  0  0  0  0999 V2000
    6.1958  -19.1934   23.5884 C   0  0  0  0  0  0  0  0  0  0  0  0
    6.5661  -18.6683   22.2366 C   0  0  2  0  0  0  0  0  0  0  0  0
    6.9660  -19.7071   21.3411 N   0  0  0  0  0  0  0  0  0  0  0  0
    7.6246  -17.5925   22.3316 C   0  0  0  0  0  0  0  0  0  0  0  0
    8.8069  -17.9275   22.5663 O   0  0  0  0  0  0  0  0  0  0  0  0
    8.8526  -14.0594   19.5958 C   0  0  0  0  0  0  0  0  0  0  0  0
    7.4393  -13.9943   20.2013 C   0  0  2  0  0  0  0  0  0  0  0  0
    6.6779  -12.8816   19.5476 C   0  0  0  0  0  0  0  0  0  0  0  0
    7.5258  -13.8457   21.6976 C   0  0  0  0  0  0  0  0  0  0  0  0
    8.1301  -15.0811   22.3021 C   0  0  2  0  0  0  0  0  0  0  0  0
    7.2936  -16.2329   22.1600 N   0  0  0  0  0  0  0  0  0  0  0  0
    8.7677  -14.9226   23.5995 C   0  0  0  0  0  0  0  0  0  0  0  0
   10.0313  -14.7047   23.5893 O   0  0  0  0  0  0  0  0  0  0  0  0
    6.2072  -11.9674   26.5872 C   0  0  0  0  0  0  0  0  0  0  0  0
    7.4210  -12.6549   26.0058 C   0  0  0  0  0  0  0  0  0  0  0  0
    7.9559  -13.7265   26.9313 C   0  0  2  0  0  0  0  0  0  0  0  0
    8.8392  -13.1739   28.0022 C   0  0  0  0  0  0  0  0  0  0  0  0
    8.8200  -14.6463   26.0609 C   0  0  2  0  0  0  0  0  0  0  0  0
    8.1298  -14.9865   24.8434 N   0  0  0  0  0  0  0  0  0  0  0  0
    9.2054  -15.8588   26.8360 C   0  0  0  0  0  0  0  0  0  0  0  0
    9.9661  -15.8025   27.8395 O   0  0  0  0  0  0  0  0  0  0  0  0
    8.7328  -17.1117   26.4742 O   0  0  0  0  0  0  0  0  0  0  0  0
  2  1  1  1
  3  2  1  0
  4  2  1  0
  4 11  1  0
  5  4  2  0
  7  6  1  6
  7  9  1  0
  8  7  1  0
 10  9  1  1
 10 11  1  0
 10 12  1  0
 12 19  1  0
 13 12  2  0
 14 15  1  0
 16 17  1  1
 16 15  1  0
 16 18  1  0
 18 20  1  0
 18 19  1  6
 20 21  2  0
 20 22  1  0
M  END
$$$$
