ALI.pdb
     RDKit          3D

 22 21  0  0  1  0  0  0  0  0999 V2000
   12.5556  -16.7486   19.3332 C   0  0  0  0  0  0  0  0  0  0  0  0
   11.7380  -17.4145   20.3955 C   0  0  2  0  0  0  0  0  0  0  0  0
   10.6359  -18.1452   19.8547 N   0  0  0  0  0  0  0  0  0  0  0  0
   11.2755  -16.4239   21.4404 C   0  0  0  0  0  0  0  0  0  0  0  0
   12.1273  -15.7100   22.0149 O   0  0  0  0  0  0  0  0  0  0  0  0
    8.4408  -13.0870   21.4471 C   0  0  0  0  0  0  0  0  0  0  0  0
    7.7445  -14.4511   21.2969 C   0  0  2  0  0  0  0  0  0  0  0  0
    6.3222  -14.2311   20.8800 C   0  0  0  0  0  0  0  0  0  0  0  0
    7.8659  -15.2357   22.5769 C   0  0  0  0  0  0  0  0  0  0  0  0
    9.3068  -15.5698   22.8396 C   0  0  2  0  0  0  0  0  0  0  0  0
    9.9099  -16.3006   21.7678 N   0  0  0  0  0  0  0  0  0  0  0  0
    9.6305  -16.0349   24.1790 C   0  0  0  0  0  0  0  0  0  0  0  0
   10.0235  -17.2514   24.2790 O   0  0  0  0  0  0  0  0  0  0  0  0
   10.0548  -12.2987   28.0696 C   0  0  0  0  0  0  0  0  0  0  0  0
   10.2569  -13.4561   27.1189 C   0  0  0  0  0  0  0  0  0  0  0  0
    9.8146  -14.7682   27.7304 C   0  0  2  0  0  0  0  0  0  0  0  0
   10.6865  -15.1975   28.8652 C   0  0  0  0  0  0  0  0  0  0  0  0
    9.9578  -15.8210   26.6253 C   0  0  2  0  0  0  0  0  0  0  0  0
    9.5514  -15.2793   25.3542 N   0  0  0  0  0  0  0  0  0  0  0  0
    9.1768  -17.0380   26.9835 C   0  0  0  0  0  0  0  0  0  0  0  0
    7.9424  -17.1388   26.7491 O   0  0  0  0  0  0  0  0  0  0  0  0
    9.7910  -18.1197   27.5973 O   0  0  0  0  0  0  0  0  0  0  0  0
  2  1  1  6
  3  2  1  0
  4  2  1  0
  4 11  1  0
  5  4  2  0
  7  6  1  1
  7  9  1  0
  8  7  1  0
 10  9  1  6
 10 11  1  0
 10 12  1  0
 12 19  1  0
 13 12  2  0
 14 15  1  0
 16 17  1  1
 16 15  1  0
 16 18  1  0
 18 20  1  0
 18 19  1  6
 20 21  2  0
 20 22  1  0
M  END
$$$$
