ALI.pdb
     RDKit          3D

 22 21  0  0  1  0  0  0  0  0999 V2000
    9.6061  -19.1710   19.6759 C   0  0  0  0  0  0  0  0  0  0  0  0
    8.9363  -18.8148   20.9662 C   0  0  2  0  0  0  0  0  0  0  0  0
    7.5168  -18.9630   20.9004 N   0  0  0  0  0  0  0  0  0  0  0  0
    9.3189  -17.4250   21.4234 C   0  0  0  0  0  0  0  0  0  0  0  0
   10.5178  -17.1851   21.6887 O   0  0  0  0  0  0  0  0  0  0  0  0
    8.9730  -12.9678   19.7857 C   0  0  0  0  0  0  0  0  0  0  0  0
    7.7325  -13.8669   19.9302 C   0  0  2  0  0  0  0  0  0  0  0  0
    6.5751  -13.2193   19.2329 C   0  0  0  0  0  0  0  0  0  0  0  0
    7.4611  -14.1411   21.3861 C   0  0  0  0  0  0  0  0  0  0  0  0
    8.5218  -15.0467   21.9443 C   0  0  2  0  0  0  0  0  0  0  0  0
    8.3478  -16.4111   21.5511 N   0  0  0  0  0  0  0  0  0  0  0  0
    8.8888  -14.8345   23.3355 C   0  0  0  0  0  0  0  0  0  0  0  0
   10.0735  -14.3934   23.5502 O   0  0  0  0  0  0  0  0  0  0  0  0
    5.6267  -12.5634   26.7571 C   0  0  0  0  0  0  0  0  0  0  0  0
    6.4086  -13.6746   26.0952 C   0  0  0  0  0  0  0  0  0  0  0  0
    7.8947  -13.5449   26.3519 C   0  0  2  0  0  0  0  0  0  0  0  0
    8.5045  -12.3867   25.6316 C   0  0  0  0  0  0  0  0  0  0  0  0
    8.5355  -14.8181   25.7875 C   0  0  2  0  0  0  0  0  0  0  0  0
    8.0712  -15.0672   24.4471 N   0  0  0  0  0  0  0  0  0  0  0  0
    8.2559  -15.9677   26.6928 C   0  0  0  0  0  0  0  0  0  0  0  0
    8.6165  -15.9765   27.9006 O   0  0  0  0  0  0  0  0  0  0  0  0
    7.5782  -17.0861   26.2304 O   0  0  0  0  0  0  0  0  0  0  0  0
  2  1  1  6
  3  2  1  0
  4  2  1  0
  4 11  1  0
  5  4  2  0
  7  6  1  1
  7  9  1  0
  8  7  1  0
 10  9  1  1
 10 11  1  0
 10 12  1  0
 12 19  1  0
 13 12  2  0
 14 15  1  0
 16 17  1  6
 16 15  1  0
 16 18  1  0
 18 20  1  0
 18 19  1  6
 20 21  2  0
 20 22  1  0
M  END
$$$$
