TLR.pdb
     RDKit          3D

 27 26  0  0  1  0  0  0  0  0999 V2000
   10.2753  -20.1572   21.0937 C   0  0  0  0  0  0  0  0  0  0  0  0
   10.3793  -20.1928   19.6008 C   0  0  1  0  0  0  0  0  0  0  0  0
   10.3659  -21.5077   19.1275 O   0  0  0  0  0  0  0  0  0  0  0  0
    9.3786  -19.3291   18.8823 C   0  0  2  0  0  0  0  0  0  0  0  0
    9.4373  -19.6360   17.4729 N   0  0  0  0  0  0  0  0  0  0  0  0
    9.5537  -17.8984   19.1377 C   0  0  0  0  0  0  0  0  0  0  0  0
   10.6248  -17.3534   18.7211 O   0  0  0  0  0  0  0  0  0  0  0  0
    7.8976  -12.6429   19.6775 C   0  0  0  0  0  0  0  0  0  0  0  0
    7.7387  -13.5444   20.9215 C   0  0  1  0  0  0  0  0  0  0  0  0
    6.5572  -12.9950   21.6549 C   0  0  0  0  0  0  0  0  0  0  0  0
    7.6133  -14.9226   20.4068 C   0  0  0  0  0  0  0  0  0  0  0  0
    8.8490  -15.7013   20.1512 C   0  0  2  0  0  0  0  0  0  0  0  0
    8.6360  -17.0702   19.8072 N   0  0  0  0  0  0  0  0  0  0  0  0
    9.8905  -15.5230   21.1963 C   0  0  0  0  0  0  0  0  0  0  0  0
   10.3810  -14.3974   21.4824 O   0  0  0  0  0  0  0  0  0  0  0  0
   10.2245  -17.7587   28.5267 N   0  0  0  0  0  0  0  0  0  0  0  0
   10.8695  -16.4995   28.7841 C   0  0  0  0  0  0  0  0  0  0  0  0
   11.4936  -16.4156   29.9136 N   0  0  0  0  0  0  0  0  0  0  0  0
   10.8210  -15.4315   27.8624 N   0  0  0  0  0  0  0  0  0  0  0  0
   10.1508  -15.6126   26.6037 C   0  0  0  0  0  0  0  0  0  0  0  0
   10.9507  -16.5387   25.6824 C   0  0  0  0  0  0  0  0  0  0  0  0
   10.2776  -16.5860   24.3567 C   0  0  0  0  0  0  0  0  0  0  0  0
   11.1780  -16.4525   23.1756 C   0  0  2  0  0  0  0  0  0  0  0  0
   10.3950  -16.6264   21.9382 N   0  0  0  0  0  0  0  0  0  0  0  0
   12.2538  -17.4511   23.2116 C   0  0  0  0  0  0  0  0  0  0  0  0
   13.1736  -17.3275   24.0948 O   0  0  0  0  0  0  0  0  0  0  0  0
   12.3324  -18.5182   22.3498 O   0  0  0  0  0  0  0  0  0  0  0  0
  2  1  1  1
  2  3  1  0
  4  2  1  0
  4  6  1  0
  4  5  1  6
  6 13  1  0
  7  6  2  0
  9  8  1  6
 10  9  1  0
 11  9  1  0
 12 11  1  1
 13 12  1  0
 14 12  1  0
 14 15  2  0
 16 17  1  0
 17 19  1  0
 17 18  2  0
 19 20  1  0
 20 21  1  0
 21 22  1  0
 23 22  1  1
 23 25  1  0
 23 24  1  0
 24 14  1  0
 25 27  1  0
 26 25  2  0
M  END
$$$$
