TLR.pdb
     RDKit          3D

 27 26  0  0  1  0  0  0  0  0999 V2000
    7.3016  -16.4913   20.7076 C   0  0  0  0  0  0  0  0  0  0  0  0
    7.9147  -15.2294   20.1857 C   0  0  1  0  0  0  0  0  0  0  0  0
    7.6741  -15.0829   18.8168 O   0  0  0  0  0  0  0  0  0  0  0  0
    7.5468  -13.9896   20.9546 C   0  0  2  0  0  0  0  0  0  0  0  0
    7.9936  -12.8380   20.2073 N   0  0  0  0  0  0  0  0  0  0  0  0
    8.0566  -13.9819   22.3268 C   0  0  0  0  0  0  0  0  0  0  0  0
    9.3011  -13.7763   22.4907 O   0  0  0  0  0  0  0  0  0  0  0  0
    5.3753  -12.3942   27.0113 C   0  0  0  0  0  0  0  0  0  0  0  0
    6.4532  -12.4864   25.9090 C   0  0  1  0  0  0  0  0  0  0  0  0
    7.4861  -11.4730   26.2856 C   0  0  0  0  0  0  0  0  0  0  0  0
    6.8892  -13.8969   25.8890 C   0  0  0  0  0  0  0  0  0  0  0  0
    7.7994  -14.3445   24.8074 C   0  0  2  0  0  0  0  0  0  0  0  0
    7.2861  -14.1835   23.4851 N   0  0  0  0  0  0  0  0  0  0  0  0
    8.3826  -15.6913   25.0411 C   0  0  0  0  0  0  0  0  0  0  0  0
    7.6811  -16.6913   25.3529 O   0  0  0  0  0  0  0  0  0  0  0  0
   14.1349  -18.9326   20.0133 N   0  0  0  0  0  0  0  0  0  0  0  0
   13.4829  -19.8622   20.8956 C   0  0  0  0  0  0  0  0  0  0  0  0
   14.0346  -21.0287   20.9798 N   0  0  0  0  0  0  0  0  0  0  0  0
   12.3198  -19.5187   21.6179 N   0  0  0  0  0  0  0  0  0  0  0  0
   12.3130  -18.3288   22.4245 C   0  0  0  0  0  0  0  0  0  0  0  0
   11.8968  -18.6426   23.8648 C   0  0  0  0  0  0  0  0  0  0  0  0
   11.7039  -17.3598   24.5930 C   0  0  0  0  0  0  0  0  0  0  0  0
   10.3976  -17.2124   25.2968 C   0  0  2  0  0  0  0  0  0  0  0  0
    9.7804  -15.9262   24.9239 N   0  0  0  0  0  0  0  0  0  0  0  0
   10.5703  -17.2616   26.7541 C   0  0  0  0  0  0  0  0  0  0  0  0
   11.0691  -18.3202   27.2755 O   0  0  0  0  0  0  0  0  0  0  0  0
   10.2278  -16.2324   27.5973 O   0  0  0  0  0  0  0  0  0  0  0  0
  2  1  1  1
  2  3  1  0
  4  2  1  0
  4  6  1  0
  4  5  1  6
  6 13  1  0
  7  6  2  0
  9  8  1  1
 10  9  1  0
 11  9  1  0
 12 11  1  1
 13 12  1  0
 14 12  1  0
 14 15  2  0
 16 17  1  0
 17 19  1  0
 17 18  2  0
 19 20  1  0
 20 21  1  0
 21 22  1  0
 23 22  1  6
 23 25  1  0
 23 24  1  0
 24 14  1  0
 25 27  1  0
 26 25  2  0
M  END
$$$$
