TLR.pdb
     RDKit          3D

 27 26  0  0  1  0  0  0  0  0999 V2000
    7.4948  -18.0734   23.1658 C   0  0  0  0  0  0  0  0  0  0  0  0
    8.1215  -17.3488   22.0156 C   0  0  1  0  0  0  0  0  0  0  0  0
    7.7605  -17.9318   20.7978 O   0  0  0  0  0  0  0  0  0  0  0  0
    7.8943  -15.8615   22.0134 C   0  0  2  0  0  0  0  0  0  0  0  0
    8.3893  -15.3246   20.7681 N   0  0  0  0  0  0  0  0  0  0  0  0
    8.4764  -15.1812   23.1715 C   0  0  0  0  0  0  0  0  0  0  0  0
    9.7228  -14.9294   23.1405 O   0  0  0  0  0  0  0  0  0  0  0  0
    5.7439  -11.6516   26.5015 C   0  0  0  0  0  0  0  0  0  0  0  0
    6.7384  -12.2724   25.4961 C   0  0  1  0  0  0  0  0  0  0  0  0
    7.5277  -11.1197   24.9634 C   0  0  0  0  0  0  0  0  0  0  0  0
    7.4905  -13.2938   26.2520 C   0  0  0  0  0  0  0  0  0  0  0  0
    8.3576  -14.2363   25.5048 C   0  0  2  0  0  0  0  0  0  0  0  0
    7.7737  -14.7802   24.3211 N   0  0  0  0  0  0  0  0  0  0  0  0
    8.9909  -15.2699   26.3646 C   0  0  0  0  0  0  0  0  0  0  0  0
    9.6096  -14.9859   27.4257 O   0  0  0  0  0  0  0  0  0  0  0  0
   10.4517  -22.3411   29.0559 N   0  0  0  0  0  0  0  0  0  0  0  0
    9.8308  -21.6098   30.1271 C   0  0  0  0  0  0  0  0  0  0  0  0
   10.3371  -21.8063   31.3006 N   0  0  0  0  0  0  0  0  0  0  0  0
    8.7428  -20.7380   29.9061 N   0  0  0  0  0  0  0  0  0  0  0  0
    8.2054  -20.5987   28.5800 C   0  0  0  0  0  0  0  0  0  0  0  0
    9.2682  -20.0783   27.6074 C   0  0  0  0  0  0  0  0  0  0  0  0
    8.7092  -18.9108   26.8742 C   0  0  0  0  0  0  0  0  0  0  0  0
    9.5661  -17.6905   26.8635 C   0  0  2  0  0  0  0  0  0  0  0  0
    8.9318  -16.6513   26.0317 N   0  0  0  0  0  0  0  0  0  0  0  0
   10.9035  -17.9847   26.3334 C   0  0  0  0  0  0  0  0  0  0  0  0
   11.1359  -17.7506   25.0955 O   0  0  0  0  0  0  0  0  0  0  0  0
   11.9278  -18.4983   27.0915 O   0  0  0  0  0  0  0  0  0  0  0  0
  2  1  1  1
  2  3  1  0
  4  2  1  0
  4  6  1  0
  4  5  1  6
  6 13  1  0
  7  6  2  0
  9  8  1  1
 10  9  1  0
 11  9  1  0
 12 11  1  1
 13 12  1  0
 14 12  1  0
 14 15  2  0
 16 17  1  0
 17 19  1  0
 17 18  2  0
 19 20  1  0
 20 21  1  0
 21 22  1  0
 23 22  1  6
 23 25  1  0
 23 24  1  0
 24 14  1  0
 25 27  1  0
 26 25  2  0
M  END
$$$$
