TLR.pdb
     RDKit          3D

 27 26  0  0  1  0  0  0  0  0999 V2000
    7.1315  -15.7972   20.2156 C   0  0  0  0  0  0  0  0  0  0  0  0
    7.9886  -14.6880   19.6905 C   0  0  1  0  0  0  0  0  0  0  0  0
    7.7794  -14.4961   18.3221 O   0  0  0  0  0  0  0  0  0  0  0  0
    7.8847  -13.3986   20.4589 C   0  0  2  0  0  0  0  0  0  0  0  0
    8.6410  -12.3869   19.7599 N   0  0  0  0  0  0  0  0  0  0  0  0
    8.2966  -13.5193   21.8584 C   0  0  0  0  0  0  0  0  0  0  0  0
    9.5262  -13.3362   22.1275 O   0  0  0  0  0  0  0  0  0  0  0  0
    5.1741  -12.5798   26.5681 C   0  0  0  0  0  0  0  0  0  0  0  0
    6.2972  -12.4547   25.5153 C   0  0  1  0  0  0  0  0  0  0  0  0
    7.2609  -11.4643   26.0866 C   0  0  0  0  0  0  0  0  0  0  0  0
    6.8062  -13.8245   25.3046 C   0  0  0  0  0  0  0  0  0  0  0  0
    7.8604  -14.0424   24.2848 C   0  0  2  0  0  0  0  0  0  0  0  0
    7.4467  -13.8218   22.9364 N   0  0  0  0  0  0  0  0  0  0  0  0
    8.6025  -15.3180   24.4605 C   0  0  0  0  0  0  0  0  0  0  0  0
    9.0333  -15.7053   25.5802 O   0  0  0  0  0  0  0  0  0  0  0  0
   13.1590  -16.7630   17.8264 N   0  0  0  0  0  0  0  0  0  0  0  0
   13.4409  -15.7190   18.7742 C   0  0  0  0  0  0  0  0  0  0  0  0
   14.3793  -14.8974   18.4330 N   0  0  0  0  0  0  0  0  0  0  0  0
   12.7374  -15.6043   19.9926 N   0  0  0  0  0  0  0  0  0  0  0  0
   12.0091  -16.7356   20.4988 C   0  0  0  0  0  0  0  0  0  0  0  0
   11.2821  -16.3845   21.8005 C   0  0  0  0  0  0  0  0  0  0  0  0
   10.5062  -17.5730   22.2459 C   0  0  0  0  0  0  0  0  0  0  0  0
    9.7065  -17.3867   23.4907 C   0  0  2  0  0  0  0  0  0  0  0  0
    8.8691  -16.1799   23.3612 N   0  0  0  0  0  0  0  0  0  0  0  0
   10.5762  -17.2481   24.6656 C   0  0  0  0  0  0  0  0  0  0  0  0
   10.7488  -18.2674   25.4223 O   0  0  0  0  0  0  0  0  0  0  0  0
   11.2212  -16.0830   25.0032 O   0  0  0  0  0  0  0  0  0  0  0  0
  2  1  1  1
  2  3  1  0
  4  2  1  0
  4  6  1  0
  4  5  1  6
  6 13  1  0
  7  6  2  0
  9  8  1  1
 10  9  1  0
 11  9  1  0
 12 11  1  1
 13 12  1  0
 14 12  1  0
 14 15  2  0
 16 17  1  0
 17 19  1  0
 17 18  2  0
 19 20  1  0
 20 21  1  0
 21 22  1  0
 23 22  1  6
 23 25  1  0
 23 24  1  0
 24 14  1  0
 25 27  1  0
 26 25  2  0
M  END
$$$$
