TLR.pdb
     RDKit          3D

 27 26  0  0  1  0  0  0  0  0999 V2000
    6.3796  -14.3758   18.5882 C   0  0  0  0  0  0  0  0  0  0  0  0
    7.0042  -14.5814   19.9330 C   0  0  1  0  0  0  0  0  0  0  0  0
    7.9997  -15.5608   19.8800 O   0  0  0  0  0  0  0  0  0  0  0  0
    7.4925  -13.3222   20.5960 C   0  0  2  0  0  0  0  0  0  0  0  0
    8.4486  -12.6855   19.7215 N   0  0  0  0  0  0  0  0  0  0  0  0
    8.0399  -13.5433   21.9355 C   0  0  0  0  0  0  0  0  0  0  0  0
    9.2915  -13.7480   22.0329 O   0  0  0  0  0  0  0  0  0  0  0  0
    5.6204  -11.7763   26.7242 C   0  0  0  0  0  0  0  0  0  0  0  0
    6.6813  -11.9315   25.6125 C   0  0  1  0  0  0  0  0  0  0  0  0
    7.7958  -11.0147   26.0040 C   0  0  0  0  0  0  0  0  0  0  0  0
    7.0003  -13.3721   25.5583 C   0  0  0  0  0  0  0  0  0  0  0  0
    7.8067  -13.8796   24.4222 C   0  0  2  0  0  0  0  0  0  0  0  0
    7.2984  -13.5494   23.1297 N   0  0  0  0  0  0  0  0  0  0  0  0
    8.1755  -15.3137   24.5493 C   0  0  0  0  0  0  0  0  0  0  0  0
    7.3646  -16.2483   24.3078 O   0  0  0  0  0  0  0  0  0  0  0  0
   15.2079  -18.7110   22.1926 N   0  0  0  0  0  0  0  0  0  0  0  0
   14.6637  -19.9578   22.6585 C   0  0  0  0  0  0  0  0  0  0  0  0
   15.4978  -20.9448   22.7061 N   0  0  0  0  0  0  0  0  0  0  0  0
   13.3101  -20.0888   23.0368 N   0  0  0  0  0  0  0  0  0  0  0  0
   12.4194  -18.9717   22.8780 C   0  0  0  0  0  0  0  0  0  0  0  0
   11.5704  -18.7617   24.1356 C   0  0  0  0  0  0  0  0  0  0  0  0
   11.0159  -17.3816   24.1084 C   0  0  0  0  0  0  0  0  0  0  0  0
    9.8793  -17.1290   25.0400 C   0  0  2  0  0  0  0  0  0  0  0  0
    9.4790  -15.7124   24.9549 N   0  0  0  0  0  0  0  0  0  0  0  0
   10.2474  -17.4453   26.4258 C   0  0  0  0  0  0  0  0  0  0  0  0
   10.3694  -16.4817   27.2613 O   0  0  0  0  0  0  0  0  0  0  0  0
   10.4689  -18.7217   26.8832 O   0  0  0  0  0  0  0  0  0  0  0  0
  2  1  1  6
  2  3  1  0
  4  2  1  0
  4  6  1  0
  4  5  1  6
  6 13  1  0
  7  6  2  0
  9  8  1  1
 10  9  1  0
 11  9  1  0
 12 11  1  1
 13 12  1  0
 14 12  1  0
 14 15  2  0
 16 17  1  0
 17 19  1  0
 17 18  2  0
 19 20  1  0
 20 21  1  0
 21 22  1  0
 23 22  1  6
 23 25  1  0
 23 24  1  0
 24 14  1  0
 25 27  1  0
 26 25  2  0
M  END
$$$$
