TLR.pdb
     RDKit          3D

 27 26  0  0  1  0  0  0  0  0999 V2000
    6.7276  -16.5121   20.9352 C   0  0  0  0  0  0  0  0  0  0  0  0
    7.5247  -15.4438   20.2540 C   0  0  1  0  0  0  0  0  0  0  0  0
    7.2165  -15.3780   18.8925 O   0  0  0  0  0  0  0  0  0  0  0  0
    7.4506  -14.0921   20.9107 C   0  0  2  0  0  0  0  0  0  0  0  0
    8.0994  -13.1298   20.0521 N   0  0  0  0  0  0  0  0  0  0  0  0
    8.0003  -14.0721   22.2672 C   0  0  0  0  0  0  0  0  0  0  0  0
    9.2664  -14.0647   22.3887 O   0  0  0  0  0  0  0  0  0  0  0  0
    5.5035  -11.8664   26.8125 C   0  0  0  0  0  0  0  0  0  0  0  0
    6.4760  -12.1472   25.6460 C   0  0  1  0  0  0  0  0  0  0  0  0
    7.5199  -11.0809   25.7411 C   0  0  0  0  0  0  0  0  0  0  0  0
    6.9351  -13.5383   25.8303 C   0  0  0  0  0  0  0  0  0  0  0  0
    7.7755  -14.1553   24.7759 C   0  0  2  0  0  0  0  0  0  0  0  0
    7.2462  -14.0605   23.4536 N   0  0  0  0  0  0  0  0  0  0  0  0
    8.2433  -15.5247   25.1147 C   0  0  0  0  0  0  0  0  0  0  0  0
    7.4646  -16.5146   25.1716 O   0  0  0  0  0  0  0  0  0  0  0  0
   13.4114  -19.9768   21.2141 N   0  0  0  0  0  0  0  0  0  0  0  0
   13.9594  -20.4990   22.4367 C   0  0  0  0  0  0  0  0  0  0  0  0
   14.4341  -21.6997   22.3645 N   0  0  0  0  0  0  0  0  0  0  0  0
   13.9751  -19.7471   23.6312 N   0  0  0  0  0  0  0  0  0  0  0  0
   13.2814  -18.4891   23.6849 C   0  0  0  0  0  0  0  0  0  0  0  0
   12.0461  -18.5798   24.5861 C   0  0  0  0  0  0  0  0  0  0  0  0
   11.3607  -17.2595   24.5856 C   0  0  0  0  0  0  0  0  0  0  0  0
   10.1492  -17.1660   25.4501 C   0  0  2  0  0  0  0  0  0  0  0  0
    9.6111  -15.7942   25.3960 N   0  0  0  0  0  0  0  0  0  0  0  0
   10.4626  -17.5080   26.8433 C   0  0  0  0  0  0  0  0  0  0  0  0
   10.9161  -18.6787   27.0985 O   0  0  0  0  0  0  0  0  0  0  0  0
   10.2986  -16.6409   27.8963 O   0  0  0  0  0  0  0  0  0  0  0  0
  2  1  1  1
  2  3  1  0
  4  2  1  0
  4  6  1  0
  4  5  1  6
  6 13  1  0
  7  6  2  0
  9  8  1  1
 10  9  1  0
 11  9  1  0
 12 11  1  1
 13 12  1  0
 14 12  1  0
 14 15  2  0
 16 17  1  0
 17 19  1  0
 17 18  2  0
 19 20  1  0
 20 21  1  0
 21 22  1  0
 23 22  1  6
 23 25  1  0
 23 24  1  0
 24 14  1  0
 25 27  1  0
 26 25  2  0
M  END
$$$$
