GEH.pdb
     RDKit          3D

 24 24  0  0  1  0  0  0  0  0999 V2000
    9.8250  -24.7121   24.1305 N   0  0  0  0  0  0  0  0  0  0  0  0
   10.8652  -23.9442   24.7828 C   0  0  0  0  0  0  0  0  0  0  0  0
   10.2816  -23.1322   25.8854 C   0  0  0  0  0  0  0  0  0  0  0  0
    9.2140  -22.4605   25.6589 O   0  0  0  0  0  0  0  0  0  0  0  0
   10.8909  -23.0971   27.1689 N   0  0  0  0  0  0  0  0  0  0  0  0
   10.4534  -22.2399   28.2292 C   0  0  1  0  0  0  0  0  0  0  0  0
   10.6514  -22.7905   29.5891 C   0  0  0  0  0  0  0  0  0  0  0  0
   11.3781  -24.0348   29.8077 C   0  0  0  0  0  0  0  0  0  0  0  0
   11.4909  -24.5623   31.1623 C   0  0  0  0  0  0  0  0  0  0  0  0
   10.5830  -25.1566   31.7644 O   0  0  0  0  0  0  0  0  0  0  0  0
   10.8119  -20.8216   28.1037 C   0  0  0  0  0  0  0  0  0  0  0  0
   11.9135  -20.5074   27.5268 O   0  0  0  0  0  0  0  0  0  0  0  0
   12.6829  -24.4264   31.9038 O   0  0  0  0  0  0  0  0  0  0  0  0
   10.0368  -19.7325   28.5729 N   0  0  0  0  0  0  0  0  0  0  0  0
   10.3974  -18.3254   28.3197 C   0  0  1  0  0  0  0  0  0  0  0  0
    9.3286  -17.3926   28.7257 C   0  0  0  0  0  0  0  0  0  0  0  0
    9.7809  -15.9981   28.5679 C   0  0  0  0  0  0  0  0  0  0  0  0
   10.9759  -15.4656   28.1394 C   0  0  0  0  0  0  0  0  0  0  0  0
   10.9597  -14.1196   28.1913 N   0  0  0  0  0  0  0  0  0  0  0  0
    9.7476  -13.7804   28.6562 C   0  0  0  0  0  0  0  0  0  0  0  0
    9.0350  -14.8950   28.8847 N   0  0  0  0  0  0  0  0  0  0  0  0
   11.6292  -18.0628   29.0673 C   0  0  0  0  0  0  0  0  0  0  0  0
   11.8410  -18.6254   30.1675 O   0  0  0  0  0  0  0  0  0  0  0  0
   12.6068  -17.2040   28.6132 O   0  0  0  0  0  0  0  0  0  0  0  0
  2  3  1  0
  2  1  1  0
  3  5  1  0
  4  3  2  0
  5  6  1  0
  6 11  1  0
  6  7  1  1
  7  8  1  0
  9 13  1  0
  9  8  1  0
 10  9  2  0
 11 14  1  0
 11 12  2  0
 14 15  1  0
 15 22  1  0
 15 16  1  1
 16 17  1  0
 17 18  2  0
 19 18  1  0
 20 19  1  0
 21 20  2  0
 21 17  1  0
 22 24  1  0
 23 22  2  0
M  END
$$$$
