GEH.pdb
     RDKit          3D

 24 24  0  0  1  0  0  0  0  0999 V2000
    8.8381  -15.5994   14.6751 N   0  0  0  0  0  0  0  0  0  0  0  0
   10.2214  -15.4741   15.0851 C   0  0  0  0  0  0  0  0  0  0  0  0
   10.4274  -16.1551   16.3926 C   0  0  0  0  0  0  0  0  0  0  0  0
    9.4019  -16.4617   17.0972 O   0  0  0  0  0  0  0  0  0  0  0  0
   11.7343  -16.4633   16.8583 N   0  0  0  0  0  0  0  0  0  0  0  0
   12.0046  -17.0034   18.1567 C   0  0  1  0  0  0  0  0  0  0  0  0
   13.2833  -17.7418   18.2636 C   0  0  0  0  0  0  0  0  0  0  0  0
   13.5992  -18.8494   17.3705 C   0  0  0  0  0  0  0  0  0  0  0  0
   14.8792  -19.5331   17.5130 C   0  0  0  0  0  0  0  0  0  0  0  0
   15.7310  -19.6271   16.6154 O   0  0  0  0  0  0  0  0  0  0  0  0
   11.7326  -16.1169   19.2951 C   0  0  0  0  0  0  0  0  0  0  0  0
   12.3057  -14.9704   19.3412 O   0  0  0  0  0  0  0  0  0  0  0  0
   15.2459  -20.1548   18.7247 O   0  0  0  0  0  0  0  0  0  0  0  0
   10.8735  -16.4136   20.3818 N   0  0  0  0  0  0  0  0  0  0  0  0
   10.5886  -15.4520   21.4627 C   0  0  1  0  0  0  0  0  0  0  0  0
    9.1500  -15.1424   21.5707 C   0  0  0  0  0  0  0  0  0  0  0  0
    8.7249  -14.2911   20.4443 C   0  0  0  0  0  0  0  0  0  0  0  0
    9.4390  -13.6748   19.4416 C   0  0  0  0  0  0  0  0  0  0  0  0
    8.6333  -12.9544   18.6374 N   0  0  0  0  0  0  0  0  0  0  0  0
    7.3918  -13.1057   19.1234 C   0  0  0  0  0  0  0  0  0  0  0  0
    7.4348  -13.9025   20.2032 N   0  0  0  0  0  0  0  0  0  0  0  0
   11.0871  -16.0497   22.7035 C   0  0  0  0  0  0  0  0  0  0  0  0
   11.5358  -17.2204   22.7134 O   0  0  0  0  0  0  0  0  0  0  0  0
   11.0950  -15.3739   23.9046 O   0  0  0  0  0  0  0  0  0  0  0  0
  2  3  1  0
  2  1  1  0
  3  5  1  0
  4  3  2  0
  5  6  1  0
  6 11  1  0
  6  7  1  6
  7  8  1  0
  9 13  1  0
  9  8  1  0
 10  9  2  0
 11 14  1  0
 11 12  2  0
 14 15  1  0
 15 22  1  0
 15 16  1  1
 16 17  1  0
 17 18  2  0
 19 18  1  0
 20 19  1  0
 21 20  2  0
 21 17  1  0
 22 24  1  0
 23 22  2  0
M  END
$$$$
