GEH.pdb
     RDKit          3D

 24 24  0  0  1  0  0  0  0  0999 V2000
    7.4240  -20.4431   26.0395 N   0  0  0  0  0  0  0  0  0  0  0  0
    6.6240  -19.2961   25.6631 C   0  0  0  0  0  0  0  0  0  0  0  0
    6.7541  -19.0433   24.2020 C   0  0  0  0  0  0  0  0  0  0  0  0
    7.5747  -19.7560   23.5229 O   0  0  0  0  0  0  0  0  0  0  0  0
    5.9860  -18.0322   23.5638 N   0  0  0  0  0  0  0  0  0  0  0  0
    6.0556  -17.7525   22.1611 C   0  0  1  0  0  0  0  0  0  0  0  0
    4.8180  -17.1808   21.5839 C   0  0  0  0  0  0  0  0  0  0  0  0
    3.5299  -17.8457   21.7359 C   0  0  0  0  0  0  0  0  0  0  0  0
    3.3235  -19.1451   21.1076 C   0  0  0  0  0  0  0  0  0  0  0  0
    2.7856  -20.1171   21.6607 O   0  0  0  0  0  0  0  0  0  0  0  0
    7.2860  -17.1031   21.6918 C   0  0  0  0  0  0  0  0  0  0  0  0
    7.5678  -17.1352   20.4410 O   0  0  0  0  0  0  0  0  0  0  0  0
    3.7369  -19.3910   19.7818 O   0  0  0  0  0  0  0  0  0  0  0  0
    8.2220  -16.4247   22.5107 N   0  0  0  0  0  0  0  0  0  0  0  0
    9.4846  -15.8678   21.9912 C   0  0  1  0  0  0  0  0  0  0  0  0
    9.4553  -14.3946   21.9124 C   0  0  0  0  0  0  0  0  0  0  0  0
    8.7297  -13.9623   20.7037 C   0  0  0  0  0  0  0  0  0  0  0  0
    8.2240  -14.6701   19.6367 C   0  0  0  0  0  0  0  0  0  0  0  0
    7.6614  -13.8508   18.7272 N   0  0  0  0  0  0  0  0  0  0  0  0
    7.8047  -12.6068   19.2091 C   0  0  0  0  0  0  0  0  0  0  0  0
    8.4418  -12.6616   20.3896 N   0  0  0  0  0  0  0  0  0  0  0  0
   10.5486  -16.3199   22.8904 C   0  0  0  0  0  0  0  0  0  0  0  0
   11.7397  -15.9827   22.6911 O   0  0  0  0  0  0  0  0  0  0  0  0
   10.3074  -17.1212   23.9854 O   0  0  0  0  0  0  0  0  0  0  0  0
  2  3  1  0
  2  1  1  0
  3  5  1  0
  4  3  2  0
  5  6  1  0
  6 11  1  0
  6  7  1  1
  7  8  1  0
  9 13  1  0
  9  8  1  0
 10  9  2  0
 11 14  1  0
 11 12  2  0
 14 15  1  0
 15 22  1  0
 15 16  1  1
 16 17  1  0
 17 18  2  0
 19 18  1  0
 20 19  1  0
 21 20  2  0
 21 17  1  0
 22 24  1  0
 23 22  2  0
M  END
$$$$
