GEH.pdb
     RDKit          3D

 24 24  0  0  1  0  0  0  0  0999 V2000
    7.2115  -16.1921   17.5440 N   0  0  0  0  0  0  0  0  0  0  0  0
    8.4399  -15.6786   18.1137 C   0  0  0  0  0  0  0  0  0  0  0  0
    8.6016  -16.1779   19.5066 C   0  0  0  0  0  0  0  0  0  0  0  0
    7.5543  -16.3613   20.2220 O   0  0  0  0  0  0  0  0  0  0  0  0
    9.8902  -16.4489   20.0411 N   0  0  0  0  0  0  0  0  0  0  0  0
   10.1117  -16.9014   21.3815 C   0  0  1  0  0  0  0  0  0  0  0  0
   11.3416  -17.7046   21.5661 C   0  0  0  0  0  0  0  0  0  0  0  0
   11.6817  -18.2895   22.8569 C   0  0  0  0  0  0  0  0  0  0  0  0
   12.9280  -19.0340   22.9925 C   0  0  0  0  0  0  0  0  0  0  0  0
   13.0119  -20.1937   23.4261 O   0  0  0  0  0  0  0  0  0  0  0  0
    9.8810  -15.9142   22.4435 C   0  0  0  0  0  0  0  0  0  0  0  0
   10.4815  -14.7826   22.3817 O   0  0  0  0  0  0  0  0  0  0  0  0
   14.1648  -18.4636   22.6261 O   0  0  0  0  0  0  0  0  0  0  0  0
    9.0347  -16.0952   23.5651 N   0  0  0  0  0  0  0  0  0  0  0  0
    8.7585  -15.0246   24.5406 C   0  0  1  0  0  0  0  0  0  0  0  0
    7.3138  -14.7646   24.6913 C   0  0  0  0  0  0  0  0  0  0  0  0
    7.0824  -13.7681   25.7532 C   0  0  0  0  0  0  0  0  0  0  0  0
    7.9531  -13.0623   26.5526 C   0  0  0  0  0  0  0  0  0  0  0  0
    7.2915  -12.2771   27.4246 N   0  0  0  0  0  0  0  0  0  0  0  0
    5.9860  -12.4768   27.1876 C   0  0  0  0  0  0  0  0  0  0  0  0
    5.8495  -13.3660   26.1909 N   0  0  0  0  0  0  0  0  0  0  0  0
    9.3465  -15.4490   25.8131 C   0  0  0  0  0  0  0  0  0  0  0  0
    9.6007  -16.6579   26.0277 O   0  0  0  0  0  0  0  0  0  0  0  0
    9.6510  -14.5638   26.8245 O   0  0  0  0  0  0  0  0  0  0  0  0
  2  3  1  0
  2  1  1  0
  3  5  1  0
  4  3  2  0
  5  6  1  0
  6 11  1  0
  6  7  1  6
  7  8  1  0
  9 13  1  0
  9  8  1  0
 10  9  2  0
 11 14  1  0
 11 12  2  0
 14 15  1  0
 15 22  1  0
 15 16  1  1
 16 17  1  0
 17 18  2  0
 19 18  1  0
 20 19  1  0
 21 20  2  0
 21 17  1  0
 22 24  1  0
 23 22  2  0
M  END
$$$$
