GEH.pdb
     RDKit          3D

 24 24  0  0  1  0  0  0  0  0999 V2000
    6.8095  -14.3194   19.5581 N   0  0  0  0  0  0  0  0  0  0  0  0
    8.1546  -14.8368   19.6997 C   0  0  0  0  0  0  0  0  0  0  0  0
    8.2215  -15.7673   20.8596 C   0  0  0  0  0  0  0  0  0  0  0  0
    7.2532  -15.7781   21.6990 O   0  0  0  0  0  0  0  0  0  0  0  0
    9.3352  -16.6315   21.0402 N   0  0  0  0  0  0  0  0  0  0  0  0
    9.4131  -17.6156   22.0775 C   0  0  1  0  0  0  0  0  0  0  0  0
   10.3144  -18.7525   21.7828 C   0  0  0  0  0  0  0  0  0  0  0  0
   10.4041  -19.3257   20.4458 C   0  0  0  0  0  0  0  0  0  0  0  0
   11.4543  -20.2953   20.1582 C   0  0  0  0  0  0  0  0  0  0  0  0
   11.5156  -21.4334   20.6492 O   0  0  0  0  0  0  0  0  0  0  0  0
    9.5316  -17.1023   23.4480 C   0  0  0  0  0  0  0  0  0  0  0  0
   10.3306  -16.1260   23.6794 O   0  0  0  0  0  0  0  0  0  0  0  0
   12.5077  -19.9917   19.2708 O   0  0  0  0  0  0  0  0  0  0  0  0
    8.8290  -17.5958   24.5748 N   0  0  0  0  0  0  0  0  0  0  0  0
    8.9107  -16.9687   25.9068 C   0  0  1  0  0  0  0  0  0  0  0  0
    7.6035  -16.4627   26.3677 C   0  0  0  0  0  0  0  0  0  0  0  0
    7.3598  -15.1122   25.8282 C   0  0  0  0  0  0  0  0  0  0  0  0
    8.1868  -14.2204   25.1833 C   0  0  0  0  0  0  0  0  0  0  0  0
    7.5421  -13.0728   24.8966 N   0  0  0  0  0  0  0  0  0  0  0  0
    6.2917  -13.2238   25.3593 C   0  0  0  0  0  0  0  0  0  0  0  0
    6.1716  -14.4386   25.9180 N   0  0  0  0  0  0  0  0  0  0  0  0
    9.4271  -17.9876   26.8236 C   0  0  0  0  0  0  0  0  0  0  0  0
    9.6609  -19.1512   26.4194 O   0  0  0  0  0  0  0  0  0  0  0  0
    9.6836  -17.7313   28.1532 O   0  0  0  0  0  0  0  0  0  0  0  0
  2  3  1  0
  2  1  1  0
  3  5  1  0
  4  3  2  0
  5  6  1  0
  6 11  1  0
  6  7  1  6
  7  8  1  0
  9 13  1  0
  9  8  1  0
 10  9  2  0
 11 14  1  0
 11 12  2  0
 14 15  1  0
 15 22  1  0
 15 16  1  1
 16 17  1  0
 17 18  2  0
 19 18  1  0
 20 19  1  0
 21 20  2  0
 21 17  1  0
 22 24  1  0
 23 22  2  0
M  END
$$$$
