GEH.pdb
     RDKit          3D

 24 24  0  0  1  0  0  0  0  0999 V2000
    7.0459  -15.5196   19.3958 N   0  0  0  0  0  0  0  0  0  0  0  0
    8.1296  -16.0702   20.1830 C   0  0  0  0  0  0  0  0  0  0  0  0
    7.7098  -16.1991   21.6053 C   0  0  0  0  0  0  0  0  0  0  0  0
    6.8123  -15.4046   22.0584 O   0  0  0  0  0  0  0  0  0  0  0  0
    8.2887  -17.1828   22.4520 N   0  0  0  0  0  0  0  0  0  0  0  0
    7.9230  -17.3592   23.8253 C   0  0  1  0  0  0  0  0  0  0  0  0
    7.7041  -18.7664   24.2295 C   0  0  0  0  0  0  0  0  0  0  0  0
    7.2314  -19.1098   25.5647 C   0  0  0  0  0  0  0  0  0  0  0  0
    7.1401  -20.5141   25.9459 C   0  0  0  0  0  0  0  0  0  0  0  0
    6.7396  -20.9200   27.0482 O   0  0  0  0  0  0  0  0  0  0  0  0
    8.6833  -16.5708   24.8031 C   0  0  0  0  0  0  0  0  0  0  0  0
    9.9500  -16.4421   24.6481 O   0  0  0  0  0  0  0  0  0  0  0  0
    7.5147  -21.5405   25.0540 O   0  0  0  0  0  0  0  0  0  0  0  0
    8.1382  -15.9191   25.9367 N   0  0  0  0  0  0  0  0  0  0  0  0
    8.9457  -15.0859   26.8465 C   0  0  1  0  0  0  0  0  0  0  0  0
    8.1313  -14.0781   27.5526 C   0  0  0  0  0  0  0  0  0  0  0  0
    7.6139  -13.0801   26.5984 C   0  0  0  0  0  0  0  0  0  0  0  0
    7.9425  -12.8077   25.2896 C   0  0  0  0  0  0  0  0  0  0  0  0
    7.2300  -11.7694   24.8109 N   0  0  0  0  0  0  0  0  0  0  0  0
    6.4369  -11.3685   25.8162 C   0  0  0  0  0  0  0  0  0  0  0  0
    6.6580  -12.1446   26.8891 N   0  0  0  0  0  0  0  0  0  0  0  0
    9.5868  -15.9964   27.7978 C   0  0  0  0  0  0  0  0  0  0  0  0
   10.3044  -15.5507   28.7244 O   0  0  0  0  0  0  0  0  0  0  0  0
    9.4391  -17.3651   27.7334 O   0  0  0  0  0  0  0  0  0  0  0  0
  2  3  1  0
  2  1  1  0
  3  5  1  0
  4  3  2  0
  5  6  1  0
  6 11  1  0
  6  7  1  1
  7  8  1  0
  9 13  1  0
  9  8  1  0
 10  9  2  0
 11 14  1  0
 11 12  2  0
 14 15  1  0
 15 22  1  0
 15 16  1  1
 16 17  1  0
 17 18  2  0
 19 18  1  0
 20 19  1  0
 21 20  2  0
 21 17  1  0
 22 24  1  0
 23 22  2  0
M  END
$$$$
