GEH.pdb
     RDKit          3D

 24 24  0  0  1  0  0  0  0  0999 V2000
    6.6760  -13.2157   18.8499 N   0  0  0  0  0  0  0  0  0  0  0  0
    8.0591  -13.2709   19.2758 C   0  0  0  0  0  0  0  0  0  0  0  0
    8.2944  -14.5012   20.0798 C   0  0  0  0  0  0  0  0  0  0  0  0
    7.3037  -15.2751   20.3284 O   0  0  0  0  0  0  0  0  0  0  0  0
    9.5912  -14.8194   20.5666 N   0  0  0  0  0  0  0  0  0  0  0  0
    9.8814  -15.9903   21.3383 C   0  0  1  0  0  0  0  0  0  0  0  0
   10.9991  -16.8101   20.8186 C   0  0  0  0  0  0  0  0  0  0  0  0
   11.3443  -18.0932   21.4177 C   0  0  0  0  0  0  0  0  0  0  0  0
   12.4040  -18.8946   20.8173 C   0  0  0  0  0  0  0  0  0  0  0  0
   12.6555  -20.0711   21.1216 O   0  0  0  0  0  0  0  0  0  0  0  0
    9.8993  -15.8157   22.7960 C   0  0  0  0  0  0  0  0  0  0  0  0
   10.7120  -14.9674   23.3107 O   0  0  0  0  0  0  0  0  0  0  0  0
   13.2432  -18.3655   19.8148 O   0  0  0  0  0  0  0  0  0  0  0  0
    9.0823  -16.5149   23.7183 N   0  0  0  0  0  0  0  0  0  0  0  0
    9.0819  -16.2286   25.1647 C   0  0  1  0  0  0  0  0  0  0  0  0
    7.7172  -16.0703   25.7030 C   0  0  0  0  0  0  0  0  0  0  0  0
    7.2909  -14.6620   25.6077 C   0  0  0  0  0  0  0  0  0  0  0  0
    7.9744  -13.5198   25.2559 C   0  0  0  0  0  0  0  0  0  0  0  0
    7.1871  -12.4303   25.3447 N   0  0  0  0  0  0  0  0  0  0  0  0
    5.9885  -12.8708   25.7564 C   0  0  0  0  0  0  0  0  0  0  0  0
    6.0391  -14.2027   25.9168 N   0  0  0  0  0  0  0  0  0  0  0  0
    9.7728  -17.3430   25.8173 C   0  0  0  0  0  0  0  0  0  0  0  0
   10.1599  -18.3325   25.1515 O   0  0  0  0  0  0  0  0  0  0  0  0
   10.0349  -17.3668   27.1701 O   0  0  0  0  0  0  0  0  0  0  0  0
  2  3  1  0
  2  1  1  0
  3  5  1  0
  4  3  2  0
  5  6  1  0
  6 11  1  0
  6  7  1  6
  7  8  1  0
  9 13  1  0
  9  8  1  0
 10  9  2  0
 11 14  1  0
 11 12  2  0
 14 15  1  0
 15 22  1  0
 15 16  1  1
 16 17  1  0
 17 18  2  0
 19 18  1  0
 20 19  1  0
 21 20  2  0
 21 17  1  0
 22 24  1  0
 23 22  2  0
M  END
$$$$
