GEH.pdb
     RDKit          3D

 24 24  0  0  1  0  0  0  0  0999 V2000
    8.1161  -15.2057   14.1846 N   0  0  0  0  0  0  0  0  0  0  0  0
    9.4349  -14.8482   14.6642 C   0  0  0  0  0  0  0  0  0  0  0  0
    9.7183  -15.5530   15.9444 C   0  0  0  0  0  0  0  0  0  0  0  0
    8.7531  -15.7604   16.7615 O   0  0  0  0  0  0  0  0  0  0  0  0
   11.0323  -15.9913   16.2622 N   0  0  0  0  0  0  0  0  0  0  0  0
   11.3593  -16.7103   17.4566 C   0  0  1  0  0  0  0  0  0  0  0  0
   12.5165  -17.6248   17.3288 C   0  0  0  0  0  0  0  0  0  0  0  0
   13.4751  -17.4912   16.2392 C   0  0  0  0  0  0  0  0  0  0  0  0
   14.5935  -18.4233   16.1595 C   0  0  0  0  0  0  0  0  0  0  0  0
   15.1911  -18.8916   17.1411 O   0  0  0  0  0  0  0  0  0  0  0  0
   11.3501  -15.9330   18.7022 C   0  0  0  0  0  0  0  0  0  0  0  0
   12.0179  -14.8393   18.7575 O   0  0  0  0  0  0  0  0  0  0  0  0
   15.0870  -18.8697   14.9160 O   0  0  0  0  0  0  0  0  0  0  0  0
   10.6554  -16.2840   19.8859 N   0  0  0  0  0  0  0  0  0  0  0  0
   10.6681  -15.4470   21.0996 C   0  0  1  0  0  0  0  0  0  0  0  0
    9.3165  -14.9935   21.4802 C   0  0  0  0  0  0  0  0  0  0  0  0
    8.8290  -13.9826   20.5239 C   0  0  0  0  0  0  0  0  0  0  0  0
    9.4476  -13.3403   19.4751 C   0  0  0  0  0  0  0  0  0  0  0  0
    8.6217  -12.4531   18.8875 N   0  0  0  0  0  0  0  0  0  0  0  0
    7.4629  -12.5222   19.5605 C   0  0  0  0  0  0  0  0  0  0  0  0
    7.5756  -13.4329   20.5405 N   0  0  0  0  0  0  0  0  0  0  0  0
   11.2652  -16.2551   22.1652 C   0  0  0  0  0  0  0  0  0  0  0  0
   11.4755  -15.7627   23.2990 O   0  0  0  0  0  0  0  0  0  0  0  0
   11.6195  -17.5752   21.9888 O   0  0  0  0  0  0  0  0  0  0  0  0
  2  3  1  0
  2  1  1  0
  3  5  1  0
  4  3  2  0
  5  6  1  0
  6 11  1  0
  6  7  1  6
  7  8  1  0
  9 13  1  0
  9  8  1  0
 10  9  2  0
 11 14  1  0
 11 12  2  0
 14 15  1  0
 15 22  1  0
 15 16  1  1
 16 17  1  0
 17 18  2  0
 19 18  1  0
 20 19  1  0
 21 20  2  0
 21 17  1  0
 22 24  1  0
 23 22  2  0
M  END
$$$$
