GEH.pdb
     RDKit          3D

 24 24  0  0  1  0  0  0  0  0999 V2000
    9.7877  -15.8633   17.1025 N   0  0  0  0  0  0  0  0  0  0  0  0
   10.4232  -14.8421   17.9090 C   0  0  0  0  0  0  0  0  0  0  0  0
   11.8464  -15.2019   18.1553 C   0  0  0  0  0  0  0  0  0  0  0  0
   12.1341  -16.4153   18.4504 O   0  0  0  0  0  0  0  0  0  0  0  0
   12.8736  -14.2237   18.0667 N   0  0  0  0  0  0  0  0  0  0  0  0
   14.2240  -14.4545   18.4835 C   0  0  1  0  0  0  0  0  0  0  0  0
   15.2469  -13.7468   17.6806 C   0  0  0  0  0  0  0  0  0  0  0  0
   16.6709  -13.9749   17.8907 C   0  0  0  0  0  0  0  0  0  0  0  0
   17.4785  -14.4831   16.7882 C   0  0  0  0  0  0  0  0  0  0  0  0
   18.5550  -15.0856   16.9232 O   0  0  0  0  0  0  0  0  0  0  0  0
   14.4701  -14.4130   19.9304 C   0  0  0  0  0  0  0  0  0  0  0  0
   14.3581  -13.2947   20.5484 O   0  0  0  0  0  0  0  0  0  0  0  0
   17.0740  -14.3169   15.4473 O   0  0  0  0  0  0  0  0  0  0  0  0
   14.8314  -15.5213   20.7355 N   0  0  0  0  0  0  0  0  0  0  0  0
   14.9338  -15.4442   22.2044 C   0  0  1  0  0  0  0  0  0  0  0  0
   14.3647  -16.6331   22.8677 C   0  0  0  0  0  0  0  0  0  0  0  0
   12.8921  -16.5987   22.8014 C   0  0  0  0  0  0  0  0  0  0  0  0
   12.0140  -15.5986   22.4491 C   0  0  0  0  0  0  0  0  0  0  0  0
   10.7350  -16.0035   22.5710 N   0  0  0  0  0  0  0  0  0  0  0  0
   10.7868  -17.2722   23.0049 C   0  0  0  0  0  0  0  0  0  0  0  0
   12.0708  -17.6381   23.1461 N   0  0  0  0  0  0  0  0  0  0  0  0
   16.3563  -15.3015   22.5228 C   0  0  0  0  0  0  0  0  0  0  0  0
   16.7348  -15.1688   23.7108 O   0  0  0  0  0  0  0  0  0  0  0  0
   17.3396  -15.3081   21.5573 O   0  0  0  0  0  0  0  0  0  0  0  0
  2  3  1  0
  2  1  1  0
  3  5  1  0
  4  3  2  0
  5  6  1  0
  6 11  1  0
  6  7  1  6
  7  8  1  0
  9 13  1  0
  9  8  1  0
 10  9  2  0
 11 14  1  0
 11 12  2  0
 14 15  1  0
 15 22  1  0
 15 16  1  1
 16 17  1  0
 17 18  2  0
 19 18  1  0
 20 19  1  0
 21 20  2  0
 21 17  1  0
 22 24  1  0
 23 22  2  0
M  END
$$$$
