PAM.pdb
     RDKit          3D

 21 21  0  0  1  0  0  0  0  0999 V2000
   27.5383  -20.5060  -15.7009 N   0  0  0  0  0  0  0  0  0  0  0  0
   27.7552  -19.6492  -16.8431 C   0  0  0  0  0  0  0  0  0  0  0  0
   27.8743  -18.2613  -16.2132 C   0  0  0  0  0  0  0  0  0  0  0  0
   28.7048  -18.5796  -14.9868 C   0  0  0  0  0  0  0  0  0  0  0  0
   28.1587  -19.9287  -14.5771 C   0  0  1  0  0  0  0  0  0  0  0  0
   27.3111  -19.7348  -13.3972 C   0  0  0  0  0  0  0  0  0  0  0  0
   27.8491  -19.2020  -12.3802 O   0  0  0  0  0  0  0  0  0  0  0  0
   23.6761  -19.9706  -12.3813 C   0  0  0  0  0  0  0  0  0  0  0  0
   25.1478  -19.8453  -12.1067 C   0  0  2  0  0  0  0  0  0  0  0  0
   25.9511  -20.0851  -13.2843 N   0  0  0  0  0  0  0  0  0  0  0  0
   25.5293  -20.7054  -10.9747 C   0  0  0  0  0  0  0  0  0  0  0  0
   25.7199  -21.9396  -11.0610 O   0  0  0  0  0  0  0  0  0  0  0  0
   29.5180  -19.1466   -6.3593 C   0  0  0  0  0  0  0  0  0  0  0  0
   28.0735  -19.4599   -5.3096 S   0  0  0  0  0  0  0  0  0  0  0  0
   26.9723  -20.6012   -6.2219 C   0  0  0  0  0  0  0  0  0  0  0  0
   26.7187  -19.9961   -7.5719 C   0  0  0  0  0  0  0  0  0  0  0  0
   25.9395  -20.9082   -8.4842 C   0  0  2  0  0  0  0  0  0  0  0  0
   25.6956  -20.1116   -9.6973 N   0  0  0  0  0  0  0  0  0  0  0  0
   24.6222  -21.2062   -7.8911 C   0  0  0  0  0  0  0  0  0  0  0  0
   24.4063  -22.1353   -6.8835 O   0  0  0  0  0  0  0  0  0  0  0  0
   23.6118  -20.5906   -8.3111 O   0  0  0  0  0  0  0  0  0  0  0  0
  2  1  1  0
  3  4  1  0
  3  2  1  0
  4  5  1  0
  5  1  1  0
  5  6  1  1
  7  6  2  0
  9 10  1  0
  9  8  1  6
 10  6  1  0
 11 18  1  0
 11  9  1  0
 12 11  2  0
 14 13  1  0
 15 16  1  0
 15 14  1  0
 17 18  1  0
 17 16  1  1
 19 17  1  0
 20 19  1  0
 21 19  2  0
M  END
$$$$
