PAM.pdb
     RDKit          3D

 21 21  0  0  1  0  0  0  0  0999 V2000
   23.4366  -13.5397  -17.3193 N   0  0  0  0  0  0  0  0  0  0  0  0
   24.7083  -14.1179  -16.9528 C   0  0  0  0  0  0  0  0  0  0  0  0
   25.1645  -13.2350  -15.7910 C   0  0  0  0  0  0  0  0  0  0  0  0
   23.8579  -13.0536  -15.0460 C   0  0  0  0  0  0  0  0  0  0  0  0
   22.8606  -12.9511  -16.1779 C   0  0  1  0  0  0  0  0  0  0  0  0
   22.4620  -11.5464  -16.3043 C   0  0  0  0  0  0  0  0  0  0  0  0
   23.2289  -10.7853  -16.9678 O   0  0  0  0  0  0  0  0  0  0  0  0
   19.4231   -9.3893  -15.7061 C   0  0  0  0  0  0  0  0  0  0  0  0
   20.8723   -9.6077  -16.0363 C   0  0  2  0  0  0  0  0  0  0  0  0
   21.3042  -10.9586  -15.7574 N   0  0  0  0  0  0  0  0  0  0  0  0
   21.7050   -8.5958  -15.3659 C   0  0  0  0  0  0  0  0  0  0  0  0
   22.3287   -8.7919  -14.2984 O   0  0  0  0  0  0  0  0  0  0  0  0
   24.9982   -4.1150  -18.6309 C   0  0  0  0  0  0  0  0  0  0  0  0
   24.0140   -3.0673  -17.5263 S   0  0  0  0  0  0  0  0  0  0  0  0
   23.6413   -4.0504  -16.0289 C   0  0  0  0  0  0  0  0  0  0  0  0
   22.8435   -5.2451  -16.4640 C   0  0  0  0  0  0  0  0  0  0  0  0
   22.6147   -6.2327  -15.3488 C   0  0  2  0  0  0  0  0  0  0  0  0
   21.8179   -7.3108  -15.9558 N   0  0  0  0  0  0  0  0  0  0  0  0
   21.7814   -5.6192  -14.2976 C   0  0  0  0  0  0  0  0  0  0  0  0
   22.2811   -4.9875  -13.1677 O   0  0  0  0  0  0  0  0  0  0  0  0
   20.5316   -5.6598  -14.4098 O   0  0  0  0  0  0  0  0  0  0  0  0
  2  1  1  0
  3  4  1  0
  3  2  1  0
  4  5  1  0
  5  1  1  0
  5  6  1  6
  7  6  2  0
  9 10  1  0
  9  8  1  1
 10  6  1  0
 11 18  1  0
 11  9  1  0
 12 11  2  0
 14 13  1  0
 15 16  1  0
 15 14  1  0
 17 18  1  0
 17 16  1  6
 19 17  1  0
 20 19  1  0
 21 19  2  0
M  END
$$$$
