PAM.pdb
     RDKit          3D

 21 21  0  0  1  0  0  0  0  0999 V2000
   27.1370  -19.0491  -16.9129 N   0  0  0  0  0  0  0  0  0  0  0  0
   27.3950  -17.9380  -17.7988 C   0  0  0  0  0  0  0  0  0  0  0  0
   27.7065  -16.7945  -16.8332 C   0  0  0  0  0  0  0  0  0  0  0  0
   28.5545  -17.5168  -15.8064 C   0  0  0  0  0  0  0  0  0  0  0  0
   27.8760  -18.8658  -15.7291 C   0  0  1  0  0  0  0  0  0  0  0  0
   27.1169  -18.9198  -14.4765 C   0  0  0  0  0  0  0  0  0  0  0  0
   27.7224  -18.5720  -13.4182 O   0  0  0  0  0  0  0  0  0  0  0  0
   23.5480  -19.3475  -13.3117 C   0  0  0  0  0  0  0  0  0  0  0  0
   25.0316  -19.2463  -13.0973 C   0  0  2  0  0  0  0  0  0  0  0  0
   25.7742  -19.3226  -14.3351 N   0  0  0  0  0  0  0  0  0  0  0  0
   25.4722  -20.2439  -12.1088 C   0  0  0  0  0  0  0  0  0  0  0  0
   25.7020  -21.4453  -12.3750 O   0  0  0  0  0  0  0  0  0  0  0  0
   27.5858  -17.9347   -6.6553 C   0  0  0  0  0  0  0  0  0  0  0  0
   28.3478  -19.5744   -6.5239 S   0  0  0  0  0  0  0  0  0  0  0  0
   27.3699  -20.7166   -7.5663 C   0  0  0  0  0  0  0  0  0  0  0  0
   26.9211  -19.9476   -8.7747 C   0  0  0  0  0  0  0  0  0  0  0  0
   26.0599  -20.7664   -9.7017 C   0  0  2  0  0  0  0  0  0  0  0  0
   25.6526  -19.8322  -10.7634 N   0  0  0  0  0  0  0  0  0  0  0  0
   24.8311  -21.1889   -9.0036 C   0  0  0  0  0  0  0  0  0  0  0  0
   24.7515  -22.2712   -8.1390 O   0  0  0  0  0  0  0  0  0  0  0  0
   23.7716  -20.5415   -9.1894 O   0  0  0  0  0  0  0  0  0  0  0  0
  2  1  1  0
  3  4  1  0
  3  2  1  0
  4  5  1  0
  5  1  1  0
  5  6  1  1
  7  6  2  0
  9 10  1  0
  9  8  1  6
 10  6  1  0
 11 18  1  0
 11  9  1  0
 12 11  2  0
 14 13  1  0
 15 16  1  0
 15 14  1  0
 17 18  1  0
 17 16  1  1
 19 17  1  0
 20 19  1  0
 21 19  2  0
M  END
$$$$
