PAM.pdb
     RDKit          3D

 21 21  0  0  1  0  0  0  0  0999 V2000
   19.3235  -11.6632  -18.0398 N   0  0  0  0  0  0  0  0  0  0  0  0
   19.2490  -13.0364  -18.4809 C   0  0  0  0  0  0  0  0  0  0  0  0
   19.2662  -13.8199  -17.1683 C   0  0  0  0  0  0  0  0  0  0  0  0
   18.3595  -12.9575  -16.3144 C   0  0  0  0  0  0  0  0  0  0  0  0
   18.7318  -11.5635  -16.7667 C   0  0  1  0  0  0  0  0  0  0  0  0
   19.5512  -10.9507  -15.7174 C   0  0  0  0  0  0  0  0  0  0  0  0
   18.9988  -10.7542  -14.5932 O   0  0  0  0  0  0  0  0  0  0  0  0
   23.1205  -10.3480  -14.8266 C   0  0  0  0  0  0  0  0  0  0  0  0
   21.6690   -9.9645  -14.7688 C   0  0  2  0  0  0  0  0  0  0  0  0
   20.8988  -10.5576  -15.8386 N   0  0  0  0  0  0  0  0  0  0  0  0
   21.5314   -8.5000  -14.7149 C   0  0  0  0  0  0  0  0  0  0  0  0
   22.0628   -7.7742  -13.8443 O   0  0  0  0  0  0  0  0  0  0  0  0
   19.7928   -2.6398  -19.6082 C   0  0  0  0  0  0  0  0  0  0  0  0
   20.0952   -4.3988  -19.2903 S   0  0  0  0  0  0  0  0  0  0  0  0
   20.2344   -4.6107  -17.4784 C   0  0  0  0  0  0  0  0  0  0  0  0
   20.5711   -6.0505  -17.2199 C   0  0  0  0  0  0  0  0  0  0  0  0
   20.5836   -6.3934  -15.7524 C   0  0  2  0  0  0  0  0  0  0  0  0
   20.7491   -7.8550  -15.7070 N   0  0  0  0  0  0  0  0  0  0  0  0
   19.2702   -6.0887  -15.1541 C   0  0  0  0  0  0  0  0  0  0  0  0
   18.9764   -4.9273  -14.4540 O   0  0  0  0  0  0  0  0  0  0  0  0
   18.3389   -6.9223  -15.2720 O   0  0  0  0  0  0  0  0  0  0  0  0
  2  1  1  0
  3  4  1  0
  3  2  1  0
  4  5  1  0
  5  1  1  0
  5  6  1  1
  7  6  2  0
  9 10  1  0
  9  8  1  6
 10  6  1  0
 11 18  1  0
 11  9  1  0
 12 11  2  0
 14 13  1  0
 15 16  1  0
 15 14  1  0
 17 18  1  0
 17 16  1  6
 19 17  1  0
 20 19  1  0
 21 19  2  0
M  END
$$$$
