PAM.pdb
     RDKit          3D

 21 21  0  0  1  0  0  0  0  0999 V2000
   14.3135  -11.5148  -14.2909 N   0  0  0  0  0  0  0  0  0  0  0  0
   13.6161  -12.2794  -15.2983 C   0  0  0  0  0  0  0  0  0  0  0  0
   14.4552  -12.0388  -16.5535 C   0  0  0  0  0  0  0  0  0  0  0  0
   15.8536  -12.1212  -15.9767 C   0  0  0  0  0  0  0  0  0  0  0  0
   15.6787  -11.4590  -14.6287 C   0  0  1  0  0  0  0  0  0  0  0  0
   16.2743  -10.1217  -14.7004 C   0  0  0  0  0  0  0  0  0  0  0  0
   17.5138  -10.0540  -14.9586 O   0  0  0  0  0  0  0  0  0  0  0  0
   15.2261   -6.4863  -14.7076 C   0  0  0  0  0  0  0  0  0  0  0  0
   16.2275   -7.6023  -14.6129 C   0  0  2  0  0  0  0  0  0  0  0  0
   15.5992   -8.8999  -14.5092 N   0  0  0  0  0  0  0  0  0  0  0  0
   17.1770   -7.3425  -13.5185 C   0  0  0  0  0  0  0  0  0  0  0  0
   17.0447   -7.7790  -12.3528 O   0  0  0  0  0  0  0  0  0  0  0  0
   23.3374   -9.1534  -10.4021 C   0  0  0  0  0  0  0  0  0  0  0  0
   22.0176   -9.2054  -11.6438 S   0  0  0  0  0  0  0  0  0  0  0  0
   21.2601   -7.5412  -11.7063 C   0  0  0  0  0  0  0  0  0  0  0  0
   20.0984   -7.6126  -12.6542 C   0  0  0  0  0  0  0  0  0  0  0  0
   19.3640   -6.3025  -12.7783 C   0  0  2  0  0  0  0  0  0  0  0  0
   18.3209   -6.5477  -13.7871 N   0  0  0  0  0  0  0  0  0  0  0  0
   20.2642   -5.2722  -13.3297 C   0  0  0  0  0  0  0  0  0  0  0  0
   21.0639   -4.4362  -12.5636 O   0  0  0  0  0  0  0  0  0  0  0  0
   20.3276   -5.1216  -14.5746 O   0  0  0  0  0  0  0  0  0  0  0  0
  2  1  1  0
  3  4  1  0
  3  2  1  0
  4  5  1  0
  5  1  1  0
  5  6  1  6
  7  6  2  0
  9 10  1  0
  9  8  1  1
 10  6  1  0
 11 18  1  0
 11  9  1  0
 12 11  2  0
 14 13  1  0
 15 16  1  0
 15 14  1  0
 17 18  1  0
 17 16  1  6
 19 17  1  0
 20 19  1  0
 21 19  2  0
M  END
$$$$
