PAM.pdb
     RDKit          3D

 21 21  0  0  1  0  0  0  0  0999 V2000
   27.6808  -19.2707  -15.7982 N   0  0  0  0  0  0  0  0  0  0  0  0
   27.5345  -18.4015  -16.9422 C   0  0  0  0  0  0  0  0  0  0  0  0
   27.0395  -17.0958  -16.3199 C   0  0  0  0  0  0  0  0  0  0  0  0
   27.9028  -17.0321  -15.0766 C   0  0  0  0  0  0  0  0  0  0  0  0
   27.9749  -18.4859  -14.6674 C   0  0  1  0  0  0  0  0  0  0  0  0
   27.1030  -18.6728  -13.5043 C   0  0  0  0  0  0  0  0  0  0  0  0
   27.3051  -17.9211  -12.5035 O   0  0  0  0  0  0  0  0  0  0  0  0
   23.8855  -20.3654  -12.5456 C   0  0  0  0  0  0  0  0  0  0  0  0
   25.2183  -19.7517  -12.2231 C   0  0  2  0  0  0  0  0  0  0  0  0
   26.0580  -19.6111  -13.3913 N   0  0  0  0  0  0  0  0  0  0  0  0
   25.8747  -20.5010  -11.1393 C   0  0  0  0  0  0  0  0  0  0  0  0
   26.4763  -21.5872  -11.2981 O   0  0  0  0  0  0  0  0  0  0  0  0
   29.7970  -19.0916   -6.2533 C   0  0  0  0  0  0  0  0  0  0  0  0
   28.1786  -19.1836   -5.4417 S   0  0  0  0  0  0  0  0  0  0  0  0
   27.1715  -20.3990   -6.3669 C   0  0  0  0  0  0  0  0  0  0  0  0
   26.8676  -19.8003   -7.7094 C   0  0  0  0  0  0  0  0  0  0  0  0
   26.1855  -20.7692   -8.6406 C   0  0  2  0  0  0  0  0  0  0  0  0
   25.8313  -19.9702   -9.8246 N   0  0  0  0  0  0  0  0  0  0  0  0
   24.9215  -21.2368   -8.0412 C   0  0  0  0  0  0  0  0  0  0  0  0
   24.8295  -22.2302   -7.0768 O   0  0  0  0  0  0  0  0  0  0  0  0
   23.8414  -20.7164   -8.4138 O   0  0  0  0  0  0  0  0  0  0  0  0
  2  1  1  0
  3  4  1  0
  3  2  1  0
  4  5  1  0
  5  1  1  0
  5  6  1  1
  7  6  2  0
  9 10  1  0
  9  8  1  6
 10  6  1  0
 11 18  1  0
 11  9  1  0
 12 11  2  0
 14 13  1  0
 15 16  1  0
 15 14  1  0
 17 18  1  0
 17 16  1  1
 19 17  1  0
 20 19  1  0
 21 19  2  0
M  END
$$$$
