PAM.pdb
     RDKit          3D

 21 21  0  0  1  0  0  0  0  0999 V2000
   18.5240  -13.8150  -19.4728 N   0  0  0  0  0  0  0  0  0  0  0  0
   18.4310  -15.1257  -18.8736 C   0  0  0  0  0  0  0  0  0  0  0  0
   18.1934  -14.8116  -17.3964 C   0  0  0  0  0  0  0  0  0  0  0  0
   17.2221  -13.6544  -17.5079 C   0  0  0  0  0  0  0  0  0  0  0  0
   17.7489  -12.9153  -18.7172 C   0  0  1  0  0  0  0  0  0  0  0  0
   18.4327  -11.7072  -18.2472 C   0  0  0  0  0  0  0  0  0  0  0  0
   19.6827  -11.7894  -18.0519 O   0  0  0  0  0  0  0  0  0  0  0  0
   17.6744   -8.0536  -17.5501 C   0  0  0  0  0  0  0  0  0  0  0  0
   18.5677   -9.2549  -17.6766 C   0  0  2  0  0  0  0  0  0  0  0  0
   17.8319  -10.4589  -17.9905 N   0  0  0  0  0  0  0  0  0  0  0  0
   19.4022   -9.3976  -16.4724 C   0  0  0  0  0  0  0  0  0  0  0  0
   19.0574  -10.0278  -15.4473 O   0  0  0  0  0  0  0  0  0  0  0  0
   26.8301  -10.5551  -14.8736 C   0  0  0  0  0  0  0  0  0  0  0  0
   25.4713  -10.2767  -16.0409 S   0  0  0  0  0  0  0  0  0  0  0  0
   24.0456   -9.6500  -15.0806 C   0  0  0  0  0  0  0  0  0  0  0  0
   22.9062   -9.4632  -16.0398 C   0  0  0  0  0  0  0  0  0  0  0  0
   21.6429   -8.9972  -15.3629 C   0  0  2  0  0  0  0  0  0  0  0  0
   20.6825   -8.7871  -16.4580 N   0  0  0  0  0  0  0  0  0  0  0  0
   21.8678   -7.6849  -14.7281 C   0  0  0  0  0  0  0  0  0  0  0  0
   21.8662   -6.4739  -15.4056 O   0  0  0  0  0  0  0  0  0  0  0  0
   22.0785   -7.6344  -13.4914 O   0  0  0  0  0  0  0  0  0  0  0  0
  2  1  1  0
  3  4  1  0
  3  2  1  0
  4  5  1  0
  5  1  1  0
  5  6  1  1
  7  6  2  0
  9 10  1  0
  9  8  1  1
 10  6  1  0
 11 18  1  0
 11  9  1  0
 12 11  2  0
 14 13  1  0
 15 16  1  0
 15 14  1  0
 17 18  1  0
 17 16  1  6
 19 17  1  0
 20 19  1  0
 21 19  2  0
M  END
$$$$
