AGL.pdb
     RDKit          3D

 18 17  0  0  1  0  0  0  0  0999 V2000
    8.4046  -20.2824   20.2861 C   0  0  0  0  0  0  0  0  0  0  0  0
    8.2719  -19.4949   21.5694 C   0  0  2  0  0  0  0  0  0  0  0  0
    6.8631  -19.3418   21.8530 N   0  0  0  0  0  0  0  0  0  0  0  0
    8.9097  -18.1799   21.5185 C   0  0  0  0  0  0  0  0  0  0  0  0
   10.1856  -18.1514   21.3999 O   0  0  0  0  0  0  0  0  0  0  0  0
    8.1926  -16.9527   21.5932 N   0  0  0  0  0  0  0  0  0  0  0  0
    8.9154  -15.7378   21.6607 C   0  0  0  0  0  0  0  0  0  0  0  0
    9.0998  -15.1415   22.9758 C   0  0  0  0  0  0  0  0  0  0  0  0
   10.1015  -14.3595   23.1113 O   0  0  0  0  0  0  0  0  0  0  0  0
    5.5349  -12.7057   26.4642 C   0  0  0  0  0  0  0  0  0  0  0  0
    6.8601  -12.9244   25.6550 C   0  0  1  0  0  0  0  0  0  0  0  0
    7.6074  -11.6525   25.8319 C   0  0  0  0  0  0  0  0  0  0  0  0
    7.4752  -14.1844   26.0841 C   0  0  0  0  0  0  0  0  0  0  0  0
    8.6800  -14.7327   25.4483 C   0  0  2  0  0  0  0  0  0  0  0  0
    8.3021  -15.3249   24.1213 N   0  0  0  0  0  0  0  0  0  0  0  0
    9.3734  -15.8153   26.1570 C   0  0  0  0  0  0  0  0  0  0  0  0
    9.3042  -17.0287   25.8685 O   0  0  0  0  0  0  0  0  0  0  0  0
   10.2114  -15.5525   27.2720 O   0  0  0  0  0  0  0  0  0  0  0  0
  2  1  1  6
  2  3  1  0
  4  5  2  0
  4  2  1  0
  6  4  1  0
  7  6  1  0
  8  7  1  0
  8 15  1  0
  9  8  2  0
 11 10  1  1
 11 13  1  0
 12 11  1  0
 14 13  1  1
 14 15  1  0
 14 16  1  0
 16 17  2  0
 16 18  1  0
M  END
$$$$
