AGL.pdb
     RDKit          3D

 18 17  0  0  1  0  0  0  0  0999 V2000
    7.6103  -17.7818   18.2546 C   0  0  0  0  0  0  0  0  0  0  0  0
    8.5883  -17.0041   19.1051 C   0  0  2  0  0  0  0  0  0  0  0  0
    9.8841  -17.6312   18.9777 N   0  0  0  0  0  0  0  0  0  0  0  0
    8.2114  -16.9348   20.5164 C   0  0  0  0  0  0  0  0  0  0  0  0
    7.1286  -16.3123   20.8041 O   0  0  0  0  0  0  0  0  0  0  0  0
    8.9772  -17.5158   21.5661 N   0  0  0  0  0  0  0  0  0  0  0  0
    8.4514  -17.5173   22.8801 C   0  0  0  0  0  0  0  0  0  0  0  0
    8.6677  -16.3262   23.6884 C   0  0  0  0  0  0  0  0  0  0  0  0
    9.8785  -15.9392   23.8202 O   0  0  0  0  0  0  0  0  0  0  0  0
    7.5895  -11.2959   25.7916 C   0  0  0  0  0  0  0  0  0  0  0  0
    6.8804  -12.5020   26.4997 C   0  0  1  0  0  0  0  0  0  0  0  0
    5.5939  -11.9351   26.9803 C   0  0  0  0  0  0  0  0  0  0  0  0
    6.8632  -13.6464   25.5832 C   0  0  0  0  0  0  0  0  0  0  0  0
    8.0770  -14.3924   25.2273 C   0  0  2  0  0  0  0  0  0  0  0  0
    7.6967  -15.5462   24.3451 N   0  0  0  0  0  0  0  0  0  0  0  0
    8.8342  -14.9980   26.3295 C   0  0  0  0  0  0  0  0  0  0  0  0
    8.5227  -16.0489   26.9288 O   0  0  0  0  0  0  0  0  0  0  0  0
   10.0295  -14.4090   26.8182 O   0  0  0  0  0  0  0  0  0  0  0  0
  2  1  1  6
  2  3  1  0
  4  5  2  0
  4  2  1  0
  6  4  1  0
  7  6  1  0
  8  7  1  0
  8 15  1  0
  9  8  2  0
 11 10  1  6
 11 13  1  0
 12 11  1  0
 14 13  1  1
 14 15  1  0
 14 16  1  0
 16 17  2  0
 16 18  1  0
M  END
$$$$
