AGL.pdb
     RDKit          3D

 18 17  0  0  1  0  0  0  0  0999 V2000
    8.0881  -19.2237   19.0972 C   0  0  0  0  0  0  0  0  0  0  0  0
    8.1071  -18.8495   20.5616 C   0  0  2  0  0  0  0  0  0  0  0  0
    6.7430  -18.8532   21.0387 N   0  0  0  0  0  0  0  0  0  0  0  0
    8.7177  -17.5472   20.8256 C   0  0  0  0  0  0  0  0  0  0  0  0
    9.9811  -17.4427   20.6362 O   0  0  0  0  0  0  0  0  0  0  0  0
    7.9876  -16.4110   21.2749 N   0  0  0  0  0  0  0  0  0  0  0  0
    8.6845  -15.2088   21.5432 C   0  0  0  0  0  0  0  0  0  0  0  0
    8.9268  -14.8735   22.9388 C   0  0  0  0  0  0  0  0  0  0  0  0
   10.0608  -14.3503   23.2105 O   0  0  0  0  0  0  0  0  0  0  0  0
    5.2730  -12.4895   26.3834 C   0  0  0  0  0  0  0  0  0  0  0  0
    6.6801  -12.6676   25.7145 C   0  0  1  0  0  0  0  0  0  0  0  0
    7.4485  -11.4779   26.1636 C   0  0  0  0  0  0  0  0  0  0  0  0
    7.1861  -14.0084   26.0245 C   0  0  0  0  0  0  0  0  0  0  0  0
    8.3979  -14.5590   25.4042 C   0  0  2  0  0  0  0  0  0  0  0  0
    8.0563  -15.0579   24.0299 N   0  0  0  0  0  0  0  0  0  0  0  0
    9.0267  -15.7049   26.0724 C   0  0  0  0  0  0  0  0  0  0  0  0
    9.6153  -15.6659   27.1735 O   0  0  0  0  0  0  0  0  0  0  0  0
    9.0122  -17.0000   25.4918 O   0  0  0  0  0  0  0  0  0  0  0  0
  2  1  1  6
  2  3  1  0
  4  5  2  0
  4  2  1  0
  6  4  1  0
  7  6  1  0
  8  7  1  0
  8 15  1  0
  9  8  2  0
 11 10  1  1
 11 13  1  0
 12 11  1  0
 14 13  1  1
 14 15  1  0
 14 16  1  0
 16 17  2  0
 16 18  1  0
M  END
$$$$
