AGL.pdb
     RDKit          3D

 18 17  0  0  1  0  0  0  0  0999 V2000
    9.5341  -18.5544   18.1676 C   0  0  0  0  0  0  0  0  0  0  0  0
   10.1003  -17.9900   19.4503 C   0  0  2  0  0  0  0  0  0  0  0  0
   10.6012  -19.0932   20.2381 N   0  0  0  0  0  0  0  0  0  0  0  0
    9.1293  -17.2266   20.2333 C   0  0  0  0  0  0  0  0  0  0  0  0
    8.7797  -16.0808   19.7777 O   0  0  0  0  0  0  0  0  0  0  0  0
    8.5648  -17.6885   21.4556 N   0  0  0  0  0  0  0  0  0  0  0  0
    7.5546  -16.9187   22.0798 C   0  0  0  0  0  0  0  0  0  0  0  0
    7.9760  -15.9418   23.0734 C   0  0  0  0  0  0  0  0  0  0  0  0
    9.2197  -15.6487   23.0924 O   0  0  0  0  0  0  0  0  0  0  0  0
    7.5696  -11.1587   25.7038 C   0  0  0  0  0  0  0  0  0  0  0  0
    6.8085  -12.3292   26.4175 C   0  0  1  0  0  0  0  0  0  0  0  0
    5.6238  -11.6727   27.0281 C   0  0  0  0  0  0  0  0  0  0  0  0
    6.6102  -13.4203   25.4582 C   0  0  0  0  0  0  0  0  0  0  0  0
    7.7254  -14.2006   24.9069 C   0  0  2  0  0  0  0  0  0  0  0  0
    7.1723  -15.2786   24.0202 N   0  0  0  0  0  0  0  0  0  0  0  0
    8.5818  -14.9085   25.8664 C   0  0  0  0  0  0  0  0  0  0  0  0
    9.6741  -14.4909   26.3055 O   0  0  0  0  0  0  0  0  0  0  0  0
    8.2164  -16.1761   26.3901 O   0  0  0  0  0  0  0  0  0  0  0  0
  2  1  1  6
  2  3  1  0
  4  5  2  0
  4  2  1  0
  6  4  1  0
  7  6  1  0
  8  7  1  0
  8 15  1  0
  9  8  2  0
 11 10  1  6
 11 13  1  0
 12 11  1  0
 14 13  1  1
 14 15  1  0
 14 16  1  0
 16 17  2  0
 16 18  1  0
M  END
$$$$
