AGL.pdb
     RDKit          3D

 18 17  0  0  1  0  0  0  0  0999 V2000
    7.4954  -19.5041   19.4338 C   0  0  0  0  0  0  0  0  0  0  0  0
    7.9895  -19.0773   20.7970 C   0  0  2  0  0  0  0  0  0  0  0  0
    6.8425  -18.6769   21.5798 N   0  0  0  0  0  0  0  0  0  0  0  0
    8.9609  -17.9851   20.7526 C   0  0  0  0  0  0  0  0  0  0  0  0
   10.1432  -18.2682   20.3467 O   0  0  0  0  0  0  0  0  0  0  0  0
    8.6599  -16.6467   21.1321 N   0  0  0  0  0  0  0  0  0  0  0  0
    9.7089  -15.8057   21.5740 C   0  0  0  0  0  0  0  0  0  0  0  0
    9.6288  -15.2954   22.9350 C   0  0  0  0  0  0  0  0  0  0  0  0
   10.7288  -14.9270   23.4710 O   0  0  0  0  0  0  0  0  0  0  0  0
    8.1719  -11.7561   26.5768 C   0  0  0  0  0  0  0  0  0  0  0  0
    7.1304  -12.9272   26.5245 C   0  0  1  0  0  0  0  0  0  0  0  0
    5.8208  -12.2577   26.7340 C   0  0  0  0  0  0  0  0  0  0  0  0
    7.3521  -13.7047   25.3012 C   0  0  0  0  0  0  0  0  0  0  0  0
    8.5378  -14.5486   25.1049 C   0  0  2  0  0  0  0  0  0  0  0  0
    8.4779  -15.1590   23.7345 N   0  0  0  0  0  0  0  0  0  0  0  0
    8.7023  -15.6885   26.0151 C   0  0  0  0  0  0  0  0  0  0  0  0
    8.1450  -16.7995   25.8903 O   0  0  0  0  0  0  0  0  0  0  0  0
    9.5441  -15.6103   27.1551 O   0  0  0  0  0  0  0  0  0  0  0  0
  2  1  1  6
  2  3  1  0
  4  5  2  0
  4  2  1  0
  6  4  1  0
  7  6  1  0
  8  7  1  0
  8 15  1  0
  9  8  2  0
 11 10  1  6
 11 13  1  0
 12 11  1  0
 14 13  1  1
 14 15  1  0
 14 16  1  0
 16 17  2  0
 16 18  1  0
M  END
$$$$
