GWS.pdb
     RDKit          3D

 25 26  0  0  1  0  0  0  0  0999 V2000
    6.2590  -15.3780   20.1876 N   0  0  0  0  0  0  0  0  0  0  0  0
    6.4354  -16.0998   21.4047 C   0  0  0  0  0  0  0  0  0  0  0  0
    7.6900  -15.7280   22.1267 C   0  0  0  0  0  0  0  0  0  0  0  0
    8.4815  -14.8406   21.6887 O   0  0  0  0  0  0  0  0  0  0  0  0
    8.0460  -16.3623   23.3446 N   0  0  0  0  0  0  0  0  0  0  0  0
    9.2394  -16.0206   24.0912 C   0  0  1  0  0  0  0  0  0  0  0  0
    8.9337  -15.8239   25.5554 C   0  0  0  0  0  0  0  0  0  0  0  0
    7.7580  -15.0450   25.8728 C   0  0  0  0  0  0  0  0  0  0  0  0
    6.4920  -15.5878   26.0806 C   0  0  0  0  0  0  0  0  0  0  0  0
    5.6150  -14.6197   26.3816 N   0  0  0  0  0  0  0  0  0  0  0  0
    6.2987  -13.4617   26.3699 C   0  0  0  0  0  0  0  0  0  0  0  0
    5.8826  -12.1830   26.6023 C   0  0  0  0  0  0  0  0  0  0  0  0
    6.7521  -11.1021   26.5345 C   0  0  0  0  0  0  0  0  0  0  0  0
    8.0812  -11.3491   26.2195 C   0  0  0  0  0  0  0  0  0  0  0  0
    8.4809  -12.6308   25.9907 C   0  0  0  0  0  0  0  0  0  0  0  0
    7.6213  -13.7027   26.0579 C   0  0  0  0  0  0  0  0  0  0  0  0
   10.4127  -16.8385   23.7859 C   0  0  0  0  0  0  0  0  0  0  0  0
   10.4775  -18.0102   24.2631 O   0  0  0  0  0  0  0  0  0  0  0  0
   13.3549  -15.1577   21.7048 O   0  0  0  0  0  0  0  0  0  0  0  0
   13.4505  -16.5472   21.6188 C   0  0  0  0  0  0  0  0  0  0  0  0
   12.6950  -17.2211   22.7859 C   0  0  2  0  0  0  0  0  0  0  0  0
   11.4985  -16.4046   22.9731 N   0  0  0  0  0  0  0  0  0  0  0  0
   13.6276  -17.1364   23.9328 C   0  0  0  0  0  0  0  0  0  0  0  0
   13.3098  -16.4568   24.9393 O   0  0  0  0  0  0  0  0  0  0  0  0
   14.8491  -17.7824   23.9406 O   0  0  0  0  0  0  0  0  0  0  0  0
  1  2  1  0
  3  5  1  0
  3  2  1  0
  4  3  2  0
  6  5  1  0
  7  8  1  0
  6  7  1  1
  8 16  1  0
  9  8  2  0
  9 10  1  0
 10 11  1  0
 11 12  1  0
 12 13  2  0
 14 13  1  0
 15 14  2  0
 16 11  2  0
 16 15  1  0
 17 22  1  0
 17  6  1  0
 18 17  2  0
 19 20  1  0
 21 20  1  6
 21 22  1  0
 21 23  1  0
 23 25  1  0
 24 23  2  0
M  END
$$$$
