GWS.pdb
     RDKit          3D

 25 26  0  0  1  0  0  0  0  0999 V2000
    6.1478  -15.8722   21.1629 N   0  0  0  0  0  0  0  0  0  0  0  0
    7.4565  -16.3020   20.7942 C   0  0  0  0  0  0  0  0  0  0  0  0
    8.4980  -15.9274   21.7985 C   0  0  0  0  0  0  0  0  0  0  0  0
    9.3270  -14.9915   21.5920 O   0  0  0  0  0  0  0  0  0  0  0  0
    8.5986  -16.6139   23.0358 N   0  0  0  0  0  0  0  0  0  0  0  0
    9.5760  -16.2722   24.0490 C   0  0  1  0  0  0  0  0  0  0  0  0
    8.9522  -16.2312   25.4219 C   0  0  0  0  0  0  0  0  0  0  0  0
    7.8140  -15.3562   25.5907 C   0  0  0  0  0  0  0  0  0  0  0  0
    6.4931  -15.7938   25.6551 C   0  0  0  0  0  0  0  0  0  0  0  0
    5.6676  -14.7540   25.8403 N   0  0  0  0  0  0  0  0  0  0  0  0
    6.4387  -13.6535   25.8954 C   0  0  0  0  0  0  0  0  0  0  0  0
    6.1024  -12.3416   26.0628 C   0  0  0  0  0  0  0  0  0  0  0  0
    7.0578  -11.3338   26.0848 C   0  0  0  0  0  0  0  0  0  0  0  0
    8.3904  -11.6906   25.9304 C   0  0  0  0  0  0  0  0  0  0  0  0
    8.7097  -13.0042   25.7646 C   0  0  0  0  0  0  0  0  0  0  0  0
    7.7649  -14.0038   25.7431 C   0  0  0  0  0  0  0  0  0  0  0  0
   10.8480  -16.9863   23.9440 C   0  0  0  0  0  0  0  0  0  0  0  0
   10.8472  -18.2482   24.0551 O   0  0  0  0  0  0  0  0  0  0  0  0
   14.4489  -14.9557   23.5581 O   0  0  0  0  0  0  0  0  0  0  0  0
   14.3370  -16.1878   22.9127 C   0  0  0  0  0  0  0  0  0  0  0  0
   13.3500  -17.1105   23.6621 C   0  0  2  0  0  0  0  0  0  0  0  0
   12.1026  -16.3525   23.7162 N   0  0  0  0  0  0  0  0  0  0  0  0
   13.9588  -17.3017   24.9982 C   0  0  0  0  0  0  0  0  0  0  0  0
   13.3821  -16.8384   26.0124 O   0  0  0  0  0  0  0  0  0  0  0  0
   15.1508  -17.9773   25.1768 O   0  0  0  0  0  0  0  0  0  0  0  0
  1  2  1  0
  3  5  1  0
  3  2  1  0
  4  3  2  0
  6  5  1  0
  7  8  1  0
  6  7  1  1
  8 16  1  0
  9  8  2  0
  9 10  1  0
 10 11  1  0
 11 12  1  0
 12 13  2  0
 14 13  1  0
 15 14  2  0
 16 11  2  0
 16 15  1  0
 17 22  1  0
 17  6  1  0
 18 17  2  0
 19 20  1  0
 21 20  1  6
 21 22  1  0
 21 23  1  0
 23 25  1  0
 24 23  2  0
M  END
$$$$
