GWS.pdb
     RDKit          3D

 25 26  0  0  1  0  0  0  0  0999 V2000
    5.5943  -18.1651   20.9613 N   0  0  0  0  0  0  0  0  0  0  0  0
    6.3381  -18.4316   22.1483 C   0  0  0  0  0  0  0  0  0  0  0  0
    7.4210  -17.4316   22.3950 C   0  0  0  0  0  0  0  0  0  0  0  0
    7.8906  -16.7050   21.4690 O   0  0  0  0  0  0  0  0  0  0  0  0
    7.9704  -17.2561   23.6911 N   0  0  0  0  0  0  0  0  0  0  0  0
    9.1307  -16.4281   23.9492 C   0  0  1  0  0  0  0  0  0  0  0  0
    9.0590  -15.7931   25.3158 C   0  0  0  0  0  0  0  0  0  0  0  0
    7.8648  -15.0363   25.6167 C   0  0  0  0  0  0  0  0  0  0  0  0
    6.6109  -15.6045   25.8300 C   0  0  0  0  0  0  0  0  0  0  0  0
    5.7110  -14.6520   26.1122 N   0  0  0  0  0  0  0  0  0  0  0  0
    6.3679  -13.4790   26.0831 C   0  0  0  0  0  0  0  0  0  0  0  0
    5.9218  -12.2065   26.2929 C   0  0  0  0  0  0  0  0  0  0  0  0
    6.7665  -11.1071   26.2096 C   0  0  0  0  0  0  0  0  0  0  0  0
    8.1020  -11.3287   25.9026 C   0  0  0  0  0  0  0  0  0  0  0  0
    8.5316  -12.6045   25.6964 C   0  0  0  0  0  0  0  0  0  0  0  0
    7.6967  -13.6946   25.7790 C   0  0  0  0  0  0  0  0  0  0  0  0
   10.4125  -17.0342   23.5907 C   0  0  0  0  0  0  0  0  0  0  0  0
   10.7939  -18.0657   24.2195 O   0  0  0  0  0  0  0  0  0  0  0  0
   12.6780  -15.2194   20.8388 O   0  0  0  0  0  0  0  0  0  0  0  0
   12.9666  -16.5834   20.8975 C   0  0  0  0  0  0  0  0  0  0  0  0
   12.5518  -17.1723   22.2643 C   0  0  2  0  0  0  0  0  0  0  0  0
   11.2693  -16.5416   22.5655 N   0  0  0  0  0  0  0  0  0  0  0  0
   13.6254  -16.7518   23.1932 C   0  0  0  0  0  0  0  0  0  0  0  0
   13.3615  -15.9462   24.1191 O   0  0  0  0  0  0  0  0  0  0  0  0
   14.9223  -17.2153   23.0812 O   0  0  0  0  0  0  0  0  0  0  0  0
  1  2  1  0
  3  5  1  0
  3  2  1  0
  4  3  2  0
  6  5  1  0
  7  8  1  0
  6  7  1  1
  8 16  1  0
  9  8  2  0
  9 10  1  0
 10 11  1  0
 11 12  1  0
 12 13  2  0
 14 13  1  0
 15 14  2  0
 16 11  2  0
 16 15  1  0
 17 22  1  0
 17  6  1  0
 18 17  2  0
 19 20  1  0
 21 20  1  6
 21 22  1  0
 21 23  1  0
 23 25  1  0
 24 23  2  0
M  END
$$$$
