GWS.pdb
     RDKit          3D

 25 26  0  0  1  0  0  0  0  0999 V2000
    6.6754  -15.1092   19.7904 N   0  0  0  0  0  0  0  0  0  0  0  0
    6.8933  -16.0663   20.8246 C   0  0  0  0  0  0  0  0  0  0  0  0
    8.0304  -15.7044   21.7243 C   0  0  0  0  0  0  0  0  0  0  0  0
    9.0187  -15.0223   21.3196 O   0  0  0  0  0  0  0  0  0  0  0  0
    8.0460  -16.1158   23.0818 N   0  0  0  0  0  0  0  0  0  0  0  0
    9.1910  -15.9271   23.9489 C   0  0  1  0  0  0  0  0  0  0  0  0
    8.7798  -15.8831   25.3997 C   0  0  0  0  0  0  0  0  0  0  0  0
    7.6637  -15.0262   25.7311 C   0  0  0  0  0  0  0  0  0  0  0  0
    6.3572  -15.4759   25.9085 C   0  0  0  0  0  0  0  0  0  0  0  0
    5.5537  -14.4531   26.2326 N   0  0  0  0  0  0  0  0  0  0  0  0
    6.3246  -13.3517   26.2659 C   0  0  0  0  0  0  0  0  0  0  0  0
    6.0052  -12.0528   26.5362 C   0  0  0  0  0  0  0  0  0  0  0  0
    6.9561  -11.0407   26.5127 C   0  0  0  0  0  0  0  0  0  0  0  0
    8.2661  -11.3795   26.2028 C   0  0  0  0  0  0  0  0  0  0  0  0
    8.5687  -12.6802   25.9357 C   0  0  0  0  0  0  0  0  0  0  0  0
    7.6284  -13.6840   25.9591 C   0  0  0  0  0  0  0  0  0  0  0  0
   10.3465  -16.7671   23.6356 C   0  0  0  0  0  0  0  0  0  0  0  0
   10.1668  -17.8157   22.9479 O   0  0  0  0  0  0  0  0  0  0  0  0
   13.7948  -16.0253   21.1344 O   0  0  0  0  0  0  0  0  0  0  0  0
   12.7583  -15.8011   22.0414 C   0  0  0  0  0  0  0  0  0  0  0  0
   12.8319  -16.8027   23.2154 C   0  0  2  0  0  0  0  0  0  0  0  0
   11.6780  -16.4798   24.0506 N   0  0  0  0  0  0  0  0  0  0  0  0
   14.1195  -16.5026   23.8820 C   0  0  0  0  0  0  0  0  0  0  0  0
   15.1966  -16.7787   23.2993 O   0  0  0  0  0  0  0  0  0  0  0  0
   14.1850  -15.9242   25.1352 O   0  0  0  0  0  0  0  0  0  0  0  0
  1  2  1  0
  3  5  1  0
  3  2  1  0
  4  3  2  0
  6  5  1  0
  7  8  1  0
  6  7  1  1
  8 16  1  0
  9  8  2  0
  9 10  1  0
 10 11  1  0
 11 12  1  0
 12 13  2  0
 14 13  1  0
 15 14  2  0
 16 11  2  0
 16 15  1  0
 17 22  1  0
 17  6  1  0
 18 17  2  0
 19 20  1  0
 21 20  1  6
 21 22  1  0
 21 23  1  0
 23 25  1  0
 24 23  2  0
M  END
$$$$
