QLS.pdb
     RDKit          3D

 24 23  0  0  1  0  0  0  0  0999 V2000
   19.3489  -23.9934   -8.1940 N   0  0  0  0  0  0  0  0  0  0  0  0
   18.4063  -24.3327   -9.2296 C   0  0  0  0  0  0  0  0  0  0  0  0
   18.9083  -24.5975  -10.3392 O   0  0  0  0  0  0  0  0  0  0  0  0
   16.9907  -24.3299   -8.8680 C   0  0  0  0  0  0  0  0  0  0  0  0
   16.7946  -24.0409   -7.4152 C   0  0  0  0  0  0  0  0  0  0  0  0
   15.5989  -24.7583   -6.8954 C   0  0  2  0  0  0  0  0  0  0  0  0
   14.3857  -24.2250   -7.4852 N   0  0  0  0  0  0  0  0  0  0  0  0
   15.5774  -24.5916   -5.4013 C   0  0  0  0  0  0  0  0  0  0  0  0
   15.0468  -23.5304   -5.0039 O   0  0  0  0  0  0  0  0  0  0  0  0
   14.7097  -23.7448   -0.6394 C   0  0  0  0  0  0  0  0  0  0  0  0
   14.3148  -25.0845   -1.2264 C   0  0  1  0  0  0  0  0  0  0  0  0
   12.7605  -25.1309   -1.1597 C   0  0  0  0  0  0  0  0  0  0  0  0
   14.6388  -25.1904   -2.6710 C   0  0  0  0  0  0  0  0  0  0  0  0
   16.0549  -25.3690   -3.0676 C   0  0  2  0  0  0  0  0  0  0  0  0
   16.0964  -25.5236   -4.5210 N   0  0  0  0  0  0  0  0  0  0  0  0
   16.6764  -26.5570   -2.4838 C   0  0  0  0  0  0  0  0  0  0  0  0
   16.2468  -27.7329   -2.7558 O   0  0  0  0  0  0  0  0  0  0  0  0
   20.5387  -26.9027   -1.5050 O   0  0  0  0  0  0  0  0  0  0  0  0
   19.7714  -27.5354   -0.5304 C   0  0  0  0  0  0  0  0  0  0  0  0
   18.3554  -27.7876   -1.0655 C   0  0  2  0  0  0  0  0  0  0  0  0
   17.7885  -26.5605   -1.5851 N   0  0  0  0  0  0  0  0  0  0  0  0
   17.4792  -28.3080    0.0116 C   0  0  0  0  0  0  0  0  0  0  0  0
   17.4577  -29.5226    0.2595 O   0  0  0  0  0  0  0  0  0  0  0  0
   16.6652  -27.4514    0.7651 O   0  0  0  0  0  0  0  0  0  0  0  0
  2  1  1  0
  3  2  2  0
  4  2  1  0
  5  4  1  0
  6  5  1  0
  6  7  1  6
  8  9  2  0
  8  6  1  0
 11 10  1  6
 11 12  1  0
 14 13  1  1
 13 11  1  0
 14 15  1  0
 15  8  1  0
 16 14  1  0
 17 16  2  0
 18 19  1  0
 20 19  1  1
 20 21  1  0
 21 16  1  0
 22 20  1  0
 23 22  2  0
 24 22  1  0
M  END
$$$$
