QLS.pdb
     RDKit          3D

 24 23  0  0  1  0  0  0  0  0999 V2000
   25.6271  -22.6401  -19.9789 N   0  0  0  0  0  0  0  0  0  0  0  0
   26.3278  -21.3813  -19.9541 C   0  0  0  0  0  0  0  0  0  0  0  0
   27.0260  -21.1418  -20.9583 O   0  0  0  0  0  0  0  0  0  0  0  0
   26.1426  -20.5398  -18.7741 C   0  0  0  0  0  0  0  0  0  0  0  0
   25.3210  -21.2266  -17.7321 C   0  0  0  0  0  0  0  0  0  0  0  0
   25.9868  -21.1466  -16.4036 C   0  0  2  0  0  0  0  0  0  0  0  0
   27.1580  -22.0015  -16.3660 N   0  0  0  0  0  0  0  0  0  0  0  0
   24.9882  -21.5727  -15.3635 C   0  0  0  0  0  0  0  0  0  0  0  0
   24.5183  -22.7199  -15.5327 O   0  0  0  0  0  0  0  0  0  0  0  0
   25.8118  -20.4520  -10.1021 C   0  0  0  0  0  0  0  0  0  0  0  0
   25.4445  -21.1453  -11.3981 C   0  0  1  0  0  0  0  0  0  0  0  0
   25.1674  -22.6288  -11.0175 C   0  0  0  0  0  0  0  0  0  0  0  0
   24.1650  -20.6507  -11.9651 C   0  0  0  0  0  0  0  0  0  0  0  0
   23.6922  -21.2204  -13.2481 C   0  0  2  0  0  0  0  0  0  0  0  0
   24.6068  -20.7763  -14.2990 N   0  0  0  0  0  0  0  0  0  0  0  0
   22.3496  -20.7767  -13.6212 C   0  0  0  0  0  0  0  0  0  0  0  0
   22.1109  -19.5512  -13.9079 O   0  0  0  0  0  0  0  0  0  0  0  0
   19.0581  -23.3129  -14.4088 O   0  0  0  0  0  0  0  0  0  0  0  0
   19.1829  -22.0754  -15.0348 C   0  0  0  0  0  0  0  0  0  0  0  0
   19.8965  -21.0892  -14.1004 C   0  0  2  0  0  0  0  0  0  0  0  0
   21.1914  -21.6100  -13.7142 N   0  0  0  0  0  0  0  0  0  0  0  0
   19.0866  -20.8517  -12.8812 C   0  0  0  0  0  0  0  0  0  0  0  0
   19.5141  -21.2115  -11.7744 O   0  0  0  0  0  0  0  0  0  0  0  0
   17.8358  -20.2234  -12.9495 O   0  0  0  0  0  0  0  0  0  0  0  0
  2  1  1  0
  3  2  2  0
  4  2  1  0
  5  4  1  0
  6  5  1  0
  6  7  1  6
  8  9  2  0
  8  6  1  0
 11 10  1  1
 11 12  1  0
 14 13  1  1
 13 11  1  0
 14 15  1  0
 15  8  1  0
 16 14  1  0
 17 16  2  0
 18 19  1  0
 20 19  1  6
 20 21  1  0
 21 16  1  0
 22 20  1  0
 23 22  2  0
 24 22  1  0
M  END
$$$$
