QLS.pdb
     RDKit          3D

 24 23  0  0  1  0  0  0  0  0999 V2000
   18.4271  -24.1245  -12.4373 N   0  0  0  0  0  0  0  0  0  0  0  0
   18.3570  -22.6856  -12.4602 C   0  0  0  0  0  0  0  0  0  0  0  0
   18.0822  -22.1494  -11.3692 O   0  0  0  0  0  0  0  0  0  0  0  0
   18.6134  -22.0270  -13.7390 C   0  0  0  0  0  0  0  0  0  0  0  0
   19.8064  -21.1302  -13.6665 C   0  0  0  0  0  0  0  0  0  0  0  0
   20.8839  -21.6182  -14.5696 C   0  0  2  0  0  0  0  0  0  0  0  0
   21.2148  -22.9988  -14.2720 N   0  0  0  0  0  0  0  0  0  0  0  0
   22.0834  -20.7333  -14.3728 C   0  0  0  0  0  0  0  0  0  0  0  0
   21.8527  -19.5096  -14.4952 O   0  0  0  0  0  0  0  0  0  0  0  0
   25.9058  -22.0387  -10.7394 C   0  0  0  0  0  0  0  0  0  0  0  0
   24.9092  -21.2799  -11.5915 C   0  0  1  0  0  0  0  0  0  0  0  0
   24.7525  -19.8869  -10.9152 C   0  0  0  0  0  0  0  0  0  0  0  0
   25.4287  -20.9885  -12.9510 C   0  0  0  0  0  0  0  0  0  0  0  0
   24.5211  -20.3537  -13.9347 C   0  0  2  0  0  0  0  0  0  0  0  0
   23.3470  -21.2131  -14.0797 N   0  0  0  0  0  0  0  0  0  0  0  0
   25.1173  -20.2009  -15.2613 C   0  0  0  0  0  0  0  0  0  0  0  0
   25.2530  -21.2030  -16.0478 O   0  0  0  0  0  0  0  0  0  0  0  0
   25.8934  -17.6398  -19.2211 O   0  0  0  0  0  0  0  0  0  0  0  0
   25.3874  -17.7412  -17.9279 C   0  0  0  0  0  0  0  0  0  0  0  0
   26.0795  -18.8934  -17.1873 C   0  0  2  0  0  0  0  0  0  0  0  0
   25.5963  -18.9772  -15.8247 N   0  0  0  0  0  0  0  0  0  0  0  0
   27.5482  -18.6899  -17.1688 C   0  0  0  0  0  0  0  0  0  0  0  0
   28.1122  -18.3457  -16.1197 O   0  0  0  0  0  0  0  0  0  0  0  0
   28.3236  -18.8790  -18.3207 O   0  0  0  0  0  0  0  0  0  0  0  0
  2  1  1  0
  3  2  2  0
  4  2  1  0
  5  4  1  0
  6  5  1  0
  6  7  1  1
  8  9  2  0
  8  6  1  0
 11 10  1  1
 11 12  1  0
 14 13  1  1
 13 11  1  0
 14 15  1  0
 15  8  1  0
 16 14  1  0
 17 16  2  0
 18 19  1  0
 20 19  1  1
 20 21  1  0
 21 16  1  0
 22 20  1  0
 23 22  2  0
 24 22  1  0
M  END
$$$$
