QLS.pdb
     RDKit          3D

 24 23  0  0  1  0  0  0  0  0999 V2000
   22.8093  -18.2133  -19.9649 N   0  0  0  0  0  0  0  0  0  0  0  0
   23.6091  -19.3050  -19.4704 C   0  0  0  0  0  0  0  0  0  0  0  0
   23.3707  -20.4145  -19.9855 O   0  0  0  0  0  0  0  0  0  0  0  0
   24.5953  -18.9933  -18.4383 C   0  0  0  0  0  0  0  0  0  0  0  0
   24.6610  -17.5257  -18.1656 C   0  0  0  0  0  0  0  0  0  0  0  0
   25.4515  -16.8323  -19.2186 C   0  0  2  0  0  0  0  0  0  0  0  0
   26.7300  -17.4889  -19.4144 N   0  0  0  0  0  0  0  0  0  0  0  0
   25.6508  -15.4081  -18.7798 C   0  0  0  0  0  0  0  0  0  0  0  0
   24.5926  -14.7839  -18.5429 O   0  0  0  0  0  0  0  0  0  0  0  0
   28.1864  -11.2905  -16.1444 C   0  0  0  0  0  0  0  0  0  0  0  0
   28.9265  -11.9498  -17.2903 C   0  0  1  0  0  0  0  0  0  0  0  0
   30.3752  -12.1877  -16.7735 C   0  0  0  0  0  0  0  0  0  0  0  0
   28.4041  -13.3040  -17.6006 C   0  0  0  0  0  0  0  0  0  0  0  0
   27.0835  -13.4188  -18.2619 C   0  0  2  0  0  0  0  0  0  0  0  0
   26.8940  -14.8177  -18.6429 N   0  0  0  0  0  0  0  0  0  0  0  0
   26.9712  -12.6154  -19.4788 C   0  0  0  0  0  0  0  0  0  0  0  0
   27.6502  -12.8997  -20.5272 O   0  0  0  0  0  0  0  0  0  0  0  0
   24.4003   -9.8055  -22.4103 O   0  0  0  0  0  0  0  0  0  0  0  0
   24.5150  -10.5775  -21.2572 C   0  0  0  0  0  0  0  0  0  0  0  0
   25.9967  -10.7959  -20.9225 C   0  0  2  0  0  0  0  0  0  0  0  0
   26.1299  -11.4720  -19.6488 N   0  0  0  0  0  0  0  0  0  0  0  0
   26.7107   -9.4978  -20.8589 C   0  0  0  0  0  0  0  0  0  0  0  0
   26.6268   -8.7944  -19.8414 O   0  0  0  0  0  0  0  0  0  0  0  0
   27.4868   -9.0409  -21.9327 O   0  0  0  0  0  0  0  0  0  0  0  0
  2  1  1  0
  3  2  2  0
  4  2  1  0
  5  4  1  0
  6  5  1  0
  6  7  1  1
  8  9  2  0
  8  6  1  0
 11 10  1  1
 11 12  1  0
 14 13  1  6
 13 11  1  0
 14 15  1  0
 15  8  1  0
 16 14  1  0
 17 16  2  0
 18 19  1  0
 20 19  1  1
 20 21  1  0
 21 16  1  0
 22 20  1  0
 23 22  2  0
 24 22  1  0
M  END
$$$$
