QLS.pdb
     RDKit          3D

 24 23  0  0  1  0  0  0  0  0999 V2000
   19.5503  -21.2543   -9.3376 N   0  0  0  0  0  0  0  0  0  0  0  0
   19.9344  -22.1156  -10.4270 C   0  0  0  0  0  0  0  0  0  0  0  0
   20.1068  -23.3120  -10.1233 O   0  0  0  0  0  0  0  0  0  0  0  0
   20.0749  -21.4998  -11.7445 C   0  0  0  0  0  0  0  0  0  0  0  0
   21.1256  -20.4374  -11.7460 C   0  0  0  0  0  0  0  0  0  0  0  0
   22.4840  -21.0445  -11.7230 C   0  0  2  0  0  0  0  0  0  0  0  0
   23.0066  -21.0783  -10.3703 N   0  0  0  0  0  0  0  0  0  0  0  0
   23.3713  -20.2174  -12.6115 C   0  0  0  0  0  0  0  0  0  0  0  0
   23.3836  -18.9956  -12.3421 O   0  0  0  0  0  0  0  0  0  0  0  0
   28.5220  -21.2544  -13.1457 C   0  0  0  0  0  0  0  0  0  0  0  0
   27.2410  -20.4461  -13.1163 C   0  0  1  0  0  0  0  0  0  0  0  0
   27.6820  -18.9560  -13.2034 C   0  0  0  0  0  0  0  0  0  0  0  0
   26.4010  -20.6671  -14.3199 C   0  0  0  0  0  0  0  0  0  0  0  0
   25.0973  -19.9698  -14.4110 C   0  0  2  0  0  0  0  0  0  0  0  0
   24.1208  -20.7451  -13.6472 N   0  0  0  0  0  0  0  0  0  0  0  0
   24.5926  -19.8577  -15.7790 C   0  0  0  0  0  0  0  0  0  0  0  0
   24.1955  -20.8891  -16.4269 O   0  0  0  0  0  0  0  0  0  0  0  0
   24.1456  -16.2514  -17.6475 O   0  0  0  0  0  0  0  0  0  0  0  0
   23.4043  -17.2677  -18.2445 C   0  0  0  0  0  0  0  0  0  0  0  0
   24.0213  -18.6309  -17.9035 C   0  0  2  0  0  0  0  0  0  0  0  0
   24.4784  -18.6461  -16.5294 N   0  0  0  0  0  0  0  0  0  0  0  0
   25.1676  -18.9197  -18.7986 C   0  0  0  0  0  0  0  0  0  0  0  0
   26.3111  -19.0146  -18.3290 O   0  0  0  0  0  0  0  0  0  0  0  0
   24.9887  -19.0899  -20.1781 O   0  0  0  0  0  0  0  0  0  0  0  0
  2  1  1  0
  3  2  2  0
  4  2  1  0
  5  4  1  0
  6  5  1  0
  6  7  1  1
  8  9  2  0
  8  6  1  0
 11 10  1  6
 11 12  1  0
 14 13  1  6
 13 11  1  0
 14 15  1  0
 15  8  1  0
 16 14  1  0
 17 16  2  0
 18 19  1  0
 20 19  1  6
 20 21  1  0
 21 16  1  0
 22 20  1  0
 23 22  2  0
 24 22  1  0
M  END
$$$$
