QLS.pdb
     RDKit          3D

 24 23  0  0  1  0  0  0  0  0999 V2000
   12.4906  -15.3974    3.4694 N   0  0  0  0  0  0  0  0  0  0  0  0
   11.7978  -16.5854    3.0397 C   0  0  0  0  0  0  0  0  0  0  0  0
   10.7752  -16.3863    2.3557 O   0  0  0  0  0  0  0  0  0  0  0  0
   12.3638  -17.8696    3.4463 C   0  0  0  0  0  0  0  0  0  0  0  0
   13.5973  -17.6910    4.2704 C   0  0  0  0  0  0  0  0  0  0  0  0
   14.7840  -17.4799    3.3977 C   0  0  2  0  0  0  0  0  0  0  0  0
   15.0825  -18.6808    2.6408 N   0  0  0  0  0  0  0  0  0  0  0  0
   15.9433  -17.1104    4.2809 C   0  0  0  0  0  0  0  0  0  0  0  0
   16.8345  -17.9849    4.3624 O   0  0  0  0  0  0  0  0  0  0  0  0
   17.8114  -11.9491    4.4620 C   0  0  0  0  0  0  0  0  0  0  0  0
   17.7387  -13.4612    4.4035 C   0  0  1  0  0  0  0  0  0  0  0  0
   19.2000  -13.9437    4.1708 C   0  0  0  0  0  0  0  0  0  0  0  0
   17.3397  -14.0622    5.7007 C   0  0  0  0  0  0  0  0  0  0  0  0
   17.1840  -15.5331    5.7813 C   0  0  2  0  0  0  0  0  0  0  0  0
   16.0358  -15.9073    4.9568 N   0  0  0  0  0  0  0  0  0  0  0  0
   16.9245  -16.0165    7.1369 C   0  0  0  0  0  0  0  0  0  0  0  0
   15.7829  -15.8507    7.6940 O   0  0  0  0  0  0  0  0  0  0  0  0
   18.1882  -19.4066    8.7907 O   0  0  0  0  0  0  0  0  0  0  0  0
   17.1230  -18.6467    9.2668 C   0  0  0  0  0  0  0  0  0  0  0  0
   17.5158  -17.1636    9.3001 C   0  0  2  0  0  0  0  0  0  0  0  0
   17.8603  -16.7049    7.9704 N   0  0  0  0  0  0  0  0  0  0  0  0
   18.6754  -16.9544   10.2003 C   0  0  0  0  0  0  0  0  0  0  0  0
   18.5645  -17.1782   11.4147 O   0  0  0  0  0  0  0  0  0  0  0  0
   19.9077  -16.5050    9.7070 O   0  0  0  0  0  0  0  0  0  0  0  0
  2  1  1  0
  3  2  2  0
  4  2  1  0
  5  4  1  0
  6  5  1  0
  6  7  1  1
  8  9  2  0
  8  6  1  0
 11 10  1  1
 11 12  1  0
 14 13  1  1
 13 11  1  0
 14 15  1  0
 15  8  1  0
 16 14  1  0
 17 16  2  0
 18 19  1  0
 20 19  1  6
 20 21  1  0
 21 16  1  0
 22 20  1  0
 23 22  2  0
 24 22  1  0
M  END
$$$$
