QLS.pdb
     RDKit          3D

 24 23  0  0  1  0  0  0  0  0999 V2000
   21.9837  -10.6767  -21.8429 N   0  0  0  0  0  0  0  0  0  0  0  0
   21.2877  -11.9263  -22.0166 C   0  0  0  0  0  0  0  0  0  0  0  0
   21.2502  -12.3558  -23.1859 O   0  0  0  0  0  0  0  0  0  0  0  0
   20.7147  -12.5406  -20.8211 C   0  0  0  0  0  0  0  0  0  0  0  0
   20.9585  -11.7084  -19.6043 C   0  0  0  0  0  0  0  0  0  0  0  0
   21.9557  -12.3622  -18.7140 C   0  0  2  0  0  0  0  0  0  0  0  0
   21.4439  -13.6229  -18.2113 N   0  0  0  0  0  0  0  0  0  0  0  0
   22.2454  -11.4195  -17.5791 C   0  0  0  0  0  0  0  0  0  0  0  0
   21.4330  -11.4834  -16.6296 O   0  0  0  0  0  0  0  0  0  0  0  0
   27.3807  -10.1633  -16.0927 C   0  0  0  0  0  0  0  0  0  0  0  0
   25.9126  -10.5371  -16.1122 C   0  0  1  0  0  0  0  0  0  0  0  0
   25.5631  -10.9442  -14.6512 C   0  0  0  0  0  0  0  0  0  0  0  0
   25.0342   -9.3775  -16.4065 C   0  0  0  0  0  0  0  0  0  0  0  0
   23.5714   -9.5987  -16.4816 C   0  0  2  0  0  0  0  0  0  0  0  0
   23.3171  -10.5454  -17.5665 N   0  0  0  0  0  0  0  0  0  0  0  0
   22.8143   -8.3827  -16.7763 C   0  0  0  0  0  0  0  0  0  0  0  0
   23.0454   -7.6962  -17.8330 O   0  0  0  0  0  0  0  0  0  0  0  0
   19.0114   -7.7823  -15.4889 O   0  0  0  0  0  0  0  0  0  0  0  0
   19.5075   -7.1876  -16.6461 C   0  0  0  0  0  0  0  0  0  0  0  0
   20.9524   -6.7250  -16.4151 C   0  0  2  0  0  0  0  0  0  0  0  0
   21.7698   -7.8340  -15.9687 N   0  0  0  0  0  0  0  0  0  0  0  0
   20.9958   -5.6498  -15.3950 C   0  0  0  0  0  0  0  0  0  0  0  0
   20.4533   -4.5584  -15.6226 O   0  0  0  0  0  0  0  0  0  0  0  0
   21.6422   -5.8385  -14.1659 O   0  0  0  0  0  0  0  0  0  0  0  0
  2  1  1  0
  3  2  2  0
  4  2  1  0
  5  4  1  0
  6  5  1  0
  6  7  1  1
  8  9  2  0
  8  6  1  0
 11 10  1  1
 11 12  1  0
 14 13  1  6
 13 11  1  0
 14 15  1  0
 15  8  1  0
 16 14  1  0
 17 16  2  0
 18 19  1  0
 20 19  1  1
 20 21  1  0
 21 16  1  0
 22 20  1  0
 23 22  2  0
 24 22  1  0
M  END
$$$$
