QLS.pdb
     RDKit          3D

 24 23  0  0  1  0  0  0  0  0999 V2000
   21.5188  -17.7019  -17.1737 N   0  0  0  0  0  0  0  0  0  0  0  0
   22.2430  -16.6002  -17.7548 C   0  0  0  0  0  0  0  0  0  0  0  0
   21.5435  -15.6305  -18.1063 O   0  0  0  0  0  0  0  0  0  0  0  0
   23.6934  -16.7406  -17.8635 C   0  0  0  0  0  0  0  0  0  0  0  0
   24.1543  -18.0775  -17.3809 C   0  0  0  0  0  0  0  0  0  0  0  0
   24.0764  -18.1538  -15.8968 C   0  0  2  0  0  0  0  0  0  0  0  0
   24.8801  -17.1110  -15.2879 N   0  0  0  0  0  0  0  0  0  0  0  0
   24.5697  -19.5117  -15.4806 C   0  0  0  0  0  0  0  0  0  0  0  0
   25.2507  -20.1055  -16.3462 O   0  0  0  0  0  0  0  0  0  0  0  0
   25.8152  -20.5957  -10.1532 C   0  0  0  0  0  0  0  0  0  0  0  0
   25.8169  -20.4270  -11.6588 C   0  0  1  0  0  0  0  0  0  0  0  0
   27.2382  -20.8536  -12.1280 C   0  0  0  0  0  0  0  0  0  0  0  0
   24.8916  -21.3682  -12.3377 C   0  0  0  0  0  0  0  0  0  0  0  0
   24.8409  -21.3668  -13.8182 C   0  0  2  0  0  0  0  0  0  0  0  0
   24.3034  -20.0761  -14.2463 N   0  0  0  0  0  0  0  0  0  0  0  0
   23.9735  -22.4064  -14.3709 C   0  0  0  0  0  0  0  0  0  0  0  0
   22.7234  -22.4448  -14.0939 O   0  0  0  0  0  0  0  0  0  0  0  0
   25.3008  -25.5279  -16.8413 O   0  0  0  0  0  0  0  0  0  0  0  0
   23.9959  -25.0834  -17.0375 C   0  0  0  0  0  0  0  0  0  0  0  0
   23.4603  -24.4550  -15.7439 C   0  0  2  0  0  0  0  0  0  0  0  0
   24.3854  -23.4564  -15.2497 N   0  0  0  0  0  0  0  0  0  0  0  0
   23.2678  -25.4940  -14.7037 C   0  0  0  0  0  0  0  0  0  0  0  0
   23.9208  -25.4445  -13.6510 O   0  0  0  0  0  0  0  0  0  0  0  0
   22.3556  -26.5428  -14.8829 O   0  0  0  0  0  0  0  0  0  0  0  0
  2  1  1  0
  3  2  2  0
  4  2  1  0
  5  4  1  0
  6  5  1  0
  6  7  1  1
  8  9  2  0
  8  6  1  0
 11 10  1  1
 11 12  1  0
 14 13  1  1
 13 11  1  0
 14 15  1  0
 15  8  1  0
 16 14  1  0
 17 16  2  0
 18 19  1  0
 20 19  1  6
 20 21  1  0
 21 16  1  0
 22 20  1  0
 23 22  2  0
 24 22  1  0
M  END
$$$$
