VRM.pdb
     RDKit          3D

 27 26  0  0  1  0  0  0  0  0999 V2000
   18.1140  -29.8435  -10.1193 C   0  0  0  0  0  0  0  0  0  0  0  0
   19.5629  -29.7459  -10.5103 C   0  0  1  0  0  0  0  0  0  0  0  0
   19.7726  -30.6793  -11.7039 C   0  0  0  0  0  0  0  0  0  0  0  0
   19.9258  -28.3670  -10.9695 C   0  0  2  0  0  0  0  0  0  0  0  0
   21.3660  -28.3467  -11.3239 N   0  0  0  0  0  0  0  0  0  0  0  0
   19.7304  -27.2939   -9.9768 C   0  0  0  0  0  0  0  0  0  0  0  0
   20.4689  -27.3432   -8.9468 O   0  0  0  0  0  0  0  0  0  0  0  0
   20.2885  -20.1427  -10.3505 N   0  0  0  0  0  0  0  0  0  0  0  0
   19.8623  -20.4207  -11.6733 C   0  0  0  0  0  0  0  0  0  0  0  0
   20.5416  -19.9463  -12.7041 N   0  0  0  0  0  0  0  0  0  0  0  0
   18.7256  -21.1916  -11.9874 N   0  0  0  0  0  0  0  0  0  0  0  0
   18.0284  -21.9893  -11.0507 C   0  0  0  0  0  0  0  0  0  0  0  0
   18.7948  -23.1855  -10.5374 C   0  0  0  0  0  0  0  0  0  0  0  0
   17.9320  -23.9478   -9.5572 C   0  0  0  0  0  0  0  0  0  0  0  0
   18.5459  -25.2371   -9.0751 C   0  0  2  0  0  0  0  0  0  0  0  0
   18.8268  -26.2285  -10.0420 N   0  0  0  0  0  0  0  0  0  0  0  0
   17.7783  -25.7642   -7.9480 C   0  0  0  0  0  0  0  0  0  0  0  0
   16.7040  -26.4376   -8.1154 O   0  0  0  0  0  0  0  0  0  0  0  0
   20.1412  -20.1895  -13.6337 C   0  0  0  0  0  0  0  0  0  0  0  0
   20.4426  -27.2037   -2.0710 S   0  0  0  0  0  0  0  0  0  0  0  0
   18.6885  -27.3367   -1.7915 C   0  0  0  0  0  0  0  0  0  0  0  0
   17.6633  -26.7363   -3.1033 C   0  0  0  0  0  0  0  0  0  0  0  0
   18.3746  -26.2731   -4.3247 C   0  0  1  0  0  0  0  0  0  0  0  0
   17.4966  -25.9667   -5.4747 N   0  0  0  0  0  0  0  0  0  0  0  0
   18.2672  -25.5018   -6.6380 C   0  0  0  0  0  0  0  0  0  0  0  0
   16.5058  -24.8854   -5.2151 O   0  0  0  0  0  0  0  0  0  0  0  0
   16.7779  -23.7268   -5.6343 O   0  0  0  0  0  0  0  0  0  0  0  0
  2  3  1  6
  2  1  1  0
  4  2  1  0
  4  5  1  1
  6  4  1  0
  6  7  2  0
  9  8  1  0
 10  9  2  0
 11  9  1  0
 12 11  1  0
 13 14  1  0
 13 12  1  0
 15 16  1  0
 15 14  1  6
 16  6  1  0
 17 15  1  0
 18 17  2  0
 19 20  1  0
 20 21  1  0
 23 22  1  6
 22 21  1  0
 23 24  1  0
 24 17  1  0
 25 23  1  0
 25 27  1  0
 26 25  2  0
M  END
$$$$
