VRM.pdb
     RDKit          3D

 27 26  0  0  1  0  0  0  0  0999 V2000
   24.9503  -20.9262  -19.6240 C   0  0  0  0  0  0  0  0  0  0  0  0
   24.1477  -19.8678  -20.3295 C   0  0  1  0  0  0  0  0  0  0  0  0
   23.1385  -20.5882  -21.2250 C   0  0  0  0  0  0  0  0  0  0  0  0
   23.3567  -19.0338  -19.3688 C   0  0  2  0  0  0  0  0  0  0  0  0
   24.2712  -18.0685  -18.7115 N   0  0  0  0  0  0  0  0  0  0  0  0
   22.6896  -19.7752  -18.2823 C   0  0  0  0  0  0  0  0  0  0  0  0
   21.8627  -20.6681  -18.6398 O   0  0  0  0  0  0  0  0  0  0  0  0
   24.9896  -22.6544  -13.4214 N   0  0  0  0  0  0  0  0  0  0  0  0
   24.8335  -21.9634  -12.1938 C   0  0  0  0  0  0  0  0  0  0  0  0
   25.3271  -22.4719  -11.0773 N   0  0  0  0  0  0  0  0  0  0  0  0
   24.1652  -20.7296  -12.0656 N   0  0  0  0  0  0  0  0  0  0  0  0
   22.7580  -20.5912  -12.0483 C   0  0  0  0  0  0  0  0  0  0  0  0
   22.0770  -20.8435  -13.3727 C   0  0  0  0  0  0  0  0  0  0  0  0
   22.8821  -20.1989  -14.4785 C   0  0  0  0  0  0  0  0  0  0  0  0
   22.2349  -20.2850  -15.8370 C   0  0  2  0  0  0  0  0  0  0  0  0
   22.8657  -19.6082  -16.9051 N   0  0  0  0  0  0  0  0  0  0  0  0
   20.8142  -19.9555  -15.7344 C   0  0  0  0  0  0  0  0  0  0  0  0
   20.4074  -18.7550  -15.5646 O   0  0  0  0  0  0  0  0  0  0  0  0
   25.1125  -21.9213  -10.2203 C   0  0  0  0  0  0  0  0  0  0  0  0
   13.4289  -22.6427  -16.9926 S   0  0  0  0  0  0  0  0  0  0  0  0
   15.1696  -22.9858  -16.8354 C   0  0  0  0  0  0  0  0  0  0  0  0
   16.1666  -21.6236  -16.3035 C   0  0  0  0  0  0  0  0  0  0  0  0
   17.6372  -21.8453  -16.3282 C   0  0  1  0  0  0  0  0  0  0  0  0
   18.4410  -20.7327  -15.7776 N   0  0  0  0  0  0  0  0  0  0  0  0
   19.8815  -21.0256  -15.8293 C   0  0  0  0  0  0  0  0  0  0  0  0
   18.1634  -20.4291  -14.3461 O   0  0  0  0  0  0  0  0  0  0  0  0
   17.1199  -19.7727  -14.0769 O   0  0  0  0  0  0  0  0  0  0  0  0
  2  3  1  6
  2  1  1  0
  4  2  1  0
  4  5  1  1
  6  4  1  0
  6  7  2  0
  9  8  1  0
 10  9  2  0
 11  9  1  0
 12 11  1  0
 13 14  1  0
 13 12  1  0
 15 16  1  0
 15 14  1  1
 16  6  1  0
 17 15  1  0
 18 17  2  0
 19 20  1  0
 20 21  1  0
 23 22  1  6
 22 21  1  0
 23 24  1  0
 24 17  1  0
 25 23  1  0
 25 27  1  0
 26 25  2  0
M  END
$$$$
