VRM.pdb
     RDKit          3D

 27 26  0  0  1  0  0  0  0  0999 V2000
   20.8295  -22.4803  -13.5840 C   0  0  0  0  0  0  0  0  0  0  0  0
   20.4984  -22.9643  -14.9689 C   0  0  1  0  0  0  0  0  0  0  0  0
   19.7156  -21.8480  -15.6623 C   0  0  0  0  0  0  0  0  0  0  0  0
   21.7306  -23.2022  -15.7868 C   0  0  2  0  0  0  0  0  0  0  0  0
   22.2929  -24.5266  -15.4264 N   0  0  0  0  0  0  0  0  0  0  0  0
   22.8195  -22.2260  -15.5955 C   0  0  0  0  0  0  0  0  0  0  0  0
   22.5606  -21.0279  -15.9215 O   0  0  0  0  0  0  0  0  0  0  0  0
   25.5640  -19.2328   -9.9898 N   0  0  0  0  0  0  0  0  0  0  0  0
   25.3871  -20.5187   -9.4207 C   0  0  0  0  0  0  0  0  0  0  0  0
   24.7562  -20.6537   -8.2663 N   0  0  0  0  0  0  0  0  0  0  0  0
   25.8511  -21.7106  -10.0117 N   0  0  0  0  0  0  0  0  0  0  0  0
   26.3917  -21.7874  -11.3161 C   0  0  0  0  0  0  0  0  0  0  0  0
   25.3917  -21.5973  -12.4321 C   0  0  0  0  0  0  0  0  0  0  0  0
   26.0920  -21.7595  -13.7625 C   0  0  0  0  0  0  0  0  0  0  0  0
   25.1893  -21.5773  -14.9556 C   0  0  2  0  0  0  0  0  0  0  0  0
   24.1023  -22.4694  -15.0945 N   0  0  0  0  0  0  0  0  0  0  0  0
   25.9887  -21.4840  -16.1761 C   0  0  0  0  0  0  0  0  0  0  0  0
   26.4321  -22.5222  -16.7771 O   0  0  0  0  0  0  0  0  0  0  0  0
   24.6569  -21.6375   -7.9410 C   0  0  0  0  0  0  0  0  0  0  0  0
   24.1105  -18.1670  -21.3003 S   0  0  0  0  0  0  0  0  0  0  0  0
   25.5251  -19.1598  -21.7318 C   0  0  0  0  0  0  0  0  0  0  0  0
   26.6336  -19.5207  -20.4001 C   0  0  0  0  0  0  0  0  0  0  0  0
   26.0061  -19.7120  -19.0652 C   0  0  1  0  0  0  0  0  0  0  0  0
   26.9513  -20.0475  -17.9783 N   0  0  0  0  0  0  0  0  0  0  0  0
   26.2652  -20.1843  -16.6845 C   0  0  0  0  0  0  0  0  0  0  0  0
   28.0043  -19.0200  -17.7463 O   0  0  0  0  0  0  0  0  0  0  0  0
   27.8248  -18.1972  -16.8065 O   0  0  0  0  0  0  0  0  0  0  0  0
  2  3  1  6
  2  1  1  0
  4  2  1  0
  4  5  1  1
  6  4  1  0
  6  7  2  0
  9  8  1  0
 10  9  2  0
 11  9  1  0
 12 11  1  0
 13 14  1  0
 13 12  1  0
 15 16  1  0
 15 14  1  1
 16  6  1  0
 17 15  1  0
 18 17  2  0
 19 20  1  0
 20 21  1  0
 23 22  1  6
 22 21  1  0
 23 24  1  0
 24 17  1  0
 25 23  1  0
 25 27  1  0
 26 25  2  0
M  END
$$$$
