VRM.pdb
     RDKit          3D

 27 26  0  0  1  0  0  0  0  0999 V2000
   26.8889  -11.8001  -15.4926 C   0  0  0  0  0  0  0  0  0  0  0  0
   25.8000  -10.7690  -15.3782 C   0  0  1  0  0  0  0  0  0  0  0  0
   26.1530   -9.6310  -16.3373 C   0  0  0  0  0  0  0  0  0  0  0  0
   24.4724  -11.3080  -15.8153 C   0  0  2  0  0  0  0  0  0  0  0  0
   24.6453  -12.0049  -17.1131 N   0  0  0  0  0  0  0  0  0  0  0  0
   23.4151  -10.3013  -16.0255 C   0  0  0  0  0  0  0  0  0  0  0  0
   23.3512   -9.7906  -17.1848 O   0  0  0  0  0  0  0  0  0  0  0  0
   16.5513   -9.8470  -17.3354 N   0  0  0  0  0  0  0  0  0  0  0  0
   16.4362  -10.9829  -16.4955 C   0  0  0  0  0  0  0  0  0  0  0  0
   15.6127  -11.9665  -16.8167 N   0  0  0  0  0  0  0  0  0  0  0  0
   17.1579  -11.1508  -15.2971 N   0  0  0  0  0  0  0  0  0  0  0  0
   17.9986  -10.1619  -14.7358 C   0  0  0  0  0  0  0  0  0  0  0  0
   19.3751  -10.0722  -15.3512 C   0  0  0  0  0  0  0  0  0  0  0  0
   20.1701   -8.9997  -14.6411 C   0  0  0  0  0  0  0  0  0  0  0  0
   21.5503   -8.7850  -15.2072 C   0  0  2  0  0  0  0  0  0  0  0  0
   22.4750   -9.8475  -15.0949 N   0  0  0  0  0  0  0  0  0  0  0  0
   22.0981   -7.5202  -14.7197 C   0  0  0  0  0  0  0  0  0  0  0  0
   23.2817   -7.4329  -14.2431 O   0  0  0  0  0  0  0  0  0  0  0  0
   15.6181  -12.7682  -16.1528 C   0  0  0  0  0  0  0  0  0  0  0  0
   25.5877   -1.9235  -17.4673 S   0  0  0  0  0  0  0  0  0  0  0  0
   24.8182   -3.5216  -17.3047 C   0  0  0  0  0  0  0  0  0  0  0  0
   23.5954   -3.6492  -16.0315 C   0  0  0  0  0  0  0  0  0  0  0  0
   22.9084   -4.9635  -15.9189 C   0  0  2  0  0  0  0  0  0  0  0  0
   21.8791   -5.0361  -14.8594 N   0  0  0  0  0  0  0  0  0  0  0  0
   21.2635   -6.3702  -14.7904 C   0  0  0  0  0  0  0  0  0  0  0  0
   20.7384   -4.0978  -15.0512 O   0  0  0  0  0  0  0  0  0  0  0  0
   19.8631   -4.4049  -15.9067 O   0  0  0  0  0  0  0  0  0  0  0  0
  2  3  1  6
  2  1  1  0
  4  2  1  0
  4  5  1  6
  6  4  1  0
  6  7  2  0
  9  8  1  0
 10  9  2  0
 11  9  1  0
 12 11  1  0
 13 14  1  0
 13 12  1  0
 15 16  1  0
 15 14  1  1
 16  6  1  0
 17 15  1  0
 18 17  2  0
 19 20  1  0
 20 21  1  0
 23 22  1  1
 22 21  1  0
 23 24  1  0
 24 17  1  0
 25 23  1  0
 25 27  1  0
 26 25  2  0
M  END
$$$$
