VRM.pdb
     RDKit          3D

 27 26  0  0  1  0  0  0  0  0999 V2000
   24.6393  -17.4803  -17.3600 C   0  0  0  0  0  0  0  0  0  0  0  0
   24.8230  -18.7638  -16.5980 C   0  0  1  0  0  0  0  0  0  0  0  0
   26.0416  -19.4717  -17.1927 C   0  0  0  0  0  0  0  0  0  0  0  0
   25.1282  -18.5164  -15.1524 C   0  0  2  0  0  0  0  0  0  0  0  0
   26.2486  -17.5486  -15.0613 N   0  0  0  0  0  0  0  0  0  0  0  0
   25.5427  -19.7011  -14.3779 C   0  0  0  0  0  0  0  0  0  0  0  0
   24.6938  -20.6397  -14.2937 O   0  0  0  0  0  0  0  0  0  0  0  0
   31.8265  -20.9626   -9.2494 N   0  0  0  0  0  0  0  0  0  0  0  0
   31.7284  -22.0794  -10.1165 C   0  0  0  0  0  0  0  0  0  0  0  0
   32.1369  -23.2712   -9.7144 N   0  0  0  0  0  0  0  0  0  0  0  0
   31.2110  -22.0154  -11.4255 N   0  0  0  0  0  0  0  0  0  0  0  0
   30.8889  -20.8092  -12.0897 C   0  0  0  0  0  0  0  0  0  0  0  0
   29.4477  -20.3761  -11.9602 C   0  0  0  0  0  0  0  0  0  0  0  0
   28.5691  -21.3255  -12.7433 C   0  0  0  0  0  0  0  0  0  0  0  0
   27.1207  -20.9129  -12.8006 C   0  0  2  0  0  0  0  0  0  0  0  0
   26.7637  -19.9087  -13.7284 N   0  0  0  0  0  0  0  0  0  0  0  0
   26.6314  -20.6220  -11.4540 C   0  0  0  0  0  0  0  0  0  0  0  0
   26.7183  -19.4548  -10.9386 O   0  0  0  0  0  0  0  0  0  0  0  0
   32.1029  -24.0093  -10.4476 C   0  0  0  0  0  0  0  0  0  0  0  0
   28.5839  -18.7186   -6.8983 S   0  0  0  0  0  0  0  0  0  0  0  0
   27.3065  -19.6661   -6.0963 C   0  0  0  0  0  0  0  0  0  0  0  0
   26.0815  -20.3529   -7.1734 C   0  0  0  0  0  0  0  0  0  0  0  0
   26.5479  -20.7237   -8.5362 C   0  0  1  0  0  0  0  0  0  0  0  0
   25.5515  -21.4448   -9.3575 N   0  0  0  0  0  0  0  0  0  0  0  0
   26.0470  -21.6917  -10.7202 C   0  0  0  0  0  0  0  0  0  0  0  0
   24.2685  -20.7116   -9.5439 O   0  0  0  0  0  0  0  0  0  0  0  0
   24.1957  -19.8890  -10.4980 O   0  0  0  0  0  0  0  0  0  0  0  0
  2  3  1  6
  2  1  1  0
  4  2  1  0
  4  5  1  6
  6  4  1  0
  6  7  2  0
  9  8  1  0
 10  9  2  0
 11  9  1  0
 12 11  1  0
 13 14  1  0
 13 12  1  0
 15 16  1  0
 15 14  1  1
 16  6  1  0
 17 15  1  0
 18 17  2  0
 19 20  1  0
 20 21  1  0
 23 22  1  1
 22 21  1  0
 23 24  1  0
 24 17  1  0
 25 23  1  0
 25 27  1  0
 26 25  2  0
M  END
$$$$
