VRM.pdb
     RDKit          3D

 27 26  0  0  1  0  0  0  0  0999 V2000
   20.6772  -18.7678  -12.5494 C   0  0  0  0  0  0  0  0  0  0  0  0
   21.9430  -19.1480  -11.8318 C   0  0  1  0  0  0  0  0  0  0  0  0
   21.5474  -19.5923  -10.4227 C   0  0  0  0  0  0  0  0  0  0  0  0
   22.6230  -20.3152  -12.4793 C   0  0  2  0  0  0  0  0  0  0  0  0
   21.6692  -21.4496  -12.5377 N   0  0  0  0  0  0  0  0  0  0  0  0
   23.8215  -20.8196  -11.7832 C   0  0  0  0  0  0  0  0  0  0  0  0
   23.6129  -21.5748  -10.7857 O   0  0  0  0  0  0  0  0  0  0  0  0
   31.5372  -21.1864   -9.4991 N   0  0  0  0  0  0  0  0  0  0  0  0
   31.7986  -22.1472  -10.5077 C   0  0  0  0  0  0  0  0  0  0  0  0
   32.7907  -23.0097  -10.3631 N   0  0  0  0  0  0  0  0  0  0  0  0
   31.0557  -22.2578  -11.6997 N   0  0  0  0  0  0  0  0  0  0  0  0
   30.0607  -21.3356  -12.0991 C   0  0  0  0  0  0  0  0  0  0  0  0
   28.8076  -21.3458  -11.2557 C   0  0  0  0  0  0  0  0  0  0  0  0
   27.6323  -20.9138  -12.1033 C   0  0  0  0  0  0  0  0  0  0  0  0
   26.3239  -20.8658  -11.3567 C   0  0  2  0  0  0  0  0  0  0  0  0
   25.1597  -20.5626  -12.0978 N   0  0  0  0  0  0  0  0  0  0  0  0
   26.4586  -20.0252  -10.1681 C   0  0  0  0  0  0  0  0  0  0  0  0
   26.3865  -18.7497  -10.2283 O   0  0  0  0  0  0  0  0  0  0  0  0
   32.9144  -23.6636  -11.1635 C   0  0  0  0  0  0  0  0  0  0  0  0
   26.1786  -19.8077   -2.5931 S   0  0  0  0  0  0  0  0  0  0  0  0
   27.2274  -20.6662   -3.7488 C   0  0  0  0  0  0  0  0  0  0  0  0
   27.4652  -19.8562   -5.3044 C   0  0  0  0  0  0  0  0  0  0  0  0
   26.9477  -20.5764   -6.4984 C   0  0  1  0  0  0  0  0  0  0  0  0
   27.2109  -19.9049   -7.7896 N   0  0  0  0  0  0  0  0  0  0  0  0
   26.6766  -20.6764   -8.9222 C   0  0  0  0  0  0  0  0  0  0  0  0
   28.6563  -19.7220   -8.0990 O   0  0  0  0  0  0  0  0  0  0  0  0
   29.2104  -20.5781   -8.8423 O   0  0  0  0  0  0  0  0  0  0  0  0
  2  3  1  1
  2  1  1  0
  4  2  1  0
  4  5  1  1
  6  4  1  0
  6  7  2  0
  9  8  1  0
 10  9  2  0
 11  9  1  0
 12 11  1  0
 13 14  1  0
 13 12  1  0
 15 16  1  0
 15 14  1  6
 16  6  1  0
 17 15  1  0
 18 17  2  0
 19 20  1  0
 20 21  1  0
 23 22  1  1
 22 21  1  0
 23 24  1  0
 24 17  1  0
 25 23  1  0
 25 27  1  0
 26 25  2  0
M  END
$$$$
