MCK.pdb
     RDKit          3D

 24 23  0  0  1  0  0  0  0  0999 V2000
   28.7715  -13.6411  -15.1478 C   0  0  0  0  0  0  0  0  0  0  0  0
   27.4024  -12.4706  -15.3809 S   0  0  0  0  0  0  0  0  0  0  0  0
   26.7457  -12.6622  -17.0389 C   0  0  0  0  0  0  0  0  0  0  0  0
   25.6013  -11.7522  -17.3529 C   0  0  0  0  0  0  0  0  0  0  0  0
   24.4677  -11.8597  -16.3760 C   0  0  2  0  0  0  0  0  0  0  0  0
   23.9588  -13.2023  -16.2827 N   0  0  0  0  0  0  0  0  0  0  0  0
   23.3799  -10.8794  -16.6432 C   0  0  0  0  0  0  0  0  0  0  0  0
   22.3634  -11.1619  -17.3217 O   0  0  0  0  0  0  0  0  0  0  0  0
   23.4885   -9.5755  -16.1152 N   0  0  0  0  0  0  0  0  0  0  0  0
   22.4063   -8.6414  -16.3430 C   0  0  1  0  0  0  0  0  0  0  0  0
   21.2817   -9.0391  -15.3772 C   0  0  0  0  0  0  0  0  0  0  0  0
   22.0040   -9.3730  -13.7640 S   0  0  0  0  0  0  0  0  0  0  0  0
   22.8144   -7.2503  -15.9416 C   0  0  0  0  0  0  0  0  0  0  0  0
   23.5794   -7.1327  -14.9805 O   0  0  0  0  0  0  0  0  0  0  0  0
   22.3252   -6.1367  -16.6556 N   0  0  0  0  0  0  0  0  0  0  0  0
   22.6754   -4.7432  -16.3452 C   0  0  1  0  0  0  0  0  0  0  0  0
   22.1132   -3.9052  -17.4179 C   0  0  0  0  0  0  0  0  0  0  0  0
   20.6718   -3.6120  -17.4674 C   0  0  0  0  0  0  0  0  0  0  0  0
   20.0943   -2.7555  -18.4915 C   0  0  0  0  0  0  0  0  0  0  0  0
   18.6654   -2.4508  -18.5870 C   0  0  0  0  0  0  0  0  0  0  0  0
   18.2378   -1.5564  -19.5916 N   0  0  0  0  0  0  0  0  0  0  0  0
   22.0659   -4.4516  -15.0109 C   0  0  0  0  0  0  0  0  0  0  0  0
   21.1906   -5.3560  -14.4626 O   0  0  0  0  0  0  0  0  0  0  0  0
   22.3067   -3.4155  -14.3433 O   0  0  0  0  0  0  0  0  0  0  0  0
  1  2  1  0
  2  3  1  0
  4  3  1  0
  5  4  1  0
  5  6  1  6
  7  8  2  0
  7  5  1  0
  9  7  1  0
 10  9  1  0
 10 11  1  1
 12 11  1  0
 13 15  1  0
 13 10  1  0
 14 13  2  0
 16 15  1  0
 16 22  1  0
 16 17  1  6
 17 18  1  0
 19 18  1  0
 20 19  1  0
 20 21  1  0
 22 23  1  0
 24 22  2  0
M  END
$$$$
