MCK.pdb
     RDKit          3D

 24 23  0  0  1  0  0  0  0  0999 V2000
   25.6698  -20.8504   -8.6410 C   0  0  0  0  0  0  0  0  0  0  0  0
   26.6446  -21.8090   -9.8367 S   0  0  0  0  0  0  0  0  0  0  0  0
   26.8633  -20.8349  -11.3268 C   0  0  0  0  0  0  0  0  0  0  0  0
   25.5862  -20.3425  -11.9291 C   0  0  0  0  0  0  0  0  0  0  0  0
   24.7107  -21.4422  -12.4537 C   0  0  2  0  0  0  0  0  0  0  0  0
   25.2829  -22.0871  -13.6055 N   0  0  0  0  0  0  0  0  0  0  0  0
   23.3149  -20.9950  -12.7138 C   0  0  0  0  0  0  0  0  0  0  0  0
   22.6448  -20.3419  -11.8785 O   0  0  0  0  0  0  0  0  0  0  0  0
   22.7126  -21.3146  -13.9490 N   0  0  0  0  0  0  0  0  0  0  0  0
   21.3112  -21.0056  -14.1391 C   0  0  1  0  0  0  0  0  0  0  0  0
   21.0965  -20.8865  -15.6541 C   0  0  0  0  0  0  0  0  0  0  0  0
   19.3511  -20.5803  -15.9626 S   0  0  0  0  0  0  0  0  0  0  0  0
   20.4503  -22.1566  -13.6955 C   0  0  0  0  0  0  0  0  0  0  0  0
   20.7257  -23.2785  -14.1295 O   0  0  0  0  0  0  0  0  0  0  0  0
   19.3723  -21.9340  -12.8137 N   0  0  0  0  0  0  0  0  0  0  0  0
   18.6720  -23.0021  -12.0860 C   0  0  1  0  0  0  0  0  0  0  0  0
   18.3306  -22.4694  -10.7560 C   0  0  0  0  0  0  0  0  0  0  0  0
   17.7666  -23.3448   -9.7161 C   0  0  0  0  0  0  0  0  0  0  0  0
   18.5064  -24.4742   -9.1749 C   0  0  0  0  0  0  0  0  0  0  0  0
   17.9575  -25.4117   -8.1933 C   0  0  0  0  0  0  0  0  0  0  0  0
   18.0155  -25.0605   -6.8275 N   0  0  0  0  0  0  0  0  0  0  0  0
   17.4610  -23.3309  -12.8999 C   0  0  0  0  0  0  0  0  0  0  0  0
   16.7663  -22.3144  -13.5074 O   0  0  0  0  0  0  0  0  0  0  0  0
   17.0285  -24.4975  -13.0705 O   0  0  0  0  0  0  0  0  0  0  0  0
  1  2  1  0
  2  3  1  0
  4  3  1  0
  5  4  1  0
  5  6  1  6
  7  8  2  0
  7  5  1  0
  9  7  1  0
 10  9  1  0
 10 11  1  6
 12 11  1  0
 13 15  1  0
 13 10  1  0
 14 13  2  0
 16 15  1  0
 16 22  1  0
 16 17  1  1
 17 18  1  0
 19 18  1  0
 20 19  1  0
 20 21  1  0
 22 23  1  0
 24 22  2  0
M  END
$$$$
