MCK.pdb
     RDKit          3D

 24 23  0  0  1  0  0  0  0  0999 V2000
   19.7570  -23.9884  -11.6526 C   0  0  0  0  0  0  0  0  0  0  0  0
   19.6855  -23.5692   -9.8867 S   0  0  0  0  0  0  0  0  0  0  0  0
   18.7611  -24.8396   -9.0216 C   0  0  0  0  0  0  0  0  0  0  0  0
   18.5888  -24.5821   -7.5586 C   0  0  0  0  0  0  0  0  0  0  0  0
   17.8179  -25.6567   -6.8501 C   0  0  2  0  0  0  0  0  0  0  0  0
   16.5251  -25.8757   -7.4422 N   0  0  0  0  0  0  0  0  0  0  0  0
   17.7158  -25.4230   -5.3836 C   0  0  0  0  0  0  0  0  0  0  0  0
   18.7202  -25.2487   -4.6526 O   0  0  0  0  0  0  0  0  0  0  0  0
   16.4399  -25.3950   -4.7820 N   0  0  0  0  0  0  0  0  0  0  0  0
   16.3522  -25.2321   -3.3463 C   0  0  1  0  0  0  0  0  0  0  0  0
   15.1089  -24.3713   -3.0841 C   0  0  0  0  0  0  0  0  0  0  0  0
   15.6425  -22.6972   -2.6994 S   0  0  0  0  0  0  0  0  0  0  0  0
   16.0807  -26.5528   -2.6793 C   0  0  0  0  0  0  0  0  0  0  0  0
   15.0357  -27.1392   -2.9739 O   0  0  0  0  0  0  0  0  0  0  0  0
   17.0047  -27.0800   -1.7532 N   0  0  0  0  0  0  0  0  0  0  0  0
   16.7872  -28.3163   -0.9885 C   0  0  1  0  0  0  0  0  0  0  0  0
   17.6690  -29.3448   -1.5662 C   0  0  0  0  0  0  0  0  0  0  0  0
   17.3045  -30.0349   -2.8139 C   0  0  0  0  0  0  0  0  0  0  0  0
   18.1896  -30.0595   -3.9680 C   0  0  0  0  0  0  0  0  0  0  0  0
   17.8149  -30.6157   -5.2695 C   0  0  0  0  0  0  0  0  0  0  0  0
   18.7530  -30.5463   -6.3217 N   0  0  0  0  0  0  0  0  0  0  0  0
   17.1369  -27.9919    0.4291 C   0  0  0  0  0  0  0  0  0  0  0  0
   16.8913  -28.9217    1.4088 O   0  0  0  0  0  0  0  0  0  0  0  0
   17.6523  -26.9055    0.7914 O   0  0  0  0  0  0  0  0  0  0  0  0
  1  2  1  0
  2  3  1  0
  4  3  1  0
  5  4  1  0
  5  6  1  6
  7  8  2  0
  7  5  1  0
  9  7  1  0
 10  9  1  0
 10 11  1  6
 12 11  1  0
 13 15  1  0
 13 10  1  0
 14 13  2  0
 16 15  1  0
 16 22  1  0
 16 17  1  6
 17 18  1  0
 19 18  1  0
 20 19  1  0
 20 21  1  0
 22 23  1  0
 24 22  2  0
M  END
$$$$
