MCK.pdb
     RDKit          3D

 24 23  0  0  1  0  0  0  0  0999 V2000
   19.3470  -16.5514  -17.5688 C   0  0  0  0  0  0  0  0  0  0  0  0
   19.3808  -15.3275  -18.9104 S   0  0  0  0  0  0  0  0  0  0  0  0
   21.0785  -14.8292  -19.2040 C   0  0  0  0  0  0  0  0  0  0  0  0
   21.7013  -14.0794  -18.0698 C   0  0  0  0  0  0  0  0  0  0  0  0
   22.2663  -12.7492  -18.4724 C   0  0  2  0  0  0  0  0  0  0  0  0
   23.4889  -12.8837  -19.2189 N   0  0  0  0  0  0  0  0  0  0  0  0
   22.4267  -11.8178  -17.3224 C   0  0  0  0  0  0  0  0  0  0  0  0
   21.4721  -11.4863  -16.5793 O   0  0  0  0  0  0  0  0  0  0  0  0
   23.7024  -11.2805  -17.0495 N   0  0  0  0  0  0  0  0  0  0  0  0
   23.8445  -10.3539  -15.9463 C   0  0  1  0  0  0  0  0  0  0  0  0
   25.3205   -9.9341  -15.9218 C   0  0  0  0  0  0  0  0  0  0  0  0
   26.2941  -11.3024  -15.2773 S   0  0  0  0  0  0  0  0  0  0  0  0
   23.0673   -9.0933  -16.2104 C   0  0  0  0  0  0  0  0  0  0  0  0
   23.0489   -8.6634  -17.3669 O   0  0  0  0  0  0  0  0  0  0  0  0
   22.3923   -8.4452  -15.1551 N   0  0  0  0  0  0  0  0  0  0  0  0
   21.6184   -7.2056  -15.3133 C   0  0  1  0  0  0  0  0  0  0  0  0
   20.2399   -7.5953  -15.6556 C   0  0  0  0  0  0  0  0  0  0  0  0
   19.1789   -6.5826  -15.7764 C   0  0  0  0  0  0  0  0  0  0  0  0
   17.8173   -6.9335  -16.1489 C   0  0  0  0  0  0  0  0  0  0  0  0
   16.7303   -5.9602  -16.2711 C   0  0  0  0  0  0  0  0  0  0  0  0
   15.4168   -6.4437  -16.4527 N   0  0  0  0  0  0  0  0  0  0  0  0
   21.7038   -6.4949  -14.0001 C   0  0  0  0  0  0  0  0  0  0  0  0
   21.5722   -5.1288  -13.9683 O   0  0  0  0  0  0  0  0  0  0  0  0
   21.8897   -7.0748  -12.9018 O   0  0  0  0  0  0  0  0  0  0  0  0
  1  2  1  0
  2  3  1  0
  4  3  1  0
  5  4  1  0
  5  6  1  1
  7  8  2  0
  7  5  1  0
  9  7  1  0
 10  9  1  0
 10 11  1  6
 12 11  1  0
 13 15  1  0
 13 10  1  0
 14 13  2  0
 16 15  1  0
 16 22  1  0
 16 17  1  1
 17 18  1  0
 19 18  1  0
 20 19  1  0
 20 21  1  0
 22 23  1  0
 24 22  2  0
M  END
$$$$
