MCK.pdb
     RDKit          3D

 24 23  0  0  1  0  0  0  0  0999 V2000
   26.8412  -21.8603  -11.1554 C   0  0  0  0  0  0  0  0  0  0  0  0
   26.2903  -20.9531   -9.6815 S   0  0  0  0  0  0  0  0  0  0  0  0
   24.9511  -19.8516  -10.1401 C   0  0  0  0  0  0  0  0  0  0  0  0
   23.8030  -20.5318  -10.8149 C   0  0  0  0  0  0  0  0  0  0  0  0
   22.6992  -19.5935  -11.2054 C   0  0  2  0  0  0  0  0  0  0  0  0
   22.2028  -18.8440  -10.0821 N   0  0  0  0  0  0  0  0  0  0  0  0
   21.5972  -20.2722  -11.9407 C   0  0  0  0  0  0  0  0  0  0  0  0
   20.3960  -20.1915  -11.5885 O   0  0  0  0  0  0  0  0  0  0  0  0
   21.9076  -21.0406  -13.0825 N   0  0  0  0  0  0  0  0  0  0  0  0
   20.8334  -21.7194  -13.7761 C   0  0  1  0  0  0  0  0  0  0  0  0
   21.3181  -21.9369  -15.2160 C   0  0  0  0  0  0  0  0  0  0  0  0
   21.6811  -20.3335  -15.9460 S   0  0  0  0  0  0  0  0  0  0  0  0
   20.6215  -23.0953  -13.2060 C   0  0  0  0  0  0  0  0  0  0  0  0
   21.4962  -23.5484  -12.4627 O   0  0  0  0  0  0  0  0  0  0  0  0
   19.4550  -23.8207  -13.5258 N   0  0  0  0  0  0  0  0  0  0  0  0
   18.9204  -24.9190  -12.7082 C   0  0  1  0  0  0  0  0  0  0  0  0
   18.6133  -24.3616  -11.3800 C   0  0  0  0  0  0  0  0  0  0  0  0
   17.9601  -25.1854  -10.3501 C   0  0  0  0  0  0  0  0  0  0  0  0
   17.5600  -24.6369   -9.0637 C   0  0  0  0  0  0  0  0  0  0  0  0
   18.3733  -24.7317   -7.8499 C   0  0  0  0  0  0  0  0  0  0  0  0
   17.8262  -25.3901   -6.7278 N   0  0  0  0  0  0  0  0  0  0  0  0
   17.6997  -25.4080  -13.4208 C   0  0  0  0  0  0  0  0  0  0  0  0
   17.3377  -26.7268  -13.3010 O   0  0  0  0  0  0  0  0  0  0  0  0
   16.9672  -24.6790  -14.1344 O   0  0  0  0  0  0  0  0  0  0  0  0
  1  2  1  0
  2  3  1  0
  4  3  1  0
  5  4  1  0
  5  6  1  1
  7  8  2  0
  7  5  1  0
  9  7  1  0
 10  9  1  0
 10 11  1  6
 12 11  1  0
 13 15  1  0
 13 10  1  0
 14 13  2  0
 16 15  1  0
 16 22  1  0
 16 17  1  1
 17 18  1  0
 19 18  1  0
 20 19  1  0
 20 21  1  0
 22 23  1  0
 24 22  2  0
M  END
$$$$
