MCK.pdb
     RDKit          3D

 24 23  0  0  1  0  0  0  0  0999 V2000
   32.1450  -23.6031   -8.8479 C   0  0  0  0  0  0  0  0  0  0  0  0
   32.9820  -22.2300   -9.6923 S   0  0  0  0  0  0  0  0  0  0  0  0
   31.8238  -21.4381  -10.8096 C   0  0  0  0  0  0  0  0  0  0  0  0
   30.4641  -22.0606  -10.8238 C   0  0  0  0  0  0  0  0  0  0  0  0
   29.4976  -21.3624  -11.7346 C   0  0  2  0  0  0  0  0  0  0  0  0
   29.7642  -19.9517  -11.8282 N   0  0  0  0  0  0  0  0  0  0  0  0
   28.0762  -21.6286  -11.3816 C   0  0  0  0  0  0  0  0  0  0  0  0
   27.5839  -22.7823  -11.3719 O   0  0  0  0  0  0  0  0  0  0  0  0
   27.2404  -20.5437  -11.0425 N   0  0  0  0  0  0  0  0  0  0  0  0
   25.8369  -20.7987  -10.7956 C   0  0  1  0  0  0  0  0  0  0  0  0
   25.4715  -20.0140   -9.5282 C   0  0  0  0  0  0  0  0  0  0  0  0
   23.7132  -20.2237   -9.2121 S   0  0  0  0  0  0  0  0  0  0  0  0
   24.9914  -20.2142  -11.8939 C   0  0  0  0  0  0  0  0  0  0  0  0
   25.1201  -19.0113  -12.1373 O   0  0  0  0  0  0  0  0  0  0  0  0
   24.0909  -21.0344  -12.6050 N   0  0  0  0  0  0  0  0  0  0  0  0
   23.2036  -20.5486  -13.6714 C   0  0  1  0  0  0  0  0  0  0  0  0
   23.6898  -21.1248  -14.9367 C   0  0  0  0  0  0  0  0  0  0  0  0
   24.6476  -20.3912  -15.7794 C   0  0  0  0  0  0  0  0  0  0  0  0
   26.0135  -20.8519  -15.9741 C   0  0  0  0  0  0  0  0  0  0  0  0
   27.0090  -20.1335  -16.7718 C   0  0  0  0  0  0  0  0  0  0  0  0
   28.3377  -20.6097  -16.7704 N   0  0  0  0  0  0  0  0  0  0  0  0
   21.8310  -21.0239  -13.3151 C   0  0  0  0  0  0  0  0  0  0  0  0
   20.7405  -20.3463  -13.8013 O   0  0  0  0  0  0  0  0  0  0  0  0
   21.6033  -22.0223  -12.5881 O   0  0  0  0  0  0  0  0  0  0  0  0
  1  2  1  0
  2  3  1  0
  4  3  1  0
  5  4  1  0
  5  6  1  1
  7  8  2  0
  7  5  1  0
  9  7  1  0
 10  9  1  0
 10 11  1  1
 12 11  1  0
 13 15  1  0
 13 10  1  0
 14 13  2  0
 16 15  1  0
 16 22  1  0
 16 17  1  6
 17 18  1  0
 19 18  1  0
 20 19  1  0
 20 21  1  0
 22 23  1  0
 24 22  2  0
M  END
$$$$
