CMK.pdb
     RDKit          3D

 24 23  0  0  1  0  0  0  0  0999 V2000
    7.7904  -17.4253   20.0033 N   0  0  0  0  0  0  0  0  0  0  0  0
    7.0973  -17.5126   21.2484 C   0  0  1  0  0  0  0  0  0  0  0  0
    6.9622  -18.9455   21.7390 C   0  0  0  0  0  0  0  0  0  0  0  0
    5.6163  -19.7931   20.8712 S   0  0  0  0  0  0  0  0  0  0  0  0
    7.7418  -16.7452   22.3356 C   0  0  0  0  0  0  0  0  0  0  0  0
    9.0139  -16.7390   22.3347 O   0  0  0  0  0  0  0  0  0  0  0  0
    7.5258  -11.0984   27.7582 C   0  0  0  0  0  0  0  0  0  0  0  0
    6.5372  -12.1027   26.5968 S   0  0  0  0  0  0  0  0  0  0  0  0
    7.6167  -13.4448   26.0024 C   0  0  0  0  0  0  0  0  0  0  0  0
    6.8282  -14.2198   24.9569 C   0  0  0  0  0  0  0  0  0  0  0  0
    7.6989  -15.2510   24.2779 C   0  0  2  0  0  0  0  0  0  0  0  0
    7.0019  -16.0524   23.3271 N   0  0  0  0  0  0  0  0  0  0  0  0
    8.1788  -16.1606   25.3793 C   0  0  0  0  0  0  0  0  0  0  0  0
    7.3671  -16.9702   25.9458 O   0  0  0  0  0  0  0  0  0  0  0  0
    9.4989  -16.1622   25.8221 N   0  0  0  0  0  0  0  0  0  0  0  0
    9.9184  -17.2332   26.8223 C   0  0  1  0  0  0  0  0  0  0  0  0
   11.2071  -17.6765   26.2345 C   0  0  0  0  0  0  0  0  0  0  0  0
   11.4693  -19.0890   26.0617 C   0  0  0  0  0  0  0  0  0  0  0  0
   12.7375  -19.4730   25.4005 C   0  0  0  0  0  0  0  0  0  0  0  0
   12.7278  -21.0159   25.1628 C   0  0  0  0  0  0  0  0  0  0  0  0
   13.8519  -21.3724   24.3491 N   0  0  0  0  0  0  0  0  0  0  0  0
    9.9747  -16.4631   28.0835 C   0  0  0  0  0  0  0  0  0  0  0  0
   10.0726  -17.1295   29.1828 O   0  0  0  0  0  0  0  0  0  0  0  0
    9.9445  -15.1091   28.2724 O   0  0  0  0  0  0  0  0  0  0  0  0
  2  1  1  6
  2  3  1  0
  3  4  1  0
  5  2  1  0
  5  6  2  0
  7  8  1  0
  8  9  1  0
  9 10  1  0
 11 10  1  1
 11 12  1  0
 11 13  1  0
 12  5  1  0
 13 15  1  0
 13 14  2  0
 15 16  1  0
 16 22  1  0
 16 17  1  6
 18 17  1  0
 18 19  1  0
 19 20  1  0
 21 20  1  0
 22 23  2  0
 22 24  1  0
M  END
$$$$
