CMK.pdb
     RDKit          3D

 24 23  0  0  1  0  0  0  0  0999 V2000
    8.5724  -16.7393   19.7845 N   0  0  0  0  0  0  0  0  0  0  0  0
    7.6650  -16.1953   20.7429 C   0  0  1  0  0  0  0  0  0  0  0  0
    6.6618  -17.2233   21.2421 C   0  0  0  0  0  0  0  0  0  0  0  0
    7.5121  -18.7090   21.8358 S   0  0  0  0  0  0  0  0  0  0  0  0
    8.3352  -15.6348   21.9357 C   0  0  0  0  0  0  0  0  0  0  0  0
    9.6072  -15.6409   21.9144 O   0  0  0  0  0  0  0  0  0  0  0  0
    5.4982  -12.1917   26.5866 C   0  0  0  0  0  0  0  0  0  0  0  0
    7.1883  -11.5077   26.6896 S   0  0  0  0  0  0  0  0  0  0  0  0
    8.2979  -12.7093   25.8867 C   0  0  0  0  0  0  0  0  0  0  0  0
    7.4703  -13.4558   24.8507 C   0  0  0  0  0  0  0  0  0  0  0  0
    8.3296  -14.4163   24.0623 C   0  0  2  0  0  0  0  0  0  0  0  0
    7.6191  -15.1177   23.0448 N   0  0  0  0  0  0  0  0  0  0  0  0
    8.8190  -15.4320   25.0621 C   0  0  0  0  0  0  0  0  0  0  0  0
    9.4777  -15.0569   26.0920 O   0  0  0  0  0  0  0  0  0  0  0  0
    8.5826  -16.7963   24.9147 N   0  0  0  0  0  0  0  0  0  0  0  0
    9.2203  -17.7473   25.9207 C   0  0  1  0  0  0  0  0  0  0  0  0
    9.4618  -18.9375   25.0675 C   0  0  0  0  0  0  0  0  0  0  0  0
    9.6533  -20.2339   25.6810 C   0  0  0  0  0  0  0  0  0  0  0  0
    9.9637  -21.3737   24.7880 C   0  0  0  0  0  0  0  0  0  0  0  0
   10.1080  -22.6624   25.6573 C   0  0  0  0  0  0  0  0  0  0  0  0
   10.3865  -23.7771   24.8013 N   0  0  0  0  0  0  0  0  0  0  0  0
   10.4017  -16.9741   26.3603 C   0  0  0  0  0  0  0  0  0  0  0  0
   10.4876  -16.6808   27.6129 O   0  0  0  0  0  0  0  0  0  0  0  0
   11.4561  -16.5112   25.6227 O   0  0  0  0  0  0  0  0  0  0  0  0
  2  1  1  6
  2  3  1  0
  3  4  1  0
  5  2  1  0
  5  6  2  0
  7  8  1  0
  8  9  1  0
  9 10  1  0
 11 10  1  1
 11 12  1  0
 11 13  1  0
 12  5  1  0
 13 15  1  0
 13 14  2  0
 15 16  1  0
 16 22  1  0
 16 17  1  6
 18 17  1  0
 18 19  1  0
 19 20  1  0
 21 20  1  0
 22 23  2  0
 22 24  1  0
M  END
$$$$
