CMK.pdb
     RDKit          3D

 24 23  0  0  1  0  0  0  0  0999 V2000
    8.0756  -12.9846   19.3159 N   0  0  0  0  0  0  0  0  0  0  0  0
    7.5160  -13.9815   20.1710 C   0  0  1  0  0  0  0  0  0  0  0  0
    7.5629  -15.3701   19.5529 C   0  0  0  0  0  0  0  0  0  0  0  0
    6.8552  -16.5963   20.6835 S   0  0  0  0  0  0  0  0  0  0  0  0
    8.1871  -14.0735   21.4853 C   0  0  0  0  0  0  0  0  0  0  0  0
    9.4573  -14.0049   21.4682 O   0  0  0  0  0  0  0  0  0  0  0  0
    5.4694  -11.6956   27.2165 C   0  0  0  0  0  0  0  0  0  0  0  0
    7.1963  -11.4743   26.6656 S   0  0  0  0  0  0  0  0  0  0  0  0
    7.3025  -12.1345   24.9707 C   0  0  0  0  0  0  0  0  0  0  0  0
    7.4120  -13.6476   25.0890 C   0  0  0  0  0  0  0  0  0  0  0  0
    8.1927  -14.2252   23.9315 C   0  0  2  0  0  0  0  0  0  0  0  0
    7.4736  -14.2287   22.7007 N   0  0  0  0  0  0  0  0  0  0  0  0
    8.4661  -15.6589   24.3062 C   0  0  0  0  0  0  0  0  0  0  0  0
    7.5089  -16.5054   24.3570 O   0  0  0  0  0  0  0  0  0  0  0  0
    9.7451  -16.1192   24.6080 N   0  0  0  0  0  0  0  0  0  0  0  0
    9.9149  -17.5960   24.9447 C   0  0  1  0  0  0  0  0  0  0  0  0
   11.0993  -17.9378   24.1182 C   0  0  0  0  0  0  0  0  0  0  0  0
   10.9620  -18.0613   22.6831 C   0  0  0  0  0  0  0  0  0  0  0  0
   12.1711  -18.4254   21.9095 C   0  0  0  0  0  0  0  0  0  0  0  0
   11.8364  -18.3286   20.3877 C   0  0  0  0  0  0  0  0  0  0  0  0
   13.0224  -18.5931   19.6286 N   0  0  0  0  0  0  0  0  0  0  0  0
   10.0980  -17.5522   26.4115 C   0  0  0  0  0  0  0  0  0  0  0  0
   10.0983  -18.6756   27.0442 O   0  0  0  0  0  0  0  0  0  0  0  0
   10.2796  -16.4709   27.2287 O   0  0  0  0  0  0  0  0  0  0  0  0
  2  1  1  6
  2  3  1  0
  3  4  1  0
  5  2  1  0
  5  6  2  0
  7  8  1  0
  8  9  1  0
  9 10  1  0
 11 10  1  1
 11 12  1  0
 11 13  1  0
 12  5  1  0
 13 15  1  0
 13 14  2  0
 15 16  1  0
 16 22  1  0
 16 17  1  6
 18 17  1  0
 18 19  1  0
 19 20  1  0
 21 20  1  0
 22 23  2  0
 22 24  1  0
M  END
$$$$
