CMK.pdb
     RDKit          3D

 24 23  0  0  1  0  0  0  0  0999 V2000
    8.5443  -15.5950   19.2033 N   0  0  0  0  0  0  0  0  0  0  0  0
    7.7642  -15.9619   20.3413 C   0  0  1  0  0  0  0  0  0  0  0  0
    7.5550  -17.4647   20.4422 C   0  0  0  0  0  0  0  0  0  0  0  0
    6.4908  -17.8677   21.8522 S   0  0  0  0  0  0  0  0  0  0  0  0
    8.3530  -15.5229   21.6245 C   0  0  0  0  0  0  0  0  0  0  0  0
    9.5857  -15.7891   21.7918 O   0  0  0  0  0  0  0  0  0  0  0  0
    5.5258  -12.4690   26.8567 C   0  0  0  0  0  0  0  0  0  0  0  0
    7.2036  -11.7613   26.7195 S   0  0  0  0  0  0  0  0  0  0  0  0
    8.2330  -12.9961   25.8620 C   0  0  0  0  0  0  0  0  0  0  0  0
    7.4426  -13.4706   24.6514 C   0  0  0  0  0  0  0  0  0  0  0  0
    8.2568  -14.4315   23.8169 C   0  0  2  0  0  0  0  0  0  0  0  0
    7.6036  -14.8453   22.6193 N   0  0  0  0  0  0  0  0  0  0  0  0
    8.4473  -15.6521   24.6798 C   0  0  0  0  0  0  0  0  0  0  0  0
    7.5838  -16.5951   24.6617 O   0  0  0  0  0  0  0  0  0  0  0  0
    9.5478  -15.8070   25.5187 N   0  0  0  0  0  0  0  0  0  0  0  0
    9.8973  -17.2136   25.9906 C   0  0  1  0  0  0  0  0  0  0  0  0
   10.8639  -17.6286   24.9437 C   0  0  0  0  0  0  0  0  0  0  0  0
   11.5094  -18.9205   25.0339 C   0  0  0  0  0  0  0  0  0  0  0  0
   12.4075  -19.3150   23.9245 C   0  0  0  0  0  0  0  0  0  0  0  0
   12.9203  -20.7653   24.1907 C   0  0  0  0  0  0  0  0  0  0  0  0
   13.6535  -21.2210   23.0471 N   0  0  0  0  0  0  0  0  0  0  0  0
   10.4308  -16.9538   27.3452 C   0  0  0  0  0  0  0  0  0  0  0  0
   10.8528  -15.7624   27.5993 O   0  0  0  0  0  0  0  0  0  0  0  0
   10.5446  -17.8064   28.4083 O   0  0  0  0  0  0  0  0  0  0  0  0
  2  1  1  6
  2  3  1  0
  3  4  1  0
  5  2  1  0
  5  6  2  0
  7  8  1  0
  8  9  1  0
  9 10  1  0
 11 10  1  1
 11 12  1  0
 11 13  1  0
 12  5  1  0
 13 15  1  0
 13 14  2  0
 15 16  1  0
 16 22  1  0
 16 17  1  6
 18 17  1  0
 18 19  1  0
 19 20  1  0
 21 20  1  0
 22 23  2  0
 22 24  1  0
M  END
$$$$
