CMK.pdb
     RDKit          3D

 24 23  0  0  1  0  0  0  0  0999 V2000
    8.9363  -15.9533   19.3651 N   0  0  0  0  0  0  0  0  0  0  0  0
    7.9181  -16.1203   20.3518 C   0  0  1  0  0  0  0  0  0  0  0  0
    7.4517  -17.5630   20.4670 C   0  0  0  0  0  0  0  0  0  0  0  0
    6.6068  -18.0837   18.9511 S   0  0  0  0  0  0  0  0  0  0  0  0
    8.3346  -15.6941   21.7050 C   0  0  0  0  0  0  0  0  0  0  0  0
    9.5583  -15.8835   21.9967 O   0  0  0  0  0  0  0  0  0  0  0  0
    7.0033  -11.7478   28.3810 C   0  0  0  0  0  0  0  0  0  0  0  0
    6.2643  -12.3563   26.8259 S   0  0  0  0  0  0  0  0  0  0  0  0
    7.5307  -13.3704   25.9966 C   0  0  0  0  0  0  0  0  0  0  0  0
    6.9409  -13.8190   24.6676 C   0  0  0  0  0  0  0  0  0  0  0  0
    7.9440  -14.6247   23.8754 C   0  0  2  0  0  0  0  0  0  0  0  0
    7.4376  -15.1083   22.6338 N   0  0  0  0  0  0  0  0  0  0  0  0
    8.2683  -15.8197   24.7342 C   0  0  0  0  0  0  0  0  0  0  0  0
    7.3878  -16.7242   24.9389 O   0  0  0  0  0  0  0  0  0  0  0  0
    9.5142  -15.9915   25.3319 N   0  0  0  0  0  0  0  0  0  0  0  0
    9.7665  -17.2800   26.1060 C   0  0  1  0  0  0  0  0  0  0  0  0
   10.8368  -17.8966   25.2831 C   0  0  0  0  0  0  0  0  0  0  0  0
   11.1377  -19.3039   25.4338 C   0  0  0  0  0  0  0  0  0  0  0  0
   12.2389  -19.8591   24.6140 C   0  0  0  0  0  0  0  0  0  0  0  0
   12.5044  -21.3293   25.0671 C   0  0  0  0  0  0  0  0  0  0  0  0
   13.5900  -21.8672   24.3023 N   0  0  0  0  0  0  0  0  0  0  0  0
   10.1453  -16.7626   27.4385 C   0  0  0  0  0  0  0  0  0  0  0  0
   10.3700  -15.4973   27.5429 O   0  0  0  0  0  0  0  0  0  0  0  0
   10.2936  -17.4376   28.6185 O   0  0  0  0  0  0  0  0  0  0  0  0
  2  1  1  6
  2  3  1  0
  3  4  1  0
  5  2  1  0
  5  6  2  0
  7  8  1  0
  8  9  1  0
  9 10  1  0
 11 10  1  1
 11 12  1  0
 11 13  1  0
 12  5  1  0
 13 15  1  0
 13 14  2  0
 15 16  1  0
 16 22  1  0
 16 17  1  6
 18 17  1  0
 18 19  1  0
 19 20  1  0
 21 20  1  0
 22 23  2  0
 22 24  1  0
M  END
$$$$
