CMK.pdb
     RDKit          3D

 24 23  0  0  1  0  0  0  0  0999 V2000
    8.7677  -15.0711   19.1198 N   0  0  0  0  0  0  0  0  0  0  0  0
    7.8692  -15.4765   20.1526 C   0  0  1  0  0  0  0  0  0  0  0  0
    7.5681  -16.9664   20.1090 C   0  0  0  0  0  0  0  0  0  0  0  0
    6.4546  -17.3525   18.7328 S   0  0  0  0  0  0  0  0  0  0  0  0
    8.3640  -15.1778   21.5136 C   0  0  0  0  0  0  0  0  0  0  0  0
    9.6005  -15.3971   21.7174 O   0  0  0  0  0  0  0  0  0  0  0  0
    6.8676  -10.6542   26.5711 C   0  0  0  0  0  0  0  0  0  0  0  0
    6.6421  -12.3955   27.0729 S   0  0  0  0  0  0  0  0  0  0  0  0
    7.8119  -13.3879   26.0899 C   0  0  0  0  0  0  0  0  0  0  0  0
    7.1616  -13.6294   24.7355 C   0  0  0  0  0  0  0  0  0  0  0  0
    8.0891  -14.3926   23.8190 C   0  0  2  0  0  0  0  0  0  0  0  0
    7.5251  -14.6770   22.5410 N   0  0  0  0  0  0  0  0  0  0  0  0
    8.3448  -15.7075   24.5093 C   0  0  0  0  0  0  0  0  0  0  0  0
    7.4312  -16.6012   24.5523 O   0  0  0  0  0  0  0  0  0  0  0  0
    9.5608  -16.0044   25.1195 N   0  0  0  0  0  0  0  0  0  0  0  0
    9.7643  -17.4132   25.6646 C   0  0  1  0  0  0  0  0  0  0  0  0
   10.8838  -17.8849   24.8119 C   0  0  0  0  0  0  0  0  0  0  0  0
   11.5638  -19.1198   25.1379 C   0  0  0  0  0  0  0  0  0  0  0  0
   12.6938  -19.5273   24.2718 C   0  0  0  0  0  0  0  0  0  0  0  0
   13.2843  -20.8643   24.8202 C   0  0  0  0  0  0  0  0  0  0  0  0
   13.9180  -21.5721   23.7476 N   0  0  0  0  0  0  0  0  0  0  0  0
   10.0592  -17.1463   27.0889 C   0  0  0  0  0  0  0  0  0  0  0  0
   10.3321  -18.1586   27.8392 O   0  0  0  0  0  0  0  0  0  0  0  0
   10.0953  -15.9530   27.7559 O   0  0  0  0  0  0  0  0  0  0  0  0
  2  1  1  6
  2  3  1  0
  3  4  1  0
  5  2  1  0
  5  6  2  0
  7  8  1  0
  8  9  1  0
  9 10  1  0
 11 10  1  1
 11 12  1  0
 11 13  1  0
 12  5  1  0
 13 15  1  0
 13 14  2  0
 15 16  1  0
 16 22  1  0
 16 17  1  6
 18 17  1  0
 18 19  1  0
 19 20  1  0
 21 20  1  0
 22 23  2  0
 22 24  1  0
M  END
$$$$
