CMK.pdb
     RDKit          3D

 24 23  0  0  1  0  0  0  0  0999 V2000
    8.1482  -16.8644   19.0336 N   0  0  0  0  0  0  0  0  0  0  0  0
    7.3634  -16.7849   20.2236 C   0  0  1  0  0  0  0  0  0  0  0  0
    7.0401  -18.1548   20.7991 C   0  0  0  0  0  0  0  0  0  0  0  0
    8.5592  -19.0954   21.1000 S   0  0  0  0  0  0  0  0  0  0  0  0
    8.0085  -16.0069   21.3029 C   0  0  0  0  0  0  0  0  0  0  0  0
    9.1967  -15.6146   21.0732 O   0  0  0  0  0  0  0  0  0  0  0  0
    7.4328  -11.4410   27.6527 C   0  0  0  0  0  0  0  0  0  0  0  0
    6.5844  -12.6942   26.6307 S   0  0  0  0  0  0  0  0  0  0  0  0
    7.7983  -13.2985   25.4138 C   0  0  0  0  0  0  0  0  0  0  0  0
    7.0594  -14.2483   24.4826 C   0  0  0  0  0  0  0  0  0  0  0  0
    7.9991  -14.8422   23.4594 C   0  0  2  0  0  0  0  0  0  0  0  0
    7.3568  -15.7073   22.5260 N   0  0  0  0  0  0  0  0  0  0  0  0
    8.9822  -15.6684   24.2478 C   0  0  0  0  0  0  0  0  0  0  0  0
    8.8496  -16.9386   24.3137 O   0  0  0  0  0  0  0  0  0  0  0  0
   10.0572  -15.1004   24.9266 N   0  0  0  0  0  0  0  0  0  0  0  0
   11.1702  -16.0240   25.4077 C   0  0  1  0  0  0  0  0  0  0  0  0
   10.3805  -17.1029   26.0520 C   0  0  0  0  0  0  0  0  0  0  0  0
   11.0340  -18.3307   26.4509 C   0  0  0  0  0  0  0  0  0  0  0  0
   10.1948  -19.3817   27.0707 C   0  0  0  0  0  0  0  0  0  0  0  0
   11.1096  -20.5866   27.4558 C   0  0  0  0  0  0  0  0  0  0  0  0
   10.3201  -21.5824   28.1177 N   0  0  0  0  0  0  0  0  0  0  0  0
   11.8611  -16.3495   24.1414 C   0  0  0  0  0  0  0  0  0  0  0  0
   11.1376  -16.7706   23.1609 O   0  0  0  0  0  0  0  0  0  0  0  0
   13.1912  -16.2651   23.8351 O   0  0  0  0  0  0  0  0  0  0  0  0
  2  1  1  6
  2  3  1  0
  3  4  1  0
  5  2  1  0
  5  6  2  0
  7  8  1  0
  8  9  1  0
  9 10  1  0
 11 10  1  1
 11 12  1  0
 11 13  1  0
 12  5  1  0
 13 15  1  0
 13 14  2  0
 15 16  1  0
 16 22  1  0
 16 17  1  6
 18 17  1  0
 18 19  1  0
 19 20  1  0
 21 20  1  0
 22 23  2  0
 22 24  1  0
M  END
$$$$
