CMK.pdb
     RDKit          3D

 24 23  0  0  1  0  0  0  0  0999 V2000
    6.3703  -17.9759   22.2258 N   0  0  0  0  0  0  0  0  0  0  0  0
    6.9454  -16.9991   21.3579 C   0  0  1  0  0  0  0  0  0  0  0  0
    5.8987  -16.2669   20.5327 C   0  0  0  0  0  0  0  0  0  0  0  0
    4.2300  -16.7781   21.0194 S   0  0  0  0  0  0  0  0  0  0  0  0
    7.7293  -15.9676   22.0703 C   0  0  0  0  0  0  0  0  0  0  0  0
    8.4052  -15.1769   21.3380 O   0  0  0  0  0  0  0  0  0  0  0  0
    7.2543  -11.5539   27.1379 C   0  0  0  0  0  0  0  0  0  0  0  0
    5.9708  -12.6740   26.4799 S   0  0  0  0  0  0  0  0  0  0  0  0
    6.6280  -13.3882   24.9380 C   0  0  0  0  0  0  0  0  0  0  0  0
    7.8472  -14.2167   25.3158 C   0  0  0  0  0  0  0  0  0  0  0  0
    8.4992  -14.8098   24.0887 C   0  0  2  0  0  0  0  0  0  0  0  0
    7.7386  -15.8526   23.4835 N   0  0  0  0  0  0  0  0  0  0  0  0
    9.7948  -15.4090   24.5713 C   0  0  0  0  0  0  0  0  0  0  0  0
   10.6355  -14.6927   25.2160 O   0  0  0  0  0  0  0  0  0  0  0  0
   10.1303  -16.7411   24.3431 N   0  0  0  0  0  0  0  0  0  0  0  0
   11.4344  -17.2635   24.9343 C   0  0  1  0  0  0  0  0  0  0  0  0
   10.9341  -18.3802   25.7742 C   0  0  0  0  0  0  0  0  0  0  0  0
   11.0726  -18.3145   27.2131 C   0  0  0  0  0  0  0  0  0  0  0  0
   11.1379  -19.5956   27.9529 C   0  0  0  0  0  0  0  0  0  0  0  0
   11.1662  -19.2863   29.4828 C   0  0  0  0  0  0  0  0  0  0  0  0
   11.1400  -20.5197   30.2115 N   0  0  0  0  0  0  0  0  0  0  0  0
   12.1977  -17.6159   23.7178 C   0  0  0  0  0  0  0  0  0  0  0  0
   11.5262  -17.8605   22.6448 O   0  0  0  0  0  0  0  0  0  0  0  0
   13.5503  -17.7203   23.5452 O   0  0  0  0  0  0  0  0  0  0  0  0
  2  1  1  1
  2  3  1  0
  3  4  1  0
  5  2  1  0
  5  6  2  0
  7  8  1  0
  8  9  1  0
  9 10  1  0
 11 10  1  1
 11 12  1  0
 11 13  1  0
 12  5  1  0
 13 15  1  0
 13 14  2  0
 15 16  1  0
 16 22  1  0
 16 17  1  1
 18 17  1  0
 18 19  1  0
 19 20  1  0
 21 20  1  0
 22 23  2  0
 22 24  1  0
M  END
$$$$
