CMK.pdb
     RDKit          3D

 24 23  0  0  1  0  0  0  0  0999 V2000
    8.1612  -14.9768   19.1271 N   0  0  0  0  0  0  0  0  0  0  0  0
    7.2690  -15.1549   20.2274 C   0  0  1  0  0  0  0  0  0  0  0  0
    6.7947  -16.5932   20.3639 C   0  0  0  0  0  0  0  0  0  0  0  0
    8.2064  -17.7266   20.4381 S   0  0  0  0  0  0  0  0  0  0  0  0
    7.8559  -14.7708   21.5290 C   0  0  0  0  0  0  0  0  0  0  0  0
    9.1267  -14.7714   21.5890 O   0  0  0  0  0  0  0  0  0  0  0  0
    6.3311  -10.6779   26.9357 C   0  0  0  0  0  0  0  0  0  0  0  0
    6.3726  -12.4538   27.3591 S   0  0  0  0  0  0  0  0  0  0  0  0
    7.5527  -13.2449   26.2183 C   0  0  0  0  0  0  0  0  0  0  0  0
    6.7899  -13.5654   24.9412 C   0  0  0  0  0  0  0  0  0  0  0  0
    7.7081  -14.1562   23.8970 C   0  0  2  0  0  0  0  0  0  0  0  0
    7.0651  -14.4201   22.6524 N   0  0  0  0  0  0  0  0  0  0  0  0
    8.1665  -15.4749   24.4641 C   0  0  0  0  0  0  0  0  0  0  0  0
    7.3953  -16.4944   24.4292 O   0  0  0  0  0  0  0  0  0  0  0  0
    9.4233  -15.6417   25.0400 N   0  0  0  0  0  0  0  0  0  0  0  0
    9.8361  -17.0456   25.4663 C   0  0  1  0  0  0  0  0  0  0  0  0
   11.0214  -17.2646   24.6004 C   0  0  0  0  0  0  0  0  0  0  0  0
   11.8645  -18.4206   24.8162 C   0  0  0  0  0  0  0  0  0  0  0  0
   13.0041  -18.6178   23.8913 C   0  0  0  0  0  0  0  0  0  0  0  0
   13.7195  -19.9553   24.2608 C   0  0  0  0  0  0  0  0  0  0  0  0
   14.7528  -20.2149   23.3027 N   0  0  0  0  0  0  0  0  0  0  0  0
   10.0752  -16.8635   26.9143 C   0  0  0  0  0  0  0  0  0  0  0  0
   10.0754  -17.9193   27.6541 O   0  0  0  0  0  0  0  0  0  0  0  0
   10.3105  -15.7124   27.6141 O   0  0  0  0  0  0  0  0  0  0  0  0
  2  1  1  6
  2  3  1  0
  3  4  1  0
  5  2  1  0
  5  6  2  0
  7  8  1  0
  8  9  1  0
  9 10  1  0
 11 10  1  1
 11 12  1  0
 11 13  1  0
 12  5  1  0
 13 15  1  0
 13 14  2  0
 15 16  1  0
 16 22  1  0
 16 17  1  6
 18 17  1  0
 18 19  1  0
 19 20  1  0
 21 20  1  0
 22 23  2  0
 22 24  1  0
M  END
$$$$
