NQM.pdb
     RDKit          3D

 26 25  0  0  1  0  0  0  0  0999 V2000
   11.1682  -18.2376   18.9857 N   0  0  0  0  0  0  0  0  0  0  0  0
    9.8795  -18.1314   18.3720 C   0  0  0  0  0  0  0  0  0  0  0  0
    9.6918  -18.5223   17.2090 O   0  0  0  0  0  0  0  0  0  0  0  0
    8.7842  -17.5404   19.1731 C   0  0  0  0  0  0  0  0  0  0  0  0
    8.0394  -18.6682   19.8513 C   0  0  2  0  0  0  0  0  0  0  0  0
    7.0347  -19.1405   18.9479 N   0  0  0  0  0  0  0  0  0  0  0  0
    7.4761  -18.2206   21.1504 C   0  0  0  0  0  0  0  0  0  0  0  0
    6.4568  -17.4860   21.1199 O   0  0  0  0  0  0  0  0  0  0  0  0
    6.4560  -20.6260   27.8673 N   0  0  0  0  0  0  0  0  0  0  0  0
    7.3853  -20.3198   26.8366 C   0  0  0  0  0  0  0  0  0  0  0  0
    8.4102  -21.0085   26.6377 O   0  0  0  0  0  0  0  0  0  0  0  0
    7.1239  -19.1453   25.9759 C   0  0  0  0  0  0  0  0  0  0  0  0
    7.5129  -19.3328   24.5612 C   0  0  0  0  0  0  0  0  0  0  0  0
    7.3772  -18.1763   23.6388 C   0  0  2  0  0  0  0  0  0  0  0  0
    8.0586  -18.6020   22.3814 N   0  0  0  0  0  0  0  0  0  0  0  0
    8.0494  -16.9391   24.0250 C   0  0  0  0  0  0  0  0  0  0  0  0
    9.2732  -16.6812   23.7435 O   0  0  0  0  0  0  0  0  0  0  0  0
    5.5616  -11.8966   28.2371 C   0  0  0  0  0  0  0  0  0  0  0  0
    6.3337  -11.3036   26.7142 S   0  0  0  0  0  0  0  0  0  0  0  0
    7.6267  -12.4853   26.2033 C   0  0  0  0  0  0  0  0  0  0  0  0
    7.0417  -13.6644   25.5017 C   0  0  0  0  0  0  0  0  0  0  0  0
    8.0636  -14.6951   25.1195 C   0  0  2  0  0  0  0  0  0  0  0  0
    7.3767  -15.9350   24.7410 N   0  0  0  0  0  0  0  0  0  0  0  0
    8.9127  -14.9914   26.2916 C   0  0  0  0  0  0  0  0  0  0  0  0
    8.7911  -16.0328   27.0121 O   0  0  0  0  0  0  0  0  0  0  0  0
    9.9314  -14.1021   26.6773 O   0  0  0  0  0  0  0  0  0  0  0  0
  2  3  2  0
  2  1  1  0
  4  2  1  0
  5  4  1  0
  5  7  1  0
  5  6  1  6
  7  8  2  0
  9 10  1  0
 10 12  1  0
 11 10  2  0
 13 12  1  0
 14 13  1  1
 15 14  1  0
 15  7  1  0
 16 14  1  0
 16 17  2  0
 18 19  1  0
 19 20  1  0
 20 21  1  0
 22 21  1  1
 22 23  1  0
 22 24  1  0
 23 16  1  0
 24 26  1  0
 25 24  2  0
M  END
$$$$
