NQM.pdb
     RDKit          3D

 26 25  0  0  1  0  0  0  0  0999 V2000
    8.1890  -12.1668   17.4157 N   0  0  0  0  0  0  0  0  0  0  0  0
    8.0348  -13.5888   17.3648 C   0  0  0  0  0  0  0  0  0  0  0  0
    8.3643  -14.2311   16.3550 O   0  0  0  0  0  0  0  0  0  0  0  0
    7.4703  -14.2613   18.5562 C   0  0  0  0  0  0  0  0  0  0  0  0
    8.5919  -14.4766   19.5474 C   0  0  2  0  0  0  0  0  0  0  0  0
    9.5995  -15.2680   18.9094 N   0  0  0  0  0  0  0  0  0  0  0  0
    8.0797  -15.0993   20.7946 C   0  0  0  0  0  0  0  0  0  0  0  0
    7.0797  -14.5690   21.3408 O   0  0  0  0  0  0  0  0  0  0  0  0
    8.0935  -21.0370   22.0550 N   0  0  0  0  0  0  0  0  0  0  0  0
    9.2218  -20.3451   21.5372 C   0  0  0  0  0  0  0  0  0  0  0  0
   10.1780  -20.9420   20.9954 O   0  0  0  0  0  0  0  0  0  0  0  0
    9.2580  -18.8704   21.6478 C   0  0  0  0  0  0  0  0  0  0  0  0
    8.1195  -18.2909   22.3934 C   0  0  0  0  0  0  0  0  0  0  0  0
    8.0915  -16.8196   22.5957 C   0  0  2  0  0  0  0  0  0  0  0  0
    8.6885  -16.2466   21.3540 N   0  0  0  0  0  0  0  0  0  0  0  0
    8.9082  -16.2849   23.6815 C   0  0  0  0  0  0  0  0  0  0  0  0
   10.1803  -16.1448   23.6069 O   0  0  0  0  0  0  0  0  0  0  0  0
    5.8382  -12.0669   26.7042 C   0  0  0  0  0  0  0  0  0  0  0  0
    7.2417  -12.1469   25.5680 S   0  0  0  0  0  0  0  0  0  0  0  0
    8.6525  -12.9308   26.4192 C   0  0  0  0  0  0  0  0  0  0  0  0
    8.3579  -14.3504   26.7696 C   0  0  0  0  0  0  0  0  0  0  0  0
    9.1646  -15.3372   25.9771 C   0  0  2  0  0  0  0  0  0  0  0  0
    8.3328  -15.8803   24.8974 N   0  0  0  0  0  0  0  0  0  0  0  0
    9.5517  -16.4606   26.8549 C   0  0  0  0  0  0  0  0  0  0  0  0
    9.0698  -17.6343   26.7613 O   0  0  0  0  0  0  0  0  0  0  0  0
   10.5061  -16.2756   27.8710 O   0  0  0  0  0  0  0  0  0  0  0  0
  2  3  2  0
  2  1  1  0
  4  2  1  0
  5  4  1  0
  5  7  1  0
  5  6  1  6
  7  8  2  0
  9 10  1  0
 10 12  1  0
 11 10  2  0
 13 12  1  0
 14 13  1  6
 15 14  1  0
 15  7  1  0
 16 14  1  0
 16 17  2  0
 18 19  1  0
 19 20  1  0
 20 21  1  0
 22 21  1  1
 22 23  1  0
 22 24  1  0
 23 16  1  0
 24 26  1  0
 25 24  2  0
M  END
$$$$
