NQM.pdb
     RDKit          3D

 26 25  0  0  1  0  0  0  0  0999 V2000
    7.4314  -17.2867   16.1528 N   0  0  0  0  0  0  0  0  0  0  0  0
    7.6383  -18.3590   17.0780 C   0  0  0  0  0  0  0  0  0  0  0  0
    8.3474  -19.3328   16.7787 O   0  0  0  0  0  0  0  0  0  0  0  0
    6.9778  -18.2631   18.3989 C   0  0  0  0  0  0  0  0  0  0  0  0
    7.9773  -17.6959   19.3818 C   0  0  2  0  0  0  0  0  0  0  0  0
    9.1152  -18.5638   19.4053 N   0  0  0  0  0  0  0  0  0  0  0  0
    7.3595  -17.5261   20.7216 C   0  0  0  0  0  0  0  0  0  0  0  0
    6.3874  -16.7354   20.8175 O   0  0  0  0  0  0  0  0  0  0  0  0
    7.8688  -21.6190   25.2624 N   0  0  0  0  0  0  0  0  0  0  0  0
    7.2651  -20.5762   26.0160 C   0  0  0  0  0  0  0  0  0  0  0  0
    6.9530  -20.7185   27.2188 O   0  0  0  0  0  0  0  0  0  0  0  0
    7.0003  -19.2836   25.3472 C   0  0  0  0  0  0  0  0  0  0  0  0
    7.3053  -19.2770   23.8999 C   0  0  0  0  0  0  0  0  0  0  0  0
    7.1535  -17.9988   23.1584 C   0  0  2  0  0  0  0  0  0  0  0  0
    7.8409  -18.2242   21.8534 N   0  0  0  0  0  0  0  0  0  0  0  0
    7.8080  -16.8230   23.7248 C   0  0  0  0  0  0  0  0  0  0  0  0
    9.0431  -16.5388   23.5312 O   0  0  0  0  0  0  0  0  0  0  0  0
    6.8507  -10.3275   28.1754 C   0  0  0  0  0  0  0  0  0  0  0  0
    6.0585  -11.6655   27.2539 S   0  0  0  0  0  0  0  0  0  0  0  0
    7.3481  -12.7287   26.5218 C   0  0  0  0  0  0  0  0  0  0  0  0
    6.7517  -13.8408   25.7265 C   0  0  0  0  0  0  0  0  0  0  0  0
    7.7778  -14.7406   25.1020 C   0  0  2  0  0  0  0  0  0  0  0  0
    7.1046  -15.9123   24.5304 N   0  0  0  0  0  0  0  0  0  0  0  0
    8.7020  -15.2201   26.1501 C   0  0  0  0  0  0  0  0  0  0  0  0
    8.5526  -16.3132   26.7835 O   0  0  0  0  0  0  0  0  0  0  0  0
    9.8305  -14.4609   26.5073 O   0  0  0  0  0  0  0  0  0  0  0  0
  2  3  2  0
  2  1  1  0
  4  2  1  0
  5  4  1  0
  5  7  1  0
  5  6  1  1
  7  8  2  0
  9 10  1  0
 10 12  1  0
 11 10  2  0
 13 12  1  0
 14 13  1  1
 15 14  1  0
 15  7  1  0
 16 14  1  0
 16 17  2  0
 18 19  1  0
 19 20  1  0
 20 21  1  0
 22 21  1  1
 22 23  1  0
 22 24  1  0
 23 16  1  0
 24 26  1  0
 25 24  2  0
M  END
$$$$
