NQM.pdb
     RDKit          3D

 26 25  0  0  1  0  0  0  0  0999 V2000
   15.3093  -20.0478   19.8912 N   0  0  0  0  0  0  0  0  0  0  0  0
   14.1994  -19.4328   19.2291 C   0  0  0  0  0  0  0  0  0  0  0  0
   13.7383  -19.9085   18.1795 O   0  0  0  0  0  0  0  0  0  0  0  0
   13.6249  -18.2136   19.8407 C   0  0  0  0  0  0  0  0  0  0  0  0
   12.4074  -18.6202   20.6401 C   0  0  2  0  0  0  0  0  0  0  0  0
   11.5442  -19.3707   19.7797 N   0  0  0  0  0  0  0  0  0  0  0  0
   11.7391  -17.4293   21.2237 C   0  0  0  0  0  0  0  0  0  0  0  0
   12.4725  -16.5205   21.6883 O   0  0  0  0  0  0  0  0  0  0  0  0
    6.4011  -15.1262   19.4667 N   0  0  0  0  0  0  0  0  0  0  0  0
    6.4616  -14.4679   20.7247 C   0  0  0  0  0  0  0  0  0  0  0  0
    5.6050  -13.6281   21.0788 O   0  0  0  0  0  0  0  0  0  0  0  0
    7.5785  -14.7924   21.6388 C   0  0  0  0  0  0  0  0  0  0  0  0
    8.5240  -15.7977   21.1066 C   0  0  0  0  0  0  0  0  0  0  0  0
    9.7445  -16.0987   21.8980 C   0  0  2  0  0  0  0  0  0  0  0  0
   10.3301  -17.3135   21.2595 N   0  0  0  0  0  0  0  0  0  0  0  0
    9.5516  -16.4706   23.2967 C   0  0  0  0  0  0  0  0  0  0  0  0
    9.3038  -17.6677   23.6827 O   0  0  0  0  0  0  0  0  0  0  0  0
   10.4705  -13.9815   30.4835 C   0  0  0  0  0  0  0  0  0  0  0  0
    9.4940  -13.4643   29.0531 S   0  0  0  0  0  0  0  0  0  0  0  0
    9.1436  -14.9222   28.0133 C   0  0  0  0  0  0  0  0  0  0  0  0
    9.4975  -14.6722   26.5860 C   0  0  0  0  0  0  0  0  0  0  0  0
    9.3384  -15.8833   25.7140 C   0  0  2  0  0  0  0  0  0  0  0  0
    9.6320  -15.5161   24.3241 N   0  0  0  0  0  0  0  0  0  0  0  0
    7.9342  -16.3389   25.7715 C   0  0  0  0  0  0  0  0  0  0  0  0
    7.4969  -17.1897   26.6102 O   0  0  0  0  0  0  0  0  0  0  0  0
    6.9828  -15.8333   24.8678 O   0  0  0  0  0  0  0  0  0  0  0  0
  2  3  2  0
  2  1  1  0
  4  2  1  0
  5  4  1  0
  5  7  1  0
  5  6  1  6
  7  8  2  0
  9 10  1  0
 10 12  1  0
 11 10  2  0
 13 12  1  0
 14 13  1  6
 15 14  1  0
 15  7  1  0
 16 14  1  0
 16 17  2  0
 18 19  1  0
 19 20  1  0
 20 21  1  0
 22 21  1  1
 22 23  1  0
 22 24  1  0
 23 16  1  0
 24 26  1  0
 25 24  2  0
M  END
$$$$
