NQM.pdb
     RDKit          3D

 26 25  0  0  1  0  0  0  0  0999 V2000
   12.6412  -17.1468   17.5169 N   0  0  0  0  0  0  0  0  0  0  0  0
   11.3086  -17.0563   17.0024 C   0  0  0  0  0  0  0  0  0  0  0  0
   11.0957  -17.0421   15.7797 O   0  0  0  0  0  0  0  0  0  0  0  0
   10.1993  -16.9806   17.9792 C   0  0  0  0  0  0  0  0  0  0  0  0
   10.2402  -18.2290   18.8315 C   0  0  2  0  0  0  0  0  0  0  0  0
    9.6861  -19.3045   18.0667 N   0  0  0  0  0  0  0  0  0  0  0  0
    9.5264  -18.0130   20.1158 C   0  0  0  0  0  0  0  0  0  0  0  0
    8.3860  -17.4873   20.0658 O   0  0  0  0  0  0  0  0  0  0  0  0
   11.0062  -22.2502   24.0180 N   0  0  0  0  0  0  0  0  0  0  0  0
   10.7609  -21.7436   22.7130 C   0  0  0  0  0  0  0  0  0  0  0  0
   11.5241  -21.9826   21.7514 O   0  0  0  0  0  0  0  0  0  0  0  0
    9.5612  -20.9061   22.4945 C   0  0  0  0  0  0  0  0  0  0  0  0
    9.5511  -19.6479   23.2721 C   0  0  0  0  0  0  0  0  0  0  0  0
    9.2215  -18.3871   22.5593 C   0  0  2  0  0  0  0  0  0  0  0  0
   10.1012  -18.3823   21.3540 N   0  0  0  0  0  0  0  0  0  0  0  0
    9.5290  -17.1371   23.2485 C   0  0  0  0  0  0  0  0  0  0  0  0
   10.6912  -16.5960   23.2473 O   0  0  0  0  0  0  0  0  0  0  0  0
    6.6269  -10.5034   26.3529 C   0  0  0  0  0  0  0  0  0  0  0  0
    6.2689  -12.1162   25.6196 S   0  0  0  0  0  0  0  0  0  0  0  0
    7.8165  -13.0765   25.5093 C   0  0  0  0  0  0  0  0  0  0  0  0
    7.6012  -14.3808   24.8185 C   0  0  0  0  0  0  0  0  0  0  0  0
    8.8633  -15.1727   24.6383 C   0  0  2  0  0  0  0  0  0  0  0  0
    8.5449  -16.4374   23.9662 N   0  0  0  0  0  0  0  0  0  0  0  0
    9.4233  -15.4979   25.9662 C   0  0  0  0  0  0  0  0  0  0  0  0
    9.1752  -16.5739   26.5979 O   0  0  0  0  0  0  0  0  0  0  0  0
   10.2883  -14.5989   26.6150 O   0  0  0  0  0  0  0  0  0  0  0  0
  2  3  2  0
  2  1  1  0
  4  2  1  0
  5  4  1  0
  5  7  1  0
  5  6  1  6
  7  8  2  0
  9 10  1  0
 10 12  1  0
 11 10  2  0
 13 12  1  0
 14 13  1  1
 15 14  1  0
 15  7  1  0
 16 14  1  0
 16 17  2  0
 18 19  1  0
 19 20  1  0
 20 21  1  0
 22 21  1  1
 22 23  1  0
 22 24  1  0
 23 16  1  0
 24 26  1  0
 25 24  2  0
M  END
$$$$
