NQM.pdb
     RDKit          3D

 26 25  0  0  1  0  0  0  0  0999 V2000
   11.1505  -17.9039   19.3840 N   0  0  0  0  0  0  0  0  0  0  0  0
   11.4261  -16.6011   19.9086 C   0  0  0  0  0  0  0  0  0  0  0  0
   12.3765  -15.9277   19.4796 O   0  0  0  0  0  0  0  0  0  0  0  0
   10.5391  -16.0895   20.9772 C   0  0  0  0  0  0  0  0  0  0  0  0
    9.5409  -17.1738   21.3158 C   0  0  2  0  0  0  0  0  0  0  0  0
    8.5075  -17.1479   20.3259 N   0  0  0  0  0  0  0  0  0  0  0  0
    9.0176  -16.9956   22.6942 C   0  0  0  0  0  0  0  0  0  0  0  0
    8.8983  -15.8204   23.1233 O   0  0  0  0  0  0  0  0  0  0  0  0
    7.0103  -21.6512   26.3258 N   0  0  0  0  0  0  0  0  0  0  0  0
    6.8459  -20.5715   27.2352 C   0  0  0  0  0  0  0  0  0  0  0  0
    6.3759  -20.7331   28.3829 O   0  0  0  0  0  0  0  0  0  0  0  0
    7.2460  -19.2151   26.8009 C   0  0  0  0  0  0  0  0  0  0  0  0
    7.8055  -19.1577   25.4330 C   0  0  0  0  0  0  0  0  0  0  0  0
    8.2042  -17.8317   24.8949 C   0  0  2  0  0  0  0  0  0  0  0  0
    8.6641  -18.1018   23.5013 N   0  0  0  0  0  0  0  0  0  0  0  0
    9.3356  -17.1695   25.5376 C   0  0  0  0  0  0  0  0  0  0  0  0
   10.1151  -16.3524   24.9306 O   0  0  0  0  0  0  0  0  0  0  0  0
    6.9675  -12.1454   26.3045 C   0  0  0  0  0  0  0  0  0  0  0  0
    8.0341  -12.7172   27.6470 S   0  0  0  0  0  0  0  0  0  0  0  0
    9.0673  -14.0937   27.0411 C   0  0  0  0  0  0  0  0  0  0  0  0
    8.8953  -15.3152   27.8797 C   0  0  0  0  0  0  0  0  0  0  0  0
   10.0378  -16.2813   27.7629 C   0  0  2  0  0  0  0  0  0  0  0  0
    9.6400  -17.3921   26.8908 N   0  0  0  0  0  0  0  0  0  0  0  0
   10.3352  -16.8416   29.0971 C   0  0  0  0  0  0  0  0  0  0  0  0
    9.6409  -17.7480   29.6581 O   0  0  0  0  0  0  0  0  0  0  0  0
   11.4407  -16.3806   29.8338 O   0  0  0  0  0  0  0  0  0  0  0  0
  2  3  2  0
  2  1  1  0
  4  2  1  0
  5  4  1  0
  5  7  1  0
  5  6  1  6
  7  8  2  0
  9 10  1  0
 10 12  1  0
 11 10  2  0
 13 12  1  0
 14 13  1  1
 15 14  1  0
 15  7  1  0
 16 14  1  0
 16 17  2  0
 18 19  1  0
 19 20  1  0
 20 21  1  0
 22 21  1  1
 22 23  1  0
 22 24  1  0
 23 16  1  0
 24 26  1  0
 25 24  2  0
M  END
$$$$
