NQM.pdb
     RDKit          3D

 26 25  0  0  1  0  0  0  0  0999 V2000
    8.6064  -12.3293   18.4706 N   0  0  0  0  0  0  0  0  0  0  0  0
    8.1874  -13.6962   18.5373 C   0  0  0  0  0  0  0  0  0  0  0  0
    8.5182  -14.5092   17.6597 O   0  0  0  0  0  0  0  0  0  0  0  0
    7.3485  -14.1018   19.6872 C   0  0  0  0  0  0  0  0  0  0  0  0
    8.2641  -14.6087   20.7787 C   0  0  2  0  0  0  0  0  0  0  0  0
    9.1048  -15.6209   20.2155 N   0  0  0  0  0  0  0  0  0  0  0  0
    7.4781  -15.0984   21.9397 C   0  0  0  0  0  0  0  0  0  0  0  0
    6.5275  -14.3816   22.3421 O   0  0  0  0  0  0  0  0  0  0  0  0
    7.8713  -20.7104   24.1643 N   0  0  0  0  0  0  0  0  0  0  0  0
    6.6947  -20.3240   24.8613 C   0  0  0  0  0  0  0  0  0  0  0  0
    6.1984  -21.0253   25.7702 O   0  0  0  0  0  0  0  0  0  0  0  0
    6.0417  -19.0490   24.4922 C   0  0  0  0  0  0  0  0  0  0  0  0
    6.7759  -18.2646   23.4756 C   0  0  0  0  0  0  0  0  0  0  0  0
    6.8704  -16.7937   23.6603 C   0  0  2  0  0  0  0  0  0  0  0  0
    7.7810  -16.3250   22.5751 N   0  0  0  0  0  0  0  0  0  0  0  0
    7.4891  -16.3198   24.8949 C   0  0  0  0  0  0  0  0  0  0  0  0
    6.9456  -16.4395   26.0498 O   0  0  0  0  0  0  0  0  0  0  0  0
    5.4753  -12.2355   26.8020 C   0  0  0  0  0  0  0  0  0  0  0  0
    7.1976  -11.8664   27.2077 S   0  0  0  0  0  0  0  0  0  0  0  0
    8.2859  -12.9595   26.2330 C   0  0  0  0  0  0  0  0  0  0  0  0
    8.3828  -14.3174   26.8426 C   0  0  0  0  0  0  0  0  0  0  0  0
    9.3540  -15.2174   26.1361 C   0  0  2  0  0  0  0  0  0  0  0  0
    8.7467  -15.6940   24.8884 N   0  0  0  0  0  0  0  0  0  0  0  0
    9.6243  -16.3968   26.9837 C   0  0  0  0  0  0  0  0  0  0  0  0
    9.2297  -17.5747   26.7091 O   0  0  0  0  0  0  0  0  0  0  0  0
   10.3576  -16.2649   28.1763 O   0  0  0  0  0  0  0  0  0  0  0  0
  2  3  2  0
  2  1  1  0
  4  2  1  0
  5  4  1  0
  5  7  1  0
  5  6  1  6
  7  8  2  0
  9 10  1  0
 10 12  1  0
 11 10  2  0
 13 12  1  0
 14 13  1  1
 15 14  1  0
 15  7  1  0
 16 14  1  0
 16 17  2  0
 18 19  1  0
 19 20  1  0
 20 21  1  0
 22 21  1  1
 22 23  1  0
 22 24  1  0
 23 16  1  0
 24 26  1  0
 25 24  2  0
M  END
$$$$
