YAW.pdb
     RDKit          3D

 32 34  0  0  1  0  0  0  0  0999 V2000
    7.3874  -11.7399   17.4582 O   0  0  0  0  0  0  0  0  0  0  0  0
    7.7029  -12.5232   18.5668 C   0  0  0  0  0  0  0  0  0  0  0  0
    8.9933  -12.6610   19.0055 C   0  0  0  0  0  0  0  0  0  0  0  0
    9.2415  -13.4471   20.1045 C   0  0  0  0  0  0  0  0  0  0  0  0
    8.2342  -14.1065   20.7863 C   0  0  0  0  0  0  0  0  0  0  0  0
    8.5526  -14.9442   21.9690 C   0  0  0  0  0  0  0  0  0  0  0  0
    9.1432  -16.2763   21.4789 C   0  0  2  0  0  0  0  0  0  0  0  0
    8.1040  -17.0640   20.8335 N   0  0  0  0  0  0  0  0  0  0  0  0
    9.6193  -16.9564   22.7244 C   0  0  0  0  0  0  0  0  0  0  0  0
    8.7753  -17.3288   23.5446 O   0  0  0  0  0  0  0  0  0  0  0  0
    6.9548  -13.9676   20.3484 C   0  0  0  0  0  0  0  0  0  0  0  0
    6.6758  -13.1794   19.2406 C   0  0  0  0  0  0  0  0  0  0  0  0
   12.8720  -18.4014   23.9405 C   0  0  0  0  0  0  0  0  0  0  0  0
   11.4501  -17.9265   24.1528 C   0  0  2  0  0  0  0  0  0  0  0  0
   10.9975  -17.1785   22.9792 N   0  0  0  0  0  0  0  0  0  0  0  0
   11.3302  -17.0325   25.3232 C   0  0  0  0  0  0  0  0  0  0  0  0
   11.9894  -15.9700   25.3483 O   0  0  0  0  0  0  0  0  0  0  0  0
   10.4765  -17.3346   26.4503 N   0  0  0  0  0  0  0  0  0  0  0  0
   10.4940  -16.5485   27.6430 C   0  0  1  0  0  0  0  0  0  0  0  0
    9.2100  -16.1930   28.2383 C   0  0  0  0  0  0  0  0  0  0  0  0
    8.1232  -15.7351   27.3678 C   0  0  0  0  0  0  0  0  0  0  0  0
    7.1356  -16.4307   26.7188 C   0  0  0  0  0  0  0  0  0  0  0  0
    6.3845  -15.5529   26.0534 N   0  0  0  0  0  0  0  0  0  0  0  0
    6.8569  -14.3213   26.2543 C   0  0  0  0  0  0  0  0  0  0  0  0
    6.4459  -13.0759   25.7971 C   0  0  0  0  0  0  0  0  0  0  0  0
    7.1417  -11.9540   26.1778 C   0  0  0  0  0  0  0  0  0  0  0  0
    8.2456  -11.9977   27.0035 C   0  0  0  0  0  0  0  0  0  0  0  0
    8.6450  -13.2377   27.4514 C   0  0  0  0  0  0  0  0  0  0  0  0
    7.9521  -14.3970   27.0775 C   0  0  0  0  0  0  0  0  0  0  0  0
   11.3657  -17.1601   28.7009 C   0  0  0  0  0  0  0  0  0  0  0  0
   11.7847  -18.3378   28.5724 O   0  0  0  0  0  0  0  0  0  0  0  0
   11.7441  -16.4744   29.8456 O   0  0  0  0  0  0  0  0  0  0  0  0
  2  1  1  0
  3  2  2  0
  4  3  1  0
  5  4  2  0
  5 11  1  0
  6  5  1  0
  7  6  1  0
  7  8  1  1
  9 10  2  0
  9  7  1  0
 11 12  2  0
 12  2  1  0
 14 13  1  6
 14 16  1  0
 14 15  1  0
 15  9  1  0
 16 18  1  0
 17 16  2  0
 18 19  1  0
 19 30  1  0
 19 20  1  1
 21 20  1  0
 21 29  1  0
 22 23  1  0
 22 21  2  0
 23 24  1  0
 24 25  2  0
 24 29  1  0
 25 26  1  0
 26 27  2  0
 28 27  1  0
 29 28  2  0
 30 31  2  0
 30 32  1  0
M  END
$$$$
