YAW.pdb
     RDKit          3D

 32 34  0  0  1  0  0  0  0  0999 V2000
    7.6193  -13.4203   14.0495 O   0  0  0  0  0  0  0  0  0  0  0  0
    7.5533  -13.7384   15.4046 C   0  0  0  0  0  0  0  0  0  0  0  0
    7.7797  -12.7987   16.3753 C   0  0  0  0  0  0  0  0  0  0  0  0
    7.7002  -13.1731   17.6947 C   0  0  0  0  0  0  0  0  0  0  0  0
    7.3993  -14.4673   18.0805 C   0  0  0  0  0  0  0  0  0  0  0  0
    7.3244  -14.8231   19.5193 C   0  0  0  0  0  0  0  0  0  0  0  0
    8.7544  -14.8955   20.0792 C   0  0  2  0  0  0  0  0  0  0  0  0
    9.6454  -15.4546   19.0741 N   0  0  0  0  0  0  0  0  0  0  0  0
    8.6500  -15.8138   21.2566 C   0  0  0  0  0  0  0  0  0  0  0  0
    7.8510  -15.5254   22.1523 O   0  0  0  0  0  0  0  0  0  0  0  0
    7.1752  -15.3974   17.1149 C   0  0  0  0  0  0  0  0  0  0  0  0
    7.2490  -15.0463   15.7742 C   0  0  0  0  0  0  0  0  0  0  0  0
   10.1086  -19.1469   22.2747 C   0  0  0  0  0  0  0  0  0  0  0  0
    9.3683  -17.8537   22.5435 C   0  0  2  0  0  0  0  0  0  0  0  0
    9.4372  -16.9896   21.3644 N   0  0  0  0  0  0  0  0  0  0  0  0
    9.9485  -17.1050   23.6776 C   0  0  0  0  0  0  0  0  0  0  0  0
   10.8569  -16.2738   23.4581 O   0  0  0  0  0  0  0  0  0  0  0  0
    9.5082  -17.2926   25.0420 N   0  0  0  0  0  0  0  0  0  0  0  0
   10.0513  -16.5317   26.1222 C   0  0  1  0  0  0  0  0  0  0  0  0
    9.6097  -15.1481   26.2647 C   0  0  0  0  0  0  0  0  0  0  0  0
    8.2289  -14.8012   25.9161 C   0  0  0  0  0  0  0  0  0  0  0  0
    7.1508  -15.5924   25.6133 C   0  0  0  0  0  0  0  0  0  0  0  0
    6.1103  -14.7943   25.3727 N   0  0  0  0  0  0  0  0  0  0  0  0
    6.4853  -13.5213   25.5113 C   0  0  0  0  0  0  0  0  0  0  0  0
    5.7961  -12.3232   25.3743 C   0  0  0  0  0  0  0  0  0  0  0  0
    6.4570  -11.1370   25.5837 C   0  0  0  0  0  0  0  0  0  0  0  0
    7.7908  -11.0696   25.9282 C   0  0  0  0  0  0  0  0  0  0  0  0
    8.4652  -12.2635   26.0614 C   0  0  0  0  0  0  0  0  0  0  0  0
    7.8137  -13.4867   25.8534 C   0  0  0  0  0  0  0  0  0  0  0  0
    9.8812  -17.2326   27.4385 C   0  0  0  0  0  0  0  0  0  0  0  0
    9.1002  -18.2119   27.5376 O   0  0  0  0  0  0  0  0  0  0  0  0
   10.5601  -16.8453   28.5843 O   0  0  0  0  0  0  0  0  0  0  0  0
  2  1  1  0
  3  2  2  0
  4  3  1  0
  5  4  2  0
  5 11  1  0
  6  5  1  0
  7  6  1  0
  7  8  1  6
  9 10  2  0
  9  7  1  0
 11 12  2  0
 12  2  1  0
 14 13  1  6
 14 16  1  0
 14 15  1  0
 15  9  1  0
 16 18  1  0
 17 16  2  0
 18 19  1  0
 19 30  1  0
 19 20  1  1
 21 20  1  0
 21 29  1  0
 22 23  1  0
 22 21  2  0
 23 24  1  0
 24 25  2  0
 24 29  1  0
 25 26  1  0
 26 27  2  0
 28 27  1  0
 29 28  2  0
 30 31  2  0
 30 32  1  0
M  END
$$$$
