YAW.pdb
     RDKit          3D

 32 34  0  0  1  0  0  0  0  0999 V2000
    7.8030  -12.3531   16.8804 O   0  0  0  0  0  0  0  0  0  0  0  0
    7.8772  -13.0406   18.0902 C   0  0  0  0  0  0  0  0  0  0  0  0
    8.9184  -13.8841   18.3747 C   0  0  0  0  0  0  0  0  0  0  0  0
    8.9359  -14.5341   19.5849 C   0  0  0  0  0  0  0  0  0  0  0  0
    7.9385  -14.3681   20.5294 C   0  0  0  0  0  0  0  0  0  0  0  0
    8.0023  -15.0922   21.8231 C   0  0  0  0  0  0  0  0  0  0  0  0
    8.2974  -16.5740   21.5390 C   0  0  2  0  0  0  0  0  0  0  0  0
    7.0571  -17.2693   21.2305 N   0  0  0  0  0  0  0  0  0  0  0  0
    8.8848  -17.0908   22.8151 C   0  0  0  0  0  0  0  0  0  0  0  0
    8.1229  -17.3098   23.7613 O   0  0  0  0  0  0  0  0  0  0  0  0
    6.9067  -13.5303   20.2440 C   0  0  0  0  0  0  0  0  0  0  0  0
    6.8641  -12.8610   19.0289 C   0  0  0  0  0  0  0  0  0  0  0  0
   12.2615  -18.3683   23.9150 C   0  0  0  0  0  0  0  0  0  0  0  0
   10.8272  -17.9520   24.1637 C   0  0  2  0  0  0  0  0  0  0  0  0
   10.2761  -17.3303   22.9589 N   0  0  0  0  0  0  0  0  0  0  0  0
   10.7146  -16.9698   25.2620 C   0  0  0  0  0  0  0  0  0  0  0  0
   11.0643  -15.7863   25.0591 O   0  0  0  0  0  0  0  0  0  0  0  0
   10.2133  -17.3199   26.5721 N   0  0  0  0  0  0  0  0  0  0  0  0
   10.3575  -16.4473   27.6939 C   0  0  1  0  0  0  0  0  0  0  0  0
    9.1511  -15.8182   28.2217 C   0  0  0  0  0  0  0  0  0  0  0  0
    8.1079  -15.3828   27.2887 C   0  0  0  0  0  0  0  0  0  0  0  0
    7.1774  -16.0989   26.5804 C   0  0  0  0  0  0  0  0  0  0  0  0
    6.4470  -15.2366   25.8731 N   0  0  0  0  0  0  0  0  0  0  0  0
    6.8776  -13.9950   26.1045 C   0  0  0  0  0  0  0  0  0  0  0  0
    6.4655  -12.7579   25.6260 C   0  0  0  0  0  0  0  0  0  0  0  0
    7.1108  -11.6215   26.0499 C   0  0  0  0  0  0  0  0  0  0  0  0
    8.1641  -11.6423   26.9401 C   0  0  0  0  0  0  0  0  0  0  0  0
    8.5651  -12.8742   27.4085 C   0  0  0  0  0  0  0  0  0  0  0  0
    7.9231  -14.0480   26.9915 C   0  0  0  0  0  0  0  0  0  0  0  0
   11.0930  -17.1081   28.8232 C   0  0  0  0  0  0  0  0  0  0  0  0
   11.3517  -18.3369   28.7766 O   0  0  0  0  0  0  0  0  0  0  0  0
   11.5145  -16.4143   29.9478 O   0  0  0  0  0  0  0  0  0  0  0  0
  2  1  1  0
  3  2  2  0
  4  3  1  0
  5  4  2  0
  5 11  1  0
  6  5  1  0
  7  6  1  0
  7  8  1  1
  9 10  2  0
  9  7  1  0
 11 12  2  0
 12  2  1  0
 14 13  1  6
 14 16  1  0
 14 15  1  0
 15  9  1  0
 16 18  1  0
 17 16  2  0
 18 19  1  0
 19 30  1  0
 19 20  1  1
 21 20  1  0
 21 29  1  0
 22 23  1  0
 22 21  2  0
 23 24  1  0
 24 25  2  0
 24 29  1  0
 25 26  1  0
 26 27  2  0
 28 27  1  0
 29 28  2  0
 30 31  2  0
 30 32  1  0
M  END
$$$$
