YAW.pdb
     RDKit          3D

 32 34  0  0  1  0  0  0  0  0999 V2000
    9.0292  -23.4492   16.1388 O   0  0  0  0  0  0  0  0  0  0  0  0
    9.3236  -22.1883   16.6539 C   0  0  0  0  0  0  0  0  0  0  0  0
    9.6714  -22.0118   17.9671 C   0  0  0  0  0  0  0  0  0  0  0  0
    9.9504  -20.7439   18.4164 C   0  0  0  0  0  0  0  0  0  0  0  0
    9.8930  -19.6358   17.5898 C   0  0  0  0  0  0  0  0  0  0  0  0
   10.2039  -18.2859   18.1220 C   0  0  0  0  0  0  0  0  0  0  0  0
    9.7435  -18.2210   19.5874 C   0  0  2  0  0  0  0  0  0  0  0  0
    8.3734  -18.6996   19.6911 N   0  0  0  0  0  0  0  0  0  0  0  0
    9.8196  -16.7684   19.9404 C   0  0  0  0  0  0  0  0  0  0  0  0
   10.8972  -16.1864   19.7865 O   0  0  0  0  0  0  0  0  0  0  0  0
    9.5476  -19.8144   16.2873 C   0  0  0  0  0  0  0  0  0  0  0  0
    9.2607  -21.0845   15.8070 C   0  0  0  0  0  0  0  0  0  0  0  0
    7.6198  -13.8759   20.3253 C   0  0  0  0  0  0  0  0  0  0  0  0
    8.8010  -14.6585   20.8591 C   0  0  2  0  0  0  0  0  0  0  0  0
    8.6982  -16.0571   20.4407 N   0  0  0  0  0  0  0  0  0  0  0  0
    8.8604  -14.6396   22.3355 C   0  0  0  0  0  0  0  0  0  0  0  0
    8.5879  -13.5806   22.9427 O   0  0  0  0  0  0  0  0  0  0  0  0
    9.2226  -15.8016   23.1158 N   0  0  0  0  0  0  0  0  0  0  0  0
    9.9639  -15.6933   24.3322 C   0  0  1  0  0  0  0  0  0  0  0  0
    9.4262  -14.8290   25.3779 C   0  0  0  0  0  0  0  0  0  0  0  0
    7.9730  -14.7193   25.5346 C   0  0  0  0  0  0  0  0  0  0  0  0
    6.9644  -15.5912   25.2138 C   0  0  0  0  0  0  0  0  0  0  0  0
    5.8077  -15.0268   25.5616 N   0  0  0  0  0  0  0  0  0  0  0  0
    6.0414  -13.8255   26.0932 C   0  0  0  0  0  0  0  0  0  0  0  0
    5.1966  -12.8492   26.6056 C   0  0  0  0  0  0  0  0  0  0  0  0
    5.7327  -11.6838   27.0977 C   0  0  0  0  0  0  0  0  0  0  0  0
    7.0875  -11.4257   27.1108 C   0  0  0  0  0  0  0  0  0  0  0  0
    7.9165  -12.4004   26.6004 C   0  0  0  0  0  0  0  0  0  0  0  0
    7.3945  -13.5977   26.0927 C   0  0  0  0  0  0  0  0  0  0  0  0
   10.2644  -17.0398   24.9235 C   0  0  0  0  0  0  0  0  0  0  0  0
    9.7769  -18.0787   24.4116 O   0  0  0  0  0  0  0  0  0  0  0  0
   11.0750  -17.2027   26.0371 O   0  0  0  0  0  0  0  0  0  0  0  0
  2  1  1  0
  3  2  2  0
  4  3  1  0
  5  4  2  0
  5 11  1  0
  6  5  1  0
  7  6  1  0
  7  8  1  6
  9 10  2  0
  9  7  1  0
 11 12  2  0
 12  2  1  0
 14 13  1  1
 14 16  1  0
 14 15  1  0
 15  9  1  0
 16 18  1  0
 17 16  2  0
 18 19  1  0
 19 30  1  0
 19 20  1  1
 21 20  1  0
 21 29  1  0
 22 23  1  0
 22 21  2  0
 23 24  1  0
 24 25  2  0
 24 29  1  0
 25 26  1  0
 26 27  2  0
 28 27  1  0
 29 28  2  0
 30 31  2  0
 30 32  1  0
M  END
$$$$
