YAW.pdb
     RDKit          3D

 32 34  0  0  1  0  0  0  0  0999 V2000
    7.5498  -22.9129   29.1270 O   0  0  0  0  0  0  0  0  0  0  0  0
    7.5542  -21.9338   28.1354 C   0  0  0  0  0  0  0  0  0  0  0  0
    8.7146  -21.3336   27.7233 C   0  0  0  0  0  0  0  0  0  0  0  0
    8.6548  -20.3747   26.7414 C   0  0  0  0  0  0  0  0  0  0  0  0
    7.4632  -19.9916   26.1518 C   0  0  0  0  0  0  0  0  0  0  0  0
    7.4500  -18.9508   25.0940 C   0  0  0  0  0  0  0  0  0  0  0  0
    6.9890  -19.5982   23.7780 C   0  0  2  0  0  0  0  0  0  0  0  0
    7.7077  -20.8458   23.5687 N   0  0  0  0  0  0  0  0  0  0  0  0
    7.3513  -18.6009   22.7223 C   0  0  0  0  0  0  0  0  0  0  0  0
    8.3806  -18.7918   22.0682 O   0  0  0  0  0  0  0  0  0  0  0  0
    6.3135  -20.5891   26.5629 C   0  0  0  0  0  0  0  0  0  0  0  0
    6.3452  -21.5610   27.5532 C   0  0  0  0  0  0  0  0  0  0  0  0
    5.8696  -15.4282   21.3009 C   0  0  0  0  0  0  0  0  0  0  0  0
    7.0093  -16.3855   21.5785 C   0  0  2  0  0  0  0  0  0  0  0  0
    6.5506  -17.4587   22.4614 N   0  0  0  0  0  0  0  0  0  0  0  0
    8.1475  -15.7184   22.2441 C   0  0  0  0  0  0  0  0  0  0  0  0
    8.6916  -14.7403   21.6859 O   0  0  0  0  0  0  0  0  0  0  0  0
    8.6642  -16.1502   23.5235 N   0  0  0  0  0  0  0  0  0  0  0  0
    9.7434  -15.4731   24.1697 C   0  0  1  0  0  0  0  0  0  0  0  0
    9.4239  -14.2856   24.9555 C   0  0  0  0  0  0  0  0  0  0  0  0
    8.0940  -14.1680   25.5605 C   0  0  0  0  0  0  0  0  0  0  0  0
    7.1860  -15.1260   25.9322 C   0  0  0  0  0  0  0  0  0  0  0  0
    6.1221  -14.5067   26.4443 N   0  0  0  0  0  0  0  0  0  0  0  0
    6.3182  -13.1873   26.4132 C   0  0  0  0  0  0  0  0  0  0  0  0
    5.5333  -12.1154   26.8183 C   0  0  0  0  0  0  0  0  0  0  0  0
    6.0060  -10.8351   26.6597 C   0  0  0  0  0  0  0  0  0  0  0  0
    7.2388  -10.5510   26.1104 C   0  0  0  0  0  0  0  0  0  0  0  0
    8.0094  -11.6211   25.7118 C   0  0  0  0  0  0  0  0  0  0  0  0
    7.5499  -12.9364   25.8629 C   0  0  0  0  0  0  0  0  0  0  0  0
   10.5617  -16.4066   25.0135 C   0  0  0  0  0  0  0  0  0  0  0  0
   10.1239  -17.5492   25.2995 O   0  0  0  0  0  0  0  0  0  0  0  0
   11.8115  -16.0649   25.5085 O   0  0  0  0  0  0  0  0  0  0  0  0
  2  1  1  0
  3  2  2  0
  4  3  1  0
  5  4  2  0
  5 11  1  0
  6  5  1  0
  7  6  1  0
  7  8  1  6
  9 10  2  0
  9  7  1  0
 11 12  2  0
 12  2  1  0
 14 13  1  1
 14 16  1  0
 14 15  1  0
 15  9  1  0
 16 18  1  0
 17 16  2  0
 18 19  1  0
 19 30  1  0
 19 20  1  1
 21 20  1  0
 21 29  1  0
 22 23  1  0
 22 21  2  0
 23 24  1  0
 24 25  2  0
 24 29  1  0
 25 26  1  0
 26 27  2  0
 28 27  1  0
 29 28  2  0
 30 31  2  0
 30 32  1  0
M  END
$$$$
