YAW.pdb
     RDKit          3D

 32 34  0  0  1  0  0  0  0  0999 V2000
   12.7311  -23.8338   18.8179 O   0  0  0  0  0  0  0  0  0  0  0  0
   12.4390  -22.5674   19.3204 C   0  0  0  0  0  0  0  0  0  0  0  0
   13.2997  -21.5140   19.1588 C   0  0  0  0  0  0  0  0  0  0  0  0
   12.9561  -20.2890   19.6770 C   0  0  0  0  0  0  0  0  0  0  0  0
   11.7699  -20.0790   20.3578 C   0  0  0  0  0  0  0  0  0  0  0  0
   11.4430  -18.7365   20.8990 C   0  0  0  0  0  0  0  0  0  0  0  0
   10.2868  -18.1465   20.0752 C   0  0  2  0  0  0  0  0  0  0  0  0
   10.6767  -18.0619   18.6759 N   0  0  0  0  0  0  0  0  0  0  0  0
   10.0799  -16.7782   20.6455 C   0  0  0  0  0  0  0  0  0  0  0  0
   11.0628  -16.0407   20.7633 O   0  0  0  0  0  0  0  0  0  0  0  0
   10.9180  -21.1264   20.5164 C   0  0  0  0  0  0  0  0  0  0  0  0
   11.2403  -22.3748   20.0029 C   0  0  0  0  0  0  0  0  0  0  0  0
    7.1314  -14.7375   21.8567 C   0  0  0  0  0  0  0  0  0  0  0  0
    8.6031  -14.9724   21.5895 C   0  0  2  0  0  0  0  0  0  0  0  0
    8.7994  -16.3176   21.0477 N   0  0  0  0  0  0  0  0  0  0  0  0
    9.4165  -14.8651   22.8185 C   0  0  0  0  0  0  0  0  0  0  0  0
   10.0309  -13.8010   23.0515 O   0  0  0  0  0  0  0  0  0  0  0  0
    9.5340  -15.9456   23.7720 N   0  0  0  0  0  0  0  0  0  0  0  0
   10.2096  -15.7814   25.0199 C   0  0  1  0  0  0  0  0  0  0  0  0
    9.6457  -14.8333   25.9753 C   0  0  0  0  0  0  0  0  0  0  0  0
    8.1917  -14.6570   26.0308 C   0  0  0  0  0  0  0  0  0  0  0  0
    7.1689  -15.5559   25.8689 C   0  0  0  0  0  0  0  0  0  0  0  0
    6.0180  -14.9002   26.0208 N   0  0  0  0  0  0  0  0  0  0  0  0
    6.2692  -13.6145   26.2742 C   0  0  0  0  0  0  0  0  0  0  0  0
    5.4367  -12.5273   26.5071 C   0  0  0  0  0  0  0  0  0  0  0  0
    5.9902  -11.2925   26.7451 C   0  0  0  0  0  0  0  0  0  0  0  0
    7.3511  -11.0696   26.7656 C   0  0  0  0  0  0  0  0  0  0  0  0
    8.1679  -12.1543   26.5333 C   0  0  0  0  0  0  0  0  0  0  0  0
    7.6279  -13.4241   26.2882 C   0  0  0  0  0  0  0  0  0  0  0  0
   10.4281  -17.0950   25.7125 C   0  0  0  0  0  0  0  0  0  0  0  0
   11.1261  -17.1518   26.7558 O   0  0  0  0  0  0  0  0  0  0  0  0
    9.8846  -18.2837   25.2484 O   0  0  0  0  0  0  0  0  0  0  0  0
  2  1  1  0
  3  2  2  0
  4  3  1  0
  5  4  2  0
  5 11  1  0
  6  5  1  0
  7  6  1  0
  7  8  1  6
  9 10  2  0
  9  7  1  0
 11 12  2  0
 12  2  1  0
 14 13  1  1
 14 16  1  0
 14 15  1  0
 15  9  1  0
 16 18  1  0
 17 16  2  0
 18 19  1  0
 19 30  1  0
 19 20  1  1
 21 20  1  0
 21 29  1  0
 22 23  1  0
 22 21  2  0
 23 24  1  0
 24 25  2  0
 24 29  1  0
 25 26  1  0
 26 27  2  0
 28 27  1  0
 29 28  2  0
 30 31  2  0
 30 32  1  0
M  END
$$$$
