YAW.pdb
     RDKit          3D

 32 34  0  0  1  0  0  0  0  0999 V2000
    6.1949  -22.2325   28.6660 O   0  0  0  0  0  0  0  0  0  0  0  0
    6.5912  -21.3590   27.6552 C   0  0  0  0  0  0  0  0  0  0  0  0
    7.7658  -21.5353   26.9727 C   0  0  0  0  0  0  0  0  0  0  0  0
    8.1023  -20.6403   25.9863 C   0  0  0  0  0  0  0  0  0  0  0  0
    7.2971  -19.5648   25.6557 C   0  0  0  0  0  0  0  0  0  0  0  0
    7.7039  -18.6252   24.5816 C   0  0  0  0  0  0  0  0  0  0  0  0
    6.9686  -19.0141   23.2886 C   0  0  2  0  0  0  0  0  0  0  0  0
    7.4507  -20.3049   22.8212 N   0  0  0  0  0  0  0  0  0  0  0  0
    7.3276  -17.9361   22.3142 C   0  0  0  0  0  0  0  0  0  0  0  0
    8.2654  -18.1403   21.5379 O   0  0  0  0  0  0  0  0  0  0  0  0
    6.1322  -19.3927   26.3349 C   0  0  0  0  0  0  0  0  0  0  0  0
    5.7678  -20.2820   27.3362 C   0  0  0  0  0  0  0  0  0  0  0  0
    6.1500  -14.4814   21.3883 C   0  0  0  0  0  0  0  0  0  0  0  0
    7.2286  -15.4994   21.6932 C   0  0  2  0  0  0  0  0  0  0  0  0
    6.6252  -16.7041   22.2643 N   0  0  0  0  0  0  0  0  0  0  0  0
    8.2148  -14.9908   22.6690 C   0  0  0  0  0  0  0  0  0  0  0  0
    8.1212  -13.8102   23.0709 O   0  0  0  0  0  0  0  0  0  0  0  0
    9.2925  -15.8053   23.1844 N   0  0  0  0  0  0  0  0  0  0  0  0
   10.2026  -15.3172   24.1714 C   0  0  1  0  0  0  0  0  0  0  0  0
    9.7674  -15.3409   25.5641 C   0  0  0  0  0  0  0  0  0  0  0  0
    8.3323  -15.3588   25.8621 C   0  0  0  0  0  0  0  0  0  0  0  0
    7.4131  -16.3747   25.8037 C   0  0  0  0  0  0  0  0  0  0  0  0
    6.2329  -15.8828   26.1812 N   0  0  0  0  0  0  0  0  0  0  0  0
    6.3654  -14.5888   26.4789 C   0  0  0  0  0  0  0  0  0  0  0  0
    5.4580  -13.6319   26.9151 C   0  0  0  0  0  0  0  0  0  0  0  0
    5.8900  -12.3483   27.1460 C   0  0  0  0  0  0  0  0  0  0  0  0
    7.1983  -11.9509   26.9650 C   0  0  0  0  0  0  0  0  0  0  0  0
    8.0901  -12.9075   26.5321 C   0  0  0  0  0  0  0  0  0  0  0  0
    7.6744  -14.2236   26.2896 C   0  0  0  0  0  0  0  0  0  0  0  0
   11.5436  -15.9841   24.0715 C   0  0  0  0  0  0  0  0  0  0  0  0
   12.5202  -15.5428   24.7276 O   0  0  0  0  0  0  0  0  0  0  0  0
   11.7683  -17.0937   23.2703 O   0  0  0  0  0  0  0  0  0  0  0  0
  2  1  1  0
  3  2  2  0
  4  3  1  0
  5  4  2  0
  5 11  1  0
  6  5  1  0
  7  6  1  0
  7  8  1  6
  9 10  2  0
  9  7  1  0
 11 12  2  0
 12  2  1  0
 14 13  1  1
 14 16  1  0
 14 15  1  0
 15  9  1  0
 16 18  1  0
 17 16  2  0
 18 19  1  0
 19 30  1  0
 19 20  1  1
 21 20  1  0
 21 29  1  0
 22 23  1  0
 22 21  2  0
 23 24  1  0
 24 25  2  0
 24 29  1  0
 25 26  1  0
 26 27  2  0
 28 27  1  0
 29 28  2  0
 30 31  2  0
 30 32  1  0
M  END
$$$$
