YAW.pdb
     RDKit          3D

 32 34  0  0  1  0  0  0  0  0999 V2000
    7.0531  -11.9466   17.4220 O   0  0  0  0  0  0  0  0  0  0  0  0
    7.1595  -12.7748   18.5376 C   0  0  0  0  0  0  0  0  0  0  0  0
    6.4780  -13.9602   18.6203 C   0  0  0  0  0  0  0  0  0  0  0  0
    6.6235  -14.7338   19.7462 C   0  0  0  0  0  0  0  0  0  0  0  0
    7.4349  -14.3592   20.8025 C   0  0  0  0  0  0  0  0  0  0  0  0
    7.5600  -15.2296   21.9978 C   0  0  0  0  0  0  0  0  0  0  0  0
    8.6763  -16.2548   21.7405 C   0  0  2  0  0  0  0  0  0  0  0  0
    8.3140  -17.0995   20.6126 N   0  0  0  0  0  0  0  0  0  0  0  0
    8.7424  -17.0613   22.9996 C   0  0  0  0  0  0  0  0  0  0  0  0
    8.0270  -18.0633   23.0888 O   0  0  0  0  0  0  0  0  0  0  0  0
    8.1098  -13.1823   20.7174 C   0  0  0  0  0  0  0  0  0  0  0  0
    7.9810  -12.3814   19.5912 C   0  0  0  0  0  0  0  0  0  0  0  0
   11.7227  -17.3481   23.0787 C   0  0  0  0  0  0  0  0  0  0  0  0
   10.8572  -17.4053   24.3198 C   0  0  2  0  0  0  0  0  0  0  0  0
    9.5955  -16.7049   24.0762 N   0  0  0  0  0  0  0  0  0  0  0  0
   11.5057  -16.7620   25.4813 C   0  0  0  0  0  0  0  0  0  0  0  0
   12.6447  -17.1422   25.8310 O   0  0  0  0  0  0  0  0  0  0  0  0
   10.8758  -15.7030   26.2378 N   0  0  0  0  0  0  0  0  0  0  0  0
   10.8399  -15.7134   27.6659 C   0  0  1  0  0  0  0  0  0  0  0  0
    9.6169  -15.2534   28.3156 C   0  0  0  0  0  0  0  0  0  0  0  0
    8.4384  -14.9645   27.4933 C   0  0  0  0  0  0  0  0  0  0  0  0
    7.4830  -15.7948   26.9659 C   0  0  0  0  0  0  0  0  0  0  0  0
    6.6106  -15.0427   26.2946 N   0  0  0  0  0  0  0  0  0  0  0  0
    6.9745  -13.7614   26.3745 C   0  0  0  0  0  0  0  0  0  0  0  0
    6.4178  -12.5973   25.8605 C   0  0  0  0  0  0  0  0  0  0  0  0
    7.0255  -11.3909   26.1114 C   0  0  0  0  0  0  0  0  0  0  0  0
    8.1785  -11.2705   26.8587 C   0  0  0  0  0  0  0  0  0  0  0  0
    8.7226  -12.4309   27.3638 C   0  0  0  0  0  0  0  0  0  0  0  0
    8.1217  -13.6737   27.1222 C   0  0  0  0  0  0  0  0  0  0  0  0
   11.2083  -17.0577   28.2229 C   0  0  0  0  0  0  0  0  0  0  0  0
   11.2552  -18.0631   27.4705 O   0  0  0  0  0  0  0  0  0  0  0  0
   11.5083  -17.2546   29.5626 O   0  0  0  0  0  0  0  0  0  0  0  0
  2  1  1  0
  3  2  2  0
  4  3  1  0
  5  4  2  0
  5 11  1  0
  6  5  1  0
  7  6  1  0
  7  8  1  6
  9 10  2  0
  9  7  1  0
 11 12  2  0
 12  2  1  0
 14 13  1  6
 14 16  1  0
 14 15  1  0
 15  9  1  0
 16 18  1  0
 17 16  2  0
 18 19  1  0
 19 30  1  0
 19 20  1  6
 21 20  1  0
 21 29  1  0
 22 23  1  0
 22 21  2  0
 23 24  1  0
 24 25  2  0
 24 29  1  0
 25 26  1  0
 26 27  2  0
 28 27  1  0
 29 28  2  0
 30 31  2  0
 30 32  1  0
M  END
$$$$
