SQW.pdb
     RDKit          3D

 30 31  0  0  1  0  0  0  0  0999 V2000
    8.8715  -13.3807   20.7446 O   0  0  0  0  0  0  0  0  0  0  0  0
    8.3849  -13.5393   19.4427 C   0  0  0  0  0  0  0  0  0  0  0  0
    7.7029  -14.8966   19.3064 C   0  0  2  0  0  0  0  0  0  0  0  0
    6.2664  -14.7127   19.1923 N   0  0  0  0  0  0  0  0  0  0  0  0
    8.0585  -15.6989   20.4984 C   0  0  0  0  0  0  0  0  0  0  0  0
    7.2253  -15.7481   21.4399 O   0  0  0  0  0  0  0  0  0  0  0  0
   11.2637  -21.4465   21.1238 N   0  0  0  0  0  0  0  0  0  0  0  0
   11.8095  -20.3525   21.8421 C   0  0  0  0  0  0  0  0  0  0  0  0
   13.0309  -20.2584   22.0372 O   0  0  0  0  0  0  0  0  0  0  0  0
   10.9081  -19.2838   22.3807 C   0  0  0  0  0  0  0  0  0  0  0  0
   10.5038  -18.3981   21.2483 C   0  0  0  0  0  0  0  0  0  0  0  0
    9.5830  -17.3200   21.6823 C   0  0  2  0  0  0  0  0  0  0  0  0
    9.2884  -16.3941   20.5914 N   0  0  0  0  0  0  0  0  0  0  0  0
   10.1263  -16.5653   22.8079 C   0  0  0  0  0  0  0  0  0  0  0  0
   10.9044  -15.6112   22.6891 O   0  0  0  0  0  0  0  0  0  0  0  0
    9.7586  -16.9213   24.1608 N   0  0  0  0  0  0  0  0  0  0  0  0
   10.3130  -16.1878   25.3043 C   0  0  1  0  0  0  0  0  0  0  0  0
    9.7812  -14.7740   25.2196 C   0  0  0  0  0  0  0  0  0  0  0  0
    8.3842  -14.6424   25.6436 C   0  0  0  0  0  0  0  0  0  0  0  0
    7.4533  -15.6516   25.6589 C   0  0  0  0  0  0  0  0  0  0  0  0
    6.3098  -15.1114   26.1123 N   0  0  0  0  0  0  0  0  0  0  0  0
    6.4766  -13.8012   26.3856 C   0  0  0  0  0  0  0  0  0  0  0  0
    5.5975  -12.8387   26.8672 C   0  0  0  0  0  0  0  0  0  0  0  0
    6.0192  -11.5605   27.0600 C   0  0  0  0  0  0  0  0  0  0  0  0
    7.3378  -11.2336   26.7690 C   0  0  0  0  0  0  0  0  0  0  0  0
    8.2094  -12.1883   26.2914 C   0  0  0  0  0  0  0  0  0  0  0  0
    7.7865  -13.4858   26.0943 C   0  0  0  0  0  0  0  0  0  0  0  0
    9.9756  -16.8452   26.5687 C   0  0  0  0  0  0  0  0  0  0  0  0
   10.4503  -16.3807   27.7774 O   0  0  0  0  0  0  0  0  0  0  0  0
    9.2342  -17.8595   26.5595 O   0  0  0  0  0  0  0  0  0  0  0  0
  1  2  1  0
  2  3  1  0
  3  4  1  1
  3  5  1  0
  5  6  2  0
  8  7  1  0
  8  9  2  0
 10 11  1  0
 10  8  1  0
 12 11  1  6
 12 14  1  0
 13  5  1  0
 13 12  1  0
 14 15  2  0
 16 17  1  0
 16 14  1  0
 17 28  1  0
 17 18  1  1
 19 18  1  0
 20 19  2  0
 21 22  1  0
 21 20  1  0
 22 27  2  0
 23 24  2  0
 23 22  1  0
 24 25  1  0
 25 26  2  0
 27 26  1  0
 27 19  1  0
 28 30  2  0
 28 29  1  0
M  END
$$$$
