SQW.pdb
     RDKit          3D

 30 31  0  0  1  0  0  0  0  0999 V2000
    9.5618  -12.4554   20.0102 O   0  0  0  0  0  0  0  0  0  0  0  0
    9.6709  -13.0587   18.7527 C   0  0  0  0  0  0  0  0  0  0  0  0
    8.4289  -13.8980   18.4714 C   0  0  2  0  0  0  0  0  0  0  0  0
    7.2755  -13.0282   18.3186 N   0  0  0  0  0  0  0  0  0  0  0  0
    8.2582  -14.8390   19.6011 C   0  0  0  0  0  0  0  0  0  0  0  0
    7.3724  -14.5738   20.4543 O   0  0  0  0  0  0  0  0  0  0  0  0
    8.8119  -20.7857   19.0192 N   0  0  0  0  0  0  0  0  0  0  0  0
   10.0555  -20.1175   19.1517 C   0  0  0  0  0  0  0  0  0  0  0  0
   11.0605  -20.5044   18.5363 O   0  0  0  0  0  0  0  0  0  0  0  0
   10.1731  -18.9217   20.0468 C   0  0  0  0  0  0  0  0  0  0  0  0
    8.8050  -18.3641   20.2650 C   0  0  0  0  0  0  0  0  0  0  0  0
    8.8429  -16.9802   20.7958 C   0  0  2  0  0  0  0  0  0  0  0  0
    9.0545  -16.0025   19.7312 N   0  0  0  0  0  0  0  0  0  0  0  0
    9.8877  -16.8154   21.8023 C   0  0  0  0  0  0  0  0  0  0  0  0
   11.0354  -16.4296   21.5502 O   0  0  0  0  0  0  0  0  0  0  0  0
    9.6064  -17.1101   23.1902 N   0  0  0  0  0  0  0  0  0  0  0  0
    9.7763  -16.0815   24.2226 C   0  0  1  0  0  0  0  0  0  0  0  0
    8.9193  -14.9033   23.8148 C   0  0  0  0  0  0  0  0  0  0  0  0
    7.8492  -14.5939   24.7675 C   0  0  0  0  0  0  0  0  0  0  0  0
    6.8708  -15.4630   25.1832 C   0  0  0  0  0  0  0  0  0  0  0  0
    6.0998  -14.7858   26.0503 N   0  0  0  0  0  0  0  0  0  0  0  0
    6.5485  -13.5229   26.2022 C   0  0  0  0  0  0  0  0  0  0  0  0
    6.0878  -12.4659   26.9778 C   0  0  0  0  0  0  0  0  0  0  0  0
    6.7294  -11.2674   26.9533 C   0  0  0  0  0  0  0  0  0  0  0  0
    7.8483  -11.1171   26.1435 C   0  0  0  0  0  0  0  0  0  0  0  0
    8.3049  -12.1655   25.3745 C   0  0  0  0  0  0  0  0  0  0  0  0
    7.6577  -13.3829   25.3960 C   0  0  0  0  0  0  0  0  0  0  0  0
    9.4322  -16.6002   25.5483 C   0  0  0  0  0  0  0  0  0  0  0  0
    9.9349  -16.0351   26.7016 O   0  0  0  0  0  0  0  0  0  0  0  0
    8.6591  -17.5858   25.6449 O   0  0  0  0  0  0  0  0  0  0  0  0
  1  2  1  0
  2  3  1  0
  3  4  1  1
  3  5  1  0
  5  6  2  0
  8  7  1  0
  8  9  2  0
 10 11  1  0
 10  8  1  0
 12 11  1  6
 12 14  1  0
 13  5  1  0
 13 12  1  0
 14 15  2  0
 16 17  1  0
 16 14  1  0
 17 28  1  0
 17 18  1  6
 19 18  1  0
 20 19  2  0
 21 22  1  0
 21 20  1  0
 22 27  2  0
 23 24  2  0
 23 22  1  0
 24 25  1  0
 25 26  2  0
 27 26  1  0
 27 19  1  0
 28 30  2  0
 28 29  1  0
M  END
$$$$
