SQW.pdb
     RDKit          3D

 30 31  0  0  1  0  0  0  0  0999 V2000
   10.0652  -13.7299   18.6512 O   0  0  0  0  0  0  0  0  0  0  0  0
    9.1630  -14.2802   17.7346 C   0  0  0  0  0  0  0  0  0  0  0  0
    7.7377  -14.1281   18.2558 C   0  0  2  0  0  0  0  0  0  0  0  0
    7.4104  -12.7183   18.3798 N   0  0  0  0  0  0  0  0  0  0  0  0
    7.6604  -14.8241   19.5598 C   0  0  0  0  0  0  0  0  0  0  0  0
    7.4798  -14.1215   20.5878 O   0  0  0  0  0  0  0  0  0  0  0  0
    5.7814  -18.8276   23.9082 N   0  0  0  0  0  0  0  0  0  0  0  0
    6.0370  -19.0653   22.5339 C   0  0  0  0  0  0  0  0  0  0  0  0
    5.1086  -19.2155   21.7252 O   0  0  0  0  0  0  0  0  0  0  0  0
    7.4479  -19.1385   22.0349 C   0  0  0  0  0  0  0  0  0  0  0  0
    7.5251  -18.3994   20.7395 C   0  0  0  0  0  0  0  0  0  0  0  0
    7.6487  -16.9351   20.9372 C   0  0  2  0  0  0  0  0  0  0  0  0
    7.7818  -16.2309   19.6643 N   0  0  0  0  0  0  0  0  0  0  0  0
    8.7892  -16.5982   21.7844 C   0  0  0  0  0  0  0  0  0  0  0  0
    9.9646  -16.6161   21.4002 O   0  0  0  0  0  0  0  0  0  0  0  0
    8.5765  -16.2149   23.1629 N   0  0  0  0  0  0  0  0  0  0  0  0
    9.7091  -15.8482   24.0206 C   0  0  1  0  0  0  0  0  0  0  0  0
    9.4228  -14.4637   24.5590 C   0  0  0  0  0  0  0  0  0  0  0  0
    8.0958  -14.3295   25.1670 C   0  0  0  0  0  0  0  0  0  0  0  0
    7.1900  -15.3459   25.3456 C   0  0  0  0  0  0  0  0  0  0  0  0
    6.1124  -14.8000   25.9335 N   0  0  0  0  0  0  0  0  0  0  0  0
    6.2969  -13.4793   26.1356 C   0  0  0  0  0  0  0  0  0  0  0  0
    5.4790  -12.5080   26.7002 C   0  0  0  0  0  0  0  0  0  0  0  0
    5.9053  -11.2199   26.7886 C   0  0  0  0  0  0  0  0  0  0  0  0
    7.1666  -10.8918   26.3072 C   0  0  0  0  0  0  0  0  0  0  0  0
    7.9775  -11.8552   25.7473 C   0  0  0  0  0  0  0  0  0  0  0  0
    7.5496  -13.1628   25.6555 C   0  0  0  0  0  0  0  0  0  0  0  0
    9.9120  -16.8377   25.0810 C   0  0  0  0  0  0  0  0  0  0  0  0
    9.1056  -17.9503   25.1994 O   0  0  0  0  0  0  0  0  0  0  0  0
   10.8437  -16.6752   25.9081 O   0  0  0  0  0  0  0  0  0  0  0  0
  1  2  1  0
  2  3  1  0
  3  4  1  1
  3  5  1  0
  5  6  2  0
  8  7  1  0
  8  9  2  0
 10 11  1  0
 10  8  1  0
 12 11  1  6
 12 14  1  0
 13  5  1  0
 13 12  1  0
 14 15  2  0
 16 17  1  0
 16 14  1  0
 17 28  1  0
 17 18  1  1
 19 18  1  0
 20 19  2  0
 21 22  1  0
 21 20  1  0
 22 27  2  0
 23 24  2  0
 23 22  1  0
 24 25  1  0
 25 26  2  0
 27 26  1  0
 27 19  1  0
 28 30  2  0
 28 29  1  0
M  END
$$$$
