SQW.pdb
     RDKit          3D

 30 31  0  0  1  0  0  0  0  0999 V2000
   10.3946  -13.5362   18.9058 O   0  0  0  0  0  0  0  0  0  0  0  0
    9.6317  -14.1402   17.9008 C   0  0  0  0  0  0  0  0  0  0  0  0
    8.1506  -14.0588   18.2553 C   0  0  2  0  0  0  0  0  0  0  0  0
    7.7391  -12.6671   18.3195 N   0  0  0  0  0  0  0  0  0  0  0  0
    7.9617  -14.7451   19.5531 C   0  0  0  0  0  0  0  0  0  0  0  0
    7.7025  -14.0341   20.5583 O   0  0  0  0  0  0  0  0  0  0  0  0
    5.6776  -20.0266   20.7306 N   0  0  0  0  0  0  0  0  0  0  0  0
    6.4025  -19.9431   21.9465 C   0  0  0  0  0  0  0  0  0  0  0  0
    6.0717  -20.6113   22.9378 O   0  0  0  0  0  0  0  0  0  0  0  0
    7.5909  -19.0367   22.0507 C   0  0  0  0  0  0  0  0  0  0  0  0
    7.7401  -18.3097   20.7548 C   0  0  0  0  0  0  0  0  0  0  0  0
    7.8521  -16.8435   20.9453 C   0  0  2  0  0  0  0  0  0  0  0  0
    8.0640  -16.1519   19.6761 N   0  0  0  0  0  0  0  0  0  0  0  0
    8.9382  -16.4982   21.8580 C   0  0  0  0  0  0  0  0  0  0  0  0
   10.1061  -16.3039   21.5002 O   0  0  0  0  0  0  0  0  0  0  0  0
    8.6766  -16.3651   23.2743 N   0  0  0  0  0  0  0  0  0  0  0  0
    9.7511  -15.9940   24.2019 C   0  0  1  0  0  0  0  0  0  0  0  0
    9.4249  -14.6113   24.7222 C   0  0  0  0  0  0  0  0  0  0  0  0
    8.0579  -14.4809   25.2350 C   0  0  0  0  0  0  0  0  0  0  0  0
    7.1411  -15.4977   25.3392 C   0  0  0  0  0  0  0  0  0  0  0  0
    6.0245  -14.9557   25.8535 N   0  0  0  0  0  0  0  0  0  0  0  0
    6.1949  -13.6371   26.0802 C   0  0  0  0  0  0  0  0  0  0  0  0
    5.3394  -12.6699   26.5937 C   0  0  0  0  0  0  0  0  0  0  0  0
    5.7591  -11.3832   26.7239 C   0  0  0  0  0  0  0  0  0  0  0  0
    7.0518  -11.0523   26.3369 C   0  0  0  0  0  0  0  0  0  0  0  0
    7.9000  -12.0117   25.8277 C   0  0  0  0  0  0  0  0  0  0  0  0
    7.4790  -13.3179   25.6937 C   0  0  0  0  0  0  0  0  0  0  0  0
    9.8916  -16.9835   25.2724 C   0  0  0  0  0  0  0  0  0  0  0  0
   10.9449  -16.9457   26.1619 O   0  0  0  0  0  0  0  0  0  0  0  0
    9.0334  -17.8936   25.3895 O   0  0  0  0  0  0  0  0  0  0  0  0
  1  2  1  0
  2  3  1  0
  3  4  1  1
  3  5  1  0
  5  6  2  0
  8  7  1  0
  8  9  2  0
 10 11  1  0
 10  8  1  0
 12 11  1  6
 12 14  1  0
 13  5  1  0
 13 12  1  0
 14 15  2  0
 16 17  1  0
 16 14  1  0
 17 28  1  0
 17 18  1  1
 19 18  1  0
 20 19  2  0
 21 22  1  0
 21 20  1  0
 22 27  2  0
 23 24  2  0
 23 22  1  0
 24 25  1  0
 25 26  2  0
 27 26  1  0
 27 19  1  0
 28 30  2  0
 28 29  1  0
M  END
$$$$
