SQW.pdb
     RDKit          3D

 30 31  0  0  1  0  0  0  0  0999 V2000
    8.7352  -12.6492   20.2888 O   0  0  0  0  0  0  0  0  0  0  0  0
    8.6909  -13.6880   19.3529 C   0  0  0  0  0  0  0  0  0  0  0  0
    7.4812  -14.5768   19.6224 C   0  0  2  0  0  0  0  0  0  0  0  0
    6.2984  -13.7521   19.7991 N   0  0  0  0  0  0  0  0  0  0  0  0
    7.7743  -15.3784   20.8317 C   0  0  0  0  0  0  0  0  0  0  0  0
    7.1340  -15.1096   21.8809 O   0  0  0  0  0  0  0  0  0  0  0  0
   11.0970  -20.3774   19.8366 N   0  0  0  0  0  0  0  0  0  0  0  0
    9.7917  -19.9130   19.5347 C   0  0  0  0  0  0  0  0  0  0  0  0
    9.3778  -19.8770   18.3659 O   0  0  0  0  0  0  0  0  0  0  0  0
    8.8850  -19.4546   20.6360 C   0  0  0  0  0  0  0  0  0  0  0  0
    9.6623  -18.5522   21.5369 C   0  0  0  0  0  0  0  0  0  0  0  0
    8.8847  -17.3541   21.9351 C   0  0  2  0  0  0  0  0  0  0  0  0
    8.7374  -16.4163   20.8248 N   0  0  0  0  0  0  0  0  0  0  0  0
    9.5015  -16.6589   23.0612 C   0  0  0  0  0  0  0  0  0  0  0  0
   10.3057  -15.7269   22.9415 O   0  0  0  0  0  0  0  0  0  0  0  0
    9.1805  -17.0517   24.4159 N   0  0  0  0  0  0  0  0  0  0  0  0
    9.8424  -16.4102   25.5575 C   0  0  1  0  0  0  0  0  0  0  0  0
    8.7866  -16.2098   26.6223 C   0  0  0  0  0  0  0  0  0  0  0  0
    7.6465  -15.4024   26.1785 C   0  0  0  0  0  0  0  0  0  0  0  0
    6.5304  -15.8775   25.5352 C   0  0  0  0  0  0  0  0  0  0  0  0
    5.7373  -14.8168   25.3097 N   0  0  0  0  0  0  0  0  0  0  0  0
    6.3038  -13.6882   25.7834 C   0  0  0  0  0  0  0  0  0  0  0  0
    5.8721  -12.3673   25.7830 C   0  0  0  0  0  0  0  0  0  0  0  0
    6.6447  -11.3937   26.3342 C   0  0  0  0  0  0  0  0  0  0  0  0
    7.8678  -11.7392   26.8955 C   0  0  0  0  0  0  0  0  0  0  0  0
    8.2956  -13.0492   26.8957 C   0  0  0  0  0  0  0  0  0  0  0  0
    7.5157  -14.0402   26.3380 C   0  0  0  0  0  0  0  0  0  0  0  0
   10.9772  -17.2077   26.0278 C   0  0  0  0  0  0  0  0  0  0  0  0
   11.8283  -16.7491   27.0115 O   0  0  0  0  0  0  0  0  0  0  0  0
   11.1867  -18.3406   25.5267 O   0  0  0  0  0  0  0  0  0  0  0  0
  1  2  1  0
  2  3  1  0
  3  4  1  1
  3  5  1  0
  5  6  2  0
  8  7  1  0
  8  9  2  0
 10 11  1  0
 10  8  1  0
 12 11  1  6
 12 14  1  0
 13  5  1  0
 13 12  1  0
 14 15  2  0
 16 17  1  0
 16 14  1  0
 17 28  1  0
 17 18  1  1
 19 18  1  0
 20 19  2  0
 21 22  1  0
 21 20  1  0
 22 27  2  0
 23 24  2  0
 23 22  1  0
 24 25  1  0
 25 26  2  0
 27 26  1  0
 27 19  1  0
 28 30  2  0
 28 29  1  0
M  END
$$$$
