SQW.pdb
     RDKit          3D

 30 31  0  0  1  0  0  0  0  0999 V2000
    8.3125  -11.9926   19.2297 O   0  0  0  0  0  0  0  0  0  0  0  0
    8.2445  -13.0371   20.1578 C   0  0  0  0  0  0  0  0  0  0  0  0
    8.3601  -14.3772   19.4389 C   0  0  2  0  0  0  0  0  0  0  0  0
    7.1516  -14.6265   18.6723 N   0  0  0  0  0  0  0  0  0  0  0  0
    8.5807  -15.4197   20.4662 C   0  0  0  0  0  0  0  0  0  0  0  0
    7.5701  -16.0142   20.9225 O   0  0  0  0  0  0  0  0  0  0  0  0
   13.2777  -19.2500   20.5181 N   0  0  0  0  0  0  0  0  0  0  0  0
   12.5472  -19.7434   21.6288 C   0  0  0  0  0  0  0  0  0  0  0  0
   12.8495  -20.8181   22.1694 O   0  0  0  0  0  0  0  0  0  0  0  0
   11.3876  -18.9641   22.1702 C   0  0  0  0  0  0  0  0  0  0  0  0
   11.2470  -17.7143   21.3650 C   0  0  0  0  0  0  0  0  0  0  0  0
   10.1230  -16.8692   21.8351 C   0  0  2  0  0  0  0  0  0  0  0  0
    9.8774  -15.7499   20.9291 N   0  0  0  0  0  0  0  0  0  0  0  0
   10.3641  -16.3461   23.1768 C   0  0  0  0  0  0  0  0  0  0  0  0
   11.1502  -15.4250   23.4285 O   0  0  0  0  0  0  0  0  0  0  0  0
    9.6624  -16.9104   24.3089 N   0  0  0  0  0  0  0  0  0  0  0  0
    9.9576  -16.4581   25.6731 C   0  0  1  0  0  0  0  0  0  0  0  0
    8.6517  -16.4827   26.4367 C   0  0  0  0  0  0  0  0  0  0  0  0
    7.6313  -15.5836   25.8901 C   0  0  0  0  0  0  0  0  0  0  0  0
    6.5705  -15.9597   25.1036 C   0  0  0  0  0  0  0  0  0  0  0  0
    5.8847  -14.8389   24.8233 N   0  0  0  0  0  0  0  0  0  0  0  0
    6.4663  -13.7671   25.3996 C   0  0  0  0  0  0  0  0  0  0  0  0
    6.1293  -12.4190   25.3945 C   0  0  0  0  0  0  0  0  0  0  0  0
    6.8950  -11.5186   26.0665 C   0  0  0  0  0  0  0  0  0  0  0  0
    8.0153  -11.9663   26.7556 C   0  0  0  0  0  0  0  0  0  0  0  0
    8.3493  -13.3033   26.7605 C   0  0  0  0  0  0  0  0  0  0  0  0
    7.5759  -14.2202   26.0805 C   0  0  0  0  0  0  0  0  0  0  0  0
   10.9925  -17.2879   26.2936 C   0  0  0  0  0  0  0  0  0  0  0  0
   11.6175  -16.9135   27.4647 O   0  0  0  0  0  0  0  0  0  0  0  0
   11.3245  -18.3711   25.7504 O   0  0  0  0  0  0  0  0  0  0  0  0
  1  2  1  0
  2  3  1  0
  3  4  1  1
  3  5  1  0
  5  6  2  0
  8  7  1  0
  8  9  2  0
 10 11  1  0
 10  8  1  0
 12 11  1  6
 12 14  1  0
 13  5  1  0
 13 12  1  0
 14 15  2  0
 16 17  1  0
 16 14  1  0
 17 28  1  0
 17 18  1  1
 19 18  1  0
 20 19  2  0
 21 22  1  0
 21 20  1  0
 22 27  2  0
 23 24  2  0
 23 22  1  0
 24 25  1  0
 25 26  2  0
 27 26  1  0
 27 19  1  0
 28 30  2  0
 28 29  1  0
M  END
$$$$
