SQW.pdb
     RDKit          3D

 30 31  0  0  1  0  0  0  0  0999 V2000
    6.3705  -14.5743   21.7951 O   0  0  0  0  0  0  0  0  0  0  0  0
    7.4644  -14.3003   20.9673 C   0  0  0  0  0  0  0  0  0  0  0  0
    7.9625  -15.5900   20.3233 C   0  0  2  0  0  0  0  0  0  0  0  0
    6.8428  -16.3103   19.7422 N   0  0  0  0  0  0  0  0  0  0  0  0
    8.6375  -16.3844   21.3741 C   0  0  0  0  0  0  0  0  0  0  0  0
    8.0386  -17.3991   21.8154 O   0  0  0  0  0  0  0  0  0  0  0  0
   13.0166  -19.7424   21.8166 N   0  0  0  0  0  0  0  0  0  0  0  0
   12.1458  -18.9976   20.9815 C   0  0  0  0  0  0  0  0  0  0  0  0
   11.3338  -19.5636   20.2339 O   0  0  0  0  0  0  0  0  0  0  0  0
   12.1955  -17.5001   20.9912 C   0  0  0  0  0  0  0  0  0  0  0  0
   12.0650  -17.0368   22.4049 C   0  0  0  0  0  0  0  0  0  0  0  0
   10.6485  -16.8754   22.8124 C   0  0  2  0  0  0  0  0  0  0  0  0
    9.9133  -16.0296   21.8752 N   0  0  0  0  0  0  0  0  0  0  0  0
   10.5326  -16.3066   24.1521 C   0  0  0  0  0  0  0  0  0  0  0  0
   10.9588  -15.1893   24.4678 O   0  0  0  0  0  0  0  0  0  0  0  0
    9.8874  -17.0615   25.2039 N   0  0  0  0  0  0  0  0  0  0  0  0
    9.9666  -16.6173   26.6000 C   0  0  1  0  0  0  0  0  0  0  0  0
    8.5509  -16.5869   27.1327 C   0  0  0  0  0  0  0  0  0  0  0  0
    7.6677  -15.6674   26.4094 C   0  0  0  0  0  0  0  0  0  0  0  0
    6.7661  -16.0218   25.4364 C   0  0  0  0  0  0  0  0  0  0  0  0
    6.1659  -14.8876   25.0386 N   0  0  0  0  0  0  0  0  0  0  0  0
    6.6492  -13.8280   25.7190 C   0  0  0  0  0  0  0  0  0  0  0  0
    6.3442  -12.4737   25.6578 C   0  0  0  0  0  0  0  0  0  0  0  0
    6.9873  -11.5892   26.4659 C   0  0  0  0  0  0  0  0  0  0  0  0
    7.9502  -12.0595   27.3501 C   0  0  0  0  0  0  0  0  0  0  0  0
    8.2524  -13.4027   27.4106 C   0  0  0  0  0  0  0  0  0  0  0  0
    7.6030  -14.3035   26.5931 C   0  0  0  0  0  0  0  0  0  0  0  0
   10.8479  -17.4863   27.3828 C   0  0  0  0  0  0  0  0  0  0  0  0
   11.4421  -18.6026   26.8323 O   0  0  0  0  0  0  0  0  0  0  0  0
   11.0734  -17.2136   28.5884 O   0  0  0  0  0  0  0  0  0  0  0  0
  1  2  1  0
  2  3  1  0
  3  4  1  1
  3  5  1  0
  5  6  2  0
  8  7  1  0
  8  9  2  0
 10 11  1  0
 10  8  1  0
 12 11  1  6
 12 14  1  0
 13  5  1  0
 13 12  1  0
 14 15  2  0
 16 17  1  0
 16 14  1  0
 17 28  1  0
 17 18  1  1
 19 18  1  0
 20 19  2  0
 21 22  1  0
 21 20  1  0
 22 27  2  0
 23 24  2  0
 23 22  1  0
 24 25  1  0
 25 26  2  0
 27 26  1  0
 27 19  1  0
 28 30  2  0
 28 29  1  0
M  END
$$$$
