LPF.pdb
     RDKit          3D

 27 28  0  0  1  0  0  0  0  0999 V2000
    4.5989  -17.9881   22.8612 C   0  0  0  0  0  0  0  0  0  0  0  0
    4.2637  -18.3502   21.3899 C   0  0  1  0  0  0  0  0  0  0  0  0
    2.7498  -18.3987   21.3691 C   0  0  0  0  0  0  0  0  0  0  0  0
    4.8802  -17.2876   20.5707 C   0  0  0  0  0  0  0  0  0  0  0  0
    6.2092  -17.5573   19.9483 C   0  0  2  0  0  0  0  0  0  0  0  0
    6.3627  -18.8989   19.5633 N   0  0  0  0  0  0  0  0  0  0  0  0
    7.3101  -16.9197   20.6838 C   0  0  0  0  0  0  0  0  0  0  0  0
    7.9625  -17.6858   21.4646 O   0  0  0  0  0  0  0  0  0  0  0  0
    7.6880  -15.5671   20.5975 N   0  0  0  0  0  0  0  0  0  0  0  0
    7.2753  -14.6801   19.5322 C   0  0  0  0  0  0  0  0  0  0  0  0
    7.6467  -13.2786   19.9254 C   0  0  0  0  0  0  0  0  0  0  0  0
    8.1516  -13.3679   21.3147 C   0  0  0  0  0  0  0  0  0  0  0  0
    8.5154  -14.8212   21.4913 C   0  0  1  0  0  0  0  0  0  0  0  0
    8.2412  -15.0986   22.9468 C   0  0  0  0  0  0  0  0  0  0  0  0
    7.1215  -14.8699   23.4440 O   0  0  0  0  0  0  0  0  0  0  0  0
    9.2821  -15.6216   23.7263 N   0  0  0  0  0  0  0  0  0  0  0  0
    9.4126  -15.3425   25.1648 C   0  0  1  0  0  0  0  0  0  0  0  0
    8.0296  -15.3726   25.7185 C   0  0  0  0  0  0  0  0  0  0  0  0
    7.4809  -14.0791   26.1286 C   0  0  0  0  0  0  0  0  0  0  0  0
    8.3459  -13.0676   26.5408 C   0  0  0  0  0  0  0  0  0  0  0  0
    7.8125  -11.8537   26.9160 C   0  0  0  0  0  0  0  0  0  0  0  0
    6.4428  -11.6466   26.8828 C   0  0  0  0  0  0  0  0  0  0  0  0
    5.5925  -12.6684   26.4681 C   0  0  0  0  0  0  0  0  0  0  0  0
    6.1177  -13.8869   26.0905 C   0  0  0  0  0  0  0  0  0  0  0  0
   10.2227  -16.4310   25.7464 C   0  0  0  0  0  0  0  0  0  0  0  0
   10.4952  -16.4530   26.9642 O   0  0  0  0  0  0  0  0  0  0  0  0
   10.7170  -17.4756   24.9777 O   0  0  0  0  0  0  0  0  0  0  0  0
  2  1  1  1
  3  2  1  0
  4  2  1  0
  5  4  1  0
  5  6  1  1
  7  8  2  0
  7  5  1  0
  9  7  1  0
 10  9  1  0
 11 10  1  0
 12 11  1  0
 12 13  1  0
 13  9  1  0
 13 14  1  1
 14 15  2  0
 16 14  1  0
 17 16  1  0
 17 18  1  1
 19 18  1  0
 19 20  2  0
 21 20  1  0
 22 21  2  0
 23 24  2  0
 23 22  1  0
 24 19  1  0
 25 17  1  0
 26 25  2  0
 27 25  1  0
M  END
$$$$
