LPF.pdb
     RDKit          3D

 27 28  0  0  1  0  0  0  0  0999 V2000
    7.5397  -11.8725   20.4357 C   0  0  0  0  0  0  0  0  0  0  0  0
    7.5544  -13.3904   20.1131 C   0  0  1  0  0  0  0  0  0  0  0  0
    8.7167  -13.5412   19.1533 C   0  0  0  0  0  0  0  0  0  0  0  0
    7.7086  -14.0701   21.4148 C   0  0  0  0  0  0  0  0  0  0  0  0
    7.5940  -15.5573   21.4527 C   0  0  2  0  0  0  0  0  0  0  0  0
    6.3264  -16.0114   21.0544 N   0  0  0  0  0  0  0  0  0  0  0  0
    8.1821  -16.1320   22.6706 C   0  0  0  0  0  0  0  0  0  0  0  0
    7.4659  -16.0405   23.7198 O   0  0  0  0  0  0  0  0  0  0  0  0
    9.4397  -16.7557   22.7666 N   0  0  0  0  0  0  0  0  0  0  0  0
   10.2061  -17.2070   21.6260 C   0  0  0  0  0  0  0  0  0  0  0  0
   11.5843  -17.5642   22.1051 C   0  0  0  0  0  0  0  0  0  0  0  0
   11.6342  -17.1643   23.5302 C   0  0  0  0  0  0  0  0  0  0  0  0
   10.1872  -17.0623   23.9443 C   0  0  1  0  0  0  0  0  0  0  0  0
   10.1727  -15.9639   24.9758 C   0  0  0  0  0  0  0  0  0  0  0  0
   10.4473  -14.7885   24.6658 O   0  0  0  0  0  0  0  0  0  0  0  0
    9.8410  -16.3021   26.2950 N   0  0  0  0  0  0  0  0  0  0  0  0
   10.1497  -15.4296   27.4386 C   0  0  1  0  0  0  0  0  0  0  0  0
    8.8366  -15.0113   28.0052 C   0  0  0  0  0  0  0  0  0  0  0  0
    8.1175  -13.9833   27.2513 C   0  0  0  0  0  0  0  0  0  0  0  0
    8.6350  -12.6911   27.1897 C   0  0  0  0  0  0  0  0  0  0  0  0
    7.9489  -11.7379   26.4689 C   0  0  0  0  0  0  0  0  0  0  0  0
    6.7683  -12.0615   25.8196 C   0  0  0  0  0  0  0  0  0  0  0  0
    6.2651  -13.3579   25.8915 C   0  0  0  0  0  0  0  0  0  0  0  0
    6.9454  -14.3187   26.6107 C   0  0  0  0  0  0  0  0  0  0  0  0
   10.8955  -16.2448   28.4177 C   0  0  0  0  0  0  0  0  0  0  0  0
   11.3792  -15.7335   29.4483 O   0  0  0  0  0  0  0  0  0  0  0  0
   11.0944  -17.6076   28.2452 O   0  0  0  0  0  0  0  0  0  0  0  0
  2  1  1  1
  3  2  1  0
  4  2  1  0
  5  4  1  0
  5  6  1  1
  7  8  2  0
  7  5  1  0
  9  7  1  0
 10  9  1  0
 11 10  1  0
 12 11  1  0
 12 13  1  0
 13  9  1  0
 13 14  1  1
 14 15  2  0
 16 14  1  0
 17 16  1  0
 17 18  1  1
 19 18  1  0
 19 20  2  0
 21 20  1  0
 22 21  2  0
 23 24  2  0
 23 22  1  0
 24 19  1  0
 25 17  1  0
 26 25  2  0
 27 25  1  0
M  END
$$$$
