LPF.pdb
     RDKit          3D

 27 28  0  0  1  0  0  0  0  0999 V2000
    6.9076  -12.5404   27.2671 C   0  0  0  0  0  0  0  0  0  0  0  0
    6.8595  -12.8322   25.7437 C   0  0  1  0  0  0  0  0  0  0  0  0
    7.6280  -11.6780   25.1337 C   0  0  0  0  0  0  0  0  0  0  0  0
    7.4709  -14.1659   25.5769 C   0  0  0  0  0  0  0  0  0  0  0  0
    7.2188  -14.9040   24.3048 C   0  0  2  0  0  0  0  0  0  0  0  0
    5.8564  -15.1743   24.0985 N   0  0  0  0  0  0  0  0  0  0  0  0
    8.1792  -15.9957   24.0927 C   0  0  0  0  0  0  0  0  0  0  0  0
    8.1308  -16.9405   24.9454 O   0  0  0  0  0  0  0  0  0  0  0  0
    9.1232  -16.0760   23.0524 N   0  0  0  0  0  0  0  0  0  0  0  0
    8.9905  -15.3878   21.7871 C   0  0  0  0  0  0  0  0  0  0  0  0
   10.3001  -15.4981   21.0595 C   0  0  0  0  0  0  0  0  0  0  0  0
   11.2374  -16.1427   22.0076 C   0  0  0  0  0  0  0  0  0  0  0  0
   10.3455  -16.8141   23.0223 C   0  0  1  0  0  0  0  0  0  0  0  0
   11.1282  -16.7453   24.3081 C   0  0  0  0  0  0  0  0  0  0  0  0
   11.8708  -15.7759   24.5564 O   0  0  0  0  0  0  0  0  0  0  0  0
   10.9970  -17.8037   25.2177 N   0  0  0  0  0  0  0  0  0  0  0  0
   11.6221  -17.7865   26.5494 C   0  0  1  0  0  0  0  0  0  0  0  0
   10.5136  -17.5802   27.5234 C   0  0  0  0  0  0  0  0  0  0  0  0
   10.2059  -16.1870   27.8504 C   0  0  0  0  0  0  0  0  0  0  0  0
   10.8237  -15.5880   28.9462 C   0  0  0  0  0  0  0  0  0  0  0  0
   10.5282  -14.2734   29.2346 C   0  0  0  0  0  0  0  0  0  0  0  0
    9.6341  -13.5643   28.4486 C   0  0  0  0  0  0  0  0  0  0  0  0
    9.0256  -14.1784   27.3569 C   0  0  0  0  0  0  0  0  0  0  0  0
    9.3156  -15.4941   27.0605 C   0  0  0  0  0  0  0  0  0  0  0  0
   12.2456  -19.1091   26.7532 C   0  0  0  0  0  0  0  0  0  0  0  0
   12.9957  -19.3259   27.7268 O   0  0  0  0  0  0  0  0  0  0  0  0
   12.0314  -20.1687   25.8827 O   0  0  0  0  0  0  0  0  0  0  0  0
  2  1  1  1
  3  2  1  0
  4  2  1  0
  5  4  1  0
  5  6  1  1
  7  8  2  0
  7  5  1  0
  9  7  1  0
 10  9  1  0
 11 10  1  0
 12 11  1  0
 12 13  1  0
 13  9  1  0
 13 14  1  1
 14 15  2  0
 16 14  1  0
 17 16  1  0
 17 18  1  1
 19 18  1  0
 19 20  2  0
 21 20  1  0
 22 21  2  0
 23 24  2  0
 23 22  1  0
 24 19  1  0
 25 17  1  0
 26 25  2  0
 27 25  1  0
M  END
$$$$
