LPF.pdb
     RDKit          3D

 27 28  0  0  1  0  0  0  0  0999 V2000
    7.7952  -12.2324   19.2874 C   0  0  0  0  0  0  0  0  0  0  0  0
    7.9149  -13.7587   19.0342 C   0  0  1  0  0  0  0  0  0  0  0  0
    9.2086  -13.8924   18.2574 C   0  0  0  0  0  0  0  0  0  0  0  0
    7.9056  -14.3836   20.3720 C   0  0  0  0  0  0  0  0  0  0  0  0
    7.4266  -15.7918   20.4902 C   0  0  2  0  0  0  0  0  0  0  0  0
    6.2303  -16.0156   19.7898 N   0  0  0  0  0  0  0  0  0  0  0  0
    7.5284  -16.3030   21.8640 C   0  0  0  0  0  0  0  0  0  0  0  0
    6.9848  -15.5783   22.7593 O   0  0  0  0  0  0  0  0  0  0  0  0
    8.1634  -17.4954   22.2577 N   0  0  0  0  0  0  0  0  0  0  0  0
    8.4381  -18.5973   21.3619 C   0  0  0  0  0  0  0  0  0  0  0  0
    9.3515  -19.5556   22.0719 C   0  0  0  0  0  0  0  0  0  0  0  0
    9.7139  -18.8993   23.3490 C   0  0  0  0  0  0  0  0  0  0  0  0
    8.6444  -17.8552   23.5534 C   0  0  1  0  0  0  0  0  0  0  0  0
    9.3515  -16.7348   24.2713 C   0  0  0  0  0  0  0  0  0  0  0  0
    9.9806  -15.8639   23.6398 O   0  0  0  0  0  0  0  0  0  0  0  0
    9.2814  -16.7000   25.6708 N   0  0  0  0  0  0  0  0  0  0  0  0
   10.1835  -15.8751   26.4895 C   0  0  1  0  0  0  0  0  0  0  0  0
    9.9984  -14.4724   26.0222 C   0  0  0  0  0  0  0  0  0  0  0  0
    8.7172  -13.8525   26.3638 C   0  0  0  0  0  0  0  0  0  0  0  0
    7.5812  -14.1757   25.6246 C   0  0  0  0  0  0  0  0  0  0  0  0
    6.3819  -13.5886   25.9651 C   0  0  0  0  0  0  0  0  0  0  0  0
    6.3108  -12.6952   27.0220 C   0  0  0  0  0  0  0  0  0  0  0  0
    7.4560  -12.3834   27.7503 C   0  0  0  0  0  0  0  0  0  0  0  0
    8.6609  -12.9665   27.4167 C   0  0  0  0  0  0  0  0  0  0  0  0
    9.7434  -16.0117   27.8920 C   0  0  0  0  0  0  0  0  0  0  0  0
   10.3397  -15.4215   28.8160 O   0  0  0  0  0  0  0  0  0  0  0  0
    8.6550  -16.7942   28.2518 O   0  0  0  0  0  0  0  0  0  0  0  0
  2  1  1  1
  3  2  1  0
  4  2  1  0
  5  4  1  0
  5  6  1  1
  7  8  2  0
  7  5  1  0
  9  7  1  0
 10  9  1  0
 11 10  1  0
 12 11  1  0
 12 13  1  0
 13  9  1  0
 13 14  1  6
 14 15  2  0
 16 14  1  0
 17 16  1  0
 17 18  1  6
 19 18  1  0
 19 20  2  0
 21 20  1  0
 22 21  2  0
 23 24  2  0
 23 22  1  0
 24 19  1  0
 25 17  1  0
 26 25  2  0
 27 25  1  0
M  END
$$$$
