LPF.pdb
     RDKit          3D

 27 28  0  0  1  0  0  0  0  0999 V2000
    6.9531  -20.9830   19.3371 C   0  0  0  0  0  0  0  0  0  0  0  0
    7.6093  -19.8854   18.4579 C   0  0  1  0  0  0  0  0  0  0  0  0
    6.4400  -19.2802   17.7087 C   0  0  0  0  0  0  0  0  0  0  0  0
    8.2995  -18.9831   19.4012 C   0  0  0  0  0  0  0  0  0  0  0  0
    8.8966  -17.7248   18.8659 C   0  0  2  0  0  0  0  0  0  0  0  0
    9.7981  -17.9595   17.8152 N   0  0  0  0  0  0  0  0  0  0  0  0
    9.3061  -16.8024   19.9339 C   0  0  0  0  0  0  0  0  0  0  0  0
   10.4926  -16.9611   20.3689 O   0  0  0  0  0  0  0  0  0  0  0  0
    8.5122  -15.7878   20.4996 N   0  0  0  0  0  0  0  0  0  0  0  0
    7.2808  -15.3053   19.9138 C   0  0  0  0  0  0  0  0  0  0  0  0
    6.5957  -14.4331   20.9269 C   0  0  0  0  0  0  0  0  0  0  0  0
    7.3962  -14.5474   22.1676 C   0  0  0  0  0  0  0  0  0  0  0  0
    8.7391  -15.0555   21.7046 C   0  0  1  0  0  0  0  0  0  0  0  0
    9.2290  -15.9054   22.8484 C   0  0  0  0  0  0  0  0  0  0  0  0
    8.7450  -17.0335   23.0632 O   0  0  0  0  0  0  0  0  0  0  0  0
   10.2456  -15.3905   23.6646 N   0  0  0  0  0  0  0  0  0  0  0  0
   10.3673  -15.7326   25.0903 C   0  0  1  0  0  0  0  0  0  0  0  0
   10.0963  -14.4746   25.8415 C   0  0  0  0  0  0  0  0  0  0  0  0
   10.1019  -14.5918   27.3005 C   0  0  0  0  0  0  0  0  0  0  0  0
   10.9955  -15.4671   27.9140 C   0  0  0  0  0  0  0  0  0  0  0  0
   10.9923  -15.5588   29.2889 C   0  0  0  0  0  0  0  0  0  0  0  0
   10.1165  -14.7944   30.0431 C   0  0  0  0  0  0  0  0  0  0  0  0
    9.2300  -13.9244   29.4137 C   0  0  0  0  0  0  0  0  0  0  0  0
    9.2262  -13.8260   28.0377 C   0  0  0  0  0  0  0  0  0  0  0  0
    9.3296  -16.7406   25.3849 C   0  0  0  0  0  0  0  0  0  0  0  0
    9.5881  -17.7523   26.0684 O   0  0  0  0  0  0  0  0  0  0  0  0
    8.0267  -16.6162   24.9229 O   0  0  0  0  0  0  0  0  0  0  0  0
  2  1  1  1
  3  2  1  0
  4  2  1  0
  5  4  1  0
  5  6  1  1
  7  8  2  0
  7  5  1  0
  9  7  1  0
 10  9  1  0
 11 10  1  0
 12 11  1  0
 12 13  1  0
 13  9  1  0
 13 14  1  1
 14 15  2  0
 16 14  1  0
 17 16  1  0
 17 18  1  1
 19 18  1  0
 19 20  2  0
 21 20  1  0
 22 21  2  0
 23 24  2  0
 23 22  1  0
 24 19  1  0
 25 17  1  0
 26 25  2  0
 27 25  1  0
M  END
$$$$
