LPF.pdb
     RDKit          3D

 27 28  0  0  1  0  0  0  0  0999 V2000
    6.1078  -12.7364   25.0425 C   0  0  0  0  0  0  0  0  0  0  0  0
    6.9793  -13.5363   26.0469 C   0  0  1  0  0  0  0  0  0  0  0  0
    7.0917  -12.6100   27.2403 C   0  0  0  0  0  0  0  0  0  0  0  0
    6.2511  -14.7987   26.2845 C   0  0  0  0  0  0  0  0  0  0  0  0
    6.1933  -15.7992   25.1790 C   0  0  2  0  0  0  0  0  0  0  0  0
    5.3378  -16.8745   25.4683 N   0  0  0  0  0  0  0  0  0  0  0  0
    7.5221  -16.1024   24.6300 C   0  0  0  0  0  0  0  0  0  0  0  0
    8.3411  -16.6397   25.4442 O   0  0  0  0  0  0  0  0  0  0  0  0
    7.9498  -15.8509   23.3133 N   0  0  0  0  0  0  0  0  0  0  0  0
    7.1107  -15.2680   22.2895 C   0  0  0  0  0  0  0  0  0  0  0  0
    7.9848  -14.9110   21.1210 C   0  0  0  0  0  0  0  0  0  0  0  0
    9.3750  -15.1692   21.5611 C   0  0  0  0  0  0  0  0  0  0  0  0
    9.2313  -16.1046   22.7359 C   0  0  1  0  0  0  0  0  0  0  0  0
   10.3848  -15.7483   23.6377 C   0  0  0  0  0  0  0  0  0  0  0  0
   11.0253  -14.6919   23.4736 O   0  0  0  0  0  0  0  0  0  0  0  0
   10.7171  -16.6396   24.6672 N   0  0  0  0  0  0  0  0  0  0  0  0
   12.0794  -16.7492   25.2119 C   0  0  1  0  0  0  0  0  0  0  0  0
   12.3517  -15.4591   25.9058 C   0  0  0  0  0  0  0  0  0  0  0  0
   11.4481  -15.1274   27.0085 C   0  0  0  0  0  0  0  0  0  0  0  0
   11.5076  -15.8655   28.1886 C   0  0  0  0  0  0  0  0  0  0  0  0
   10.6548  -15.5343   29.2191 C   0  0  0  0  0  0  0  0  0  0  0  0
    9.7574  -14.4875   29.0810 C   0  0  0  0  0  0  0  0  0  0  0  0
    9.7113  -13.7600   27.8946 C   0  0  0  0  0  0  0  0  0  0  0  0
   10.5613  -14.0844   26.8576 C   0  0  0  0  0  0  0  0  0  0  0  0
   12.0709  -17.8624   26.1815 C   0  0  0  0  0  0  0  0  0  0  0  0
   13.1025  -18.1813   26.8072 O   0  0  0  0  0  0  0  0  0  0  0  0
   10.9272  -18.6033   26.4454 O   0  0  0  0  0  0  0  0  0  0  0  0
  2  1  1  6
  3  2  1  0
  4  2  1  0
  5  4  1  0
  5  6  1  1
  7  8  2  0
  7  5  1  0
  9  7  1  0
 10  9  1  0
 11 10  1  0
 12 11  1  0
 12 13  1  0
 13  9  1  0
 13 14  1  1
 14 15  2  0
 16 14  1  0
 17 16  1  0
 17 18  1  1
 19 18  1  0
 19 20  2  0
 21 20  1  0
 22 21  2  0
 23 24  2  0
 23 22  1  0
 24 19  1  0
 25 17  1  0
 26 25  2  0
 27 25  1  0
M  END
$$$$
