LPF.pdb
     RDKit          3D

 27 28  0  0  1  0  0  0  0  0999 V2000
    5.9121  -12.7567   27.6121 C   0  0  0  0  0  0  0  0  0  0  0  0
    6.0293  -12.7882   26.0650 C   0  0  1  0  0  0  0  0  0  0  0  0
    6.4596  -11.3798   25.7097 C   0  0  0  0  0  0  0  0  0  0  0  0
    7.0096  -13.8507   25.7641 C   0  0  0  0  0  0  0  0  0  0  0  0
    6.5119  -15.1186   25.1550 C   0  0  2  0  0  0  0  0  0  0  0  0
    5.6912  -15.8510   26.0277 N   0  0  0  0  0  0  0  0  0  0  0  0
    7.5658  -15.8408   24.4290 C   0  0  0  0  0  0  0  0  0  0  0  0
    8.1748  -16.7376   25.0977 O   0  0  0  0  0  0  0  0  0  0  0  0
    7.9459  -15.6242   23.0917 N   0  0  0  0  0  0  0  0  0  0  0  0
    7.1916  -14.8161   22.1589 C   0  0  0  0  0  0  0  0  0  0  0  0
    8.0397  -14.6044   20.9372 C   0  0  0  0  0  0  0  0  0  0  0  0
    9.3621  -15.1901   21.2554 C   0  0  0  0  0  0  0  0  0  0  0  0
    9.0923  -16.1286   22.4053 C   0  0  1  0  0  0  0  0  0  0  0  0
   10.3570  -16.0869   23.2235 C   0  0  0  0  0  0  0  0  0  0  0  0
   11.3286  -15.3920   22.8683 O   0  0  0  0  0  0  0  0  0  0  0  0
   10.4094  -16.8524   24.3965 N   0  0  0  0  0  0  0  0  0  0  0  0
   11.6572  -17.0728   25.1441 C   0  0  1  0  0  0  0  0  0  0  0  0
   12.0885  -15.7326   25.6320 C   0  0  0  0  0  0  0  0  0  0  0  0
   11.3861  -15.2301   26.8138 C   0  0  0  0  0  0  0  0  0  0  0  0
   11.3607  -16.0002   27.9745 C   0  0  0  0  0  0  0  0  0  0  0  0
   10.7015  -15.5080   29.0800 C   0  0  0  0  0  0  0  0  0  0  0  0
   10.0774  -14.2716   29.0346 C   0  0  0  0  0  0  0  0  0  0  0  0
   10.1127  -13.5148   27.8662 C   0  0  0  0  0  0  0  0  0  0  0  0
   10.7704  -13.9996   26.7547 C   0  0  0  0  0  0  0  0  0  0  0  0
   11.3309  -17.9536   26.2831 C   0  0  0  0  0  0  0  0  0  0  0  0
   10.1489  -18.2523   26.5501 O   0  0  0  0  0  0  0  0  0  0  0  0
   12.3111  -18.4904   27.1062 O   0  0  0  0  0  0  0  0  0  0  0  0
  2  1  1  1
  3  2  1  0
  4  2  1  0
  5  4  1  0
  5  6  1  1
  7  8  2  0
  7  5  1  0
  9  7  1  0
 10  9  1  0
 11 10  1  0
 12 11  1  0
 12 13  1  0
 13  9  1  0
 13 14  1  1
 14 15  2  0
 16 14  1  0
 17 16  1  0
 17 18  1  1
 19 18  1  0
 19 20  2  0
 21 20  1  0
 22 21  2  0
 23 24  2  0
 23 22  1  0
 24 19  1  0
 25 17  1  0
 26 25  2  0
 27 25  1  0
M  END
$$$$
