LPF.pdb
     RDKit          3D

 27 28  0  0  1  0  0  0  0  0999 V2000
    8.0755  -12.2264   19.3019 C   0  0  0  0  0  0  0  0  0  0  0  0
    7.9906  -13.7621   19.0959 C   0  0  1  0  0  0  0  0  0  0  0  0
    9.1655  -14.0673   18.1897 C   0  0  0  0  0  0  0  0  0  0  0  0
    8.0593  -14.3473   20.4499 C   0  0  0  0  0  0  0  0  0  0  0  0
    7.8382  -15.8156   20.5965 C   0  0  2  0  0  0  0  0  0  0  0  0
    6.6808  -16.2560   19.9345 N   0  0  0  0  0  0  0  0  0  0  0  0
    8.0661  -16.2802   21.9718 C   0  0  0  0  0  0  0  0  0  0  0  0
    7.3645  -15.7064   22.8666 O   0  0  0  0  0  0  0  0  0  0  0  0
    8.9744  -17.2795   22.3672 N   0  0  0  0  0  0  0  0  0  0  0  0
    9.5738  -18.2311   21.4576 C   0  0  0  0  0  0  0  0  0  0  0  0
   10.6731  -18.9451   22.1915 C   0  0  0  0  0  0  0  0  0  0  0  0
   10.7870  -18.2718   23.5055 C   0  0  0  0  0  0  0  0  0  0  0  0
    9.4707  -17.5552   23.6777 C   0  0  1  0  0  0  0  0  0  0  0  0
    9.8205  -16.3201   24.4668 C   0  0  0  0  0  0  0  0  0  0  0  0
   10.2247  -15.2878   23.8976 O   0  0  0  0  0  0  0  0  0  0  0  0
    9.6782  -16.3654   25.8605 N   0  0  0  0  0  0  0  0  0  0  0  0
   10.4481  -15.4968   26.7646 C   0  0  1  0  0  0  0  0  0  0  0  0
   10.0779  -14.0982   26.4082 C   0  0  0  0  0  0  0  0  0  0  0  0
    8.7196  -13.6888   26.7683 C   0  0  0  0  0  0  0  0  0  0  0  0
    7.6461  -14.1173   25.9904 C   0  0  0  0  0  0  0  0  0  0  0  0
    6.3735  -13.7287   26.3487 C   0  0  0  0  0  0  0  0  0  0  0  0
    6.1692  -12.9278   27.4609 C   0  0  0  0  0  0  0  0  0  0  0  0
    7.2535  -12.5086   28.2275 C   0  0  0  0  0  0  0  0  0  0  0  0
    8.5311  -12.8929   27.8763 C   0  0  0  0  0  0  0  0  0  0  0  0
   10.0134  -15.8086   28.1406 C   0  0  0  0  0  0  0  0  0  0  0  0
    9.0551  -16.5787   28.3559 O   0  0  0  0  0  0  0  0  0  0  0  0
   10.6417  -15.2683   29.2540 O   0  0  0  0  0  0  0  0  0  0  0  0
  2  1  1  1
  3  2  1  0
  4  2  1  0
  5  4  1  0
  5  6  1  1
  7  8  2  0
  7  5  1  0
  9  7  1  0
 10  9  1  0
 11 10  1  0
 12 11  1  0
 12 13  1  0
 13  9  1  0
 13 14  1  1
 14 15  2  0
 16 14  1  0
 17 16  1  0
 17 18  1  6
 19 18  1  0
 19 20  2  0
 21 20  1  0
 22 21  2  0
 23 24  2  0
 23 22  1  0
 24 19  1  0
 25 17  1  0
 26 25  2  0
 27 25  1  0
M  END
$$$$
