LPF.pdb
     RDKit          3D

 27 28  0  0  1  0  0  0  0  0999 V2000
    7.8857  -12.0404   19.4474 C   0  0  0  0  0  0  0  0  0  0  0  0
    7.8311  -13.5641   19.1584 C   0  0  1  0  0  0  0  0  0  0  0  0
    9.0570  -13.8105   18.3033 C   0  0  0  0  0  0  0  0  0  0  0  0
    7.8337  -14.2182   20.4823 C   0  0  0  0  0  0  0  0  0  0  0  0
    7.6142  -15.6929   20.5415 C   0  0  2  0  0  0  0  0  0  0  0  0
    6.4925  -16.1018   19.8025 N   0  0  0  0  0  0  0  0  0  0  0  0
    7.7784  -16.2278   21.9002 C   0  0  0  0  0  0  0  0  0  0  0  0
    7.2081  -15.5611   22.8235 O   0  0  0  0  0  0  0  0  0  0  0  0
    8.4979  -17.3847   22.2520 N   0  0  0  0  0  0  0  0  0  0  0  0
    8.8181  -18.4488   21.3260 C   0  0  0  0  0  0  0  0  0  0  0  0
    9.8089  -19.3607   21.9920 C   0  0  0  0  0  0  0  0  0  0  0  0
   10.1625  -18.7082   23.2735 C   0  0  0  0  0  0  0  0  0  0  0  0
    9.0348  -17.7389   23.5272 C   0  0  1  0  0  0  0  0  0  0  0  0
    9.6882  -16.5901   24.2511 C   0  0  0  0  0  0  0  0  0  0  0  0
   10.4439  -15.8006   23.6523 O   0  0  0  0  0  0  0  0  0  0  0  0
    9.4215  -16.4346   25.6184 N   0  0  0  0  0  0  0  0  0  0  0  0
   10.3176  -15.6964   26.5219 C   0  0  1  0  0  0  0  0  0  0  0  0
   10.0595  -14.2508   26.2693 C   0  0  0  0  0  0  0  0  0  0  0  0
    8.7158  -13.7770   26.6047 C   0  0  0  0  0  0  0  0  0  0  0  0
    7.6511  -14.0819   25.7594 C   0  0  0  0  0  0  0  0  0  0  0  0
    6.3917  -13.6343   26.0948 C   0  0  0  0  0  0  0  0  0  0  0  0
    6.1918  -12.8961   27.2503 C   0  0  0  0  0  0  0  0  0  0  0  0
    7.2672  -12.6004   28.0841 C   0  0  0  0  0  0  0  0  0  0  0  0
    8.5315  -13.0444   27.7563 C   0  0  0  0  0  0  0  0  0  0  0  0
    9.9330  -16.0535   27.9018 C   0  0  0  0  0  0  0  0  0  0  0  0
   10.5193  -15.5556   28.8846 O   0  0  0  0  0  0  0  0  0  0  0  0
    8.9099  -16.9509   28.1746 O   0  0  0  0  0  0  0  0  0  0  0  0
  2  1  1  1
  3  2  1  0
  4  2  1  0
  5  4  1  0
  5  6  1  1
  7  8  2  0
  7  5  1  0
  9  7  1  0
 10  9  1  0
 11 10  1  0
 12 11  1  0
 12 13  1  0
 13  9  1  0
 13 14  1  6
 14 15  2  0
 16 14  1  0
 17 16  1  0
 17 18  1  1
 19 18  1  0
 19 20  2  0
 21 20  1  0
 22 21  2  0
 23 24  2  0
 23 22  1  0
 24 19  1  0
 25 17  1  0
 26 25  2  0
 27 25  1  0
M  END
$$$$
