FTS.pdb
     RDKit          3D

 25 25  0  0  1  0  0  0  0  0999 V2000
    5.8331  -17.2253   25.7922 N   0  0  0  0  0  0  0  0  0  0  0  0
    6.5889  -16.1277   25.1964 C   0  0  1  0  0  0  0  0  0  0  0  0
    7.4919  -15.5137   26.2318 C   0  0  0  0  0  0  0  0  0  0  0  0
    7.1900  -14.1172   26.5300 C   0  0  0  0  0  0  0  0  0  0  0  0
    7.7335  -13.1197   25.7572 C   0  0  0  0  0  0  0  0  0  0  0  0
    7.4928  -11.7731   25.9790 C   0  0  0  0  0  0  0  0  0  0  0  0
    6.6624  -11.4509   27.0353 C   0  0  0  0  0  0  0  0  0  0  0  0
    6.1047  -12.4337   27.8253 C   0  0  0  0  0  0  0  0  0  0  0  0
    6.3687  -13.7612   27.5721 C   0  0  0  0  0  0  0  0  0  0  0  0
    7.4771  -16.6478   24.1008 C   0  0  0  0  0  0  0  0  0  0  0  0
    7.9692  -17.8053   24.1319 O   0  0  0  0  0  0  0  0  0  0  0  0
    9.1184  -15.8964   19.5615 C   0  0  0  0  0  0  0  0  0  0  0  0
    8.1347  -15.5977   20.6637 C   0  0  1  0  0  0  0  0  0  0  0  0
    6.8401  -15.9379   20.3393 O   0  0  0  0  0  0  0  0  0  0  0  0
    8.6249  -16.2846   21.9208 C   0  0  2  0  0  0  0  0  0  0  0  0
    7.7621  -15.8028   23.0068 N   0  0  0  0  0  0  0  0  0  0  0  0
   10.0357  -15.9401   22.2190 C   0  0  0  0  0  0  0  0  0  0  0  0
   10.2893  -14.8667   22.8166 O   0  0  0  0  0  0  0  0  0  0  0  0
   12.2624  -18.1128   23.8984 O   0  0  0  0  0  0  0  0  0  0  0  0
   12.7001  -16.8299   23.6427 C   0  0  0  0  0  0  0  0  0  0  0  0
   12.4822  -16.4949   22.1626 C   0  0  2  0  0  0  0  0  0  0  0  0
   11.1040  -16.7952   21.8448 N   0  0  0  0  0  0  0  0  0  0  0  0
   13.3913  -17.3720   21.3933 C   0  0  0  0  0  0  0  0  0  0  0  0
   12.9048  -18.2440   20.6349 O   0  0  0  0  0  0  0  0  0  0  0  0
   14.7609  -17.2524   21.4911 O   0  0  0  0  0  0  0  0  0  0  0  0
  2 10  1  0
  2  1  1  1
  3  2  1  0
  4  3  1  0
  5  4  2  0
  6  5  1  0
  7  6  2  0
  7  8  1  0
  8  9  2  0
  9  4  1  0
 10 11  2  0
 13 12  1  6
 13 14  1  0
 15 13  1  0
 15 16  1  1
 16 10  1  0
 17 22  1  0
 17 15  1  0
 18 17  2  0
 20 19  1  0
 21 20  1  1
 21 22  1  0
 23 25  1  0
 23 21  1  0
 24 23  2  0
M  END
$$$$
