FTS.pdb
     RDKit          3D

 25 25  0  0  1  0  0  0  0  0999 V2000
    6.0806  -15.7060   22.7723 N   0  0  0  0  0  0  0  0  0  0  0  0
    7.3368  -15.3522   23.4263 C   0  0  1  0  0  0  0  0  0  0  0  0
    7.1263  -15.2638   24.9137 C   0  0  0  0  0  0  0  0  0  0  0  0
    6.9880  -13.8995   25.4138 C   0  0  0  0  0  0  0  0  0  0  0  0
    5.7643  -13.4512   25.8487 C   0  0  0  0  0  0  0  0  0  0  0  0
    5.5561  -12.1708   26.3363 C   0  0  0  0  0  0  0  0  0  0  0  0
    6.6511  -11.3291   26.3740 C   0  0  0  0  0  0  0  0  0  0  0  0
    7.8895  -11.7556   25.9433 C   0  0  0  0  0  0  0  0  0  0  0  0
    8.0553  -13.0362   25.4654 C   0  0  0  0  0  0  0  0  0  0  0  0
    8.3594  -16.4298   23.1970 C   0  0  0  0  0  0  0  0  0  0  0  0
    8.3199  -17.1862   22.1924 O   0  0  0  0  0  0  0  0  0  0  0  0
   12.5950  -17.5047   22.5482 C   0  0  0  0  0  0  0  0  0  0  0  0
   11.2465  -16.8428   22.6712 C   0  0  1  0  0  0  0  0  0  0  0  0
   10.5137  -16.8889   21.5060 O   0  0  0  0  0  0  0  0  0  0  0  0
   10.5258  -17.4743   23.8435 C   0  0  2  0  0  0  0  0  0  0  0  0
    9.3929  -16.5901   24.1449 N   0  0  0  0  0  0  0  0  0  0  0  0
   11.4028  -17.5791   25.0342 C   0  0  0  0  0  0  0  0  0  0  0  0
   12.0531  -16.5723   25.4046 O   0  0  0  0  0  0  0  0  0  0  0  0
   10.2946  -19.9603   27.9269 O   0  0  0  0  0  0  0  0  0  0  0  0
   11.6621  -20.0776   27.7891 C   0  0  0  0  0  0  0  0  0  0  0  0
   12.2115  -18.8624   27.0330 C   0  0  2  0  0  0  0  0  0  0  0  0
   11.5235  -18.7899   25.7634 N   0  0  0  0  0  0  0  0  0  0  0  0
   13.6543  -19.1128   26.8237 C   0  0  0  0  0  0  0  0  0  0  0  0
   14.0505  -19.5102   25.7024 O   0  0  0  0  0  0  0  0  0  0  0  0
   14.5725  -18.9193   27.8331 O   0  0  0  0  0  0  0  0  0  0  0  0
  2 10  1  0
  2  1  1  6
  3  2  1  0
  4  3  1  0
  5  4  2  0
  6  5  1  0
  7  6  2  0
  7  8  1  0
  8  9  2  0
  9  4  1  0
 10 11  2  0
 13 12  1  6
 13 14  1  0
 15 13  1  0
 15 16  1  1
 16 10  1  0
 17 22  1  0
 17 15  1  0
 18 17  2  0
 20 19  1  0
 21 20  1  1
 21 22  1  0
 23 25  1  0
 23 21  1  0
 24 23  2  0
M  END
$$$$
