FTS.pdb
     RDKit          3D

 25 25  0  0  1  0  0  0  0  0999 V2000
    5.7213  -18.0986   25.8187 N   0  0  0  0  0  0  0  0  0  0  0  0
    6.2013  -16.7548   25.5113 C   0  0  1  0  0  0  0  0  0  0  0  0
    6.8230  -16.1457   26.7388 C   0  0  0  0  0  0  0  0  0  0  0  0
    6.9841  -14.6968   26.6662 C   0  0  0  0  0  0  0  0  0  0  0  0
    8.2434  -14.1507   26.6080 C   0  0  0  0  0  0  0  0  0  0  0  0
    8.4749  -12.7861   26.5374 C   0  0  0  0  0  0  0  0  0  0  0  0
    7.3658  -11.9623   26.5268 C   0  0  0  0  0  0  0  0  0  0  0  0
    6.0917  -12.4863   26.5844 C   0  0  0  0  0  0  0  0  0  0  0  0
    5.9036  -13.8485   26.6537 C   0  0  0  0  0  0  0  0  0  0  0  0
    7.2797  -16.8186   24.4660 C   0  0  0  0  0  0  0  0  0  0  0  0
    8.1294  -17.7462   24.4377 O   0  0  0  0  0  0  0  0  0  0  0  0
    9.0244  -14.6880   20.3965 C   0  0  0  0  0  0  0  0  0  0  0  0
    7.8909  -14.8581   21.3752 C   0  0  1  0  0  0  0  0  0  0  0  0
    6.6958  -15.1744   20.7681 O   0  0  0  0  0  0  0  0  0  0  0  0
    8.3169  -15.8845   22.4036 C   0  0  2  0  0  0  0  0  0  0  0  0
    7.3322  -15.8008   23.4895 N   0  0  0  0  0  0  0  0  0  0  0  0
    9.6694  -15.5964   22.9379 C   0  0  0  0  0  0  0  0  0  0  0  0
    9.9294  -14.4411   23.3521 O   0  0  0  0  0  0  0  0  0  0  0  0
   12.1781  -18.6800   23.1533 O   0  0  0  0  0  0  0  0  0  0  0  0
   12.5935  -17.6562   23.9791 C   0  0  0  0  0  0  0  0  0  0  0  0
   12.0052  -16.3273   23.4910 C   0  0  2  0  0  0  0  0  0  0  0  0
   10.6751  -16.5954   22.9916 N   0  0  0  0  0  0  0  0  0  0  0  0
   12.8811  -15.8550   22.3966 C   0  0  0  0  0  0  0  0  0  0  0  0
   12.4631  -15.8990   21.2153 O   0  0  0  0  0  0  0  0  0  0  0  0
   14.1459  -15.3677   22.6460 O   0  0  0  0  0  0  0  0  0  0  0  0
  2 10  1  0
  2  1  1  1
  3  2  1  0
  4  3  1  0
  5  4  2  0
  6  5  1  0
  7  6  2  0
  7  8  1  0
  8  9  2  0
  9  4  1  0
 10 11  2  0
 13 12  1  6
 13 14  1  0
 15 13  1  0
 15 16  1  1
 16 10  1  0
 17 22  1  0
 17 15  1  0
 18 17  2  0
 20 19  1  0
 21 20  1  6
 21 22  1  0
 23 25  1  0
 23 21  1  0
 24 23  2  0
M  END
$$$$
