FTS.pdb
     RDKit          3D

 25 25  0  0  1  0  0  0  0  0999 V2000
    5.6045  -17.2218   25.5947 N   0  0  0  0  0  0  0  0  0  0  0  0
    6.4839  -16.1342   25.1771 C   0  0  1  0  0  0  0  0  0  0  0  0
    7.2573  -15.6241   26.3629 C   0  0  0  0  0  0  0  0  0  0  0  0
    7.1167  -14.1893   26.5910 C   0  0  0  0  0  0  0  0  0  0  0  0
    8.2276  -13.3813   26.5701 C   0  0  0  0  0  0  0  0  0  0  0  0
    8.1727  -12.0122   26.7776 C   0  0  0  0  0  0  0  0  0  0  0  0
    6.9267  -11.4640   27.0143 C   0  0  0  0  0  0  0  0  0  0  0  0
    5.7969  -12.2539   27.0403 C   0  0  0  0  0  0  0  0  0  0  0  0
    5.8935  -13.6111   26.8293 C   0  0  0  0  0  0  0  0  0  0  0  0
    7.4947  -16.6395   24.1859 C   0  0  0  0  0  0  0  0  0  0  0  0
    8.0390  -17.7679   24.3022 O   0  0  0  0  0  0  0  0  0  0  0  0
    7.1362  -15.5068   20.5301 C   0  0  0  0  0  0  0  0  0  0  0  0
    8.6036  -15.4452   20.8689 C   0  0  1  0  0  0  0  0  0  0  0  0
    9.0750  -14.1575   20.9968 O   0  0  0  0  0  0  0  0  0  0  0  0
    8.8271  -16.2787   22.1130 C   0  0  2  0  0  0  0  0  0  0  0  0
    7.8374  -15.8143   23.0933 N   0  0  0  0  0  0  0  0  0  0  0  0
   10.1921  -16.0914   22.6604 C   0  0  0  0  0  0  0  0  0  0  0  0
   10.4942  -14.9931   23.1860 O   0  0  0  0  0  0  0  0  0  0  0  0
   12.4653  -19.3123   22.9566 O   0  0  0  0  0  0  0  0  0  0  0  0
   13.0001  -18.2560   23.6643 C   0  0  0  0  0  0  0  0  0  0  0  0
   12.5229  -16.9321   23.0562 C   0  0  2  0  0  0  0  0  0  0  0  0
   11.1632  -17.1239   22.6036 N   0  0  0  0  0  0  0  0  0  0  0  0
   13.4129  -16.6498   21.9089 C   0  0  0  0  0  0  0  0  0  0  0  0
   12.9399  -16.6680   20.7478 O   0  0  0  0  0  0  0  0  0  0  0  0
   14.7500  -16.3675   22.0874 O   0  0  0  0  0  0  0  0  0  0  0  0
  2 10  1  0
  2  1  1  1
  3  2  1  0
  4  3  1  0
  5  4  2  0
  6  5  1  0
  7  6  2  0
  7  8  1  0
  8  9  2  0
  9  4  1  0
 10 11  2  0
 13 12  1  1
 13 14  1  0
 15 13  1  0
 15 16  1  1
 16 10  1  0
 17 22  1  0
 17 15  1  0
 18 17  2  0
 20 19  1  0
 21 20  1  6
 21 22  1  0
 23 25  1  0
 23 21  1  0
 24 23  2  0
M  END
$$$$
