AAI.pdb
     RDKit          3D

 19 18  0  0  1  0  0  0  0  0999 V2000
   17.3116  -14.2776  -16.7029 C   0  0  0  0  0  0  0  0  0  0  0  0
   17.6876  -13.8042  -18.0897 C   0  0  2  0  0  0  0  0  0  0  0  0
   18.4287  -14.8662  -18.7386 N   0  0  0  0  0  0  0  0  0  0  0  0
   18.5632  -12.6029  -17.9914 C   0  0  0  0  0  0  0  0  0  0  0  0
   19.7811  -12.6830  -17.6868 O   0  0  0  0  0  0  0  0  0  0  0  0
   18.0687   -8.9525  -18.6210 C   0  0  0  0  0  0  0  0  0  0  0  0
   18.9436  -10.1494  -18.2209 C   0  0  2  0  0  0  0  0  0  0  0  0
   18.0487  -11.3012  -18.2417 N   0  0  0  0  0  0  0  0  0  0  0  0
   19.4137   -9.8591  -16.8435 C   0  0  0  0  0  0  0  0  0  0  0  0
   18.6582  -10.1807  -15.8953 O   0  0  0  0  0  0  0  0  0  0  0  0
   22.8046  -10.7706  -12.7569 C   0  0  0  0  0  0  0  0  0  0  0  0
   23.0110   -9.5700  -13.6186 C   0  0  0  0  0  0  0  0  0  0  0  0
   22.5064   -9.7720  -15.0336 C   0  0  2  0  0  0  0  0  0  0  0  0
   23.5021   -9.1331  -15.9722 C   0  0  0  0  0  0  0  0  0  0  0  0
   21.1722   -9.0816  -15.2025 C   0  0  2  0  0  0  0  0  0  0  0  0
   20.6457   -9.2499  -16.5401 N   0  0  0  0  0  0  0  0  0  0  0  0
   21.3533   -7.6396  -14.9562 C   0  0  0  0  0  0  0  0  0  0  0  0
   21.3468   -6.7585  -16.0162 O   0  0  0  0  0  0  0  0  0  0  0  0
   21.5149   -7.1832  -13.8001 O   0  0  0  0  0  0  0  0  0  0  0  0
  2  3  1  0
  2  1  1  1
  4  2  1  0
  5  4  2  0
  7  6  1  1
  7  8  1  0
  8  4  1  0
  9  7  1  0
  9 16  1  0
 10  9  2  0
 12 11  1  0
 12 13  1  0
 13 14  1  6
 15 13  1  0
 15 16  1  6
 15 17  1  0
 17 18  1  0
 19 17  2  0
M  END
$$$$
