AAI.pdb
     RDKit          3D

 19 18  0  0  1  0  0  0  0  0999 V2000
   13.9322  -12.5400  -13.2583 C   0  0  0  0  0  0  0  0  0  0  0  0
   14.2088  -11.0628  -13.4327 C   0  0  2  0  0  0  0  0  0  0  0  0
   15.1315  -10.9087  -14.5386 N   0  0  0  0  0  0  0  0  0  0  0  0
   14.8470  -10.5212  -12.2002 C   0  0  0  0  0  0  0  0  0  0  0  0
   14.2751  -10.5497  -11.0801 O   0  0  0  0  0  0  0  0  0  0  0  0
   18.1410   -8.9473  -11.4149 C   0  0  0  0  0  0  0  0  0  0  0  0
   16.6812   -9.2709  -11.0649 C   0  0  2  0  0  0  0  0  0  0  0  0
   16.1454   -9.9432  -12.2433 N   0  0  0  0  0  0  0  0  0  0  0  0
   16.0212   -7.9594  -10.8480 C   0  0  0  0  0  0  0  0  0  0  0  0
   15.5214   -7.3916  -11.8485 O   0  0  0  0  0  0  0  0  0  0  0  0
   12.3757   -5.0322   -7.0111 C   0  0  0  0  0  0  0  0  0  0  0  0
   13.4490   -4.9346   -8.0431 C   0  0  0  0  0  0  0  0  0  0  0  0
   14.1795   -6.2460   -8.2531 C   0  0  2  0  0  0  0  0  0  0  0  0
   14.9045   -6.5785   -6.9709 C   0  0  0  0  0  0  0  0  0  0  0  0
   15.1995   -6.0902   -9.3578 C   0  0  2  0  0  0  0  0  0  0  0  0
   15.9236   -7.3202   -9.5979 N   0  0  0  0  0  0  0  0  0  0  0  0
   16.1696   -5.0539   -8.9609 C   0  0  0  0  0  0  0  0  0  0  0  0
   15.8517   -3.7222   -9.1203 O   0  0  0  0  0  0  0  0  0  0  0  0
   17.2879   -5.3480   -8.4772 O   0  0  0  0  0  0  0  0  0  0  0  0
  2  3  1  0
  2  1  1  1
  4  2  1  0
  5  4  2  0
  7  6  1  6
  7  8  1  0
  8  4  1  0
  9  7  1  0
  9 16  1  0
 10  9  2  0
 12 11  1  0
 12 13  1  0
 13 14  1  1
 15 13  1  0
 15 16  1  1
 15 17  1  0
 17 18  1  0
 19 17  2  0
M  END
$$$$
