AAI.pdb
     RDKit          3D

 19 18  0  0  1  0  0  0  0  0999 V2000
   20.1079   -9.9505  -20.0542 C   0  0  0  0  0  0  0  0  0  0  0  0
   20.7277  -10.9489  -19.1014 C   0  0  2  0  0  0  0  0  0  0  0  0
   19.8417  -12.0914  -19.0131 N   0  0  0  0  0  0  0  0  0  0  0  0
   20.8566  -10.3399  -17.7478 C   0  0  0  0  0  0  0  0  0  0  0  0
   19.8637   -9.9031  -17.1109 O   0  0  0  0  0  0  0  0  0  0  0  0
   23.5749  -10.1148  -15.2321 C   0  0  0  0  0  0  0  0  0  0  0  0
   22.2237   -9.6380  -15.7844 C   0  0  2  0  0  0  0  0  0  0  0  0
   22.1250  -10.2275  -17.1150 N   0  0  0  0  0  0  0  0  0  0  0  0
   22.3207   -8.1589  -15.8579 C   0  0  0  0  0  0  0  0  0  0  0  0
   22.9248   -7.6676  -16.8412 O   0  0  0  0  0  0  0  0  0  0  0  0
   18.7062   -5.0308  -16.9257 C   0  0  0  0  0  0  0  0  0  0  0  0
   20.1255   -5.4073  -16.6607 C   0  0  0  0  0  0  0  0  0  0  0  0
   20.5247   -5.2013  -15.2129 C   0  0  2  0  0  0  0  0  0  0  0  0
   20.6429   -3.7147  -14.9758 C   0  0  0  0  0  0  0  0  0  0  0  0
   21.8718   -5.8390  -14.9599 C   0  0  2  0  0  0  0  0  0  0  0  0
   21.7800   -7.2822  -14.8988 N   0  0  0  0  0  0  0  0  0  0  0  0
   22.3872   -5.3544  -13.6668 C   0  0  0  0  0  0  0  0  0  0  0  0
   22.1227   -6.0647  -12.5155 O   0  0  0  0  0  0  0  0  0  0  0  0
   23.0664   -4.3047  -13.5791 O   0  0  0  0  0  0  0  0  0  0  0  0
  2  3  1  0
  2  1  1  6
  4  2  1  0
  5  4  2  0
  7  6  1  6
  7  8  1  0
  8  4  1  0
  9  7  1  0
  9 16  1  0
 10  9  2  0
 12 11  1  0
 12 13  1  0
 13 14  1  6
 15 13  1  0
 15 16  1  1
 15 17  1  0
 17 18  1  0
 19 17  2  0
M  END
$$$$
