AAI.pdb
     RDKit          3D

 19 18  0  0  1  0  0  0  0  0999 V2000
   14.4964   -9.3145  -13.3865 C   0  0  0  0  0  0  0  0  0  0  0  0
   14.4261   -8.7106  -14.7718 C   0  0  2  0  0  0  0  0  0  0  0  0
   14.0086   -9.7492  -15.6911 N   0  0  0  0  0  0  0  0  0  0  0  0
   15.7752   -8.2274  -15.1793 C   0  0  0  0  0  0  0  0  0  0  0  0
   16.6993   -9.0150  -15.5085 O   0  0  0  0  0  0  0  0  0  0  0  0
   17.2358   -4.8777  -15.8979 C   0  0  0  0  0  0  0  0  0  0  0  0
   17.3874   -6.3873  -15.6606 C   0  0  2  0  0  0  0  0  0  0  0  0
   16.0745   -6.8377  -15.2123 N   0  0  0  0  0  0  0  0  0  0  0  0
   18.3990   -6.5237  -14.5832 C   0  0  0  0  0  0  0  0  0  0  0  0
   17.9894   -6.4885  -13.3983 O   0  0  0  0  0  0  0  0  0  0  0  0
   23.0198   -9.8799  -12.8812 C   0  0  0  0  0  0  0  0  0  0  0  0
   22.4876   -8.4859  -12.8961 C   0  0  0  0  0  0  0  0  0  0  0  0
   21.4836   -8.2550  -14.0080 C   0  0  2  0  0  0  0  0  0  0  0  0
   22.2498   -8.1541  -15.3053 C   0  0  0  0  0  0  0  0  0  0  0  0
   20.7556   -6.9509  -13.7748 C   0  0  2  0  0  0  0  0  0  0  0  0
   19.7782   -6.6886  -14.8097 N   0  0  0  0  0  0  0  0  0  0  0  0
   21.7401   -5.8538  -13.7816 C   0  0  0  0  0  0  0  0  0  0  0  0
   21.8211   -5.0141  -14.8716 O   0  0  0  0  0  0  0  0  0  0  0  0
   22.5153   -5.6574  -12.8165 O   0  0  0  0  0  0  0  0  0  0  0  0
  2  3  1  0
  2  1  1  1
  4  2  1  0
  5  4  2  0
  7  6  1  1
  7  8  1  0
  8  4  1  0
  9  7  1  0
  9 16  1  0
 10  9  2  0
 12 11  1  0
 12 13  1  0
 13 14  1  6
 15 13  1  0
 15 16  1  6
 15 17  1  0
 17 18  1  0
 19 17  2  0
M  END
$$$$
