AAI.pdb
     RDKit          3D

 19 18  0  0  1  0  0  0  0  0999 V2000
   23.7063  -19.1292  -17.5824 C   0  0  0  0  0  0  0  0  0  0  0  0
   24.6508  -20.2503  -17.9563 C   0  0  2  0  0  0  0  0  0  0  0  0
   23.8822  -21.2753  -18.6320 N   0  0  0  0  0  0  0  0  0  0  0  0
   25.2485  -20.8370  -16.7242 C   0  0  0  0  0  0  0  0  0  0  0  0
   24.6191  -21.6419  -15.9904 O   0  0  0  0  0  0  0  0  0  0  0  0
   28.5648  -20.5506  -15.0256 C   0  0  0  0  0  0  0  0  0  0  0  0
   27.1062  -21.0284  -15.0722 C   0  0  2  0  0  0  0  0  0  0  0  0
   26.5721  -20.5050  -16.3246 N   0  0  0  0  0  0  0  0  0  0  0  0
   26.4422  -20.4026  -13.9017 C   0  0  0  0  0  0  0  0  0  0  0  0
   26.2232  -19.1687  -13.9532 O   0  0  0  0  0  0  0  0  0  0  0  0
   21.7849  -20.9560  -12.4437 C   0  0  0  0  0  0  0  0  0  0  0  0
   23.1835  -20.4401  -12.5095 C   0  0  0  0  0  0  0  0  0  0  0  0
   24.0394  -20.9216  -11.3549 C   0  0  2  0  0  0  0  0  0  0  0  0
   23.5227  -20.2674  -10.0958 C   0  0  0  0  0  0  0  0  0  0  0  0
   25.4728  -20.4916  -11.5689 C   0  0  2  0  0  0  0  0  0  0  0  0
   26.0473  -21.1045  -12.7476 N   0  0  0  0  0  0  0  0  0  0  0  0
   26.2687  -20.9056  -10.3994 C   0  0  0  0  0  0  0  0  0  0  0  0
   26.9732  -22.0898  -10.4358 O   0  0  0  0  0  0  0  0  0  0  0  0
   26.3263  -20.2072   -9.3601 O   0  0  0  0  0  0  0  0  0  0  0  0
  2  3  1  0
  2  1  1  1
  4  2  1  0
  5  4  2  0
  7  6  1  1
  7  8  1  0
  8  4  1  0
  9  7  1  0
  9 16  1  0
 10  9  2  0
 12 11  1  0
 12 13  1  0
 13 14  1  1
 15 13  1  0
 15 16  1  6
 15 17  1  0
 17 18  1  0
 19 17  2  0
M  END
$$$$
