RST.pdb
     RDKit          3D

 25 24  0  0  1  0  0  0  0  0999 V2000
    9.6373  -12.5878   18.6482 N   0  0  0  0  0  0  0  0  0  0  0  0
    8.4886  -13.1411   17.9979 C   0  0  0  0  0  0  0  0  0  0  0  0
    8.5386  -13.2637   16.7342 N   0  0  0  0  0  0  0  0  0  0  0  0
    7.3510  -13.5337   18.7174 N   0  0  0  0  0  0  0  0  0  0  0  0
    7.4310  -13.7541   20.1741 C   0  0  0  0  0  0  0  0  0  0  0  0
    7.9485  -15.1325   20.3751 C   0  0  0  0  0  0  0  0  0  0  0  0
    8.1087  -15.6033   21.7729 C   0  0  0  0  0  0  0  0  0  0  0  0
    8.6685  -16.9837   21.9319 C   0  0  2  0  0  0  0  0  0  0  0  0
    7.8007  -18.0133   21.3754 N   0  0  0  0  0  0  0  0  0  0  0  0
    8.9220  -17.2900   23.3812 C   0  0  0  0  0  0  0  0  0  0  0  0
    7.9625  -17.3124   24.1893 O   0  0  0  0  0  0  0  0  0  0  0  0
    7.8166  -13.6784   16.1220 O   0  0  0  0  0  0  0  0  0  0  0  0
   12.7937  -17.9596   25.0699 C   0  0  0  0  0  0  0  0  0  0  0  0
   11.6916  -18.6869   25.4460 C   0  0  1  0  0  0  0  0  0  0  0  0
   10.3851  -17.8941   25.2703 N   0  0  0  0  0  0  0  0  0  0  0  0
   10.2227  -17.5574   23.8705 C   0  0  0  0  0  0  0  0  0  0  0  0
   10.5366  -16.6709   26.0984 O   0  0  0  0  0  0  0  0  0  0  0  0
   10.7733  -15.5909   25.5023 C   0  0  0  0  0  0  0  0  0  0  0  0
    9.2810  -13.8551   26.8071 C   0  0  2  0  0  0  0  0  0  0  0  0
    9.5061  -14.4129   28.1723 O   0  0  0  0  0  0  0  0  0  0  0  0
    8.2966  -15.0574   28.5095 C   0  0  2  0  0  0  0  0  0  0  0  0
   10.5800  -15.4191   28.2825 N   0  0  0  0  0  0  0  0  0  0  0  0
   10.4394  -16.6040   27.4939 C   0  0  0  0  0  0  0  0  0  0  0  0
   10.8119  -15.7897   29.6934 O   0  0  0  0  0  0  0  0  0  0  0  0
   11.1921  -14.8948   30.6843 O   0  0  0  0  0  0  0  0  0  0  0  0
  2  1  1  0
  3  2  2  0
  4  2  1  0
  5  4  1  0
  6  5  1  0
  6  7  1  0
  7  8  1  0
  8 10  1  0
  8  9  1  1
 10 15  1  0
 11 10  2  0
 13 12  1  0
 14 13  1  6
 15 14  1  0
 16 17  2  0
 16 14  1  0
 19 18  1  1
 19 21  1  0
 20 19  1  0
 21 22  1  1
 22 16  1  0
 23 21  1  0
 23 24  1  0
 25 23  2  0
M  END
$$$$
