RST.pdb
     RDKit          3D

 25 24  0  0  1  0  0  0  0  0999 V2000
    9.8169  -13.8956   17.7274 N   0  0  0  0  0  0  0  0  0  0  0  0
   10.2496  -13.3250   18.9667 C   0  0  0  0  0  0  0  0  0  0  0  0
   11.4878  -13.4018   19.2414 N   0  0  0  0  0  0  0  0  0  0  0  0
    9.3512  -12.7057   19.8473 N   0  0  0  0  0  0  0  0  0  0  0  0
    7.8968  -12.8100   19.6222 C   0  0  0  0  0  0  0  0  0  0  0  0
    7.5191  -14.2234   19.8832 C   0  0  0  0  0  0  0  0  0  0  0  0
    7.5602  -14.6911   21.2905 C   0  0  0  0  0  0  0  0  0  0  0  0
    7.3197  -16.1555   21.4943 C   0  0  2  0  0  0  0  0  0  0  0  0
    6.0143  -16.5867   21.0117 N   0  0  0  0  0  0  0  0  0  0  0  0
    7.4469  -16.5172   22.9475 C   0  0  0  0  0  0  0  0  0  0  0  0
    6.4552  -16.3990   23.7069 O   0  0  0  0  0  0  0  0  0  0  0  0
   11.9541  -13.0703   20.1020 O   0  0  0  0  0  0  0  0  0  0  0  0
   10.5588  -18.8495   24.4153 C   0  0  0  0  0  0  0  0  0  0  0  0
    9.3176  -18.7877   24.9988 C   0  0  1  0  0  0  0  0  0  0  0  0
    8.6931  -17.3863   24.8881 N   0  0  0  0  0  0  0  0  0  0  0  0
    8.6625  -16.9927   23.4940 C   0  0  0  0  0  0  0  0  0  0  0  0
    9.5713  -16.4856   25.6769 O   0  0  0  0  0  0  0  0  0  0  0  0
   10.4452  -15.8334   25.0536 C   0  0  0  0  0  0  0  0  0  0  0  0
    9.5004  -13.2023   27.3468 C   0  0  2  0  0  0  0  0  0  0  0  0
    9.9007  -14.2181   28.3636 O   0  0  0  0  0  0  0  0  0  0  0  0
    8.7146  -14.5217   29.0658 C   0  0  2  0  0  0  0  0  0  0  0  0
   10.4245  -15.4887   27.8257 N   0  0  0  0  0  0  0  0  0  0  0  0
    9.5185  -16.2903   27.0627 C   0  0  0  0  0  0  0  0  0  0  0  0
   11.0246  -16.3073   28.8987 O   0  0  0  0  0  0  0  0  0  0  0  0
   12.0217  -15.8627   29.7564 O   0  0  0  0  0  0  0  0  0  0  0  0
  2  1  1  0
  3  2  2  0
  4  2  1  0
  5  4  1  0
  6  5  1  0
  6  7  1  0
  7  8  1  0
  8 10  1  0
  8  9  1  1
 10 15  1  0
 11 10  2  0
 13 12  1  0
 14 13  1  6
 15 14  1  0
 16 17  2  0
 16 14  1  0
 19 18  1  1
 19 21  1  0
 20 19  1  0
 21 22  1  1
 22 16  1  0
 23 21  1  0
 23 24  1  0
 25 23  2  0
M  END
$$$$
