RST.pdb
     RDKit          3D

 25 24  0  0  1  0  0  0  0  0999 V2000
    7.1185  -15.6474   13.4414 N   0  0  0  0  0  0  0  0  0  0  0  0
    8.5277  -15.7681   13.6610 C   0  0  0  0  0  0  0  0  0  0  0  0
    9.2971  -15.3814   12.7266 N   0  0  0  0  0  0  0  0  0  0  0  0
    9.0464  -16.2908   14.8542 N   0  0  0  0  0  0  0  0  0  0  0  0
    8.1385  -16.7889   15.9053 C   0  0  0  0  0  0  0  0  0  0  0  0
    7.6860  -15.6058   16.6822 C   0  0  0  0  0  0  0  0  0  0  0  0
    8.4721  -15.2394   17.8859 C   0  0  0  0  0  0  0  0  0  0  0  0
    7.9004  -14.1363   18.7226 C   0  0  2  0  0  0  0  0  0  0  0  0
    7.9863  -12.8335   18.0760 N   0  0  0  0  0  0  0  0  0  0  0  0
    8.5930  -14.0668   20.0546 C   0  0  0  0  0  0  0  0  0  0  0  0
    9.7736  -13.6474   20.1206 O   0  0  0  0  0  0  0  0  0  0  0  0
   10.3265  -15.4668   12.6952 O   0  0  0  0  0  0  0  0  0  0  0  0
    6.7008  -15.0533   23.6924 C   0  0  0  0  0  0  0  0  0  0  0  0
    7.7578  -14.1778   23.6589 C   0  0  1  0  0  0  0  0  0  0  0  0
    8.7099  -14.4617   22.4845 N   0  0  0  0  0  0  0  0  0  0  0  0
    7.9497  -14.4632   21.2511 C   0  0  0  0  0  0  0  0  0  0  0  0
    9.2968  -15.7995   22.7504 O   0  0  0  0  0  0  0  0  0  0  0  0
    8.7080  -16.7989   22.2684 C   0  0  0  0  0  0  0  0  0  0  0  0
   12.3418  -17.6921   21.7191 C   0  0  2  0  0  0  0  0  0  0  0  0
   12.2825  -17.7049   23.2098 O   0  0  0  0  0  0  0  0  0  0  0  0
   13.2039  -16.7185   23.6223 C   0  0  2  0  0  0  0  0  0  0  0  0
   10.9764  -17.3537   23.8004 N   0  0  0  0  0  0  0  0  0  0  0  0
   10.4555  -16.0575   23.4936 C   0  0  0  0  0  0  0  0  0  0  0  0
   10.9919  -17.5455   25.2649 O   0  0  0  0  0  0  0  0  0  0  0  0
   11.2784  -18.7502   25.8925 O   0  0  0  0  0  0  0  0  0  0  0  0
  2  1  1  0
  3  2  2  0
  4  2  1  0
  5  4  1  0
  6  5  1  0
  6  7  1  0
  7  8  1  0
  8 10  1  0
  8  9  1  6
 10 15  1  0
 11 10  2  0
 13 12  1  0
 14 13  1  6
 15 14  1  0
 16 17  2  0
 16 14  1  0
 19 18  1  1
 19 21  1  0
 20 19  1  0
 21 22  1  1
 22 16  1  0
 23 21  1  0
 23 24  1  0
 25 23  2  0
M  END
$$$$
