RST.pdb
     RDKit          3D

 25 24  0  0  1  0  0  0  0  0999 V2000
   10.2293  -13.2754   19.0531 N   0  0  0  0  0  0  0  0  0  0  0  0
    9.2803  -13.6292   18.0418 C   0  0  0  0  0  0  0  0  0  0  0  0
    9.7385  -14.0920   16.9508 N   0  0  0  0  0  0  0  0  0  0  0  0
    7.9006  -13.4745   18.2382 N   0  0  0  0  0  0  0  0  0  0  0  0
    7.3747  -13.1024   19.5656 C   0  0  0  0  0  0  0  0  0  0  0  0
    8.1218  -13.9063   20.5675 C   0  0  0  0  0  0  0  0  0  0  0  0
    7.3488  -14.4738   21.6996 C   0  0  0  0  0  0  0  0  0  0  0  0
    7.2937  -15.9695   21.7617 C   0  0  2  0  0  0  0  0  0  0  0  0
    6.1305  -16.5212   21.0795 N   0  0  0  0  0  0  0  0  0  0  0  0
    7.2923  -16.4417   23.1885 C   0  0  0  0  0  0  0  0  0  0  0  0
    6.2418  -16.3603   23.8696 O   0  0  0  0  0  0  0  0  0  0  0  0
    9.1949  -14.3612   16.1141 O   0  0  0  0  0  0  0  0  0  0  0  0
    9.9398  -19.1772   24.7271 C   0  0  0  0  0  0  0  0  0  0  0  0
    8.7241  -18.8804   25.2919 C   0  0  1  0  0  0  0  0  0  0  0  0
    8.3849  -17.3837   25.1868 N   0  0  0  0  0  0  0  0  0  0  0  0
    8.4505  -16.9820   23.7962 C   0  0  0  0  0  0  0  0  0  0  0  0
    9.4102  -16.6761   25.9948 O   0  0  0  0  0  0  0  0  0  0  0  0
   10.4144  -16.2226   25.3917 C   0  0  0  0  0  0  0  0  0  0  0  0
    9.6477  -13.4356   27.8915 C   0  0  2  0  0  0  0  0  0  0  0  0
   10.0203  -14.5510   28.8096 O   0  0  0  0  0  0  0  0  0  0  0  0
    8.8632  -14.7939   29.5805 C   0  0  2  0  0  0  0  0  0  0  0  0
   10.3817  -15.8236   28.1555 N   0  0  0  0  0  0  0  0  0  0  0  0
    9.3653  -16.4626   27.3782 C   0  0  0  0  0  0  0  0  0  0  0  0
   10.9297  -16.7828   29.1359 O   0  0  0  0  0  0  0  0  0  0  0  0
   12.0514  -16.5456   29.9187 O   0  0  0  0  0  0  0  0  0  0  0  0
  2  1  1  0
  3  2  2  0
  4  2  1  0
  5  4  1  0
  6  5  1  0
  6  7  1  0
  7  8  1  0
  8 10  1  0
  8  9  1  1
 10 15  1  0
 11 10  2  0
 13 12  1  0
 14 13  1  6
 15 14  1  0
 16 17  2  0
 16 14  1  0
 19 18  1  1
 19 21  1  0
 20 19  1  0
 21 22  1  1
 22 16  1  0
 23 21  1  0
 23 24  1  0
 25 23  2  0
M  END
$$$$
