RST.pdb
     RDKit          3D

 25 24  0  0  1  0  0  0  0  0999 V2000
    7.6768  -12.1977   19.2662 N   0  0  0  0  0  0  0  0  0  0  0  0
    8.6535  -13.0833   18.7092 C   0  0  0  0  0  0  0  0  0  0  0  0
    9.3664  -12.6376   17.7565 N   0  0  0  0  0  0  0  0  0  0  0  0
    8.8230  -14.3901   19.1882 N   0  0  0  0  0  0  0  0  0  0  0  0
    8.2867  -14.7745   20.5080 C   0  0  0  0  0  0  0  0  0  0  0  0
    6.9996  -15.4760   20.2641 C   0  0  0  0  0  0  0  0  0  0  0  0
    6.2067  -15.8779   21.4519 C   0  0  0  0  0  0  0  0  0  0  0  0
    6.5493  -17.2130   22.0386 C   0  0  2  0  0  0  0  0  0  0  0  0
    5.5819  -18.2468   21.6948 N   0  0  0  0  0  0  0  0  0  0  0  0
    6.6569  -17.1234   23.5349 C   0  0  0  0  0  0  0  0  0  0  0  0
    5.6322  -16.8873   24.2192 O   0  0  0  0  0  0  0  0  0  0  0  0
   10.1626  -13.1144   17.3017 O   0  0  0  0  0  0  0  0  0  0  0  0
    7.6799  -19.6104   26.0970 C   0  0  0  0  0  0  0  0  0  0  0  0
    7.0526  -18.3944   26.2092 C   0  0  1  0  0  0  0  0  0  0  0  0
    7.9106  -17.2449   25.6534 N   0  0  0  0  0  0  0  0  0  0  0  0
    7.8906  -17.2991   24.2057 C   0  0  0  0  0  0  0  0  0  0  0  0
    9.2818  -17.4707   26.1762 O   0  0  0  0  0  0  0  0  0  0  0  0
   10.1776  -17.7707   25.3483 C   0  0  0  0  0  0  0  0  0  0  0  0
    9.3068  -14.4022   28.3146 C   0  0  1  0  0  0  0  0  0  0  0  0
   10.5107  -15.0573   27.7254 O   0  0  0  0  0  0  0  0  0  0  0  0
   11.6116  -14.3833   28.2962 C   0  0  1  0  0  0  0  0  0  0  0  0
   10.6726  -16.4917   28.0327 N   0  0  0  0  0  0  0  0  0  0  0  0
    9.6774  -17.3799   27.5166 C   0  0  0  0  0  0  0  0  0  0  0  0
   10.8190  -16.7056   29.4868 O   0  0  0  0  0  0  0  0  0  0  0  0
   11.9306  -16.3229   30.2252 O   0  0  0  0  0  0  0  0  0  0  0  0
  2  1  1  0
  3  2  2  0
  4  2  1  0
  5  4  1  0
  6  5  1  0
  6  7  1  0
  7  8  1  0
  8 10  1  0
  8  9  1  1
 10 15  1  0
 11 10  2  0
 13 12  1  0
 14 13  1  6
 15 14  1  0
 16 17  2  0
 16 14  1  0
 19 18  1  6
 19 21  1  0
 20 19  1  0
 21 22  1  6
 22 16  1  0
 23 21  1  0
 23 24  1  0
 25 23  2  0
M  END
$$$$
