RST.pdb
     RDKit          3D

 25 24  0  0  1  0  0  0  0  0999 V2000
    7.6039  -11.9485   17.2886 N   0  0  0  0  0  0  0  0  0  0  0  0
    8.1789  -13.1899   16.8683 C   0  0  0  0  0  0  0  0  0  0  0  0
    7.4772  -13.9281   16.1085 N   0  0  0  0  0  0  0  0  0  0  0  0
    9.4622  -13.5834   17.2736 N   0  0  0  0  0  0  0  0  0  0  0  0
    9.6891  -14.0859   18.6422 C   0  0  0  0  0  0  0  0  0  0  0  0
    8.5829  -15.0309   18.9449 C   0  0  0  0  0  0  0  0  0  0  0  0
    8.0150  -14.9990   20.3151 C   0  0  0  0  0  0  0  0  0  0  0  0
    8.1344  -16.2717   21.0961 C   0  0  2  0  0  0  0  0  0  0  0  0
    6.9962  -17.1610   20.9055 N   0  0  0  0  0  0  0  0  0  0  0  0
    8.2872  -15.9819   22.5629 C   0  0  0  0  0  0  0  0  0  0  0  0
    8.1308  -14.8109   22.9851 O   0  0  0  0  0  0  0  0  0  0  0  0
    7.7938  -14.7653   15.5919 O   0  0  0  0  0  0  0  0  0  0  0  0
    6.6346  -16.6258   25.5087 C   0  0  0  0  0  0  0  0  0  0  0  0
    7.7778  -15.8662   25.4820 C   0  0  1  0  0  0  0  0  0  0  0  0
    8.9600  -16.6182   24.8469 N   0  0  0  0  0  0  0  0  0  0  0  0
    8.6049  -16.9985   23.4947 C   0  0  0  0  0  0  0  0  0  0  0  0
    9.1842  -17.8156   25.6958 O   0  0  0  0  0  0  0  0  0  0  0  0
    8.4345  -18.8067   25.5126 C   0  0  0  0  0  0  0  0  0  0  0  0
   12.0748  -20.0388   25.5693 C   0  0  2  0  0  0  0  0  0  0  0  0
   11.8455  -19.7352   27.0119 O   0  0  0  0  0  0  0  0  0  0  0  0
   12.8103  -18.7585   27.3393 C   0  0  2  0  0  0  0  0  0  0  0  0
   10.5237  -19.1685   27.3434 N   0  0  0  0  0  0  0  0  0  0  0  0
   10.1609  -17.9487   26.6906 C   0  0  0  0  0  0  0  0  0  0  0  0
   10.3691  -19.0117   28.8039 O   0  0  0  0  0  0  0  0  0  0  0  0
   10.5071  -20.0456   29.7200 O   0  0  0  0  0  0  0  0  0  0  0  0
  2  1  1  0
  3  2  2  0
  4  2  1  0
  5  4  1  0
  6  5  1  0
  6  7  1  0
  7  8  1  0
  8 10  1  0
  8  9  1  1
 10 15  1  0
 11 10  2  0
 13 12  1  0
 14 13  1  6
 15 14  1  0
 16 17  2  0
 16 14  1  0
 19 18  1  1
 19 21  1  0
 20 19  1  0
 21 22  1  1
 22 16  1  0
 23 21  1  0
 23 24  1  0
 25 23  2  0
M  END
$$$$
