RST.pdb
     RDKit          3D

 25 24  0  0  1  0  0  0  0  0999 V2000
    9.1960  -15.3060   16.5548 N   0  0  0  0  0  0  0  0  0  0  0  0
    8.5018  -14.0945   16.2401 C   0  0  0  0  0  0  0  0  0  0  0  0
    8.1962  -13.8990   15.0224 N   0  0  0  0  0  0  0  0  0  0  0  0
    8.1693  -13.1568   17.2280 N   0  0  0  0  0  0  0  0  0  0  0  0
    8.6452  -13.3345   18.6133 C   0  0  0  0  0  0  0  0  0  0  0  0
    7.4794  -13.7868   19.4163 C   0  0  0  0  0  0  0  0  0  0  0  0
    7.7496  -14.2940   20.7841 C   0  0  0  0  0  0  0  0  0  0  0  0
    8.1965  -15.7212   20.8697 C   0  0  2  0  0  0  0  0  0  0  0  0
    7.2782  -16.6417   20.2124 N   0  0  0  0  0  0  0  0  0  0  0  0
    8.3643  -16.1397   22.3034 C   0  0  0  0  0  0  0  0  0  0  0  0
    7.3509  -16.3499   23.0126 O   0  0  0  0  0  0  0  0  0  0  0  0
    7.7284  -13.0671   14.6260 O   0  0  0  0  0  0  0  0  0  0  0  0
   12.1132  -17.0675   23.9982 C   0  0  0  0  0  0  0  0  0  0  0  0
   10.9550  -17.6839   24.4025 C   0  0  1  0  0  0  0  0  0  0  0  0
    9.7283  -16.7670   24.2579 N   0  0  0  0  0  0  0  0  0  0  0  0
    9.6427  -16.3069   22.8867 C   0  0  0  0  0  0  0  0  0  0  0  0
    9.9565  -15.6319   25.1876 O   0  0  0  0  0  0  0  0  0  0  0  0
   10.6271  -14.6585   24.7629 C   0  0  0  0  0  0  0  0  0  0  0  0
    8.3323  -12.6527   26.4179 C   0  0  2  0  0  0  0  0  0  0  0  0
    8.6825  -13.4772   27.6109 O   0  0  0  0  0  0  0  0  0  0  0  0
    7.5082  -14.1982   27.9163 C   0  0  2  0  0  0  0  0  0  0  0  0
    9.7596  -14.4660   27.4104 N   0  0  0  0  0  0  0  0  0  0  0  0
    9.4911  -15.5403   26.5053 C   0  0  0  0  0  0  0  0  0  0  0  0
   10.2199  -15.0128   28.7030 O   0  0  0  0  0  0  0  0  0  0  0  0
   10.7371  -14.2445   29.7372 O   0  0  0  0  0  0  0  0  0  0  0  0
  2  1  1  0
  3  2  2  0
  4  2  1  0
  5  4  1  0
  6  5  1  0
  6  7  1  0
  7  8  1  0
  8 10  1  0
  8  9  1  1
 10 15  1  0
 11 10  2  0
 13 12  1  0
 14 13  1  6
 15 14  1  0
 16 17  2  0
 16 14  1  0
 19 18  1  1
 19 21  1  0
 20 19  1  0
 21 22  1  1
 22 16  1  0
 23 21  1  0
 23 24  1  0
 25 23  2  0
M  END
$$$$
