HCN.pdb
     RDKit          3D

 25 25  0  0  1  0  0  0  0  0999 V2000
   27.1688  -15.0804  -18.2748 N   0  0  0  0  0  0  0  0  0  0  0  0
   25.8370  -14.6215  -17.8795 C   0  0  1  0  0  0  0  0  0  0  0  0
   25.1251  -15.7298  -17.1797 C   0  0  0  0  0  0  0  0  0  0  0  0
   24.8900  -16.9017  -18.0589 C   0  0  0  0  0  0  0  0  0  0  0  0
   25.3997  -18.1881  -17.9224 C   0  0  0  0  0  0  0  0  0  0  0  0
   24.9431  -18.9651  -18.9323 N   0  0  0  0  0  0  0  0  0  0  0  0
   24.1657  -18.1806  -19.6821 C   0  0  0  0  0  0  0  0  0  0  0  0
   24.1261  -16.9430  -19.1697 N   0  0  0  0  0  0  0  0  0  0  0  0
   25.9453  -13.3998  -17.0563 C   0  0  0  0  0  0  0  0  0  0  0  0
   26.6543  -13.4311  -16.0255 O   0  0  0  0  0  0  0  0  0  0  0  0
   25.2612  -12.2254  -17.4277 N   0  0  0  0  0  0  0  0  0  0  0  0
   25.4081  -11.0165  -16.6752 C   0  0  1  0  0  0  0  0  0  0  0  0
   26.8252  -10.5315  -16.7724 C   0  0  0  0  0  0  0  0  0  0  0  0
   27.0746   -8.9253  -16.0176 S   0  0  0  0  0  0  0  0  0  0  0  0
   24.4247   -9.9786  -17.0766 C   0  0  0  0  0  0  0  0  0  0  0  0
   24.2459   -9.6022  -18.2476 O   0  0  0  0  0  0  0  0  0  0  0  0
   20.3906   -6.7371  -16.6026 N   0  0  0  0  0  0  0  0  0  0  0  0
   20.5476   -7.4227  -15.3820 C   0  0  0  0  0  0  0  0  0  0  0  0
   19.7448   -7.2923  -14.4388 O   0  0  0  0  0  0  0  0  0  0  0  0
   21.6963   -8.3313  -15.1949 C   0  0  0  0  0  0  0  0  0  0  0  0
   22.5870   -8.4142  -16.4181 C   0  0  2  0  0  0  0  0  0  0  0  0
   23.6419   -9.3800  -16.0656 N   0  0  0  0  0  0  0  0  0  0  0  0
   23.2026   -7.1289  -16.7830 C   0  0  0  0  0  0  0  0  0  0  0  0
   24.2485   -6.7325  -16.2121 O   0  0  0  0  0  0  0  0  0  0  0  0
   22.6548   -6.3192  -17.7605 O   0  0  0  0  0  0  0  0  0  0  0  0
  2  1  1  1
  3  2  1  0
  4  3  1  0
  4  8  1  0
  5  4  2  0
  6  5  1  0
  6  7  1  0
  7  8  2  0
  9  2  1  0
  9 11  1  0
 10  9  2  0
 11 12  1  0
 12 15  1  0
 12 13  1  6
 14 13  1  0
 15 16  2  0
 15 22  1  0
 18 17  1  0
 18 19  2  0
 20 18  1  0
 21 20  1  1
 21 23  1  0
 22 21  1  0
 23 25  1  0
 24 23  2  0
M  END
$$$$
