HCN.pdb
     RDKit          3D

 25 25  0  0  1  0  0  0  0  0999 V2000
   18.3947  -12.6894  -17.5285 N   0  0  0  0  0  0  0  0  0  0  0  0
   19.1705  -11.5325  -17.9757 C   0  0  1  0  0  0  0  0  0  0  0  0
   18.2768  -10.6052  -18.7285 C   0  0  0  0  0  0  0  0  0  0  0  0
   17.8025  -11.1848  -20.0094 C   0  0  0  0  0  0  0  0  0  0  0  0
   18.1792  -12.3889  -20.5938 C   0  0  0  0  0  0  0  0  0  0  0  0
   17.5138  -12.5530  -21.7609 N   0  0  0  0  0  0  0  0  0  0  0  0
   16.7391  -11.4749  -21.9014 C   0  0  0  0  0  0  0  0  0  0  0  0
   16.9032  -10.6484  -20.8595 N   0  0  0  0  0  0  0  0  0  0  0  0
   19.8266  -10.8850  -16.8215 C   0  0  0  0  0  0  0  0  0  0  0  0
   19.2036  -10.8143  -15.7384 O   0  0  0  0  0  0  0  0  0  0  0  0
   21.1277  -10.3581  -16.9426 N   0  0  0  0  0  0  0  0  0  0  0  0
   21.7566   -9.6855  -15.8465 C   0  0  1  0  0  0  0  0  0  0  0  0
   23.1554  -10.2018  -15.6742 C   0  0  0  0  0  0  0  0  0  0  0  0
   24.0899   -9.3073  -14.4338 S   0  0  0  0  0  0  0  0  0  0  0  0
   21.7110   -8.2081  -15.9895 C   0  0  0  0  0  0  0  0  0  0  0  0
   22.0654   -7.5944  -17.0106 O   0  0  0  0  0  0  0  0  0  0  0  0
   20.6648   -3.2669  -15.0457 N   0  0  0  0  0  0  0  0  0  0  0  0
   19.5556   -4.1256  -14.9177 C   0  0  0  0  0  0  0  0  0  0  0  0
   18.3899   -3.6962  -14.8280 O   0  0  0  0  0  0  0  0  0  0  0  0
   19.7607   -5.5875  -14.8869 C   0  0  0  0  0  0  0  0  0  0  0  0
   21.2227   -5.9788  -14.9649 C   0  0  2  0  0  0  0  0  0  0  0  0
   21.2350   -7.4503  -14.8975 N   0  0  0  0  0  0  0  0  0  0  0  0
   22.0351   -5.4321  -13.8670 C   0  0  0  0  0  0  0  0  0  0  0  0
   22.0389   -5.9790  -12.7366 O   0  0  0  0  0  0  0  0  0  0  0  0
   22.8170   -4.3054  -14.0410 O   0  0  0  0  0  0  0  0  0  0  0  0
  2  1  1  1
  3  2  1  0
  4  3  1  0
  4  8  1  0
  5  4  2  0
  6  5  1  0
  6  7  1  0
  7  8  2  0
  9  2  1  0
  9 11  1  0
 10  9  2  0
 11 12  1  0
 12 15  1  0
 12 13  1  6
 14 13  1  0
 15 16  2  0
 15 22  1  0
 18 17  1  0
 18 19  2  0
 20 18  1  0
 21 20  1  1
 21 23  1  0
 22 21  1  0
 23 25  1  0
 24 23  2  0
M  END
$$$$
