HCN.pdb
     RDKit          3D

 25 25  0  0  1  0  0  0  0  0999 V2000
   14.6567  -22.4752   -2.7574 N   0  0  0  0  0  0  0  0  0  0  0  0
   14.4354  -23.5595   -1.8005 C   0  0  1  0  0  0  0  0  0  0  0  0
   14.5678  -24.8680   -2.5043 C   0  0  0  0  0  0  0  0  0  0  0  0
   13.5102  -25.0769   -3.5239 C   0  0  0  0  0  0  0  0  0  0  0  0
   12.2664  -25.6749   -3.3545 C   0  0  0  0  0  0  0  0  0  0  0  0
   11.5970  -25.6675   -4.5308 N   0  0  0  0  0  0  0  0  0  0  0  0
   12.4055  -25.0778   -5.4144 C   0  0  0  0  0  0  0  0  0  0  0  0
   13.5539  -24.7200   -4.8238 N   0  0  0  0  0  0  0  0  0  0  0  0
   15.3638  -23.4260   -0.6593 C   0  0  0  0  0  0  0  0  0  0  0  0
   16.5675  -23.7253   -0.8261 O   0  0  0  0  0  0  0  0  0  0  0  0
   14.8984  -22.9715    0.5905 N   0  0  0  0  0  0  0  0  0  0  0  0
   15.7963  -22.7893    1.6905 C   0  0  1  0  0  0  0  0  0  0  0  0
   16.2369  -21.3557    1.7491 C   0  0  0  0  0  0  0  0  0  0  0  0
   16.8830  -20.7519    0.1902 S   0  0  0  0  0  0  0  0  0  0  0  0
   15.2173  -23.2576    2.9754 C   0  0  0  0  0  0  0  0  0  0  0  0
   14.0498  -23.6627    3.1083 O   0  0  0  0  0  0  0  0  0  0  0  0
   15.4097  -26.1942    7.4392 N   0  0  0  0  0  0  0  0  0  0  0  0
   14.4918  -25.5855    6.5609 C   0  0  0  0  0  0  0  0  0  0  0  0
   13.2755  -25.5110    6.8182 O   0  0  0  0  0  0  0  0  0  0  0  0
   14.9681  -25.0101    5.2872 C   0  0  0  0  0  0  0  0  0  0  0  0
   15.4907  -23.5958    5.4389 C   0  0  2  0  0  0  0  0  0  0  0  0
   16.0436  -23.2426    4.1200 N   0  0  0  0  0  0  0  0  0  0  0  0
   16.5412  -23.4655    6.4605 C   0  0  0  0  0  0  0  0  0  0  0  0
   17.7437  -23.3174    6.1302 O   0  0  0  0  0  0  0  0  0  0  0  0
   16.2427  -23.5012    7.8098 O   0  0  0  0  0  0  0  0  0  0  0  0
  2  1  1  6
  3  2  1  0
  4  3  1  0
  4  8  1  0
  5  4  2  0
  6  5  1  0
  6  7  1  0
  7  8  2  0
  9  2  1  0
  9 11  1  0
 10  9  2  0
 11 12  1  0
 12 15  1  0
 12 13  1  1
 14 13  1  0
 15 16  2  0
 15 22  1  0
 18 17  1  0
 18 19  2  0
 20 18  1  0
 21 20  1  6
 21 23  1  0
 22 21  1  0
 23 25  1  0
 24 23  2  0
M  END
$$$$
