HCN.pdb
     RDKit          3D

 25 25  0  0  1  0  0  0  0  0999 V2000
   19.2102  -13.5672  -17.5715 N   0  0  0  0  0  0  0  0  0  0  0  0
   18.7756  -12.3393  -16.9055 C   0  0  1  0  0  0  0  0  0  0  0  0
   18.5712  -12.6156  -15.4540 C   0  0  0  0  0  0  0  0  0  0  0  0
   17.4607  -13.5678  -15.2055 C   0  0  0  0  0  0  0  0  0  0  0  0
   16.1324  -13.4531  -15.6004 C   0  0  0  0  0  0  0  0  0  0  0  0
   15.4398  -14.5365  -15.1781 N   0  0  0  0  0  0  0  0  0  0  0  0
   16.3167  -15.3099  -14.5339 C   0  0  0  0  0  0  0  0  0  0  0  0
   17.5298  -14.7407  -14.5434 N   0  0  0  0  0  0  0  0  0  0  0  0
   19.7503  -11.2569  -17.1512 C   0  0  0  0  0  0  0  0  0  0  0  0
   20.9703  -11.5360  -17.1512 O   0  0  0  0  0  0  0  0  0  0  0  0
   19.3106   -9.9379  -17.3795 N   0  0  0  0  0  0  0  0  0  0  0  0
   20.2411   -8.8897  -17.6704 C   0  0  1  0  0  0  0  0  0  0  0  0
   20.1651   -8.5386  -19.1278 C   0  0  0  0  0  0  0  0  0  0  0  0
   18.5019   -8.1578  -19.6760 S   0  0  0  0  0  0  0  0  0  0  0  0
   20.0525   -7.7074  -16.7917 C   0  0  0  0  0  0  0  0  0  0  0  0
   18.9453   -7.2902  -16.4110 O   0  0  0  0  0  0  0  0  0  0  0  0
   21.2750   -3.8633  -13.5427 N   0  0  0  0  0  0  0  0  0  0  0  0
   22.0380   -5.0265  -13.3209 C   0  0  0  0  0  0  0  0  0  0  0  0
   22.7290   -5.1824  -12.2964 O   0  0  0  0  0  0  0  0  0  0  0  0
   22.0318   -6.1091  -14.3249 C   0  0  0  0  0  0  0  0  0  0  0  0
   21.0734   -5.8458  -15.4689 C   0  0  2  0  0  0  0  0  0  0  0  0
   21.2026   -7.0117  -16.3599 N   0  0  0  0  0  0  0  0  0  0  0  0
   21.3810   -4.6192  -16.2206 C   0  0  0  0  0  0  0  0  0  0  0  0
   22.2611   -4.6184  -17.1163 O   0  0  0  0  0  0  0  0  0  0  0  0
   20.7161   -3.4336  -15.9686 O   0  0  0  0  0  0  0  0  0  0  0  0
  2  1  1  6
  3  2  1  0
  4  3  1  0
  4  8  1  0
  5  4  2  0
  6  5  1  0
  6  7  1  0
  7  8  2  0
  9  2  1  0
  9 11  1  0
 10  9  2  0
 11 12  1  0
 12 15  1  0
 12 13  1  6
 14 13  1  0
 15 16  2  0
 15 22  1  0
 18 17  1  0
 18 19  2  0
 20 18  1  0
 21 20  1  1
 21 23  1  0
 22 21  1  0
 23 25  1  0
 24 23  2  0
M  END
$$$$
