HCN.pdb
     RDKit          3D

 25 25  0  0  1  0  0  0  0  0999 V2000
   24.4082  -19.2638  -18.2317 N   0  0  0  0  0  0  0  0  0  0  0  0
   25.3382  -18.3012  -18.8221 C   0  0  1  0  0  0  0  0  0  0  0  0
   25.3239  -18.4533  -20.3059 C   0  0  0  0  0  0  0  0  0  0  0  0
   25.8750  -19.7571  -20.7509 C   0  0  0  0  0  0  0  0  0  0  0  0
   26.8845  -19.9857  -21.6795 C   0  0  0  0  0  0  0  0  0  0  0  0
   27.0940  -21.3173  -21.8012 N   0  0  0  0  0  0  0  0  0  0  0  0
   26.2342  -21.9063  -20.9670 C   0  0  0  0  0  0  0  0  0  0  0  0
   25.4989  -20.9829  -20.3327 N   0  0  0  0  0  0  0  0  0  0  0  0
   24.9979  -16.9325  -18.3829 C   0  0  0  0  0  0  0  0  0  0  0  0
   23.7917  -16.6055  -18.3166 O   0  0  0  0  0  0  0  0  0  0  0  0
   26.0146  -16.0164  -18.0476 N   0  0  0  0  0  0  0  0  0  0  0  0
   25.6987  -14.6884  -17.6166 C   0  0  1  0  0  0  0  0  0  0  0  0
   26.6464  -14.2726  -16.5294 C   0  0  0  0  0  0  0  0  0  0  0  0
   26.5700  -15.3301  -15.0844 S   0  0  0  0  0  0  0  0  0  0  0  0
   25.6685  -13.7213  -18.7432 C   0  0  0  0  0  0  0  0  0  0  0  0
   26.6076  -13.5468  -19.5385 O   0  0  0  0  0  0  0  0  0  0  0  0
   21.4909  -12.5479  -22.1842 N   0  0  0  0  0  0  0  0  0  0  0  0
   22.5752  -11.7796  -21.7168 C   0  0  0  0  0  0  0  0  0  0  0  0
   23.2626  -11.0703  -22.4754 O   0  0  0  0  0  0  0  0  0  0  0  0
   22.9245  -11.8024  -20.2824 C   0  0  0  0  0  0  0  0  0  0  0  0
   24.4083  -11.9932  -20.0406 C   0  0  2  0  0  0  0  0  0  0  0  0
   24.5000  -12.9501  -18.9244 N   0  0  0  0  0  0  0  0  0  0  0  0
   25.1076  -10.7506  -19.6784 C   0  0  0  0  0  0  0  0  0  0  0  0
   25.1804  -10.3802  -18.4807 O   0  0  0  0  0  0  0  0  0  0  0  0
   25.7047   -9.9539  -20.6374 O   0  0  0  0  0  0  0  0  0  0  0  0
  2  1  1  1
  3  2  1  0
  4  3  1  0
  4  8  1  0
  5  4  2  0
  6  5  1  0
  6  7  1  0
  7  8  2  0
  9  2  1  0
  9 11  1  0
 10  9  2  0
 11 12  1  0
 12 15  1  0
 12 13  1  1
 14 13  1  0
 15 16  2  0
 15 22  1  0
 18 17  1  0
 18 19  2  0
 20 18  1  0
 21 20  1  1
 21 23  1  0
 22 21  1  0
 23 25  1  0
 24 23  2  0
M  END
$$$$
