FFL.pdb
     RDKit          3D

 31 32  0  0  1  0  0  0  0  0999 V2000
    7.6614  -18.6453   20.5261 N   0  0  0  0  0  0  0  0  0  0  0  0
    7.9878  -17.2169   20.5467 C   0  0  1  0  0  0  0  0  0  0  0  0
    7.1823  -16.5826   19.4354 C   0  0  0  0  0  0  0  0  0  0  0  0
    7.5039  -15.1460   19.4040 C   0  0  0  0  0  0  0  0  0  0  0  0
    8.5841  -14.7098   18.6795 C   0  0  0  0  0  0  0  0  0  0  0  0
    8.9236  -13.3620   18.6226 C   0  0  0  0  0  0  0  0  0  0  0  0
    8.1383  -12.4774   19.3188 C   0  0  0  0  0  0  0  0  0  0  0  0
    7.0546  -12.8830   20.0502 C   0  0  0  0  0  0  0  0  0  0  0  0
    6.7464  -14.2317   20.0842 C   0  0  0  0  0  0  0  0  0  0  0  0
    7.5721  -16.6449   21.8719 C   0  0  0  0  0  0  0  0  0  0  0  0
    6.4079  -16.2136   22.0775 O   0  0  0  0  0  0  0  0  0  0  0  0
    8.4947  -16.5728   22.9480 N   0  0  0  0  0  0  0  0  0  0  0  0
    8.5600  -15.4515   23.8754 C   0  0  1  0  0  0  0  0  0  0  0  0
    7.2492  -15.1857   24.5226 C   0  0  0  0  0  0  0  0  0  0  0  0
    7.2158  -13.9632   25.3393 C   0  0  0  0  0  0  0  0  0  0  0  0
    8.0439  -13.6833   26.4026 C   0  0  0  0  0  0  0  0  0  0  0  0
    7.9582  -12.5014   27.1298 C   0  0  0  0  0  0  0  0  0  0  0  0
    7.0194  -11.5596   26.7955 C   0  0  0  0  0  0  0  0  0  0  0  0
    6.1692  -11.8057   25.7328 C   0  0  0  0  0  0  0  0  0  0  0  0
    6.2768  -12.9853   25.0299 C   0  0  0  0  0  0  0  0  0  0  0  0
    9.6106  -15.6455   24.8906 C   0  0  0  0  0  0  0  0  0  0  0  0
   10.7165  -15.0859   24.7304 O   0  0  0  0  0  0  0  0  0  0  0  0
   10.5166  -13.8979   28.1704 C   0  0  0  0  0  0  0  0  0  0  0  0
    9.6370  -15.0187   28.6276 C   0  0  2  0  0  0  0  0  0  0  0  0
    9.3225  -14.8488   30.1211 C   0  0  0  0  0  0  0  0  0  0  0  0
   10.2795  -16.3442   28.3735 C   0  0  0  0  0  0  0  0  0  0  0  0
   10.4368  -16.7170   26.9502 C   0  0  2  0  0  0  0  0  0  0  0  0
    9.3741  -16.4677   26.0553 N   0  0  0  0  0  0  0  0  0  0  0  0
   10.8766  -18.1485   26.7872 C   0  0  0  0  0  0  0  0  0  0  0  0
   10.0946  -18.9486   25.9948 O   0  0  0  0  0  0  0  0  0  0  0  0
   11.9154  -18.5737   27.3583 O   0  0  0  0  0  0  0  0  0  0  0  0
  2  1  1  1
  2 10  1  0
  3  2  1  0
  3  4  1  0
  4  5  2  0
  5  6  1  0
  7  6  2  0
  8  7  1  0
  9  4  1  0
  9  8  2  0
 10 11  2  0
 12 13  1  0
 12 10  1  0
 13 21  1  0
 13 14  1  1
 15 14  1  0
 16 15  2  0
 17 16  1  0
 18 19  1  0
 18 17  2  0
 19 20  2  0
 20 15  1  0
 21 22  2  0
 21 28  1  0
 24 23  1  1
 24 26  1  0
 25 24  1  0
 27 26  1  1
 27 29  1  0
 28 27  1  0
 29 31  2  0
 29 30  1  0
M  END
$$$$
