FFL.pdb
     RDKit          3D

 31 32  0  0  1  0  0  0  0  0999 V2000
    6.6148  -19.7021   21.5788 N   0  0  0  0  0  0  0  0  0  0  0  0
    6.5877  -18.2430   21.7122 C   0  0  1  0  0  0  0  0  0  0  0  0
    5.5835  -17.9360   22.8000 C   0  0  0  0  0  0  0  0  0  0  0  0
    4.2438  -18.2722   22.2896 C   0  0  0  0  0  0  0  0  0  0  0  0
    3.7960  -17.6920   21.1299 C   0  0  0  0  0  0  0  0  0  0  0  0
    2.5375  -17.9812   20.6124 C   0  0  0  0  0  0  0  0  0  0  0  0
    1.7537  -18.8709   21.3038 C   0  0  0  0  0  0  0  0  0  0  0  0
    2.1733  -19.4654   22.4632 C   0  0  0  0  0  0  0  0  0  0  0  0
    3.4314  -19.1541   22.9487 C   0  0  0  0  0  0  0  0  0  0  0  0
    7.9520  -17.7698   22.1256 C   0  0  0  0  0  0  0  0  0  0  0  0
    8.8680  -18.5708   22.4461 O   0  0  0  0  0  0  0  0  0  0  0  0
    8.2528  -16.3833   22.1674 N   0  0  0  0  0  0  0  0  0  0  0  0
    9.5397  -15.8540   22.5980 C   0  0  1  0  0  0  0  0  0  0  0  0
    9.8159  -14.5158   22.0145 C   0  0  0  0  0  0  0  0  0  0  0  0
    8.8657  -14.1044   20.9702 C   0  0  0  0  0  0  0  0  0  0  0  0
    7.7731  -14.8269   20.5471 C   0  0  0  0  0  0  0  0  0  0  0  0
    6.9122  -14.3733   19.5540 C   0  0  0  0  0  0  0  0  0  0  0  0
    7.1378  -13.1606   18.9553 C   0  0  0  0  0  0  0  0  0  0  0  0
    8.2262  -12.4061   19.3542 C   0  0  0  0  0  0  0  0  0  0  0  0
    9.0624  -12.8803   20.3406 C   0  0  0  0  0  0  0  0  0  0  0  0
    9.6467  -15.8122   24.0673 C   0  0  0  0  0  0  0  0  0  0  0  0
   10.7378  -15.4906   24.5849 O   0  0  0  0  0  0  0  0  0  0  0  0
    7.8759  -12.7203   26.4313 C   0  0  0  0  0  0  0  0  0  0  0  0
    7.0533  -13.9448   26.1805 C   0  0  2  0  0  0  0  0  0  0  0  0
    5.5865  -13.6600   26.5347 C   0  0  0  0  0  0  0  0  0  0  0  0
    7.5673  -15.1077   26.9664 C   0  0  0  0  0  0  0  0  0  0  0  0
    8.6019  -15.9263   26.2962 C   0  0  2  0  0  0  0  0  0  0  0  0
    8.5132  -16.1361   24.9032 N   0  0  0  0  0  0  0  0  0  0  0  0
    8.7920  -17.2591   26.9718 C   0  0  0  0  0  0  0  0  0  0  0  0
    8.8147  -18.3648   26.1616 O   0  0  0  0  0  0  0  0  0  0  0  0
    8.9224  -17.3363   28.2220 O   0  0  0  0  0  0  0  0  0  0  0  0
  2  1  1  1
  2 10  1  0
  3  2  1  0
  3  4  1  0
  4  5  2  0
  5  6  1  0
  7  6  2  0
  8  7  1  0
  9  4  1  0
  9  8  2  0
 10 11  2  0
 12 13  1  0
 12 10  1  0
 13 21  1  0
 13 14  1  1
 15 14  1  0
 16 15  2  0
 17 16  1  0
 18 19  1  0
 18 17  2  0
 19 20  2  0
 20 15  1  0
 21 22  2  0
 21 28  1  0
 24 23  1  1
 24 26  1  0
 25 24  1  0
 27 26  1  1
 27 29  1  0
 28 27  1  0
 29 31  2  0
 29 30  1  0
M  END
$$$$
