FFL.pdb
     RDKit          3D

 31 32  0  0  1  0  0  0  0  0999 V2000
   10.7874  -18.2948   20.1837 N   0  0  0  0  0  0  0  0  0  0  0  0
   10.0550  -18.5513   21.4268 C   0  0  1  0  0  0  0  0  0  0  0  0
   10.8734  -19.5607   22.1996 C   0  0  0  0  0  0  0  0  0  0  0  0
   10.9624  -20.7882   21.3911 C   0  0  0  0  0  0  0  0  0  0  0  0
    9.8702  -21.6122   21.2890 C   0  0  0  0  0  0  0  0  0  0  0  0
    9.9106  -22.7811   20.5360 C   0  0  0  0  0  0  0  0  0  0  0  0
   11.0854  -23.0853   19.8947 C   0  0  0  0  0  0  0  0  0  0  0  0
   12.1912  -22.2828   19.9780 C   0  0  0  0  0  0  0  0  0  0  0  0
   12.1148  -21.1275   20.7362 C   0  0  0  0  0  0  0  0  0  0  0  0
    9.9560  -17.2693   22.2032 C   0  0  0  0  0  0  0  0  0  0  0  0
   10.8961  -16.4334   22.2349 O   0  0  0  0  0  0  0  0  0  0  0  0
    8.7807  -16.9581   22.9356 N   0  0  0  0  0  0  0  0  0  0  0  0
    8.5833  -15.6978   23.6385 C   0  0  1  0  0  0  0  0  0  0  0  0
    7.1624  -15.4875   24.0185 C   0  0  0  0  0  0  0  0  0  0  0  0
    6.8992  -14.2038   24.6859 C   0  0  0  0  0  0  0  0  0  0  0  0
    6.2793  -14.0429   25.9043 C   0  0  0  0  0  0  0  0  0  0  0  0
    6.0664  -12.7950   26.4791 C   0  0  0  0  0  0  0  0  0  0  0  0
    6.4806  -11.6623   25.8269 C   0  0  0  0  0  0  0  0  0  0  0  0
    7.1073  -11.7843   24.6000 C   0  0  0  0  0  0  0  0  0  0  0  0
    7.3053  -13.0334   24.0544 C   0  0  0  0  0  0  0  0  0  0  0  0
    9.4581  -15.5908   24.8197 C   0  0  0  0  0  0  0  0  0  0  0  0
   10.1623  -14.5679   24.9596 O   0  0  0  0  0  0  0  0  0  0  0  0
   11.3323  -13.7205   27.3944 C   0  0  0  0  0  0  0  0  0  0  0  0
   10.0298  -14.3054   27.8418 C   0  0  2  0  0  0  0  0  0  0  0  0
    9.5709  -13.6112   29.1325 C   0  0  0  0  0  0  0  0  0  0  0  0
   10.1471  -15.7807   28.0520 C   0  0  0  0  0  0  0  0  0  0  0  0
   10.4593  -16.5765   26.8442 C   0  0  2  0  0  0  0  0  0  0  0  0
    9.5067  -16.6469   25.8050 N   0  0  0  0  0  0  0  0  0  0  0  0
   10.8991  -17.9755   27.1886 C   0  0  0  0  0  0  0  0  0  0  0  0
   11.9907  -18.0955   28.0094 O   0  0  0  0  0  0  0  0  0  0  0  0
   10.2826  -18.9759   26.7357 O   0  0  0  0  0  0  0  0  0  0  0  0
  2  1  1  6
  2 10  1  0
  3  2  1  0
  3  4  1  0
  4  5  2  0
  5  6  1  0
  7  6  2  0
  8  7  1  0
  9  4  1  0
  9  8  2  0
 10 11  2  0
 12 13  1  0
 12 10  1  0
 13 21  1  0
 13 14  1  1
 15 14  1  0
 16 15  2  0
 17 16  1  0
 18 19  1  0
 18 17  2  0
 19 20  2  0
 20 15  1  0
 21 22  2  0
 21 28  1  0
 24 23  1  1
 24 26  1  0
 25 24  1  0
 27 26  1  1
 27 29  1  0
 28 27  1  0
 29 31  2  0
 29 30  1  0
M  END
$$$$
