FFL.pdb
     RDKit          3D

 31 32  0  0  1  0  0  0  0  0999 V2000
    7.4224  -18.1672   19.0673 N   0  0  0  0  0  0  0  0  0  0  0  0
    7.8386  -16.9422   19.7555 C   0  0  1  0  0  0  0  0  0  0  0  0
    7.0326  -15.8186   19.1440 C   0  0  0  0  0  0  0  0  0  0  0  0
    7.4496  -14.5597   19.7841 C   0  0  0  0  0  0  0  0  0  0  0  0
    6.8550  -14.1670   20.9565 C   0  0  0  0  0  0  0  0  0  0  0  0
    7.2183  -12.9856   21.5946 C   0  0  0  0  0  0  0  0  0  0  0  0
    8.1968  -12.2209   21.0099 C   0  0  0  0  0  0  0  0  0  0  0  0
    8.8080  -12.5868   19.8410 C   0  0  0  0  0  0  0  0  0  0  0  0
    8.4211  -13.7688   19.2339 C   0  0  0  0  0  0  0  0  0  0  0  0
    7.5110  -17.0725   21.2155 C   0  0  0  0  0  0  0  0  0  0  0  0
    6.3371  -17.2754   21.6210 O   0  0  0  0  0  0  0  0  0  0  0  0
    8.5318  -16.9691   22.1962 N   0  0  0  0  0  0  0  0  0  0  0  0
    8.3046  -17.1916   23.6177 C   0  0  1  0  0  0  0  0  0  0  0  0
    8.7718  -18.5328   24.0541 C   0  0  0  0  0  0  0  0  0  0  0  0
    7.9649  -19.6500   23.5408 C   0  0  0  0  0  0  0  0  0  0  0  0
    6.7236  -20.0246   24.0031 C   0  0  0  0  0  0  0  0  0  0  0  0
    6.0137  -21.0926   23.4661 C   0  0  0  0  0  0  0  0  0  0  0  0
    6.5488  -21.8192   22.4338 C   0  0  0  0  0  0  0  0  0  0  0  0
    7.7945  -21.4725   21.9427 C   0  0  0  0  0  0  0  0  0  0  0  0
    8.4752  -20.4095   22.4938 C   0  0  0  0  0  0  0  0  0  0  0  0
    8.9206  -16.1343   24.4391 C   0  0  0  0  0  0  0  0  0  0  0  0
   10.1212  -15.8441   24.2495 O   0  0  0  0  0  0  0  0  0  0  0  0
    7.0741  -12.0858   25.2290 C   0  0  0  0  0  0  0  0  0  0  0  0
    6.7660  -13.0649   26.3178 C   0  0  2  0  0  0  0  0  0  0  0  0
    5.7860  -12.4317   27.3162 C   0  0  0  0  0  0  0  0  0  0  0  0
    8.0137  -13.5049   27.0136 C   0  0  0  0  0  0  0  0  0  0  0  0
    8.8122  -14.5315   26.3078 C   0  0  2  0  0  0  0  0  0  0  0  0
    8.1556  -15.4395   25.4493 N   0  0  0  0  0  0  0  0  0  0  0  0
    9.6895  -15.3113   27.2518 C   0  0  0  0  0  0  0  0  0  0  0  0
    9.6252  -16.6783   27.1682 O   0  0  0  0  0  0  0  0  0  0  0  0
   10.4403  -14.7204   28.0722 O   0  0  0  0  0  0  0  0  0  0  0  0
  2  1  1  6
  2 10  1  0
  3  2  1  0
  3  4  1  0
  4  5  2  0
  5  6  1  0
  7  6  2  0
  8  7  1  0
  9  4  1  0
  9  8  2  0
 10 11  2  0
 12 13  1  0
 12 10  1  0
 13 21  1  0
 13 14  1  1
 15 14  1  0
 16 15  2  0
 17 16  1  0
 18 19  1  0
 18 17  2  0
 19 20  2  0
 20 15  1  0
 21 22  2  0
 21 28  1  0
 24 23  1  6
 24 26  1  0
 25 24  1  0
 27 26  1  1
 27 29  1  0
 28 27  1  0
 29 31  2  0
 29 30  1  0
M  END
$$$$
