FFL.pdb
     RDKit          3D

 31 32  0  0  1  0  0  0  0  0999 V2000
    8.2923  -15.8314   21.7385 N   0  0  0  0  0  0  0  0  0  0  0  0
    9.3558  -14.8872   22.0920 C   0  0  1  0  0  0  0  0  0  0  0  0
    8.7327  -13.5104   22.0437 C   0  0  0  0  0  0  0  0  0  0  0  0
    8.1330  -13.3296   20.7110 C   0  0  0  0  0  0  0  0  0  0  0  0
    6.8572  -13.7763   20.4766 C   0  0  0  0  0  0  0  0  0  0  0  0
    6.2525  -13.6260   19.2329 C   0  0  0  0  0  0  0  0  0  0  0  0
    6.9778  -13.0127   18.2420 C   0  0  0  0  0  0  0  0  0  0  0  0
    8.2523  -12.5569   18.4462 C   0  0  0  0  0  0  0  0  0  0  0  0
    8.8223  -12.7235   19.6963 C   0  0  0  0  0  0  0  0  0  0  0  0
    9.8261  -15.1883   23.4864 C   0  0  0  0  0  0  0  0  0  0  0  0
   10.8924  -14.7072   23.9501 O   0  0  0  0  0  0  0  0  0  0  0  0
    9.0697  -16.0378   24.3353 N   0  0  0  0  0  0  0  0  0  0  0  0
    9.3501  -16.2105   25.7542 C   0  0  1  0  0  0  0  0  0  0  0  0
    8.1298  -16.0535   26.5872 C   0  0  0  0  0  0  0  0  0  0  0  0
    7.6032  -14.6812   26.6342 C   0  0  0  0  0  0  0  0  0  0  0  0
    6.3685  -14.2775   26.1789 C   0  0  0  0  0  0  0  0  0  0  0  0
    5.9332  -12.9595   26.2591 C   0  0  0  0  0  0  0  0  0  0  0  0
    6.7471  -12.0030   26.8095 C   0  0  0  0  0  0  0  0  0  0  0  0
    7.9953  -12.3711   27.2779 C   0  0  0  0  0  0  0  0  0  0  0  0
    8.4004  -13.6843   27.1856 C   0  0  0  0  0  0  0  0  0  0  0  0
   10.0020  -17.5039   26.0265 C   0  0  0  0  0  0  0  0  0  0  0  0
    9.8509  -18.0324   27.1488 O   0  0  0  0  0  0  0  0  0  0  0  0
    9.5476  -20.7513   22.8639 C   0  0  0  0  0  0  0  0  0  0  0  0
   10.8792  -20.0744   22.9517 C   0  0  2  0  0  0  0  0  0  0  0  0
   11.7489  -20.4943   21.7578 C   0  0  0  0  0  0  0  0  0  0  0  0
   11.5635  -20.3997   24.2403 C   0  0  0  0  0  0  0  0  0  0  0  0
   11.4133  -19.3951   25.3163 C   0  0  2  0  0  0  0  0  0  0  0  0
   10.8044  -18.1571   25.0176 N   0  0  0  0  0  0  0  0  0  0  0  0
   12.7146  -19.1314   26.0276 C   0  0  0  0  0  0  0  0  0  0  0  0
   13.1355  -17.8277   26.0827 O   0  0  0  0  0  0  0  0  0  0  0  0
   13.3721  -20.0746   26.5416 O   0  0  0  0  0  0  0  0  0  0  0  0
  2  1  1  1
  2 10  1  0
  3  2  1  0
  3  4  1  0
  4  5  2  0
  5  6  1  0
  7  6  2  0
  8  7  1  0
  9  4  1  0
  9  8  2  0
 10 11  2  0
 12 13  1  0
 12 10  1  0
 13 21  1  0
 13 14  1  1
 15 14  1  0
 16 15  2  0
 17 16  1  0
 18 19  1  0
 18 17  2  0
 19 20  2  0
 20 15  1  0
 21 22  2  0
 21 28  1  0
 24 23  1  1
 24 26  1  0
 25 24  1  0
 27 26  1  6
 27 29  1  0
 28 27  1  0
 29 31  2  0
 29 30  1  0
M  END
$$$$
