DTR.pdb
     RDKit          3D

 27 26  0  0  1  0  0  0  0  0999 V2000
    9.7644  -15.4406   17.2945 N   0  0  0  0  0  0  0  0  0  0  0  0
    8.8323  -14.5313   17.9317 C   0  0  1  0  0  0  0  0  0  0  0  0
    7.6469  -14.3907   16.9670 C   0  0  0  0  0  0  0  0  0  0  0  0
    8.1645  -13.9424   15.6699 C   0  0  0  0  0  0  0  0  0  0  0  0
    9.1336  -14.5532   15.1360 O   0  0  0  0  0  0  0  0  0  0  0  0
    8.3327  -15.1806   19.2010 C   0  0  0  0  0  0  0  0  0  0  0  0
    7.4464  -14.6077   19.8675 O   0  0  0  0  0  0  0  0  0  0  0  0
    7.6158  -12.8521   14.9994 O   0  0  0  0  0  0  0  0  0  0  0  0
    7.3030  -18.8850   19.5212 C   0  0  0  0  0  0  0  0  0  0  0  0
    8.2191  -18.5284   20.6646 C   0  0  1  0  0  0  0  0  0  0  0  0
    9.3503  -19.3034   20.4993 O   0  0  0  0  0  0  0  0  0  0  0  0
    8.4365  -17.0707   20.8327 C   0  0  2  0  0  0  0  0  0  0  0  0
    8.8517  -16.4132   19.6342 N   0  0  0  0  0  0  0  0  0  0  0  0
    9.1623  -16.6553   22.0617 C   0  0  0  0  0  0  0  0  0  0  0  0
   10.3744  -16.2735   22.0828 O   0  0  0  0  0  0  0  0  0  0  0  0
    7.3902  -10.5686   26.9800 N   0  0  0  0  0  0  0  0  0  0  0  0
    6.4714  -11.6328   26.7380 C   0  0  0  0  0  0  0  0  0  0  0  0
    5.1997  -11.4719   26.7515 N   0  0  0  0  0  0  0  0  0  0  0  0
    7.0002  -12.9112   26.4705 N   0  0  0  0  0  0  0  0  0  0  0  0
    8.3935  -13.1948   26.8567 C   0  0  0  0  0  0  0  0  0  0  0  0
    8.7410  -14.6158   26.5737 C   0  0  0  0  0  0  0  0  0  0  0  0
    8.2768  -15.1607   25.2803 C   0  0  0  0  0  0  0  0  0  0  0  0
    9.1970  -16.0570   24.5276 C   0  0  2  0  0  0  0  0  0  0  0  0
    8.5589  -16.6432   23.3489 N   0  0  0  0  0  0  0  0  0  0  0  0
    9.8111  -17.1407   25.2993 C   0  0  0  0  0  0  0  0  0  0  0  0
    9.6247  -18.4886   25.0078 O   0  0  0  0  0  0  0  0  0  0  0  0
   10.5503  -16.8755   26.2812 O   0  0  0  0  0  0  0  0  0  0  0  0
  2  1  1  6
  3  4  1  0
  3  2  1  0
  4  5  2  0
  6  7  2  0
  6  2  1  0
  8  4  1  0
 10  9  1  6
 10 12  1  0
 11 10  1  0
 12 13  1  6
 13  6  1  0
 14 12  1  0
 15 14  2  0
 16 17  1  0
 17 18  2  0
 19 17  1  0
 19 20  1  0
 21 20  1  0
 23 22  1  1
 22 21  1  0
 23 24  1  0
 24 14  1  0
 25 23  1  0
 26 25  1  0
 27 25  2  0
M  END
$$$$
