DTR.pdb
     RDKit          3D

 27 26  0  0  1  0  0  0  0  0999 V2000
    8.3250  -15.1554   13.6438 N   0  0  0  0  0  0  0  0  0  0  0  0
    8.4782  -15.9858   14.8223 C   0  0  1  0  0  0  0  0  0  0  0  0
    9.3689  -17.1627   14.4016 C   0  0  0  0  0  0  0  0  0  0  0  0
    8.5842  -18.3958   14.5244 C   0  0  0  0  0  0  0  0  0  0  0  0
    7.4298  -18.4584   14.0140 O   0  0  0  0  0  0  0  0  0  0  0  0
    9.2168  -15.1864   15.8700 C   0  0  0  0  0  0  0  0  0  0  0  0
   10.2675  -14.5928   15.5513 O   0  0  0  0  0  0  0  0  0  0  0  0
    9.0764  -19.5137   15.1933 O   0  0  0  0  0  0  0  0  0  0  0  0
    7.6249  -12.6687   18.4010 C   0  0  0  0  0  0  0  0  0  0  0  0
    8.5122  -13.6476   19.1277 C   0  0  1  0  0  0  0  0  0  0  0  0
    7.6750  -14.3855   19.9415 O   0  0  0  0  0  0  0  0  0  0  0  0
    9.4168  -14.4179   18.2396 C   0  0  2  0  0  0  0  0  0  0  0  0
    8.7358  -15.1054   17.1885 N   0  0  0  0  0  0  0  0  0  0  0  0
   10.4849  -15.2011   18.9147 C   0  0  0  0  0  0  0  0  0  0  0  0
   10.5303  -16.4708   18.9465 O   0  0  0  0  0  0  0  0  0  0  0  0
   15.9995  -13.0988   18.5650 N   0  0  0  0  0  0  0  0  0  0  0  0
   16.8768  -14.2159   18.4318 C   0  0  0  0  0  0  0  0  0  0  0  0
   17.4456  -14.5272   17.3261 N   0  0  0  0  0  0  0  0  0  0  0  0
   17.1220  -15.0006   19.5763 N   0  0  0  0  0  0  0  0  0  0  0  0
   16.0907  -15.9593   20.0101 C   0  0  0  0  0  0  0  0  0  0  0  0
   15.0932  -15.2965   20.8966 C   0  0  0  0  0  0  0  0  0  0  0  0
   13.9426  -14.6545   20.2264 C   0  0  0  0  0  0  0  0  0  0  0  0
   12.6313  -15.3586   20.2593 C   0  0  2  0  0  0  0  0  0  0  0  0
   11.5747  -14.5940   19.5966 N   0  0  0  0  0  0  0  0  0  0  0  0
   12.1463  -15.7507   21.5853 C   0  0  0  0  0  0  0  0  0  0  0  0
   12.6300  -16.8544   22.2814 O   0  0  0  0  0  0  0  0  0  0  0  0
   11.2483  -15.0782   22.1528 O   0  0  0  0  0  0  0  0  0  0  0  0
  2  1  1  6
  3  4  1  0
  3  2  1  0
  4  5  2  0
  6  7  2  0
  6  2  1  0
  8  4  1  0
 10  9  1  6
 10 12  1  0
 11 10  1  0
 12 13  1  1
 13  6  1  0
 14 12  1  0
 15 14  2  0
 16 17  1  0
 17 18  2  0
 19 17  1  0
 19 20  1  0
 21 20  1  0
 23 22  1  1
 22 21  1  0
 23 24  1  0
 24 14  1  0
 25 23  1  0
 26 25  1  0
 27 25  2  0
M  END
$$$$
