DTR.pdb
     RDKit          3D

 27 26  0  0  1  0  0  0  0  0999 V2000
    9.3502  -18.9280   14.7099 N   0  0  0  0  0  0  0  0  0  0  0  0
   10.3356  -18.4674   15.6683 C   0  0  1  0  0  0  0  0  0  0  0  0
   10.6068  -16.9958   15.3273 C   0  0  0  0  0  0  0  0  0  0  0  0
   11.5618  -16.9533   14.2149 C   0  0  0  0  0  0  0  0  0  0  0  0
   12.1045  -18.0215   13.8128 O   0  0  0  0  0  0  0  0  0  0  0  0
    9.7176  -18.5261   17.0456 C   0  0  0  0  0  0  0  0  0  0  0  0
    8.4810  -18.4030   17.1616 O   0  0  0  0  0  0  0  0  0  0  0  0
   11.8939  -15.7594   13.5797 O   0  0  0  0  0  0  0  0  0  0  0  0
    9.3138  -21.1640   19.2719 C   0  0  0  0  0  0  0  0  0  0  0  0
   10.0066  -20.1211   20.1122 C   0  0  1  0  0  0  0  0  0  0  0  0
   11.2454  -20.6469   20.4229 O   0  0  0  0  0  0  0  0  0  0  0  0
    9.9966  -18.7620   19.5179 C   0  0  2  0  0  0  0  0  0  0  0  0
   10.5153  -18.7166   18.1874 N   0  0  0  0  0  0  0  0  0  0  0  0
   10.4447  -17.6569   20.4056 C   0  0  0  0  0  0  0  0  0  0  0  0
   11.5951  -17.1191   20.3544 O   0  0  0  0  0  0  0  0  0  0  0  0
    7.8791  -18.8955   26.7761 N   0  0  0  0  0  0  0  0  0  0  0  0
    7.0491  -18.1615   25.8774 C   0  0  0  0  0  0  0  0  0  0  0  0
    6.4434  -18.7048   24.8869 N   0  0  0  0  0  0  0  0  0  0  0  0
    6.8953  -16.7791   26.1032 N   0  0  0  0  0  0  0  0  0  0  0  0
    7.2946  -15.8404   25.0400 C   0  0  0  0  0  0  0  0  0  0  0  0
    8.4812  -16.3547   24.3000 C   0  0  0  0  0  0  0  0  0  0  0  0
    8.9698  -15.5211   23.1812 C   0  0  0  0  0  0  0  0  0  0  0  0
   10.0754  -16.0567   22.3401 C   0  0  2  0  0  0  0  0  0  0  0  0
    9.6147  -17.0869   21.4093 N   0  0  0  0  0  0  0  0  0  0  0  0
   11.2356  -16.5831   23.0642 C   0  0  0  0  0  0  0  0  0  0  0  0
   12.2949  -15.7889   23.4927 O   0  0  0  0  0  0  0  0  0  0  0  0
   11.3104  -17.8099   23.3290 O   0  0  0  0  0  0  0  0  0  0  0  0
  2  1  1  6
  3  4  1  0
  3  2  1  0
  4  5  2  0
  6  7  2  0
  6  2  1  0
  8  4  1  0
 10  9  1  6
 10 12  1  0
 11 10  1  0
 12 13  1  6
 13  6  1  0
 14 12  1  0
 15 14  2  0
 16 17  1  0
 17 18  2  0
 19 17  1  0
 19 20  1  0
 21 20  1  0
 23 22  1  1
 22 21  1  0
 23 24  1  0
 24 14  1  0
 25 23  1  0
 26 25  1  0
 27 25  2  0
M  END
$$$$
