DTR.pdb
     RDKit          3D

 27 26  0  0  1  0  0  0  0  0999 V2000
    9.8063  -17.2880   14.4377 N   0  0  0  0  0  0  0  0  0  0  0  0
   11.2076  -17.0756   14.7427 C   0  0  1  0  0  0  0  0  0  0  0  0
   11.7559  -16.1778   13.6251 C   0  0  0  0  0  0  0  0  0  0  0  0
   11.8194  -16.9704   12.3926 C   0  0  0  0  0  0  0  0  0  0  0  0
   11.2950  -18.1197   12.3580 O   0  0  0  0  0  0  0  0  0  0  0  0
   11.2970  -16.3150   16.0450 C   0  0  0  0  0  0  0  0  0  0  0  0
   12.4022  -15.8641   16.4097 O   0  0  0  0  0  0  0  0  0  0  0  0
   12.4464  -16.4913   11.2452 O   0  0  0  0  0  0  0  0  0  0  0  0
    8.8729  -13.5486   17.3076 C   0  0  0  0  0  0  0  0  0  0  0  0
    9.0709  -14.5775   18.3920 C   0  0  1  0  0  0  0  0  0  0  0  0
    7.8309  -15.1480   18.6035 O   0  0  0  0  0  0  0  0  0  0  0  0
   10.1935  -15.5136   18.1392 C   0  0  2  0  0  0  0  0  0  0  0  0
   10.1571  -16.1121   16.8424 N   0  0  0  0  0  0  0  0  0  0  0  0
   10.5350  -16.4404   19.2502 C   0  0  0  0  0  0  0  0  0  0  0  0
   10.2109  -17.6689   19.2830 O   0  0  0  0  0  0  0  0  0  0  0  0
    7.3537  -11.6724   23.6016 N   0  0  0  0  0  0  0  0  0  0  0  0
    7.3995  -12.2423   22.2946 C   0  0  0  0  0  0  0  0  0  0  0  0
    7.5131  -11.5368   21.2304 N   0  0  0  0  0  0  0  0  0  0  0  0
    7.3184  -13.6448   22.1846 N   0  0  0  0  0  0  0  0  0  0  0  0
    7.8165  -14.4711   23.2982 C   0  0  0  0  0  0  0  0  0  0  0  0
    9.2309  -14.8765   23.0633 C   0  0  0  0  0  0  0  0  0  0  0  0
    9.4541  -15.9194   22.0396 C   0  0  0  0  0  0  0  0  0  0  0  0
   10.8548  -16.3430   21.7657 C   0  0  2  0  0  0  0  0  0  0  0  0
   11.2699  -16.0341   20.3974 N   0  0  0  0  0  0  0  0  0  0  0  0
   11.1623  -17.7516   22.0279 C   0  0  0  0  0  0  0  0  0  0  0  0
   10.5171  -18.8071   21.3906 O   0  0  0  0  0  0  0  0  0  0  0  0
   12.0489  -18.0585   22.8649 O   0  0  0  0  0  0  0  0  0  0  0  0
  2  1  1  6
  3  4  1  0
  3  2  1  0
  4  5  2  0
  6  7  2  0
  6  2  1  0
  8  4  1  0
 10  9  1  6
 10 12  1  0
 11 10  1  0
 12 13  1  6
 13  6  1  0
 14 12  1  0
 15 14  2  0
 16 17  1  0
 17 18  2  0
 19 17  1  0
 19 20  1  0
 21 20  1  0
 23 22  1  6
 22 21  1  0
 23 24  1  0
 24 14  1  0
 25 23  1  0
 26 25  1  0
 27 25  2  0
M  END
$$$$
