DTR.pdb
     RDKit          3D

 27 26  0  0  1  0  0  0  0  0999 V2000
    9.2512  -12.9299   17.9776 N   0  0  0  0  0  0  0  0  0  0  0  0
    7.8282  -13.1644   17.8302 C   0  0  1  0  0  0  0  0  0  0  0  0
    7.6423  -13.8025   16.4467 C   0  0  0  0  0  0  0  0  0  0  0  0
    8.8240  -14.6226   16.1597 C   0  0  0  0  0  0  0  0  0  0  0  0
    9.7488  -14.7120   17.0164 O   0  0  0  0  0  0  0  0  0  0  0  0
    7.4052  -14.1710   18.8743 C   0  0  0  0  0  0  0  0  0  0  0  0
    6.2506  -14.6430   18.8295 O   0  0  0  0  0  0  0  0  0  0  0  0
    8.9613  -15.3145   14.9590 O   0  0  0  0  0  0  0  0  0  0  0  0
    6.0019  -16.3717   19.5223 C   0  0  0  0  0  0  0  0  0  0  0  0
    7.2586  -16.7513   20.2640 C   0  0  1  0  0  0  0  0  0  0  0  0
    7.9720  -17.5671   19.4077 O   0  0  0  0  0  0  0  0  0  0  0  0
    7.9918  -15.5978   20.8405 C   0  0  2  0  0  0  0  0  0  0  0  0
    8.2920  -14.5774   19.8865 N   0  0  0  0  0  0  0  0  0  0  0  0
    9.0979  -15.9281   21.7771 C   0  0  0  0  0  0  0  0  0  0  0  0
   10.3174  -15.6300   21.5785 O   0  0  0  0  0  0  0  0  0  0  0  0
    9.5465  -13.5053   29.3468 N   0  0  0  0  0  0  0  0  0  0  0  0
   10.4653  -14.5472   29.6715 C   0  0  0  0  0  0  0  0  0  0  0  0
   11.3991  -14.4077   30.5384 N   0  0  0  0  0  0  0  0  0  0  0  0
   10.3253  -15.7802   29.0038 N   0  0  0  0  0  0  0  0  0  0  0  0
    9.3567  -15.8792   27.8980 C   0  0  0  0  0  0  0  0  0  0  0  0
   10.0508  -16.1742   26.6129 C   0  0  0  0  0  0  0  0  0  0  0  0
    9.1956  -16.2690   25.4109 C   0  0  0  0  0  0  0  0  0  0  0  0
    9.8483  -16.5850   24.1106 C   0  0  2  0  0  0  0  0  0  0  0  0
    8.8923  -16.6169   23.0037 N   0  0  0  0  0  0  0  0  0  0  0  0
   10.6332  -17.8217   24.0702 C   0  0  0  0  0  0  0  0  0  0  0  0
   11.9830  -17.8825   24.4029 O   0  0  0  0  0  0  0  0  0  0  0  0
   10.0915  -18.9016   23.7221 O   0  0  0  0  0  0  0  0  0  0  0  0
  2  1  1  1
  3  4  1  0
  3  2  1  0
  4  5  2  0
  6  7  2  0
  6  2  1  0
  8  4  1  0
 10  9  1  6
 10 12  1  0
 11 10  1  0
 12 13  1  6
 13  6  1  0
 14 12  1  0
 15 14  2  0
 16 17  1  0
 17 18  2  0
 19 17  1  0
 19 20  1  0
 21 20  1  0
 23 22  1  1
 22 21  1  0
 23 24  1  0
 24 14  1  0
 25 23  1  0
 26 25  1  0
 27 25  2  0
M  END
$$$$
