DTR.pdb
     RDKit          3D

 27 26  0  0  1  0  0  0  0  0999 V2000
    7.5080  -14.3847   13.8843 N   0  0  0  0  0  0  0  0  0  0  0  0
    8.4161  -15.1881   14.6791 C   0  0  1  0  0  0  0  0  0  0  0  0
    9.7225  -15.2734   13.8782 C   0  0  0  0  0  0  0  0  0  0  0  0
   10.6714  -16.0936   14.6384 C   0  0  0  0  0  0  0  0  0  0  0  0
   10.2417  -16.9309   15.4819 O   0  0  0  0  0  0  0  0  0  0  0  0
    8.6990  -14.4474   15.9651 C   0  0  0  0  0  0  0  0  0  0  0  0
    8.7108  -13.1993   15.9565 O   0  0  0  0  0  0  0  0  0  0  0  0
   12.0475  -15.9783   14.4585 O   0  0  0  0  0  0  0  0  0  0  0  0
    6.5770  -14.0470   18.7147 C   0  0  0  0  0  0  0  0  0  0  0  0
    7.9782  -13.4923   18.6666 C   0  0  1  0  0  0  0  0  0  0  0  0
    8.1152  -12.7111   19.7974 O   0  0  0  0  0  0  0  0  0  0  0  0
    9.0266  -14.5173   18.4417 C   0  0  2  0  0  0  0  0  0  0  0  0
    8.9465  -15.1445   17.1605 N   0  0  0  0  0  0  0  0  0  0  0  0
    9.2947  -15.4385   19.5772 C   0  0  0  0  0  0  0  0  0  0  0  0
    8.9394  -16.6584   19.6087 O   0  0  0  0  0  0  0  0  0  0  0  0
   16.2429  -13.8377   21.1775 N   0  0  0  0  0  0  0  0  0  0  0  0
   15.5655  -14.5628   20.1525 C   0  0  0  0  0  0  0  0  0  0  0  0
   15.7752  -14.3642   18.9036 N   0  0  0  0  0  0  0  0  0  0  0  0
   14.6293  -15.5398   20.5459 N   0  0  0  0  0  0  0  0  0  0  0  0
   14.2670  -15.6384   21.9707 C   0  0  0  0  0  0  0  0  0  0  0  0
   12.8289  -15.3057   22.1739 C   0  0  0  0  0  0  0  0  0  0  0  0
   11.8499  -16.3105   21.7078 C   0  0  0  0  0  0  0  0  0  0  0  0
   10.4028  -15.9717   21.7970 C   0  0  2  0  0  0  0  0  0  0  0  0
    9.9871  -15.0362   20.7520 N   0  0  0  0  0  0  0  0  0  0  0  0
    9.9447  -15.4472   23.0863 C   0  0  0  0  0  0  0  0  0  0  0  0
   10.0742  -16.1423   24.2848 O   0  0  0  0  0  0  0  0  0  0  0  0
    9.4028  -14.3144   23.1498 O   0  0  0  0  0  0  0  0  0  0  0  0
  2  1  1  6
  3  4  1  0
  3  2  1  0
  4  5  2  0
  6  7  2  0
  6  2  1  0
  8  4  1  0
 10  9  1  1
 10 12  1  0
 11 10  1  0
 12 13  1  6
 13  6  1  0
 14 12  1  0
 15 14  2  0
 16 17  1  0
 17 18  2  0
 19 17  1  0
 19 20  1  0
 21 20  1  0
 23 22  1  1
 22 21  1  0
 23 24  1  0
 24 14  1  0
 25 23  1  0
 26 25  1  0
 27 25  2  0
M  END
$$$$
