DTR.pdb
     RDKit          3D

 27 26  0  0  1  0  0  0  0  0999 V2000
    9.4690  -12.7360   18.5029 N   0  0  0  0  0  0  0  0  0  0  0  0
    8.1680  -12.9642   19.1004 C   0  0  1  0  0  0  0  0  0  0  0  0
    7.1844  -13.1222   17.9329 C   0  0  0  0  0  0  0  0  0  0  0  0
    7.7555  -14.0814   16.9814 C   0  0  0  0  0  0  0  0  0  0  0  0
    8.8415  -14.6665   17.2559 O   0  0  0  0  0  0  0  0  0  0  0  0
    8.2181  -14.2720   19.8549 C   0  0  0  0  0  0  0  0  0  0  0  0
    7.1894  -14.6791   20.4328 O   0  0  0  0  0  0  0  0  0  0  0  0
    7.1318  -14.3718   15.7706 O   0  0  0  0  0  0  0  0  0  0  0  0
    9.0637  -17.6617   18.7442 C   0  0  0  0  0  0  0  0  0  0  0  0
    9.9351  -17.4053   19.9477 C   0  0  1  0  0  0  0  0  0  0  0  0
   11.2375  -17.4622   19.4912 O   0  0  0  0  0  0  0  0  0  0  0  0
    9.5587  -16.1958   20.7197 C   0  0  2  0  0  0  0  0  0  0  0  0
    9.4020  -15.0282   19.9114 N   0  0  0  0  0  0  0  0  0  0  0  0
   10.2876  -15.9827   21.9977 C   0  0  0  0  0  0  0  0  0  0  0  0
   10.5437  -14.8411   22.4941 O   0  0  0  0  0  0  0  0  0  0  0  0
    9.8972  -13.3914   28.2794 N   0  0  0  0  0  0  0  0  0  0  0  0
    9.9841  -14.5525   29.1037 C   0  0  0  0  0  0  0  0  0  0  0  0
   10.6531  -14.5826   30.1967 N   0  0  0  0  0  0  0  0  0  0  0  0
    9.2958  -15.7092   28.6865 N   0  0  0  0  0  0  0  0  0  0  0  0
    8.9580  -15.8546   27.2597 C   0  0  0  0  0  0  0  0  0  0  0  0
   10.1820  -16.1170   26.4515 C   0  0  0  0  0  0  0  0  0  0  0  0
    9.9797  -16.3294   25.0026 C   0  0  0  0  0  0  0  0  0  0  0  0
   11.1046  -16.9056   24.2159 C   0  0  2  0  0  0  0  0  0  0  0  0
   10.7719  -17.0526   22.7989 N   0  0  0  0  0  0  0  0  0  0  0  0
   11.6332  -18.1857   24.6947 C   0  0  0  0  0  0  0  0  0  0  0  0
   12.6008  -18.2900   25.6893 O   0  0  0  0  0  0  0  0  0  0  0  0
   11.2133  -19.2647   24.2043 O   0  0  0  0  0  0  0  0  0  0  0  0
  2  1  1  6
  3  4  1  0
  3  2  1  0
  4  5  2  0
  6  7  2  0
  6  2  1  0
  8  4  1  0
 10  9  1  6
 10 12  1  0
 11 10  1  0
 12 13  1  6
 13  6  1  0
 14 12  1  0
 15 14  2  0
 16 17  1  0
 17 18  2  0
 19 17  1  0
 19 20  1  0
 21 20  1  0
 23 22  1  1
 22 21  1  0
 23 24  1  0
 24 14  1  0
 25 23  1  0
 26 25  1  0
 27 25  2  0
M  END
$$$$
