DTR.pdb
     RDKit          3D

 27 26  0  0  1  0  0  0  0  0999 V2000
   11.0263  -16.3407   17.9802 N   0  0  0  0  0  0  0  0  0  0  0  0
   11.9793  -15.6239   18.8046 C   0  0  1  0  0  0  0  0  0  0  0  0
   12.6293  -14.5755   17.8914 C   0  0  0  0  0  0  0  0  0  0  0  0
   13.6466  -15.2478   17.0764 C   0  0  0  0  0  0  0  0  0  0  0  0
   14.1802  -16.3148   17.4934 O   0  0  0  0  0  0  0  0  0  0  0  0
   11.2149  -14.8977   19.8865 C   0  0  0  0  0  0  0  0  0  0  0  0
   11.8378  -14.1649   20.6821 O   0  0  0  0  0  0  0  0  0  0  0  0
   14.0484  -14.7422   15.8426 O   0  0  0  0  0  0  0  0  0  0  0  0
    7.6879  -13.1117   19.3157 C   0  0  0  0  0  0  0  0  0  0  0  0
    7.6867  -13.9921   20.5398 C   0  0  1  0  0  0  0  0  0  0  0  0
    6.8108  -15.0237   20.2634 O   0  0  0  0  0  0  0  0  0  0  0  0
    9.0402  -14.3823   21.0049 C   0  0  2  0  0  0  0  0  0  0  0  0
    9.8210  -15.0380   20.0042 N   0  0  0  0  0  0  0  0  0  0  0  0
    9.1162  -14.9893   22.3598 C   0  0  0  0  0  0  0  0  0  0  0  0
    9.4381  -16.1979   22.5858 O   0  0  0  0  0  0  0  0  0  0  0  0
   10.6654  -16.5893   28.5411 N   0  0  0  0  0  0  0  0  0  0  0  0
   10.4111  -15.8015   29.7030 C   0  0  0  0  0  0  0  0  0  0  0  0
   10.2471  -16.3106   30.8679 N   0  0  0  0  0  0  0  0  0  0  0  0
   10.3434  -14.4025   29.5480 N   0  0  0  0  0  0  0  0  0  0  0  0
    9.5419  -13.8520   28.4409 C   0  0  0  0  0  0  0  0  0  0  0  0
    9.9300  -14.4784   27.1459 C   0  0  0  0  0  0  0  0  0  0  0  0
    9.2993  -13.9203   25.9310 C   0  0  0  0  0  0  0  0  0  0  0  0
    8.8426  -14.8706   24.8798 C   0  0  2  0  0  0  0  0  0  0  0  0
    8.8343  -14.2631   23.5491 N   0  0  0  0  0  0  0  0  0  0  0  0
    7.5361  -15.4955   25.1034 C   0  0  0  0  0  0  0  0  0  0  0  0
    7.3691  -16.6962   25.7865 O   0  0  0  0  0  0  0  0  0  0  0  0
    6.4916  -14.9460   24.6698 O   0  0  0  0  0  0  0  0  0  0  0  0
  2  1  1  6
  3  4  1  0
  3  2  1  0
  4  5  2  0
  6  7  2  0
  6  2  1  0
  8  4  1  0
 10  9  1  6
 10 12  1  0
 11 10  1  0
 12 13  1  6
 13  6  1  0
 14 12  1  0
 15 14  2  0
 16 17  1  0
 17 18  2  0
 19 17  1  0
 19 20  1  0
 21 20  1  0
 23 22  1  1
 22 21  1  0
 23 24  1  0
 24 14  1  0
 25 23  1  0
 26 25  1  0
 27 25  2  0
M  END
$$$$
