DTR.pdb
     RDKit          3D

 27 26  0  0  1  0  0  0  0  0999 V2000
   11.9585  -15.5017   17.4696 N   0  0  0  0  0  0  0  0  0  0  0  0
   12.7480  -15.2517   18.6595 C   0  0  1  0  0  0  0  0  0  0  0  0
   13.7555  -14.1576   18.2807 C   0  0  0  0  0  0  0  0  0  0  0  0
   14.7840  -14.7602   17.4261 C   0  0  0  0  0  0  0  0  0  0  0  0
   14.4481  -15.3449   16.3573 O   0  0  0  0  0  0  0  0  0  0  0  0
   11.8317  -14.6999   19.7264 C   0  0  0  0  0  0  0  0  0  0  0  0
   12.3039  -14.4237   20.8483 O   0  0  0  0  0  0  0  0  0  0  0  0
   16.1353  -14.7079   17.7584 O   0  0  0  0  0  0  0  0  0  0  0  0
    8.7150  -12.1895   19.0061 C   0  0  0  0  0  0  0  0  0  0  0  0
    8.3559  -13.3527   19.8957 C   0  0  1  0  0  0  0  0  0  0  0  0
    7.4581  -14.1168   19.1762 O   0  0  0  0  0  0  0  0  0  0  0  0
    9.5277  -14.0670   20.4589 C   0  0  2  0  0  0  0  0  0  0  0  0
   10.4647  -14.4961   19.4694 N   0  0  0  0  0  0  0  0  0  0  0  0
    9.2367  -15.0632   21.5233 C   0  0  0  0  0  0  0  0  0  0  0  0
    9.1044  -16.3107   21.3195 O   0  0  0  0  0  0  0  0  0  0  0  0
   13.0164  -19.9080   26.7444 N   0  0  0  0  0  0  0  0  0  0  0  0
   12.1845  -20.2916   25.6508 C   0  0  0  0  0  0  0  0  0  0  0  0
   12.3461  -21.3856   25.0026 N   0  0  0  0  0  0  0  0  0  0  0  0
   11.1407  -19.4204   25.2804 N   0  0  0  0  0  0  0  0  0  0  0  0
   11.0506  -18.1052   25.9385 C   0  0  0  0  0  0  0  0  0  0  0  0
    9.8195  -17.3836   25.5098 C   0  0  0  0  0  0  0  0  0  0  0  0
    9.9749  -16.4223   24.3977 C   0  0  0  0  0  0  0  0  0  0  0  0
    8.7680  -15.6806   23.9396 C   0  0  2  0  0  0  0  0  0  0  0  0
    9.0791  -14.7091   22.8911 N   0  0  0  0  0  0  0  0  0  0  0  0
    8.0017  -14.9946   24.9834 C   0  0  0  0  0  0  0  0  0  0  0  0
    7.6744  -13.6432   24.9291 O   0  0  0  0  0  0  0  0  0  0  0  0
    7.6034  -15.6287   25.9934 O   0  0  0  0  0  0  0  0  0  0  0  0
  2  1  1  6
  3  4  1  0
  3  2  1  0
  4  5  2  0
  6  7  2  0
  6  2  1  0
  8  4  1  0
 10  9  1  6
 10 12  1  0
 11 10  1  0
 12 13  1  6
 13  6  1  0
 14 12  1  0
 15 14  2  0
 16 17  1  0
 17 18  2  0
 19 17  1  0
 19 20  1  0
 21 20  1  0
 23 22  1  1
 22 21  1  0
 23 24  1  0
 24 14  1  0
 25 23  1  0
 26 25  1  0
 27 25  2  0
M  END
$$$$
