DTR.pdb
     RDKit          3D

 27 26  0  0  1  0  0  0  0  0999 V2000
   12.2237  -14.3675   17.1432 N   0  0  0  0  0  0  0  0  0  0  0  0
   12.4921  -14.9969   18.4213 C   0  0  1  0  0  0  0  0  0  0  0  0
   13.9116  -14.5688   18.8177 C   0  0  0  0  0  0  0  0  0  0  0  0
   14.8560  -15.2123   17.8982 C   0  0  0  0  0  0  0  0  0  0  0  0
   14.6784  -16.4162   17.5574 O   0  0  0  0  0  0  0  0  0  0  0  0
   11.5280  -14.4311   19.4375 C   0  0  0  0  0  0  0  0  0  0  0  0
   11.8244  -13.3749   20.0328 O   0  0  0  0  0  0  0  0  0  0  0  0
   15.9555  -14.5310   17.3822 O   0  0  0  0  0  0  0  0  0  0  0  0
    8.4727  -12.8530   18.9554 C   0  0  0  0  0  0  0  0  0  0  0  0
    8.1409  -13.9842   19.8956 C   0  0  1  0  0  0  0  0  0  0  0  0
    7.3753  -14.8717   19.1650 O   0  0  0  0  0  0  0  0  0  0  0  0
    9.3180  -14.5509   20.5983 C   0  0  2  0  0  0  0  0  0  0  0  0
   10.3109  -15.0773   19.7161 N   0  0  0  0  0  0  0  0  0  0  0  0
    9.0264  -15.3908   21.7897 C   0  0  0  0  0  0  0  0  0  0  0  0
    9.0852  -16.6604   21.8024 O   0  0  0  0  0  0  0  0  0  0  0  0
   10.6006  -16.1137   31.0385 N   0  0  0  0  0  0  0  0  0  0  0  0
   10.4269  -15.2142   29.9448 C   0  0  0  0  0  0  0  0  0  0  0  0
   10.6763  -13.9597   30.0280 N   0  0  0  0  0  0  0  0  0  0  0  0
    9.9631  -15.7438   28.7241 N   0  0  0  0  0  0  0  0  0  0  0  0
    8.8872  -15.0349   28.0094 C   0  0  0  0  0  0  0  0  0  0  0  0
    8.5280  -15.7501   26.7525 C   0  0  0  0  0  0  0  0  0  0  0  0
    8.7458  -15.0111   25.4909 C   0  0  0  0  0  0  0  0  0  0  0  0
    8.3395  -15.6660   24.2171 C   0  0  2  0  0  0  0  0  0  0  0  0
    8.6511  -14.8444   23.0474 N   0  0  0  0  0  0  0  0  0  0  0  0
    6.9354  -16.0753   24.1251 C   0  0  0  0  0  0  0  0  0  0  0  0
    6.4054  -17.1539   24.8266 O   0  0  0  0  0  0  0  0  0  0  0  0
    6.1410  -15.4419   23.3845 O   0  0  0  0  0  0  0  0  0  0  0  0
  2  1  1  6
  3  4  1  0
  3  2  1  0
  4  5  2  0
  6  7  2  0
  6  2  1  0
  8  4  1  0
 10  9  1  6
 10 12  1  0
 11 10  1  0
 12 13  1  6
 13  6  1  0
 14 12  1  0
 15 14  2  0
 16 17  1  0
 17 18  2  0
 19 17  1  0
 19 20  1  0
 21 20  1  0
 23 22  1  1
 22 21  1  0
 23 24  1  0
 24 14  1  0
 25 23  1  0
 26 25  1  0
 27 25  2  0
M  END
$$$$
