DTR.pdb
     RDKit          3D

 27 26  0  0  1  0  0  0  0  0999 V2000
   12.1246  -17.5756   16.8685 N   0  0  0  0  0  0  0  0  0  0  0  0
   10.7472  -17.6633   17.3118 C   0  0  1  0  0  0  0  0  0  0  0  0
   10.0988  -18.7726   16.4724 C   0  0  0  0  0  0  0  0  0  0  0  0
    9.9896  -18.2944   15.0901 C   0  0  0  0  0  0  0  0  0  0  0  0
   10.5206  -17.1954   14.7625 O   0  0  0  0  0  0  0  0  0  0  0  0
   10.7437  -18.1028   18.7572 C   0  0  0  0  0  0  0  0  0  0  0  0
    9.6517  -18.2869   19.3329 O   0  0  0  0  0  0  0  0  0  0  0  0
    9.3114  -19.0214   14.1150 O   0  0  0  0  0  0  0  0  0  0  0  0
   13.3941  -20.6649   20.3936 C   0  0  0  0  0  0  0  0  0  0  0  0
   13.2102  -19.4153   21.2170 C   0  0  1  0  0  0  0  0  0  0  0  0
   14.4240  -18.7572   21.1828 O   0  0  0  0  0  0  0  0  0  0  0  0
   12.0160  -18.6173   20.8458 C   0  0  2  0  0  0  0  0  0  0  0  0
   11.9483  -18.3047   19.4533 N   0  0  0  0  0  0  0  0  0  0  0  0
   11.6682  -17.4973   21.7594 C   0  0  0  0  0  0  0  0  0  0  0  0
   12.0192  -16.2894   21.5773 O   0  0  0  0  0  0  0  0  0  0  0  0
    6.8039  -13.4596   19.2875 N   0  0  0  0  0  0  0  0  0  0  0  0
    8.0775  -12.8273   19.4027 C   0  0  0  0  0  0  0  0  0  0  0  0
    8.4582  -11.8804   18.6270 N   0  0  0  0  0  0  0  0  0  0  0  0
    8.9436  -13.2719   20.4216 N   0  0  0  0  0  0  0  0  0  0  0  0
    8.5370  -14.4272   21.2406 C   0  0  0  0  0  0  0  0  0  0  0  0
    9.5308  -14.6845   22.3206 C   0  0  0  0  0  0  0  0  0  0  0  0
    9.2723  -15.8546   23.1862 C   0  0  0  0  0  0  0  0  0  0  0  0
   10.4426  -16.5619   23.7750 C   0  0  2  0  0  0  0  0  0  0  0  0
   10.8958  -17.6742   22.9398 N   0  0  0  0  0  0  0  0  0  0  0  0
   10.2703  -17.0599   25.1423 C   0  0  0  0  0  0  0  0  0  0  0  0
   10.2116  -16.2295   26.2573 O   0  0  0  0  0  0  0  0  0  0  0  0
   10.1666  -18.2947   25.3556 O   0  0  0  0  0  0  0  0  0  0  0  0
  2  1  1  6
  3  4  1  0
  3  2  1  0
  4  5  2  0
  6  7  2  0
  6  2  1  0
  8  4  1  0
 10  9  1  6
 10 12  1  0
 11 10  1  0
 12 13  1  6
 13  6  1  0
 14 12  1  0
 15 14  2  0
 16 17  1  0
 17 18  2  0
 19 17  1  0
 19 20  1  0
 21 20  1  0
 23 22  1  6
 22 21  1  0
 23 24  1  0
 24 14  1  0
 25 23  1  0
 26 25  1  0
 27 25  2  0
M  END
$$$$
