FGW.pdb
     RDKit          3D

 30 32  0  0  1  0  0  0  0  0999 V2000
    6.7369  -17.2920   22.5360 N   0  0  0  0  0  0  0  0  0  0  0  0
    7.3858  -17.2671   21.2521 C   0  0  1  0  0  0  0  0  0  0  0  0
    6.8013  -16.3096   20.2816 C   0  0  0  0  0  0  0  0  0  0  0  0
    7.2636  -14.9298   20.3699 C   0  0  0  0  0  0  0  0  0  0  0  0
    8.2082  -14.6574   21.3742 C   0  0  0  0  0  0  0  0  0  0  0  0
    8.6972  -13.4007   21.5343 C   0  0  0  0  0  0  0  0  0  0  0  0
    8.2919  -12.3451   20.7254 C   0  0  0  0  0  0  0  0  0  0  0  0
    7.3528  -12.6341   19.7329 C   0  0  0  0  0  0  0  0  0  0  0  0
    6.8494  -13.8979   19.5584 C   0  0  0  0  0  0  0  0  0  0  0  0
    8.8572  -17.1650   21.3346 C   0  0  0  0  0  0  0  0  0  0  0  0
    9.5485  -17.8045   20.5086 O   0  0  0  0  0  0  0  0  0  0  0  0
    9.4443  -16.3565   22.3335 N   0  0  0  0  0  0  0  0  0  0  0  0
   10.8917  -16.2233   22.4742 C   0  0  0  0  0  0  0  0  0  0  0  0
   11.2866  -16.2913   23.9146 C   0  0  0  0  0  0  0  0  0  0  0  0
   12.4890  -16.2098   24.2245 O   0  0  0  0  0  0  0  0  0  0  0  0
   10.3018  -16.4458   24.9107 N   0  0  0  0  0  0  0  0  0  0  0  0
   10.5086  -16.5581   26.3086 C   0  0  1  0  0  0  0  0  0  0  0  0
    9.6786  -15.7002   27.1910 C   0  0  0  0  0  0  0  0  0  0  0  0
    8.3879  -15.2884   26.6180 C   0  0  0  0  0  0  0  0  0  0  0  0
    7.3925  -16.0936   26.1580 C   0  0  0  0  0  0  0  0  0  0  0  0
    6.3576  -15.3481   25.7097 N   0  0  0  0  0  0  0  0  0  0  0  0
    6.6973  -14.0482   25.8860 C   0  0  0  0  0  0  0  0  0  0  0  0
    5.9879  -12.8865   25.5913 C   0  0  0  0  0  0  0  0  0  0  0  0
    6.5737  -11.6720   25.8762 C   0  0  0  0  0  0  0  0  0  0  0  0
    7.8300  -11.5954   26.4389 C   0  0  0  0  0  0  0  0  0  0  0  0
    8.5142  -12.7462   26.7226 C   0  0  0  0  0  0  0  0  0  0  0  0
    7.9469  -13.9755   26.4457 C   0  0  0  0  0  0  0  0  0  0  0  0
   10.3678  -17.9834   26.7556 C   0  0  0  0  0  0  0  0  0  0  0  0
   10.8108  -18.2882   28.0481 O   0  0  0  0  0  0  0  0  0  0  0  0
    9.8926  -18.9020   26.0733 O   0  0  0  0  0  0  0  0  0  0  0  0
  2  1  1  1
  2  3  1  0
  3  4  1  0
  4  5  2  0
  5  6  1  0
  7  6  2  0
  8  7  1  0
  9  4  1  0
  9  8  2  0
 10  2  1  0
 10 12  1  0
 11 10  2  0
 13 12  1  0
 13 14  1  0
 14 15  2  0
 16 14  1  0
 16 17  1  0
 17 18  1  1
 19 18  1  0
 20 19  2  0
 21 22  1  0
 21 20  1  0
 22 27  2  0
 23 24  2  0
 23 22  1  0
 24 25  1  0
 25 26  2  0
 27 19  1  0
 27 26  1  0
 28 17  1  0
 28 29  1  0
 30 28  2  0
M  END
$$$$
