FGW.pdb
     RDKit          3D

 30 32  0  0  1  0  0  0  0  0999 V2000
    9.3913  -17.3713   17.0899 N   0  0  0  0  0  0  0  0  0  0  0  0
    9.2138  -16.8985   18.4372 C   0  0  1  0  0  0  0  0  0  0  0  0
    7.9137  -16.2316   18.6928 C   0  0  0  0  0  0  0  0  0  0  0  0
    7.9711  -14.8585   19.1794 C   0  0  0  0  0  0  0  0  0  0  0  0
    6.7357  -14.2099   19.3470 C   0  0  0  0  0  0  0  0  0  0  0  0
    6.6879  -12.9290   19.7952 C   0  0  0  0  0  0  0  0  0  0  0  0
    7.8397  -12.2140   20.1031 C   0  0  0  0  0  0  0  0  0  0  0  0
    9.0583  -12.8742   19.9306 C   0  0  0  0  0  0  0  0  0  0  0  0
    9.1233  -14.1675   19.4790 C   0  0  0  0  0  0  0  0  0  0  0  0
    9.5480  -17.9043   19.4662 C   0  0  0  0  0  0  0  0  0  0  0  0
    9.3534  -19.1140   19.2056 O   0  0  0  0  0  0  0  0  0  0  0  0
   10.0740  -17.4823   20.7077 N   0  0  0  0  0  0  0  0  0  0  0  0
    9.3349  -16.5981   21.6047 C   0  0  0  0  0  0  0  0  0  0  0  0
   10.1486  -16.2845   22.8191 C   0  0  0  0  0  0  0  0  0  0  0  0
   11.3866  -16.2032   22.7227 O   0  0  0  0  0  0  0  0  0  0  0  0
    9.5148  -16.0827   24.0615 N   0  0  0  0  0  0  0  0  0  0  0  0
   10.0804  -16.2583   25.3494 C   0  0  1  0  0  0  0  0  0  0  0  0
    9.5534  -15.4085   26.4465 C   0  0  0  0  0  0  0  0  0  0  0  0
    8.1727  -14.9378   26.2562 C   0  0  0  0  0  0  0  0  0  0  0  0
    7.0809  -15.6842   25.9373 C   0  0  0  0  0  0  0  0  0  0  0  0
    5.9850  -14.8972   25.8528 N   0  0  0  0  0  0  0  0  0  0  0  0
    6.3829  -13.6300   26.1216 C   0  0  0  0  0  0  0  0  0  0  0  0
    5.6477  -12.4480   26.1655 C   0  0  0  0  0  0  0  0  0  0  0  0
    6.3086  -11.2772   26.4690 C   0  0  0  0  0  0  0  0  0  0  0  0
    7.6633  -11.2632   26.7247 C   0  0  0  0  0  0  0  0  0  0  0  0
    8.3715  -12.4334   26.6776 C   0  0  0  0  0  0  0  0  0  0  0  0
    7.7303  -13.6195   26.3755 C   0  0  0  0  0  0  0  0  0  0  0  0
   10.0007  -17.6948   25.7753 C   0  0  0  0  0  0  0  0  0  0  0  0
   10.8372  -18.0909   26.8256 O   0  0  0  0  0  0  0  0  0  0  0  0
    9.2565  -18.5483   25.2726 O   0  0  0  0  0  0  0  0  0  0  0  0
  2  1  1  6
  2  3  1  0
  3  4  1  0
  4  5  2  0
  5  6  1  0
  7  6  2  0
  8  7  1  0
  9  4  1  0
  9  8  2  0
 10  2  1  0
 10 12  1  0
 11 10  2  0
 13 12  1  0
 13 14  1  0
 14 15  2  0
 16 14  1  0
 16 17  1  0
 17 18  1  1
 19 18  1  0
 20 19  2  0
 21 22  1  0
 21 20  1  0
 22 27  2  0
 23 24  2  0
 23 22  1  0
 24 25  1  0
 25 26  2  0
 27 19  1  0
 27 26  1  0
 28 17  1  0
 28 29  1  0
 30 28  2  0
M  END
$$$$
