FGW.pdb
     RDKit          3D

 30 32  0  0  1  0  0  0  0  0999 V2000
    6.7866  -16.5766   22.8352 N   0  0  0  0  0  0  0  0  0  0  0  0
    7.2418  -16.9773   21.5305 C   0  0  1  0  0  0  0  0  0  0  0  0
    6.6564  -16.2059   20.4068 C   0  0  0  0  0  0  0  0  0  0  0  0
    7.0652  -14.8112   20.2922 C   0  0  0  0  0  0  0  0  0  0  0  0
    6.9107  -14.0249   21.4468 C   0  0  0  0  0  0  0  0  0  0  0  0
    7.2633  -12.7136   21.4367 C   0  0  0  0  0  0  0  0  0  0  0  0
    7.7842  -12.1006   20.3028 C   0  0  0  0  0  0  0  0  0  0  0  0
    7.9306  -12.8971   19.1649 C   0  0  0  0  0  0  0  0  0  0  0  0
    7.5793  -14.2228   19.1590 C   0  0  0  0  0  0  0  0  0  0  0  0
    8.7102  -17.1030   21.4288 C   0  0  0  0  0  0  0  0  0  0  0  0
    9.1845  -17.9661   20.6547 O   0  0  0  0  0  0  0  0  0  0  0  0
    9.5368  -16.2551   22.1995 N   0  0  0  0  0  0  0  0  0  0  0  0
   10.9085  -16.6146   22.5485 C   0  0  0  0  0  0  0  0  0  0  0  0
   11.1608  -16.3700   24.0017 C   0  0  0  0  0  0  0  0  0  0  0  0
   12.1938  -15.7709   24.3516 O   0  0  0  0  0  0  0  0  0  0  0  0
   10.2333  -16.8156   24.9646 N   0  0  0  0  0  0  0  0  0  0  0  0
   10.3561  -16.7315   26.3743 C   0  0  1  0  0  0  0  0  0  0  0  0
    9.1017  -16.7215   27.1680 C   0  0  0  0  0  0  0  0  0  0  0  0
    8.0532  -15.8249   26.6573 C   0  0  0  0  0  0  0  0  0  0  0  0
    6.9407  -16.1693   25.9540 C   0  0  0  0  0  0  0  0  0  0  0  0
    6.2119  -15.0684   25.6633 N   0  0  0  0  0  0  0  0  0  0  0  0
    6.8687  -14.0059   26.1886 C   0  0  0  0  0  0  0  0  0  0  0  0
    6.5449  -12.6514   26.1707 C   0  0  0  0  0  0  0  0  0  0  0  0
    7.3997  -11.7659   26.7910 C   0  0  0  0  0  0  0  0  0  0  0  0
    8.5498  -12.1976   27.4170 C   0  0  0  0  0  0  0  0  0  0  0  0
    8.8538  -13.5319   27.4257 C   0  0  0  0  0  0  0  0  0  0  0  0
    8.0116  -14.4383   26.8103 C   0  0  0  0  0  0  0  0  0  0  0  0
   11.2458  -17.8204   26.8978 C   0  0  0  0  0  0  0  0  0  0  0  0
   11.6250  -17.7362   28.2427 O   0  0  0  0  0  0  0  0  0  0  0  0
   11.6652  -18.7799   26.2356 O   0  0  0  0  0  0  0  0  0  0  0  0
  2  1  1  1
  2  3  1  0
  3  4  1  0
  4  5  2  0
  5  6  1  0
  7  6  2  0
  8  7  1  0
  9  4  1  0
  9  8  2  0
 10  2  1  0
 10 12  1  0
 11 10  2  0
 13 12  1  0
 13 14  1  0
 14 15  2  0
 16 14  1  0
 16 17  1  0
 17 18  1  1
 19 18  1  0
 20 19  2  0
 21 22  1  0
 21 20  1  0
 22 27  2  0
 23 24  2  0
 23 22  1  0
 24 25  1  0
 25 26  2  0
 27 19  1  0
 27 26  1  0
 28 17  1  0
 28 29  1  0
 30 28  2  0
M  END
$$$$
