FGW.pdb
     RDKit          3D

 30 32  0  0  1  0  0  0  0  0999 V2000
    6.4084  -18.4859   22.5161 N   0  0  0  0  0  0  0  0  0  0  0  0
    6.3072  -17.7897   21.2611 C   0  0  1  0  0  0  0  0  0  0  0  0
    5.0946  -16.9475   21.1164 C   0  0  0  0  0  0  0  0  0  0  0  0
    3.8135  -17.6082   21.3348 C   0  0  0  0  0  0  0  0  0  0  0  0
    3.2581  -18.2628   20.2221 C   0  0  0  0  0  0  0  0  0  0  0  0
    2.0667  -18.9059   20.3280 C   0  0  0  0  0  0  0  0  0  0  0  0
    1.3553  -18.9448   21.5217 C   0  0  0  0  0  0  0  0  0  0  0  0
    1.9223  -18.2890   22.6168 C   0  0  0  0  0  0  0  0  0  0  0  0
    3.1245  -17.6352   22.5261 C   0  0  0  0  0  0  0  0  0  0  0  0
    7.5429  -17.0762   20.8788 C   0  0  0  0  0  0  0  0  0  0  0  0
    7.7216  -16.7940   19.6715 O   0  0  0  0  0  0  0  0  0  0  0  0
    8.4850  -16.7326   21.8740 N   0  0  0  0  0  0  0  0  0  0  0  0
    9.9040  -16.5609   21.5749 C   0  0  0  0  0  0  0  0  0  0  0  0
   10.6457  -16.1117   22.7929 C   0  0  0  0  0  0  0  0  0  0  0  0
   11.8710  -15.9063   22.7227 O   0  0  0  0  0  0  0  0  0  0  0  0
    9.9589  -15.9231   24.0089 N   0  0  0  0  0  0  0  0  0  0  0  0
   10.4669  -16.1178   25.3179 C   0  0  1  0  0  0  0  0  0  0  0  0
    9.7057  -15.5149   26.4406 C   0  0  0  0  0  0  0  0  0  0  0  0
    8.2650  -15.3498   26.1936 C   0  0  0  0  0  0  0  0  0  0  0  0
    7.3655  -16.3169   25.8675 C   0  0  0  0  0  0  0  0  0  0  0  0
    6.1331  -15.7799   25.7239 N   0  0  0  0  0  0  0  0  0  0  0  0
    6.2476  -14.4509   25.9618 C   0  0  0  0  0  0  0  0  0  0  0  0
    5.2806  -13.4487   25.9441 C   0  0  0  0  0  0  0  0  0  0  0  0
    5.6708  -12.1577   26.2278 C   0  0  0  0  0  0  0  0  0  0  0  0
    6.9826  -11.8529   26.5233 C   0  0  0  0  0  0  0  0  0  0  0  0
    7.9209  -12.8491   26.5366 C   0  0  0  0  0  0  0  0  0  0  0  0
    7.5529  -14.1511   26.2553 C   0  0  0  0  0  0  0  0  0  0  0  0
   10.6637  -17.5780   25.6016 C   0  0  0  0  0  0  0  0  0  0  0  0
   11.8551  -17.9440   26.2390 O   0  0  0  0  0  0  0  0  0  0  0  0
    9.8580  -18.4754   25.3176 O   0  0  0  0  0  0  0  0  0  0  0  0
  2  1  1  1
  2  3  1  0
  3  4  1  0
  4  5  2  0
  5  6  1  0
  7  6  2  0
  8  7  1  0
  9  4  1  0
  9  8  2  0
 10  2  1  0
 10 12  1  0
 11 10  2  0
 13 12  1  0
 13 14  1  0
 14 15  2  0
 16 14  1  0
 16 17  1  0
 17 18  1  1
 19 18  1  0
 20 19  2  0
 21 22  1  0
 21 20  1  0
 22 27  2  0
 23 24  2  0
 23 22  1  0
 24 25  1  0
 25 26  2  0
 27 19  1  0
 27 26  1  0
 28 17  1  0
 28 29  1  0
 30 28  2  0
M  END
$$$$
