EWW.pdb
     RDKit          3D

 38 41  0  0  1  0  0  0  0  0999 V2000
    9.2859  -18.8458   18.1587 N   0  0  0  0  0  0  0  0  0  0  0  0
   10.5129  -18.3159   18.6509 C   0  0  1  0  0  0  0  0  0  0  0  0
   11.2976  -17.5195   17.6709 C   0  0  0  0  0  0  0  0  0  0  0  0
   10.9323  -17.6262   16.2432 C   0  0  0  0  0  0  0  0  0  0  0  0
   11.8795  -17.0192   15.3120 C   0  0  0  0  0  0  0  0  0  0  0  0
   11.7982  -16.9313   14.0762 O   0  0  0  0  0  0  0  0  0  0  0  0
   10.2362  -17.5397   19.9051 C   0  0  0  0  0  0  0  0  0  0  0  0
   11.0532  -16.6680   20.3261 O   0  0  0  0  0  0  0  0  0  0  0  0
   13.0646  -16.4421   15.8499 O   0  0  0  0  0  0  0  0  0  0  0  0
    9.0727  -17.7173   20.6901 N   0  0  0  0  0  0  0  0  0  0  0  0
    8.8330  -16.9854   21.9519 C   0  0  1  0  0  0  0  0  0  0  0  0
    7.4034  -17.0891   22.3184 C   0  0  0  0  0  0  0  0  0  0  0  0
    6.9978  -16.3999   23.5371 C   0  0  0  0  0  0  0  0  0  0  0  0
    6.4315  -16.9640   24.6880 C   0  0  0  0  0  0  0  0  0  0  0  0
    6.1891  -16.0203   25.5937 N   0  0  0  0  0  0  0  0  0  0  0  0
    6.5663  -14.8135   25.1173 C   0  0  0  0  0  0  0  0  0  0  0  0
    6.5205  -13.5599   25.7093 C   0  0  0  0  0  0  0  0  0  0  0  0
    7.0034  -12.4732   24.9888 C   0  0  0  0  0  0  0  0  0  0  0  0
    7.5066  -12.6784   23.7202 C   0  0  0  0  0  0  0  0  0  0  0  0
    7.5363  -13.9356   23.1631 C   0  0  0  0  0  0  0  0  0  0  0  0
    7.0650  -15.0352   23.8520 C   0  0  0  0  0  0  0  0  0  0  0  0
    9.7493  -17.4532   22.9965 C   0  0  0  0  0  0  0  0  0  0  0  0
    9.8769  -18.7210   23.2034 O   0  0  0  0  0  0  0  0  0  0  0  0
   10.5520  -16.6504   23.8344 N   0  0  0  0  0  0  0  0  0  0  0  0
   11.4079  -17.2779   24.8767 C   0  0  1  0  0  0  0  0  0  0  0  0
   11.9006  -16.1545   25.7467 C   0  0  0  0  0  0  0  0  0  0  0  0
   11.2290  -15.9611   27.0305 C   0  0  0  0  0  0  0  0  0  0  0  0
   11.1503  -16.8729   28.0938 C   0  0  0  0  0  0  0  0  0  0  0  0
   10.4322  -16.3502   29.0824 N   0  0  0  0  0  0  0  0  0  0  0  0
   10.0070  -15.1164   28.7584 C   0  0  0  0  0  0  0  0  0  0  0  0
    9.2602  -14.1933   29.4556 C   0  0  0  0  0  0  0  0  0  0  0  0
    8.9642  -12.9527   28.9001 C   0  0  0  0  0  0  0  0  0  0  0  0
    9.4500  -12.7024   27.6410 C   0  0  0  0  0  0  0  0  0  0  0  0
   10.1941  -13.6321   26.9554 C   0  0  0  0  0  0  0  0  0  0  0  0
   10.4980  -14.8699   27.4886 C   0  0  0  0  0  0  0  0  0  0  0  0
   10.5945  -18.2137   25.6286 C   0  0  0  0  0  0  0  0  0  0  0  0
    9.3516  -18.1034   25.7180 O   0  0  0  0  0  0  0  0  0  0  0  0
   11.1995  -19.2851   26.2784 O   0  0  0  0  0  0  0  0  0  0  0  0
  2  1  1  6
  2  3  1  0
  3  4  1  0
  4  5  1  0
  5  9  1  0
  6  5  2  0
  7  8  2  0
  7  2  1  0
 10  7  1  0
 11 10  1  0
 11 22  1  0
 11 12  1  1
 13 12  1  0
 14 13  2  0
 15 16  1  0
 15 14  1  0
 16 21  2  0
 17 18  2  0
 17 16  1  0
 18 19  1  0
 19 20  2  0
 21 20  1  0
 21 13  1  0
 22 24  1  0
 23 22  2  0
 24 25  1  0
 25 26  1  1
 27 26  1  0
 27 28  2  0
 29 28  1  0
 30 35  2  0
 30 29  1  0
 31 30  1  0
 32 33  1  0
 32 31  2  0
 33 34  2  0
 34 35  1  0
 35 27  1  0
 36 25  1  0
 36 38  1  0
 37 36  2  0
M  END
$$$$
