EWW.pdb
     RDKit          3D

 38 41  0  0  1  0  0  0  0  0999 V2000
    9.2596  -18.8236   18.1951 N   0  0  0  0  0  0  0  0  0  0  0  0
    8.9512  -18.8667   19.5849 C   0  0  1  0  0  0  0  0  0  0  0  0
    9.5397  -20.0112   20.3293 C   0  0  0  0  0  0  0  0  0  0  0  0
   10.9972  -20.0019   20.5718 C   0  0  0  0  0  0  0  0  0  0  0  0
   11.5309  -21.2079   21.1991 C   0  0  0  0  0  0  0  0  0  0  0  0
   10.9174  -22.2228   21.5667 O   0  0  0  0  0  0  0  0  0  0  0  0
    9.3212  -17.5506   20.2036 C   0  0  0  0  0  0  0  0  0  0  0  0
   10.3303  -16.9005   19.7990 O   0  0  0  0  0  0  0  0  0  0  0  0
   12.9329  -21.2685   21.4391 O   0  0  0  0  0  0  0  0  0  0  0  0
    8.5899  -16.9519   21.2564 N   0  0  0  0  0  0  0  0  0  0  0  0
    8.9664  -15.6583   21.8648 C   0  0  1  0  0  0  0  0  0  0  0  0
    7.7480  -14.8567   22.1129 C   0  0  0  0  0  0  0  0  0  0  0  0
    7.3269  -14.7356   23.5031 C   0  0  0  0  0  0  0  0  0  0  0  0
    6.8737  -15.7565   24.3492 C   0  0  0  0  0  0  0  0  0  0  0  0
    6.5745  -15.2640   25.5482 N   0  0  0  0  0  0  0  0  0  0  0  0
    6.8027  -13.9324   25.5720 C   0  0  0  0  0  0  0  0  0  0  0  0
    6.6528  -13.0137   26.6004 C   0  0  0  0  0  0  0  0  0  0  0  0
    6.9878  -11.6872   26.3525 C   0  0  0  0  0  0  0  0  0  0  0  0
    7.4532  -11.3343   25.1021 C   0  0  0  0  0  0  0  0  0  0  0  0
    7.5890  -12.2714   24.1046 C   0  0  0  0  0  0  0  0  0  0  0  0
    7.2655  -13.5964   24.3183 C   0  0  0  0  0  0  0  0  0  0  0  0
    9.7883  -15.8749   23.0594 C   0  0  0  0  0  0  0  0  0  0  0  0
    9.4344  -16.7744   23.9150 O   0  0  0  0  0  0  0  0  0  0  0  0
   10.9779  -15.1959   23.3981 N   0  0  0  0  0  0  0  0  0  0  0  0
   11.8361  -15.6956   24.5056 C   0  0  1  0  0  0  0  0  0  0  0  0
   11.1588  -16.9287   25.0370 C   0  0  0  0  0  0  0  0  0  0  0  0
   10.5582  -16.8395   26.3666 C   0  0  0  0  0  0  0  0  0  0  0  0
    9.9938  -17.8830   27.1155 C   0  0  0  0  0  0  0  0  0  0  0  0
    9.5241  -17.4089   28.2647 N   0  0  0  0  0  0  0  0  0  0  0  0
    9.7350  -16.0839   28.3526 C   0  0  0  0  0  0  0  0  0  0  0  0
    9.4441  -15.1746   29.3449 C   0  0  0  0  0  0  0  0  0  0  0  0
    9.7896  -13.8344   29.2046 C   0  0  0  0  0  0  0  0  0  0  0  0
   10.4267  -13.4738   28.0435 C   0  0  0  0  0  0  0  0  0  0  0  0
   10.7112  -14.3908   27.0605 C   0  0  0  0  0  0  0  0  0  0  0  0
   10.3756  -15.7257   27.1798 C   0  0  0  0  0  0  0  0  0  0  0  0
   13.1452  -16.0017   23.9624 C   0  0  0  0  0  0  0  0  0  0  0  0
   14.0962  -16.3884   24.6773 O   0  0  0  0  0  0  0  0  0  0  0  0
   13.3714  -15.8722   22.5956 O   0  0  0  0  0  0  0  0  0  0  0  0
  2  1  1  6
  2  3  1  0
  3  4  1  0
  4  5  1  0
  5  9  1  0
  6  5  2  0
  7  8  2  0
  7  2  1  0
 10  7  1  0
 11 10  1  0
 11 22  1  0
 11 12  1  1
 13 12  1  0
 14 13  2  0
 15 16  1  0
 15 14  1  0
 16 21  2  0
 17 18  2  0
 17 16  1  0
 18 19  1  0
 19 20  2  0
 21 20  1  0
 21 13  1  0
 22 24  1  0
 23 22  2  0
 24 25  1  0
 25 26  1  6
 27 26  1  0
 27 28  2  0
 29 28  1  0
 30 35  2  0
 30 29  1  0
 31 30  1  0
 32 33  1  0
 32 31  2  0
 33 34  2  0
 34 35  1  0
 35 27  1  0
 36 25  1  0
 36 38  1  0
 37 36  2  0
M  END
$$$$
