EWW.pdb
     RDKit          3D

 38 41  0  0  1  0  0  0  0  0999 V2000
    9.3820  -16.5337   17.9159 N   0  0  0  0  0  0  0  0  0  0  0  0
   10.3920  -16.8628   18.8645 C   0  0  1  0  0  0  0  0  0  0  0  0
   11.7650  -16.4173   18.5086 C   0  0  0  0  0  0  0  0  0  0  0  0
   12.7219  -17.4385   18.0345 C   0  0  0  0  0  0  0  0  0  0  0  0
   14.0124  -17.4463   18.7182 C   0  0  0  0  0  0  0  0  0  0  0  0
   14.2394  -17.4993   19.9377 O   0  0  0  0  0  0  0  0  0  0  0  0
    9.9735  -16.3543   20.2130 C   0  0  0  0  0  0  0  0  0  0  0  0
    9.4686  -15.2003   20.3467 O   0  0  0  0  0  0  0  0  0  0  0  0
   15.1891  -17.3858   17.9192 O   0  0  0  0  0  0  0  0  0  0  0  0
   10.1065  -17.1056   21.4043 N   0  0  0  0  0  0  0  0  0  0  0  0
    9.5797  -16.6487   22.7077 C   0  0  1  0  0  0  0  0  0  0  0  0
    8.1897  -16.1712   22.5379 C   0  0  0  0  0  0  0  0  0  0  0  0
    7.5006  -15.7460   23.7500 C   0  0  0  0  0  0  0  0  0  0  0  0
    6.6655  -16.5154   24.5711 C   0  0  0  0  0  0  0  0  0  0  0  0
    6.2130  -15.7830   25.5853 N   0  0  0  0  0  0  0  0  0  0  0  0
    6.7024  -14.5263   25.5037 C   0  0  0  0  0  0  0  0  0  0  0  0
    6.5194  -13.4351   26.3402 C   0  0  0  0  0  0  0  0  0  0  0  0
    7.1708  -12.2476   26.0258 C   0  0  0  0  0  0  0  0  0  0  0  0
    7.9694  -12.1968   24.9013 C   0  0  0  0  0  0  0  0  0  0  0  0
    8.1282  -13.2984   24.0931 C   0  0  0  0  0  0  0  0  0  0  0  0
    7.4959  -14.4921   24.3776 C   0  0  0  0  0  0  0  0  0  0  0  0
    9.7266  -17.7023   23.7166 C   0  0  0  0  0  0  0  0  0  0  0  0
    9.7580  -18.9369   23.3406 O   0  0  0  0  0  0  0  0  0  0  0  0
    9.8533  -17.5225   25.1103 N   0  0  0  0  0  0  0  0  0  0  0  0
   11.0473  -18.0451   25.8273 C   0  0  1  0  0  0  0  0  0  0  0  0
   10.7568  -17.8890   27.2946 C   0  0  0  0  0  0  0  0  0  0  0  0
    9.7814  -16.8696   27.6768 C   0  0  0  0  0  0  0  0  0  0  0  0
    8.4409  -17.0701   28.0389 C   0  0  0  0  0  0  0  0  0  0  0  0
    7.8637  -15.9001   28.2925 N   0  0  0  0  0  0  0  0  0  0  0  0
    8.7390  -14.8934   28.1246 C   0  0  0  0  0  0  0  0  0  0  0  0
    8.6097  -13.5319   28.2846 C   0  0  0  0  0  0  0  0  0  0  0  0
    9.6908  -12.6844   28.0653 C   0  0  0  0  0  0  0  0  0  0  0  0
   10.8741  -13.2692   27.6884 C   0  0  0  0  0  0  0  0  0  0  0  0
   10.9903  -14.6294   27.5319 C   0  0  0  0  0  0  0  0  0  0  0  0
    9.9287  -15.4881   27.7436 C   0  0  0  0  0  0  0  0  0  0  0  0
   11.2193  -19.4388   25.4660 C   0  0  0  0  0  0  0  0  0  0  0  0
   10.3795  -20.0647   24.7818 O   0  0  0  0  0  0  0  0  0  0  0  0
   12.3576  -20.1229   25.8815 O   0  0  0  0  0  0  0  0  0  0  0  0
  2  1  1  6
  2  3  1  0
  3  4  1  0
  4  5  1  0
  5  9  1  0
  6  5  2  0
  7  8  2  0
  7  2  1  0
 10  7  1  0
 11 10  1  0
 11 22  1  0
 11 12  1  6
 13 12  1  0
 14 13  2  0
 15 16  1  0
 15 14  1  0
 16 21  2  0
 17 18  2  0
 17 16  1  0
 18 19  1  0
 19 20  2  0
 21 20  1  0
 21 13  1  0
 22 24  1  0
 23 22  2  0
 24 25  1  0
 25 26  1  1
 27 26  1  0
 27 28  2  0
 29 28  1  0
 30 35  2  0
 30 29  1  0
 31 30  1  0
 32 33  1  0
 32 31  2  0
 33 34  2  0
 34 35  1  0
 35 27  1  0
 36 25  1  0
 36 38  1  0
 37 36  2  0
M  END
$$$$
