EWW.pdb
     RDKit          3D

 38 41  0  0  1  0  0  0  0  0999 V2000
   11.6040  -20.0307   20.2915 N   0  0  0  0  0  0  0  0  0  0  0  0
   12.3609  -18.8794   19.9308 C   0  0  1  0  0  0  0  0  0  0  0  0
   12.5893  -18.7025   18.4725 C   0  0  0  0  0  0  0  0  0  0  0  0
   13.1331  -19.8482   17.7141 C   0  0  0  0  0  0  0  0  0  0  0  0
   13.3323  -19.6109   16.2870 C   0  0  0  0  0  0  0  0  0  0  0  0
   14.3351  -19.1568   15.7127 O   0  0  0  0  0  0  0  0  0  0  0  0
   11.7221  -17.6685   20.5455 C   0  0  0  0  0  0  0  0  0  0  0  0
   12.2282  -16.5171   20.3949 O   0  0  0  0  0  0  0  0  0  0  0  0
   12.2614  -19.9271   15.4038 O   0  0  0  0  0  0  0  0  0  0  0  0
   10.5378  -17.7200   21.3176 N   0  0  0  0  0  0  0  0  0  0  0  0
    9.8704  -16.5132   21.8501 C   0  0  1  0  0  0  0  0  0  0  0  0
    8.4120  -16.6155   21.6233 C   0  0  0  0  0  0  0  0  0  0  0  0
    7.6520  -15.3773   21.7407 C   0  0  0  0  0  0  0  0  0  0  0  0
    6.6157  -15.0943   22.6403 C   0  0  0  0  0  0  0  0  0  0  0  0
    6.1585  -13.8604   22.4451 N   0  0  0  0  0  0  0  0  0  0  0  0
    6.8391  -13.2681   21.4394 C   0  0  0  0  0  0  0  0  0  0  0  0
    6.7225  -11.9936   20.9043 C   0  0  0  0  0  0  0  0  0  0  0  0
    7.5799  -11.6320   19.8712 C   0  0  0  0  0  0  0  0  0  0  0  0
    8.5088  -12.5466   19.4179 C   0  0  0  0  0  0  0  0  0  0  0  0
    8.5966  -13.8028   19.9711 C   0  0  0  0  0  0  0  0  0  0  0  0
    7.7605  -14.1928   20.9980 C   0  0  0  0  0  0  0  0  0  0  0  0
   10.2399  -16.3013   23.2530 C   0  0  0  0  0  0  0  0  0  0  0  0
   11.1385  -15.4212   23.5435 O   0  0  0  0  0  0  0  0  0  0  0  0
    9.7015  -16.9653   24.3755 N   0  0  0  0  0  0  0  0  0  0  0  0
   10.2438  -16.6984   25.7347 C   0  0  1  0  0  0  0  0  0  0  0  0
    9.0527  -16.5756   26.6446 C   0  0  0  0  0  0  0  0  0  0  0  0
    8.0041  -15.6377   26.2481 C   0  0  0  0  0  0  0  0  0  0  0  0
    6.7153  -15.9488   25.7894 C   0  0  0  0  0  0  0  0  0  0  0  0
    6.0587  -14.8302   25.4998 N   0  0  0  0  0  0  0  0  0  0  0  0
    6.8292  -13.7537   25.7354 C   0  0  0  0  0  0  0  0  0  0  0  0
    6.5827  -12.4054   25.6041 C   0  0  0  0  0  0  0  0  0  0  0  0
    7.5553  -11.4689   25.9393 C   0  0  0  0  0  0  0  0  0  0  0  0
    8.7533  -11.9537   26.4016 C   0  0  0  0  0  0  0  0  0  0  0  0
    8.9871  -13.3018   26.5280 C   0  0  0  0  0  0  0  0  0  0  0  0
    8.0352  -14.2479   26.1995 C   0  0  0  0  0  0  0  0  0  0  0  0
   11.0879  -17.8149   26.1136 C   0  0  0  0  0  0  0  0  0  0  0  0
   11.2147  -18.8345   25.3999 O   0  0  0  0  0  0  0  0  0  0  0  0
   11.7967  -17.7678   27.3101 O   0  0  0  0  0  0  0  0  0  0  0  0
  2  1  1  6
  2  3  1  0
  3  4  1  0
  4  5  1  0
  5  9  1  0
  6  5  2  0
  7  8  2  0
  7  2  1  0
 10  7  1  0
 11 10  1  0
 11 22  1  0
 11 12  1  1
 13 12  1  0
 14 13  2  0
 15 16  1  0
 15 14  1  0
 16 21  2  0
 17 18  2  0
 17 16  1  0
 18 19  1  0
 19 20  2  0
 21 20  1  0
 21 13  1  0
 22 24  1  0
 23 22  2  0
 24 25  1  0
 25 26  1  1
 27 26  1  0
 27 28  2  0
 29 28  1  0
 30 35  2  0
 30 29  1  0
 31 30  1  0
 32 33  1  0
 32 31  2  0
 33 34  2  0
 34 35  1  0
 35 27  1  0
 36 25  1  0
 36 38  1  0
 37 36  2  0
M  END
$$$$
