EWW.pdb
     RDKit          3D

 38 41  0  0  1  0  0  0  0  0999 V2000
    9.4659  -19.2833   21.0442 N   0  0  0  0  0  0  0  0  0  0  0  0
   10.3865  -18.3830   20.4357 C   0  0  1  0  0  0  0  0  0  0  0  0
   10.1426  -18.1043   18.9959 C   0  0  0  0  0  0  0  0  0  0  0  0
   11.1178  -17.2547   18.2814 C   0  0  0  0  0  0  0  0  0  0  0  0
   11.5242  -17.7450   16.9672 C   0  0  0  0  0  0  0  0  0  0  0  0
   11.0921  -18.7270   16.3423 O   0  0  0  0  0  0  0  0  0  0  0  0
   10.4369  -17.1212   21.2465 C   0  0  0  0  0  0  0  0  0  0  0  0
   11.3252  -16.2438   21.0327 O   0  0  0  0  0  0  0  0  0  0  0  0
   12.5473  -17.0336   16.2787 O   0  0  0  0  0  0  0  0  0  0  0  0
    9.5202  -16.8238   22.2822 N   0  0  0  0  0  0  0  0  0  0  0  0
    9.5066  -15.5313   22.9993 C   0  0  1  0  0  0  0  0  0  0  0  0
    8.1684  -14.9126   22.8757 C   0  0  0  0  0  0  0  0  0  0  0  0
    7.6134  -14.8382   21.5299 C   0  0  0  0  0  0  0  0  0  0  0  0
    6.7090  -15.7244   20.9298 C   0  0  0  0  0  0  0  0  0  0  0  0
    6.4343  -15.3338   19.6882 N   0  0  0  0  0  0  0  0  0  0  0  0
    7.1152  -14.2036   19.3970 C   0  0  0  0  0  0  0  0  0  0  0  0
    7.1277  -13.4348   18.2425 C   0  0  0  0  0  0  0  0  0  0  0  0
    7.9158  -12.2895   18.2224 C   0  0  0  0  0  0  0  0  0  0  0  0
    8.6521  -11.9610   19.3425 C   0  0  0  0  0  0  0  0  0  0  0  0
    8.6168  -12.7467   20.4708 C   0  0  0  0  0  0  0  0  0  0  0  0
    7.8445  -13.8898   20.5232 C   0  0  0  0  0  0  0  0  0  0  0  0
    9.9525  -15.7101   24.3845 C   0  0  0  0  0  0  0  0  0  0  0  0
   10.3769  -14.6877   25.0485 O   0  0  0  0  0  0  0  0  0  0  0  0
    9.9658  -16.9165   25.1162 N   0  0  0  0  0  0  0  0  0  0  0  0
   10.4490  -16.9339   26.5229 C   0  0  1  0  0  0  0  0  0  0  0  0
    9.2217  -16.8573   27.3887 C   0  0  0  0  0  0  0  0  0  0  0  0
    8.1453  -15.9743   26.9437 C   0  0  0  0  0  0  0  0  0  0  0  0
    6.9671  -16.3409   26.2761 C   0  0  0  0  0  0  0  0  0  0  0  0
    6.2447  -15.2574   26.0108 N   0  0  0  0  0  0  0  0  0  0  0  0
    6.8637  -14.1525   26.4625 C   0  0  0  0  0  0  0  0  0  0  0  0
    6.5012  -12.8245   26.4351 C   0  0  0  0  0  0  0  0  0  0  0  0
    7.3205  -11.8521   26.9995 C   0  0  0  0  0  0  0  0  0  0  0  0
    8.4896  -12.2813   27.5767 C   0  0  0  0  0  0  0  0  0  0  0  0
    8.8401  -13.6097   27.5975 C   0  0  0  0  0  0  0  0  0  0  0  0
    8.0414  -14.5906   27.0417 C   0  0  0  0  0  0  0  0  0  0  0  0
   11.1738  -18.1711   26.7383 C   0  0  0  0  0  0  0  0  0  0  0  0
   11.3118  -19.0342   25.8432 O   0  0  0  0  0  0  0  0  0  0  0  0
   11.7501  -18.4250   27.9791 O   0  0  0  0  0  0  0  0  0  0  0  0
  2  1  1  1
  2  3  1  0
  3  4  1  0
  4  5  1  0
  5  9  1  0
  6  5  2  0
  7  8  2  0
  7  2  1  0
 10  7  1  0
 11 10  1  0
 11 22  1  0
 11 12  1  1
 13 12  1  0
 14 13  2  0
 15 16  1  0
 15 14  1  0
 16 21  2  0
 17 18  2  0
 17 16  1  0
 18 19  1  0
 19 20  2  0
 21 20  1  0
 21 13  1  0
 22 24  1  0
 23 22  2  0
 24 25  1  0
 25 26  1  1
 27 26  1  0
 27 28  2  0
 29 28  1  0
 30 35  2  0
 30 29  1  0
 31 30  1  0
 32 33  1  0
 32 31  2  0
 33 34  2  0
 34 35  1  0
 35 27  1  0
 36 25  1  0
 36 38  1  0
 37 36  2  0
M  END
$$$$
