EWW.pdb
     RDKit          3D

 38 41  0  0  1  0  0  0  0  0999 V2000
    9.4515  -18.9016   21.1228 N   0  0  0  0  0  0  0  0  0  0  0  0
   10.7453  -18.3220   20.9859 C   0  0  1  0  0  0  0  0  0  0  0  0
   11.1966  -18.1029   19.5864 C   0  0  0  0  0  0  0  0  0  0  0  0
   10.3046  -18.5463   18.4951 C   0  0  0  0  0  0  0  0  0  0  0  0
   10.7661  -18.2279   17.1466 C   0  0  0  0  0  0  0  0  0  0  0  0
   10.1157  -17.7580   16.1991 O   0  0  0  0  0  0  0  0  0  0  0  0
   10.7965  -17.0573   21.7921 C   0  0  0  0  0  0  0  0  0  0  0  0
   11.8569  -16.3672   21.8559 O   0  0  0  0  0  0  0  0  0  0  0  0
   12.1335  -18.4739   16.8357 O   0  0  0  0  0  0  0  0  0  0  0  0
    9.6939  -16.5532   22.5211 N   0  0  0  0  0  0  0  0  0  0  0  0
    9.7420  -15.2859   23.2806 C   0  0  1  0  0  0  0  0  0  0  0  0
    8.4730  -14.5490   23.0916 C   0  0  0  0  0  0  0  0  0  0  0  0
    7.8549  -14.6549   21.7758 C   0  0  0  0  0  0  0  0  0  0  0  0
    6.9658  -15.6409   21.3277 C   0  0  0  0  0  0  0  0  0  0  0  0
    6.6177  -15.4095   20.0648 N   0  0  0  0  0  0  0  0  0  0  0  0
    7.2321  -14.2946   19.6119 C   0  0  0  0  0  0  0  0  0  0  0  0
    7.1571  -13.6662   18.3776 C   0  0  0  0  0  0  0  0  0  0  0  0
    7.8901  -12.5002   18.1865 C   0  0  0  0  0  0  0  0  0  0  0  0
    8.6606  -12.0137   19.2230 C   0  0  0  0  0  0  0  0  0  0  0  0
    8.7125  -12.6629   20.4344 C   0  0  0  0  0  0  0  0  0  0  0  0
    7.9965  -13.8222   20.6565 C   0  0  0  0  0  0  0  0  0  0  0  0
   10.0757  -15.5435   24.6849 C   0  0  0  0  0  0  0  0  0  0  0  0
   10.4115  -14.5562   25.4457 O   0  0  0  0  0  0  0  0  0  0  0  0
   10.0645  -16.7943   25.3377 N   0  0  0  0  0  0  0  0  0  0  0  0
   10.4680  -16.8974   26.7657 C   0  0  1  0  0  0  0  0  0  0  0  0
    9.2037  -16.7653   27.5692 C   0  0  0  0  0  0  0  0  0  0  0  0
    8.1151  -15.9899   26.9775 C   0  0  0  0  0  0  0  0  0  0  0  0
    7.0507  -16.4744   26.2025 C   0  0  0  0  0  0  0  0  0  0  0  0
    6.2769  -15.4640   25.8194 N   0  0  0  0  0  0  0  0  0  0  0  0
    6.7516  -14.2979   26.2913 C   0  0  0  0  0  0  0  0  0  0  0  0
    6.2885  -13.0065   26.1735 C   0  0  0  0  0  0  0  0  0  0  0  0
    6.9599  -11.9521   26.7840 C   0  0  0  0  0  0  0  0  0  0  0  0
    8.0892  -12.2637   27.4993 C   0  0  0  0  0  0  0  0  0  0  0  0
    8.5412  -13.5566   27.6092 C   0  0  0  0  0  0  0  0  0  0  0  0
    7.8899  -14.6175   27.0098 C   0  0  0  0  0  0  0  0  0  0  0  0
   11.0928  -18.1901   26.9684 C   0  0  0  0  0  0  0  0  0  0  0  0
   11.5825  -18.5355   28.0666 O   0  0  0  0  0  0  0  0  0  0  0  0
   11.1554  -19.0977   25.9155 O   0  0  0  0  0  0  0  0  0  0  0  0
  2  1  1  6
  2  3  1  0
  3  4  1  0
  4  5  1  0
  5  9  1  0
  6  5  2  0
  7  8  2  0
  7  2  1  0
 10  7  1  0
 11 10  1  0
 11 22  1  0
 11 12  1  1
 13 12  1  0
 14 13  2  0
 15 16  1  0
 15 14  1  0
 16 21  2  0
 17 18  2  0
 17 16  1  0
 18 19  1  0
 19 20  2  0
 21 20  1  0
 21 13  1  0
 22 24  1  0
 23 22  2  0
 24 25  1  0
 25 26  1  1
 27 26  1  0
 27 28  2  0
 29 28  1  0
 30 35  2  0
 30 29  1  0
 31 30  1  0
 32 33  1  0
 32 31  2  0
 33 34  2  0
 34 35  1  0
 35 27  1  0
 36 25  1  0
 36 38  1  0
 37 36  2  0
M  END
$$$$
