EWW.pdb
     RDKit          3D

 38 41  0  0  1  0  0  0  0  0999 V2000
   10.5367  -17.5214   18.3456 N   0  0  0  0  0  0  0  0  0  0  0  0
   11.1564  -18.1031   19.4885 C   0  0  1  0  0  0  0  0  0  0  0  0
   12.6255  -18.3032   19.3797 C   0  0  0  0  0  0  0  0  0  0  0  0
   13.3903  -17.3636   18.5339 C   0  0  0  0  0  0  0  0  0  0  0  0
   14.4198  -17.9758   17.6984 C   0  0  0  0  0  0  0  0  0  0  0  0
   15.4330  -18.5990   18.0544 O   0  0  0  0  0  0  0  0  0  0  0  0
   10.7924  -17.2955   20.6998 C   0  0  0  0  0  0  0  0  0  0  0  0
   11.4391  -16.2498   21.0048 O   0  0  0  0  0  0  0  0  0  0  0  0
   14.2824  -17.8663   16.2856 O   0  0  0  0  0  0  0  0  0  0  0  0
    9.7274  -17.6311   21.5685 N   0  0  0  0  0  0  0  0  0  0  0  0
    9.3985  -16.8492   22.7791 C   0  0  1  0  0  0  0  0  0  0  0  0
    7.9313  -16.6858   22.8772 C   0  0  0  0  0  0  0  0  0  0  0  0
    7.2891  -15.9555   21.7914 C   0  0  0  0  0  0  0  0  0  0  0  0
    6.2144  -16.3779   20.9977 C   0  0  0  0  0  0  0  0  0  0  0  0
    5.9052  -15.4430   20.1033 N   0  0  0  0  0  0  0  0  0  0  0  0
    6.7262  -14.3791   20.2428 C   0  0  0  0  0  0  0  0  0  0  0  0
    6.7649  -13.1775   19.5509 C   0  0  0  0  0  0  0  0  0  0  0  0
    7.7155  -12.2334   19.9229 C   0  0  0  0  0  0  0  0  0  0  0  0
    8.5803  -12.5231   20.9587 C   0  0  0  0  0  0  0  0  0  0  0  0
    8.5146  -13.7256   21.6232 C   0  0  0  0  0  0  0  0  0  0  0  0
    7.5824  -14.6838   21.2787 C   0  0  0  0  0  0  0  0  0  0  0  0
   10.0085  -17.4603   23.9641 C   0  0  0  0  0  0  0  0  0  0  0  0
   11.2271  -17.8816   23.9010 O   0  0  0  0  0  0  0  0  0  0  0  0
    9.4015  -17.6432   25.2246 N   0  0  0  0  0  0  0  0  0  0  0  0
   10.0801  -17.1650   26.4590 C   0  0  1  0  0  0  0  0  0  0  0  0
    9.8879  -15.6739   26.4921 C   0  0  0  0  0  0  0  0  0  0  0  0
    8.5130  -15.1790   26.5262 C   0  0  0  0  0  0  0  0  0  0  0  0
    7.3440  -15.8977   26.2339 C   0  0  0  0  0  0  0  0  0  0  0  0
    6.2862  -15.1011   26.3470 N   0  0  0  0  0  0  0  0  0  0  0  0
    6.6627  -13.8609   26.7050 C   0  0  0  0  0  0  0  0  0  0  0  0
    5.9340  -12.7197   26.9552 C   0  0  0  0  0  0  0  0  0  0  0  0
    6.5671  -11.5418   27.3387 C   0  0  0  0  0  0  0  0  0  0  0  0
    7.9345  -11.5787   27.4536 C   0  0  0  0  0  0  0  0  0  0  0  0
    8.6503  -12.7239   27.2008 C   0  0  0  0  0  0  0  0  0  0  0  0
    8.0410  -13.9034   26.8178 C   0  0  0  0  0  0  0  0  0  0  0  0
    9.4532  -17.8061   27.5986 C   0  0  0  0  0  0  0  0  0  0  0  0
    9.8611  -17.6436   28.7700 O   0  0  0  0  0  0  0  0  0  0  0  0
    8.3513  -18.6332   27.4038 O   0  0  0  0  0  0  0  0  0  0  0  0
  2  1  1  6
  2  3  1  0
  3  4  1  0
  4  5  1  0
  5  9  1  0
  6  5  2  0
  7  8  2  0
  7  2  1  0
 10  7  1  0
 11 10  1  0
 11 22  1  0
 11 12  1  1
 13 12  1  0
 14 13  2  0
 15 16  1  0
 15 14  1  0
 16 21  2  0
 17 18  2  0
 17 16  1  0
 18 19  1  0
 19 20  2  0
 21 20  1  0
 21 13  1  0
 22 24  1  0
 23 22  2  0
 24 25  1  0
 25 26  1  1
 27 26  1  0
 27 28  2  0
 29 28  1  0
 30 35  2  0
 30 29  1  0
 31 30  1  0
 32 33  1  0
 32 31  2  0
 33 34  2  0
 34 35  1  0
 35 27  1  0
 36 25  1  0
 36 38  1  0
 37 36  2  0
M  END
$$$$
