EWW.pdb
     RDKit          3D

 38 41  0  0  1  0  0  0  0  0999 V2000
   10.4595  -16.0141   17.5734 N   0  0  0  0  0  0  0  0  0  0  0  0
   10.5895  -17.0332   18.5597 C   0  0  1  0  0  0  0  0  0  0  0  0
   11.9203  -17.6936   18.6170 C   0  0  0  0  0  0  0  0  0  0  0  0
   12.3859  -18.4155   17.4149 C   0  0  0  0  0  0  0  0  0  0  0  0
   13.4322  -19.4066   17.6510 C   0  0  0  0  0  0  0  0  0  0  0  0
   13.9008  -19.7909   18.7347 O   0  0  0  0  0  0  0  0  0  0  0  0
   10.1889  -16.4709   19.8922 C   0  0  0  0  0  0  0  0  0  0  0  0
   10.7650  -15.4480   20.3681 O   0  0  0  0  0  0  0  0  0  0  0  0
   14.0188  -20.0380   16.5179 O   0  0  0  0  0  0  0  0  0  0  0  0
    9.1644  -17.0250   20.6952 N   0  0  0  0  0  0  0  0  0  0  0  0
    8.8604  -16.5427   22.0591 C   0  0  1  0  0  0  0  0  0  0  0  0
    7.3944  -16.5126   22.2562 C   0  0  0  0  0  0  0  0  0  0  0  0
    6.9254  -15.9878   23.5326 C   0  0  0  0  0  0  0  0  0  0  0  0
    6.2108  -16.6713   24.5254 C   0  0  0  0  0  0  0  0  0  0  0  0
    5.9527  -15.8619   25.5490 N   0  0  0  0  0  0  0  0  0  0  0  0
    6.4622  -14.6339   25.3082 C   0  0  0  0  0  0  0  0  0  0  0  0
    6.4524  -13.4882   26.0902 C   0  0  0  0  0  0  0  0  0  0  0  0
    7.0815  -12.3498   25.5986 C   0  0  0  0  0  0  0  0  0  0  0  0
    7.6880  -12.3994   24.3598 C   0  0  0  0  0  0  0  0  0  0  0  0
    7.6782  -13.5526   23.6103 C   0  0  0  0  0  0  0  0  0  0  0  0
    7.0627  -14.6997   24.0697 C   0  0  0  0  0  0  0  0  0  0  0  0
    9.5774  -17.3433   23.0564 C   0  0  0  0  0  0  0  0  0  0  0  0
   10.1624  -18.4338   22.6890 O   0  0  0  0  0  0  0  0  0  0  0  0
    9.7205  -17.0484   24.4287 N   0  0  0  0  0  0  0  0  0  0  0  0
   10.5467  -17.9256   25.3010 C   0  0  1  0  0  0  0  0  0  0  0  0
   10.2054  -17.5502   26.7167 C   0  0  0  0  0  0  0  0  0  0  0  0
    9.6690  -16.2091   26.9404 C   0  0  0  0  0  0  0  0  0  0  0  0
    8.4028  -15.7286   26.5740 C   0  0  0  0  0  0  0  0  0  0  0  0
    8.2895  -14.4503   26.9198 N   0  0  0  0  0  0  0  0  0  0  0  0
    9.4171  -14.0172   27.5105 C   0  0  0  0  0  0  0  0  0  0  0  0
    9.7597  -12.7946   28.0433 C   0  0  0  0  0  0  0  0  0  0  0  0
   11.0058  -12.5987   28.6298 C   0  0  0  0  0  0  0  0  0  0  0  0
   11.8605  -13.6727   28.6496 C   0  0  0  0  0  0  0  0  0  0  0  0
   11.5068  -14.8877   28.1143 C   0  0  0  0  0  0  0  0  0  0  0  0
   10.2749  -15.1025   27.5264 C   0  0  0  0  0  0  0  0  0  0  0  0
   10.1976  -19.3043   25.0188 C   0  0  0  0  0  0  0  0  0  0  0  0
    9.2492  -19.6171   24.2652 O   0  0  0  0  0  0  0  0  0  0  0  0
   10.9364  -20.3337   25.5938 O   0  0  0  0  0  0  0  0  0  0  0  0
  2  1  1  6
  2  3  1  0
  3  4  1  0
  4  5  1  0
  5  9  1  0
  6  5  2  0
  7  8  2  0
  7  2  1  0
 10  7  1  0
 11 10  1  0
 11 22  1  0
 11 12  1  1
 13 12  1  0
 14 13  2  0
 15 16  1  0
 15 14  1  0
 16 21  2  0
 17 18  2  0
 17 16  1  0
 18 19  1  0
 19 20  2  0
 21 20  1  0
 21 13  1  0
 22 24  1  0
 23 22  2  0
 24 25  1  0
 25 26  1  1
 27 26  1  0
 27 28  2  0
 29 28  1  0
 30 35  2  0
 30 29  1  0
 31 30  1  0
 32 33  1  0
 32 31  2  0
 33 34  2  0
 34 35  1  0
 35 27  1  0
 36 25  1  0
 36 38  1  0
 37 36  2  0
M  END
$$$$
