PHD.pdb
     RDKit          3D

 26 27  0  0  1  0  0  0  0  0999 V2000
   28.0471  -19.7476  -12.3168 N   0  0  0  0  0  0  0  0  0  0  0  0
   29.3434  -20.1043  -11.7630 C   0  0  0  0  0  0  0  0  0  0  0  0
   30.0281  -21.0145  -12.7377 C   0  0  0  0  0  0  0  0  0  0  0  0
   28.9364  -21.4122  -13.7004 C   0  0  0  0  0  0  0  0  0  0  0  0
   28.1016  -20.1450  -13.7036 C   0  0  1  0  0  0  0  0  0  0  0  0
   26.8059  -20.2637  -14.3506 C   0  0  0  0  0  0  0  0  0  0  0  0
   26.6694  -20.6803  -15.5538 O   0  0  0  0  0  0  0  0  0  0  0  0
   25.6198  -19.9219  -13.6785 N   0  0  0  0  0  0  0  0  0  0  0  0
   24.3291  -20.0933  -14.3233 C   0  0  1  0  0  0  0  0  0  0  0  0
   23.4032  -20.7937  -13.3249 C   0  0  0  0  0  0  0  0  0  0  0  0
   23.8921  -22.2026  -13.1961 C   0  0  0  0  0  0  0  0  0  0  0  0
   24.6965  -22.7471  -12.2424 C   0  0  0  0  0  0  0  0  0  0  0  0
   24.8808  -24.0371  -12.5176 N   0  0  0  0  0  0  0  0  0  0  0  0
   24.1856  -24.2873  -13.6474 C   0  0  0  0  0  0  0  0  0  0  0  0
   23.5767  -23.1839  -14.0765 N   0  0  0  0  0  0  0  0  0  0  0  0
   23.6930  -18.8064  -14.6636 C   0  0  0  0  0  0  0  0  0  0  0  0
   23.5474  -17.8724  -13.8311 O   0  0  0  0  0  0  0  0  0  0  0  0
   23.2205  -18.5891  -15.9681 N   0  0  0  0  0  0  0  0  0  0  0  0
   22.6219  -17.3990  -16.4607 C   0  0  1  0  0  0  0  0  0  0  0  0
   23.1334  -16.9493  -17.8039 C   0  0  0  0  0  0  0  0  0  0  0  0
   22.4998  -15.6982  -18.2429 C   0  0  0  0  0  0  0  0  0  0  0  0
   22.1655  -14.8407  -17.4047 O   0  0  0  0  0  0  0  0  0  0  0  0
   21.1480  -17.4308  -16.5083 C   0  0  0  0  0  0  0  0  0  0  0  0
   20.4221  -16.2713  -16.2830 O   0  0  0  0  0  0  0  0  0  0  0  0
   22.2728  -15.4672  -19.5787 O   0  0  0  0  0  0  0  0  0  0  0  0
   20.4859  -18.4752  -16.7474 O   0  0  0  0  0  0  0  0  0  0  0  0
  1  2  1  0
  2  3  1  0
  4  3  1  0
  5  6  1  1
  5  1  1  0
  5  4  1  0
  6  8  1  0
  7  6  2  0
  8  9  1  0
  9 10  1  1
 10 11  1  0
 11 12  2  0
 11 15  1  0
 12 13  1  0
 13 14  1  0
 15 14  2  0
 16 18  1  0
 16  9  1  0
 17 16  2  0
 19 18  1  0
 19 23  1  0
 20 21  1  0
 19 20  1  6
 21 22  2  0
 23 24  1  0
 25 21  1  0
 26 23  2  0
M  END
$$$$
