PHD.pdb
     RDKit          3D

 26 27  0  0  1  0  0  0  0  0999 V2000
   23.3011  -12.8696  -15.0141 N   0  0  0  0  0  0  0  0  0  0  0  0
   23.9913  -14.1378  -15.1861 C   0  0  0  0  0  0  0  0  0  0  0  0
   23.9005  -14.5215  -16.6324 C   0  0  0  0  0  0  0  0  0  0  0  0
   22.8580  -13.5879  -17.1968 C   0  0  0  0  0  0  0  0  0  0  0  0
   23.1099  -12.3547  -16.3493 C   0  0  1  0  0  0  0  0  0  0  0  0
   22.0991  -11.3164  -16.4584 C   0  0  0  0  0  0  0  0  0  0  0  0
   21.8351  -10.7218  -17.5614 O   0  0  0  0  0  0  0  0  0  0  0  0
   21.3496  -10.9063  -15.3424 N   0  0  0  0  0  0  0  0  0  0  0  0
   20.3214   -9.8885  -15.4760 C   0  0  1  0  0  0  0  0  0  0  0  0
   19.0384  -10.4429  -14.8505 C   0  0  0  0  0  0  0  0  0  0  0  0
   18.5181  -11.4895  -15.7858 C   0  0  0  0  0  0  0  0  0  0  0  0
   18.6565  -12.8421  -15.7213 C   0  0  0  0  0  0  0  0  0  0  0  0
   18.0358  -13.3903  -16.7644 N   0  0  0  0  0  0  0  0  0  0  0  0
   17.5127  -12.3684  -17.4747 C   0  0  0  0  0  0  0  0  0  0  0  0
   17.7950  -11.2032  -16.8961 N   0  0  0  0  0  0  0  0  0  0  0  0
   20.6528   -8.6520  -14.7428 C   0  0  0  0  0  0  0  0  0  0  0  0
   21.1803   -8.6539  -13.5989 O   0  0  0  0  0  0  0  0  0  0  0  0
   20.3773   -7.4043  -15.3256 N   0  0  0  0  0  0  0  0  0  0  0  0
   20.6580   -6.1306  -14.7631 C   0  0  1  0  0  0  0  0  0  0  0  0
   21.9340   -5.4970  -15.2514 C   0  0  0  0  0  0  0  0  0  0  0  0
   22.1728   -4.1889  -14.6258 C   0  0  0  0  0  0  0  0  0  0  0  0
   22.0975   -4.0657  -13.3894 O   0  0  0  0  0  0  0  0  0  0  0  0
   19.5660   -5.1484  -14.8995 C   0  0  0  0  0  0  0  0  0  0  0  0
   19.3341   -4.2256  -13.8912 O   0  0  0  0  0  0  0  0  0  0  0  0
   22.4803   -3.0956  -15.4000 O   0  0  0  0  0  0  0  0  0  0  0  0
   18.8074   -5.0922  -15.9033 O   0  0  0  0  0  0  0  0  0  0  0  0
  1  2  1  0
  2  3  1  0
  4  3  1  0
  5  6  1  1
  5  1  1  0
  5  4  1  0
  6  8  1  0
  7  6  2  0
  8  9  1  0
  9 10  1  1
 10 11  1  0
 11 12  2  0
 11 15  1  0
 12 13  1  0
 13 14  1  0
 15 14  2  0
 16 18  1  0
 16  9  1  0
 17 16  2  0
 19 18  1  0
 19 23  1  0
 20 21  1  0
 19 20  1  6
 21 22  2  0
 23 24  1  0
 25 21  1  0
 26 23  2  0
M  END
$$$$
