PHD.pdb
     RDKit          3D

 26 27  0  0  1  0  0  0  0  0999 V2000
   23.7457  -13.0461  -15.2812 N   0  0  0  0  0  0  0  0  0  0  0  0
   24.5851  -14.2241  -15.4290 C   0  0  0  0  0  0  0  0  0  0  0  0
   25.2530  -14.1511  -16.7691 C   0  0  0  0  0  0  0  0  0  0  0  0
   24.5056  -13.0593  -17.4945 C   0  0  0  0  0  0  0  0  0  0  0  0
   24.1606  -12.1471  -16.3319 C   0  0  1  0  0  0  0  0  0  0  0  0
   23.2078  -11.0936  -16.6383 C   0  0  0  0  0  0  0  0  0  0  0  0
   23.4612  -10.1524  -17.4688 O   0  0  0  0  0  0  0  0  0  0  0  0
   21.9417  -11.0540  -16.0294 N   0  0  0  0  0  0  0  0  0  0  0  0
   21.0014   -9.9929  -16.3473 C   0  0  1  0  0  0  0  0  0  0  0  0
   19.5986  -10.6066  -16.3581 C   0  0  0  0  0  0  0  0  0  0  0  0
   19.4885  -11.4129  -17.6144 C   0  0  0  0  0  0  0  0  0  0  0  0
   19.2286  -10.9926  -18.8828 C   0  0  0  0  0  0  0  0  0  0  0  0
   19.2184  -12.0485  -19.6944 N   0  0  0  0  0  0  0  0  0  0  0  0
   19.4735  -13.1246  -18.9203 C   0  0  0  0  0  0  0  0  0  0  0  0
   19.6409  -12.7594  -17.6511 N   0  0  0  0  0  0  0  0  0  0  0  0
   20.9912   -8.9246  -15.3299 C   0  0  0  0  0  0  0  0  0  0  0  0
   20.9519   -9.1568  -14.0925 O   0  0  0  0  0  0  0  0  0  0  0  0
   21.0263   -7.5802  -15.7346 N   0  0  0  0  0  0  0  0  0  0  0  0
   21.0106   -6.4430  -14.8839 C   0  0  1  0  0  0  0  0  0  0  0  0
   22.2474   -5.5869  -14.9586 C   0  0  0  0  0  0  0  0  0  0  0  0
   22.1930   -4.4589  -14.0184 C   0  0  0  0  0  0  0  0  0  0  0  0
   21.8059   -4.6395  -12.8491 O   0  0  0  0  0  0  0  0  0  0  0  0
   19.8298   -5.5741  -15.0470 C   0  0  0  0  0  0  0  0  0  0  0  0
   19.1290   -5.1406  -13.9321 O   0  0  0  0  0  0  0  0  0  0  0  0
   22.5686   -3.2001  -14.4228 O   0  0  0  0  0  0  0  0  0  0  0  0
   19.4039   -5.1889  -16.1680 O   0  0  0  0  0  0  0  0  0  0  0  0
  1  2  1  0
  2  3  1  0
  4  3  1  0
  5  6  1  6
  5  1  1  0
  5  4  1  0
  6  8  1  0
  7  6  2  0
  8  9  1  0
  9 10  1  1
 10 11  1  0
 11 12  2  0
 11 15  1  0
 12 13  1  0
 13 14  1  0
 15 14  2  0
 16 18  1  0
 16  9  1  0
 17 16  2  0
 19 18  1  0
 19 23  1  0
 20 21  1  0
 19 20  1  6
 21 22  2  0
 23 24  1  0
 25 21  1  0
 26 23  2  0
M  END
$$$$
