PHD.pdb
     RDKit          3D

 26 27  0  0  1  0  0  0  0  0999 V2000
   26.0674  -15.6601  -15.5893 N   0  0  0  0  0  0  0  0  0  0  0  0
   26.9213  -14.4838  -15.6280 C   0  0  0  0  0  0  0  0  0  0  0  0
   28.0115  -14.7362  -16.6255 C   0  0  0  0  0  0  0  0  0  0  0  0
   27.9237  -16.2172  -16.9009 C   0  0  0  0  0  0  0  0  0  0  0  0
   26.4288  -16.4330  -16.7539 C   0  0  1  0  0  0  0  0  0  0  0  0
   26.0094  -17.8236  -16.7113 C   0  0  0  0  0  0  0  0  0  0  0  0
   25.6464  -18.4685  -17.7564 O   0  0  0  0  0  0  0  0  0  0  0  0
   25.9802  -18.5412  -15.5032 N   0  0  0  0  0  0  0  0  0  0  0  0
   25.5047  -19.9137  -15.4700 C   0  0  1  0  0  0  0  0  0  0  0  0
   26.4181  -20.6963  -14.5224 C   0  0  0  0  0  0  0  0  0  0  0  0
   26.0397  -22.1390  -14.6497 C   0  0  0  0  0  0  0  0  0  0  0  0
   26.4740  -23.0629  -15.5501 C   0  0  0  0  0  0  0  0  0  0  0  0
   25.8735  -24.2252  -15.3004 N   0  0  0  0  0  0  0  0  0  0  0  0
   25.0650  -24.0146  -14.2402 C   0  0  0  0  0  0  0  0  0  0  0  0
   25.1513  -22.7513  -13.8290 N   0  0  0  0  0  0  0  0  0  0  0  0
   24.1362  -20.0238  -14.9301 C   0  0  0  0  0  0  0  0  0  0  0  0
   23.7449  -19.3835  -13.9185 O   0  0  0  0  0  0  0  0  0  0  0  0
   23.2098  -20.8746  -15.5549 N   0  0  0  0  0  0  0  0  0  0  0  0
   21.8839  -21.1412  -15.1210 C   0  0  1  0  0  0  0  0  0  0  0  0
   20.8105  -20.4674  -15.9346 C   0  0  0  0  0  0  0  0  0  0  0  0
   20.0280  -19.5167  -15.1326 C   0  0  0  0  0  0  0  0  0  0  0  0
   20.1140  -19.5291  -13.8908 O   0  0  0  0  0  0  0  0  0  0  0  0
   21.5546  -22.5746  -15.0080 C   0  0  0  0  0  0  0  0  0  0  0  0
   20.8865  -23.0459  -13.8884 O   0  0  0  0  0  0  0  0  0  0  0  0
   19.1980  -18.6095  -15.7470 O   0  0  0  0  0  0  0  0  0  0  0  0
   21.8503  -23.4240  -15.8896 O   0  0  0  0  0  0  0  0  0  0  0  0
  1  2  1  0
  2  3  1  0
  4  3  1  0
  5  6  1  1
  5  1  1  0
  5  4  1  0
  6  8  1  0
  7  6  2  0
  8  9  1  0
  9 10  1  1
 10 11  1  0
 11 12  2  0
 11 15  1  0
 12 13  1  0
 13 14  1  0
 15 14  2  0
 16 18  1  0
 16  9  1  0
 17 16  2  0
 19 18  1  0
 19 23  1  0
 20 21  1  0
 19 20  1  6
 21 22  2  0
 23 24  1  0
 25 21  1  0
 26 23  2  0
M  END
$$$$
