PHD.pdb
     RDKit          3D

 26 27  0  0  1  0  0  0  0  0999 V2000
   16.1895  -11.0194  -10.1589 N   0  0  0  0  0  0  0  0  0  0  0  0
   15.5800  -12.3293  -10.3232 C   0  0  0  0  0  0  0  0  0  0  0  0
   14.4773  -12.2033  -11.3310 C   0  0  0  0  0  0  0  0  0  0  0  0
   14.2813  -10.7145  -11.4789 C   0  0  0  0  0  0  0  0  0  0  0  0
   15.7037  -10.2304  -11.2660 C   0  0  1  0  0  0  0  0  0  0  0  0
   15.8454   -8.7945  -11.0940 C   0  0  0  0  0  0  0  0  0  0  0  0
   15.7023   -7.9650  -12.0591 O   0  0  0  0  0  0  0  0  0  0  0  0
   16.1516   -8.2355   -9.8413 N   0  0  0  0  0  0  0  0  0  0  0  0
   16.2739   -6.7962   -9.6840 C   0  0  1  0  0  0  0  0  0  0  0  0
   15.9202   -6.4584   -8.2331 C   0  0  0  0  0  0  0  0  0  0  0  0
   14.4327   -6.5744   -8.1118 C   0  0  0  0  0  0  0  0  0  0  0  0
   13.5103   -6.8233   -9.0815 C   0  0  0  0  0  0  0  0  0  0  0  0
   12.2977   -6.8378   -8.5310 N   0  0  0  0  0  0  0  0  0  0  0  0
   12.4755   -6.5962   -7.2149 C   0  0  0  0  0  0  0  0  0  0  0  0
   13.7676   -6.4329   -6.9391 N   0  0  0  0  0  0  0  0  0  0  0  0
   17.6516   -6.3191   -9.9088 C   0  0  0  0  0  0  0  0  0  0  0  0
   18.5919   -6.5333   -9.0985 O   0  0  0  0  0  0  0  0  0  0  0  0
   17.9532   -5.5910  -11.0713 N   0  0  0  0  0  0  0  0  0  0  0  0
   19.2503   -5.3051  -11.5742 C   0  0  1  0  0  0  0  0  0  0  0  0
   20.0963   -6.5194  -11.8534 C   0  0  0  0  0  0  0  0  0  0  0  0
   21.3979   -6.1612  -12.4337 C   0  0  0  0  0  0  0  0  0  0  0  0
   21.5449   -6.1382  -13.6696 O   0  0  0  0  0  0  0  0  0  0  0  0
   19.2655   -4.4399  -12.7687 C   0  0  0  0  0  0  0  0  0  0  0  0
   18.1003   -4.2360  -13.4917 O   0  0  0  0  0  0  0  0  0  0  0  0
   22.4591   -5.8497  -11.6175 O   0  0  0  0  0  0  0  0  0  0  0  0
   20.3003   -3.8567  -13.1874 O   0  0  0  0  0  0  0  0  0  0  0  0
  1  2  1  0
  2  3  1  0
  4  3  1  0
  5  6  1  1
  5  1  1  0
  5  4  1  0
  6  8  1  0
  7  6  2  0
  8  9  1  0
  9 10  1  1
 10 11  1  0
 11 12  2  0
 11 15  1  0
 12 13  1  0
 13 14  1  0
 15 14  2  0
 16 18  1  0
 16  9  1  0
 17 16  2  0
 19 18  1  0
 19 23  1  0
 20 21  1  0
 19 20  1  6
 21 22  2  0
 23 24  1  0
 25 21  1  0
 26 23  2  0
M  END
$$$$
