PHD.pdb
     RDKit          3D

 26 27  0  0  1  0  0  0  0  0999 V2000
   16.1868  -16.8283    4.0421 N   0  0  0  0  0  0  0  0  0  0  0  0
   15.5718  -17.0346    2.7408 C   0  0  0  0  0  0  0  0  0  0  0  0
   16.6292  -17.5355    1.8036 C   0  0  0  0  0  0  0  0  0  0  0  0
   17.9222  -17.2907    2.5418 C   0  0  0  0  0  0  0  0  0  0  0  0
   17.4625  -17.5006    3.9727 C   0  0  1  0  0  0  0  0  0  0  0  0
   18.4165  -17.0951    4.9910 C   0  0  0  0  0  0  0  0  0  0  0  0
   19.6138  -17.5469    5.0358 O   0  0  0  0  0  0  0  0  0  0  0  0
   18.0678  -16.1732    5.9930 N   0  0  0  0  0  0  0  0  0  0  0  0
   19.0402  -15.7643    6.9921 C   0  0  1  0  0  0  0  0  0  0  0  0
   18.5880  -14.4123    7.5507 C   0  0  0  0  0  0  0  0  0  0  0  0
   18.9998  -13.3730    6.5552 C   0  0  0  0  0  0  0  0  0  0  0  0
   20.1672  -12.6776    6.4750 C   0  0  0  0  0  0  0  0  0  0  0  0
   20.1068  -11.8502    5.4331 N   0  0  0  0  0  0  0  0  0  0  0  0
   18.8947  -12.0379    4.8693 C   0  0  0  0  0  0  0  0  0  0  0  0
   18.2054  -12.9606    5.5371 N   0  0  0  0  0  0  0  0  0  0  0  0
   19.1030  -16.6971    8.1333 C   0  0  0  0  0  0  0  0  0  0  0  0
   18.1064  -17.3522    8.5388 O   0  0  0  0  0  0  0  0  0  0  0  0
   20.3175  -16.8801    8.8144 N   0  0  0  0  0  0  0  0  0  0  0  0
   20.5543  -17.7774    9.8896 C   0  0  1  0  0  0  0  0  0  0  0  0
   21.7985  -18.6138    9.7458 C   0  0  0  0  0  0  0  0  0  0  0  0
   23.0067  -17.7860    9.6263 C   0  0  0  0  0  0  0  0  0  0  0  0
   22.9088  -16.5744    9.3580 O   0  0  0  0  0  0  0  0  0  0  0  0
   20.5675  -17.1447   11.2220 C   0  0  0  0  0  0  0  0  0  0  0  0
   20.5627  -17.9320   12.3631 O   0  0  0  0  0  0  0  0  0  0  0  0
   24.2499  -18.3428    9.8095 O   0  0  0  0  0  0  0  0  0  0  0  0
   20.5831  -15.8974   11.3954 O   0  0  0  0  0  0  0  0  0  0  0  0
  1  2  1  0
  2  3  1  0
  4  3  1  0
  5  6  1  1
  5  1  1  0
  5  4  1  0
  6  8  1  0
  7  6  2  0
  8  9  1  0
  9 10  1  1
 10 11  1  0
 11 12  2  0
 11 15  1  0
 12 13  1  0
 13 14  1  0
 15 14  2  0
 16 18  1  0
 16  9  1  0
 17 16  2  0
 19 18  1  0
 19 23  1  0
 20 21  1  0
 19 20  1  6
 21 22  2  0
 23 24  1  0
 25 21  1  0
 26 23  2  0
M  END
$$$$
