SYD.pdb
     RDKit          3D

 27 27  0  0  1  0  0  0  0  0999 V2000
   22.2192   -8.6677  -20.9173 O   0  0  0  0  0  0  0  0  0  0  0  0
   22.9680   -9.6214  -20.2037 C   0  0  0  0  0  0  0  0  0  0  0  0
   22.0540  -10.6193  -19.5219 C   0  0  2  0  0  0  0  0  0  0  0  0
   21.1571  -11.2023  -20.4751 N   0  0  0  0  0  0  0  0  0  0  0  0
   21.2833  -10.0143  -18.4281 C   0  0  0  0  0  0  0  0  0  0  0  0
   20.1461   -9.5297  -18.6258 O   0  0  0  0  0  0  0  0  0  0  0  0
   16.5517  -13.9266  -16.1621 O   0  0  0  0  0  0  0  0  0  0  0  0
   17.5774  -13.0360  -15.8617 C   0  0  0  0  0  0  0  0  0  0  0  0
   17.3423  -11.8448  -15.1994 C   0  0  0  0  0  0  0  0  0  0  0  0
   18.3796  -10.9822  -14.9156 C   0  0  0  0  0  0  0  0  0  0  0  0
   19.6927  -11.2448  -15.2664 C   0  0  0  0  0  0  0  0  0  0  0  0
   20.7657  -10.2813  -14.9459 C   0  0  0  0  0  0  0  0  0  0  0  0
   21.0571   -9.2899  -16.0185 C   0  0  2  0  0  0  0  0  0  0  0  0
   21.7868   -9.9452  -17.0805 N   0  0  0  0  0  0  0  0  0  0  0  0
   21.7280   -8.0688  -15.5408 C   0  0  0  0  0  0  0  0  0  0  0  0
   22.9509   -8.1522  -15.2466 O   0  0  0  0  0  0  0  0  0  0  0  0
   19.9106  -12.4477  -15.9321 C   0  0  0  0  0  0  0  0  0  0  0  0
   18.8783  -13.3161  -16.2197 C   0  0  0  0  0  0  0  0  0  0  0  0
   21.1055   -6.8233  -15.3900 N   0  0  0  0  0  0  0  0  0  0  0  0
   21.8873   -5.6196  -15.0188 C   0  0  1  0  0  0  0  0  0  0  0  0
   21.1369   -4.4422  -15.5503 C   0  0  0  0  0  0  0  0  0  0  0  0
   21.7338   -3.1635  -15.1561 C   0  0  0  0  0  0  0  0  0  0  0  0
   22.9330   -3.0917  -14.8097 O   0  0  0  0  0  0  0  0  0  0  0  0
   21.8831   -5.6093  -13.5268 C   0  0  0  0  0  0  0  0  0  0  0  0
   22.6198   -4.7226  -12.7927 O   0  0  0  0  0  0  0  0  0  0  0  0
   20.9934   -1.9757  -15.1504 O   0  0  0  0  0  0  0  0  0  0  0  0
   21.1837   -6.4388  -12.8724 O   0  0  0  0  0  0  0  0  0  0  0  0
  2  1  1  0
  3  2  1  0
  3  5  1  0
  3  4  1  6
  5 14  1  0
  5  6  2  0
  8  7  1  0
  8 18  2  0
  9  8  1  0
 10  9  2  0
 10 11  1  0
 11 17  2  0
 12 11  1  0
 13 12  1  1
 14 13  1  0
 15 13  1  0
 15 16  2  0
 17 18  1  0
 19 15  1  0
 20 19  1  0
 20 21  1  6
 22 21  1  0
 22 26  1  0
 23 22  2  0
 24 20  1  0
 25 24  1  0
 27 24  2  0
M  END
$$$$
