SYD.pdb
     RDKit          3D

 27 27  0  0  1  0  0  0  0  0999 V2000
   19.5813  -33.0168    0.0000 O   0  0  0  0  0  0  0  0  0  0  0  0
   20.3187  -33.7863   -0.9184 C   0  0  0  0  0  0  0  0  0  0  0  0
   20.0448  -33.3339   -2.3383 C   0  0  2  0  0  0  0  0  0  0  0  0
   18.8164  -33.8999   -2.8112 N   0  0  0  0  0  0  0  0  0  0  0  0
   21.1344  -33.6872   -3.2572 C   0  0  0  0  0  0  0  0  0  0  0  0
   21.1700  -34.8031   -3.8235 O   0  0  0  0  0  0  0  0  0  0  0  0
   26.9491  -32.6786   -9.8360 O   0  0  0  0  0  0  0  0  0  0  0  0
   26.0724  -32.4954   -8.7714 C   0  0  0  0  0  0  0  0  0  0  0  0
   24.7168  -32.3003   -8.9644 C   0  0  0  0  0  0  0  0  0  0  0  0
   23.8727  -32.1214   -7.8892 C   0  0  0  0  0  0  0  0  0  0  0  0
   24.3153  -32.1251   -6.5776 C   0  0  0  0  0  0  0  0  0  0  0  0
   23.3689  -31.9198   -5.4620 C   0  0  0  0  0  0  0  0  0  0  0  0
   23.2232  -33.0829   -4.5432 C   0  0  2  0  0  0  0  0  0  0  0  0
   22.2122  -32.7797   -3.5555 N   0  0  0  0  0  0  0  0  0  0  0  0
   24.4888  -33.5318   -3.9381 C   0  0  0  0  0  0  0  0  0  0  0  0
   24.8353  -33.0004   -2.8488 O   0  0  0  0  0  0  0  0  0  0  0  0
   25.6820  -32.3227   -6.4023 C   0  0  0  0  0  0  0  0  0  0  0  0
   26.5331  -32.5024   -7.4728 C   0  0  0  0  0  0  0  0  0  0  0  0
   25.3338  -34.5054   -4.4854 N   0  0  0  0  0  0  0  0  0  0  0  0
   26.5420  -34.9631   -3.7581 C   0  0  1  0  0  0  0  0  0  0  0  0
   26.0652  -35.5822   -2.4849 C   0  0  0  0  0  0  0  0  0  0  0  0
   27.1420  -36.2269   -1.7289 C   0  0  0  0  0  0  0  0  0  0  0  0
   28.3380  -35.9143   -1.9172 O   0  0  0  0  0  0  0  0  0  0  0  0
   27.1495  -35.9980   -4.6447 C   0  0  0  0  0  0  0  0  0  0  0  0
   28.4617  -36.3694   -4.5543 O   0  0  0  0  0  0  0  0  0  0  0  0
   26.8811  -37.2129   -0.7705 O   0  0  0  0  0  0  0  0  0  0  0  0
   26.4584  -36.5815   -5.5320 O   0  0  0  0  0  0  0  0  0  0  0  0
  2  1  1  0
  3  2  1  0
  3  5  1  0
  3  4  1  6
  5 14  1  0
  5  6  2  0
  8  7  1  0
  8 18  2  0
  9  8  1  0
 10  9  2  0
 10 11  1  0
 11 17  2  0
 12 11  1  0
 13 12  1  1
 14 13  1  0
 15 13  1  0
 15 16  2  0
 17 18  1  0
 19 15  1  0
 20 19  1  0
 20 21  1  1
 22 21  1  0
 22 26  1  0
 23 22  2  0
 24 20  1  0
 25 24  1  0
 27 24  2  0
M  END
$$$$
