SYD.pdb
     RDKit          3D

 27 27  0  0  1  0  0  0  0  0999 V2000
   37.7900  -10.4913  -16.3467 O   0  0  0  0  0  0  0  0  0  0  0  0
   36.7170   -9.9695  -17.0923 C   0  0  0  0  0  0  0  0  0  0  0  0
   35.7614  -11.0725  -17.5000 C   0  0  2  0  0  0  0  0  0  0  0  0
   36.4066  -11.9800  -18.4016 N   0  0  0  0  0  0  0  0  0  0  0  0
   34.5375  -10.5500  -18.1210 C   0  0  0  0  0  0  0  0  0  0  0  0
   34.3612  -10.6095  -19.3589 O   0  0  0  0  0  0  0  0  0  0  0  0
   30.0979  -15.3915  -19.2631 O   0  0  0  0  0  0  0  0  0  0  0  0
   30.3388  -14.1042  -18.7937 C   0  0  0  0  0  0  0  0  0  0  0  0
   30.1528  -12.9881  -19.5890 C   0  0  0  0  0  0  0  0  0  0  0  0
   30.4001  -11.7248  -19.0956 C   0  0  0  0  0  0  0  0  0  0  0  0
   30.8402  -11.4956  -17.8032 C   0  0  0  0  0  0  0  0  0  0  0  0
   31.0986  -10.1212  -17.3275 C   0  0  0  0  0  0  0  0  0  0  0  0
   32.2689   -9.4503  -17.9590 C   0  0  2  0  0  0  0  0  0  0  0  0
   33.4821   -9.9460  -17.3491 N   0  0  0  0  0  0  0  0  0  0  0  0
   32.1927   -7.9794  -17.9530 C   0  0  0  0  0  0  0  0  0  0  0  0
   32.2255   -7.3982  -16.8349 O   0  0  0  0  0  0  0  0  0  0  0  0
   31.0219  -12.6301  -17.0174 C   0  0  0  0  0  0  0  0  0  0  0  0
   30.7767  -13.8974  -17.5036 C   0  0  0  0  0  0  0  0  0  0  0  0
   32.0863   -7.1811  -19.0988 N   0  0  0  0  0  0  0  0  0  0  0  0
   32.0354   -5.7030  -18.9969 C   0  0  1  0  0  0  0  0  0  0  0  0
   32.1469   -5.1747  -20.3897 C   0  0  0  0  0  0  0  0  0  0  0  0
   32.0954   -3.7115  -20.4478 C   0  0  0  0  0  0  0  0  0  0  0  0
   32.0816   -3.0253  -19.4028 O   0  0  0  0  0  0  0  0  0  0  0  0
   30.6855   -5.4074  -18.4344 C   0  0  0  0  0  0  0  0  0  0  0  0
   29.5719   -6.1242  -18.7721 O   0  0  0  0  0  0  0  0  0  0  0  0
   32.0597   -3.0235  -21.6662 O   0  0  0  0  0  0  0  0  0  0  0  0
   30.5180   -4.4623  -17.6073 O   0  0  0  0  0  0  0  0  0  0  0  0
  2  1  1  0
  3  2  1  0
  3  5  1  0
  3  4  1  6
  5 14  1  0
  5  6  2  0
  8  7  1  0
  8 18  2  0
  9  8  1  0
 10  9  2  0
 10 11  1  0
 11 17  2  0
 12 11  1  0
 13 12  1  1
 14 13  1  0
 15 13  1  0
 15 16  2  0
 17 18  1  0
 19 15  1  0
 20 19  1  0
 20 21  1  6
 22 21  1  0
 22 26  1  0
 23 22  2  0
 24 20  1  0
 25 24  1  0
 27 24  2  0
M  END
$$$$
