SYD.pdb
     RDKit          3D

 27 27  0  0  1  0  0  0  0  0999 V2000
   22.2444  -13.2174  -20.4992 O   0  0  0  0  0  0  0  0  0  0  0  0
   22.1805  -12.4145  -19.3456 C   0  0  0  0  0  0  0  0  0  0  0  0
   23.0044  -13.0181  -18.2263 C   0  0  2  0  0  0  0  0  0  0  0  0
   22.5701  -14.3567  -17.9569 N   0  0  0  0  0  0  0  0  0  0  0  0
   22.9395  -12.2229  -16.9934 C   0  0  0  0  0  0  0  0  0  0  0  0
   22.0052  -12.3714  -16.1735 O   0  0  0  0  0  0  0  0  0  0  0  0
   29.7440  -12.4123  -17.1999 O   0  0  0  0  0  0  0  0  0  0  0  0
   28.5805  -11.9931  -16.5626 C   0  0  0  0  0  0  0  0  0  0  0  0
   28.2064  -10.6623  -16.5225 C   0  0  0  0  0  0  0  0  0  0  0  0
   27.0472  -10.2774  -15.8831 C   0  0  0  0  0  0  0  0  0  0  0  0
   26.2021  -11.1755  -15.2543 C   0  0  0  0  0  0  0  0  0  0  0  0
   24.9760  -10.7084  -14.5756 C   0  0  0  0  0  0  0  0  0  0  0  0
   23.8348  -10.4061  -15.4837 C   0  0  2  0  0  0  0  0  0  0  0  0
   23.9364  -11.2379  -16.6615 N   0  0  0  0  0  0  0  0  0  0  0  0
   23.6904   -8.9772  -15.8108 C   0  0  0  0  0  0  0  0  0  0  0  0
   24.4075   -8.5161  -16.7394 O   0  0  0  0  0  0  0  0  0  0  0  0
   26.5943  -12.5102  -15.3047 C   0  0  0  0  0  0  0  0  0  0  0  0
   27.7524  -12.9033  -15.9424 C   0  0  0  0  0  0  0  0  0  0  0  0
   22.8150   -8.0952  -15.1650 N   0  0  0  0  0  0  0  0  0  0  0  0
   22.6413   -6.7038  -15.6463 C   0  0  1  0  0  0  0  0  0  0  0  0
   22.0183   -6.7950  -17.0010 C   0  0  0  0  0  0  0  0  0  0  0  0
   21.5697   -5.4957  -17.5082 C   0  0  0  0  0  0  0  0  0  0  0  0
   22.2251   -4.4549  -17.2833 O   0  0  0  0  0  0  0  0  0  0  0  0
   21.6918   -6.0826  -14.6773 C   0  0  0  0  0  0  0  0  0  0  0  0
   21.1142   -6.7845  -13.6567 O   0  0  0  0  0  0  0  0  0  0  0  0
   20.3971   -5.3638  -18.2610 O   0  0  0  0  0  0  0  0  0  0  0  0
   21.3791   -4.8580  -14.7670 O   0  0  0  0  0  0  0  0  0  0  0  0
  2  1  1  0
  3  2  1  0
  3  5  1  0
  3  4  1  1
  5 14  1  0
  5  6  2  0
  8  7  1  0
  8 18  2  0
  9  8  1  0
 10  9  2  0
 10 11  1  0
 11 17  2  0
 12 11  1  0
 13 12  1  1
 14 13  1  0
 15 13  1  0
 15 16  2  0
 17 18  1  0
 19 15  1  0
 20 19  1  0
 20 21  1  6
 22 21  1  0
 22 26  1  0
 23 22  2  0
 24 20  1  0
 25 24  1  0
 27 24  2  0
M  END
$$$$
