SYD.pdb
     RDKit          3D

 27 27  0  0  1  0  0  0  0  0999 V2000
   23.2476   -3.0553  -21.2915 O   0  0  0  0  0  0  0  0  0  0  0  0
   24.5367   -3.0159  -20.7293 C   0  0  0  0  0  0  0  0  0  0  0  0
   25.3791   -4.1676  -21.2392 C   0  0  2  0  0  0  0  0  0  0  0  0
   25.1543   -4.3644  -22.6405 N   0  0  0  0  0  0  0  0  0  0  0  0
   25.1107   -5.4183  -20.5180 C   0  0  0  0  0  0  0  0  0  0  0  0
   24.2951   -6.2596  -20.9587 O   0  0  0  0  0  0  0  0  0  0  0  0
   26.6202  -12.6522  -15.6366 O   0  0  0  0  0  0  0  0  0  0  0  0
   26.6860  -11.4151  -16.2696 C   0  0  0  0  0  0  0  0  0  0  0  0
   26.6242  -10.2273  -15.5639 C   0  0  0  0  0  0  0  0  0  0  0  0
   26.6920   -9.0163  -16.2195 C   0  0  0  0  0  0  0  0  0  0  0  0
   26.8232   -8.9120  -17.5936 C   0  0  0  0  0  0  0  0  0  0  0  0
   26.8822   -7.5884  -18.2468 C   0  0  0  0  0  0  0  0  0  0  0  0
   25.5582   -7.0090  -18.6072 C   0  0  2  0  0  0  0  0  0  0  0  0
   25.7635   -5.7442  -19.2763 N   0  0  0  0  0  0  0  0  0  0  0  0
   24.6207   -6.9052  -17.4760 C   0  0  0  0  0  0  0  0  0  0  0  0
   24.7382   -5.9106  -16.7105 O   0  0  0  0  0  0  0  0  0  0  0  0
   26.8838  -10.1173  -18.2874 C   0  0  0  0  0  0  0  0  0  0  0  0
   26.8167  -11.3328  -17.6389 C   0  0  0  0  0  0  0  0  0  0  0  0
   23.6095   -7.8310  -17.1900 N   0  0  0  0  0  0  0  0  0  0  0  0
   22.7109   -7.6440  -16.0258 C   0  0  1  0  0  0  0  0  0  0  0  0
   21.7203   -6.5957  -16.4149 C   0  0  0  0  0  0  0  0  0  0  0  0
   20.7135   -6.3533  -15.3784 C   0  0  0  0  0  0  0  0  0  0  0  0
   20.7962   -6.9033  -14.2586 O   0  0  0  0  0  0  0  0  0  0  0  0
   22.0333   -8.9622  -15.8536 C   0  0  0  0  0  0  0  0  0  0  0  0
   21.1359   -9.2056  -14.8521 O   0  0  0  0  0  0  0  0  0  0  0  0
   19.6237   -5.5020  -15.5948 O   0  0  0  0  0  0  0  0  0  0  0  0
   22.2700   -9.9235  -16.6444 O   0  0  0  0  0  0  0  0  0  0  0  0
  2  1  1  0
  3  2  1  0
  3  5  1  0
  3  4  1  6
  5 14  1  0
  5  6  2  0
  8  7  1  0
  8 18  2  0
  9  8  1  0
 10  9  2  0
 10 11  1  0
 11 17  2  0
 12 11  1  0
 13 12  1  1
 14 13  1  0
 15 13  1  0
 15 16  2  0
 17 18  1  0
 19 15  1  0
 20 19  1  0
 20 21  1  6
 22 21  1  0
 22 26  1  0
 23 22  2  0
 24 20  1  0
 25 24  1  0
 27 24  2  0
M  END
$$$$
