SYD.pdb
     RDKit          3D

 27 27  0  0  1  0  0  0  0  0999 V2000
   20.1917   -6.9216  -20.9498 O   0  0  0  0  0  0  0  0  0  0  0  0
   19.8438   -6.2921  -19.7406 C   0  0  0  0  0  0  0  0  0  0  0  0
   20.0578   -7.2279  -18.5683 C   0  0  2  0  0  0  0  0  0  0  0  0
   19.0933   -8.2871  -18.5965 N   0  0  0  0  0  0  0  0  0  0  0  0
   19.9855   -6.5317  -17.2773 C   0  0  0  0  0  0  0  0  0  0  0  0
   18.8845   -6.2549  -16.7497 O   0  0  0  0  0  0  0  0  0  0  0  0
   19.0165  -10.8081  -12.5367 O   0  0  0  0  0  0  0  0  0  0  0  0
   19.6886   -9.6619  -12.9487 C   0  0  0  0  0  0  0  0  0  0  0  0
   19.3583   -8.4072  -12.4696 C   0  0  0  0  0  0  0  0  0  0  0  0
   20.0428   -7.2894  -12.8969 C   0  0  0  0  0  0  0  0  0  0  0  0
   21.0805   -7.3476  -13.8113 C   0  0  0  0  0  0  0  0  0  0  0  0
   21.7752   -6.1172  -14.2423 C   0  0  0  0  0  0  0  0  0  0  0  0
   21.0941   -5.3630  -15.3313 C   0  0  2  0  0  0  0  0  0  0  0  0
   21.1646   -6.1325  -16.5530 N   0  0  0  0  0  0  0  0  0  0  0  0
   21.5822   -3.9839  -15.5022 C   0  0  0  0  0  0  0  0  0  0  0  0
   22.8127   -3.7747  -15.3259 O   0  0  0  0  0  0  0  0  0  0  0  0
   21.3991   -8.6180  -14.2827 C   0  0  0  0  0  0  0  0  0  0  0  0
   20.7191   -9.7412  -13.8601 C   0  0  0  0  0  0  0  0  0  0  0  0
   20.7784   -2.8898  -15.8460 N   0  0  0  0  0  0  0  0  0  0  0  0
   21.3661   -1.5427  -16.0410 C   0  0  1  0  0  0  0  0  0  0  0  0
   21.4482   -1.3220  -17.5161 C   0  0  0  0  0  0  0  0  0  0  0  0
   21.8570    0.0413  -17.8643 C   0  0  0  0  0  0  0  0  0  0  0  0
   21.2502    0.6912  -18.7434 O   0  0  0  0  0  0  0  0  0  0  0  0
   20.3796   -0.6058  -15.4284 C   0  0  0  0  0  0  0  0  0  0  0  0
   19.1235   -0.9957  -15.0568 O   0  0  0  0  0  0  0  0  0  0  0  0
   22.9360    0.6706  -17.2330 O   0  0  0  0  0  0  0  0  0  0  0  0
   20.6752    0.6097  -15.2269 O   0  0  0  0  0  0  0  0  0  0  0  0
  2  1  1  0
  3  2  1  0
  3  5  1  0
  3  4  1  1
  5 14  1  0
  5  6  2  0
  8  7  1  0
  8 18  2  0
  9  8  1  0
 10  9  2  0
 10 11  1  0
 11 17  2  0
 12 11  1  0
 13 12  1  1
 14 13  1  0
 15 13  1  0
 15 16  2  0
 17 18  1  0
 19 15  1  0
 20 19  1  0
 20 21  1  6
 22 21  1  0
 22 26  1  0
 23 22  2  0
 24 20  1  0
 25 24  1  0
 27 24  2  0
M  END
$$$$
