FNG.pdb
     RDKit          3D

 24 24  0  0  1  0  0  0  0  0999 V2000
    5.5977  -17.3134   25.4485 N   0  0  0  0  0  0  0  0  0  0  0  0
    6.3040  -16.0978   25.1843 C   0  0  1  0  0  0  0  0  0  0  0  0
    7.0828  -15.5746   26.3562 C   0  0  0  0  0  0  0  0  0  0  0  0
    6.8966  -14.1326   26.5971 C   0  0  0  0  0  0  0  0  0  0  0  0
    5.6878  -13.5352   26.7790 C   0  0  0  0  0  0  0  0  0  0  0  0
    5.5974  -12.1967   26.9960 C   0  0  0  0  0  0  0  0  0  0  0  0
    6.7088  -11.3807   27.0433 C   0  0  0  0  0  0  0  0  0  0  0  0
    7.9336  -11.9821   26.8597 C   0  0  0  0  0  0  0  0  0  0  0  0
    8.0405  -13.3367   26.6391 C   0  0  0  0  0  0  0  0  0  0  0  0
    7.2171  -16.3076   24.0295 C   0  0  0  0  0  0  0  0  0  0  0  0
    7.6216  -17.4506   23.6947 O   0  0  0  0  0  0  0  0  0  0  0  0
    7.0438  -14.8610   18.7293 N   0  0  0  0  0  0  0  0  0  0  0  0
    7.9891  -14.2710   19.6092 C   0  0  0  0  0  0  0  0  0  0  0  0
    9.0881  -13.9028   19.1334 O   0  0  0  0  0  0  0  0  0  0  0  0
    7.6690  -14.1023   21.0492 C   0  0  0  0  0  0  0  0  0  0  0  0
    8.0229  -15.3382   21.8433 C   0  0  2  0  0  0  0  0  0  0  0  0
    7.6874  -15.2171   23.2328 N   0  0  0  0  0  0  0  0  0  0  0  0
    9.4021  -15.8084   21.6056 C   0  0  0  0  0  0  0  0  0  0  0  0
    9.8182  -16.2067   20.4969 O   0  0  0  0  0  0  0  0  0  0  0  0
   10.3026  -15.8047   22.7054 N   0  0  0  0  0  0  0  0  0  0  0  0
   11.3916  -16.7406   22.8267 C   0  0  0  0  0  0  0  0  0  0  0  0
   12.6634  -16.0226   22.5642 C   0  0  0  0  0  0  0  0  0  0  0  0
   13.8653  -16.7096   22.5756 O   0  0  0  0  0  0  0  0  0  0  0  0
   12.6822  -14.7961   22.3292 O   0  0  0  0  0  0  0  0  0  0  0  0
  2  1  1  1
  2 10  1  0
  3  2  1  0
  4  9  2  0
  4  3  1  0
  5  4  1  0
  6  7  1  0
  6  5  2  0
  7  8  2  0
  8  9  1  0
 10 11  2  0
 13 12  1  0
 13 15  1  0
 14 13  2  0
 16 15  1  6
 16 18  1  0
 17 10  1  0
 17 16  1  0
 18 20  1  0
 19 18  2  0
 20 21  1  0
 22 23  1  0
 22 21  1  0
 24 22  2  0
M  END
$$$$
