FNG.pdb
     RDKit          3D

 24 24  0  0  1  0  0  0  0  0999 V2000
    6.0209  -17.3354   25.1379 N   0  0  0  0  0  0  0  0  0  0  0  0
    6.7890  -16.1545   24.8895 C   0  0  1  0  0  0  0  0  0  0  0  0
    7.4009  -15.5513   26.1205 C   0  0  0  0  0  0  0  0  0  0  0  0
    7.0650  -14.1296   26.3153 C   0  0  0  0  0  0  0  0  0  0  0  0
    5.8014  -13.6576   26.4936 C   0  0  0  0  0  0  0  0  0  0  0  0
    5.5714  -12.3294   26.6667 C   0  0  0  0  0  0  0  0  0  0  0  0
    6.5903  -11.3992   26.6713 C   0  0  0  0  0  0  0  0  0  0  0  0
    7.8701  -11.8736   26.4913 C   0  0  0  0  0  0  0  0  0  0  0  0
    8.1181  -13.2161   26.3148 C   0  0  0  0  0  0  0  0  0  0  0  0
    7.8557  -16.4674   23.9018 C   0  0  0  0  0  0  0  0  0  0  0  0
    8.3653  -17.6136   23.8072 O   0  0  0  0  0  0  0  0  0  0  0  0
    6.9504  -13.3404   20.8530 N   0  0  0  0  0  0  0  0  0  0  0  0
    7.3214  -14.6999   20.6792 C   0  0  0  0  0  0  0  0  0  0  0  0
    6.4087  -15.5529   20.5842 O   0  0  0  0  0  0  0  0  0  0  0  0
    8.7544  -15.0831   20.6138 C   0  0  0  0  0  0  0  0  0  0  0  0
    9.1974  -15.7860   21.8759 C   0  0  2  0  0  0  0  0  0  0  0  0
    8.3629  -15.4787   23.0016 N   0  0  0  0  0  0  0  0  0  0  0  0
   10.6405  -15.6371   22.1500 C   0  0  0  0  0  0  0  0  0  0  0  0
   11.5150  -15.5908   21.2589 O   0  0  0  0  0  0  0  0  0  0  0  0
   11.0511  -15.5412   23.5075 N   0  0  0  0  0  0  0  0  0  0  0  0
   11.8068  -16.5740   24.1699 C   0  0  0  0  0  0  0  0  0  0  0  0
   13.2491  -16.3494   23.9029 C   0  0  0  0  0  0  0  0  0  0  0  0
   14.1829  -16.5610   24.9028 O   0  0  0  0  0  0  0  0  0  0  0  0
   13.6526  -15.9689   22.7838 O   0  0  0  0  0  0  0  0  0  0  0  0
  2  1  1  1
  2 10  1  0
  3  2  1  0
  4  9  2  0
  4  3  1  0
  5  4  1  0
  6  7  1  0
  6  5  2  0
  7  8  2  0
  8  9  1  0
 10 11  2  0
 13 12  1  0
 13 15  1  0
 14 13  2  0
 16 15  1  6
 16 18  1  0
 17 10  1  0
 17 16  1  0
 18 20  1  0
 19 18  2  0
 20 21  1  0
 22 23  1  0
 22 21  1  0
 24 22  2  0
M  END
$$$$
