FNG.pdb
     RDKit          3D

 24 24  0  0  1  0  0  0  0  0999 V2000
    9.0943  -14.2347   24.7695 N   0  0  0  0  0  0  0  0  0  0  0  0
    7.9427  -15.0237   24.4576 C   0  0  1  0  0  0  0  0  0  0  0  0
    6.6366  -14.3276   24.7090 C   0  0  0  0  0  0  0  0  0  0  0  0
    6.7222  -13.2458   25.7061 C   0  0  0  0  0  0  0  0  0  0  0  0
    7.8591  -12.5560   25.9936 C   0  0  0  0  0  0  0  0  0  0  0  0
    7.8585  -11.5699   26.9288 C   0  0  0  0  0  0  0  0  0  0  0  0
    6.7228  -11.2182   27.6286 C   0  0  0  0  0  0  0  0  0  0  0  0
    5.5706  -11.9143   27.3401 C   0  0  0  0  0  0  0  0  0  0  0  0
    5.5562  -12.9154   26.3954 C   0  0  0  0  0  0  0  0  0  0  0  0
    8.0170  -15.4507   23.0351 C   0  0  0  0  0  0  0  0  0  0  0  0
    7.2383  -16.3130   22.5532 O   0  0  0  0  0  0  0  0  0  0  0  0
    7.6943  -12.9493   19.8202 N   0  0  0  0  0  0  0  0  0  0  0  0
    7.8402  -14.3571   19.7075 C   0  0  0  0  0  0  0  0  0  0  0  0
    6.8017  -15.0529   19.6232 O   0  0  0  0  0  0  0  0  0  0  0  0
    9.1919  -14.9715   19.6913 C   0  0  0  0  0  0  0  0  0  0  0  0
    9.5198  -15.6222   21.0150 C   0  0  2  0  0  0  0  0  0  0  0  0
    8.9817  -14.9022   22.1331 N   0  0  0  0  0  0  0  0  0  0  0  0
   10.9499  -15.9593   21.1601 C   0  0  0  0  0  0  0  0  0  0  0  0
   11.8678  -15.1119   21.1445 O   0  0  0  0  0  0  0  0  0  0  0  0
   11.2947  -17.3282   21.3269 N   0  0  0  0  0  0  0  0  0  0  0  0
   12.6423  -17.8177   21.1822 C   0  0  0  0  0  0  0  0  0  0  0  0
   12.6287  -19.2932   21.3400 C   0  0  0  0  0  0  0  0  0  0  0  0
   12.1138  -20.0955   20.3362 O   0  0  0  0  0  0  0  0  0  0  0  0
   13.0759  -19.8420   22.3689 O   0  0  0  0  0  0  0  0  0  0  0  0
  2  1  1  6
  2 10  1  0
  3  2  1  0
  4  9  2  0
  4  3  1  0
  5  4  1  0
  6  7  1  0
  6  5  2  0
  7  8  2  0
  8  9  1  0
 10 11  2  0
 13 12  1  0
 13 15  1  0
 14 13  2  0
 16 15  1  6
 16 18  1  0
 17 10  1  0
 17 16  1  0
 18 20  1  0
 19 18  2  0
 20 21  1  0
 22 23  1  0
 22 21  1  0
 24 22  2  0
M  END
$$$$
