FNG.pdb
     RDKit          3D

 24 24  0  0  1  0  0  0  0  0999 V2000
    7.4700  -15.3953   23.4074 N   0  0  0  0  0  0  0  0  0  0  0  0
    8.6416  -15.2024   24.2052 C   0  0  1  0  0  0  0  0  0  0  0  0
    8.3591  -14.9505   25.6579 C   0  0  0  0  0  0  0  0  0  0  0  0
    7.5352  -13.7537   25.9041 C   0  0  0  0  0  0  0  0  0  0  0  0
    6.2290  -13.7866   26.2836 C   0  0  0  0  0  0  0  0  0  0  0  0
    5.5343  -12.6371   26.4913 C   0  0  0  0  0  0  0  0  0  0  0  0
    6.1053  -11.3914   26.3316 C   0  0  0  0  0  0  0  0  0  0  0  0
    7.4269  -11.3546   25.9477 C   0  0  0  0  0  0  0  0  0  0  0  0
    8.1431  -12.5106   25.7337 C   0  0  0  0  0  0  0  0  0  0  0  0
    9.5256  -16.3899   24.0654 C   0  0  0  0  0  0  0  0  0  0  0  0
    9.0999  -17.4955   23.6427 O   0  0  0  0  0  0  0  0  0  0  0  0
   12.6886  -16.0896   21.9081 N   0  0  0  0  0  0  0  0  0  0  0  0
   13.3732  -16.0130   23.1496 C   0  0  0  0  0  0  0  0  0  0  0  0
   14.0915  -15.0095   23.3662 O   0  0  0  0  0  0  0  0  0  0  0  0
   13.2314  -17.0992   24.1519 C   0  0  0  0  0  0  0  0  0  0  0  0
   11.7832  -17.4802   24.3539 C   0  0  2  0  0  0  0  0  0  0  0  0
   10.9139  -16.3402   24.4051 N   0  0  0  0  0  0  0  0  0  0  0  0
   11.5803  -18.4305   25.4655 C   0  0  0  0  0  0  0  0  0  0  0  0
   12.0524  -19.5870   25.4847 O   0  0  0  0  0  0  0  0  0  0  0  0
   10.8025  -17.9979   26.5739 N   0  0  0  0  0  0  0  0  0  0  0  0
   10.3772  -18.8876   27.6246 C   0  0  0  0  0  0  0  0  0  0  0  0
   11.4208  -18.9061   28.6795 C   0  0  0  0  0  0  0  0  0  0  0  0
   11.1843  -19.5524   29.8807 O   0  0  0  0  0  0  0  0  0  0  0  0
   12.5249  -18.3467   28.5130 O   0  0  0  0  0  0  0  0  0  0  0  0
  2  1  1  6
  2 10  1  0
  3  2  1  0
  4  9  2  0
  4  3  1  0
  5  4  1  0
  6  7  1  0
  6  5  2  0
  7  8  2  0
  8  9  1  0
 10 11  2  0
 13 12  1  0
 13 15  1  0
 14 13  2  0
 16 15  1  1
 16 18  1  0
 17 10  1  0
 17 16  1  0
 18 20  1  0
 19 18  2  0
 20 21  1  0
 22 23  1  0
 22 21  1  0
 24 22  2  0
M  END
$$$$
