FNG.pdb
     RDKit          3D

 24 24  0  0  1  0  0  0  0  0999 V2000
    6.8062  -15.9463   25.0853 N   0  0  0  0  0  0  0  0  0  0  0  0
    8.1444  -15.4413   25.0643 C   0  0  1  0  0  0  0  0  0  0  0  0
    8.3866  -14.3078   26.0182 C   0  0  0  0  0  0  0  0  0  0  0  0
    7.4837  -13.1602   25.8187 C   0  0  0  0  0  0  0  0  0  0  0  0
    7.5371  -12.3190   24.7507 C   0  0  0  0  0  0  0  0  0  0  0  0
    6.6684  -11.2800   24.6376 C   0  0  0  0  0  0  0  0  0  0  0  0
    5.6985  -11.0235   25.5847 C   0  0  0  0  0  0  0  0  0  0  0  0
    5.6418  -11.8728   26.6666 C   0  0  0  0  0  0  0  0  0  0  0  0
    6.5150  -12.9293   26.7945 C   0  0  0  0  0  0  0  0  0  0  0  0
    9.0878  -16.5528   25.3573 C   0  0  0  0  0  0  0  0  0  0  0  0
   10.3144  -16.3556   25.5544 O   0  0  0  0  0  0  0  0  0  0  0  0
    8.8577  -21.9487   27.8349 N   0  0  0  0  0  0  0  0  0  0  0  0
    9.0383  -20.5600   28.0692 C   0  0  0  0  0  0  0  0  0  0  0  0
    9.7960  -20.2132   29.0048 O   0  0  0  0  0  0  0  0  0  0  0  0
    8.3421  -19.5601   27.2206 C   0  0  0  0  0  0  0  0  0  0  0  0
    9.2912  -18.9072   26.2429 C   0  0  2  0  0  0  0  0  0  0  0  0
    8.6508  -17.9125   25.4314 N   0  0  0  0  0  0  0  0  0  0  0  0
   10.0901  -19.8784   25.4693 C   0  0  0  0  0  0  0  0  0  0  0  0
   10.8792  -20.6969   25.9873 O   0  0  0  0  0  0  0  0  0  0  0  0
    9.9481  -19.8765   24.0550 N   0  0  0  0  0  0  0  0  0  0  0  0
   10.5492  -18.8752   23.2108 C   0  0  0  0  0  0  0  0  0  0  0  0
   12.0157  -19.1005   23.1809 C   0  0  0  0  0  0  0  0  0  0  0  0
   12.7575  -18.7078   22.0800 O   0  0  0  0  0  0  0  0  0  0  0  0
   12.6107  -19.6430   24.1356 O   0  0  0  0  0  0  0  0  0  0  0  0
  2  1  1  1
  2 10  1  0
  3  2  1  0
  4  9  2  0
  4  3  1  0
  5  4  1  0
  6  7  1  0
  6  5  2  0
  7  8  2  0
  8  9  1  0
 10 11  2  0
 13 12  1  0
 13 15  1  0
 14 13  2  0
 16 15  1  6
 16 18  1  0
 17 10  1  0
 17 16  1  0
 18 20  1  0
 19 18  2  0
 20 21  1  0
 22 23  1  0
 22 21  1  0
 24 22  2  0
M  END
$$$$
