FNG.pdb
     RDKit          3D

 24 24  0  0  1  0  0  0  0  0999 V2000
    8.0518  -17.1128   21.3605 N   0  0  0  0  0  0  0  0  0  0  0  0
    9.3451  -16.6161   21.0041 C   0  0  1  0  0  0  0  0  0  0  0  0
    9.6718  -15.2763   21.5972 C   0  0  0  0  0  0  0  0  0  0  0  0
    8.6726  -14.2349   21.2988 C   0  0  0  0  0  0  0  0  0  0  0  0
    7.8318  -13.6922   22.2205 C   0  0  0  0  0  0  0  0  0  0  0  0
    6.9350  -12.7341   21.8673 C   0  0  0  0  0  0  0  0  0  0  0  0
    6.8281  -12.2651   20.5742 C   0  0  0  0  0  0  0  0  0  0  0  0
    7.6775  -12.8122   19.6390 C   0  0  0  0  0  0  0  0  0  0  0  0
    8.5909  -13.7832   19.9823 C   0  0  0  0  0  0  0  0  0  0  0  0
   10.3756  -17.6084   21.4102 C   0  0  0  0  0  0  0  0  0  0  0  0
   10.1922  -18.4141   22.3586 O   0  0  0  0  0  0  0  0  0  0  0  0
   12.2788  -21.1712   18.9093 N   0  0  0  0  0  0  0  0  0  0  0  0
   12.5373  -19.7762   18.8531 C   0  0  0  0  0  0  0  0  0  0  0  0
   12.0017  -19.1136   17.9344 O   0  0  0  0  0  0  0  0  0  0  0  0
   13.4192  -19.1362   19.8617 C   0  0  0  0  0  0  0  0  0  0  0  0
   12.6362  -18.6771   21.0697 C   0  0  2  0  0  0  0  0  0  0  0  0
   11.6367  -17.7016   20.7423 N   0  0  0  0  0  0  0  0  0  0  0  0
   13.4940  -18.2880   22.2067 C   0  0  0  0  0  0  0  0  0  0  0  0
   14.2271  -19.0864   22.8280 O   0  0  0  0  0  0  0  0  0  0  0  0
   13.4801  -16.9256   22.6117 N   0  0  0  0  0  0  0  0  0  0  0  0
   14.1907  -16.4479   23.7708 C   0  0  0  0  0  0  0  0  0  0  0  0
   15.5332  -15.9820   23.3434 C   0  0  0  0  0  0  0  0  0  0  0  0
   16.3898  -15.3948   24.2588 O   0  0  0  0  0  0  0  0  0  0  0  0
   15.9200  -16.1060   22.1623 O   0  0  0  0  0  0  0  0  0  0  0  0
  2  1  1  1
  2 10  1  0
  3  2  1  0
  4  9  2  0
  4  3  1  0
  5  4  1  0
  6  7  1  0
  6  5  2  0
  7  8  2  0
  8  9  1  0
 10 11  2  0
 13 12  1  0
 13 15  1  0
 14 13  2  0
 16 15  1  6
 16 18  1  0
 17 10  1  0
 17 16  1  0
 18 20  1  0
 19 18  2  0
 20 21  1  0
 22 23  1  0
 22 21  1  0
 24 22  2  0
M  END
$$$$
