FNG.pdb
     RDKit          3D

 24 24  0  0  1  0  0  0  0  0999 V2000
    6.8453  -16.7394   25.5121 N   0  0  0  0  0  0  0  0  0  0  0  0
    7.8171  -15.8194   25.0065 C   0  0  1  0  0  0  0  0  0  0  0  0
    8.2946  -14.8163   26.0160 C   0  0  0  0  0  0  0  0  0  0  0  0
    7.4979  -13.5768   26.0447 C   0  0  0  0  0  0  0  0  0  0  0  0
    7.3816  -12.7155   24.9978 C   0  0  0  0  0  0  0  0  0  0  0  0
    6.6270  -11.5899   25.1018 C   0  0  0  0  0  0  0  0  0  0  0  0
    5.9470  -11.2622   26.2566 C   0  0  0  0  0  0  0  0  0  0  0  0
    6.0626  -12.1316   27.3177 C   0  0  0  0  0  0  0  0  0  0  0  0
    6.8232  -13.2754   27.2269 C   0  0  0  0  0  0  0  0  0  0  0  0
    8.9760  -16.5823   24.4714 C   0  0  0  0  0  0  0  0  0  0  0  0
    9.5160  -17.5186   25.1148 O   0  0  0  0  0  0  0  0  0  0  0  0
    8.6802  -17.5248   19.7456 N   0  0  0  0  0  0  0  0  0  0  0  0
    9.5380  -17.9557   20.7918 C   0  0  0  0  0  0  0  0  0  0  0  0
    9.2821  -19.0462   21.3530 O   0  0  0  0  0  0  0  0  0  0  0  0
   10.7008  -17.1261   21.1972 C   0  0  0  0  0  0  0  0  0  0  0  0
   10.7353  -16.9149   22.6930 C   0  0  2  0  0  0  0  0  0  0  0  0
    9.5427  -16.2922   23.1908 N   0  0  0  0  0  0  0  0  0  0  0  0
   11.9793  -16.2727   23.1622 C   0  0  0  0  0  0  0  0  0  0  0  0
   12.2913  -15.0914   22.9018 O   0  0  0  0  0  0  0  0  0  0  0  0
   12.8676  -17.0488   23.9553 N   0  0  0  0  0  0  0  0  0  0  0  0
   13.9974  -16.4806   24.6461 C   0  0  0  0  0  0  0  0  0  0  0  0
   15.1347  -16.3897   23.6972 C   0  0  0  0  0  0  0  0  0  0  0  0
   16.0915  -15.4010   23.8507 O   0  0  0  0  0  0  0  0  0  0  0  0
   15.2567  -17.1924   22.7482 O   0  0  0  0  0  0  0  0  0  0  0  0
  2  1  1  1
  2 10  1  0
  3  2  1  0
  4  9  2  0
  4  3  1  0
  5  4  1  0
  6  7  1  0
  6  5  2  0
  7  8  2  0
  8  9  1  0
 10 11  2  0
 13 12  1  0
 13 15  1  0
 14 13  2  0
 16 15  1  6
 16 18  1  0
 17 10  1  0
 17 16  1  0
 18 20  1  0
 19 18  2  0
 20 21  1  0
 22 23  1  0
 22 21  1  0
 24 22  2  0
M  END
$$$$
