LFV.pdb
     RDKit          3D

 27 27  0  0  1  0  0  0  0  0999 V2000
   20.6943  -14.9574  -17.2578 C   0  0  0  0  0  0  0  0  0  0  0  0
   20.3982  -13.5150  -17.5925 C   0  0  1  0  0  0  0  0  0  0  0  0
   18.9322  -13.1993  -17.3797 C   0  0  0  0  0  0  0  0  0  0  0  0
   21.2131  -12.5605  -16.7442 C   0  0  0  0  0  0  0  0  0  0  0  0
   20.7855  -11.1615  -17.1132 C   0  0  2  0  0  0  0  0  0  0  0  0
   20.9664  -10.9862  -18.5199 N   0  0  0  0  0  0  0  0  0  0  0  0
   21.4766  -10.1271  -16.3027 C   0  0  0  0  0  0  0  0  0  0  0  0
   21.4408  -10.1672  -15.0450 O   0  0  0  0  0  0  0  0  0  0  0  0
   22.2054   -9.0510  -16.8772 N   0  0  0  0  0  0  0  0  0  0  0  0
   22.9735   -8.0945  -16.0784 C   0  0  1  0  0  0  0  0  0  0  0  0
   24.4205   -8.1190  -16.3849 C   0  0  0  0  0  0  0  0  0  0  0  0
   25.1306   -9.3742  -16.1777 C   0  0  0  0  0  0  0  0  0  0  0  0
   25.2992  -10.2582  -17.2209 C   0  0  0  0  0  0  0  0  0  0  0  0
   25.9720  -11.4702  -17.0427 C   0  0  0  0  0  0  0  0  0  0  0  0
   26.4768  -11.7917  -15.8083 C   0  0  0  0  0  0  0  0  0  0  0  0
   26.3216  -10.9290  -14.7572 C   0  0  0  0  0  0  0  0  0  0  0  0
   25.6525   -9.7342  -14.9536 C   0  0  0  0  0  0  0  0  0  0  0  0
   22.2992   -6.7836  -16.1928 C   0  0  0  0  0  0  0  0  0  0  0  0
   21.9661   -6.3046  -17.3351 O   0  0  0  0  0  0  0  0  0  0  0  0
   19.4138   -5.0857  -13.7320 C   0  0  0  0  0  0  0  0  0  0  0  0
   19.9159   -4.5331  -15.0508 C   0  0  2  0  0  0  0  0  0  0  0  0
   19.2511   -5.3561  -16.1342 C   0  0  0  0  0  0  0  0  0  0  0  0
   21.3878   -4.6331  -15.2011 C   0  0  2  0  0  0  0  0  0  0  0  0
   21.9554   -5.9419  -15.0972 N   0  0  0  0  0  0  0  0  0  0  0  0
   22.0262   -3.7288  -14.1784 C   0  0  0  0  0  0  0  0  0  0  0  0
   22.7739   -4.3307  -13.1829 O   0  0  0  0  0  0  0  0  0  0  0  0
   21.8893   -2.4702  -14.2220 O   0  0  0  0  0  0  0  0  0  0  0  0
  2  1  1  1
  3  2  1  0
  4  2  1  0
  5  4  1  0
  5  6  1  6
  7  8  2  0
  7  5  1  0
  9  7  1  0
 10  9  1  0
 11 12  1  0
 10 11  1  6
 12 17  2  0
 12 13  1  0
 13 14  2  0
 14 15  1  0
 16 15  2  0
 17 16  1  0
 18 19  2  0
 18 10  1  0
 21 20  1  1
 22 21  1  0
 23 21  1  0
 23 24  1  1
 24 18  1  0
 25 23  1  0
 26 25  1  0
 27 25  2  0
M  END
$$$$
