LFV.pdb
     RDKit          3D

 27 27  0  0  1  0  0  0  0  0999 V2000
   23.9341  -15.0888  -18.4280 C   0  0  0  0  0  0  0  0  0  0  0  0
   22.9059  -14.6287  -17.4223 C   0  0  1  0  0  0  0  0  0  0  0  0
   23.4668  -14.6707  -16.0161 C   0  0  0  0  0  0  0  0  0  0  0  0
   22.4382  -13.2150  -17.7005 C   0  0  0  0  0  0  0  0  0  0  0  0
   21.3652  -12.8944  -16.6895 C   0  0  2  0  0  0  0  0  0  0  0  0
   20.3677  -13.9164  -16.7446 N   0  0  0  0  0  0  0  0  0  0  0  0
   20.8113  -11.5284  -16.8672 C   0  0  0  0  0  0  0  0  0  0  0  0
   21.5752  -10.5307  -16.9429 O   0  0  0  0  0  0  0  0  0  0  0  0
   19.4185  -11.2626  -16.9614 N   0  0  0  0  0  0  0  0  0  0  0  0
   18.8807   -9.9341  -17.2593 C   0  0  1  0  0  0  0  0  0  0  0  0
   17.5185   -9.9798  -17.8342 C   0  0  0  0  0  0  0  0  0  0  0  0
   16.8764   -8.7091  -18.1438 C   0  0  0  0  0  0  0  0  0  0  0  0
   15.9255   -8.1856  -17.2954 C   0  0  0  0  0  0  0  0  0  0  0  0
   15.2930   -6.9713  -17.5761 C   0  0  0  0  0  0  0  0  0  0  0  0
   15.6208   -6.2824  -18.7162 C   0  0  0  0  0  0  0  0  0  0  0  0
   16.5628   -6.7829  -19.5739 C   0  0  0  0  0  0  0  0  0  0  0  0
   17.1775   -7.9865  -19.2785 C   0  0  0  0  0  0  0  0  0  0  0  0
   19.0550   -9.1065  -16.0464 C   0  0  0  0  0  0  0  0  0  0  0  0
   18.5996   -9.4882  -14.9097 O   0  0  0  0  0  0  0  0  0  0  0  0
   22.2502   -6.3959  -15.2445 C   0  0  0  0  0  0  0  0  0  0  0  0
   21.2220   -6.9196  -14.2621 C   0  0  2  0  0  0  0  0  0  0  0  0
   21.6919   -8.3003  -13.8547 C   0  0  0  0  0  0  0  0  0  0  0  0
   19.8616   -7.0230  -14.8434 C   0  0  2  0  0  0  0  0  0  0  0  0
   19.7209   -7.8488  -16.0028 N   0  0  0  0  0  0  0  0  0  0  0  0
   19.3798   -5.6305  -15.1600 C   0  0  0  0  0  0  0  0  0  0  0  0
   19.1847   -4.7725  -14.0932 O   0  0  0  0  0  0  0  0  0  0  0  0
   19.1614   -5.2540  -16.3496 O   0  0  0  0  0  0  0  0  0  0  0  0
  2  1  1  6
  3  2  1  0
  4  2  1  0
  5  4  1  0
  5  6  1  6
  7  8  2  0
  7  5  1  0
  9  7  1  0
 10  9  1  0
 11 12  1  0
 10 11  1  1
 12 17  2  0
 12 13  1  0
 13 14  2  0
 14 15  1  0
 16 15  2  0
 17 16  1  0
 18 19  2  0
 18 10  1  0
 21 20  1  6
 22 21  1  0
 23 21  1  0
 23 24  1  6
 24 18  1  0
 25 23  1  0
 26 25  1  0
 27 25  2  0
M  END
$$$$
