LFV.pdb
     RDKit          3D

 27 27  0  0  1  0  0  0  0  0999 V2000
   26.1977  -22.1369  -15.3980 C   0  0  0  0  0  0  0  0  0  0  0  0
   25.7065  -21.0987  -14.4177 C   0  0  1  0  0  0  0  0  0  0  0  0
   24.4345  -20.4435  -14.9143 C   0  0  0  0  0  0  0  0  0  0  0  0
   25.4262  -21.6979  -13.0549 C   0  0  0  0  0  0  0  0  0  0  0  0
   25.2514  -20.5499  -12.0916 C   0  0  2  0  0  0  0  0  0  0  0  0
   25.8835  -19.3928  -12.6429 N   0  0  0  0  0  0  0  0  0  0  0  0
   25.7295  -20.8808  -10.7254 C   0  0  0  0  0  0  0  0  0  0  0  0
   25.4988  -22.0107  -10.2208 O   0  0  0  0  0  0  0  0  0  0  0  0
   26.4601  -19.9683   -9.9174 N   0  0  0  0  0  0  0  0  0  0  0  0
   26.8469  -20.2623   -8.5366 C   0  0  1  0  0  0  0  0  0  0  0  0
   27.9317  -19.3859   -8.0433 C   0  0  0  0  0  0  0  0  0  0  0  0
   28.3331  -19.5319   -6.6502 C   0  0  0  0  0  0  0  0  0  0  0  0
   28.0588  -18.5352   -5.7395 C   0  0  0  0  0  0  0  0  0  0  0  0
   28.4399  -18.6522   -4.4000 C   0  0  0  0  0  0  0  0  0  0  0  0
   29.0998  -19.7782   -3.9773 C   0  0  0  0  0  0  0  0  0  0  0  0
   29.3829  -20.7816   -4.8642 C   0  0  0  0  0  0  0  0  0  0  0  0
   28.9974  -20.6470   -6.1860 C   0  0  0  0  0  0  0  0  0  0  0  0
   25.6083  -20.2933   -7.7295 C   0  0  0  0  0  0  0  0  0  0  0  0
   24.6556  -19.4611   -7.9414 O   0  0  0  0  0  0  0  0  0  0  0  0
   22.0637  -22.4606   -5.1842 C   0  0  0  0  0  0  0  0  0  0  0  0
   23.3532  -22.5172   -5.9784 C   0  0  2  0  0  0  0  0  0  0  0  0
   24.1663  -23.6478   -5.3836 C   0  0  0  0  0  0  0  0  0  0  0  0
   24.1397  -21.2624   -5.9012 C   0  0  2  0  0  0  0  0  0  0  0  0
   25.3423  -21.2109   -6.6739 N   0  0  0  0  0  0  0  0  0  0  0  0
   24.4645  -21.0008   -4.4529 C   0  0  0  0  0  0  0  0  0  0  0  0
   23.4003  -20.7878   -3.5960 O   0  0  0  0  0  0  0  0  0  0  0  0
   25.6585  -20.9762   -4.0304 O   0  0  0  0  0  0  0  0  0  0  0  0
  2  1  1  6
  3  2  1  0
  4  2  1  0
  5  4  1  0
  5  6  1  6
  7  8  2  0
  7  5  1  0
  9  7  1  0
 10  9  1  0
 11 12  1  0
 10 11  1  1
 12 17  2  0
 12 13  1  0
 13 14  2  0
 14 15  1  0
 16 15  2  0
 17 16  1  0
 18 19  2  0
 18 10  1  0
 21 20  1  1
 22 21  1  0
 23 21  1  0
 23 24  1  6
 24 18  1  0
 25 23  1  0
 26 25  1  0
 27 25  2  0
M  END
$$$$
