LFV.pdb
     RDKit          3D

 27 27  0  0  1  0  0  0  0  0999 V2000
   27.7537  -18.1256  -18.6967 C   0  0  0  0  0  0  0  0  0  0  0  0
   28.3240  -18.8724  -17.5146 C   0  0  1  0  0  0  0  0  0  0  0  0
   28.8216  -17.9111  -16.4552 C   0  0  0  0  0  0  0  0  0  0  0  0
   27.2980  -19.7862  -16.8765 C   0  0  0  0  0  0  0  0  0  0  0  0
   27.9581  -20.4313  -15.6830 C   0  0  2  0  0  0  0  0  0  0  0  0
   28.7684  -21.5155  -16.1417 N   0  0  0  0  0  0  0  0  0  0  0  0
   26.9770  -20.8349  -14.6443 C   0  0  0  0  0  0  0  0  0  0  0  0
   26.3772  -21.9389  -14.7223 O   0  0  0  0  0  0  0  0  0  0  0  0
   26.6578  -20.0236  -13.5222 N   0  0  0  0  0  0  0  0  0  0  0  0
   25.7396  -20.4528  -12.4659 C   0  0  1  0  0  0  0  0  0  0  0  0
   26.1316  -19.9608  -11.1271 C   0  0  0  0  0  0  0  0  0  0  0  0
   27.3011  -20.5665  -10.5040 C   0  0  0  0  0  0  0  0  0  0  0  0
   27.2507  -20.9884   -9.1935 C   0  0  0  0  0  0  0  0  0  0  0  0
   28.3625  -21.5666   -8.5747 C   0  0  0  0  0  0  0  0  0  0  0  0
   29.5291  -21.7200   -9.2799 C   0  0  0  0  0  0  0  0  0  0  0  0
   29.6026  -21.3084  -10.5832 C   0  0  0  0  0  0  0  0  0  0  0  0
   28.4913  -20.7383  -11.1780 C   0  0  0  0  0  0  0  0  0  0  0  0
   24.3694  -20.1223  -12.9127 C   0  0  0  0  0  0  0  0  0  0  0  0
   24.0475  -18.9248  -13.2406 O   0  0  0  0  0  0  0  0  0  0  0  0
   21.4922  -22.9166  -14.5689 C   0  0  0  0  0  0  0  0  0  0  0  0
   21.4647  -21.4040  -14.6580 C   0  0  2  0  0  0  0  0  0  0  0  0
   22.3623  -21.0329  -15.8198 C   0  0  0  0  0  0  0  0  0  0  0  0
   21.9630  -20.7395  -13.4296 C   0  0  2  0  0  0  0  0  0  0  0  0
   23.2991  -21.0542  -13.0274 N   0  0  0  0  0  0  0  0  0  0  0  0
   21.0134  -21.0612  -12.3043 C   0  0  0  0  0  0  0  0  0  0  0  0
   21.5099  -21.8125  -11.2549 O   0  0  0  0  0  0  0  0  0  0  0  0
   19.8107  -20.6635  -12.3114 O   0  0  0  0  0  0  0  0  0  0  0  0
  2  1  1  6
  3  2  1  0
  4  2  1  0
  5  4  1  0
  5  6  1  6
  7  8  2  0
  7  5  1  0
  9  7  1  0
 10  9  1  0
 11 12  1  0
 10 11  1  1
 12 17  2  0
 12 13  1  0
 13 14  2  0
 14 15  1  0
 16 15  2  0
 17 16  1  0
 18 19  2  0
 18 10  1  0
 21 20  1  1
 22 21  1  0
 23 21  1  0
 23 24  1  1
 24 18  1  0
 25 23  1  0
 26 25  1  0
 27 25  2  0
M  END
$$$$
