LFV.pdb
     RDKit          3D

 27 27  0  0  1  0  0  0  0  0999 V2000
   25.0459  -17.6329  -19.7854 C   0  0  0  0  0  0  0  0  0  0  0  0
   26.0428  -18.4902  -19.0427 C   0  0  1  0  0  0  0  0  0  0  0  0
   27.1278  -17.6398  -18.4156 C   0  0  0  0  0  0  0  0  0  0  0  0
   25.3835  -19.2979  -17.9437 C   0  0  0  0  0  0  0  0  0  0  0  0
   26.4716  -20.0861  -17.2572 C   0  0  2  0  0  0  0  0  0  0  0  0
   26.8958  -21.1338  -18.1319 N   0  0  0  0  0  0  0  0  0  0  0  0
   26.0558  -20.5761  -15.9187 C   0  0  0  0  0  0  0  0  0  0  0  0
   25.3027  -21.5787  -15.8077 O   0  0  0  0  0  0  0  0  0  0  0  0
   26.4690  -19.9623  -14.7056 N   0  0  0  0  0  0  0  0  0  0  0  0
   26.0136  -20.4147  -13.3900 C   0  0  1  0  0  0  0  0  0  0  0  0
   26.9288  -20.0206  -12.2967 C   0  0  0  0  0  0  0  0  0  0  0  0
   26.4933  -20.2766  -10.9301 C   0  0  0  0  0  0  0  0  0  0  0  0
   26.6990  -21.5112  -10.3544 C   0  0  0  0  0  0  0  0  0  0  0  0
   26.2841  -21.7799   -9.0471 C   0  0  0  0  0  0  0  0  0  0  0  0
   25.6597  -20.8001   -8.3178 C   0  0  0  0  0  0  0  0  0  0  0  0
   25.4447  -19.5658   -8.8687 C   0  0  0  0  0  0  0  0  0  0  0  0
   25.8627  -19.3194  -10.1643 C   0  0  0  0  0  0  0  0  0  0  0  0
   24.6013  -20.0006  -13.2467 C   0  0  0  0  0  0  0  0  0  0  0  0
   24.2359  -18.7928  -13.4764 O   0  0  0  0  0  0  0  0  0  0  0  0
   21.2353  -22.4222  -13.8426 C   0  0  0  0  0  0  0  0  0  0  0  0
   21.1694  -20.9273  -13.6027 C   0  0  2  0  0  0  0  0  0  0  0  0
   21.4249  -20.2725  -14.9440 C   0  0  0  0  0  0  0  0  0  0  0  0
   22.1812  -20.4489  -12.6298 C   0  0  2  0  0  0  0  0  0  0  0  0
   23.5329  -20.8574  -12.8574 N   0  0  0  0  0  0  0  0  0  0  0  0
   21.7517  -20.8868  -11.2531 C   0  0  0  0  0  0  0  0  0  0  0  0
   20.5544  -20.3855  -10.7763 O   0  0  0  0  0  0  0  0  0  0  0  0
   22.4514  -21.6804  -10.5564 O   0  0  0  0  0  0  0  0  0  0  0  0
  2  1  1  1
  3  2  1  0
  4  2  1  0
  5  4  1  0
  5  6  1  6
  7  8  2  0
  7  5  1  0
  9  7  1  0
 10  9  1  0
 11 12  1  0
 10 11  1  1
 12 17  2  0
 12 13  1  0
 13 14  2  0
 14 15  1  0
 16 15  2  0
 17 16  1  0
 18 19  2  0
 18 10  1  0
 21 20  1  6
 22 21  1  0
 23 21  1  0
 23 24  1  6
 24 18  1  0
 25 23  1  0
 26 25  1  0
 27 25  2  0
M  END
$$$$
