LFV.pdb
     RDKit          3D

 27 27  0  0  1  0  0  0  0  0999 V2000
   19.7335  -12.2664  -20.7442 C   0  0  0  0  0  0  0  0  0  0  0  0
   21.1741  -12.2134  -20.2945 C   0  0  1  0  0  0  0  0  0  0  0  0
   22.0145  -11.4066  -21.2623 C   0  0  0  0  0  0  0  0  0  0  0  0
   21.3131  -11.5927  -18.9196 C   0  0  0  0  0  0  0  0  0  0  0  0
   22.7826  -11.5939  -18.5777 C   0  0  2  0  0  0  0  0  0  0  0  0
   23.2132  -12.9479  -18.4237 N   0  0  0  0  0  0  0  0  0  0  0  0
   23.0888  -10.7466  -17.3975 C   0  0  0  0  0  0  0  0  0  0  0  0
   22.7916  -11.1315  -16.2364 O   0  0  0  0  0  0  0  0  0  0  0  0
   23.7212   -9.4779  -17.4969 N   0  0  0  0  0  0  0  0  0  0  0  0
   24.0725   -8.6706  -16.3274 C   0  0  1  0  0  0  0  0  0  0  0  0
   25.5290   -8.4461  -16.1990 C   0  0  0  0  0  0  0  0  0  0  0  0
   26.3856   -9.6216  -16.1139 C   0  0  0  0  0  0  0  0  0  0  0  0
   27.1136  -10.0322  -17.2091 C   0  0  0  0  0  0  0  0  0  0  0  0
   27.9369  -11.1601  -17.1510 C   0  0  0  0  0  0  0  0  0  0  0  0
   28.0265  -11.8763  -15.9844 C   0  0  0  0  0  0  0  0  0  0  0  0
   27.3126  -11.4872  -14.8834 C   0  0  0  0  0  0  0  0  0  0  0  0
   26.5032  -10.3680  -14.9609 C   0  0  0  0  0  0  0  0  0  0  0  0
   23.2209   -7.4622  -16.3547 C   0  0  0  0  0  0  0  0  0  0  0  0
   23.1477   -6.7236  -17.4008 O   0  0  0  0  0  0  0  0  0  0  0  0
   19.4546   -7.1280  -15.8910 C   0  0  0  0  0  0  0  0  0  0  0  0
   20.1192   -6.1257  -14.9688 C   0  0  2  0  0  0  0  0  0  0  0  0
   19.3394   -4.8358  -15.1147 C   0  0  0  0  0  0  0  0  0  0  0  0
   21.5401   -5.8738  -15.3102 C   0  0  2  0  0  0  0  0  0  0  0  0
   22.4183   -7.0022  -15.2723 N   0  0  0  0  0  0  0  0  0  0  0  0
   22.0617   -4.8032  -14.3866 C   0  0  0  0  0  0  0  0  0  0  0  0
   21.8725   -3.4891  -14.7734 O   0  0  0  0  0  0  0  0  0  0  0  0
   22.6487   -5.0864  -13.3004 O   0  0  0  0  0  0  0  0  0  0  0  0
  2  1  1  6
  3  2  1  0
  4  2  1  0
  5  4  1  0
  5  6  1  1
  7  8  2  0
  7  5  1  0
  9  7  1  0
 10  9  1  0
 11 12  1  0
 10 11  1  6
 12 17  2  0
 12 13  1  0
 13 14  2  0
 14 15  1  0
 16 15  2  0
 17 16  1  0
 18 19  2  0
 18 10  1  0
 21 20  1  6
 22 21  1  0
 23 21  1  0
 23 24  1  1
 24 18  1  0
 25 23  1  0
 26 25  1  0
 27 25  2  0
M  END
$$$$
