LFV.pdb
     RDKit          3D

 27 27  0  0  1  0  0  0  0  0999 V2000
   15.8576  -13.6318  -19.7933 C   0  0  0  0  0  0  0  0  0  0  0  0
   17.2795  -13.5129  -19.2990 C   0  0  1  0  0  0  0  0  0  0  0  0
   18.1237  -12.7088  -20.2657 C   0  0  0  0  0  0  0  0  0  0  0  0
   17.3506  -12.8430  -17.9421 C   0  0  0  0  0  0  0  0  0  0  0  0
   18.8081  -12.7659  -17.5601 C   0  0  2  0  0  0  0  0  0  0  0  0
   19.2352  -14.0602  -17.1301 N   0  0  0  0  0  0  0  0  0  0  0  0
   19.0744  -11.7015  -16.5597 C   0  0  0  0  0  0  0  0  0  0  0  0
   18.7162  -11.8428  -15.3612 O   0  0  0  0  0  0  0  0  0  0  0  0
   19.7341  -10.4842  -16.8796 N   0  0  0  0  0  0  0  0  0  0  0  0
   19.9077   -9.3965  -15.9154 C   0  0  1  0  0  0  0  0  0  0  0  0
   21.3271   -9.1352  -15.5912 C   0  0  0  0  0  0  0  0  0  0  0  0
   21.6309   -7.9380  -14.8184 C   0  0  0  0  0  0  0  0  0  0  0  0
   22.0230   -6.7806  -15.4546 C   0  0  0  0  0  0  0  0  0  0  0  0
   22.3247   -5.6227  -14.7323 C   0  0  0  0  0  0  0  0  0  0  0  0
   22.2305   -5.6320  -13.3638 C   0  0  0  0  0  0  0  0  0  0  0  0
   21.8429   -6.7703  -12.7100 C   0  0  0  0  0  0  0  0  0  0  0  0
   21.5486   -7.9062  -13.4427 C   0  0  0  0  0  0  0  0  0  0  0  0
   19.1223   -8.2438  -16.4061 C   0  0  0  0  0  0  0  0  0  0  0  0
   19.1764   -7.8765  -17.6339 O   0  0  0  0  0  0  0  0  0  0  0  0
   15.4437   -6.7044  -14.8878 C   0  0  0  0  0  0  0  0  0  0  0  0
   16.1445   -6.2639  -16.1572 C   0  0  2  0  0  0  0  0  0  0  0  0
   15.7631   -7.2712  -17.2216 C   0  0  0  0  0  0  0  0  0  0  0  0
   17.6213   -6.2335  -16.0261 C   0  0  2  0  0  0  0  0  0  0  0  0
   18.2529   -7.4470  -15.6084 N   0  0  0  0  0  0  0  0  0  0  0  0
   17.9846   -5.1262  -15.0705 C   0  0  0  0  0  0  0  0  0  0  0  0
   17.7713   -3.8285  -15.4979 O   0  0  0  0  0  0  0  0  0  0  0  0
   18.4644   -5.3654  -13.9228 O   0  0  0  0  0  0  0  0  0  0  0  0
  2  1  1  6
  3  2  1  0
  4  2  1  0
  5  4  1  0
  5  6  1  1
  7  8  2  0
  7  5  1  0
  9  7  1  0
 10  9  1  0
 11 12  1  0
 10 11  1  6
 12 17  2  0
 12 13  1  0
 13 14  2  0
 14 15  1  0
 16 15  2  0
 17 16  1  0
 18 19  2  0
 18 10  1  0
 21 20  1  1
 22 21  1  0
 23 21  1  0
 23 24  1  1
 24 18  1  0
 25 23  1  0
 26 25  1  0
 27 25  2  0
M  END
$$$$
