LFV.pdb
     RDKit          3D

 27 27  0  0  1  0  0  0  0  0999 V2000
   22.5837  -20.2093  -14.3960 C   0  0  0  0  0  0  0  0  0  0  0  0
   24.0272  -20.3807  -13.9869 C   0  0  1  0  0  0  0  0  0  0  0  0
   24.8511  -19.1751  -14.3889 C   0  0  0  0  0  0  0  0  0  0  0  0
   24.1705  -20.5712  -12.4909 C   0  0  0  0  0  0  0  0  0  0  0  0
   25.6191  -20.8948  -12.2205 C   0  0  2  0  0  0  0  0  0  0  0  0
   25.9964  -22.0078  -13.0338 N   0  0  0  0  0  0  0  0  0  0  0  0
   25.8903  -21.1089  -10.7765 C   0  0  0  0  0  0  0  0  0  0  0  0
   25.5958  -22.2006  -10.2230 O   0  0  0  0  0  0  0  0  0  0  0  0
   26.4846  -20.1221   -9.9445 N   0  0  0  0  0  0  0  0  0  0  0  0
   26.7545  -20.3386   -8.5221 C   0  0  1  0  0  0  0  0  0  0  0  0
   27.8566  -19.4952   -8.0101 C   0  0  0  0  0  0  0  0  0  0  0  0
   28.1399  -19.5531   -6.5820 C   0  0  0  0  0  0  0  0  0  0  0  0
   28.6881  -20.6887   -6.0273 C   0  0  0  0  0  0  0  0  0  0  0  0
   28.9624  -20.7675   -4.6591 C   0  0  0  0  0  0  0  0  0  0  0  0
   28.6830  -19.6973   -3.8476 C   0  0  0  0  0  0  0  0  0  0  0  0
   28.1383  -18.5585   -4.3764 C   0  0  0  0  0  0  0  0  0  0  0  0
   27.8740  -18.5000   -5.7331 C   0  0  0  0  0  0  0  0  0  0  0  0
   25.4633  -20.2377   -7.8087 C   0  0  0  0  0  0  0  0  0  0  0  0
   24.6219  -19.3098   -8.0845 O   0  0  0  0  0  0  0  0  0  0  0  0
   23.1919  -23.4245   -6.1034 C   0  0  0  0  0  0  0  0  0  0  0  0
   22.7467  -21.9960   -6.3435 C   0  0  2  0  0  0  0  0  0  0  0  0
   22.3823  -21.9081   -7.8107 C   0  0  0  0  0  0  0  0  0  0  0  0
   23.8038  -20.9993   -6.0466 C   0  0  2  0  0  0  0  0  0  0  0  0
   25.0246  -21.1211   -6.7818 N   0  0  0  0  0  0  0  0  0  0  0  0
   24.1014  -21.0570   -4.5703 C   0  0  0  0  0  0  0  0  0  0  0  0
   23.0508  -20.8138   -3.7047 O   0  0  0  0  0  0  0  0  0  0  0  0
   25.2614  -21.3174   -4.1328 O   0  0  0  0  0  0  0  0  0  0  0  0
  2  1  1  1
  3  2  1  0
  4  2  1  0
  5  4  1  0
  5  6  1  6
  7  8  2  0
  7  5  1  0
  9  7  1  0
 10  9  1  0
 11 12  1  0
 10 11  1  1
 12 17  2  0
 12 13  1  0
 13 14  2  0
 14 15  1  0
 16 15  2  0
 17 16  1  0
 18 19  2  0
 18 10  1  0
 21 20  1  6
 22 21  1  0
 23 21  1  0
 23 24  1  6
 24 18  1  0
 25 23  1  0
 26 25  1  0
 27 25  2  0
M  END
$$$$
