LFV.pdb
     RDKit          3D

 27 27  0  0  1  0  0  0  0  0999 V2000
   29.4791  -20.2678  -17.6123 C   0  0  0  0  0  0  0  0  0  0  0  0
   29.0821  -19.6670  -16.2850 C   0  0  1  0  0  0  0  0  0  0  0  0
   28.3956  -18.3309  -16.4787 C   0  0  0  0  0  0  0  0  0  0  0  0
   28.1425  -20.5718  -15.5149 C   0  0  0  0  0  0  0  0  0  0  0  0
   27.7851  -19.8564  -14.2355 C   0  0  2  0  0  0  0  0  0  0  0  0
   28.9763  -19.6760  -13.4668 N   0  0  0  0  0  0  0  0  0  0  0  0
   26.7054  -20.5460  -13.4851 C   0  0  0  0  0  0  0  0  0  0  0  0
   26.1979  -21.6112  -13.9240 O   0  0  0  0  0  0  0  0  0  0  0  0
   26.1861  -20.0627  -12.2538 N   0  0  0  0  0  0  0  0  0  0  0  0
   25.1503  -20.7671  -11.4963 C   0  0  1  0  0  0  0  0  0  0  0  0
   25.1259  -20.3901  -10.0661 C   0  0  0  0  0  0  0  0  0  0  0  0
   26.3567  -20.5595   -9.3050 C   0  0  0  0  0  0  0  0  0  0  0  0
   27.2679  -21.5287   -9.6630 C   0  0  0  0  0  0  0  0  0  0  0  0
   28.4519  -21.7121   -8.9434 C   0  0  0  0  0  0  0  0  0  0  0  0
   28.7180  -20.9150   -7.8590 C   0  0  0  0  0  0  0  0  0  0  0  0
   27.8275  -19.9453   -7.4847 C   0  0  0  0  0  0  0  0  0  0  0  0
   26.6611  -19.7795   -8.2098 C   0  0  0  0  0  0  0  0  0  0  0  0
   23.8808  -20.6132  -12.2386 C   0  0  0  0  0  0  0  0  0  0  0  0
   23.5579  -19.4959  -12.7796 O   0  0  0  0  0  0  0  0  0  0  0  0
   20.2036  -22.4434  -14.9875 C   0  0  0  0  0  0  0  0  0  0  0  0
   21.5036  -22.6074  -14.2261 C   0  0  2  0  0  0  0  0  0  0  0  0
   21.4073  -23.9368  -13.5073 C   0  0  0  0  0  0  0  0  0  0  0  0
   21.7338  -21.5337  -13.2296 C   0  0  2  0  0  0  0  0  0  0  0  0
   22.9159  -21.6422  -12.4315 N   0  0  0  0  0  0  0  0  0  0  0  0
   20.5274  -21.4633  -12.3290 C   0  0  0  0  0  0  0  0  0  0  0  0
   19.3495  -21.0013  -12.8870 O   0  0  0  0  0  0  0  0  0  0  0  0
   20.5814  -21.8112  -11.1121 O   0  0  0  0  0  0  0  0  0  0  0  0
  2  1  1  6
  3  2  1  0
  4  2  1  0
  5  4  1  0
  5  6  1  1
  7  8  2  0
  7  5  1  0
  9  7  1  0
 10  9  1  0
 11 12  1  0
 10 11  1  1
 12 17  2  0
 12 13  1  0
 13 14  2  0
 14 15  1  0
 16 15  2  0
 17 16  1  0
 18 19  2  0
 18 10  1  0
 21 20  1  1
 22 21  1  0
 23 21  1  0
 23 24  1  1
 24 18  1  0
 25 23  1  0
 26 25  1  0
 27 25  2  0
M  END
$$$$
