YMR.pdb
     RDKit          3D

 32 32  0  0  1  0  0  0  0  0999 V2000
    7.0714  -14.4295   15.5570 O   0  0  0  0  0  0  0  0  0  0  0  0
    7.6218  -14.3181   16.8302 C   0  0  0  0  0  0  0  0  0  0  0  0
    8.4506  -15.2883   17.3110 C   0  0  0  0  0  0  0  0  0  0  0  0
    9.0125  -15.2123   18.5627 C   0  0  0  0  0  0  0  0  0  0  0  0
    8.7306  -14.1346   19.3426 C   0  0  0  0  0  0  0  0  0  0  0  0
    9.3173  -14.0177   20.6950 C   0  0  0  0  0  0  0  0  0  0  0  0
    8.9103  -15.2664   21.4497 C   0  0  2  0  0  0  0  0  0  0  0  0
    7.5236  -15.5739   21.1773 N   0  0  0  0  0  0  0  0  0  0  0  0
    9.1247  -15.1491   22.9136 C   0  0  0  0  0  0  0  0  0  0  0  0
   10.3168  -15.0605   23.3177 O   0  0  0  0  0  0  0  0  0  0  0  0
    7.8988  -13.1465   18.8783 C   0  0  0  0  0  0  0  0  0  0  0  0
    7.3251  -13.2082   17.6202 C   0  0  0  0  0  0  0  0  0  0  0  0
    7.6614  -11.5656   28.0488 C   0  0  0  0  0  0  0  0  0  0  0  0
    6.4412  -11.7153   26.7150 S   0  0  0  0  0  0  0  0  0  0  0  0
    7.0436  -12.8480   25.4289 C   0  0  0  0  0  0  0  0  0  0  0  0
    7.2537  -14.2252   25.9881 C   0  0  0  0  0  0  0  0  0  0  0  0
    8.3022  -15.0146   25.2587 C   0  0  2  0  0  0  0  0  0  0  0  0
    8.0448  -15.1352   23.8421 N   0  0  0  0  0  0  0  0  0  0  0  0
    8.3432  -16.3717   25.8446 C   0  0  0  0  0  0  0  0  0  0  0  0
    7.2585  -16.9440   26.1058 O   0  0  0  0  0  0  0  0  0  0  0  0
   10.3112  -19.5725   20.9054 N   0  0  0  0  0  0  0  0  0  0  0  0
   11.4474  -19.0726   21.5774 C   0  0  0  0  0  0  0  0  0  0  0  0
   12.2360  -18.2746   20.9322 N   0  0  0  0  0  0  0  0  0  0  0  0
   11.7535  -19.4096   22.9179 N   0  0  0  0  0  0  0  0  0  0  0  0
   10.9429  -20.3049   23.7137 C   0  0  0  0  0  0  0  0  0  0  0  0
    9.9632  -19.4717   24.5055 C   0  0  0  0  0  0  0  0  0  0  0  0
   10.3484  -19.3159   25.9359 C   0  0  0  0  0  0  0  0  0  0  0  0
    9.4860  -18.4230   26.7555 C   0  0  2  0  0  0  0  0  0  0  0  0
    9.5340  -17.0860   26.1373 N   0  0  0  0  0  0  0  0  0  0  0  0
    9.9735  -18.2528   28.1632 C   0  0  0  0  0  0  0  0  0  0  0  0
   10.5414  -17.0709   28.6068 O   0  0  0  0  0  0  0  0  0  0  0  0
    9.8930  -19.1793   29.0235 O   0  0  0  0  0  0  0  0  0  0  0  0
  2  1  1  0
  3  2  2  0
  4  3  1  0
  5 11  1  0
  5  4  2  0
  6  5  1  0
  7  6  1  0
  7  8  1  1
  9  7  1  0
  9 18  1  0
 10  9  2  0
 11 12  2  0
 12  2  1  0
 13 14  1  0
 15 14  1  0
 16 15  1  0
 17 18  1  0
 17 16  1  1
 19 17  1  0
 20 19  2  0
 21 22  1  0
 22 23  2  0
 24 22  1  0
 24 25  1  0
 25 26  1  0
 27 26  1  0
 28 27  1  6
 28 29  1  0
 28 30  1  0
 29 19  1  0
 30 31  1  0
 32 30  2  0
M  END
$$$$
