YMR.pdb
     RDKit          3D

 32 32  0  0  1  0  0  0  0  0999 V2000
    7.5718  -18.9785   15.5155 O   0  0  0  0  0  0  0  0  0  0  0  0
    7.6542  -18.1263   16.6124 C   0  0  0  0  0  0  0  0  0  0  0  0
    8.5791  -18.3470   17.5897 C   0  0  0  0  0  0  0  0  0  0  0  0
    8.6900  -17.5271   18.6869 C   0  0  0  0  0  0  0  0  0  0  0  0
    7.8493  -16.4639   18.7973 C   0  0  0  0  0  0  0  0  0  0  0  0
    7.9392  -15.5589   19.9634 C   0  0  0  0  0  0  0  0  0  0  0  0
    8.2938  -16.4256   21.1540 C   0  0  2  0  0  0  0  0  0  0  0  0
    7.1597  -17.2455   21.5188 N   0  0  0  0  0  0  0  0  0  0  0  0
    8.7454  -15.6354   22.3264 C   0  0  0  0  0  0  0  0  0  0  0  0
    9.7802  -14.9280   22.1824 O   0  0  0  0  0  0  0  0  0  0  0  0
    6.9110  -16.2234   17.8250 C   0  0  0  0  0  0  0  0  0  0  0  0
    6.7866  -17.0396   16.7141 C   0  0  0  0  0  0  0  0  0  0  0  0
    6.7378  -11.7791   27.5990 C   0  0  0  0  0  0  0  0  0  0  0  0
    5.7250  -12.4096   26.2326 S   0  0  0  0  0  0  0  0  0  0  0  0
    6.7709  -13.2301   24.9945 C   0  0  0  0  0  0  0  0  0  0  0  0
    7.5156  -14.3815   25.6053 C   0  0  0  0  0  0  0  0  0  0  0  0
    8.5823  -14.9465   24.7123 C   0  0  2  0  0  0  0  0  0  0  0  0
    8.0548  -15.6595   23.5718 N   0  0  0  0  0  0  0  0  0  0  0  0
    9.4004  -15.8829   25.5128 C   0  0  0  0  0  0  0  0  0  0  0  0
    8.9163  -17.0023   25.8040 O   0  0  0  0  0  0  0  0  0  0  0  0
   15.9958  -15.3125   23.2711 N   0  0  0  0  0  0  0  0  0  0  0  0
   14.8343  -15.8998   22.7248 C   0  0  0  0  0  0  0  0  0  0  0  0
   14.9518  -16.5810   21.6308 N   0  0  0  0  0  0  0  0  0  0  0  0
   13.5578  -15.7712   23.3235 N   0  0  0  0  0  0  0  0  0  0  0  0
   12.9785  -16.7847   24.1774 C   0  0  0  0  0  0  0  0  0  0  0  0
   13.7255  -16.7751   25.4900 C   0  0  0  0  0  0  0  0  0  0  0  0
   12.9256  -16.2159   26.6152 C   0  0  0  0  0  0  0  0  0  0  0  0
   11.5004  -16.6367   26.6814 C   0  0  2  0  0  0  0  0  0  0  0  0
   10.7107  -15.6070   25.9826 N   0  0  0  0  0  0  0  0  0  0  0  0
   10.9631  -16.7011   28.0797 C   0  0  0  0  0  0  0  0  0  0  0  0
   10.2933  -15.6376   28.6599 O   0  0  0  0  0  0  0  0  0  0  0  0
   11.0918  -17.7305   28.8070 O   0  0  0  0  0  0  0  0  0  0  0  0
  2  1  1  0
  3  2  2  0
  4  3  1  0
  5 11  1  0
  5  4  2  0
  6  5  1  0
  7  6  1  0
  7  8  1  1
  9  7  1  0
  9 18  1  0
 10  9  2  0
 11 12  2  0
 12  2  1  0
 13 14  1  0
 15 14  1  0
 16 15  1  0
 17 18  1  0
 17 16  1  1
 19 17  1  0
 20 19  2  0
 21 22  1  0
 22 23  2  0
 24 22  1  0
 24 25  1  0
 25 26  1  0
 27 26  1  0
 28 27  1  1
 28 29  1  0
 28 30  1  0
 29 19  1  0
 30 31  1  0
 32 30  2  0
M  END
$$$$
