YMR.pdb
     RDKit          3D

 32 32  0  0  1  0  0  0  0  0999 V2000
    5.3579  -19.8224   16.5515 O   0  0  0  0  0  0  0  0  0  0  0  0
    6.1185  -19.2761   17.5807 C   0  0  0  0  0  0  0  0  0  0  0  0
    7.2941  -18.6413   17.3080 C   0  0  0  0  0  0  0  0  0  0  0  0
    8.0714  -18.0898   18.2979 C   0  0  0  0  0  0  0  0  0  0  0  0
    7.6514  -18.1823   19.5880 C   0  0  0  0  0  0  0  0  0  0  0  0
    8.4608  -17.6002   20.6803 C   0  0  0  0  0  0  0  0  0  0  0  0
    7.7479  -16.3373   21.1176 C   0  0  2  0  0  0  0  0  0  0  0  0
    7.7550  -15.3721   20.0407 N   0  0  0  0  0  0  0  0  0  0  0  0
    8.3392  -15.7369   22.3395 C   0  0  0  0  0  0  0  0  0  0  0  0
    9.5882  -15.8384   22.4867 O   0  0  0  0  0  0  0  0  0  0  0  0
    6.4712  -18.8170   19.8848 C   0  0  0  0  0  0  0  0  0  0  0  0
    5.6771  -19.3775   18.8994 C   0  0  0  0  0  0  0  0  0  0  0  0
    6.2450  -10.8884   26.6748 C   0  0  0  0  0  0  0  0  0  0  0  0
    6.6399  -12.3615   27.6568 S   0  0  0  0  0  0  0  0  0  0  0  0
    7.7762  -13.4459   26.7443 C   0  0  0  0  0  0  0  0  0  0  0  0
    7.2088  -13.8019   25.4008 C   0  0  0  0  0  0  0  0  0  0  0  0
    8.1502  -14.5993   24.5450 C   0  0  2  0  0  0  0  0  0  0  0  0
    7.5486  -15.0696   23.3183 N   0  0  0  0  0  0  0  0  0  0  0  0
    8.5975  -15.7720   25.3269 C   0  0  0  0  0  0  0  0  0  0  0  0
    7.8306  -16.7601   25.4159 O   0  0  0  0  0  0  0  0  0  0  0  0
   13.9076  -20.9315   22.4439 N   0  0  0  0  0  0  0  0  0  0  0  0
   14.0481  -21.2766   23.8054 C   0  0  0  0  0  0  0  0  0  0  0  0
   14.4127  -22.4843   24.0943 N   0  0  0  0  0  0  0  0  0  0  0  0
   13.8061  -20.3592   24.8562 N   0  0  0  0  0  0  0  0  0  0  0  0
   13.3133  -19.0172   24.6374 C   0  0  0  0  0  0  0  0  0  0  0  0
   12.2849  -18.7159   25.7018 C   0  0  0  0  0  0  0  0  0  0  0  0
   11.4598  -17.5142   25.3958 C   0  0  0  0  0  0  0  0  0  0  0  0
   10.4033  -17.1727   26.3857 C   0  0  2  0  0  0  0  0  0  0  0  0
    9.8469  -15.8656   25.9933 N   0  0  0  0  0  0  0  0  0  0  0  0
   10.9265  -17.0049   27.7807 C   0  0  0  0  0  0  0  0  0  0  0  0
   11.3263  -18.0835   28.5508 O   0  0  0  0  0  0  0  0  0  0  0  0
   11.0318  -15.8689   28.3315 O   0  0  0  0  0  0  0  0  0  0  0  0
  2  1  1  0
  3  2  2  0
  4  3  1  0
  5 11  1  0
  5  4  2  0
  6  5  1  0
  7  6  1  0
  7  8  1  6
  9  7  1  0
  9 18  1  0
 10  9  2  0
 11 12  2  0
 12  2  1  0
 13 14  1  0
 15 14  1  0
 16 15  1  0
 17 18  1  0
 17 16  1  1
 19 17  1  0
 20 19  2  0
 21 22  1  0
 22 23  2  0
 24 22  1  0
 24 25  1  0
 25 26  1  0
 27 26  1  0
 28 27  1  6
 28 29  1  0
 28 30  1  0
 29 19  1  0
 30 31  1  0
 32 30  2  0
M  END
$$$$
