YMR.pdb
     RDKit          3D

 32 32  0  0  1  0  0  0  0  0999 V2000
   11.7056  -20.2580   31.3299 O   0  0  0  0  0  0  0  0  0  0  0  0
   10.7192  -19.7580   30.4854 C   0  0  0  0  0  0  0  0  0  0  0  0
   10.8349  -18.5077   29.9536 C   0  0  0  0  0  0  0  0  0  0  0  0
    9.8814  -17.9808   29.1160 C   0  0  0  0  0  0  0  0  0  0  0  0
    8.7904  -18.7330   28.8107 C   0  0  0  0  0  0  0  0  0  0  0  0
    7.7437  -18.2001   27.9122 C   0  0  0  0  0  0  0  0  0  0  0  0
    8.3993  -17.9958   26.5620 C   0  0  2  0  0  0  0  0  0  0  0  0
    9.7203  -17.4342   26.7383 N   0  0  0  0  0  0  0  0  0  0  0  0
    7.5984  -17.1322   25.6587 C   0  0  0  0  0  0  0  0  0  0  0  0
    6.4137  -17.4921   25.4158 O   0  0  0  0  0  0  0  0  0  0  0  0
    8.6541  -19.9941   29.3350 C   0  0  0  0  0  0  0  0  0  0  0  0
    9.6053  -20.5390   30.1800 C   0  0  0  0  0  0  0  0  0  0  0  0
    7.6687  -12.3102   27.6780 C   0  0  0  0  0  0  0  0  0  0  0  0
    6.0728  -12.3756   26.8184 S   0  0  0  0  0  0  0  0  0  0  0  0
    5.9632  -13.8748   25.7984 C   0  0  0  0  0  0  0  0  0  0  0  0
    6.9467  -13.8213   24.6656 C   0  0  0  0  0  0  0  0  0  0  0  0
    7.3346  -15.1749   24.1443 C   0  0  2  0  0  0  0  0  0  0  0  0
    8.1250  -15.9427   25.0790 N   0  0  0  0  0  0  0  0  0  0  0  0
    8.1262  -14.9805   22.9105 C   0  0  0  0  0  0  0  0  0  0  0  0
    8.8009  -13.9303   22.7913 O   0  0  0  0  0  0  0  0  0  0  0  0
   15.8294  -15.2259   22.2183 N   0  0  0  0  0  0  0  0  0  0  0  0
   15.3353  -14.6126   21.0469 C   0  0  0  0  0  0  0  0  0  0  0  0
   16.1832  -14.0433   20.2520 N   0  0  0  0  0  0  0  0  0  0  0  0
   13.9594  -14.5966   20.7136 N   0  0  0  0  0  0  0  0  0  0  0  0
   12.9634  -15.3656   21.4265 C   0  0  0  0  0  0  0  0  0  0  0  0
   11.6309  -15.1499   20.7490 C   0  0  0  0  0  0  0  0  0  0  0  0
   10.5206  -15.9139   21.3833 C   0  0  0  0  0  0  0  0  0  0  0  0
    9.1785  -15.7626   20.7600 C   0  0  2  0  0  0  0  0  0  0  0  0
    8.1815  -15.9057   21.8359 N   0  0  0  0  0  0  0  0  0  0  0  0
    8.8662  -16.8289   19.7533 C   0  0  0  0  0  0  0  0  0  0  0  0
    8.2656  -18.0240   20.1101 O   0  0  0  0  0  0  0  0  0  0  0  0
    9.1339  -16.6960   18.5221 O   0  0  0  0  0  0  0  0  0  0  0  0
  2  1  1  0
  3  2  2  0
  4  3  1  0
  5 11  1  0
  5  4  2  0
  6  5  1  0
  7  6  1  0
  7  8  1  1
  9  7  1  0
  9 18  1  0
 10  9  2  0
 11 12  2  0
 12  2  1  0
 13 14  1  0
 15 14  1  0
 16 15  1  0
 17 18  1  0
 17 16  1  1
 19 17  1  0
 20 19  2  0
 21 22  1  0
 22 23  2  0
 24 22  1  0
 24 25  1  0
 25 26  1  0
 27 26  1  0
 28 27  1  1
 28 29  1  0
 28 30  1  0
 29 19  1  0
 30 31  1  0
 32 30  2  0
M  END
$$$$
