YMR.pdb
     RDKit          3D

 32 32  0  0  1  0  0  0  0  0999 V2000
    8.5817  -12.8873   17.7645 O   0  0  0  0  0  0  0  0  0  0  0  0
    7.9803  -13.9672   18.4037 C   0  0  0  0  0  0  0  0  0  0  0  0
    6.6282  -14.1354   18.3498 C   0  0  0  0  0  0  0  0  0  0  0  0
    5.9996  -15.1892   18.9683 C   0  0  0  0  0  0  0  0  0  0  0  0
    6.7531  -16.0899   19.6541 C   0  0  0  0  0  0  0  0  0  0  0  0
    6.1121  -17.2374   20.3319 C   0  0  0  0  0  0  0  0  0  0  0  0
    5.2927  -16.6623   21.4687 C   0  0  2  0  0  0  0  0  0  0  0  0
    4.2128  -15.8601   20.9380 N   0  0  0  0  0  0  0  0  0  0  0  0
    6.1058  -15.8558   22.4129 C   0  0  0  0  0  0  0  0  0  0  0  0
    6.0592  -14.6009   22.2895 O   0  0  0  0  0  0  0  0  0  0  0  0
    8.1157  -15.9396   19.7210 C   0  0  0  0  0  0  0  0  0  0  0  0
    8.7638  -14.8838   19.1037 C   0  0  0  0  0  0  0  0  0  0  0  0
    8.1758  -11.9474   27.4724 C   0  0  0  0  0  0  0  0  0  0  0  0
    7.3308  -13.5521   27.4410 S   0  0  0  0  0  0  0  0  0  0  0  0
    8.3205  -14.7720   26.5289 C   0  0  0  0  0  0  0  0  0  0  0  0
    7.4399  -15.6534   25.6916 C   0  0  0  0  0  0  0  0  0  0  0  0
    7.7906  -15.6377   24.2317 C   0  0  2  0  0  0  0  0  0  0  0  0
    6.9124  -16.4524   23.4238 N   0  0  0  0  0  0  0  0  0  0  0  0
    9.1701  -16.1503   24.0869 C   0  0  0  0  0  0  0  0  0  0  0  0
    9.3875  -17.3609   24.3309 O   0  0  0  0  0  0  0  0  0  0  0  0
   15.8918  -12.7674   19.0688 N   0  0  0  0  0  0  0  0  0  0  0  0
   16.0658  -14.1472   19.3108 C   0  0  0  0  0  0  0  0  0  0  0  0
   17.0292  -14.7572   18.6987 N   0  0  0  0  0  0  0  0  0  0  0  0
   15.2325  -14.8812   20.1890 N   0  0  0  0  0  0  0  0  0  0  0  0
   14.0661  -14.3158   20.8305 C   0  0  0  0  0  0  0  0  0  0  0  0
   13.5827  -15.2962   21.8729 C   0  0  0  0  0  0  0  0  0  0  0  0
   12.2970  -14.8911   22.5065 C   0  0  0  0  0  0  0  0  0  0  0  0
   11.4755  -15.9876   23.0859 C   0  0  2  0  0  0  0  0  0  0  0  0
   10.2823  -15.3651   23.6866 N   0  0  0  0  0  0  0  0  0  0  0  0
   12.1656  -16.7274   24.1925 C   0  0  0  0  0  0  0  0  0  0  0  0
   12.0627  -16.3344   25.5158 O   0  0  0  0  0  0  0  0  0  0  0  0
   12.8801  -17.7515   23.9786 O   0  0  0  0  0  0  0  0  0  0  0  0
  2  1  1  0
  3  2  2  0
  4  3  1  0
  5 11  1  0
  5  4  2  0
  6  5  1  0
  7  6  1  0
  7  8  1  6
  9  7  1  0
  9 18  1  0
 10  9  2  0
 11 12  2  0
 12  2  1  0
 13 14  1  0
 15 14  1  0
 16 15  1  0
 17 18  1  0
 17 16  1  1
 19 17  1  0
 20 19  2  0
 21 22  1  0
 22 23  2  0
 24 22  1  0
 24 25  1  0
 25 26  1  0
 27 26  1  0
 28 27  1  1
 28 29  1  0
 28 30  1  0
 29 19  1  0
 30 31  1  0
 32 30  2  0
M  END
$$$$
