YMR.pdb
     RDKit          3D

 32 32  0  0  1  0  0  0  0  0999 V2000
    8.8578  -12.3045   18.0371 O   0  0  0  0  0  0  0  0  0  0  0  0
    8.3488  -13.4100   18.7118 C   0  0  0  0  0  0  0  0  0  0  0  0
    8.5958  -14.6709   18.2551 C   0  0  0  0  0  0  0  0  0  0  0  0
    8.1102  -15.7859   18.8949 C   0  0  0  0  0  0  0  0  0  0  0  0
    7.3607  -15.6222   20.0177 C   0  0  0  0  0  0  0  0  0  0  0  0
    6.8216  -16.7985   20.7337 C   0  0  0  0  0  0  0  0  0  0  0  0
    5.9248  -16.2608   21.8297 C   0  0  2  0  0  0  0  0  0  0  0  0
    5.0419  -15.2508   21.2896 N   0  0  0  0  0  0  0  0  0  0  0  0
    6.6872  -15.7063   22.9761 C   0  0  0  0  0  0  0  0  0  0  0  0
    7.1021  -14.5191   22.8739 O   0  0  0  0  0  0  0  0  0  0  0  0
    7.1001  -14.3619   20.4946 C   0  0  0  0  0  0  0  0  0  0  0  0
    7.5818  -13.2290   19.8619 C   0  0  0  0  0  0  0  0  0  0  0  0
    6.7527  -11.1302   26.3745 C   0  0  0  0  0  0  0  0  0  0  0  0
    7.6352  -12.5061   27.1607 S   0  0  0  0  0  0  0  0  0  0  0  0
    8.2144  -13.6865   25.9072 C   0  0  0  0  0  0  0  0  0  0  0  0
    7.5131  -15.0057   26.0537 C   0  0  0  0  0  0  0  0  0  0  0  0
    7.9803  -16.0446   25.0755 C   0  0  2  0  0  0  0  0  0  0  0  0
    6.9512  -16.4647   24.1523 N   0  0  0  0  0  0  0  0  0  0  0  0
    8.4317  -17.2254   25.8428 C   0  0  0  0  0  0  0  0  0  0  0  0
    7.6148  -18.1544   26.0474 O   0  0  0  0  0  0  0  0  0  0  0  0
   12.0212  -18.0432   19.0785 N   0  0  0  0  0  0  0  0  0  0  0  0
   12.8568  -18.8041   19.9243 C   0  0  0  0  0  0  0  0  0  0  0  0
   13.7298  -19.5866   19.3762 N   0  0  0  0  0  0  0  0  0  0  0  0
   12.7748  -18.7439   21.3364 N   0  0  0  0  0  0  0  0  0  0  0  0
   11.8033  -17.9352   22.0390 C   0  0  0  0  0  0  0  0  0  0  0  0
   12.1115  -18.0091   23.5157 C   0  0  0  0  0  0  0  0  0  0  0  0
   11.0268  -17.4494   24.3694 C   0  0  0  0  0  0  0  0  0  0  0  0
   10.7608  -18.1638   25.6468 C   0  0  2  0  0  0  0  0  0  0  0  0
    9.7380  -17.3895   26.3724 N   0  0  0  0  0  0  0  0  0  0  0  0
   11.9553  -18.2324   26.5504 C   0  0  0  0  0  0  0  0  0  0  0  0
   12.7613  -17.1325   26.7886 O   0  0  0  0  0  0  0  0  0  0  0  0
   12.2930  -19.2989   27.1452 O   0  0  0  0  0  0  0  0  0  0  0  0
  2  1  1  0
  3  2  2  0
  4  3  1  0
  5 11  1  0
  5  4  2  0
  6  5  1  0
  7  6  1  0
  7  8  1  6
  9  7  1  0
  9 18  1  0
 10  9  2  0
 11 12  2  0
 12  2  1  0
 13 14  1  0
 15 14  1  0
 16 15  1  0
 17 18  1  0
 17 16  1  1
 19 17  1  0
 20 19  2  0
 21 22  1  0
 22 23  2  0
 24 22  1  0
 24 25  1  0
 25 26  1  0
 27 26  1  0
 28 27  1  6
 28 29  1  0
 28 30  1  0
 29 19  1  0
 30 31  1  0
 32 30  2  0
M  END
$$$$
