YMR.pdb
     RDKit          3D

 32 32  0  0  1  0  0  0  0  0999 V2000
    5.5088  -20.7010   16.2401 O   0  0  0  0  0  0  0  0  0  0  0  0
    6.2207  -20.0557   17.2466 C   0  0  0  0  0  0  0  0  0  0  0  0
    7.4092  -19.4471   16.9698 C   0  0  0  0  0  0  0  0  0  0  0  0
    8.1396  -18.8003   17.9375 C   0  0  0  0  0  0  0  0  0  0  0  0
    7.6586  -18.7686   19.2091 C   0  0  0  0  0  0  0  0  0  0  0  0
    8.4163  -18.0815   20.2771 C   0  0  0  0  0  0  0  0  0  0  0  0
    7.7515  -16.7353   20.4778 C   0  0  2  0  0  0  0  0  0  0  0  0
    7.9799  -15.8982   19.3209 N   0  0  0  0  0  0  0  0  0  0  0  0
    8.2168  -16.0414   21.7046 C   0  0  0  0  0  0  0  0  0  0  0  0
    9.4383  -15.7308   21.7647 O   0  0  0  0  0  0  0  0  0  0  0  0
    6.4644  -19.3748   19.5095 C   0  0  0  0  0  0  0  0  0  0  0  0
    5.7169  -20.0302   18.5464 C   0  0  0  0  0  0  0  0  0  0  0  0
    7.9015  -11.4791   27.5797 C   0  0  0  0  0  0  0  0  0  0  0  0
    7.3453  -12.2273   26.0238 S   0  0  0  0  0  0  0  0  0  0  0  0
    7.2681  -14.0354   26.1819 C   0  0  0  0  0  0  0  0  0  0  0  0
    6.7497  -14.6587   24.9185 C   0  0  0  0  0  0  0  0  0  0  0  0
    7.8314  -15.0278   23.9447 C   0  0  2  0  0  0  0  0  0  0  0  0
    7.3387  -15.7294   22.7817 N   0  0  0  0  0  0  0  0  0  0  0  0
    8.7981  -15.9014   24.6441 C   0  0  0  0  0  0  0  0  0  0  0  0
    8.4263  -17.0470   24.9929 O   0  0  0  0  0  0  0  0  0  0  0  0
   17.5060  -15.7072   25.0667 N   0  0  0  0  0  0  0  0  0  0  0  0
   17.1974  -17.0777   24.9290 C   0  0  0  0  0  0  0  0  0  0  0  0
   18.1507  -17.9374   25.0941 N   0  0  0  0  0  0  0  0  0  0  0  0
   15.8963  -17.5418   24.6190 N   0  0  0  0  0  0  0  0  0  0  0  0
   14.8212  -16.6665   24.2069 C   0  0  0  0  0  0  0  0  0  0  0  0
   13.6059  -16.9907   25.0431 C   0  0  0  0  0  0  0  0  0  0  0  0
   12.4226  -16.1508   24.7071 C   0  0  0  0  0  0  0  0  0  0  0  0
   11.1325  -16.5540   25.3284 C   0  0  2  0  0  0  0  0  0  0  0  0
   10.1339  -15.5366   24.9545 N   0  0  0  0  0  0  0  0  0  0  0  0
   11.1735  -16.5716   26.8271 C   0  0  0  0  0  0  0  0  0  0  0  0
   11.7316  -17.6220   27.5352 O   0  0  0  0  0  0  0  0  0  0  0  0
   10.7005  -15.6280   27.5277 O   0  0  0  0  0  0  0  0  0  0  0  0
  2  1  1  0
  3  2  2  0
  4  3  1  0
  5 11  1  0
  5  4  2  0
  6  5  1  0
  7  6  1  0
  7  8  1  6
  9  7  1  0
  9 18  1  0
 10  9  2  0
 11 12  2  0
 12  2  1  0
 13 14  1  0
 15 14  1  0
 16 15  1  0
 17 18  1  0
 17 16  1  1
 19 17  1  0
 20 19  2  0
 21 22  1  0
 22 23  2  0
 24 22  1  0
 24 25  1  0
 25 26  1  0
 27 26  1  0
 28 27  1  6
 28 29  1  0
 28 30  1  0
 29 19  1  0
 30 31  1  0
 32 30  2  0
M  END
$$$$
