YMR.pdb
     RDKit          3D

 32 32  0  0  1  0  0  0  0  0999 V2000
    6.7592  -24.0480   30.2242 O   0  0  0  0  0  0  0  0  0  0  0  0
    7.0648  -23.0857   29.2667 C   0  0  0  0  0  0  0  0  0  0  0  0
    6.6781  -21.7899   29.4426 C   0  0  0  0  0  0  0  0  0  0  0  0
    6.9620  -20.8128   28.5192 C   0  0  0  0  0  0  0  0  0  0  0  0
    7.6502  -21.1528   27.3967 C   0  0  0  0  0  0  0  0  0  0  0  0
    7.9747  -20.1284   26.3808 C   0  0  0  0  0  0  0  0  0  0  0  0
    6.6682  -19.7606   25.7084 C   0  0  2  0  0  0  0  0  0  0  0  0
    6.1671  -20.8913   24.9588 N   0  0  0  0  0  0  0  0  0  0  0  0
    6.7918  -18.5785   24.8194 C   0  0  0  0  0  0  0  0  0  0  0  0
    6.8686  -18.7942   23.5785 O   0  0  0  0  0  0  0  0  0  0  0  0
    8.0490  -22.4512   27.1996 C   0  0  0  0  0  0  0  0  0  0  0  0
    7.7709  -23.4469   28.1200 C   0  0  0  0  0  0  0  0  0  0  0  0
    6.7661  -11.7033   26.7307 C   0  0  0  0  0  0  0  0  0  0  0  0
    8.0034  -13.0293   26.7003 S   0  0  0  0  0  0  0  0  0  0  0  0
    7.2004  -14.6402   26.4553 C   0  0  0  0  0  0  0  0  0  0  0  0
    6.7594  -14.8040   25.0298 C   0  0  0  0  0  0  0  0  0  0  0  0
    7.1142  -16.1396   24.4425 C   0  0  2  0  0  0  0  0  0  0  0  0
    6.8245  -17.2471   25.3241 N   0  0  0  0  0  0  0  0  0  0  0  0
    8.5638  -16.1403   24.1501 C   0  0  0  0  0  0  0  0  0  0  0  0
    9.3326  -16.7438   24.9356 O   0  0  0  0  0  0  0  0  0  0  0  0
   10.8884  -16.4010   15.8639 N   0  0  0  0  0  0  0  0  0  0  0  0
   10.2685  -17.1025   16.9204 C   0  0  0  0  0  0  0  0  0  0  0  0
    9.4524  -18.0610   16.6203 N   0  0  0  0  0  0  0  0  0  0  0  0
   10.5039  -16.7983   18.2829 N   0  0  0  0  0  0  0  0  0  0  0  0
   11.3800  -15.7321   18.7158 C   0  0  0  0  0  0  0  0  0  0  0  0
   11.6123  -15.8893   20.1999 C   0  0  0  0  0  0  0  0  0  0  0  0
   10.4400  -15.4807   21.0228 C   0  0  0  0  0  0  0  0  0  0  0  0
   10.3661  -16.0556   22.3928 C   0  0  2  0  0  0  0  0  0  0  0  0
    9.1593  -15.5012   23.0318 N   0  0  0  0  0  0  0  0  0  0  0  0
   11.5209  -15.6645   23.2655 C   0  0  0  0  0  0  0  0  0  0  0  0
   12.8093  -16.1087   23.0230 O   0  0  0  0  0  0  0  0  0  0  0  0
   11.3822  -14.9071   24.2716 O   0  0  0  0  0  0  0  0  0  0  0  0
  2  1  1  0
  3  2  2  0
  4  3  1  0
  5 11  1  0
  5  4  2  0
  6  5  1  0
  7  6  1  0
  7  8  1  6
  9  7  1  0
  9 18  1  0
 10  9  2  0
 11 12  2  0
 12  2  1  0
 13 14  1  0
 15 14  1  0
 16 15  1  0
 17 18  1  0
 17 16  1  1
 19 17  1  0
 20 19  2  0
 21 22  1  0
 22 23  2  0
 24 22  1  0
 24 25  1  0
 25 26  1  0
 27 26  1  0
 28 27  1  6
 28 29  1  0
 28 30  1  0
 29 19  1  0
 30 31  1  0
 32 30  2  0
M  END
$$$$
