EIA.pdb
     RDKit          3D

 23 22  0  0  1  0  0  0  0  0999 V2000
   18.2743  -11.9033  -17.6484 N   0  0  0  0  0  0  0  0  0  0  0  0
   18.8994  -10.6055  -18.0085 C   0  0  1  0  0  0  0  0  0  0  0  0
   17.7374   -9.7189  -18.3586 C   0  0  0  0  0  0  0  0  0  0  0  0
   17.1483  -10.0959  -19.6654 C   0  0  0  0  0  0  0  0  0  0  0  0
   15.8617  -10.7969  -19.4655 C   0  0  0  0  0  0  0  0  0  0  0  0
   14.7496  -10.2686  -19.2708 O   0  0  0  0  0  0  0  0  0  0  0  0
   19.5371  -10.0613  -16.7576 C   0  0  0  0  0  0  0  0  0  0  0  0
   19.0398  -10.1956  -15.6135 O   0  0  0  0  0  0  0  0  0  0  0  0
   15.8999  -12.2035  -19.4991 O   0  0  0  0  0  0  0  0  0  0  0  0
   23.9887  -11.5535  -15.1409 C   0  0  0  0  0  0  0  0  0  0  0  0
   22.6473  -10.9137  -15.2715 C   0  0  0  0  0  0  0  0  0  0  0  0
   22.7183   -9.4203  -15.4217 C   0  0  2  0  0  0  0  0  0  0  0  0
   23.4289   -8.7873  -14.2747 C   0  0  0  0  0  0  0  0  0  0  0  0
   21.3639   -8.7802  -15.5906 C   0  0  2  0  0  0  0  0  0  0  0  0
   20.7800   -9.3396  -16.7942 N   0  0  0  0  0  0  0  0  0  0  0  0
   21.4143   -7.3285  -15.7238 C   0  0  0  0  0  0  0  0  0  0  0  0
   22.1131   -6.7283  -16.5856 O   0  0  0  0  0  0  0  0  0  0  0  0
   19.3584   -4.5105  -14.2988 C   0  0  0  0  0  0  0  0  0  0  0  0
   20.6278   -5.0796  -14.8984 C   0  0  2  0  0  0  0  0  0  0  0  0
   20.6457   -6.5199  -14.8502 N   0  0  0  0  0  0  0  0  0  0  0  0
   21.7787   -4.5178  -14.1410 C   0  0  0  0  0  0  0  0  0  0  0  0
   22.4711   -5.2756  -13.2246 O   0  0  0  0  0  0  0  0  0  0  0  0
   22.1482   -3.3230  -14.3243 O   0  0  0  0  0  0  0  0  0  0  0  0
  2  1  1  1
  2  7  1  0
  2  3  1  0
  3  4  1  0
  4  5  1  0
  5  9  1  0
  5  6  2  0
  7  8  2  0
 11 12  1  0
 11 10  1  0
 12 13  1  1
 14 12  1  0
 15  7  1  0
 14 15  1  6
 16 14  1  0
 17 16  2  0
 19 18  1  1
 19 20  1  0
 20 16  1  0
 21 22  1  0
 21 19  1  0
 23 21  2  0
M  END
$$$$
