EIA.pdb
     RDKit          3D

 23 22  0  0  1  0  0  0  0  0999 V2000
   21.8902  -16.2567  -16.0317 N   0  0  0  0  0  0  0  0  0  0  0  0
   21.5277  -14.9812  -16.6997 C   0  0  1  0  0  0  0  0  0  0  0  0
   20.0295  -14.9214  -16.5966 C   0  0  0  0  0  0  0  0  0  0  0  0
   19.3880  -15.2508  -17.8914 C   0  0  0  0  0  0  0  0  0  0  0  0
   17.9345  -14.9872  -17.8262 C   0  0  0  0  0  0  0  0  0  0  0  0
   17.2955  -14.5862  -16.8338 O   0  0  0  0  0  0  0  0  0  0  0  0
   22.0949  -13.8672  -15.8601 C   0  0  0  0  0  0  0  0  0  0  0  0
   21.9329  -13.7860  -14.6186 O   0  0  0  0  0  0  0  0  0  0  0  0
   17.2007  -15.2128  -19.0058 O   0  0  0  0  0  0  0  0  0  0  0  0
   26.9763  -10.6096  -14.9895 C   0  0  0  0  0  0  0  0  0  0  0  0
   25.4867  -10.6074  -14.9057 C   0  0  0  0  0  0  0  0  0  0  0  0
   24.8508  -11.7274  -15.6797 C   0  0  2  0  0  0  0  0  0  0  0  0
   25.3079  -11.7420  -17.0982 C   0  0  0  0  0  0  0  0  0  0  0  0
   23.3444  -11.6925  -15.6361 C   0  0  2  0  0  0  0  0  0  0  0  0
   22.8733  -12.8053  -16.4376 N   0  0  0  0  0  0  0  0  0  0  0  0
   22.7713  -10.4587  -16.1625 C   0  0  0  0  0  0  0  0  0  0  0  0
   22.9574  -10.0467  -17.3400 O   0  0  0  0  0  0  0  0  0  0  0  0
   20.1601   -8.0476  -14.8912 C   0  0  0  0  0  0  0  0  0  0  0  0
   21.3554   -8.4142  -15.7464 C   0  0  2  0  0  0  0  0  0  0  0  0
   21.9548   -9.6561  -15.3275 N   0  0  0  0  0  0  0  0  0  0  0  0
   22.3392   -7.3020  -15.6516 C   0  0  0  0  0  0  0  0  0  0  0  0
   23.5911   -7.4973  -15.1152 O   0  0  0  0  0  0  0  0  0  0  0  0
   22.0439   -6.1445  -16.0650 O   0  0  0  0  0  0  0  0  0  0  0  0
  2  1  1  1
  2  7  1  0
  2  3  1  0
  3  4  1  0
  4  5  1  0
  5  9  1  0
  5  6  2  0
  7  8  2  0
 11 12  1  0
 11 10  1  0
 12 13  1  6
 14 12  1  0
 15  7  1  0
 14 15  1  6
 16 14  1  0
 17 16  2  0
 19 18  1  1
 19 20  1  0
 20 16  1  0
 21 22  1  0
 21 19  1  0
 23 21  2  0
M  END
$$$$
