EIA.pdb
     RDKit          3D

 23 22  0  0  1  0  0  0  0  0999 V2000
   16.1870  -19.8757    1.8186 N   0  0  0  0  0  0  0  0  0  0  0  0
   15.6981  -19.1396    3.0119 C   0  0  1  0  0  0  0  0  0  0  0  0
   15.2740  -20.2205    3.9662 C   0  0  0  0  0  0  0  0  0  0  0  0
   13.9679  -20.8013    3.5743 C   0  0  0  0  0  0  0  0  0  0  0  0
   13.5915  -21.8904    4.5010 C   0  0  0  0  0  0  0  0  0  0  0  0
   13.2065  -21.7636    5.6799 O   0  0  0  0  0  0  0  0  0  0  0  0
   16.8853  -18.4325    3.6105 C   0  0  0  0  0  0  0  0  0  0  0  0
   18.0681  -18.8264    3.4689 O   0  0  0  0  0  0  0  0  0  0  0  0
   13.6774  -23.2021    3.9981 O   0  0  0  0  0  0  0  0  0  0  0  0
   17.5074  -13.3854    2.7311 C   0  0  0  0  0  0  0  0  0  0  0  0
   17.7315  -14.8178    3.0829 C   0  0  0  0  0  0  0  0  0  0  0  0
   17.7022  -15.0731    4.5633 C   0  0  2  0  0  0  0  0  0  0  0  0
   18.7181  -14.2521    5.2812 C   0  0  0  0  0  0  0  0  0  0  0  0
   17.8902  -16.5271    4.9142 C   0  0  2  0  0  0  0  0  0  0  0  0
   16.7372  -17.2383    4.3972 N   0  0  0  0  0  0  0  0  0  0  0  0
   17.9913  -16.7756    6.3480 C   0  0  0  0  0  0  0  0  0  0  0  0
   17.0473  -16.5787    7.1611 O   0  0  0  0  0  0  0  0  0  0  0  0
   20.6871  -18.3584    8.5042 C   0  0  0  0  0  0  0  0  0  0  0  0
   19.3801  -17.6288    8.2718 C   0  0  2  0  0  0  0  0  0  0  0  0
   19.2061  -17.2663    6.8878 N   0  0  0  0  0  0  0  0  0  0  0  0
   19.3786  -16.4155    9.1331 C   0  0  0  0  0  0  0  0  0  0  0  0
   19.0473  -16.4847   10.4668 O   0  0  0  0  0  0  0  0  0  0  0  0
   19.6841  -15.2861    8.6545 O   0  0  0  0  0  0  0  0  0  0  0  0
  2  1  1  6
  2  7  1  0
  2  3  1  0
  3  4  1  0
  4  5  1  0
  5  9  1  0
  5  6  2  0
  7  8  2  0
 11 12  1  0
 11 10  1  0
 12 13  1  1
 14 12  1  0
 15  7  1  0
 14 15  1  1
 16 14  1  0
 17 16  2  0
 19 18  1  6
 19 20  1  0
 20 16  1  0
 21 22  1  0
 21 19  1  0
 23 21  2  0
M  END
$$$$
