EIA.pdb
     RDKit          3D

 23 22  0  0  1  0  0  0  0  0999 V2000
   20.2066  -20.3541  -12.0304 N   0  0  0  0  0  0  0  0  0  0  0  0
   21.1204  -21.1139  -12.9206 C   0  0  1  0  0  0  0  0  0  0  0  0
   20.4637  -21.0463  -14.2708 C   0  0  0  0  0  0  0  0  0  0  0  0
   19.5137  -22.1675  -14.4632 C   0  0  0  0  0  0  0  0  0  0  0  0
   20.2459  -23.4468  -14.5795 C   0  0  0  0  0  0  0  0  0  0  0  0
   21.4816  -23.6034  -14.5293 O   0  0  0  0  0  0  0  0  0  0  0  0
   22.4099  -20.3396  -12.9930 C   0  0  0  0  0  0  0  0  0  0  0  0
   22.4715  -19.0896  -12.9035 O   0  0  0  0  0  0  0  0  0  0  0  0
   19.4658  -24.6034  -14.7655 O   0  0  0  0  0  0  0  0  0  0  0  0
   26.2572  -21.0385   -9.7714 C   0  0  0  0  0  0  0  0  0  0  0  0
   25.4195  -20.3982  -10.8269 C   0  0  0  0  0  0  0  0  0  0  0  0
   25.8425  -20.7682  -12.2205 C   0  0  2  0  0  0  0  0  0  0  0  0
   27.2326  -20.3153  -12.5097 C   0  0  0  0  0  0  0  0  0  0  0  0
   24.9095  -20.2384  -13.2794 C   0  0  2  0  0  0  0  0  0  0  0  0
   23.6770  -20.9947  -13.1725 N   0  0  0  0  0  0  0  0  0  0  0  0
   25.4268  -20.3727  -14.6367 C   0  0  0  0  0  0  0  0  0  0  0  0
   25.6991  -21.4801  -15.1758 O   0  0  0  0  0  0  0  0  0  0  0  0
   26.4129  -17.8385  -17.2962 C   0  0  0  0  0  0  0  0  0  0  0  0
   26.1832  -19.2348  -16.7558 C   0  0  2  0  0  0  0  0  0  0  0  0
   25.6461  -19.2115  -15.4186 N   0  0  0  0  0  0  0  0  0  0  0  0
   27.4869  -19.9514  -16.7819 C   0  0  0  0  0  0  0  0  0  0  0  0
   28.4028  -19.8089  -15.7650 O   0  0  0  0  0  0  0  0  0  0  0  0
   27.7837  -20.7126  -17.7465 O   0  0  0  0  0  0  0  0  0  0  0  0
  2  1  1  1
  2  7  1  0
  2  3  1  0
  3  4  1  0
  4  5  1  0
  5  9  1  0
  5  6  2  0
  7  8  2  0
 11 12  1  0
 11 10  1  0
 12 13  1  6
 14 12  1  0
 15  7  1  0
 14 15  1  6
 16 14  1  0
 17 16  2  0
 19 18  1  1
 19 20  1  0
 20 16  1  0
 21 22  1  0
 21 19  1  0
 23 21  2  0
M  END
$$$$
