EIA.pdb
     RDKit          3D

 23 22  0  0  1  0  0  0  0  0999 V2000
   17.0876  -10.8186  -16.9800 N   0  0  0  0  0  0  0  0  0  0  0  0
   18.2050   -9.9548  -17.4379 C   0  0  1  0  0  0  0  0  0  0  0  0
   17.5260   -8.8040  -18.1261 C   0  0  0  0  0  0  0  0  0  0  0  0
   16.9712   -9.2139  -19.4380 C   0  0  0  0  0  0  0  0  0  0  0  0
   16.3706   -8.0517  -20.1273 C   0  0  0  0  0  0  0  0  0  0  0  0
   16.3791   -6.8686  -19.7346 O   0  0  0  0  0  0  0  0  0  0  0  0
   18.8841   -9.4216  -16.2041 C   0  0  0  0  0  0  0  0  0  0  0  0
   18.3068   -9.2954  -15.0973 O   0  0  0  0  0  0  0  0  0  0  0  0
   15.7247   -8.3107  -21.3506 O   0  0  0  0  0  0  0  0  0  0  0  0
   23.0892  -11.3734  -14.1485 C   0  0  0  0  0  0  0  0  0  0  0  0
   21.8475  -10.5856  -14.4007 C   0  0  0  0  0  0  0  0  0  0  0  0
   22.1202   -9.1470  -14.7381 C   0  0  2  0  0  0  0  0  0  0  0  0
   22.8607   -8.4581  -13.6434 C   0  0  0  0  0  0  0  0  0  0  0  0
   20.8696   -8.3716  -15.0659 C   0  0  2  0  0  0  0  0  0  0  0  0
   20.2631   -9.0154  -16.2149 N   0  0  0  0  0  0  0  0  0  0  0  0
   21.1164   -6.9706  -15.3884 C   0  0  0  0  0  0  0  0  0  0  0  0
   21.8816   -6.5898  -16.3160 O   0  0  0  0  0  0  0  0  0  0  0  0
   19.5021   -3.7332  -14.3058 C   0  0  0  0  0  0  0  0  0  0  0  0
   20.6441   -4.5468  -14.8789 C   0  0  2  0  0  0  0  0  0  0  0  0
   20.4744   -5.9569  -14.6345 N   0  0  0  0  0  0  0  0  0  0  0  0
   21.9051   -4.0579  -14.2589 C   0  0  0  0  0  0  0  0  0  0  0  0
   22.6286   -3.0316  -14.8215 O   0  0  0  0  0  0  0  0  0  0  0  0
   22.3427   -4.5788  -13.1936 O   0  0  0  0  0  0  0  0  0  0  0  0
  2  1  1  1
  2  7  1  0
  2  3  1  0
  3  4  1  0
  4  5  1  0
  5  9  1  0
  5  6  2  0
  7  8  2  0
 11 12  1  0
 11 10  1  0
 12 13  1  1
 14 12  1  0
 15  7  1  0
 14 15  1  6
 16 14  1  0
 17 16  2  0
 19 18  1  1
 19 20  1  0
 20 16  1  0
 21 22  1  0
 21 19  1  0
 23 21  2  0
M  END
$$$$
