EIA.pdb
     RDKit          3D

 23 22  0  0  1  0  0  0  0  0999 V2000
   44.4798  -11.2883   -6.8038 N   0  0  0  0  0  0  0  0  0  0  0  0
   43.2812  -10.6220   -6.2346 C   0  0  1  0  0  0  0  0  0  0  0  0
   43.7900   -9.2924   -5.7526 C   0  0  0  0  0  0  0  0  0  0  0  0
   44.4543   -9.4173   -4.4335 C   0  0  0  0  0  0  0  0  0  0  0  0
   43.4448   -9.5235   -3.3582 C   0  0  0  0  0  0  0  0  0  0  0  0
   42.4467   -8.7934   -3.2008 O   0  0  0  0  0  0  0  0  0  0  0  0
   42.3335  -10.3689   -7.3772 C   0  0  0  0  0  0  0  0  0  0  0  0
   42.7118  -10.1383   -8.5510 O   0  0  0  0  0  0  0  0  0  0  0  0
   43.6325  -10.5545   -2.4188 O   0  0  0  0  0  0  0  0  0  0  0  0
   37.4452  -11.9273   -9.9909 C   0  0  0  0  0  0  0  0  0  0  0  0
   37.7542  -10.7134   -9.1804 C   0  0  0  0  0  0  0  0  0  0  0  0
   38.8029  -10.9555   -8.1320 C   0  0  2  0  0  0  0  0  0  0  0  0
   38.2456  -10.8159   -6.7568 C   0  0  0  0  0  0  0  0  0  0  0  0
   40.0044  -10.0575   -8.2822 C   0  0  2  0  0  0  0  0  0  0  0  0
   40.9076  -10.3756   -7.1933 N   0  0  0  0  0  0  0  0  0  0  0  0
   39.6840   -8.6356   -8.2266 C   0  0  0  0  0  0  0  0  0  0  0  0
   39.3161   -8.0412   -7.1767 O   0  0  0  0  0  0  0  0  0  0  0  0
   40.5997   -5.6405  -10.0684 C   0  0  0  0  0  0  0  0  0  0  0  0
   39.4713   -6.4448   -9.4567 C   0  0  2  0  0  0  0  0  0  0  0  0
   39.7821   -7.8511   -9.4026 N   0  0  0  0  0  0  0  0  0  0  0  0
   38.2517   -6.2112  -10.2763 C   0  0  0  0  0  0  0  0  0  0  0  0
   37.5205   -5.0517  -10.1576 O   0  0  0  0  0  0  0  0  0  0  0  0
   37.8576   -7.0797  -11.1059 O   0  0  0  0  0  0  0  0  0  0  0  0
  2  1  1  6
  2  7  1  0
  2  3  1  0
  3  4  1  0
  4  5  1  0
  5  9  1  0
  5  6  2  0
  7  8  2  0
 11 12  1  0
 11 10  1  0
 12 13  1  1
 14 12  1  0
 15  7  1  0
 14 15  1  1
 16 14  1  0
 17 16  2  0
 19 18  1  6
 19 20  1  0
 20 16  1  0
 21 22  1  0
 21 19  1  0
 23 21  2  0
M  END
$$$$
