GWQ.pdb
     RDKit          3D

 28 29  0  0  1  0  0  0  0  0999 V2000
   11.6491  -16.1074   18.7354 N   0  0  0  0  0  0  0  0  0  0  0  0
   10.9174  -17.0268   19.5817 C   0  0  0  0  0  0  0  0  0  0  0  0
   10.4437  -16.2514   20.7655 C   0  0  0  0  0  0  0  0  0  0  0  0
   11.0851  -15.2488   21.1716 O   0  0  0  0  0  0  0  0  0  0  0  0
    9.2716  -16.5982   21.4774 N   0  0  0  0  0  0  0  0  0  0  0  0
    8.8910  -15.8404   22.6301 C   0  0  1  0  0  0  0  0  0  0  0  0
    7.4187  -15.8959   22.9274 C   0  0  0  0  0  0  0  0  0  0  0  0
    7.0808  -15.3347   24.2537 C   0  0  0  0  0  0  0  0  0  0  0  0
    6.6542  -15.9310   25.3984 C   0  0  0  0  0  0  0  0  0  0  0  0
    6.4729  -15.0106   26.3597 N   0  0  0  0  0  0  0  0  0  0  0  0
    6.7803  -13.8160   25.8449 C   0  0  0  0  0  0  0  0  0  0  0  0
    6.7640  -12.5664   26.4023 C   0  0  0  0  0  0  0  0  0  0  0  0
    7.1328  -11.4844   25.6407 C   0  0  0  0  0  0  0  0  0  0  0  0
    7.5170  -11.6221   24.3364 C   0  0  0  0  0  0  0  0  0  0  0  0
    7.5323  -12.8807   23.7789 C   0  0  0  0  0  0  0  0  0  0  0  0
    7.1653  -13.9801   24.5278 C   0  0  0  0  0  0  0  0  0  0  0  0
    9.6026  -16.4192   23.8150 C   0  0  0  0  0  0  0  0  0  0  0  0
   10.1494  -17.5460   23.7347 O   0  0  0  0  0  0  0  0  0  0  0  0
   11.0051  -16.8859   30.2827 N   0  0  0  0  0  0  0  0  0  0  0  0
   11.0384  -15.6911   29.5517 C   0  0  0  0  0  0  0  0  0  0  0  0
   10.5020  -14.6486   29.9896 O   0  0  0  0  0  0  0  0  0  0  0  0
   11.7115  -15.5831   28.2110 C   0  0  0  0  0  0  0  0  0  0  0  0
   10.7675  -15.1629   27.1490 C   0  0  0  0  0  0  0  0  0  0  0  0
   10.6888  -16.1335   26.0207 C   0  0  2  0  0  0  0  0  0  0  0  0
    9.6813  -15.7268   25.0460 N   0  0  0  0  0  0  0  0  0  0  0  0
   10.4709  -17.5335   26.4369 C   0  0  0  0  0  0  0  0  0  0  0  0
    9.1866  -18.0024   26.6557 O   0  0  0  0  0  0  0  0  0  0  0  0
   11.4215  -18.3151   26.5987 O   0  0  0  0  0  0  0  0  0  0  0  0
  2  1  1  0
  3  2  1  0
  4  3  2  0
  5  3  1  0
  6  5  1  0
  7  8  1  0
  6  7  1  1
  8 16  1  0
  9 10  1  0
  9  8  2  0
 10 11  1  0
 11 16  2  0
 11 12  1  0
 12 13  2  0
 13 14  1  0
 15 14  2  0
 16 15  1  0
 17  6  1  0
 17 18  2  0
 20 22  1  0
 20 19  1  0
 21 20  2  0
 24 23  1  1
 23 22  1  0
 24 25  1  0
 25 17  1  0
 26 24  1  0
 27 26  1  0
 28 26  2  0
M  END
$$$$
