GWQ.pdb
     RDKit          3D

 28 29  0  0  1  0  0  0  0  0999 V2000
    6.0536  -18.3705   20.7107 N   0  0  0  0  0  0  0  0  0  0  0  0
    6.6469  -18.7377   21.9795 C   0  0  0  0  0  0  0  0  0  0  0  0
    7.5490  -17.6192   22.3822 C   0  0  0  0  0  0  0  0  0  0  0  0
    7.9654  -16.7946   21.5289 O   0  0  0  0  0  0  0  0  0  0  0  0
    7.9733  -17.4332   23.7188 N   0  0  0  0  0  0  0  0  0  0  0  0
    8.8581  -16.3550   24.0390 C   0  0  1  0  0  0  0  0  0  0  0  0
    8.7795  -15.9186   25.4751 C   0  0  0  0  0  0  0  0  0  0  0  0
    7.5289  -15.1917   25.7851 C   0  0  0  0  0  0  0  0  0  0  0  0
    6.2639  -15.6365   26.0078 C   0  0  0  0  0  0  0  0  0  0  0  0
    5.4455  -14.6002   26.2532 N   0  0  0  0  0  0  0  0  0  0  0  0
    6.1736  -13.4810   26.1911 C   0  0  0  0  0  0  0  0  0  0  0  0
    5.8218  -12.1697   26.3623 C   0  0  0  0  0  0  0  0  0  0  0  0
    6.7810  -11.1938   26.2418 C   0  0  0  0  0  0  0  0  0  0  0  0
    8.0820  -11.4977   25.9544 C   0  0  0  0  0  0  0  0  0  0  0  0
    8.4325  -12.8179   25.7828 C   0  0  0  0  0  0  0  0  0  0  0  0
    7.4832  -13.8126   25.8999 C   0  0  0  0  0  0  0  0  0  0  0  0
   10.2602  -16.8247   23.7965 C   0  0  0  0  0  0  0  0  0  0  0  0
   10.5684  -18.0242   23.9998 O   0  0  0  0  0  0  0  0  0  0  0  0
   13.9174  -14.3502   19.3294 N   0  0  0  0  0  0  0  0  0  0  0  0
   14.6068  -15.4882   19.7684 C   0  0  0  0  0  0  0  0  0  0  0  0
   15.6023  -15.9226   19.1466 O   0  0  0  0  0  0  0  0  0  0  0  0
   14.2023  -16.2529   20.9987 C   0  0  0  0  0  0  0  0  0  0  0  0
   12.9331  -15.7482   21.5729 C   0  0  0  0  0  0  0  0  0  0  0  0
   12.4932  -16.5100   22.7761 C   0  0  2  0  0  0  0  0  0  0  0  0
   11.2694  -15.9462   23.3375 N   0  0  0  0  0  0  0  0  0  0  0  0
   13.5274  -16.6462   23.8213 C   0  0  0  0  0  0  0  0  0  0  0  0
   14.5603  -17.5548   23.6637 O   0  0  0  0  0  0  0  0  0  0  0  0
   13.4972  -15.9583   24.8541 O   0  0  0  0  0  0  0  0  0  0  0  0
  2  1  1  0
  3  2  1  0
  4  3  2  0
  5  3  1  0
  6  5  1  0
  7  8  1  0
  6  7  1  1
  8 16  1  0
  9 10  1  0
  9  8  2  0
 10 11  1  0
 11 16  2  0
 11 12  1  0
 12 13  2  0
 13 14  1  0
 15 14  2  0
 16 15  1  0
 17  6  1  0
 17 18  2  0
 20 22  1  0
 20 19  1  0
 21 20  2  0
 24 23  1  6
 23 22  1  0
 24 25  1  0
 25 17  1  0
 26 24  1  0
 27 26  1  0
 28 26  2  0
M  END
$$$$
