GWQ.pdb
     RDKit          3D

 28 29  0  0  1  0  0  0  0  0999 V2000
   10.0304  -17.1158   19.7268 N   0  0  0  0  0  0  0  0  0  0  0  0
    9.3099  -17.7593   20.8055 C   0  0  0  0  0  0  0  0  0  0  0  0
    9.6108  -16.9951   22.0514 C   0  0  0  0  0  0  0  0  0  0  0  0
   10.5657  -16.1774   22.0853 O   0  0  0  0  0  0  0  0  0  0  0  0
    8.8517  -17.1487   23.2352 N   0  0  0  0  0  0  0  0  0  0  0  0
    9.2648  -16.4859   24.4343 C   0  0  1  0  0  0  0  0  0  0  0  0
    8.1204  -16.0525   25.3070 C   0  0  0  0  0  0  0  0  0  0  0  0
    7.4406  -14.8405   24.7997 C   0  0  0  0  0  0  0  0  0  0  0  0
    6.8610  -14.5724   23.5997 C   0  0  0  0  0  0  0  0  0  0  0  0
    6.3653  -13.3241   23.5939 N   0  0  0  0  0  0  0  0  0  0  0  0
    6.6200  -12.7777   24.7869 C   0  0  0  0  0  0  0  0  0  0  0  0
    6.3285  -11.5383   25.2881 C   0  0  0  0  0  0  0  0  0  0  0  0
    6.7101  -11.2232   26.5695 C   0  0  0  0  0  0  0  0  0  0  0  0
    7.3757  -12.1169   27.3606 C   0  0  0  0  0  0  0  0  0  0  0  0
    7.6674  -13.3630   26.8532 C   0  0  0  0  0  0  0  0  0  0  0  0
    7.2923  -13.6984   25.5682 C   0  0  0  0  0  0  0  0  0  0  0  0
   10.0872  -17.4515   25.2321 C   0  0  0  0  0  0  0  0  0  0  0  0
    9.6000  -18.5520   25.5883 O   0  0  0  0  0  0  0  0  0  0  0  0
   14.6209  -15.5952   25.0575 N   0  0  0  0  0  0  0  0  0  0  0  0
   14.1300  -16.6117   24.2275 C   0  0  0  0  0  0  0  0  0  0  0  0
   13.8378  -16.3869   23.0314 O   0  0  0  0  0  0  0  0  0  0  0  0
   13.9244  -18.0208   24.7114 C   0  0  0  0  0  0  0  0  0  0  0  0
   13.6087  -18.0695   26.1583 C   0  0  0  0  0  0  0  0  0  0  0  0
   12.1449  -18.1191   26.4348 C   0  0  2  0  0  0  0  0  0  0  0  0
   11.4201  -17.1609   25.6061 N   0  0  0  0  0  0  0  0  0  0  0  0
   11.7886  -17.9468   27.8574 C   0  0  0  0  0  0  0  0  0  0  0  0
   12.3413  -18.7763   28.8185 O   0  0  0  0  0  0  0  0  0  0  0  0
   10.9949  -17.0651   28.2228 O   0  0  0  0  0  0  0  0  0  0  0  0
  2  1  1  0
  3  2  1  0
  4  3  2  0
  5  3  1  0
  6  5  1  0
  7  8  1  0
  6  7  1  1
  8 16  1  0
  9 10  1  0
  9  8  2  0
 10 11  1  0
 11 16  2  0
 11 12  1  0
 12 13  2  0
 13 14  1  0
 15 14  2  0
 16 15  1  0
 17  6  1  0
 17 18  2  0
 20 22  1  0
 20 19  1  0
 21 20  2  0
 24 23  1  1
 23 22  1  0
 24 25  1  0
 25 17  1  0
 26 24  1  0
 27 26  1  0
 28 26  2  0
M  END
$$$$
