GWQ.pdb
     RDKit          3D

 28 29  0  0  1  0  0  0  0  0999 V2000
    5.8530  -18.5685   20.5919 N   0  0  0  0  0  0  0  0  0  0  0  0
    6.2984  -18.6940   21.9640 C   0  0  0  0  0  0  0  0  0  0  0  0
    7.2362  -17.5633   22.2262 C   0  0  0  0  0  0  0  0  0  0  0  0
    7.4964  -16.7259   21.3247 O   0  0  0  0  0  0  0  0  0  0  0  0
    7.8683  -17.3793   23.4783 N   0  0  0  0  0  0  0  0  0  0  0  0
    8.7315  -16.2558   23.6793 C   0  0  1  0  0  0  0  0  0  0  0  0
    8.8480  -15.8364   25.1180 C   0  0  0  0  0  0  0  0  0  0  0  0
    7.6101  -15.2125   25.6345 C   0  0  0  0  0  0  0  0  0  0  0  0
    6.4139  -15.7518   25.9895 C   0  0  0  0  0  0  0  0  0  0  0  0
    5.5771  -14.7875   26.4065 N   0  0  0  0  0  0  0  0  0  0  0  0
    6.2246  -13.6211   26.3245 C   0  0  0  0  0  0  0  0  0  0  0  0
    5.8238  -12.3479   26.6259 C   0  0  0  0  0  0  0  0  0  0  0  0
    6.7004  -11.3056   26.4467 C   0  0  0  0  0  0  0  0  0  0  0  0
    7.9669  -11.5061   25.9738 C   0  0  0  0  0  0  0  0  0  0  0  0
    8.3668  -12.7882   25.6716 C   0  0  0  0  0  0  0  0  0  0  0  0
    7.5007  -13.8484   25.8449 C   0  0  0  0  0  0  0  0  0  0  0  0
   10.1041  -16.6439   23.2202 C   0  0  0  0  0  0  0  0  0  0  0  0
   10.5132  -17.8201   23.3769 O   0  0  0  0  0  0  0  0  0  0  0  0
   14.8700  -15.4310   17.9564 N   0  0  0  0  0  0  0  0  0  0  0  0
   14.3271  -14.8745   19.1220 C   0  0  0  0  0  0  0  0  0  0  0  0
   14.1179  -13.6441   19.2158 O   0  0  0  0  0  0  0  0  0  0  0  0
   13.9647  -15.7066   20.3213 C   0  0  0  0  0  0  0  0  0  0  0  0
   12.6691  -15.2949   20.9107 C   0  0  0  0  0  0  0  0  0  0  0  0
   12.2152  -16.1948   22.0086 C   0  0  2  0  0  0  0  0  0  0  0  0
   10.9729  -15.7129   22.6044 N   0  0  0  0  0  0  0  0  0  0  0  0
   13.2297  -16.4391   23.0534 C   0  0  0  0  0  0  0  0  0  0  0  0
   14.2973  -17.2843   22.8024 O   0  0  0  0  0  0  0  0  0  0  0  0
   13.1520  -15.8996   24.1687 O   0  0  0  0  0  0  0  0  0  0  0  0
  2  1  1  0
  3  2  1  0
  4  3  2  0
  5  3  1  0
  6  5  1  0
  7  8  1  0
  6  7  1  1
  8 16  1  0
  9 10  1  0
  9  8  2  0
 10 11  1  0
 11 16  2  0
 11 12  1  0
 12 13  2  0
 13 14  1  0
 15 14  2  0
 16 15  1  0
 17  6  1  0
 17 18  2  0
 20 22  1  0
 20 19  1  0
 21 20  2  0
 24 23  1  6
 23 22  1  0
 24 25  1  0
 25 17  1  0
 26 24  1  0
 27 26  1  0
 28 26  2  0
M  END
$$$$
