GWQ.pdb
     RDKit          3D

 28 29  0  0  1  0  0  0  0  0999 V2000
    8.3609  -17.7018   18.3529 N   0  0  0  0  0  0  0  0  0  0  0  0
    7.4427  -17.6872   19.4725 C   0  0  0  0  0  0  0  0  0  0  0  0
    8.0950  -16.9076   20.5649 C   0  0  0  0  0  0  0  0  0  0  0  0
    9.3479  -16.8156   20.6248 O   0  0  0  0  0  0  0  0  0  0  0  0
    7.3516  -16.2449   21.5695 N   0  0  0  0  0  0  0  0  0  0  0  0
    8.0252  -15.4105   22.5170 C   0  0  1  0  0  0  0  0  0  0  0  0
    7.1113  -14.4596   23.2380 C   0  0  0  0  0  0  0  0  0  0  0  0
    7.8140  -13.6555   24.2617 C   0  0  0  0  0  0  0  0  0  0  0  0
    9.0933  -13.2001   24.3228 C   0  0  0  0  0  0  0  0  0  0  0  0
    9.2831  -12.5044   25.4560 N   0  0  0  0  0  0  0  0  0  0  0  0
    8.1310  -12.5048   26.1336 C   0  0  0  0  0  0  0  0  0  0  0  0
    7.7956  -11.9439   27.3358 C   0  0  0  0  0  0  0  0  0  0  0  0
    6.5180  -12.0962   27.8170 C   0  0  0  0  0  0  0  0  0  0  0  0
    5.5691  -12.7953   27.1254 C   0  0  0  0  0  0  0  0  0  0  0  0
    5.9099  -13.3582   25.9162 C   0  0  0  0  0  0  0  0  0  0  0  0
    7.1881  -13.2163   25.4161 C   0  0  0  0  0  0  0  0  0  0  0  0
    8.6434  -16.2993   23.5529 C   0  0  0  0  0  0  0  0  0  0  0  0
    8.0117  -17.2906   23.9928 O   0  0  0  0  0  0  0  0  0  0  0  0
   14.9872  -16.2610   23.5935 N   0  0  0  0  0  0  0  0  0  0  0  0
   13.8314  -16.5366   22.8510 C   0  0  0  0  0  0  0  0  0  0  0  0
   13.9015  -17.0239   21.7003 O   0  0  0  0  0  0  0  0  0  0  0  0
   12.4490  -16.2690   23.3796 C   0  0  0  0  0  0  0  0  0  0  0  0
   12.0012  -17.3232   24.3196 C   0  0  0  0  0  0  0  0  0  0  0  0
   10.6117  -17.1113   24.8152 C   0  0  2  0  0  0  0  0  0  0  0  0
    9.9400  -16.0558   24.0633 N   0  0  0  0  0  0  0  0  0  0  0  0
   10.5161  -16.8544   26.2662 C   0  0  0  0  0  0  0  0  0  0  0  0
   10.9227  -17.8195   27.1719 O   0  0  0  0  0  0  0  0  0  0  0  0
   10.0745  -15.7804   26.7048 O   0  0  0  0  0  0  0  0  0  0  0  0
  2  1  1  0
  3  2  1  0
  4  3  2  0
  5  3  1  0
  6  5  1  0
  7  8  1  0
  6  7  1  1
  8 16  1  0
  9 10  1  0
  9  8  2  0
 10 11  1  0
 11 16  2  0
 11 12  1  0
 12 13  2  0
 13 14  1  0
 15 14  2  0
 16 15  1  0
 17  6  1  0
 17 18  2  0
 20 22  1  0
 20 19  1  0
 21 20  2  0
 24 23  1  6
 23 22  1  0
 24 25  1  0
 25 17  1  0
 26 24  1  0
 27 26  1  0
 28 26  2  0
M  END
$$$$
