GWQ.pdb
     RDKit          3D

 28 29  0  0  1  0  0  0  0  0999 V2000
    6.7119  -18.9015   20.9826 N   0  0  0  0  0  0  0  0  0  0  0  0
    6.8676  -18.8668   22.4219 C   0  0  0  0  0  0  0  0  0  0  0  0
    7.7400  -17.6988   22.7408 C   0  0  0  0  0  0  0  0  0  0  0  0
    8.2580  -17.0171   21.8197 O   0  0  0  0  0  0  0  0  0  0  0  0
    8.0230  -17.3066   24.0701 N   0  0  0  0  0  0  0  0  0  0  0  0
    9.0190  -16.3096   24.3192 C   0  0  1  0  0  0  0  0  0  0  0  0
    8.8631  -15.6218   25.6465 C   0  0  0  0  0  0  0  0  0  0  0  0
    7.5613  -14.9329   25.7850 C   0  0  0  0  0  0  0  0  0  0  0  0
    6.2966  -15.4182   25.8981 C   0  0  0  0  0  0  0  0  0  0  0  0
    5.4200  -14.4057   26.0009 N   0  0  0  0  0  0  0  0  0  0  0  0
    6.1099  -13.2618   25.9552 C   0  0  0  0  0  0  0  0  0  0  0  0
    5.6950  -11.9593   26.0184 C   0  0  0  0  0  0  0  0  0  0  0  0
    6.6259  -10.9517   25.9464 C   0  0  0  0  0  0  0  0  0  0  0  0
    7.9601  -11.2153   25.8129 C   0  0  0  0  0  0  0  0  0  0  0  0
    8.3741  -12.5267   25.7497 C   0  0  0  0  0  0  0  0  0  0  0  0
    7.4541  -13.5529   25.8204 C   0  0  0  0  0  0  0  0  0  0  0  0
   10.3550  -16.9880   24.3278 C   0  0  0  0  0  0  0  0  0  0  0  0
   10.4646  -18.1615   24.7593 O   0  0  0  0  0  0  0  0  0  0  0  0
   12.2206  -20.2016   20.5961 N   0  0  0  0  0  0  0  0  0  0  0  0
   12.2939  -18.8601   20.1984 C   0  0  0  0  0  0  0  0  0  0  0  0
   12.2419  -18.5390   18.9898 O   0  0  0  0  0  0  0  0  0  0  0  0
   12.4380  -17.7325   21.1831 C   0  0  0  0  0  0  0  0  0  0  0  0
   12.4097  -18.2131   22.5844 C   0  0  0  0  0  0  0  0  0  0  0  0
   12.7082  -17.1406   23.5754 C   0  0  2  0  0  0  0  0  0  0  0  0
   11.5210  -16.3397   23.8577 N   0  0  0  0  0  0  0  0  0  0  0  0
   13.8436  -16.2713   23.2073 C   0  0  0  0  0  0  0  0  0  0  0  0
   13.6493  -14.9123   23.0263 O   0  0  0  0  0  0  0  0  0  0  0  0
   14.9863  -16.7311   23.0529 O   0  0  0  0  0  0  0  0  0  0  0  0
  2  1  1  0
  3  2  1  0
  4  3  2  0
  5  3  1  0
  6  5  1  0
  7  8  1  0
  6  7  1  1
  8 16  1  0
  9 10  1  0
  9  8  2  0
 10 11  1  0
 11 16  2  0
 11 12  1  0
 12 13  2  0
 13 14  1  0
 15 14  2  0
 16 15  1  0
 17  6  1  0
 17 18  2  0
 20 22  1  0
 20 19  1  0
 21 20  2  0
 24 23  1  6
 23 22  1  0
 24 25  1  0
 25 17  1  0
 26 24  1  0
 27 26  1  0
 28 26  2  0
M  END
$$$$
