NAM.pdb
     RDKit          3D

 22 21  0  0  1  0  0  0  0  0999 V2000
    7.4146  -18.9244   16.2594 N   0  0  0  0  0  0  0  0  0  0  0  0
    8.3528  -18.8716   17.3242 C   0  0  0  0  0  0  0  0  0  0  0  0
    8.8984  -19.9012   17.7625 O   0  0  0  0  0  0  0  0  0  0  0  0
    8.6566  -17.5613   17.8896 C   0  0  0  0  0  0  0  0  0  0  0  0
    8.4966  -17.5030   19.3815 C   0  0  2  0  0  0  0  0  0  0  0  0
    7.0589  -17.6785   19.6338 N   0  0  0  0  0  0  0  0  0  0  0  0
    8.9038  -16.1534   19.8699 C   0  0  0  0  0  0  0  0  0  0  0  0
   10.0628  -15.7070   19.8573 O   0  0  0  0  0  0  0  0  0  0  0  0
    7.1302  -12.9469   20.5434 C   0  0  0  0  0  0  0  0  0  0  0  0
    8.2573  -13.9198   20.7807 C   0  0  2  0  0  0  0  0  0  0  0  0
    7.9043  -15.2617   20.4083 N   0  0  0  0  0  0  0  0  0  0  0  0
    8.7200  -13.8960   22.2008 C   0  0  0  0  0  0  0  0  0  0  0  0
    9.1007  -12.8214   22.7062 O   0  0  0  0  0  0  0  0  0  0  0  0
    7.4632  -11.1715   27.0166 C   0  0  0  0  0  0  0  0  0  0  0  0
    6.2692  -12.4158   26.4674 S   0  0  0  0  0  0  0  0  0  0  0  0
    7.0491  -13.9995   26.1624 C   0  0  0  0  0  0  0  0  0  0  0  0
    7.4131  -14.1594   24.7311 C   0  0  0  0  0  0  0  0  0  0  0  0
    8.6490  -14.9410   24.4923 C   0  0  2  0  0  0  0  0  0  0  0  0
    8.7433  -15.0602   23.0049 N   0  0  0  0  0  0  0  0  0  0  0  0
    8.8145  -16.2539   25.0650 C   0  0  0  0  0  0  0  0  0  0  0  0
    8.7075  -16.5669   26.2716 O   0  0  0  0  0  0  0  0  0  0  0  0
    9.1324  -17.3421   24.2167 O   0  0  0  0  0  0  0  0  0  0  0  0
  1  2  1  0
  2  3  2  0
  4  2  1  0
  4  5  1  0
  5  6  1  6
  7  5  1  0
  7 11  1  0
  8  7  2  0
 10  9  1  1
 10 11  1  0
 10 12  1  0
 12 13  2  0
 12 19  1  0
 14 15  1  0
 15 16  1  0
 17 16  1  0
 18 17  1  6
 19 18  1  0
 20 18  1  0
 20 22  1  0
 21 20  2  0
M  END
$$$$
