NAM.pdb
     RDKit          3D

 22 21  0  0  1  0  0  0  0  0999 V2000
   11.8480  -14.7652   17.3205 N   0  0  0  0  0  0  0  0  0  0  0  0
   12.1257  -13.9470   18.4476 C   0  0  0  0  0  0  0  0  0  0  0  0
   13.2674  -13.4990   18.6610 O   0  0  0  0  0  0  0  0  0  0  0  0
   11.0201  -13.6483   19.3517 C   0  0  0  0  0  0  0  0  0  0  0  0
    9.7657  -14.4096   19.0329 C   0  0  2  0  0  0  0  0  0  0  0  0
    8.8752  -13.4471   18.3679 N   0  0  0  0  0  0  0  0  0  0  0  0
    9.1214  -14.8547   20.3028 C   0  0  0  0  0  0  0  0  0  0  0  0
    8.4441  -14.1331   21.0532 O   0  0  0  0  0  0  0  0  0  0  0  0
    8.4331  -18.1975   21.9083 C   0  0  0  0  0  0  0  0  0  0  0  0
    8.5772  -16.6967   21.8988 C   0  0  2  0  0  0  0  0  0  0  0  0
    9.2709  -16.2247   20.7327 N   0  0  0  0  0  0  0  0  0  0  0  0
    9.2623  -16.1981   23.1290 C   0  0  0  0  0  0  0  0  0  0  0  0
   10.4788  -15.9271   23.0891 O   0  0  0  0  0  0  0  0  0  0  0  0
    5.7542  -11.7022   27.1424 C   0  0  0  0  0  0  0  0  0  0  0  0
    7.4352  -12.0813   26.5891 S   0  0  0  0  0  0  0  0  0  0  0  0
    7.6232  -13.8115   26.1642 C   0  0  0  0  0  0  0  0  0  0  0  0
    8.9909  -14.1025   25.6630 C   0  0  0  0  0  0  0  0  0  0  0  0
    9.3172  -15.5443   25.5617 C   0  0  2  0  0  0  0  0  0  0  0  0
    8.5755  -16.0190   24.3533 N   0  0  0  0  0  0  0  0  0  0  0  0
    9.0331  -16.4440   26.6521 C   0  0  0  0  0  0  0  0  0  0  0  0
    9.4730  -16.3713   27.8210 O   0  0  0  0  0  0  0  0  0  0  0  0
    8.1699  -17.5445   26.4320 O   0  0  0  0  0  0  0  0  0  0  0  0
  1  2  1  0
  2  3  2  0
  4  2  1  0
  4  5  1  0
  5  6  1  1
  7  5  1  0
  7 11  1  0
  8  7  2  0
 10  9  1  1
 10 11  1  0
 10 12  1  0
 12 13  2  0
 12 19  1  0
 14 15  1  0
 15 16  1  0
 17 16  1  0
 18 17  1  1
 19 18  1  0
 20 18  1  0
 20 22  1  0
 21 20  2  0
M  END
$$$$
