NAM.pdb
     RDKit          3D

 22 21  0  0  1  0  0  0  0  0999 V2000
    6.0739  -19.4729   17.1036 N   0  0  0  0  0  0  0  0  0  0  0  0
    6.8032  -19.3964   18.3199 C   0  0  0  0  0  0  0  0  0  0  0  0
    6.8035  -20.3342   19.1386 O   0  0  0  0  0  0  0  0  0  0  0  0
    7.5561  -18.1735   18.5778 C   0  0  0  0  0  0  0  0  0  0  0  0
    7.5954  -17.7913   20.0294 C   0  0  2  0  0  0  0  0  0  0  0  0
    6.1977  -17.5443   20.4130 N   0  0  0  0  0  0  0  0  0  0  0  0
    8.3629  -16.5216   20.1856 C   0  0  0  0  0  0  0  0  0  0  0  0
    9.5946  -16.4107   20.0709 O   0  0  0  0  0  0  0  0  0  0  0  0
    7.5802  -12.8596   20.3704 C   0  0  0  0  0  0  0  0  0  0  0  0
    8.3878  -14.0830   20.7234 C   0  0  2  0  0  0  0  0  0  0  0  0
    7.6589  -15.2998   20.4950 N   0  0  0  0  0  0  0  0  0  0  0  0
    8.8679  -14.0409   22.1373 C   0  0  0  0  0  0  0  0  0  0  0  0
    9.6293  -13.1231   22.5017 O   0  0  0  0  0  0  0  0  0  0  0  0
    5.4182  -11.8006   26.4323 C   0  0  0  0  0  0  0  0  0  0  0  0
    7.1419  -12.0832   26.9062 S   0  0  0  0  0  0  0  0  0  0  0  0
    7.6778  -13.7465   26.5117 C   0  0  0  0  0  0  0  0  0  0  0  0
    7.6562  -13.9913   25.0467 C   0  0  0  0  0  0  0  0  0  0  0  0
    8.7907  -14.7981   24.5392 C   0  0  2  0  0  0  0  0  0  0  0  0
    8.4871  -15.0143   23.0912 N   0  0  0  0  0  0  0  0  0  0  0  0
    9.1136  -16.0725   25.1313 C   0  0  0  0  0  0  0  0  0  0  0  0
    8.9873  -17.2001   24.6043 O   0  0  0  0  0  0  0  0  0  0  0  0
    9.6330  -16.1102   26.4480 O   0  0  0  0  0  0  0  0  0  0  0  0
  1  2  1  0
  2  3  2  0
  4  2  1  0
  4  5  1  0
  5  6  1  6
  7  5  1  0
  7 11  1  0
  8  7  2  0
 10  9  1  1
 10 11  1  0
 10 12  1  0
 12 13  2  0
 12 19  1  0
 14 15  1  0
 15 16  1  0
 17 16  1  0
 18 17  1  1
 19 18  1  0
 20 18  1  0
 20 22  1  0
 21 20  2  0
M  END
$$$$
