NAM.pdb
     RDKit          3D

 22 21  0  0  1  0  0  0  0  0999 V2000
    8.5118  -18.8813   16.9008 N   0  0  0  0  0  0  0  0  0  0  0  0
    8.2910  -18.5874   18.2726 C   0  0  0  0  0  0  0  0  0  0  0  0
    7.1881  -18.1801   18.6815 O   0  0  0  0  0  0  0  0  0  0  0  0
    9.4083  -18.7806   19.1909 C   0  0  0  0  0  0  0  0  0  0  0  0
    9.1027  -18.3610   20.5999 C   0  0  2  0  0  0  0  0  0  0  0  0
    7.7156  -18.7811   20.8473 N   0  0  0  0  0  0  0  0  0  0  0  0
    9.1741  -16.8741   20.6992 C   0  0  0  0  0  0  0  0  0  0  0  0
   10.1937  -16.1917   20.5056 O   0  0  0  0  0  0  0  0  0  0  0  0
    6.6554  -14.0805   20.9489 C   0  0  0  0  0  0  0  0  0  0  0  0
    8.0255  -14.6925   21.0962 C   0  0  2  0  0  0  0  0  0  0  0  0
    7.9879  -16.1277   21.0454 N   0  0  0  0  0  0  0  0  0  0  0  0
    8.6973  -14.2501   22.3549 C   0  0  0  0  0  0  0  0  0  0  0  0
    9.1001  -13.0744   22.4572 O   0  0  0  0  0  0  0  0  0  0  0  0
    6.2112  -11.4171   27.8543 C   0  0  0  0  0  0  0  0  0  0  0  0
    6.8860  -12.0110   26.2834 S   0  0  0  0  0  0  0  0  0  0  0  0
    6.5755  -13.7589   26.0426 C   0  0  0  0  0  0  0  0  0  0  0  0
    7.1456  -14.2401   24.7581 C   0  0  0  0  0  0  0  0  0  0  0  0
    8.5604  -14.6737   24.8349 C   0  0  2  0  0  0  0  0  0  0  0  0
    8.8967  -15.1246   23.4495 N   0  0  0  0  0  0  0  0  0  0  0  0
    8.9683  -15.7023   25.7594 C   0  0  0  0  0  0  0  0  0  0  0  0
    9.1529  -15.5767   26.9903 O   0  0  0  0  0  0  0  0  0  0  0  0
    9.1980  -17.0132   25.2762 O   0  0  0  0  0  0  0  0  0  0  0  0
  1  2  1  0
  2  3  2  0
  4  2  1  0
  4  5  1  0
  5  6  1  6
  7  5  1  0
  7 11  1  0
  8  7  2  0
 10  9  1  1
 10 11  1  0
 10 12  1  0
 12 13  2  0
 12 19  1  0
 14 15  1  0
 15 16  1  0
 17 16  1  0
 18 17  1  6
 19 18  1  0
 20 18  1  0
 20 22  1  0
 21 20  2  0
M  END
$$$$
