NAM.pdb
     RDKit          3D

 22 21  0  0  1  0  0  0  0  0999 V2000
   11.2121  -19.8724   17.6065 N   0  0  0  0  0  0  0  0  0  0  0  0
   11.6432  -19.0525   18.6830 C   0  0  0  0  0  0  0  0  0  0  0  0
   12.6759  -19.3141   19.3272 O   0  0  0  0  0  0  0  0  0  0  0  0
   10.8289  -17.8867   19.0095 C   0  0  0  0  0  0  0  0  0  0  0  0
   10.4907  -17.7842   20.4689 C   0  0  2  0  0  0  0  0  0  0  0  0
    9.4106  -18.7557   20.6954 N   0  0  0  0  0  0  0  0  0  0  0  0
    9.9696  -16.4171   20.7607 C   0  0  0  0  0  0  0  0  0  0  0  0
   10.6622  -15.3895   20.8442 O   0  0  0  0  0  0  0  0  0  0  0  0
    6.5426  -14.8956   21.3690 C   0  0  0  0  0  0  0  0  0  0  0  0
    8.0495  -14.9456   21.3808 C   0  0  2  0  0  0  0  0  0  0  0  0
    8.5539  -16.2264   20.9696 N   0  0  0  0  0  0  0  0  0  0  0  0
    8.6051  -14.5919   22.7215 C   0  0  0  0  0  0  0  0  0  0  0  0
    9.0302  -13.4376   22.9266 O   0  0  0  0  0  0  0  0  0  0  0  0
    7.4149  -10.9124   25.9965 C   0  0  0  0  0  0  0  0  0  0  0  0
    6.2541  -12.1717   26.5817 S   0  0  0  0  0  0  0  0  0  0  0  0
    7.0087  -13.7952   26.6473 C   0  0  0  0  0  0  0  0  0  0  0  0
    7.3343  -14.2984   25.2881 C   0  0  0  0  0  0  0  0  0  0  0  0
    8.6054  -15.0546   25.1982 C   0  0  2  0  0  0  0  0  0  0  0  0
    8.6682  -15.5276   23.7812 N   0  0  0  0  0  0  0  0  0  0  0  0
    8.8584  -16.1791   26.0646 C   0  0  0  0  0  0  0  0  0  0  0  0
    8.9094  -16.1687   27.3145 O   0  0  0  0  0  0  0  0  0  0  0  0
    9.0793  -17.4553   25.4925 O   0  0  0  0  0  0  0  0  0  0  0  0
  1  2  1  0
  2  3  2  0
  4  2  1  0
  4  5  1  0
  5  6  1  6
  7  5  1  0
  7 11  1  0
  8  7  2  0
 10  9  1  1
 10 11  1  0
 10 12  1  0
 12 13  2  0
 12 19  1  0
 14 15  1  0
 15 16  1  0
 17 16  1  0
 18 17  1  1
 19 18  1  0
 20 18  1  0
 20 22  1  0
 21 20  2  0
M  END
$$$$
