NAM.pdb
     RDKit          3D

 22 21  0  0  1  0  0  0  0  0999 V2000
    4.6226  -20.8622   19.3215 N   0  0  0  0  0  0  0  0  0  0  0  0
    5.4440  -20.5415   20.4349 C   0  0  0  0  0  0  0  0  0  0  0  0
    5.3804  -21.1865   21.4977 O   0  0  0  0  0  0  0  0  0  0  0  0
    6.3700  -19.4235   20.2886 C   0  0  0  0  0  0  0  0  0  0  0  0
    6.8090  -18.8363   21.5990 C   0  0  2  0  0  0  0  0  0  0  0  0
    5.5765  -18.4000   22.2714 N   0  0  0  0  0  0  0  0  0  0  0  0
    7.6608  -17.6384   21.3433 C   0  0  0  0  0  0  0  0  0  0  0  0
    8.7819  -17.6579   20.8092 O   0  0  0  0  0  0  0  0  0  0  0  0
    7.1400  -14.0355   20.8949 C   0  0  0  0  0  0  0  0  0  0  0  0
    7.9710  -15.1629   21.4531 C   0  0  2  0  0  0  0  0  0  0  0  0
    7.1839  -16.3322   21.7310 N   0  0  0  0  0  0  0  0  0  0  0  0
    8.7109  -14.7494   22.6831 C   0  0  0  0  0  0  0  0  0  0  0  0
    9.5017  -13.7866   22.6312 O   0  0  0  0  0  0  0  0  0  0  0  0
    5.3664  -11.2910   26.3105 C   0  0  0  0  0  0  0  0  0  0  0  0
    6.2263  -12.8044   26.8059 S   0  0  0  0  0  0  0  0  0  0  0  0
    7.5575  -13.2144   25.6793 C   0  0  0  0  0  0  0  0  0  0  0  0
    8.2217  -14.4864   26.0629 C   0  0  0  0  0  0  0  0  0  0  0  0
    9.2821  -14.9346   25.1301 C   0  0  2  0  0  0  0  0  0  0  0  0
    8.5471  -15.4163   23.9204 N   0  0  0  0  0  0  0  0  0  0  0  0
   10.2288  -15.9495   25.5210 C   0  0  0  0  0  0  0  0  0  0  0  0
   11.0631  -15.8814   26.4507 O   0  0  0  0  0  0  0  0  0  0  0  0
   10.2607  -17.1740   24.8109 O   0  0  0  0  0  0  0  0  0  0  0  0
  1  2  1  0
  2  3  2  0
  4  2  1  0
  4  5  1  0
  5  6  1  1
  7  5  1  0
  7 11  1  0
  8  7  2  0
 10  9  1  1
 10 11  1  0
 10 12  1  0
 12 13  2  0
 12 19  1  0
 14 15  1  0
 15 16  1  0
 17 16  1  0
 18 17  1  1
 19 18  1  0
 20 18  1  0
 20 22  1  0
 21 20  2  0
M  END
$$$$
