NAM.pdb
     RDKit          3D

 22 21  0  0  1  0  0  0  0  0999 V2000
    6.3759  -19.8134   18.9329 N   0  0  0  0  0  0  0  0  0  0  0  0
    6.4843  -19.4648   20.3054 C   0  0  0  0  0  0  0  0  0  0  0  0
    5.9396  -20.1450   21.1945 O   0  0  0  0  0  0  0  0  0  0  0  0
    7.2604  -18.2751   20.6388 C   0  0  0  0  0  0  0  0  0  0  0  0
    7.5938  -17.4260   19.4460 C   0  0  2  0  0  0  0  0  0  0  0  0
    8.5345  -18.2209   18.6431 N   0  0  0  0  0  0  0  0  0  0  0  0
    8.2868  -16.1855   19.9007 C   0  0  0  0  0  0  0  0  0  0  0  0
    9.4527  -16.1314   20.3253 O   0  0  0  0  0  0  0  0  0  0  0  0
    7.4880  -12.4835   19.7789 C   0  0  0  0  0  0  0  0  0  0  0  0
    8.2678  -13.7055   20.1936 C   0  0  2  0  0  0  0  0  0  0  0  0
    7.5845  -14.9248   19.8615 N   0  0  0  0  0  0  0  0  0  0  0  0
    8.5891  -13.6890   21.6523 C   0  0  0  0  0  0  0  0  0  0  0  0
    9.3207  -12.7895   22.1113 O   0  0  0  0  0  0  0  0  0  0  0  0
    6.9437  -11.1995   27.3782 C   0  0  0  0  0  0  0  0  0  0  0  0
    6.0712  -12.6066   26.6472 S   0  0  0  0  0  0  0  0  0  0  0  0
    7.2043  -13.8776   26.0903 C   0  0  0  0  0  0  0  0  0  0  0  0
    7.1459  -14.0495   24.6160 C   0  0  0  0  0  0  0  0  0  0  0  0
    8.3925  -14.5680   24.0054 C   0  0  2  0  0  0  0  0  0  0  0  0
    8.0890  -14.6668   22.5446 N   0  0  0  0  0  0  0  0  0  0  0  0
    8.9608  -15.8207   24.4375 C   0  0  0  0  0  0  0  0  0  0  0  0
    9.0366  -16.8799   23.7761 O   0  0  0  0  0  0  0  0  0  0  0  0
    9.5058  -15.9186   25.7406 O   0  0  0  0  0  0  0  0  0  0  0  0
  1  2  1  0
  2  3  2  0
  4  2  1  0
  4  5  1  0
  5  6  1  6
  7  5  1  0
  7 11  1  0
  8  7  2  0
 10  9  1  1
 10 11  1  0
 10 12  1  0
 12 13  2  0
 12 19  1  0
 14 15  1  0
 15 16  1  0
 17 16  1  0
 18 17  1  1
 19 18  1  0
 20 18  1  0
 20 22  1  0
 21 20  2  0
M  END
$$$$
