GGN.pdb
     RDKit          3D

 17 16  0  0  1  0  0  0  0  0999 V2000
    7.9400  -12.6075   18.5758 N   0  0  0  0  0  0  0  0  0  0  0  0
    7.4927  -12.7596   19.9472 C   0  0  0  0  0  0  0  0  0  0  0  0
    8.0887  -14.0424   20.4785 C   0  0  0  0  0  0  0  0  0  0  0  0
    9.0683  -14.6052   19.9201 O   0  0  0  0  0  0  0  0  0  0  0  0
    7.5615  -14.6676   21.6376 N   0  0  0  0  0  0  0  0  0  0  0  0
    8.2171  -15.7175   22.3662 C   0  0  0  0  0  0  0  0  0  0  0  0
    8.6953  -15.2561   23.6969 C   0  0  0  0  0  0  0  0  0  0  0  0
    9.9323  -15.1706   23.9066 O   0  0  0  0  0  0  0  0  0  0  0  0
    5.5252  -12.0084   26.5253 N   0  0  0  0  0  0  0  0  0  0  0  0
    6.8422  -12.5216   26.5062 C   0  0  0  0  0  0  0  0  0  0  0  0
    7.7945  -11.7656   26.2519 O   0  0  0  0  0  0  0  0  0  0  0  0
    7.0843  -13.9412   26.7869 C   0  0  0  0  0  0  0  0  0  0  0  0
    8.2780  -14.5267   26.0754 C   0  0  2  0  0  0  0  0  0  0  0  0
    7.8037  -14.9068   24.7448 N   0  0  0  0  0  0  0  0  0  0  0  0
    8.8971  -15.6681   26.7760 C   0  0  0  0  0  0  0  0  0  0  0  0
    8.7997  -16.9706   26.3180 O   0  0  0  0  0  0  0  0  0  0  0  0
    9.5400  -15.4287   27.8394 O   0  0  0  0  0  0  0  0  0  0  0  0
  1  2  1  0
  3  5  1  0
  3  2  1  0
  4  3  2  0
  6  5  1  0
  7  6  1  0
  8  7  2  0
  9 10  1  0
 10 12  1  0
 11 10  2  0
 13 12  1  1
 13 15  1  0
 13 14  1  0
 14  7  1  0
 15 16  1  0
 17 15  2  0
M  END
$$$$
