GGN.pdb
     RDKit          3D

 17 16  0  0  1  0  0  0  0  0999 V2000
    7.1025  -18.4355   19.7119 N   0  0  0  0  0  0  0  0  0  0  0  0
    6.6620  -17.7497   20.9117 C   0  0  0  0  0  0  0  0  0  0  0  0
    7.4103  -16.4389   20.9850 C   0  0  0  0  0  0  0  0  0  0  0  0
    8.6653  -16.3801   20.8874 O   0  0  0  0  0  0  0  0  0  0  0  0
    6.7203  -15.2133   21.1689 N   0  0  0  0  0  0  0  0  0  0  0  0
    7.3543  -13.9280   21.2638 C   0  0  0  0  0  0  0  0  0  0  0  0
    7.9539  -13.7015   22.6060 C   0  0  0  0  0  0  0  0  0  0  0  0
    8.5790  -12.6324   22.8242 O   0  0  0  0  0  0  0  0  0  0  0  0
    5.6021  -12.7985   26.2034 N   0  0  0  0  0  0  0  0  0  0  0  0
    6.9617  -13.1451   26.3750 C   0  0  0  0  0  0  0  0  0  0  0  0
    7.7519  -12.3180   26.8596 O   0  0  0  0  0  0  0  0  0  0  0  0
    7.4381  -14.4765   25.9841 C   0  0  0  0  0  0  0  0  0  0  0  0
    8.5252  -14.4720   24.9391 C   0  0  2  0  0  0  0  0  0  0  0  0
    7.8468  -14.6512   23.6555 N   0  0  0  0  0  0  0  0  0  0  0  0
    9.5668  -15.4958   25.1484 C   0  0  0  0  0  0  0  0  0  0  0  0
   10.7271  -15.2493   25.8616 O   0  0  0  0  0  0  0  0  0  0  0  0
    9.3760  -16.6420   24.6472 O   0  0  0  0  0  0  0  0  0  0  0  0
  1  2  1  0
  3  5  1  0
  3  2  1  0
  4  3  2  0
  6  5  1  0
  7  6  1  0
  8  7  2  0
  9 10  1  0
 10 12  1  0
 11 10  2  0
 13 12  1  1
 13 15  1  0
 13 14  1  0
 14  7  1  0
 15 16  1  0
 17 15  2  0
M  END
$$$$
