GGN.pdb
     RDKit          3D

 17 16  0  0  1  0  0  0  0  0999 V2000
    1.9046  -23.3552   21.0567 N   0  0  0  0  0  0  0  0  0  0  0  0
    2.8670  -22.6718   21.8996 C   0  0  0  0  0  0  0  0  0  0  0  0
    3.6801  -21.7592   21.0111 C   0  0  0  0  0  0  0  0  0  0  0  0
    3.3134  -20.5825   20.7485 O   0  0  0  0  0  0  0  0  0  0  0  0
    4.8989  -22.1983   20.4332 N   0  0  0  0  0  0  0  0  0  0  0  0
    5.7662  -21.3750   19.6378 C   0  0  0  0  0  0  0  0  0  0  0  0
    6.8496  -20.7607   20.4508 C   0  0  0  0  0  0  0  0  0  0  0  0
    7.6484  -19.9603   19.9007 O   0  0  0  0  0  0  0  0  0  0  0  0
    6.6948  -20.2547   25.6120 N   0  0  0  0  0  0  0  0  0  0  0  0
    6.3726  -19.7698   24.3239 C   0  0  0  0  0  0  0  0  0  0  0  0
    5.1844  -19.7157   23.9654 O   0  0  0  0  0  0  0  0  0  0  0  0
    7.4364  -19.3306   23.4141 C   0  0  0  0  0  0  0  0  0  0  0  0
    8.0859  -20.4402   22.6262 C   0  0  2  0  0  0  0  0  0  0  0  0
    7.0171  -21.0450   21.8314 N   0  0  0  0  0  0  0  0  0  0  0  0
    8.7774  -21.4445   23.4569 C   0  0  0  0  0  0  0  0  0  0  0  0
   10.0696  -21.2711   23.9218 O   0  0  0  0  0  0  0  0  0  0  0  0
    8.1487  -22.5038   23.7467 O   0  0  0  0  0  0  0  0  0  0  0  0
  1  2  1  0
  3  5  1  0
  3  2  1  0
  4  3  2  0
  6  5  1  0
  7  6  1  0
  8  7  2  0
  9 10  1  0
 10 12  1  0
 11 10  2  0
 13 12  1  1
 13 15  1  0
 13 14  1  0
 14  7  1  0
 15 16  1  0
 17 15  2  0
M  END
$$$$
