GGN.pdb
     RDKit          3D

 17 16  0  0  1  0  0  0  0  0999 V2000
    4.4658  -19.5579   21.6624 N   0  0  0  0  0  0  0  0  0  0  0  0
    5.3318  -19.1444   22.7501 C   0  0  0  0  0  0  0  0  0  0  0  0
    5.6574  -17.6840   22.5398 C   0  0  0  0  0  0  0  0  0  0  0  0
    5.0929  -16.7720   23.2015 O   0  0  0  0  0  0  0  0  0  0  0  0
    6.6204  -17.2812   21.5792 N   0  0  0  0  0  0  0  0  0  0  0  0
    6.9958  -15.9185   21.3242 C   0  0  0  0  0  0  0  0  0  0  0  0
    7.7445  -15.3253   22.4642 C   0  0  0  0  0  0  0  0  0  0  0  0
    8.2576  -14.1849   22.3318 O   0  0  0  0  0  0  0  0  0  0  0  0
    7.0308  -13.1350   24.5082 N   0  0  0  0  0  0  0  0  0  0  0  0
    6.7341  -14.0374   25.5550 C   0  0  0  0  0  0  0  0  0  0  0  0
    5.6737  -13.9165   26.1907 O   0  0  0  0  0  0  0  0  0  0  0  0
    7.6736  -15.1137   25.8889 C   0  0  0  0  0  0  0  0  0  0  0  0
    8.6746  -15.4310   24.8067 C   0  0  2  0  0  0  0  0  0  0  0  0
    7.9027  -16.0009   23.7025 N   0  0  0  0  0  0  0  0  0  0  0  0
    9.7578  -16.3369   25.2342 C   0  0  0  0  0  0  0  0  0  0  0  0
   11.0166  -15.8843   25.5898 O   0  0  0  0  0  0  0  0  0  0  0  0
    9.5090  -17.5771   25.2709 O   0  0  0  0  0  0  0  0  0  0  0  0
  1  2  1  0
  3  5  1  0
  3  2  1  0
  4  3  2  0
  6  5  1  0
  7  6  1  0
  8  7  2  0
  9 10  1  0
 10 12  1  0
 11 10  2  0
 13 12  1  1
 13 15  1  0
 13 14  1  0
 14  7  1  0
 15 16  1  0
 17 15  2  0
M  END
$$$$
