GGN.pdb
     RDKit          3D

 17 16  0  0  1  0  0  0  0  0999 V2000
    8.2152  -15.5582   17.1802 N   0  0  0  0  0  0  0  0  0  0  0  0
    7.7427  -15.8176   18.5269 C   0  0  0  0  0  0  0  0  0  0  0  0
    7.8112  -14.5152   19.2899 C   0  0  0  0  0  0  0  0  0  0  0  0
    8.4500  -13.5195   18.8554 O   0  0  0  0  0  0  0  0  0  0  0  0
    7.1523  -14.3637   20.5369 N   0  0  0  0  0  0  0  0  0  0  0  0
    7.2566  -13.2039   21.3776 C   0  0  0  0  0  0  0  0  0  0  0  0
    8.0098  -13.4893   22.6281 C   0  0  0  0  0  0  0  0  0  0  0  0
    9.2545  -13.3116   22.6465 O   0  0  0  0  0  0  0  0  0  0  0  0
    5.2701  -12.3295   26.4743 N   0  0  0  0  0  0  0  0  0  0  0  0
    6.6496  -12.6202   26.3713 C   0  0  0  0  0  0  0  0  0  0  0  0
    7.4812  -11.7016   26.4602 O   0  0  0  0  0  0  0  0  0  0  0  0
    7.0983  -14.0012   26.1618 C   0  0  0  0  0  0  0  0  0  0  0  0
    8.1076  -14.1718   25.0546 C   0  0  2  0  0  0  0  0  0  0  0  0
    7.3735  -13.9569   23.8076 N   0  0  0  0  0  0  0  0  0  0  0  0
    8.7939  -15.4779   25.0605 C   0  0  0  0  0  0  0  0  0  0  0  0
    8.7035  -16.3767   24.0118 O   0  0  0  0  0  0  0  0  0  0  0  0
    9.4898  -15.7736   26.0753 O   0  0  0  0  0  0  0  0  0  0  0  0
  1  2  1  0
  3  5  1  0
  3  2  1  0
  4  3  2  0
  6  5  1  0
  7  6  1  0
  8  7  2  0
  9 10  1  0
 10 12  1  0
 11 10  2  0
 13 12  1  1
 13 15  1  0
 13 14  1  0
 14  7  1  0
 15 16  1  0
 17 15  2  0
M  END
$$$$
