GGN.pdb
     RDKit          3D

 17 16  0  0  1  0  0  0  0  0999 V2000
    8.1998  -14.1390   15.8013 N   0  0  0  0  0  0  0  0  0  0  0  0
    7.3925  -14.4999   16.9510 C   0  0  0  0  0  0  0  0  0  0  0  0
    8.0729  -13.9370   18.1772 C   0  0  0  0  0  0  0  0  0  0  0  0
    9.3270  -13.8480   18.2632 O   0  0  0  0  0  0  0  0  0  0  0  0
    7.3171  -13.4839   19.2887 N   0  0  0  0  0  0  0  0  0  0  0  0
    7.8841  -13.0064   20.5189 C   0  0  0  0  0  0  0  0  0  0  0  0
    7.9057  -14.0610   21.5676 C   0  0  0  0  0  0  0  0  0  0  0  0
    7.4475  -15.2007   21.2985 O   0  0  0  0  0  0  0  0  0  0  0  0
    6.4855  -17.8915   24.4643 N   0  0  0  0  0  0  0  0  0  0  0  0
    7.0767  -16.6694   24.8582 C   0  0  0  0  0  0  0  0  0  0  0  0
    7.5075  -16.5383   26.0160 O   0  0  0  0  0  0  0  0  0  0  0  0
    7.1829  -15.5604   23.9036 C   0  0  0  0  0  0  0  0  0  0  0  0
    8.5350  -14.8939   23.8640 C   0  0  2  0  0  0  0  0  0  0  0  0
    8.4267  -13.8286   22.8674 N   0  0  0  0  0  0  0  0  0  0  0  0
    9.6500  -15.8104   23.5579 C   0  0  0  0  0  0  0  0  0  0  0  0
    9.7899  -16.4369   22.3317 O   0  0  0  0  0  0  0  0  0  0  0  0
   10.5052  -16.0223   24.4662 O   0  0  0  0  0  0  0  0  0  0  0  0
  1  2  1  0
  3  5  1  0
  3  2  1  0
  4  3  2  0
  6  5  1  0
  7  6  1  0
  8  7  2  0
  9 10  1  0
 10 12  1  0
 11 10  2  0
 13 12  1  6
 13 15  1  0
 13 14  1  0
 14  7  1  0
 15 16  1  0
 17 15  2  0
M  END
$$$$
