GGN.pdb
     RDKit          3D

 17 16  0  0  1  0  0  0  0  0999 V2000
    8.0729  -14.7711   13.9261 N   0  0  0  0  0  0  0  0  0  0  0  0
    8.4115  -14.1724   15.2031 C   0  0  0  0  0  0  0  0  0  0  0  0
    8.4310  -15.2794   16.2315 C   0  0  0  0  0  0  0  0  0  0  0  0
    7.3712  -15.7950   16.6777 O   0  0  0  0  0  0  0  0  0  0  0  0
    9.6560  -15.7838   16.7385 N   0  0  0  0  0  0  0  0  0  0  0  0
    9.7638  -16.8413   17.7045 C   0  0  0  0  0  0  0  0  0  0  0  0
   10.0520  -16.3216   19.0680 C   0  0  0  0  0  0  0  0  0  0  0  0
   11.2430  -16.0804   19.3917 O   0  0  0  0  0  0  0  0  0  0  0  0
    6.8843  -12.6497   20.5131 N   0  0  0  0  0  0  0  0  0  0  0  0
    8.1044  -13.3219   20.7530 C   0  0  0  0  0  0  0  0  0  0  0  0
    9.1580  -12.8789   20.2662 O   0  0  0  0  0  0  0  0  0  0  0  0
    8.1275  -14.5370   21.5748 C   0  0  0  0  0  0  0  0  0  0  0  0
    9.2986  -15.4500   21.3121 C   0  0  2  0  0  0  0  0  0  0  0  0
    9.0284  -16.0861   20.0228 N   0  0  0  0  0  0  0  0  0  0  0  0
    9.5323  -16.4504   22.3710 C   0  0  0  0  0  0  0  0  0  0  0  0
   10.0832  -16.1271   23.5989 O   0  0  0  0  0  0  0  0  0  0  0  0
    9.2109  -17.6504   22.1297 O   0  0  0  0  0  0  0  0  0  0  0  0
  1  2  1  0
  3  5  1  0
  3  2  1  0
  4  3  2  0
  6  5  1  0
  7  6  1  0
  8  7  2  0
  9 10  1  0
 10 12  1  0
 11 10  2  0
 13 12  1  1
 13 15  1  0
 13 14  1  0
 14  7  1  0
 15 16  1  0
 17 15  2  0
M  END
$$$$
