SVY.pdb
     RDKit          3D

 26 26  0  0  1  0  0  0  0  0999 V2000
    8.6897  -11.8804   19.6078 O   0  0  0  0  0  0  0  0  0  0  0  0
    8.1130  -12.6696   20.6059 C   0  0  0  0  0  0  0  0  0  0  0  0
    8.1182  -14.0927   20.0927 C   0  0  2  0  0  0  0  0  0  0  0  0
    7.0407  -14.2285   19.1545 N   0  0  0  0  0  0  0  0  0  0  0  0
    7.9768  -15.0712   21.2163 C   0  0  0  0  0  0  0  0  0  0  0  0
    6.8125  -15.4520   21.4922 O   0  0  0  0  0  0  0  0  0  0  0  0
    8.8214  -18.4275   21.2748 C   0  0  0  0  0  0  0  0  0  0  0  0
    9.6483  -17.8987   22.4340 C   0  0  1  0  0  0  0  0  0  0  0  0
   11.0725  -17.8796   22.0123 C   0  0  0  0  0  0  0  0  0  0  0  0
    9.0819  -16.6077   22.8821 C   0  0  2  0  0  0  0  0  0  0  0  0
    9.1156  -15.5339   21.9232 N   0  0  0  0  0  0  0  0  0  0  0  0
    9.5841  -16.1162   24.1945 C   0  0  0  0  0  0  0  0  0  0  0  0
   10.6259  -15.4281   24.2122 O   0  0  0  0  0  0  0  0  0  0  0  0
    5.9206  -10.8810   25.5883 O   0  0  0  0  0  0  0  0  0  0  0  0
    6.5743  -12.0055   26.0899 C   0  0  0  0  0  0  0  0  0  0  0  0
    5.9983  -13.2513   26.0371 C   0  0  0  0  0  0  0  0  0  0  0  0
    6.6365  -14.3571   26.5282 C   0  0  0  0  0  0  0  0  0  0  0  0
    7.8763  -14.2694   27.0935 C   0  0  0  0  0  0  0  0  0  0  0  0
    8.5765  -15.4483   27.6330 C   0  0  0  0  0  0  0  0  0  0  0  0
    9.5754  -15.9717   26.6647 C   0  0  2  0  0  0  0  0  0  0  0  0
    8.9366  -16.3928   25.4161 N   0  0  0  0  0  0  0  0  0  0  0  0
   10.3498  -17.0910   27.2313 C   0  0  0  0  0  0  0  0  0  0  0  0
   10.3467  -18.2632   26.8055 O   0  0  0  0  0  0  0  0  0  0  0  0
    8.4743  -13.0190   27.1558 C   0  0  0  0  0  0  0  0  0  0  0  0
    7.8344  -11.9150   26.6641 C   0  0  0  0  0  0  0  0  0  0  0  0
   11.1690  -16.8291   28.3511 O   0  0  0  0  0  0  0  0  0  0  0  0
  1  2  1  0
  3  2  1  0
  3  5  1  0
  3  4  1  6
  5  6  2  0
  8  7  1  6
  8 10  1  0
  8  9  1  0
 10 11  1  6
 11  5  1  0
 12 21  1  0
 12 10  1  0
 13 12  2  0
 15 25  2  0
 15 14  1  0
 16 15  1  0
 17 18  1  0
 17 16  2  0
 18 24  2  0
 19 18  1  0
 20 21  1  0
 20 19  1  1
 22 20  1  0
 23 22  2  0
 24 25  1  0
 26 22  1  0
M  END
$$$$
