SVY.pdb
     RDKit          3D

 26 26  0  0  1  0  0  0  0  0999 V2000
    7.3062  -20.8244   22.6145 O   0  0  0  0  0  0  0  0  0  0  0  0
    8.3684  -20.1703   21.9858 C   0  0  0  0  0  0  0  0  0  0  0  0
    7.7588  -19.2047   20.9934 C   0  0  2  0  0  0  0  0  0  0  0  0
    8.0036  -19.7136   19.6739 N   0  0  0  0  0  0  0  0  0  0  0  0
    8.3341  -17.8325   21.1537 C   0  0  0  0  0  0  0  0  0  0  0  0
    9.4628  -17.6285   20.6426 O   0  0  0  0  0  0  0  0  0  0  0  0
    7.8460  -13.0622   22.0695 C   0  0  0  0  0  0  0  0  0  0  0  0
    7.1610  -14.3913   21.8029 C   0  0  1  0  0  0  0  0  0  0  0  0
    6.5699  -14.3393   20.4411 C   0  0  0  0  0  0  0  0  0  0  0  0
    8.1196  -15.4887   22.0579 C   0  0  2  0  0  0  0  0  0  0  0  0
    7.6228  -16.8245   21.8529 N   0  0  0  0  0  0  0  0  0  0  0  0
    8.8305  -15.4192   23.3640 C   0  0  0  0  0  0  0  0  0  0  0  0
    9.6865  -14.5251   23.5279 O   0  0  0  0  0  0  0  0  0  0  0  0
    6.0132  -10.8211   26.4709 O   0  0  0  0  0  0  0  0  0  0  0  0
    6.6129  -12.0768   26.5560 C   0  0  0  0  0  0  0  0  0  0  0  0
    5.9197  -13.2231   26.2527 C   0  0  0  0  0  0  0  0  0  0  0  0
    6.5045  -14.4569   26.3349 C   0  0  0  0  0  0  0  0  0  0  0  0
    7.8054  -14.6021   26.7233 C   0  0  0  0  0  0  0  0  0  0  0  0
    8.4504  -15.9231   26.8234 C   0  0  0  0  0  0  0  0  0  0  0  0
    9.3448  -16.1754   25.6633 C   0  0  2  0  0  0  0  0  0  0  0  0
    8.5802  -16.3166   24.4224 N   0  0  0  0  0  0  0  0  0  0  0  0
   10.1840  -17.3697   25.8711 C   0  0  0  0  0  0  0  0  0  0  0  0
   10.2356  -18.3597   25.1143 O   0  0  0  0  0  0  0  0  0  0  0  0
    8.5220  -13.4553   27.0338 C   0  0  0  0  0  0  0  0  0  0  0  0
    7.9352  -12.2228   26.9507 C   0  0  0  0  0  0  0  0  0  0  0  0
   11.0041  -17.4105   27.0197 O   0  0  0  0  0  0  0  0  0  0  0  0
  1  2  1  0
  3  2  1  0
  3  5  1  0
  3  4  1  6
  5  6  2  0
  8  7  1  6
  8 10  1  0
  8  9  1  0
 10 11  1  1
 11  5  1  0
 12 21  1  0
 12 10  1  0
 13 12  2  0
 15 25  2  0
 15 14  1  0
 16 15  1  0
 17 18  1  0
 17 16  2  0
 18 24  2  0
 19 18  1  0
 20 21  1  0
 20 19  1  1
 22 20  1  0
 23 22  2  0
 24 25  1  0
 26 22  1  0
M  END
$$$$
