SVY.pdb
     RDKit          3D

 26 26  0  0  1  0  0  0  0  0999 V2000
    7.6876  -20.1609   20.4802 O   0  0  0  0  0  0  0  0  0  0  0  0
    8.7288  -19.2347   20.5781 C   0  0  0  0  0  0  0  0  0  0  0  0
    8.4246  -18.1317   19.5884 C   0  0  2  0  0  0  0  0  0  0  0  0
    8.9498  -18.5256   18.3121 N   0  0  0  0  0  0  0  0  0  0  0  0
    9.0162  -16.8308   20.0328 C   0  0  0  0  0  0  0  0  0  0  0  0
   10.1722  -16.5645   19.6213 O   0  0  0  0  0  0  0  0  0  0  0  0
    7.5631  -13.4110   19.4894 C   0  0  0  0  0  0  0  0  0  0  0  0
    7.7922  -13.5301   20.9861 C   0  0  1  0  0  0  0  0  0  0  0  0
    6.4663  -13.6346   21.6477 C   0  0  0  0  0  0  0  0  0  0  0  0
    8.7399  -14.6364   21.2433 C   0  0  2  0  0  0  0  0  0  0  0  0
    8.2895  -15.9545   20.8784 N   0  0  0  0  0  0  0  0  0  0  0  0
    9.3163  -14.6718   22.6155 C   0  0  0  0  0  0  0  0  0  0  0  0
    9.5178  -13.5889   23.2034 O   0  0  0  0  0  0  0  0  0  0  0  0
    6.5409  -10.8713   27.1987 O   0  0  0  0  0  0  0  0  0  0  0  0
    6.8612  -12.1062   26.6364 C   0  0  0  0  0  0  0  0  0  0  0  0
    5.9656  -12.7883   25.8495 C   0  0  0  0  0  0  0  0  0  0  0  0
    6.2761  -14.0000   25.2961 C   0  0  0  0  0  0  0  0  0  0  0  0
    7.4925  -14.5848   25.5029 C   0  0  0  0  0  0  0  0  0  0  0  0
    7.8427  -15.8920   24.9198 C   0  0  0  0  0  0  0  0  0  0  0  0
    9.3078  -16.0081   24.6980 C   0  0  2  0  0  0  0  0  0  0  0  0
    9.6439  -15.8719   23.2792 N   0  0  0  0  0  0  0  0  0  0  0  0
    9.8387  -17.2821   25.2165 C   0  0  0  0  0  0  0  0  0  0  0  0
   10.1380  -18.2769   24.5264 O   0  0  0  0  0  0  0  0  0  0  0  0
    8.4106  -13.9107   26.2951 C   0  0  0  0  0  0  0  0  0  0  0  0
    8.0980  -12.6992   26.8473 C   0  0  0  0  0  0  0  0  0  0  0  0
   10.0299  -17.4010   26.6104 O   0  0  0  0  0  0  0  0  0  0  0  0
  1  2  1  0
  3  2  1  0
  3  5  1  0
  3  4  1  6
  5  6  2  0
  8  7  1  6
  8 10  1  0
  8  9  1  0
 10 11  1  1
 11  5  1  0
 12 21  1  0
 12 10  1  0
 13 12  2  0
 15 25  2  0
 15 14  1  0
 16 15  1  0
 17 18  1  0
 17 16  2  0
 18 24  2  0
 19 18  1  0
 20 21  1  0
 20 19  1  6
 22 20  1  0
 23 22  2  0
 24 25  1  0
 26 22  1  0
M  END
$$$$
