SVY.pdb
     RDKit          3D

 26 26  0  0  1  0  0  0  0  0999 V2000
    8.4340  -19.0178   20.1605 O   0  0  0  0  0  0  0  0  0  0  0  0
    9.2427  -18.8902   19.0285 C   0  0  0  0  0  0  0  0  0  0  0  0
    9.0644  -17.4753   18.5235 C   0  0  2  0  0  0  0  0  0  0  0  0
    9.8956  -17.3113   17.3650 N   0  0  0  0  0  0  0  0  0  0  0  0
    9.4169  -16.4771   19.5815 C   0  0  0  0  0  0  0  0  0  0  0  0
   10.6365  -16.2200   19.7334 O   0  0  0  0  0  0  0  0  0  0  0  0
    8.0025  -12.9774   19.8890 C   0  0  0  0  0  0  0  0  0  0  0  0
    7.8071  -13.6271   21.2480 C   0  0  1  0  0  0  0  0  0  0  0  0
    6.3512  -13.8408   21.4509 C   0  0  0  0  0  0  0  0  0  0  0  0
    8.6629  -14.8305   21.3356 C   0  0  2  0  0  0  0  0  0  0  0  0
    8.4070  -15.8623   20.3643 N   0  0  0  0  0  0  0  0  0  0  0  0
    8.7644  -15.4393   22.6904 C   0  0  0  0  0  0  0  0  0  0  0  0
    8.0933  -16.4638   22.9332 O   0  0  0  0  0  0  0  0  0  0  0  0
    5.6472  -10.8170   26.6655 O   0  0  0  0  0  0  0  0  0  0  0  0
    6.2714  -12.0315   26.3847 C   0  0  0  0  0  0  0  0  0  0  0  0
    7.5808  -12.2602   26.7307 C   0  0  0  0  0  0  0  0  0  0  0  0
    8.1967  -13.4504   26.4569 C   0  0  0  0  0  0  0  0  0  0  0  0
    7.5346  -14.4645   25.8262 C   0  0  0  0  0  0  0  0  0  0  0  0
    8.1833  -15.7511   25.5179 C   0  0  0  0  0  0  0  0  0  0  0  0
    9.5717  -15.5506   25.0267 C   0  0  2  0  0  0  0  0  0  0  0  0
    9.5833  -14.9111   23.7094 N   0  0  0  0  0  0  0  0  0  0  0  0
   10.3195  -16.8201   24.9718 C   0  0  0  0  0  0  0  0  0  0  0  0
   10.7895  -17.3401   23.9403 O   0  0  0  0  0  0  0  0  0  0  0  0
    6.2109  -14.2521   25.4690 C   0  0  0  0  0  0  0  0  0  0  0  0
    5.5972  -13.0613   25.7439 C   0  0  0  0  0  0  0  0  0  0  0  0
   10.5291  -17.5175   26.1814 O   0  0  0  0  0  0  0  0  0  0  0  0
  1  2  1  0
  3  2  1  0
  3  5  1  0
  3  4  1  6
  5  6  2  0
  8  7  1  6
  8 10  1  0
  8  9  1  0
 10 11  1  6
 11  5  1  0
 12 21  1  0
 12 10  1  0
 13 12  2  0
 15 25  2  0
 15 14  1  0
 16 15  1  0
 17 18  1  0
 17 16  2  0
 18 24  2  0
 19 18  1  0
 20 21  1  0
 20 19  1  6
 22 20  1  0
 23 22  2  0
 24 25  1  0
 26 22  1  0
M  END
$$$$
