SVY.pdb
     RDKit          3D

 26 26  0  0  1  0  0  0  0  0999 V2000
    8.8473  -19.1003   20.2279 O   0  0  0  0  0  0  0  0  0  0  0  0
    9.7496  -18.9955   19.1666 C   0  0  0  0  0  0  0  0  0  0  0  0
    9.5051  -17.6504   18.5187 C   0  0  2  0  0  0  0  0  0  0  0  0
   10.4472  -17.4983   17.4467 N   0  0  0  0  0  0  0  0  0  0  0  0
    9.6414  -16.5405   19.5133 C   0  0  0  0  0  0  0  0  0  0  0  0
   10.8069  -16.2429   19.8734 O   0  0  0  0  0  0  0  0  0  0  0  0
    7.5824  -13.1761   19.3328 C   0  0  0  0  0  0  0  0  0  0  0  0
    7.5126  -13.7186   20.7497 C   0  0  1  0  0  0  0  0  0  0  0  0
    6.1138  -14.1449   21.0109 C   0  0  0  0  0  0  0  0  0  0  0  0
    8.5546  -14.7544   20.9224 C   0  0  2  0  0  0  0  0  0  0  0  0
    8.4966  -15.8694   20.0131 N   0  0  0  0  0  0  0  0  0  0  0  0
    8.7246  -15.2573   22.3132 C   0  0  0  0  0  0  0  0  0  0  0  0
    8.3168  -16.4059   22.5838 O   0  0  0  0  0  0  0  0  0  0  0  0
   10.6058  -16.4310   30.7813 O   0  0  0  0  0  0  0  0  0  0  0  0
   10.4984  -15.8791   29.5056 C   0  0  0  0  0  0  0  0  0  0  0  0
   11.0895  -16.4724   28.4170 C   0  0  0  0  0  0  0  0  0  0  0  0
   10.9864  -15.9340   27.1637 C   0  0  0  0  0  0  0  0  0  0  0  0
   10.2900  -14.7809   26.9409 C   0  0  0  0  0  0  0  0  0  0  0  0
   10.1729  -14.1831   25.5992 C   0  0  0  0  0  0  0  0  0  0  0  0
    9.3748  -15.0483   24.6915 C   0  0  2  0  0  0  0  0  0  0  0  0
    9.3248  -14.4952   23.3365 N   0  0  0  0  0  0  0  0  0  0  0  0
    8.0054  -15.2533   25.1978 C   0  0  0  0  0  0  0  0  0  0  0  0
    7.6346  -16.1983   25.9223 O   0  0  0  0  0  0  0  0  0  0  0  0
    9.6857  -14.1670   28.0286 C   0  0  0  0  0  0  0  0  0  0  0  0
    9.7901  -14.7072   29.2806 C   0  0  0  0  0  0  0  0  0  0  0  0
    7.0194  -14.3079   24.8406 O   0  0  0  0  0  0  0  0  0  0  0  0
  1  2  1  0
  3  2  1  0
  3  5  1  0
  3  4  1  6
  5  6  2  0
  8  7  1  6
  8 10  1  0
  8  9  1  0
 10 11  1  6
 11  5  1  0
 12 21  1  0
 12 10  1  0
 13 12  2  0
 15 25  2  0
 15 14  1  0
 16 15  1  0
 17 18  1  0
 17 16  2  0
 18 24  2  0
 19 18  1  0
 20 21  1  0
 20 19  1  1
 22 20  1  0
 23 22  2  0
 24 25  1  0
 26 22  1  0
M  END
$$$$
