SVY.pdb
     RDKit          3D

 26 26  0  0  1  0  0  0  0  0999 V2000
    7.8989  -18.9087   22.1486 O   0  0  0  0  0  0  0  0  0  0  0  0
    6.7335  -18.8318   21.3821 C   0  0  0  0  0  0  0  0  0  0  0  0
    7.0903  -18.0738   20.1224 C   0  0  2  0  0  0  0  0  0  0  0  0
    7.6107  -19.0152   19.1724 N   0  0  0  0  0  0  0  0  0  0  0  0
    8.0864  -16.9938   20.4073 C   0  0  0  0  0  0  0  0  0  0  0  0
    9.2830  -17.2355   20.1135 O   0  0  0  0  0  0  0  0  0  0  0  0
    7.4517  -13.2540   19.7119 C   0  0  0  0  0  0  0  0  0  0  0  0
    8.0919  -13.3233   21.0875 C   0  0  1  0  0  0  0  0  0  0  0  0
    7.1155  -12.7984   22.0765 C   0  0  0  0  0  0  0  0  0  0  0  0
    8.5852  -14.6980   21.3223 C   0  0  2  0  0  0  0  0  0  0  0  0
    7.6783  -15.7634   20.9820 N   0  0  0  0  0  0  0  0  0  0  0  0
    9.1548  -14.9450   22.6753 C   0  0  0  0  0  0  0  0  0  0  0  0
   10.1022  -14.2290   23.0610 O   0  0  0  0  0  0  0  0  0  0  0  0
    6.5572  -10.6295   26.7220 O   0  0  0  0  0  0  0  0  0  0  0  0
    6.9666  -11.9477   26.5262 C   0  0  0  0  0  0  0  0  0  0  0  0
    6.0942  -12.9089   26.0773 C   0  0  0  0  0  0  0  0  0  0  0  0
    6.4920  -14.2033   25.8840 C   0  0  0  0  0  0  0  0  0  0  0  0
    7.7765  -14.5961   26.1298 C   0  0  0  0  0  0  0  0  0  0  0  0
    8.2217  -15.9868   25.9330 C   0  0  0  0  0  0  0  0  0  0  0  0
    9.2610  -16.0752   24.8740 C   0  0  2  0  0  0  0  0  0  0  0  0
    8.6726  -15.9500   23.5389 N   0  0  0  0  0  0  0  0  0  0  0  0
   10.0277  -17.3312   24.9657 C   0  0  0  0  0  0  0  0  0  0  0  0
   10.1096  -18.1970   24.0718 O   0  0  0  0  0  0  0  0  0  0  0  0
    8.6723  -13.6389   26.5838 C   0  0  0  0  0  0  0  0  0  0  0  0
    8.2723  -12.3454   26.7763 C   0  0  0  0  0  0  0  0  0  0  0  0
   10.7341  -17.5896   26.1605 O   0  0  0  0  0  0  0  0  0  0  0  0
  1  2  1  0
  3  2  1  0
  3  5  1  0
  3  4  1  6
  5  6  2  0
  8  7  1  6
  8 10  1  0
  8  9  1  0
 10 11  1  1
 11  5  1  0
 12 21  1  0
 12 10  1  0
 13 12  2  0
 15 25  2  0
 15 14  1  0
 16 15  1  0
 17 18  1  0
 17 16  2  0
 18 24  2  0
 19 18  1  0
 20 21  1  0
 20 19  1  1
 22 20  1  0
 23 22  2  0
 24 25  1  0
 26 22  1  0
M  END
$$$$
