SVY.pdb
     RDKit          3D

 26 26  0  0  1  0  0  0  0  0999 V2000
    5.4275  -18.8746   23.0988 O   0  0  0  0  0  0  0  0  0  0  0  0
    5.5805  -19.6777   21.9660 C   0  0  0  0  0  0  0  0  0  0  0  0
    5.7993  -18.7434   20.7964 C   0  0  2  0  0  0  0  0  0  0  0  0
    5.9635  -19.5433   19.6162 N   0  0  0  0  0  0  0  0  0  0  0  0
    6.9929  -17.8689   21.0213 C   0  0  0  0  0  0  0  0  0  0  0  0
    8.1188  -18.4217   20.9629 O   0  0  0  0  0  0  0  0  0  0  0  0
    6.4767  -13.6714   21.9670 C   0  0  0  0  0  0  0  0  0  0  0  0
    7.7525  -14.1823   21.3201 C   0  0  1  0  0  0  0  0  0  0  0  0
    8.8629  -13.2781   21.7153 C   0  0  0  0  0  0  0  0  0  0  0  0
    7.9241  -15.6131   21.6543 C   0  0  2  0  0  0  0  0  0  0  0  0
    6.8385  -16.4844   21.2863 N   0  0  0  0  0  0  0  0  0  0  0  0
    8.3291  -15.8920   23.0594 C   0  0  0  0  0  0  0  0  0  0  0  0
    7.4505  -15.8716   23.9463 O   0  0  0  0  0  0  0  0  0  0  0  0
   11.4080  -22.2254   22.7779 O   0  0  0  0  0  0  0  0  0  0  0  0
   10.8905  -21.0970   23.4124 C   0  0  0  0  0  0  0  0  0  0  0  0
    9.5772  -20.7267   23.2554 C   0  0  0  0  0  0  0  0  0  0  0  0
    9.0657  -19.6203   23.8762 C   0  0  0  0  0  0  0  0  0  0  0  0
    9.8408  -18.8348   24.6803 C   0  0  0  0  0  0  0  0  0  0  0  0
    9.3089  -17.6362   25.3524 C   0  0  0  0  0  0  0  0  0  0  0  0
    9.9624  -16.4004   24.8474 C   0  0  2  0  0  0  0  0  0  0  0  0
    9.6586  -16.1778   23.4323 N   0  0  0  0  0  0  0  0  0  0  0  0
   11.4231  -16.4361   25.0447 C   0  0  0  0  0  0  0  0  0  0  0  0
   12.0029  -16.6409   26.1297 O   0  0  0  0  0  0  0  0  0  0  0  0
   11.1702  -19.1931   24.8511 C   0  0  0  0  0  0  0  0  0  0  0  0
   11.6793  -20.2997   24.2295 C   0  0  0  0  0  0  0  0  0  0  0  0
   12.2483  -16.2221   23.9191 O   0  0  0  0  0  0  0  0  0  0  0  0
  1  2  1  0
  3  2  1  0
  3  5  1  0
  3  4  1  6
  5  6  2  0
  8  7  1  1
  8 10  1  0
  8  9  1  0
 10 11  1  1
 11  5  1  0
 12 21  1  0
 12 10  1  0
 13 12  2  0
 15 25  2  0
 15 14  1  0
 16 15  1  0
 17 18  1  0
 17 16  2  0
 18 24  2  0
 19 18  1  0
 20 21  1  0
 20 19  1  6
 22 20  1  0
 23 22  2  0
 24 25  1  0
 26 22  1  0
M  END
$$$$
