NQL.pdb
     RDKit          3D

 26 25  0  0  1  0  0  0  0  0999 V2000
   16.7182  -23.0750  -13.0598 N   0  0  0  0  0  0  0  0  0  0  0  0
   17.6245  -24.1432  -13.2324 C   0  0  0  0  0  0  0  0  0  0  0  0
   17.2369  -25.3109  -13.0060 O   0  0  0  0  0  0  0  0  0  0  0  0
   19.0088  -23.9010  -13.6721 C   0  0  0  0  0  0  0  0  0  0  0  0
   19.2915  -22.4165  -13.8546 C   0  0  2  0  0  0  0  0  0  0  0  0
   18.3272  -21.8572  -14.7688 N   0  0  0  0  0  0  0  0  0  0  0  0
   20.6457  -22.1894  -14.3814 C   0  0  0  0  0  0  0  0  0  0  0  0
   21.5963  -22.8802  -13.9761 O   0  0  0  0  0  0  0  0  0  0  0  0
   22.1016  -18.9106  -19.5758 N   0  0  0  0  0  0  0  0  0  0  0  0
   23.3897  -19.2761  -19.1196 C   0  0  0  0  0  0  0  0  0  0  0  0
   24.3839  -18.9984  -19.8215 O   0  0  0  0  0  0  0  0  0  0  0  0
   23.5468  -19.9623  -17.8436 C   0  0  0  0  0  0  0  0  0  0  0  0
   22.2611  -20.2443  -17.1824 C   0  0  0  0  0  0  0  0  0  0  0  0
   22.2532  -20.9953  -15.9066 C   0  0  2  0  0  0  0  0  0  0  0  0
   20.9459  -21.1935  -15.3604 N   0  0  0  0  0  0  0  0  0  0  0  0
   23.2203  -20.4737  -14.9053 C   0  0  0  0  0  0  0  0  0  0  0  0
   22.8907  -19.5558  -14.1019 O   0  0  0  0  0  0  0  0  0  0  0  0
   25.9790  -22.2544  -10.3892 C   0  0  0  0  0  0  0  0  0  0  0  0
   25.9953  -21.0649  -11.3293 C   0  0  2  0  0  0  0  0  0  0  0  0
   25.9607  -19.7990  -10.5692 C   0  0  0  0  0  0  0  0  0  0  0  0
   25.1262  -21.2113  -12.5119 C   0  0  0  0  0  0  0  0  0  0  0  0
   25.4847  -20.5284  -13.7749 C   0  0  2  0  0  0  0  0  0  0  0  0
   24.5326  -20.9811  -14.8160 N   0  0  0  0  0  0  0  0  0  0  0  0
   26.8132  -20.8942  -14.2905 C   0  0  0  0  0  0  0  0  0  0  0  0
   27.9615  -20.1150  -14.1917 O   0  0  0  0  0  0  0  0  0  0  0  0
   27.0170  -22.0098  -14.9015 O   0  0  0  0  0  0  0  0  0  0  0  0
  2  4  1  0
  2  1  1  0
  3  2  2  0
  5  7  1  0
  5  4  1  0
  5  6  1  6
  7  8  2  0
 10  9  1  0
 10 12  1  0
 11 10  2  0
 13 12  1  0
 14 13  1  6
 15 14  1  0
 15  7  1  0
 16 14  1  0
 17 16  2  0
 19 18  1  1
 19 21  1  0
 20 19  1  0
 22 21  1  1
 22 23  1  0
 22 24  1  0
 23 16  1  0
 24 25  1  0
 26 24  2  0
M  END
$$$$
