NQL.pdb
     RDKit          3D

 26 25  0  0  1  0  0  0  0  0999 V2000
   20.3583  -17.7390  -17.1154 N   0  0  0  0  0  0  0  0  0  0  0  0
   19.6413  -16.5893  -17.5108 C   0  0  0  0  0  0  0  0  0  0  0  0
   18.4201  -16.6920  -17.7622 O   0  0  0  0  0  0  0  0  0  0  0  0
   20.3084  -15.2820  -17.6297 C   0  0  0  0  0  0  0  0  0  0  0  0
   19.9641  -14.5898  -18.9410 C   0  0  2  0  0  0  0  0  0  0  0  0
   20.5546  -15.3209  -20.0344 N   0  0  0  0  0  0  0  0  0  0  0  0
   20.4588  -13.2050  -18.9621 C   0  0  0  0  0  0  0  0  0  0  0  0
   21.5572  -12.9430  -19.4817 O   0  0  0  0  0  0  0  0  0  0  0  0
   19.8668   -7.7382  -20.4920 N   0  0  0  0  0  0  0  0  0  0  0  0
   18.9619   -8.7161  -20.9677 C   0  0  0  0  0  0  0  0  0  0  0  0
   18.5291   -8.6261  -22.1351 O   0  0  0  0  0  0  0  0  0  0  0  0
   18.5497   -9.8141  -20.1028 C   0  0  0  0  0  0  0  0  0  0  0  0
   19.1767   -9.7611  -18.7709 C   0  0  0  0  0  0  0  0  0  0  0  0
   20.2112  -10.7597  -18.4183 C   0  0  2  0  0  0  0  0  0  0  0  0
   19.7328  -12.1080  -18.4054 N   0  0  0  0  0  0  0  0  0  0  0  0
   20.9787  -10.4115  -17.1937 C   0  0  0  0  0  0  0  0  0  0  0  0
   20.7293  -10.9739  -16.0899 O   0  0  0  0  0  0  0  0  0  0  0  0
   26.6198  -10.0698  -15.7218 C   0  0  0  0  0  0  0  0  0  0  0  0
   25.2328   -9.6724  -15.2558 C   0  0  2  0  0  0  0  0  0  0  0  0
   24.9297  -10.2793  -13.9438 C   0  0  0  0  0  0  0  0  0  0  0  0
   24.2033   -9.7038  -16.3116 C   0  0  0  0  0  0  0  0  0  0  0  0
   22.8530   -9.1646  -16.0360 C   0  0  2  0  0  0  0  0  0  0  0  0
   22.0067   -9.4471  -17.2189 N   0  0  0  0  0  0  0  0  0  0  0  0
   22.8181   -7.7016  -15.8850 C   0  0  0  0  0  0  0  0  0  0  0  0
   22.7072   -7.0155  -14.6798 O   0  0  0  0  0  0  0  0  0  0  0  0
   22.8863   -6.9155  -16.9033 O   0  0  0  0  0  0  0  0  0  0  0  0
  2  4  1  0
  2  1  1  0
  3  2  2  0
  5  7  1  0
  5  4  1  0
  5  6  1  6
  7  8  2  0
 10  9  1  0
 10 12  1  0
 11 10  2  0
 13 12  1  0
 14 13  1  1
 15 14  1  0
 15  7  1  0
 16 14  1  0
 17 16  2  0
 19 18  1  6
 19 21  1  0
 20 19  1  0
 22 21  1  6
 22 23  1  0
 22 24  1  0
 23 16  1  0
 24 25  1  0
 26 24  2  0
M  END
$$$$
