NQL.pdb
     RDKit          3D

 26 25  0  0  1  0  0  0  0  0999 V2000
   29.5950  -22.1255  -18.3319 N   0  0  0  0  0  0  0  0  0  0  0  0
   29.1238  -22.6532  -17.1105 C   0  0  0  0  0  0  0  0  0  0  0  0
   29.5664  -23.7541  -16.7138 O   0  0  0  0  0  0  0  0  0  0  0  0
   28.1262  -21.9293  -16.3050 C   0  0  0  0  0  0  0  0  0  0  0  0
   27.6108  -20.6908  -17.0245 C   0  0  2  0  0  0  0  0  0  0  0  0
   28.6814  -19.7334  -17.1502 N   0  0  0  0  0  0  0  0  0  0  0  0
   26.4930  -20.0733  -16.2951 C   0  0  0  0  0  0  0  0  0  0  0  0
   26.7083  -19.4257  -15.2562 O   0  0  0  0  0  0  0  0  0  0  0  0
   20.8916  -18.4068  -18.5028 N   0  0  0  0  0  0  0  0  0  0  0  0
   20.6912  -18.2029  -17.1173 C   0  0  0  0  0  0  0  0  0  0  0  0
   19.6191  -17.6966  -16.7269 O   0  0  0  0  0  0  0  0  0  0  0  0
   21.7245  -18.5866  -16.1641 C   0  0  0  0  0  0  0  0  0  0  0  0
   22.9252  -19.1412  -16.8127 C   0  0  0  0  0  0  0  0  0  0  0  0
   24.0333  -19.6471  -15.9713 C   0  0  2  0  0  0  0  0  0  0  0  0
   25.1328  -20.1747  -16.7194 N   0  0  0  0  0  0  0  0  0  0  0  0
   23.5858  -20.5609  -14.8875 C   0  0  0  0  0  0  0  0  0  0  0  0
   23.3060  -21.7688  -15.1315 O   0  0  0  0  0  0  0  0  0  0  0  0
   25.7163  -22.0058  -11.2247 C   0  0  0  0  0  0  0  0  0  0  0  0
   25.1587  -20.6135  -11.0026 C   0  0  2  0  0  0  0  0  0  0  0  0
   25.7604  -19.9960   -9.8034 C   0  0  0  0  0  0  0  0  0  0  0  0
   23.7027  -20.5003  -11.2093 C   0  0  0  0  0  0  0  0  0  0  0  0
   23.0942  -21.0317  -12.4493 C   0  0  2  0  0  0  0  0  0  0  0  0
   23.4579  -20.1160  -13.5559 N   0  0  0  0  0  0  0  0  0  0  0  0
   21.6232  -21.0401  -12.4315 C   0  0  0  0  0  0  0  0  0  0  0  0
   20.8251  -22.1226  -12.0754 O   0  0  0  0  0  0  0  0  0  0  0  0
   20.9375  -20.0013  -12.7634 O   0  0  0  0  0  0  0  0  0  0  0  0
  2  4  1  0
  2  1  1  0
  3  2  2  0
  5  7  1  0
  5  4  1  0
  5  6  1  1
  7  8  2  0
 10  9  1  0
 10 12  1  0
 11 10  2  0
 13 12  1  0
 14 13  1  6
 15 14  1  0
 15  7  1  0
 16 14  1  0
 17 16  2  0
 19 18  1  1
 19 21  1  0
 20 19  1  0
 22 21  1  1
 22 23  1  0
 22 24  1  0
 23 16  1  0
 24 25  1  0
 26 24  2  0
M  END
$$$$
