NQL.pdb
     RDKit          3D

 26 25  0  0  1  0  0  0  0  0999 V2000
   17.0432  -16.2544  -15.7477 N   0  0  0  0  0  0  0  0  0  0  0  0
   18.3743  -15.8447  -15.5188 C   0  0  0  0  0  0  0  0  0  0  0  0
   19.0993  -16.5301  -14.7642 O   0  0  0  0  0  0  0  0  0  0  0  0
   18.9146  -14.6303  -16.1527 C   0  0  0  0  0  0  0  0  0  0  0  0
   17.8356  -13.8515  -16.8917 C   0  0  2  0  0  0  0  0  0  0  0  0
   17.5614  -14.4967  -18.1515 N   0  0  0  0  0  0  0  0  0  0  0  0
   18.2516  -12.4629  -17.1400 C   0  0  0  0  0  0  0  0  0  0  0  0
   18.9946  -12.1968  -18.1004 O   0  0  0  0  0  0  0  0  0  0  0  0
   13.6720   -8.9970  -18.3487 N   0  0  0  0  0  0  0  0  0  0  0  0
   14.8147   -8.7166  -17.5633 C   0  0  0  0  0  0  0  0  0  0  0  0
   14.7734   -7.7737  -16.7463 O   0  0  0  0  0  0  0  0  0  0  0  0
   16.0182   -9.5256  -17.7071 C   0  0  0  0  0  0  0  0  0  0  0  0
   17.1090   -9.0937  -16.8164 C   0  0  0  0  0  0  0  0  0  0  0  0
   18.2402  -10.0135  -16.5597 C   0  0  2  0  0  0  0  0  0  0  0  0
   17.8423  -11.3668  -16.3206 N   0  0  0  0  0  0  0  0  0  0  0  0
   19.1961   -9.5079  -15.5396 C   0  0  0  0  0  0  0  0  0  0  0  0
   18.9153   -9.5532  -14.3084 O   0  0  0  0  0  0  0  0  0  0  0  0
   22.9088  -10.9856  -13.9171 C   0  0  0  0  0  0  0  0  0  0  0  0
   23.1725  -10.3581  -15.2719 C   0  0  2  0  0  0  0  0  0  0  0  0
   24.4941  -10.7682  -15.7883 C   0  0  0  0  0  0  0  0  0  0  0  0
   22.7740   -8.9418  -15.3751 C   0  0  0  0  0  0  0  0  0  0  0  0
   21.4373   -8.5192  -14.9009 C   0  0  2  0  0  0  0  0  0  0  0  0
   20.4434   -8.9626  -15.9064 N   0  0  0  0  0  0  0  0  0  0  0  0
   21.2707   -7.0597  -14.8204 C   0  0  0  0  0  0  0  0  0  0  0  0
   20.4877   -6.2872  -15.6722 O   0  0  0  0  0  0  0  0  0  0  0  0
   21.8677   -6.3603  -13.9183 O   0  0  0  0  0  0  0  0  0  0  0  0
  2  4  1  0
  2  1  1  0
  3  2  2  0
  5  7  1  0
  5  4  1  0
  5  6  1  6
  7  8  2  0
 10  9  1  0
 10 12  1  0
 11 10  2  0
 13 12  1  0
 14 13  1  1
 15 14  1  0
 15  7  1  0
 16 14  1  0
 17 16  2  0
 19 18  1  1
 19 21  1  0
 20 19  1  0
 22 21  1  6
 22 23  1  0
 22 24  1  0
 23 16  1  0
 24 25  1  0
 26 24  2  0
M  END
$$$$
