NQL.pdb
     RDKit          3D

 26 25  0  0  1  0  0  0  0  0999 V2000
   19.7459  -16.9733  -16.4239 N   0  0  0  0  0  0  0  0  0  0  0  0
   18.7766  -15.9559  -16.5573 C   0  0  0  0  0  0  0  0  0  0  0  0
   17.5745  -16.2762  -16.6887 O   0  0  0  0  0  0  0  0  0  0  0  0
   19.1609  -14.5345  -16.5438 C   0  0  0  0  0  0  0  0  0  0  0  0
   18.4737  -13.7534  -17.6549 C   0  0  2  0  0  0  0  0  0  0  0  0
   19.0025  -14.1729  -18.9288 N   0  0  0  0  0  0  0  0  0  0  0  0
   18.6797  -12.3056  -17.4989 C   0  0  0  0  0  0  0  0  0  0  0  0
   19.6989  -11.7671  -17.9641 O   0  0  0  0  0  0  0  0  0  0  0  0
   14.2736  -10.0503  -15.4339 N   0  0  0  0  0  0  0  0  0  0  0  0
   14.3590   -9.7501  -16.8136 C   0  0  0  0  0  0  0  0  0  0  0  0
   13.3286   -9.8189  -17.5149 O   0  0  0  0  0  0  0  0  0  0  0  0
   15.6349   -9.3610  -17.4003 C   0  0  0  0  0  0  0  0  0  0  0  0
   16.7214   -9.2820  -16.4088 C   0  0  0  0  0  0  0  0  0  0  0  0
   17.9658  -10.0510  -16.6366 C   0  0  2  0  0  0  0  0  0  0  0  0
   17.7527  -11.4531  -16.8249 N   0  0  0  0  0  0  0  0  0  0  0  0
   19.0325   -9.7613  -15.6425 C   0  0  0  0  0  0  0  0  0  0  0  0
   19.3528  -10.6146  -14.7673 O   0  0  0  0  0  0  0  0  0  0  0  0
   22.7770  -10.2005  -13.6410 C   0  0  0  0  0  0  0  0  0  0  0  0
   22.7406  -10.3202  -15.1521 C   0  0  2  0  0  0  0  0  0  0  0  0
   24.0643  -10.7135  -15.6760 C   0  0  0  0  0  0  0  0  0  0  0  0
   21.9957   -9.2432  -15.8306 C   0  0  0  0  0  0  0  0  0  0  0  0
   21.0740   -8.3857  -15.0525 C   0  0  2  0  0  0  0  0  0  0  0  0
   19.7216   -8.5314  -15.6400 N   0  0  0  0  0  0  0  0  0  0  0  0
   21.3769   -6.9493  -15.1488 C   0  0  0  0  0  0  0  0  0  0  0  0
   22.0523   -6.1994  -14.1912 O   0  0  0  0  0  0  0  0  0  0  0  0
   21.0190   -6.2503  -16.1700 O   0  0  0  0  0  0  0  0  0  0  0  0
  2  4  1  0
  2  1  1  0
  3  2  2  0
  5  7  1  0
  5  4  1  0
  5  6  1  6
  7  8  2  0
 10  9  1  0
 10 12  1  0
 11 10  2  0
 13 12  1  0
 14 13  1  1
 15 14  1  0
 15  7  1  0
 16 14  1  0
 17 16  2  0
 19 18  1  1
 19 21  1  0
 20 19  1  0
 22 21  1  6
 22 23  1  0
 22 24  1  0
 23 16  1  0
 24 25  1  0
 26 24  2  0
M  END
$$$$
