NQL.pdb
     RDKit          3D

 26 25  0  0  1  0  0  0  0  0999 V2000
   13.9676  -24.5303   -2.9090 N   0  0  0  0  0  0  0  0  0  0  0  0
   13.6422  -24.1425   -1.5914 C   0  0  0  0  0  0  0  0  0  0  0  0
   12.5309  -24.4696   -1.1192 O   0  0  0  0  0  0  0  0  0  0  0  0
   14.5875  -23.3641   -0.7736 C   0  0  0  0  0  0  0  0  0  0  0  0
   13.9908  -22.0351   -0.3323 C   0  0  2  0  0  0  0  0  0  0  0  0
   13.8100  -21.1884   -1.4851 N   0  0  0  0  0  0  0  0  0  0  0  0
   14.8606  -21.3526    0.6375 C   0  0  0  0  0  0  0  0  0  0  0  0
   15.9783  -20.9362    0.2875 O   0  0  0  0  0  0  0  0  0  0  0  0
   13.3271  -17.1654    4.7845 N   0  0  0  0  0  0  0  0  0  0  0  0
   13.8371  -16.9232    3.4874 C   0  0  0  0  0  0  0  0  0  0  0  0
   13.6787  -15.7967    2.9733 O   0  0  0  0  0  0  0  0  0  0  0  0
   14.5420  -17.9774    2.7695 C   0  0  0  0  0  0  0  0  0  0  0  0
   14.6180  -19.2366    3.5298 C   0  0  0  0  0  0  0  0  0  0  0  0
   15.2994  -20.4050    2.9279 C   0  0  2  0  0  0  0  0  0  0  0  0
   14.4893  -21.1315    1.9989 N   0  0  0  0  0  0  0  0  0  0  0  0
   15.9582  -21.2871    3.9267 C   0  0  0  0  0  0  0  0  0  0  0  0
   15.4241  -22.3753    4.2837 O   0  0  0  0  0  0  0  0  0  0  0  0
   18.1207  -24.7215    4.6221 C   0  0  0  0  0  0  0  0  0  0  0  0
   18.9112  -23.5906    3.9935 C   0  0  2  0  0  0  0  0  0  0  0  0
   20.0974  -24.1139    3.2859 C   0  0  0  0  0  0  0  0  0  0  0  0
   19.0595  -22.4005    4.8520 C   0  0  0  0  0  0  0  0  0  0  0  0
   17.8678  -21.8125    5.5033 C   0  0  2  0  0  0  0  0  0  0  0  0
   17.1954  -20.9439    4.5088 N   0  0  0  0  0  0  0  0  0  0  0  0
   18.1866  -20.9226    6.6306 C   0  0  0  0  0  0  0  0  0  0  0  0
   18.5721  -21.3349    7.9021 O   0  0  0  0  0  0  0  0  0  0  0  0
   18.1247  -19.6409    6.5179 O   0  0  0  0  0  0  0  0  0  0  0  0
  2  4  1  0
  2  1  1  0
  3  2  2  0
  5  7  1  0
  5  4  1  0
  5  6  1  6
  7  8  2  0
 10  9  1  0
 10 12  1  0
 11 10  2  0
 13 12  1  0
 14 13  1  1
 15 14  1  0
 15  7  1  0
 16 14  1  0
 17 16  2  0
 19 18  1  1
 19 21  1  0
 20 19  1  0
 22 21  1  6
 22 23  1  0
 22 24  1  0
 23 16  1  0
 24 25  1  0
 26 24  2  0
M  END
$$$$
