NQL.pdb
     RDKit          3D

 26 25  0  0  1  0  0  0  0  0999 V2000
   29.5557  -19.4777  -17.7325 N   0  0  0  0  0  0  0  0  0  0  0  0
   28.2408  -19.0029  -17.9266 C   0  0  0  0  0  0  0  0  0  0  0  0
   28.0507  -18.0436  -18.7068 O   0  0  0  0  0  0  0  0  0  0  0  0
   27.1003  -19.6183  -17.2274 C   0  0  0  0  0  0  0  0  0  0  0  0
   27.5473  -20.7278  -16.2861 C   0  0  2  0  0  0  0  0  0  0  0  0
   27.8830  -21.8992  -17.0566 N   0  0  0  0  0  0  0  0  0  0  0  0
   26.4915  -21.0699  -15.3211 C   0  0  0  0  0  0  0  0  0  0  0  0
   25.5388  -21.7891  -15.6680 O   0  0  0  0  0  0  0  0  0  0  0  0
   24.8663  -21.2258   -8.1963 N   0  0  0  0  0  0  0  0  0  0  0  0
   25.1662  -20.3713   -9.2831 C   0  0  0  0  0  0  0  0  0  0  0  0
   25.8440  -19.3433   -9.0781 O   0  0  0  0  0  0  0  0  0  0  0  0
   24.6920  -20.6963  -10.6222 C   0  0  0  0  0  0  0  0  0  0  0  0
   25.7453  -20.5854  -11.6459 C   0  0  0  0  0  0  0  0  0  0  0  0
   25.4004  -20.8175  -13.0667 C   0  0  2  0  0  0  0  0  0  0  0  0
   26.4926  -20.6129  -13.9678 N   0  0  0  0  0  0  0  0  0  0  0  0
   24.1618  -20.1179  -13.4984 C   0  0  0  0  0  0  0  0  0  0  0  0
   24.2150  -18.9719  -14.0281 O   0  0  0  0  0  0  0  0  0  0  0  0
   20.8803  -18.4894  -16.3334 C   0  0  0  0  0  0  0  0  0  0  0  0
   21.8294  -19.6514  -16.5520 C   0  0  2  0  0  0  0  0  0  0  0  0
   21.7772  -20.1107  -17.9548 C   0  0  0  0  0  0  0  0  0  0  0  0
   21.8220  -20.6553  -15.4715 C   0  0  0  0  0  0  0  0  0  0  0  0
   21.6962  -20.2171  -14.0636 C   0  0  2  0  0  0  0  0  0  0  0  0
   22.8902  -20.7039  -13.3336 N   0  0  0  0  0  0  0  0  0  0  0  0
   20.5509  -20.8119  -13.3574 C   0  0  0  0  0  0  0  0  0  0  0  0
   19.2994  -20.2231  -13.2068 O   0  0  0  0  0  0  0  0  0  0  0  0
   20.6289  -21.9702  -12.7991 O   0  0  0  0  0  0  0  0  0  0  0  0
  2  4  1  0
  2  1  1  0
  3  2  2  0
  5  7  1  0
  5  4  1  0
  5  6  1  6
  7  8  2  0
 10  9  1  0
 10 12  1  0
 11 10  2  0
 13 12  1  0
 14 13  1  1
 15 14  1  0
 15  7  1  0
 16 14  1  0
 17 16  2  0
 19 18  1  1
 19 21  1  0
 20 19  1  0
 22 21  1  6
 22 23  1  0
 22 24  1  0
 23 16  1  0
 24 25  1  0
 26 24  2  0
M  END
$$$$
