RLT.pdb
     RDKit          3D

 27 26  0  0  1  0  0  0  0  0999 V2000
   16.4546  -23.0491  -11.2822 N   0  0  0  0  0  0  0  0  0  0  0  0
   16.9997  -24.3552  -11.3473 C   0  0  0  0  0  0  0  0  0  0  0  0
   16.2005  -25.3637  -11.4251 N   0  0  0  0  0  0  0  0  0  0  0  0
   18.4065  -24.5065  -11.3252 N   0  0  0  0  0  0  0  0  0  0  0  0
   19.2981  -23.4411  -11.6698 C   0  0  0  0  0  0  0  0  0  0  0  0
   19.1116  -22.9436  -13.1096 C   0  0  0  0  0  0  0  0  0  0  0  0
   20.3945  -22.3009  -13.5007 C   0  0  0  0  0  0  0  0  0  0  0  0
   20.7057  -21.0137  -12.8285 C   0  0  2  0  0  0  0  0  0  0  0  0
   19.6454  -20.0443  -13.0270 N   0  0  0  0  0  0  0  0  0  0  0  0
   21.9995  -20.4256  -13.1431 C   0  0  0  0  0  0  0  0  0  0  0  0
   22.0685  -19.3619  -13.8020 O   0  0  0  0  0  0  0  0  0  0  0  0
   16.5133  -26.3429  -11.5037 C   0  0  0  0  0  0  0  0  0  0  0  0
   27.9890  -21.5448  -11.7630 C   0  0  1  0  0  0  0  0  0  0  0  0
   26.9929  -20.8392  -12.6230 C   0  0  0  0  0  0  0  0  0  0  0  0
   27.1972  -19.3457  -12.4079 C   0  0  0  0  0  0  0  0  0  0  0  0
   25.6007  -21.1515  -12.1856 C   0  0  2  0  0  0  0  0  0  0  0  0
   24.5330  -20.4601  -13.0360 N   0  0  0  0  0  0  0  0  0  0  0  0
   23.2256  -21.0079  -12.7326 C   0  0  0  0  0  0  0  0  0  0  0  0
   24.8591  -20.8116  -14.4372 O   0  0  0  0  0  0  0  0  0  0  0  0
   24.9327  -22.0189  -14.7581 C   0  0  0  0  0  0  0  0  0  0  0  0
   23.0207  -20.2905  -17.5758 C   0  0  2  0  0  0  0  0  0  0  0  0
   24.3408  -19.5854  -17.7564 O   0  0  0  0  0  0  0  0  0  0  0  0
   24.1753  -18.2467  -17.4395 C   0  0  2  0  0  0  0  0  0  0  0  0
   25.3517  -20.2192  -16.8230 N   0  0  0  0  0  0  0  0  0  0  0  0
   25.0952  -19.8385  -15.4480 C   0  0  0  0  0  0  0  0  0  0  0  0
   26.7210  -19.7995  -17.2276 O   0  0  0  0  0  0  0  0  0  0  0  0
   27.4075  -19.0153  -16.5078 O   0  0  0  0  0  0  0  0  0  0  0  0
  2  1  1  0
  3  2  2  0
  4  2  1  0
  5  4  1  0
  6  5  1  0
  7  6  1  0
  8 10  1  0
  8  9  1  6
  8  7  1  0
 10 17  1  0
 10 11  2  0
 13 12  1  6
 13 14  1  0
 15 13  1  0
 16 15  1  1
 17 16  1  0
 18 16  1  0
 19 18  2  0
 21 20  1  6
 21 23  1  0
 21 22  1  0
 23 24  1  6
 24 18  1  0
 25 27  1  0
 25 23  1  0
 26 25  2  0
M  END
$$$$
