RLT.pdb
     RDKit          3D

 27 26  0  0  1  0  0  0  0  0999 V2000
   17.6685  -12.5224  -22.0010 N   0  0  0  0  0  0  0  0  0  0  0  0
   17.8122  -13.8521  -22.4684 C   0  0  0  0  0  0  0  0  0  0  0  0
   17.5435  -14.1145  -23.7016 N   0  0  0  0  0  0  0  0  0  0  0  0
   18.2478  -14.8478  -21.5622 N   0  0  0  0  0  0  0  0  0  0  0  0
   18.6725  -14.5400  -20.2304 C   0  0  0  0  0  0  0  0  0  0  0  0
   20.1438  -14.1102  -20.1533 C   0  0  0  0  0  0  0  0  0  0  0  0
   20.2900  -13.3406  -18.8892 C   0  0  0  0  0  0  0  0  0  0  0  0
   21.1694  -13.9488  -17.8583 C   0  0  2  0  0  0  0  0  0  0  0  0
   20.4924  -15.0190  -17.1514 N   0  0  0  0  0  0  0  0  0  0  0  0
   21.7832  -13.0242  -16.9165 C   0  0  0  0  0  0  0  0  0  0  0  0
   21.3594  -12.9439  -15.7400 O   0  0  0  0  0  0  0  0  0  0  0  0
   17.6571  -15.0446  -24.1316 C   0  0  0  0  0  0  0  0  0  0  0  0
   27.1619  -10.0286  -16.3082 C   0  0  1  0  0  0  0  0  0  0  0  0
   25.7418  -10.1609  -15.8658 C   0  0  0  0  0  0  0  0  0  0  0  0
   25.7646  -10.7733  -14.4719 C   0  0  0  0  0  0  0  0  0  0  0  0
   25.0007  -11.1134  -16.7434 C   0  0  2  0  0  0  0  0  0  0  0  0
   23.5313  -11.2767  -16.3493 N   0  0  0  0  0  0  0  0  0  0  0  0
   22.8689  -12.1820  -17.2673 C   0  0  0  0  0  0  0  0  0  0  0  0
   22.9280   -9.9349  -16.5194 O   0  0  0  0  0  0  0  0  0  0  0  0
   23.1499   -9.2997  -17.5745 C   0  0  0  0  0  0  0  0  0  0  0  0
   19.5777   -9.0410  -17.0192 C   0  0  2  0  0  0  0  0  0  0  0  0
   19.9404   -8.2193  -15.8084 O   0  0  0  0  0  0  0  0  0  0  0  0
   19.5128   -8.8894  -14.6736 C   0  0  2  0  0  0  0  0  0  0  0  0
   21.4458   -8.0537  -15.7779 N   0  0  0  0  0  0  0  0  0  0  0  0
   22.1007   -9.3241  -15.5361 C   0  0  0  0  0  0  0  0  0  0  0  0
   21.8087   -7.0760  -14.7162 O   0  0  0  0  0  0  0  0  0  0  0  0
   21.4692   -5.8586  -14.8001 O   0  0  0  0  0  0  0  0  0  0  0  0
  2  1  1  0
  3  2  2  0
  4  2  1  0
  5  4  1  0
  6  5  1  0
  7  6  1  0
  8 10  1  0
  8  9  1  1
  8  7  1  0
 10 17  1  0
 10 11  2  0
 13 12  1  1
 13 14  1  0
 15 13  1  0
 16 15  1  1
 17 16  1  0
 18 16  1  0
 19 18  2  0
 21 20  1  6
 21 23  1  0
 21 22  1  0
 23 24  1  6
 24 18  1  0
 25 27  1  0
 25 23  1  0
 26 25  2  0
M  END
$$$$
