RLT.pdb
     RDKit          3D

 27 26  0  0  1  0  0  0  0  0999 V2000
   18.1375  -23.1811   -7.1019 N   0  0  0  0  0  0  0  0  0  0  0  0
   18.5927  -24.0611   -8.1147 C   0  0  0  0  0  0  0  0  0  0  0  0
   17.7694  -24.9165   -8.6169 N   0  0  0  0  0  0  0  0  0  0  0  0
   19.9389  -23.9687   -8.5408 N   0  0  0  0  0  0  0  0  0  0  0  0
   20.7568  -22.8288   -8.2568 C   0  0  0  0  0  0  0  0  0  0  0  0
   20.8770  -21.8647   -9.4448 C   0  0  0  0  0  0  0  0  0  0  0  0
   21.7924  -20.7761   -9.0104 C   0  0  0  0  0  0  0  0  0  0  0  0
   23.2433  -21.0416   -9.1841 C   0  0  2  0  0  0  0  0  0  0  0  0
   23.9642  -20.8721   -7.9370 N   0  0  0  0  0  0  0  0  0  0  0  0
   23.9021  -20.3113  -10.2571 C   0  0  0  0  0  0  0  0  0  0  0  0
   24.2129  -19.1068  -10.1058 O   0  0  0  0  0  0  0  0  0  0  0  0
   18.0265  -25.6141   -9.3311 C   0  0  0  0  0  0  0  0  0  0  0  0
   28.2432  -21.2257  -14.2694 C   0  0  1  0  0  0  0  0  0  0  0  0
   27.0309  -20.4023  -13.9830 C   0  0  0  0  0  0  0  0  0  0  0  0
   27.5182  -19.0186  -13.5751 C   0  0  0  0  0  0  0  0  0  0  0  0
   26.2785  -20.9553  -12.8190 C   0  0  2  0  0  0  0  0  0  0  0  0
   24.9507  -20.2387  -12.5650 N   0  0  0  0  0  0  0  0  0  0  0  0
   24.2219  -20.9057  -11.5042 C   0  0  0  0  0  0  0  0  0  0  0  0
   24.1750  -20.3944  -13.8170 O   0  0  0  0  0  0  0  0  0  0  0  0
   23.8766  -21.5457  -14.2062 C   0  0  0  0  0  0  0  0  0  0  0  0
   20.7906  -18.8732  -14.7776 C   0  0  2  0  0  0  0  0  0  0  0  0
   21.7948  -18.4839  -15.8324 O   0  0  0  0  0  0  0  0  0  0  0  0
   22.2647  -17.2117  -15.5490 C   0  0  2  0  0  0  0  0  0  0  0  0
   22.9359  -19.4796  -15.7952 N   0  0  0  0  0  0  0  0  0  0  0  0
   23.7467  -19.2922  -14.6082 C   0  0  0  0  0  0  0  0  0  0  0  0
   23.7672  -19.3165  -17.0187 O   0  0  0  0  0  0  0  0  0  0  0  0
   24.9776  -18.9506  -16.9468 O   0  0  0  0  0  0  0  0  0  0  0  0
  2  1  1  0
  3  2  2  0
  4  2  1  0
  5  4  1  0
  6  5  1  0
  7  6  1  0
  8 10  1  0
  8  9  1  1
  8  7  1  0
 10 17  1  0
 10 11  2  0
 13 12  1  6
 13 14  1  0
 15 13  1  0
 16 15  1  1
 17 16  1  0
 18 16  1  0
 19 18  2  0
 21 20  1  6
 21 23  1  0
 21 22  1  0
 23 24  1  6
 24 18  1  0
 25 27  1  0
 25 23  1  0
 26 25  2  0
M  END
$$$$
