RLT.pdb
     RDKit          3D

 27 26  0  0  1  0  0  0  0  0999 V2000
   24.7169  -19.2310  -17.7350 N   0  0  0  0  0  0  0  0  0  0  0  0
   25.2392  -17.9965  -18.1939 C   0  0  0  0  0  0  0  0  0  0  0  0
   24.6537  -17.3940  -19.1717 N   0  0  0  0  0  0  0  0  0  0  0  0
   26.3880  -17.4667  -17.5599 N   0  0  0  0  0  0  0  0  0  0  0  0
   26.9572  -18.0565  -16.3865 C   0  0  0  0  0  0  0  0  0  0  0  0
   27.9154  -19.2136  -16.7000 C   0  0  0  0  0  0  0  0  0  0  0  0
   27.1776  -20.4659  -16.3852 C   0  0  0  0  0  0  0  0  0  0  0  0
   27.7253  -21.2775  -15.2685 C   0  0  2  0  0  0  0  0  0  0  0  0
   28.3665  -22.4833  -15.7569 N   0  0  0  0  0  0  0  0  0  0  0  0
   26.7964  -21.5937  -14.1935 C   0  0  0  0  0  0  0  0  0  0  0  0
   26.0363  -22.5859  -14.2844 O   0  0  0  0  0  0  0  0  0  0  0  0
   24.9918  -16.5164  -19.5941 C   0  0  0  0  0  0  0  0  0  0  0  0
   25.7147  -19.6594   -8.3635 C   0  0  1  0  0  0  0  0  0  0  0  0
   25.2460  -20.4414   -9.5460 C   0  0  0  0  0  0  0  0  0  0  0  0
   25.1659  -21.8990   -9.1130 C   0  0  0  0  0  0  0  0  0  0  0  0
   26.2437  -20.3747  -10.6538 C   0  0  2  0  0  0  0  0  0  0  0  0
   25.7824  -21.0929  -11.9236 N   0  0  0  0  0  0  0  0  0  0  0  0
   26.7002  -20.8167  -13.0111 C   0  0  0  0  0  0  0  0  0  0  0  0
   24.4760  -20.4849  -12.2657 O   0  0  0  0  0  0  0  0  0  0  0  0
   24.4094  -19.2470  -12.4362 C   0  0  0  0  0  0  0  0  0  0  0  0
   22.5520  -20.8297  -15.1721 C   0  0  2  0  0  0  0  0  0  0  0  0
   21.5304  -21.1574  -14.1130 O   0  0  0  0  0  0  0  0  0  0  0  0
   21.3904  -22.5341  -14.0431 C   0  0  2  0  0  0  0  0  0  0  0  0
   22.0274  -20.6177  -12.7877 N   0  0  0  0  0  0  0  0  0  0  0  0
   23.2806  -21.2424  -12.4126 C   0  0  0  0  0  0  0  0  0  0  0  0
   20.9963  -20.8618  -11.7428 O   0  0  0  0  0  0  0  0  0  0  0  0
   19.8765  -20.2706  -11.7738 O   0  0  0  0  0  0  0  0  0  0  0  0
  2  1  1  0
  3  2  2  0
  4  2  1  0
  5  4  1  0
  6  5  1  0
  7  6  1  0
  8 10  1  0
  8  9  1  6
  8  7  1  0
 10 17  1  0
 10 11  2  0
 13 12  1  1
 13 14  1  0
 15 13  1  0
 16 15  1  1
 17 16  1  0
 18 16  1  0
 19 18  2  0
 21 20  1  6
 21 23  1  0
 21 22  1  0
 23 24  1  1
 24 18  1  0
 25 27  1  0
 25 23  1  0
 26 25  2  0
M  END
$$$$
