RLT.pdb
     RDKit          3D

 27 26  0  0  1  0  0  0  0  0999 V2000
   18.4184  -23.7134  -13.7129 N   0  0  0  0  0  0  0  0  0  0  0  0
   18.9886  -24.7981  -14.4239 C   0  0  0  0  0  0  0  0  0  0  0  0
   18.2435  -25.8030  -14.7353 N   0  0  0  0  0  0  0  0  0  0  0  0
   20.3597  -24.7393  -14.7686 N   0  0  0  0  0  0  0  0  0  0  0  0
   21.1695  -23.5900  -14.5000 C   0  0  0  0  0  0  0  0  0  0  0  0
   20.4720  -22.2685  -14.8497 C   0  0  0  0  0  0  0  0  0  0  0  0
   21.4136  -21.1831  -14.4663 C   0  0  0  0  0  0  0  0  0  0  0  0
   21.8215  -21.1534  -13.0386 C   0  0  2  0  0  0  0  0  0  0  0  0
   20.7131  -20.7820  -12.1802 N   0  0  0  0  0  0  0  0  0  0  0  0
   22.9976  -20.3543  -12.7271 C   0  0  0  0  0  0  0  0  0  0  0  0
   22.9282  -19.1032  -12.7146 O   0  0  0  0  0  0  0  0  0  0  0  0
   18.5827  -26.6410  -15.2309 C   0  0  0  0  0  0  0  0  0  0  0  0
   25.2399  -19.7161   -9.0994 C   0  0  2  0  0  0  0  0  0  0  0  0
   25.4953  -21.0528   -9.7140 C   0  0  0  0  0  0  0  0  0  0  0  0
   26.4062  -21.8147   -8.7610 C   0  0  0  0  0  0  0  0  0  0  0  0
   26.2387  -20.9107  -11.0001 C   0  0  2  0  0  0  0  0  0  0  0  0
   25.4422  -20.1717  -12.0775 N   0  0  0  0  0  0  0  0  0  0  0  0
   24.2579  -20.9310  -12.4275 C   0  0  0  0  0  0  0  0  0  0  0  0
   26.3269  -20.1365  -13.2646 O   0  0  0  0  0  0  0  0  0  0  0  0
   27.4406  -19.5729  -13.1744 C   0  0  0  0  0  0  0  0  0  0  0  0
   28.4352  -22.2470  -14.9983 C   0  0  2  0  0  0  0  0  0  0  0  0
   27.4564  -21.8638  -16.0789 O   0  0  0  0  0  0  0  0  0  0  0  0
   26.4968  -22.8581  -16.1807 C   0  0  2  0  0  0  0  0  0  0  0  0
   26.8062  -20.5520  -15.6902 N   0  0  0  0  0  0  0  0  0  0  0  0
   25.9735  -20.7162  -14.5151 C   0  0  0  0  0  0  0  0  0  0  0  0
   25.9938  -20.0517  -16.8323 O   0  0  0  0  0  0  0  0  0  0  0  0
   26.5245  -19.7935  -17.9530 O   0  0  0  0  0  0  0  0  0  0  0  0
  2  1  1  0
  3  2  2  0
  4  2  1  0
  5  4  1  0
  6  5  1  0
  7  6  1  0
  8 10  1  0
  8  9  1  1
  8  7  1  0
 10 17  1  0
 10 11  2  0
 13 12  1  1
 13 14  1  0
 15 13  1  0
 16 15  1  1
 17 16  1  0
 18 16  1  0
 19 18  2  0
 21 20  1  6
 21 23  1  0
 21 22  1  0
 23 24  1  6
 24 18  1  0
 25 27  1  0
 25 23  1  0
 26 25  2  0
M  END
$$$$
