HTV.pdb
     RDKit          3D

 25 25  0  0  1  0  0  0  0  0999 V2000
   20.7678  -12.9255  -17.9976 N   0  0  0  0  0  0  0  0  0  0  0  0
   20.3061  -11.5987  -18.3163 C   0  0  1  0  0  0  0  0  0  0  0  0
   18.8360  -11.4844  -17.9520 C   0  0  0  0  0  0  0  0  0  0  0  0
   18.0147  -12.3653  -18.8201 C   0  0  0  0  0  0  0  0  0  0  0  0
   17.4746  -12.0490  -20.0522 C   0  0  0  0  0  0  0  0  0  0  0  0
   16.7963  -13.0985  -20.5313 N   0  0  0  0  0  0  0  0  0  0  0  0
   16.9047  -14.0742  -19.6107 C   0  0  0  0  0  0  0  0  0  0  0  0
   17.6351  -13.6354  -18.5845 N   0  0  0  0  0  0  0  0  0  0  0  0
   21.1195  -10.6019  -17.5608 C   0  0  0  0  0  0  0  0  0  0  0  0
   21.4871  -10.8255  -16.3857 O   0  0  0  0  0  0  0  0  0  0  0  0
   24.2970   -6.9255  -17.5523 C   0  0  0  0  0  0  0  0  0  0  0  0
   23.4089   -7.8578  -18.3711 C   0  0  1  0  0  0  0  0  0  0  0  0
   24.2255   -8.7972  -18.9658 O   0  0  0  0  0  0  0  0  0  0  0  0
   22.3469   -8.4538  -17.4998 C   0  0  2  0  0  0  0  0  0  0  0  0
   21.4818   -9.3801  -18.1865 N   0  0  0  0  0  0  0  0  0  0  0  0
   21.6224   -7.4623  -16.6626 C   0  0  0  0  0  0  0  0  0  0  0  0
   20.6696   -6.7653  -17.0867 O   0  0  0  0  0  0  0  0  0  0  0  0
   19.5375   -7.9713  -13.8679 C   0  0  0  0  0  0  0  0  0  0  0  0
   20.5422   -6.9870  -13.3652 C   0  0  1  0  0  0  0  0  0  0  0  0
   21.5469   -7.6473  -12.4700 C   0  0  0  0  0  0  0  0  0  0  0  0
   21.2770   -6.2675  -14.4817 C   0  0  2  0  0  0  0  0  0  0  0  0
   21.9828   -7.2498  -15.3047 N   0  0  0  0  0  0  0  0  0  0  0  0
   22.2625   -5.2951  -13.9815 C   0  0  0  0  0  0  0  0  0  0  0  0
   23.5016   -5.5152  -14.0045 O   0  0  0  0  0  0  0  0  0  0  0  0
   21.8724   -4.0636  -13.4490 O   0  0  0  0  0  0  0  0  0  0  0  0
  2  1  1  1
  3  2  1  0
  3  4  1  0
  4  5  2  0
  5  6  1  0
  7  6  1  0
  8  4  1  0
  8  7  2  0
  9 10  2  0
  9  2  1  0
 12 11  1  1
 12 14  1  0
 13 12  1  0
 14 16  1  0
 14 15  1  6
 15  9  1  0
 16 22  1  0
 17 16  2  0
 19 20  1  1
 19 18  1  0
 21 19  1  0
 21 22  1  1
 23 25  1  0
 23 21  1  0
 24 23  2  0
M  END
$$$$
