HTV.pdb
     RDKit          3D

 25 25  0  0  1  0  0  0  0  0999 V2000
   23.7476  -18.9097  -18.4633 N   0  0  0  0  0  0  0  0  0  0  0  0
   23.6048  -18.4263  -17.1138 C   0  0  1  0  0  0  0  0  0  0  0  0
   22.1270  -18.3005  -16.7860 C   0  0  0  0  0  0  0  0  0  0  0  0
   21.5402  -17.1219  -17.4722 C   0  0  0  0  0  0  0  0  0  0  0  0
   20.4098  -17.0999  -18.2669 C   0  0  0  0  0  0  0  0  0  0  0  0
   20.1930  -15.8558  -18.7100 N   0  0  0  0  0  0  0  0  0  0  0  0
   21.1781  -15.0933  -18.2007 C   0  0  0  0  0  0  0  0  0  0  0  0
   21.9862  -15.8517  -17.4584 N   0  0  0  0  0  0  0  0  0  0  0  0
   24.2771  -19.3754  -16.1793 C   0  0  0  0  0  0  0  0  0  0  0  0
   23.7642  -20.4831  -15.9039 O   0  0  0  0  0  0  0  0  0  0  0  0
   27.5121  -20.9022  -16.6071 C   0  0  0  0  0  0  0  0  0  0  0  0
   27.5767  -20.3100  -15.2021 C   0  0  1  0  0  0  0  0  0  0  0  0
   28.4463  -19.2398  -15.2394 O   0  0  0  0  0  0  0  0  0  0  0  0
   26.2017  -19.9477  -14.7327 C   0  0  2  0  0  0  0  0  0  0  0  0
   25.5191  -19.0147  -15.5938 N   0  0  0  0  0  0  0  0  0  0  0  0
   26.1257  -19.6002  -13.2896 C   0  0  0  0  0  0  0  0  0  0  0  0
   26.0747  -18.4211  -12.8650 O   0  0  0  0  0  0  0  0  0  0  0  0
   23.5459  -20.2295  -10.9706 C   0  0  0  0  0  0  0  0  0  0  0  0
   24.7513  -20.7824  -10.2834 C   0  0  1  0  0  0  0  0  0  0  0  0
   24.7557  -22.2808  -10.3186 C   0  0  0  0  0  0  0  0  0  0  0  0
   26.0546  -20.2733  -10.8719 C   0  0  2  0  0  0  0  0  0  0  0  0
   26.1062  -20.6137  -12.2939 N   0  0  0  0  0  0  0  0  0  0  0  0
   27.2398  -20.8522  -10.2184 C   0  0  0  0  0  0  0  0  0  0  0  0
   28.0295  -21.6296  -10.8155 O   0  0  0  0  0  0  0  0  0  0  0  0
   27.5556  -20.5676   -8.8873 O   0  0  0  0  0  0  0  0  0  0  0  0
  2  1  1  6
  3  2  1  0
  3  4  1  0
  4  5  2  0
  5  6  1  0
  7  6  1  0
  8  4  1  0
  8  7  2  0
  9 10  2  0
  9  2  1  0
 12 11  1  6
 12 14  1  0
 13 12  1  0
 14 16  1  0
 14 15  1  6
 15  9  1  0
 16 22  1  0
 17 16  2  0
 19 20  1  6
 19 18  1  0
 21 19  1  0
 21 22  1  6
 23 25  1  0
 23 21  1  0
 24 23  2  0
M  END
$$$$
