HTV.pdb
     RDKit          3D

 25 25  0  0  1  0  0  0  0  0999 V2000
   22.2539  -16.4341  -17.7669 N   0  0  0  0  0  0  0  0  0  0  0  0
   21.9775  -15.1298  -18.3124 C   0  0  1  0  0  0  0  0  0  0  0  0
   20.6314  -15.1615  -19.0153 C   0  0  0  0  0  0  0  0  0  0  0  0
   20.6896  -16.0384  -20.2119 C   0  0  0  0  0  0  0  0  0  0  0  0
   20.2636  -17.3500  -20.3031 C   0  0  0  0  0  0  0  0  0  0  0  0
   20.4787  -17.8099  -21.5414 N   0  0  0  0  0  0  0  0  0  0  0  0
   21.0370  -16.7984  -22.2316 C   0  0  0  0  0  0  0  0  0  0  0  0
   21.1638  -15.7360  -21.4351 N   0  0  0  0  0  0  0  0  0  0  0  0
   21.9764  -14.1267  -17.2080 C   0  0  0  0  0  0  0  0  0  0  0  0
   21.2968  -14.3065  -16.1726 O   0  0  0  0  0  0  0  0  0  0  0  0
   24.5725  -13.4036  -15.1202 C   0  0  0  0  0  0  0  0  0  0  0  0
   24.1805  -11.9969  -15.5633 C   0  0  1  0  0  0  0  0  0  0  0  0
   25.1915  -11.5159  -16.3694 O   0  0  0  0  0  0  0  0  0  0  0  0
   22.8419  -12.0228  -16.2337 C   0  0  2  0  0  0  0  0  0  0  0  0
   22.7596  -12.9495  -17.3349 N   0  0  0  0  0  0  0  0  0  0  0  0
   22.2901  -10.6768  -16.5382 C   0  0  0  0  0  0  0  0  0  0  0  0
   22.2690  -10.1838  -17.6914 O   0  0  0  0  0  0  0  0  0  0  0  0
   19.0177   -9.2737  -14.8477 C   0  0  0  0  0  0  0  0  0  0  0  0
   19.7130   -8.6189  -15.9961 C   0  0  1  0  0  0  0  0  0  0  0  0
   19.1722   -7.2432  -16.2441 C   0  0  0  0  0  0  0  0  0  0  0  0
   21.2162   -8.5290  -15.8056 C   0  0  2  0  0  0  0  0  0  0  0  0
   21.7446   -9.8610  -15.5107 N   0  0  0  0  0  0  0  0  0  0  0  0
   21.5985   -7.6296  -14.7047 C   0  0  0  0  0  0  0  0  0  0  0  0
   21.9595   -8.0565  -13.5770 O   0  0  0  0  0  0  0  0  0  0  0  0
   21.5812   -6.2403  -14.8532 O   0  0  0  0  0  0  0  0  0  0  0  0
  2  1  1  1
  3  2  1  0
  3  4  1  0
  4  5  2  0
  5  6  1  0
  7  6  1  0
  8  4  1  0
  8  7  2  0
  9 10  2  0
  9  2  1  0
 12 11  1  6
 12 14  1  0
 13 12  1  0
 14 16  1  0
 14 15  1  6
 15  9  1  0
 16 22  1  0
 17 16  2  0
 19 20  1  1
 19 18  1  0
 21 19  1  0
 21 22  1  1
 23 25  1  0
 23 21  1  0
 24 23  2  0
M  END
$$$$
