HTV.pdb
     RDKit          3D

 25 25  0  0  1  0  0  0  0  0999 V2000
   29.1834  -20.5429  -20.5876 N   0  0  0  0  0  0  0  0  0  0  0  0
   29.5758  -20.9518  -19.2633 C   0  0  1  0  0  0  0  0  0  0  0  0
   28.7143  -20.2257  -18.2445 C   0  0  0  0  0  0  0  0  0  0  0  0
   28.9754  -18.7649  -18.2890 C   0  0  0  0  0  0  0  0  0  0  0  0
   28.0486  -17.7604  -18.4938 C   0  0  0  0  0  0  0  0  0  0  0  0
   28.6593  -16.5698  -18.4674 N   0  0  0  0  0  0  0  0  0  0  0  0
   29.9640  -16.8160  -18.2475 C   0  0  0  0  0  0  0  0  0  0  0  0
   30.1543  -18.1318  -18.1404 N   0  0  0  0  0  0  0  0  0  0  0  0
   29.4141  -22.4297  -19.1385 C   0  0  0  0  0  0  0  0  0  0  0  0
   28.4203  -23.0143  -19.6250 O   0  0  0  0  0  0  0  0  0  0  0  0
   32.6496  -24.9931  -17.6394 C   0  0  0  0  0  0  0  0  0  0  0  0
   31.6604  -25.2799  -18.7654 C   0  0  1  0  0  0  0  0  0  0  0  0
   31.5740  -26.6495  -18.9068 O   0  0  0  0  0  0  0  0  0  0  0  0
   30.3459  -24.6243  -18.4750 C   0  0  2  0  0  0  0  0  0  0  0  0
   30.4047  -23.1841  -18.4564 N   0  0  0  0  0  0  0  0  0  0  0  0
   29.6176  -25.2112  -17.3199 C   0  0  0  0  0  0  0  0  0  0  0  0
   29.7921  -24.8422  -16.1338 O   0  0  0  0  0  0  0  0  0  0  0  0
   25.9844  -25.1236  -16.8165 C   0  0  0  0  0  0  0  0  0  0  0  0
   26.3859  -26.5588  -16.7166 C   0  0  1  0  0  0  0  0  0  0  0  0
   26.0739  -27.2983  -17.9825 C   0  0  0  0  0  0  0  0  0  0  0  0
   27.8572  -26.7413  -16.3909 C   0  0  2  0  0  0  0  0  0  0  0  0
   28.6624  -26.2463  -17.5076 N   0  0  0  0  0  0  0  0  0  0  0  0
   28.2182  -28.1485  -16.1533 C   0  0  0  0  0  0  0  0  0  0  0  0
   28.8795  -28.8264  -16.9824 O   0  0  0  0  0  0  0  0  0  0  0  0
   27.8430  -28.8143  -14.9835 O   0  0  0  0  0  0  0  0  0  0  0  0
  2  1  1  6
  3  2  1  0
  3  4  1  0
  4  5  2  0
  5  6  1  0
  7  6  1  0
  8  4  1  0
  8  7  2  0
  9 10  2  0
  9  2  1  0
 12 11  1  1
 12 14  1  0
 13 12  1  0
 14 16  1  0
 14 15  1  1
 15  9  1  0
 16 22  1  0
 17 16  2  0
 19 20  1  6
 19 18  1  0
 21 19  1  0
 21 22  1  6
 23 25  1  0
 23 21  1  0
 24 23  2  0
M  END
$$$$
