HTV.pdb
     RDKit          3D

 25 25  0  0  1  0  0  0  0  0999 V2000
   22.3007  -17.6884  -17.2811 N   0  0  0  0  0  0  0  0  0  0  0  0
   21.6026  -16.8447  -16.3452 C   0  0  1  0  0  0  0  0  0  0  0  0
   21.8939  -17.3233  -14.9334 C   0  0  0  0  0  0  0  0  0  0  0  0
   21.3871  -18.7049  -14.7373 C   0  0  0  0  0  0  0  0  0  0  0  0
   20.0673  -19.0979  -14.6216 C   0  0  0  0  0  0  0  0  0  0  0  0
   20.0036  -20.4243  -14.4548 N   0  0  0  0  0  0  0  0  0  0  0  0
   21.2733  -20.8706  -14.4645 C   0  0  0  0  0  0  0  0  0  0  0  0
   22.1033  -19.8403  -14.6338 N   0  0  0  0  0  0  0  0  0  0  0  0
   22.0490  -15.4331  -16.5302 C   0  0  0  0  0  0  0  0  0  0  0  0
   23.2650  -15.1400  -16.5692 O   0  0  0  0  0  0  0  0  0  0  0  0
   21.4900  -13.4754  -19.3857 C   0  0  0  0  0  0  0  0  0  0  0  0
   21.0328  -12.5402  -18.2699 C   0  0  1  0  0  0  0  0  0  0  0  0
   19.6621  -12.4163  -18.3640 O   0  0  0  0  0  0  0  0  0  0  0  0
   21.4974  -13.0563  -16.9432 C   0  0  2  0  0  0  0  0  0  0  0  0
   21.0774  -14.4067  -16.6640 N   0  0  0  0  0  0  0  0  0  0  0  0
   21.2785  -12.1133  -15.8155 C   0  0  0  0  0  0  0  0  0  0  0  0
   20.3780  -12.2627  -14.9552 O   0  0  0  0  0  0  0  0  0  0  0  0
   23.3835  -11.3467  -13.0271 C   0  0  0  0  0  0  0  0  0  0  0  0
   23.1051  -10.0189  -13.6520 C   0  0  1  0  0  0  0  0  0  0  0  0
   24.2818   -9.5355  -14.4446 C   0  0  0  0  0  0  0  0  0  0  0  0
   21.8803  -10.0310  -14.5486 C   0  0  2  0  0  0  0  0  0  0  0  0
   22.1007  -10.9660  -15.6520 N   0  0  0  0  0  0  0  0  0  0  0  0
   21.5798   -8.7085  -15.1210 C   0  0  0  0  0  0  0  0  0  0  0  0
   21.7770   -8.4358  -16.3339 O   0  0  0  0  0  0  0  0  0  0  0  0
   21.0545   -7.6744  -14.3417 O   0  0  0  0  0  0  0  0  0  0  0  0
  2  1  1  6
  3  2  1  0
  3  4  1  0
  4  5  2  0
  5  6  1  0
  7  6  1  0
  8  4  1  0
  8  7  2  0
  9 10  2  0
  9  2  1  0
 12 11  1  6
 12 14  1  0
 13 12  1  0
 14 16  1  0
 14 15  1  1
 15  9  1  0
 16 22  1  0
 17 16  2  0
 19 20  1  6
 19 18  1  0
 21 19  1  0
 21 22  1  6
 23 25  1  0
 23 21  1  0
 24 23  2  0
M  END
$$$$
