HTV.pdb
     RDKit          3D

 25 25  0  0  1  0  0  0  0  0999 V2000
   27.3178  -15.9725  -18.6925 N   0  0  0  0  0  0  0  0  0  0  0  0
   26.6511  -14.8119  -19.2250 C   0  0  1  0  0  0  0  0  0  0  0  0
   25.2042  -15.1645  -19.5234 C   0  0  0  0  0  0  0  0  0  0  0  0
   25.1277  -16.1710  -20.6122 C   0  0  0  0  0  0  0  0  0  0  0  0
   24.7484  -17.4947  -20.4958 C   0  0  0  0  0  0  0  0  0  0  0  0
   24.8036  -18.0878  -21.6943 N   0  0  0  0  0  0  0  0  0  0  0  0
   25.2149  -17.1480  -22.5655 C   0  0  0  0  0  0  0  0  0  0  0  0
   25.4094  -15.9985  -21.9174 N   0  0  0  0  0  0  0  0  0  0  0  0
   26.7331  -13.7009  -18.2326 C   0  0  0  0  0  0  0  0  0  0  0  0
   26.5895  -13.9165  -17.0082 O   0  0  0  0  0  0  0  0  0  0  0  0
   29.5800  -11.5294  -17.7734 C   0  0  0  0  0  0  0  0  0  0  0  0
   28.4043  -10.5587  -17.8368 C   0  0  1  0  0  0  0  0  0  0  0  0
   28.5252   -9.8318  -19.0031 O   0  0  0  0  0  0  0  0  0  0  0  0
   27.1121  -11.3076  -17.7297 C   0  0  2  0  0  0  0  0  0  0  0  0
   26.9782  -12.3780  -18.6859 N   0  0  0  0  0  0  0  0  0  0  0  0
   25.9124  -10.4358  -17.6314 C   0  0  0  0  0  0  0  0  0  0  0  0
   25.1117  -10.2534  -18.5795 O   0  0  0  0  0  0  0  0  0  0  0  0
   23.1115  -10.7903  -15.3274 C   0  0  0  0  0  0  0  0  0  0  0  0
   23.5575   -9.3732  -15.1728 C   0  0  1  0  0  0  0  0  0  0  0  0
   24.3084   -9.1781  -13.8903 C   0  0  0  0  0  0  0  0  0  0  0  0
   24.4214   -8.8947  -16.3256 C   0  0  2  0  0  0  0  0  0  0  0  0
   25.6054   -9.7482  -16.4264 N   0  0  0  0  0  0  0  0  0  0  0  0
   24.8719   -7.5029  -16.1610 C   0  0  0  0  0  0  0  0  0  0  0  0
   24.0959   -6.5208  -16.2935 O   0  0  0  0  0  0  0  0  0  0  0  0
   26.1976   -7.1937  -15.8458 O   0  0  0  0  0  0  0  0  0  0  0  0
  2  1  1  1
  3  2  1  0
  3  4  1  0
  4  5  2  0
  5  6  1  0
  7  6  1  0
  8  4  1  0
  8  7  2  0
  9 10  2  0
  9  2  1  0
 12 11  1  6
 12 14  1  0
 13 12  1  0
 14 16  1  0
 14 15  1  6
 15  9  1  0
 16 22  1  0
 17 16  2  0
 19 20  1  1
 19 18  1  0
 21 19  1  0
 21 22  1  1
 23 25  1  0
 23 21  1  0
 24 23  2  0
M  END
$$$$
