HEV.pdb
     RDKit          3D

 27 27  0  0  1  0  0  0  0  0999 V2000
    7.8745  -16.8228   19.3283 N   0  0  0  0  0  0  0  0  0  0  0  0
    8.0397  -15.6784   20.2014 C   0  0  1  0  0  0  0  0  0  0  0  0
    7.0152  -14.6506   19.7826 C   0  0  0  0  0  0  0  0  0  0  0  0
    7.4127  -14.1565   18.4363 C   0  0  0  0  0  0  0  0  0  0  0  0
    8.2630  -13.0982   18.2190 C   0  0  0  0  0  0  0  0  0  0  0  0
    8.4207  -12.9026   16.8828 N   0  0  0  0  0  0  0  0  0  0  0  0
    7.6634  -13.8457   16.2861 C   0  0  0  0  0  0  0  0  0  0  0  0
    7.0572  -14.5998   17.2207 N   0  0  0  0  0  0  0  0  0  0  0  0
    7.8996  -16.0675   21.6218 C   0  0  0  0  0  0  0  0  0  0  0  0
    6.8115  -16.5823   21.9620 O   0  0  0  0  0  0  0  0  0  0  0  0
    8.8874  -15.9000   22.5925 N   0  0  0  0  0  0  0  0  0  0  0  0
    8.8292  -16.3003   23.9687 C   0  0  1  0  0  0  0  0  0  0  0  0
    9.7283  -17.4137   24.3572 C   0  0  0  0  0  0  0  0  0  0  0  0
    9.7295  -17.8047   25.7919 C   0  0  0  0  0  0  0  0  0  0  0  0
   10.6068  -18.8812   26.1891 C   0  0  0  0  0  0  0  0  0  0  0  0
   11.8507  -18.6856   26.1048 O   0  0  0  0  0  0  0  0  0  0  0  0
    9.2057  -15.0952   24.7684 C   0  0  0  0  0  0  0  0  0  0  0  0
   10.2295  -14.4200   24.5698 O   0  0  0  0  0  0  0  0  0  0  0  0
   10.2651  -20.1314   26.6621 O   0  0  0  0  0  0  0  0  0  0  0  0
    7.2074  -12.1533   25.3216 C   0  0  0  0  0  0  0  0  0  0  0  0
    7.4797  -12.6670   26.7180 C   0  0  1  0  0  0  0  0  0  0  0  0
    6.2185  -13.3317   27.2160 C   0  0  0  0  0  0  0  0  0  0  0  0
    8.6541  -13.6326   26.7136 C   0  0  2  0  0  0  0  0  0  0  0  0
    8.3286  -14.7098   25.8173 N   0  0  0  0  0  0  0  0  0  0  0  0
    8.9592  -14.1151   28.0835 C   0  0  0  0  0  0  0  0  0  0  0  0
    9.4884  -13.2498   29.0299 O   0  0  0  0  0  0  0  0  0  0  0  0
    8.7489  -15.3004   28.4142 O   0  0  0  0  0  0  0  0  0  0  0  0
  2  3  1  0
  2  1  1  6
  4  3  1  0
  4  8  1  0
  5  6  1  0
  5  4  2  0
  6  7  1  0
  7  8  2  0
  9 11  1  0
  9  2  1  0
 10  9  2  0
 12 11  1  0
 12 13  1  6
 13 14  1  0
 14 15  1  0
 15 19  1  0
 16 15  2  0
 17 12  1  0
 18 17  2  0
 21 22  1  6
 21 20  1  0
 23 24  1  6
 23 21  1  0
 24 17  1  0
 25 23  1  0
 26 25  1  0
 27 25  2  0
M  END
$$$$
