HEV.pdb
     RDKit          3D

 27 27  0  0  1  0  0  0  0  0999 V2000
    7.9970  -16.9574   18.8493 N   0  0  0  0  0  0  0  0  0  0  0  0
    8.2474  -15.8443   19.7423 C   0  0  1  0  0  0  0  0  0  0  0  0
    7.2506  -14.7643   19.3936 C   0  0  0  0  0  0  0  0  0  0  0  0
    7.6714  -14.1815   18.0906 C   0  0  0  0  0  0  0  0  0  0  0  0
    8.7666  -14.5994   17.3721 C   0  0  0  0  0  0  0  0  0  0  0  0
    8.8749  -13.8666   16.2320 N   0  0  0  0  0  0  0  0  0  0  0  0
    7.8416  -13.0002   16.2579 C   0  0  0  0  0  0  0  0  0  0  0  0
    7.1179  -13.1897   17.3760 N   0  0  0  0  0  0  0  0  0  0  0  0
    8.1510  -16.2645   21.1575 C   0  0  0  0  0  0  0  0  0  0  0  0
    7.1079  -16.8644   21.4990 O   0  0  0  0  0  0  0  0  0  0  0  0
    9.1334  -16.0385   22.1218 N   0  0  0  0  0  0  0  0  0  0  0  0
    9.1008  -16.4274   23.5022 C   0  0  1  0  0  0  0  0  0  0  0  0
   10.1072  -17.4356   23.9142 C   0  0  0  0  0  0  0  0  0  0  0  0
   10.0974  -17.8471   25.3431 C   0  0  0  0  0  0  0  0  0  0  0  0
   11.1431  -18.7389   25.7875 C   0  0  0  0  0  0  0  0  0  0  0  0
   10.8536  -19.5846   26.6784 O   0  0  0  0  0  0  0  0  0  0  0  0
    9.3389  -15.1806   24.2910 C   0  0  0  0  0  0  0  0  0  0  0  0
   10.2821  -14.3979   24.0881 O   0  0  0  0  0  0  0  0  0  0  0  0
   12.4541  -18.7975   25.3616 O   0  0  0  0  0  0  0  0  0  0  0  0
    7.5266  -12.2800   24.6406 C   0  0  0  0  0  0  0  0  0  0  0  0
    7.5415  -12.7881   26.0652 C   0  0  1  0  0  0  0  0  0  0  0  0
    6.1854  -13.3873   26.3525 C   0  0  0  0  0  0  0  0  0  0  0  0
    8.6531  -13.8073   26.2585 C   0  0  2  0  0  0  0  0  0  0  0  0
    8.4210  -14.8851   25.3343 N   0  0  0  0  0  0  0  0  0  0  0  0
    8.7139  -14.2771   27.6648 C   0  0  0  0  0  0  0  0  0  0  0  0
    9.0898  -13.4082   28.6788 O   0  0  0  0  0  0  0  0  0  0  0  0
    8.4306  -15.4550   27.9667 O   0  0  0  0  0  0  0  0  0  0  0  0
  2  3  1  0
  2  1  1  6
  4  3  1  0
  4  8  1  0
  5  6  1  0
  5  4  2  0
  6  7  1  0
  7  8  2  0
  9 11  1  0
  9  2  1  0
 10  9  2  0
 12 11  1  0
 12 13  1  6
 13 14  1  0
 14 15  1  0
 15 19  1  0
 16 15  2  0
 17 12  1  0
 18 17  2  0
 21 22  1  6
 21 20  1  0
 23 24  1  6
 23 21  1  0
 24 17  1  0
 25 23  1  0
 26 25  1  0
 27 25  2  0
M  END
$$$$
