HEV.pdb
     RDKit          3D

 27 27  0  0  1  0  0  0  0  0999 V2000
    7.7530  -17.4291   20.0698 N   0  0  0  0  0  0  0  0  0  0  0  0
    7.5561  -16.1127   20.6420 C   0  0  1  0  0  0  0  0  0  0  0  0
    6.5754  -15.3857   19.7525 C   0  0  0  0  0  0  0  0  0  0  0  0
    7.3708  -14.5701   18.7952 C   0  0  0  0  0  0  0  0  0  0  0  0
    8.7448  -14.5462   18.7523 C   0  0  0  0  0  0  0  0  0  0  0  0
    9.1590  -13.7041   17.7685 N   0  0  0  0  0  0  0  0  0  0  0  0
    8.0324  -13.2145   17.2116 C   0  0  0  0  0  0  0  0  0  0  0  0
    6.9569  -13.7355   17.8293 N   0  0  0  0  0  0  0  0  0  0  0  0
    7.0862  -16.2050   22.0417 C   0  0  0  0  0  0  0  0  0  0  0  0
    5.8485  -16.2145   22.2228 O   0  0  0  0  0  0  0  0  0  0  0  0
    7.9213  -16.2811   23.1566 N   0  0  0  0  0  0  0  0  0  0  0  0
    7.5267  -16.3451   24.5342 C   0  0  1  0  0  0  0  0  0  0  0  0
    7.7641  -17.6406   25.2156 C   0  0  0  0  0  0  0  0  0  0  0  0
    6.9419  -18.7951   24.7656 C   0  0  0  0  0  0  0  0  0  0  0  0
    7.1812  -20.0712   25.3984 C   0  0  0  0  0  0  0  0  0  0  0  0
    6.7768  -20.2230   26.5841 O   0  0  0  0  0  0  0  0  0  0  0  0
    8.3176  -15.2932   25.2424 C   0  0  0  0  0  0  0  0  0  0  0  0
    9.5352  -15.1089   25.0780 O   0  0  0  0  0  0  0  0  0  0  0  0
    7.8092  -21.1814   24.8721 O   0  0  0  0  0  0  0  0  0  0  0  0
    7.0572  -11.7021   25.7599 C   0  0  0  0  0  0  0  0  0  0  0  0
    7.3949  -12.2832   27.1150 C   0  0  1  0  0  0  0  0  0  0  0  0
    6.0963  -12.6510   27.7926 C   0  0  0  0  0  0  0  0  0  0  0  0
    8.3078  -13.4901   26.9675 C   0  0  2  0  0  0  0  0  0  0  0  0
    7.6200  -14.4596   26.1572 N   0  0  0  0  0  0  0  0  0  0  0  0
    8.6937  -14.0378   28.2917 C   0  0  0  0  0  0  0  0  0  0  0  0
    9.5110  -13.3069   29.1416 O   0  0  0  0  0  0  0  0  0  0  0  0
    8.2959  -15.1594   28.6692 O   0  0  0  0  0  0  0  0  0  0  0  0
  2  3  1  0
  2  1  1  6
  4  3  1  0
  4  8  1  0
  5  6  1  0
  5  4  2  0
  6  7  1  0
  7  8  2  0
  9 11  1  0
  9  2  1  0
 10  9  2  0
 12 11  1  0
 12 13  1  1
 13 14  1  0
 14 15  1  0
 15 19  1  0
 16 15  2  0
 17 12  1  0
 18 17  2  0
 21 22  1  6
 21 20  1  0
 23 24  1  6
 23 21  1  0
 24 17  1  0
 25 23  1  0
 26 25  1  0
 27 25  2  0
M  END
$$$$
