HEV.pdb
     RDKit          3D

 27 27  0  0  1  0  0  0  0  0999 V2000
    7.5083  -16.8118   19.5119 N   0  0  0  0  0  0  0  0  0  0  0  0
    7.6718  -15.6219   20.3220 C   0  0  1  0  0  0  0  0  0  0  0  0
    6.9075  -14.5127   19.6385 C   0  0  0  0  0  0  0  0  0  0  0  0
    7.6287  -14.1946   18.3763 C   0  0  0  0  0  0  0  0  0  0  0  0
    8.6624  -13.2932   18.2803 C   0  0  0  0  0  0  0  0  0  0  0  0
    9.1018  -13.2334   16.9950 N   0  0  0  0  0  0  0  0  0  0  0  0
    8.3322  -14.1019   16.3076 C   0  0  0  0  0  0  0  0  0  0  0  0
    7.4462  -14.6799   17.1386 N   0  0  0  0  0  0  0  0  0  0  0  0
    7.2098  -15.8535   21.7082 C   0  0  0  0  0  0  0  0  0  0  0  0
    5.9762  -15.9682   21.8810 O   0  0  0  0  0  0  0  0  0  0  0  0
    8.0481  -15.9510   22.8190 N   0  0  0  0  0  0  0  0  0  0  0  0
    7.6690  -16.2536   24.1689 C   0  0  1  0  0  0  0  0  0  0  0  0
    8.0573  -17.5962   24.6645 C   0  0  0  0  0  0  0  0  0  0  0  0
    7.7355  -17.9059   26.0829 C   0  0  0  0  0  0  0  0  0  0  0  0
    8.1411  -19.1951   26.5926 C   0  0  0  0  0  0  0  0  0  0  0  0
    7.8251  -19.4823   27.7801 O   0  0  0  0  0  0  0  0  0  0  0  0
    8.3355  -15.2281   25.0277 C   0  0  0  0  0  0  0  0  0  0  0  0
    9.5445  -14.9483   24.9667 O   0  0  0  0  0  0  0  0  0  0  0  0
    8.8472  -20.1869   25.9432 O   0  0  0  0  0  0  0  0  0  0  0  0
    7.1024  -11.6802   25.7873 C   0  0  0  0  0  0  0  0  0  0  0  0
    7.1629  -12.4576   27.0834 C   0  0  1  0  0  0  0  0  0  0  0  0
    5.7563  -12.8869   27.4266 C   0  0  0  0  0  0  0  0  0  0  0  0
    8.0928  -13.6528   26.9479 C   0  0  2  0  0  0  0  0  0  0  0  0
    7.5234  -14.5383   25.9673 N   0  0  0  0  0  0  0  0  0  0  0  0
    8.3017  -14.3231   28.2553 C   0  0  0  0  0  0  0  0  0  0  0  0
    9.0214  -13.6922   29.2596 O   0  0  0  0  0  0  0  0  0  0  0  0
    7.8389  -15.4605   28.4810 O   0  0  0  0  0  0  0  0  0  0  0  0
  2  3  1  0
  2  1  1  6
  4  3  1  0
  4  8  1  0
  5  6  1  0
  5  4  2  0
  6  7  1  0
  7  8  2  0
  9 11  1  0
  9  2  1  0
 10  9  2  0
 12 11  1  0
 12 13  1  1
 13 14  1  0
 14 15  1  0
 15 19  1  0
 16 15  2  0
 17 12  1  0
 18 17  2  0
 21 22  1  6
 21 20  1  0
 23 24  1  6
 23 21  1  0
 24 17  1  0
 25 23  1  0
 26 25  1  0
 27 25  2  0
M  END
$$$$
