HEV.pdb
     RDKit          3D

 27 27  0  0  1  0  0  0  0  0999 V2000
    7.1952  -17.2239   19.3128 N   0  0  0  0  0  0  0  0  0  0  0  0
    7.7292  -16.0966   20.0497 C   0  0  1  0  0  0  0  0  0  0  0  0
    6.9306  -14.8817   19.6402 C   0  0  0  0  0  0  0  0  0  0  0  0
    7.6130  -14.2840   18.4606 C   0  0  0  0  0  0  0  0  0  0  0  0
    8.7625  -14.7830   17.8948 C   0  0  0  0  0  0  0  0  0  0  0  0
    9.1267  -14.0103   16.8371 N   0  0  0  0  0  0  0  0  0  0  0  0
    8.1950  -13.0381   16.7600 C   0  0  0  0  0  0  0  0  0  0  0  0
    7.2846  -13.2029   17.7365 N   0  0  0  0  0  0  0  0  0  0  0  0
    7.6765  -16.3403   21.5080 C   0  0  0  0  0  0  0  0  0  0  0  0
    6.5507  -16.5706   22.0021 O   0  0  0  0  0  0  0  0  0  0  0  0
    8.7845  -16.3303   22.3556 N   0  0  0  0  0  0  0  0  0  0  0  0
    8.7961  -16.5556   23.7721 C   0  0  1  0  0  0  0  0  0  0  0  0
    9.8550  -17.4642   24.2741 C   0  0  0  0  0  0  0  0  0  0  0  0
    9.9053  -17.6877   25.7434 C   0  0  0  0  0  0  0  0  0  0  0  0
   10.9558  -18.5380   26.2531 C   0  0  0  0  0  0  0  0  0  0  0  0
   11.0643  -19.6952   25.7614 O   0  0  0  0  0  0  0  0  0  0  0  0
    8.9920  -15.2158   24.4046 C   0  0  0  0  0  0  0  0  0  0  0  0
    9.9306  -14.4483   24.1330 O   0  0  0  0  0  0  0  0  0  0  0  0
   11.8856  -18.2537   27.2321 O   0  0  0  0  0  0  0  0  0  0  0  0
    5.7883  -13.5944   26.7277 C   0  0  0  0  0  0  0  0  0  0  0  0
    6.9118  -12.8208   26.0741 C   0  0  1  0  0  0  0  0  0  0  0  0
    7.0273  -11.4927   26.7837 C   0  0  0  0  0  0  0  0  0  0  0  0
    8.2127  -13.6047   26.1437 C   0  0  2  0  0  0  0  0  0  0  0  0
    8.0376  -14.8078   25.3745 N   0  0  0  0  0  0  0  0  0  0  0  0
    8.5958  -13.8878   27.5491 C   0  0  0  0  0  0  0  0  0  0  0  0
    8.6193  -15.1925   28.0202 O   0  0  0  0  0  0  0  0  0  0  0  0
    8.9035  -12.9672   28.3343 O   0  0  0  0  0  0  0  0  0  0  0  0
  2  3  1  0
  2  1  1  6
  4  3  1  0
  4  8  1  0
  5  6  1  0
  5  4  2  0
  6  7  1  0
  7  8  2  0
  9 11  1  0
  9  2  1  0
 10  9  2  0
 12 11  1  0
 12 13  1  6
 13 14  1  0
 14 15  1  0
 15 19  1  0
 16 15  2  0
 17 12  1  0
 18 17  2  0
 21 22  1  1
 21 20  1  0
 23 24  1  6
 23 21  1  0
 24 17  1  0
 25 23  1  0
 26 25  1  0
 27 25  2  0
M  END
$$$$
