NGI.pdb
     RDKit          3D

 21 20  0  0  1  0  0  0  0  0999 V2000
   13.5542  -13.2424  -18.0929 N   0  0  0  0  0  0  0  0  0  0  0  0
   14.3612  -12.5949  -17.1129 C   0  0  0  0  0  0  0  0  0  0  0  0
   14.3065  -13.0905  -15.9435 O   0  0  0  0  0  0  0  0  0  0  0  0
   15.2166  -11.4173  -17.4179 C   0  0  0  0  0  0  0  0  0  0  0  0
   15.9457  -11.0302  -16.1596 C   0  0  2  0  0  0  0  0  0  0  0  0
   14.9798  -10.4118  -15.2762 N   0  0  0  0  0  0  0  0  0  0  0  0
   17.0457  -10.0866  -16.3804 C   0  0  0  0  0  0  0  0  0  0  0  0
   18.0544  -10.4708  -17.0155 O   0  0  0  0  0  0  0  0  0  0  0  0
   17.0348   -8.7380  -15.9080 N   0  0  0  0  0  0  0  0  0  0  0  0
   18.0318   -7.7595  -16.1556 C   0  0  0  0  0  0  0  0  0  0  0  0
   18.9648   -7.4868  -15.0420 C   0  0  0  0  0  0  0  0  0  0  0  0
   18.6837   -7.9561  -13.8828 O   0  0  0  0  0  0  0  0  0  0  0  0
   23.7242   -9.9279  -13.9555 C   0  0  0  0  0  0  0  0  0  0  0  0
   23.0714   -8.5745  -13.5979 C   0  0  0  0  0  0  0  0  0  0  0  0
   22.0269   -8.2135  -14.5882 C   0  0  2  0  0  0  0  0  0  0  0  0
   22.5321   -8.2096  -16.0123 C   0  0  0  0  0  0  0  0  0  0  0  0
   21.3021   -6.9692  -14.2179 C   0  0  2  0  0  0  0  0  0  0  0  0
   20.1518   -6.7491  -15.1236 N   0  0  0  0  0  0  0  0  0  0  0  0
   22.1067   -5.7450  -14.1184 C   0  0  0  0  0  0  0  0  0  0  0  0
   22.2851   -4.9641  -15.0820 O   0  0  0  0  0  0  0  0  0  0  0  0
   22.7402   -5.3556  -12.9294 O   0  0  0  0  0  0  0  0  0  0  0  0
  2  1  1  0
  2  3  2  0
  4  2  1  0
  5  6  1  1
  5  4  1  0
  7  5  1  0
  8  7  2  0
  9  7  1  0
 10 11  1  0
 10  9  1  0
 11 18  1  0
 12 11  2  0
 13 14  1  0
 15 17  1  0
 15 14  1  0
 15 16  1  6
 17 18  1  6
 19 17  1  0
 19 21  1  0
 20 19  2  0
M  END
$$$$
