NGI.pdb
     RDKit          3D

 21 20  0  0  1  0  0  0  0  0999 V2000
   15.9580  -15.6572  -20.2812 N   0  0  0  0  0  0  0  0  0  0  0  0
   17.1843  -15.2125  -19.7075 C   0  0  0  0  0  0  0  0  0  0  0  0
   17.9589  -16.1304  -19.2908 O   0  0  0  0  0  0  0  0  0  0  0  0
   17.5516  -13.7760  -19.5947 C   0  0  0  0  0  0  0  0  0  0  0  0
   18.0509  -13.5291  -18.1966 C   0  0  2  0  0  0  0  0  0  0  0  0
   16.8936  -13.2703  -17.3664 N   0  0  0  0  0  0  0  0  0  0  0  0
   18.9658  -12.3886  -18.0887 C   0  0  0  0  0  0  0  0  0  0  0  0
   20.1416  -12.5900  -17.7073 O   0  0  0  0  0  0  0  0  0  0  0  0
   18.5906  -11.0446  -18.3966 N   0  0  0  0  0  0  0  0  0  0  0  0
   19.4344   -9.9062  -18.3264 C   0  0  0  0  0  0  0  0  0  0  0  0
   19.9203   -9.5402  -16.9793 C   0  0  0  0  0  0  0  0  0  0  0  0
   19.2257   -9.8974  -15.9631 O   0  0  0  0  0  0  0  0  0  0  0  0
   24.2225  -11.2073  -15.0160 C   0  0  0  0  0  0  0  0  0  0  0  0
   22.8313  -10.5951  -15.2907 C   0  0  0  0  0  0  0  0  0  0  0  0
   22.8317   -9.1371  -15.0150 C   0  0  2  0  0  0  0  0  0  0  0  0
   23.3666   -8.7900  -13.6450 C   0  0  0  0  0  0  0  0  0  0  0  0
   21.5189   -8.5049  -15.3113 C   0  0  2  0  0  0  0  0  0  0  0  0
   21.0883   -8.8242  -16.6912 N   0  0  0  0  0  0  0  0  0  0  0  0
   21.4171   -7.0596  -15.0731 C   0  0  0  0  0  0  0  0  0  0  0  0
   21.5427   -6.2065  -15.9824 O   0  0  0  0  0  0  0  0  0  0  0  0
   21.1700   -6.5221  -13.8017 O   0  0  0  0  0  0  0  0  0  0  0  0
  2  1  1  0
  2  3  2  0
  4  2  1  0
  5  6  1  1
  5  4  1  0
  7  5  1  0
  8  7  2  0
  9  7  1  0
 10 11  1  0
 10  9  1  0
 11 18  1  0
 12 11  2  0
 13 14  1  0
 15 17  1  0
 15 14  1  0
 15 16  1  1
 17 18  1  6
 19 17  1  0
 19 21  1  0
 20 19  2  0
M  END
$$$$
