NGI.pdb
     RDKit          3D

 21 20  0  0  1  0  0  0  0  0999 V2000
   23.1397  -17.0215  -17.1256 N   0  0  0  0  0  0  0  0  0  0  0  0
   24.3494  -17.5692  -17.6428 C   0  0  0  0  0  0  0  0  0  0  0  0
   24.2327  -18.6814  -18.2475 O   0  0  0  0  0  0  0  0  0  0  0  0
   25.6693  -16.9002  -17.4954 C   0  0  0  0  0  0  0  0  0  0  0  0
   26.5847  -17.8311  -16.7471 C   0  0  2  0  0  0  0  0  0  0  0  0
   26.0498  -19.1685  -16.8921 N   0  0  0  0  0  0  0  0  0  0  0  0
   26.6969  -17.5269  -15.3173 C   0  0  0  0  0  0  0  0  0  0  0  0
   26.9976  -16.3624  -14.9681 O   0  0  0  0  0  0  0  0  0  0  0  0
   26.4806  -18.4924  -14.2863 N   0  0  0  0  0  0  0  0  0  0  0  0
   26.5697  -18.2558  -12.8902 C   0  0  0  0  0  0  0  0  0  0  0  0
   26.1209  -19.3589  -12.0147 C   0  0  0  0  0  0  0  0  0  0  0  0
   25.7304  -20.4505  -12.5615 O   0  0  0  0  0  0  0  0  0  0  0  0
   27.6286  -19.3173   -6.8249 C   0  0  0  0  0  0  0  0  0  0  0  0
   27.3734  -20.0214   -8.1758 C   0  0  0  0  0  0  0  0  0  0  0  0
   25.9252  -20.2783   -8.3724 C   0  0  2  0  0  0  0  0  0  0  0  0
   25.3867  -21.3695   -7.4765 C   0  0  0  0  0  0  0  0  0  0  0  0
   25.5733  -20.4663   -9.8048 C   0  0  2  0  0  0  0  0  0  0  0  0
   26.0748  -19.3338  -10.6157 N   0  0  0  0  0  0  0  0  0  0  0  0
   24.1579  -20.7146  -10.1065 C   0  0  0  0  0  0  0  0  0  0  0  0
   23.6800  -21.8647  -10.2443 O   0  0  0  0  0  0  0  0  0  0  0  0
   23.2288  -19.6761  -10.2640 O   0  0  0  0  0  0  0  0  0  0  0  0
  2  1  1  0
  2  3  2  0
  4  2  1  0
  5  6  1  1
  5  4  1  0
  7  5  1  0
  8  7  2  0
  9  7  1  0
 10 11  1  0
 10  9  1  0
 11 18  1  0
 12 11  2  0
 13 14  1  0
 15 17  1  0
 15 14  1  0
 15 16  1  1
 17 18  1  6
 19 17  1  0
 19 21  1  0
 20 19  2  0
M  END
$$$$
