NGI.pdb
     RDKit          3D

 21 20  0  0  1  0  0  0  0  0999 V2000
   21.1777  -21.4633  -15.7680 N   0  0  0  0  0  0  0  0  0  0  0  0
   22.4308  -21.9155  -16.2740 C   0  0  0  0  0  0  0  0  0  0  0  0
   22.4801  -22.0990  -17.5311 O   0  0  0  0  0  0  0  0  0  0  0  0
   23.6131  -22.1620  -15.4064 C   0  0  0  0  0  0  0  0  0  0  0  0
   24.6428  -21.1067  -15.7078 C   0  0  2  0  0  0  0  0  0  0  0  0
   25.7593  -21.7669  -16.3506 N   0  0  0  0  0  0  0  0  0  0  0  0
   25.1375  -20.4070  -14.5183 C   0  0  0  0  0  0  0  0  0  0  0  0
   24.4357  -19.5010  -14.0134 O   0  0  0  0  0  0  0  0  0  0  0  0
   26.3885  -20.7014  -13.8934 N   0  0  0  0  0  0  0  0  0  0  0  0
   26.8972  -20.0921  -12.7175 C   0  0  0  0  0  0  0  0  0  0  0  0
   26.4789  -20.7014  -11.4374 C   0  0  0  0  0  0  0  0  0  0  0  0
   26.3757  -21.9774  -11.3749 O   0  0  0  0  0  0  0  0  0  0  0  0
   28.4546  -19.0620   -6.8102 C   0  0  0  0  0  0  0  0  0  0  0  0
   27.8684  -19.9229   -7.9508 C   0  0  0  0  0  0  0  0  0  0  0  0
   26.3933  -20.0281   -7.8288 C   0  0  2  0  0  0  0  0  0  0  0  0
   25.9446  -20.6102   -6.5085 C   0  0  0  0  0  0  0  0  0  0  0  0
   25.7743  -20.6936   -9.0056 C   0  0  2  0  0  0  0  0  0  0  0  0
   26.1741  -20.0121  -10.2576 N   0  0  0  0  0  0  0  0  0  0  0  0
   24.3169  -20.8686   -8.9702 C   0  0  0  0  0  0  0  0  0  0  0  0
   23.5240  -20.1277   -9.5968 O   0  0  0  0  0  0  0  0  0  0  0  0
   23.6989  -21.8850   -8.2274 O   0  0  0  0  0  0  0  0  0  0  0  0
  2  1  1  0
  2  3  2  0
  4  2  1  0
  5  6  1  1
  5  4  1  0
  7  5  1  0
  8  7  2  0
  9  7  1  0
 10 11  1  0
 10  9  1  0
 11 18  1  0
 12 11  2  0
 13 14  1  0
 15 17  1  0
 15 14  1  0
 15 16  1  1
 17 18  1  6
 19 17  1  0
 19 21  1  0
 20 19  2  0
M  END
$$$$
