NGI.pdb
     RDKit          3D

 21 20  0  0  1  0  0  0  0  0999 V2000
   29.1878  -26.1035  -18.9026 N   0  0  0  0  0  0  0  0  0  0  0  0
   28.1051  -26.1541  -17.9775 C   0  0  0  0  0  0  0  0  0  0  0  0
   27.4187  -27.2241  -17.9953 O   0  0  0  0  0  0  0  0  0  0  0  0
   27.7835  -25.0408  -17.0456 C   0  0  0  0  0  0  0  0  0  0  0  0
   28.8451  -23.9845  -17.1946 C   0  0  2  0  0  0  0  0  0  0  0  0
   30.0849  -24.5493  -16.7053 N   0  0  0  0  0  0  0  0  0  0  0  0
   28.5654  -22.7558  -16.4454 C   0  0  0  0  0  0  0  0  0  0  0  0
   29.3513  -21.7870  -16.5565 O   0  0  0  0  0  0  0  0  0  0  0  0
   27.4353  -22.5963  -15.5854 N   0  0  0  0  0  0  0  0  0  0  0  0
   27.0517  -21.4005  -14.9254 C   0  0  0  0  0  0  0  0  0  0  0  0
   25.8964  -21.5062  -14.0095 C   0  0  0  0  0  0  0  0  0  0  0  0
   25.1343  -22.5323  -14.1059 O   0  0  0  0  0  0  0  0  0  0  0  0
   26.6149  -20.0937   -8.9545 C   0  0  0  0  0  0  0  0  0  0  0  0
   26.1781  -20.7854  -10.2647 C   0  0  0  0  0  0  0  0  0  0  0  0
   24.8480  -20.2949  -10.7030 C   0  0  2  0  0  0  0  0  0  0  0  0
   23.7728  -20.4725   -9.6562 C   0  0  0  0  0  0  0  0  0  0  0  0
   24.4620  -20.8235  -12.0381 C   0  0  2  0  0  0  0  0  0  0  0  0
   25.5379  -20.5778  -13.0249 N   0  0  0  0  0  0  0  0  0  0  0  0
   23.1723  -20.3722  -12.5756 C   0  0  0  0  0  0  0  0  0  0  0  0
   23.0423  -19.3254  -13.2520 O   0  0  0  0  0  0  0  0  0  0  0  0
   21.9813  -21.0837  -12.3708 O   0  0  0  0  0  0  0  0  0  0  0  0
  2  1  1  0
  2  3  2  0
  4  2  1  0
  5  6  1  1
  5  4  1  0
  7  5  1  0
  8  7  2  0
  9  7  1  0
 10 11  1  0
 10  9  1  0
 11 18  1  0
 12 11  2  0
 13 14  1  0
 15 17  1  0
 15 14  1  0
 15 16  1  1
 17 18  1  6
 19 17  1  0
 19 21  1  0
 20 19  2  0
M  END
$$$$
