NGI.pdb
     RDKit          3D

 21 20  0  0  1  0  0  0  0  0999 V2000
   21.3115  -21.6609  -18.5958 N   0  0  0  0  0  0  0  0  0  0  0  0
   21.6158  -20.7719  -17.5245 C   0  0  0  0  0  0  0  0  0  0  0  0
   21.1250  -19.6035  -17.6258 O   0  0  0  0  0  0  0  0  0  0  0  0
   22.4496  -21.1652  -16.3577 C   0  0  0  0  0  0  0  0  0  0  0  0
   23.6914  -20.3150  -16.3621 C   0  0  2  0  0  0  0  0  0  0  0  0
   24.7733  -21.1371  -16.8614 N   0  0  0  0  0  0  0  0  0  0  0  0
   24.0648  -19.8074  -15.0384 C   0  0  0  0  0  0  0  0  0  0  0  0
   23.1601  -19.5505  -14.2114 O   0  0  0  0  0  0  0  0  0  0  0  0
   25.4165  -19.5858  -14.6312 N   0  0  0  0  0  0  0  0  0  0  0  0
   25.8406  -19.1505  -13.3492 C   0  0  0  0  0  0  0  0  0  0  0  0
   25.6040  -20.0904  -12.2332 C   0  0  0  0  0  0  0  0  0  0  0  0
   25.2438  -21.2886  -12.5116 O   0  0  0  0  0  0  0  0  0  0  0  0
   27.6597  -19.3116   -6.9273 C   0  0  0  0  0  0  0  0  0  0  0  0
   26.5309  -19.4469   -7.9729 C   0  0  0  0  0  0  0  0  0  0  0  0
   26.7323  -20.6521   -8.8149 C   0  0  2  0  0  0  0  0  0  0  0  0
   28.1160  -20.7340   -9.4166 C   0  0  0  0  0  0  0  0  0  0  0  0
   25.6453  -20.8329   -9.8131 C   0  0  2  0  0  0  0  0  0  0  0  0
   25.7334  -19.7999  -10.8699 N   0  0  0  0  0  0  0  0  0  0  0  0
   24.2758  -20.9012   -9.2880 C   0  0  0  0  0  0  0  0  0  0  0  0
   23.9033  -21.7653   -8.4605 O   0  0  0  0  0  0  0  0  0  0  0  0
   23.2753  -19.9983   -9.6758 O   0  0  0  0  0  0  0  0  0  0  0  0
  2  1  1  0
  2  3  2  0
  4  2  1  0
  5  6  1  1
  5  4  1  0
  7  5  1  0
  8  7  2  0
  9  7  1  0
 10 11  1  0
 10  9  1  0
 11 18  1  0
 12 11  2  0
 13 14  1  0
 15 17  1  0
 15 14  1  0
 15 16  1  6
 17 18  1  6
 19 17  1  0
 19 21  1  0
 20 19  2  0
M  END
$$$$
