NGI.pdb
     RDKit          3D

 21 20  0  0  1  0  0  0  0  0999 V2000
   19.6121  -22.9772  -13.6891 N   0  0  0  0  0  0  0  0  0  0  0  0
   18.8673  -21.8417  -13.2572 C   0  0  0  0  0  0  0  0  0  0  0  0
   17.8065  -22.0980  -12.6051 O   0  0  0  0  0  0  0  0  0  0  0  0
   19.2859  -20.4432  -13.5404 C   0  0  0  0  0  0  0  0  0  0  0  0
   20.6172  -20.4859  -14.2407 C   0  0  2  0  0  0  0  0  0  0  0  0
   21.6165  -20.8103  -13.2447 N   0  0  0  0  0  0  0  0  0  0  0  0
   20.9900  -19.2201  -14.8793 C   0  0  0  0  0  0  0  0  0  0  0  0
   20.5803  -18.1469  -14.3806 O   0  0  0  0  0  0  0  0  0  0  0  0
   21.8031  -19.1375  -16.0515 N   0  0  0  0  0  0  0  0  0  0  0  0
   22.1784  -17.9460  -16.7240 C   0  0  0  0  0  0  0  0  0  0  0  0
   23.0734  -17.0348  -15.9799 C   0  0  0  0  0  0  0  0  0  0  0  0
   22.9736  -16.9912  -14.7028 O   0  0  0  0  0  0  0  0  0  0  0  0
   28.3423  -16.4085  -17.0473 C   0  0  0  0  0  0  0  0  0  0  0  0
   26.9194  -15.8084  -17.0775 C   0  0  0  0  0  0  0  0  0  0  0  0
   26.3102  -15.8249  -15.7245 C   0  0  2  0  0  0  0  0  0  0  0  0
   26.4599  -17.1532  -15.0198 C   0  0  0  0  0  0  0  0  0  0  0  0
   24.9136  -15.3145  -15.7267 C   0  0  2  0  0  0  0  0  0  0  0  0
   24.0412  -16.1921  -16.5394 N   0  0  0  0  0  0  0  0  0  0  0  0
   24.7270  -13.9127  -16.1218 C   0  0  0  0  0  0  0  0  0  0  0  0
   24.3380  -13.5701  -17.2627 O   0  0  0  0  0  0  0  0  0  0  0  0
   24.9719  -12.8452  -15.2461 O   0  0  0  0  0  0  0  0  0  0  0  0
  2  1  1  0
  2  3  2  0
  4  2  1  0
  5  6  1  1
  5  4  1  0
  7  5  1  0
  8  7  2  0
  9  7  1  0
 10 11  1  0
 10  9  1  0
 11 18  1  0
 12 11  2  0
 13 14  1  0
 15 17  1  0
 15 14  1  0
 15 16  1  6
 17 18  1  6
 19 17  1  0
 19 21  1  0
 20 19  2  0
M  END
$$$$
