NGI.pdb
     RDKit          3D

 21 20  0  0  1  0  0  0  0  0999 V2000
   22.1330  -21.9255  -16.6275 N   0  0  0  0  0  0  0  0  0  0  0  0
   23.3143  -21.3409  -16.0858 C   0  0  0  0  0  0  0  0  0  0  0  0
   24.3547  -21.4364  -16.8101 O   0  0  0  0  0  0  0  0  0  0  0  0
   23.3482  -20.6605  -14.7639 C   0  0  0  0  0  0  0  0  0  0  0  0
   24.5419  -21.1731  -14.0043 C   0  0  2  0  0  0  0  0  0  0  0  0
   24.2995  -22.5707  -13.7152 N   0  0  0  0  0  0  0  0  0  0  0  0
   24.7838  -20.4712  -12.7401 C   0  0  0  0  0  0  0  0  0  0  0  0
   23.8718  -20.4372  -11.8826 O   0  0  0  0  0  0  0  0  0  0  0  0
   26.0139  -19.8157  -12.4249 N   0  0  0  0  0  0  0  0  0  0  0  0
   26.3086  -19.1313  -11.2176 C   0  0  0  0  0  0  0  0  0  0  0  0
   26.6483  -19.9802  -10.0562 C   0  0  0  0  0  0  0  0  0  0  0  0
   27.2351  -21.0994  -10.2704 O   0  0  0  0  0  0  0  0  0  0  0  0
   29.2220  -20.1174   -4.7031 C   0  0  0  0  0  0  0  0  0  0  0  0
   28.2179  -20.8390   -5.6287 C   0  0  0  0  0  0  0  0  0  0  0  0
   27.7316  -19.9272   -6.6937 C   0  0  2  0  0  0  0  0  0  0  0  0
   27.2516  -18.5956   -6.1646 C   0  0  0  0  0  0  0  0  0  0  0  0
   26.7548  -20.5864   -7.6004 C   0  0  2  0  0  0  0  0  0  0  0  0
   26.3872  -19.6822   -8.7135 N   0  0  0  0  0  0  0  0  0  0  0  0
   25.5444  -21.1345   -6.9753 C   0  0  0  0  0  0  0  0  0  0  0  0
   24.4233  -20.5803   -7.0547 O   0  0  0  0  0  0  0  0  0  0  0  0
   25.5526  -22.3271   -6.2378 O   0  0  0  0  0  0  0  0  0  0  0  0
  2  1  1  0
  2  3  2  0
  4  2  1  0
  5  6  1  1
  5  4  1  0
  7  5  1  0
  8  7  2  0
  9  7  1  0
 10 11  1  0
 10  9  1  0
 11 18  1  0
 12 11  2  0
 13 14  1  0
 15 17  1  0
 15 14  1  0
 15 16  1  1
 17 18  1  6
 19 17  1  0
 19 21  1  0
 20 19  2  0
M  END
$$$$
