NGI.pdb
     RDKit          3D

 21 20  0  0  1  0  0  0  0  0999 V2000
   21.6789  -27.8162  -15.7868 N   0  0  0  0  0  0  0  0  0  0  0  0
   21.9941  -26.4366  -15.9542 C   0  0  0  0  0  0  0  0  0  0  0  0
   22.4612  -26.1154  -17.0922 O   0  0  0  0  0  0  0  0  0  0  0  0
   21.7971  -25.4250  -14.8822 C   0  0  0  0  0  0  0  0  0  0  0  0
   23.0370  -24.5754  -14.8069 C   0  0  2  0  0  0  0  0  0  0  0  0
   24.0797  -25.3883  -14.2174 N   0  0  0  0  0  0  0  0  0  0  0  0
   22.8756  -23.3649  -13.9959 C   0  0  0  0  0  0  0  0  0  0  0  0
   22.1343  -22.4480  -14.4179 O   0  0  0  0  0  0  0  0  0  0  0  0
   23.5222  -23.1671  -12.7370 N   0  0  0  0  0  0  0  0  0  0  0  0
   23.5876  -21.9472  -12.0156 C   0  0  0  0  0  0  0  0  0  0  0  0
   24.6752  -21.0229  -12.3999 C   0  0  0  0  0  0  0  0  0  0  0  0
   24.3870  -19.7886  -12.5906 O   0  0  0  0  0  0  0  0  0  0  0  0
   29.8027  -21.6881  -10.7766 C   0  0  0  0  0  0  0  0  0  0  0  0
   28.4435  -21.0720  -11.1752 C   0  0  0  0  0  0  0  0  0  0  0  0
   28.3928  -20.8029  -12.6336 C   0  0  2  0  0  0  0  0  0  0  0  0
   29.4760  -19.8598  -13.1035 C   0  0  0  0  0  0  0  0  0  0  0  0
   27.0330  -20.4105  -13.0895 C   0  0  2  0  0  0  0  0  0  0  0  0
   26.0203  -21.3647  -12.5839 N   0  0  0  0  0  0  0  0  0  0  0  0
   26.8574  -20.2068  -14.5330 C   0  0  0  0  0  0  0  0  0  0  0  0
   26.6300  -21.1442  -15.3329 O   0  0  0  0  0  0  0  0  0  0  0  0
   26.9313  -18.9393  -15.1285 O   0  0  0  0  0  0  0  0  0  0  0  0
  2  1  1  0
  2  3  2  0
  4  2  1  0
  5  6  1  1
  5  4  1  0
  7  5  1  0
  8  7  2  0
  9  7  1  0
 10 11  1  0
 10  9  1  0
 11 18  1  0
 12 11  2  0
 13 14  1  0
 15 17  1  0
 15 14  1  0
 15 16  1  1
 17 18  1  6
 19 17  1  0
 19 21  1  0
 20 19  2  0
M  END
$$$$
