QRV.pdb
     RDKit          3D

 28 27  0  0  1  0  0  0  0  0999 V2000
   29.2329  -22.8089  -21.8020 N   0  0  0  0  0  0  0  0  0  0  0  0
   30.4508  -23.1180  -21.1481 C   0  0  0  0  0  0  0  0  0  0  0  0
   31.4872  -23.2959  -21.8162 O   0  0  0  0  0  0  0  0  0  0  0  0
   30.4704  -23.2236  -19.6789 C   0  0  0  0  0  0  0  0  0  0  0  0
   29.0776  -23.0128  -19.1533 C   0  0  0  0  0  0  0  0  0  0  0  0
   28.9347  -21.8760  -18.1969 C   0  0  2  0  0  0  0  0  0  0  0  0
   30.0193  -21.9723  -17.2170 N   0  0  0  0  0  0  0  0  0  0  0  0
   27.6258  -21.7365  -17.5528 C   0  0  0  0  0  0  0  0  0  0  0  0
   26.5900  -21.7109  -18.2385 O   0  0  0  0  0  0  0  0  0  0  0  0
   22.6789  -23.2163  -12.5650 N   0  0  0  0  0  0  0  0  0  0  0  0
   22.6665  -22.2564  -11.5092 C   0  0  0  0  0  0  0  0  0  0  0  0
   21.5525  -22.0280  -10.8944 N   0  0  0  0  0  0  0  0  0  0  0  0
   23.8583  -21.5710  -11.1446 N   0  0  0  0  0  0  0  0  0  0  0  0
   25.0624  -21.7194  -11.8972 C   0  0  0  0  0  0  0  0  0  0  0  0
   24.8715  -21.5383  -13.4000 C   0  0  0  0  0  0  0  0  0  0  0  0
   26.2527  -21.5284  -14.0036 C   0  0  0  0  0  0  0  0  0  0  0  0
   26.2460  -21.4239  -15.4917 C   0  0  2  0  0  0  0  0  0  0  0  0
   27.5077  -21.6253  -16.1300 N   0  0  0  0  0  0  0  0  0  0  0  0
   25.6313  -20.1100  -15.9066 C   0  0  0  0  0  0  0  0  0  0  0  0
   26.2179  -19.0187  -15.7136 O   0  0  0  0  0  0  0  0  0  0  0  0
   21.5093  -21.4107  -10.0716 C   0  0  0  0  0  0  0  0  0  0  0  0
   22.7319  -17.7238  -18.9817 C   0  0  2  0  0  0  0  0  0  0  0  0
   23.4711  -18.9160  -18.4754 C   0  0  0  0  0  0  0  0  0  0  0  0
   24.7960  -19.0530  -19.1528 C   0  0  1  0  0  0  0  0  0  0  0  0
   23.6988  -18.8638  -16.9776 N   0  0  0  0  0  0  0  0  0  0  0  0
   24.3606  -20.0716  -16.5324 C   0  0  0  0  0  0  0  0  0  0  0  0
   22.4498  -18.7081  -16.2081 O   0  0  0  0  0  0  0  0  0  0  0  0
   21.7455  -19.6897  -15.8361 O   0  0  0  0  0  0  0  0  0  0  0  0
  2  3  2  0
  2  1  1  0
  4  2  1  0
  5  4  1  0
  6  8  1  0
  6  5  1  0
  6  7  1  1
  8 18  1  0
  9  8  2  0
 11 10  1  0
 11 12  2  0
 13 11  1  0
 14 13  1  0
 14 15  1  0
 16 15  1  0
 17 16  1  1
 17 19  1  0
 18 17  1  0
 19 20  2  0
 19 25  1  0
 22 21  1  6
 22 23  1  0
 24 26  1  0
 24 22  1  0
 24 25  1  6
 26 28  1  0
 27 26  2  0
M  END
$$$$
