QRV.pdb
     RDKit          3D

 28 27  0  0  1  0  0  0  0  0999 V2000
   16.6586  -24.6443   -4.9866 N   0  0  0  0  0  0  0  0  0  0  0  0
   16.5775  -26.0584   -4.9955 C   0  0  0  0  0  0  0  0  0  0  0  0
   16.2809  -26.6705   -3.9516 O   0  0  0  0  0  0  0  0  0  0  0  0
   16.8464  -26.7853   -6.2482 C   0  0  0  0  0  0  0  0  0  0  0  0
   17.0757  -25.7912   -7.3527 C   0  0  0  0  0  0  0  0  0  0  0  0
   18.5068  -25.5865   -7.7236 C   0  0  2  0  0  0  0  0  0  0  0  0
   19.1950  -25.0121   -6.5650 N   0  0  0  0  0  0  0  0  0  0  0  0
   18.7518  -24.8138   -8.9444 C   0  0  0  0  0  0  0  0  0  0  0  0
   18.9263  -23.5851   -8.8834 O   0  0  0  0  0  0  0  0  0  0  0  0
   24.1926  -25.7455  -14.1592 N   0  0  0  0  0  0  0  0  0  0  0  0
   23.0473  -25.3535  -14.9146 C   0  0  0  0  0  0  0  0  0  0  0  0
   23.2074  -24.5291  -15.8974 N   0  0  0  0  0  0  0  0  0  0  0  0
   21.7604  -25.8647  -14.5896 N   0  0  0  0  0  0  0  0  0  0  0  0
   21.5534  -26.6828  -13.4380 C   0  0  0  0  0  0  0  0  0  0  0  0
   21.0607  -25.9101  -12.2183 C   0  0  0  0  0  0  0  0  0  0  0  0
   19.6600  -25.4573  -12.5419 C   0  0  0  0  0  0  0  0  0  0  0  0
   19.0103  -24.7062  -11.4286 C   0  0  2  0  0  0  0  0  0  0  0  0
   18.7941  -25.4482  -10.2275 N   0  0  0  0  0  0  0  0  0  0  0  0
   17.7278  -24.0799  -11.9180 C   0  0  0  0  0  0  0  0  0  0  0  0
   16.6440  -24.7105  -11.9146 O   0  0  0  0  0  0  0  0  0  0  0  0
   22.4177  -24.2419  -16.4923 C   0  0  0  0  0  0  0  0  0  0  0  0
   16.1369  -21.0122  -10.5711 C   0  0  2  0  0  0  0  0  0  0  0  0
   16.3710  -20.7574  -12.0217 C   0  0  0  0  0  0  0  0  0  0  0  0
   17.5931  -19.9228  -12.2292 C   0  0  2  0  0  0  0  0  0  0  0  0
   16.5213  -22.0383  -12.8183 N   0  0  0  0  0  0  0  0  0  0  0  0
   17.7117  -22.7477  -12.4003 C   0  0  0  0  0  0  0  0  0  0  0  0
   16.6049  -21.8078  -14.2731 O   0  0  0  0  0  0  0  0  0  0  0  0
   17.6748  -21.9521  -14.9309 O   0  0  0  0  0  0  0  0  0  0  0  0
  2  3  2  0
  2  1  1  0
  4  2  1  0
  5  4  1  0
  6  8  1  0
  6  5  1  0
  6  7  1  1
  8 18  1  0
  9  8  2  0
 11 10  1  0
 11 12  2  0
 13 11  1  0
 14 13  1  0
 14 15  1  0
 16 15  1  0
 17 16  1  6
 17 19  1  0
 18 17  1  0
 19 20  2  0
 19 25  1  0
 22 21  1  1
 22 23  1  0
 24 26  1  0
 24 22  1  0
 24 25  1  6
 26 28  1  0
 27 26  2  0
M  END
$$$$
