QRV.pdb
     RDKit          3D

 28 27  0  0  1  0  0  0  0  0999 V2000
   26.1835  -16.9458  -14.1781 N   0  0  0  0  0  0  0  0  0  0  0  0
   26.6603  -18.0509  -14.9248 C   0  0  0  0  0  0  0  0  0  0  0  0
   26.9538  -19.1134  -14.3439 O   0  0  0  0  0  0  0  0  0  0  0  0
   26.8008  -17.9237  -16.3856 C   0  0  0  0  0  0  0  0  0  0  0  0
   26.3693  -16.5449  -16.8018 C   0  0  0  0  0  0  0  0  0  0  0  0
   24.9092  -16.4018  -17.0752 C   0  0  2  0  0  0  0  0  0  0  0  0
   24.5498  -17.3634  -18.1201 N   0  0  0  0  0  0  0  0  0  0  0  0
   24.4426  -15.0492  -17.3921 C   0  0  0  0  0  0  0  0  0  0  0  0
   25.2427  -14.1899  -17.7984 O   0  0  0  0  0  0  0  0  0  0  0  0
   18.6677   -9.4559  -17.3088 N   0  0  0  0  0  0  0  0  0  0  0  0
   19.0725   -9.3010  -18.6683 C   0  0  0  0  0  0  0  0  0  0  0  0
   19.0498   -8.1182  -19.1893 N   0  0  0  0  0  0  0  0  0  0  0  0
   19.4931  -10.4278  -19.4275 N   0  0  0  0  0  0  0  0  0  0  0  0
   19.6413  -11.7155  -18.8290 C   0  0  0  0  0  0  0  0  0  0  0  0
   20.6896  -11.7591  -17.7214 C   0  0  0  0  0  0  0  0  0  0  0  0
   21.1281  -13.1969  -17.6105 C   0  0  0  0  0  0  0  0  0  0  0  0
   22.6062  -13.3554  -17.4853 C   0  0  2  0  0  0  0  0  0  0  0  0
   23.0657  -14.6856  -17.2416 N   0  0  0  0  0  0  0  0  0  0  0  0
   23.1339  -12.3994  -16.4440 C   0  0  0  0  0  0  0  0  0  0  0  0
   23.0239  -12.6357  -15.2175 O   0  0  0  0  0  0  0  0  0  0  0  0
   19.3047   -7.9595  -20.1740 C   0  0  0  0  0  0  0  0  0  0  0  0
   26.4581   -8.9854  -15.3855 C   0  0  2  0  0  0  0  0  0  0  0  0
   25.8239  -10.0271  -16.2438 C   0  0  0  0  0  0  0  0  0  0  0  0
   26.5415  -11.3322  -16.1218 C   0  0  1  0  0  0  0  0  0  0  0  0
   24.3630  -10.2471  -15.9045 N   0  0  0  0  0  0  0  0  0  0  0  0
   23.7750  -11.1952  -16.8266 C   0  0  0  0  0  0  0  0  0  0  0  0
   23.5670   -9.0056  -15.9444 O   0  0  0  0  0  0  0  0  0  0  0  0
   23.1050   -8.5203  -17.0164 O   0  0  0  0  0  0  0  0  0  0  0  0
  2  3  2  0
  2  1  1  0
  4  2  1  0
  5  4  1  0
  6  8  1  0
  6  5  1  0
  6  7  1  6
  8 18  1  0
  9  8  2  0
 11 10  1  0
 11 12  2  0
 13 11  1  0
 14 13  1  0
 14 15  1  0
 16 15  1  0
 17 16  1  1
 17 19  1  0
 18 17  1  0
 19 20  2  0
 19 25  1  0
 22 21  1  6
 22 23  1  0
 24 26  1  0
 24 22  1  0
 24 25  1  6
 26 28  1  0
 27 26  2  0
M  END
$$$$
