QRV.pdb
     RDKit          3D

 28 27  0  0  1  0  0  0  0  0999 V2000
   19.1754  -17.9287  -14.3035 N   0  0  0  0  0  0  0  0  0  0  0  0
   19.3806  -18.7672  -15.4265 C   0  0  0  0  0  0  0  0  0  0  0  0
   18.5136  -18.8339  -16.3189 O   0  0  0  0  0  0  0  0  0  0  0  0
   20.6247  -19.5504  -15.5204 C   0  0  0  0  0  0  0  0  0  0  0  0
   21.4408  -19.3255  -14.2779 C   0  0  0  0  0  0  0  0  0  0  0  0
   22.1141  -20.5448  -13.7419 C   0  0  2  0  0  0  0  0  0  0  0  0
   22.9947  -21.0702  -14.7881 N   0  0  0  0  0  0  0  0  0  0  0  0
   21.2324  -21.5810  -13.1974 C   0  0  0  0  0  0  0  0  0  0  0  0
   21.0002  -22.6123  -13.8503 O   0  0  0  0  0  0  0  0  0  0  0  0
   16.5005  -25.2325   -8.1010 N   0  0  0  0  0  0  0  0  0  0  0  0
   17.6132  -25.5786   -7.2774 C   0  0  0  0  0  0  0  0  0  0  0  0
   17.5886  -26.7070   -6.6472 N   0  0  0  0  0  0  0  0  0  0  0  0
   18.7234  -24.6974   -7.1588 N   0  0  0  0  0  0  0  0  0  0  0  0
   18.7624  -23.4513   -7.8545 C   0  0  0  0  0  0  0  0  0  0  0  0
   18.7989  -23.5983   -9.3726 C   0  0  0  0  0  0  0  0  0  0  0  0
   19.6646  -22.4761   -9.8855 C   0  0  0  0  0  0  0  0  0  0  0  0
   19.7445  -22.4251  -11.3743 C   0  0  2  0  0  0  0  0  0  0  0  0
   20.6196  -21.4325  -11.9116 N   0  0  0  0  0  0  0  0  0  0  0  0
   18.3574  -22.2972  -11.9541 C   0  0  0  0  0  0  0  0  0  0  0  0
   17.7031  -21.2311  -11.8664 O   0  0  0  0  0  0  0  0  0  0  0  0
   18.3796  -27.0146   -6.0644 C   0  0  0  0  0  0  0  0  0  0  0  0
   17.3307  -23.6128  -15.5446 C   0  0  2  0  0  0  0  0  0  0  0  0
   16.4251  -24.1736  -14.5009 C   0  0  0  0  0  0  0  0  0  0  0  0
   16.8003  -25.5806  -14.1651 C   0  0  2  0  0  0  0  0  0  0  0  0
   16.4339  -23.3551  -13.2250 N   0  0  0  0  0  0  0  0  0  0  0  0
   17.7487  -23.3893  -12.6207 C   0  0  0  0  0  0  0  0  0  0  0  0
   15.4527  -23.8262  -12.2292 O   0  0  0  0  0  0  0  0  0  0  0  0
   14.2113  -23.6114  -12.3334 O   0  0  0  0  0  0  0  0  0  0  0  0
  2  3  2  0
  2  1  1  0
  4  2  1  0
  5  4  1  0
  6  8  1  0
  6  5  1  0
  6  7  1  6
  8 18  1  0
  9  8  2  0
 11 10  1  0
 11 12  2  0
 13 11  1  0
 14 13  1  0
 14 15  1  0
 16 15  1  0
 17 16  1  1
 17 19  1  0
 18 17  1  0
 19 20  2  0
 19 25  1  0
 22 21  1  6
 22 23  1  0
 24 26  1  0
 24 22  1  0
 24 25  1  1
 26 28  1  0
 27 26  2  0
M  END
$$$$
