QRV.pdb
     RDKit          3D

 28 27  0  0  1  0  0  0  0  0999 V2000
   20.8695  -30.5409  -14.1506 N   0  0  0  0  0  0  0  0  0  0  0  0
   21.8174  -30.8782  -13.1536 C   0  0  0  0  0  0  0  0  0  0  0  0
   22.8829  -31.4392  -13.4735 O   0  0  0  0  0  0  0  0  0  0  0  0
   21.5246  -30.5567  -11.7462 C   0  0  0  0  0  0  0  0  0  0  0  0
   20.2573  -29.7503  -11.6805 C   0  0  0  0  0  0  0  0  0  0  0  0
   19.8644  -29.3122  -10.3091 C   0  0  2  0  0  0  0  0  0  0  0  0
   19.4151  -30.4942   -9.5696 N   0  0  0  0  0  0  0  0  0  0  0  0
   18.8919  -28.2183  -10.2360 C   0  0  0  0  0  0  0  0  0  0  0  0
   17.6843  -28.4403  -10.4264 O   0  0  0  0  0  0  0  0  0  0  0  0
   15.9263  -24.5307   -5.7418 N   0  0  0  0  0  0  0  0  0  0  0  0
   16.8380  -25.3094   -4.9682 C   0  0  0  0  0  0  0  0  0  0  0  0
   16.3606  -26.1978   -4.1595 N   0  0  0  0  0  0  0  0  0  0  0  0
   18.2408  -25.1090   -5.0908 N   0  0  0  0  0  0  0  0  0  0  0  0
   18.8230  -24.6463   -6.3095 C   0  0  0  0  0  0  0  0  0  0  0  0
   18.7945  -25.6785   -7.4326 C   0  0  0  0  0  0  0  0  0  0  0  0
   18.4611  -24.9227   -8.6933 C   0  0  0  0  0  0  0  0  0  0  0  0
   18.3725  -25.7962   -9.8994 C   0  0  2  0  0  0  0  0  0  0  0  0
   19.3042  -26.8776   -9.9478 N   0  0  0  0  0  0  0  0  0  0  0  0
   18.4561  -24.9514  -11.1467 C   0  0  0  0  0  0  0  0  0  0  0  0
   19.5581  -24.6038  -11.6337 O   0  0  0  0  0  0  0  0  0  0  0  0
   16.9751  -26.7566   -3.5512 C   0  0  0  0  0  0  0  0  0  0  0  0
   14.9119  -24.5583  -13.5035 C   0  0  2  0  0  0  0  0  0  0  0  0
   16.3039  -24.4882  -14.0342 C   0  0  0  0  0  0  0  0  0  0  0  0
   16.3451  -23.7559  -15.3362 C   0  0  1  0  0  0  0  0  0  0  0  0
   17.2584  -23.8116  -13.0705 N   0  0  0  0  0  0  0  0  0  0  0  0
   17.2797  -24.5222  -11.8097 C   0  0  0  0  0  0  0  0  0  0  0  0
   16.9091  -22.4033  -12.8039 O   0  0  0  0  0  0  0  0  0  0  0  0
   16.2331  -22.0419  -11.7987 O   0  0  0  0  0  0  0  0  0  0  0  0
  2  3  2  0
  2  1  1  0
  4  2  1  0
  5  4  1  0
  6  8  1  0
  6  5  1  0
  6  7  1  6
  8 18  1  0
  9  8  2  0
 11 10  1  0
 11 12  2  0
 13 11  1  0
 14 13  1  0
 14 15  1  0
 16 15  1  0
 17 16  1  1
 17 19  1  0
 18 17  1  0
 19 20  2  0
 19 25  1  0
 22 21  1  6
 22 23  1  0
 24 26  1  0
 24 22  1  0
 24 25  1  6
 26 28  1  0
 27 26  2  0
M  END
$$$$
