QRV.pdb
     RDKit          3D

 28 27  0  0  1  0  0  0  0  0999 V2000
   11.5769  -20.7620   -1.3623 N   0  0  0  0  0  0  0  0  0  0  0  0
   11.6232  -19.8073   -2.4077 C   0  0  0  0  0  0  0  0  0  0  0  0
   11.1760  -18.6595   -2.2212 O   0  0  0  0  0  0  0  0  0  0  0  0
   12.2042  -20.1912   -3.7057 C   0  0  0  0  0  0  0  0  0  0  0  0
   12.6372  -21.6297   -3.6432 C   0  0  0  0  0  0  0  0  0  0  0  0
   13.2944  -22.1401   -4.8821 C   0  0  2  0  0  0  0  0  0  0  0  0
   12.3257  -22.0477   -5.9771 N   0  0  0  0  0  0  0  0  0  0  0  0
   13.8922  -23.4750   -4.7912 C   0  0  0  0  0  0  0  0  0  0  0  0
   13.2885  -24.3934   -4.2117 O   0  0  0  0  0  0  0  0  0  0  0  0
   19.4130  -24.2757   -8.8984 N   0  0  0  0  0  0  0  0  0  0  0  0
   18.4985  -24.9189   -9.7850 C   0  0  0  0  0  0  0  0  0  0  0  0
   18.9475  -25.8359  -10.5779 N   0  0  0  0  0  0  0  0  0  0  0  0
   17.1233  -24.5558   -9.7895 N   0  0  0  0  0  0  0  0  0  0  0  0
   16.4420  -24.2051   -8.5849 C   0  0  0  0  0  0  0  0  0  0  0  0
   15.9129  -25.4071   -7.8084 C   0  0  0  0  0  0  0  0  0  0  0  0
   16.6316  -25.4044   -6.4835 C   0  0  0  0  0  0  0  0  0  0  0  0
   15.7466  -25.0619   -5.3324 C   0  0  2  0  0  0  0  0  0  0  0  0
   15.1763  -23.7527   -5.3610 N   0  0  0  0  0  0  0  0  0  0  0  0
   16.4798  -25.3065   -4.0367 C   0  0  0  0  0  0  0  0  0  0  0  0
   17.2946  -24.4733   -3.5739 O   0  0  0  0  0  0  0  0  0  0  0  0
   18.3429  -26.2805  -11.2826 C   0  0  0  0  0  0  0  0  0  0  0  0
   14.8141  -27.0578   -0.8034 C   0  0  2  0  0  0  0  0  0  0  0  0
   16.0807  -27.7299   -1.2135 C   0  0  0  0  0  0  0  0  0  0  0  0
   15.7998  -28.9903   -1.9654 C   0  0  2  0  0  0  0  0  0  0  0  0
   16.9566  -26.8407   -2.0737 N   0  0  0  0  0  0  0  0  0  0  0  0
   16.2663  -26.4970   -3.2986 C   0  0  0  0  0  0  0  0  0  0  0  0
   18.2452  -27.4662   -2.4268 O   0  0  0  0  0  0  0  0  0  0  0  0
   18.4796  -27.9597   -3.5668 O   0  0  0  0  0  0  0  0  0  0  0  0
  2  3  2  0
  2  1  1  0
  4  2  1  0
  5  4  1  0
  6  8  1  0
  6  5  1  0
  6  7  1  6
  8 18  1  0
  9  8  2  0
 11 10  1  0
 11 12  2  0
 13 11  1  0
 14 13  1  0
 14 15  1  0
 16 15  1  0
 17 16  1  6
 17 19  1  0
 18 17  1  0
 19 20  2  0
 19 25  1  0
 22 21  1  1
 22 23  1  0
 24 26  1  0
 24 22  1  0
 24 25  1  1
 26 28  1  0
 27 26  2  0
M  END
$$$$
