QRV.pdb
     RDKit          3D

 28 27  0  0  1  0  0  0  0  0999 V2000
   15.5089  -22.3630  -14.4328 N   0  0  0  0  0  0  0  0  0  0  0  0
   15.5060  -23.3234  -13.3916 C   0  0  0  0  0  0  0  0  0  0  0  0
   14.5590  -24.1266  -13.2896 O   0  0  0  0  0  0  0  0  0  0  0  0
   16.6313  -23.3561  -12.4416 C   0  0  0  0  0  0  0  0  0  0  0  0
   17.6375  -22.3110  -12.8366 C   0  0  0  0  0  0  0  0  0  0  0  0
   18.8716  -22.2815  -11.9980 C   0  0  2  0  0  0  0  0  0  0  0  0
   18.4765  -21.9537  -10.6260 N   0  0  0  0  0  0  0  0  0  0  0  0
   19.9553  -21.4189  -12.4765 C   0  0  0  0  0  0  0  0  0  0  0  0
   19.7194  -20.2473  -12.8166 O   0  0  0  0  0  0  0  0  0  0  0  0
   27.2254  -20.7139  -15.0761 N   0  0  0  0  0  0  0  0  0  0  0  0
   27.0501  -22.0256  -14.5423 C   0  0  0  0  0  0  0  0  0  0  0  0
   27.4758  -23.0346  -15.2292 N   0  0  0  0  0  0  0  0  0  0  0  0
   26.4220  -22.2116  -13.2798 N   0  0  0  0  0  0  0  0  0  0  0  0
   26.0967  -21.1041  -12.4397 C   0  0  0  0  0  0  0  0  0  0  0  0
   24.7582  -20.4533  -12.7751 C   0  0  0  0  0  0  0  0  0  0  0  0
   23.7394  -21.5640  -12.7879 C   0  0  0  0  0  0  0  0  0  0  0  0
   22.3566  -21.0933  -13.0911 C   0  0  2  0  0  0  0  0  0  0  0  0
   21.3013  -21.8996  -12.5655 N   0  0  0  0  0  0  0  0  0  0  0  0
   22.2007  -20.8975  -14.5790 C   0  0  0  0  0  0  0  0  0  0  0  0
   22.0135  -21.8651  -15.3542 O   0  0  0  0  0  0  0  0  0  0  0  0
   27.4113  -23.9965  -14.8680 C   0  0  0  0  0  0  0  0  0  0  0  0
   21.0108  -17.6915  -18.1337 C   0  0  2  0  0  0  0  0  0  0  0  0
   21.0898  -18.1716  -16.7239 C   0  0  0  0  0  0  0  0  0  0  0  0
   19.7520  -18.6248  -16.2361 C   0  0  1  0  0  0  0  0  0  0  0  0
   22.0758  -19.3102  -16.5537 N   0  0  0  0  0  0  0  0  0  0  0  0
   22.2622  -19.6014  -15.1481 C   0  0  0  0  0  0  0  0  0  0  0  0
   23.3957  -19.0256  -17.1480 O   0  0  0  0  0  0  0  0  0  0  0  0
   23.6860  -19.3111  -18.3448 O   0  0  0  0  0  0  0  0  0  0  0  0
  2  3  2  0
  2  1  1  0
  4  2  1  0
  5  4  1  0
  6  8  1  0
  6  5  1  0
  6  7  1  1
  8 18  1  0
  9  8  2  0
 11 10  1  0
 11 12  2  0
 13 11  1  0
 14 13  1  0
 14 15  1  0
 16 15  1  0
 17 16  1  6
 17 19  1  0
 18 17  1  0
 19 20  2  0
 19 25  1  0
 22 21  1  1
 22 23  1  0
 24 26  1  0
 24 22  1  0
 24 25  1  1
 26 28  1  0
 27 26  2  0
M  END
$$$$
