QRV.pdb
     RDKit          3D

 28 27  0  0  1  0  0  0  0  0999 V2000
   26.6021  -19.7628  -20.2582 N   0  0  0  0  0  0  0  0  0  0  0  0
   27.0622  -19.5210  -18.9406 C   0  0  0  0  0  0  0  0  0  0  0  0
   28.2478  -19.7611  -18.6424 O   0  0  0  0  0  0  0  0  0  0  0  0
   26.1239  -18.9854  -17.9392 C   0  0  0  0  0  0  0  0  0  0  0  0
   24.7459  -18.9303  -18.5381 C   0  0  0  0  0  0  0  0  0  0  0  0
   23.6839  -18.4249  -17.6195 C   0  0  2  0  0  0  0  0  0  0  0  0
   24.1626  -17.1769  -17.0202 N   0  0  0  0  0  0  0  0  0  0  0  0
   23.2046  -19.3698  -16.6070 C   0  0  0  0  0  0  0  0  0  0  0  0
   22.5623  -20.3781  -16.9455 O   0  0  0  0  0  0  0  0  0  0  0  0
   27.7731  -21.2528  -11.4059 N   0  0  0  0  0  0  0  0  0  0  0  0
   26.3700  -21.4898  -11.2989 C   0  0  0  0  0  0  0  0  0  0  0  0
   25.9062  -22.6363  -11.6749 N   0  0  0  0  0  0  0  0  0  0  0  0
   25.5064  -20.4826  -10.7863 N   0  0  0  0  0  0  0  0  0  0  0  0
   24.1079  -20.7157  -10.6186 C   0  0  0  0  0  0  0  0  0  0  0  0
   23.3822  -21.0483  -11.9187 C   0  0  0  0  0  0  0  0  0  0  0  0
   23.7145  -19.9395  -12.8841 C   0  0  0  0  0  0  0  0  0  0  0  0
   23.0801  -20.1127  -14.2232 C   0  0  2  0  0  0  0  0  0  0  0  0
   23.4599  -19.1568  -15.2141 N   0  0  0  0  0  0  0  0  0  0  0  0
   21.5800  -20.1706  -14.0717 C   0  0  0  0  0  0  0  0  0  0  0  0
   20.9218  -19.1872  -13.6569 O   0  0  0  0  0  0  0  0  0  0  0  0
   24.8953  -22.8312  -11.6819 C   0  0  0  0  0  0  0  0  0  0  0  0
   19.5075  -23.8729  -15.0698 C   0  0  2  0  0  0  0  0  0  0  0  0
   18.9177  -22.5166  -15.2617 C   0  0  0  0  0  0  0  0  0  0  0  0
   17.4271  -22.5618  -15.1670 C   0  0  1  0  0  0  0  0  0  0  0  0
   19.4344  -21.5116  -14.2514 N   0  0  0  0  0  0  0  0  0  0  0  0
   20.8653  -21.3500  -14.3970 C   0  0  0  0  0  0  0  0  0  0  0  0
   19.1502  -21.8964  -12.8558 O   0  0  0  0  0  0  0  0  0  0  0  0
   19.8981  -22.6685  -12.1904 O   0  0  0  0  0  0  0  0  0  0  0  0
  2  3  2  0
  2  1  1  0
  4  2  1  0
  5  4  1  0
  6  8  1  0
  6  5  1  0
  6  7  1  1
  8 18  1  0
  9  8  2  0
 11 10  1  0
 11 12  2  0
 13 11  1  0
 14 13  1  0
 14 15  1  0
 16 15  1  0
 17 16  1  1
 17 19  1  0
 18 17  1  0
 19 20  2  0
 19 25  1  0
 22 21  1  6
 22 23  1  0
 24 26  1  0
 24 22  1  0
 24 25  1  6
 26 28  1  0
 27 26  2  0
M  END
$$$$
