HVI.pdb
     RDKit          3D

 26 26  0  0  1  0  0  0  0  0999 V2000
   22.2035  -18.7296  -17.4263 N   0  0  0  0  0  0  0  0  0  0  0  0
   22.7159  -18.2762  -16.1530 C   0  0  1  0  0  0  0  0  0  0  0  0
   21.5610  -18.1605  -15.1752 C   0  0  0  0  0  0  0  0  0  0  0  0
   20.6724  -17.0242  -15.5961 C   0  0  0  0  0  0  0  0  0  0  0  0
   19.3616  -17.1007  -15.9988 C   0  0  0  0  0  0  0  0  0  0  0  0
   18.9231  -15.8669  -16.2902 N   0  0  0  0  0  0  0  0  0  0  0  0
   19.9475  -15.0274  -16.0726 C   0  0  0  0  0  0  0  0  0  0  0  0
   20.9970  -15.7216  -15.6561 N   0  0  0  0  0  0  0  0  0  0  0  0
   23.6363  -19.3120  -15.6333 C   0  0  0  0  0  0  0  0  0  0  0  0
   23.2130  -20.4397  -15.2187 O   0  0  0  0  0  0  0  0  0  0  0  0
   26.7889  -20.3148  -17.4083 C   0  0  0  0  0  0  0  0  0  0  0  0
   27.1733  -20.0751  -15.9733 C   0  0  1  0  0  0  0  0  0  0  0  0
   27.8174  -18.7169  -15.8832 C   0  0  0  0  0  0  0  0  0  0  0  0
   25.9385  -20.1238  -15.0612 C   0  0  2  0  0  0  0  0  0  0  0  0
   25.0354  -19.1091  -15.5674 N   0  0  0  0  0  0  0  0  0  0  0  0
   26.3623  -19.7170  -13.6738 C   0  0  0  0  0  0  0  0  0  0  0  0
   26.4718  -18.5230  -13.3335 O   0  0  0  0  0  0  0  0  0  0  0  0
   23.6990  -20.4735   -9.5250 C   0  0  0  0  0  0  0  0  0  0  0  0
   24.7256  -20.0342  -10.4974 C   0  0  0  0  0  0  0  0  0  0  0  0
   26.1023  -20.5807  -10.3483 C   0  0  2  0  0  0  0  0  0  0  0  0
   26.5609  -20.3082   -8.9303 C   0  0  0  0  0  0  0  0  0  0  0  0
   27.1062  -20.2946  -11.3773 C   0  0  2  0  0  0  0  0  0  0  0  0
   26.6511  -20.6913  -12.7069 N   0  0  0  0  0  0  0  0  0  0  0  0
   28.3740  -21.0016  -11.1597 C   0  0  0  0  0  0  0  0  0  0  0  0
   29.4814  -20.5076  -10.4852 O   0  0  0  0  0  0  0  0  0  0  0  0
   28.4726  -22.1914  -11.6457 O   0  0  0  0  0  0  0  0  0  0  0  0
  2  1  1  6
  3  2  1  0
  3  4  1  0
  4  8  1  0
  5  6  1  0
  5  4  2  0
  6  7  1  0
  7  8  2  0
  9 10  2  0
  9  2  1  0
 12 11  1  6
 12 14  1  0
 13 12  1  0
 14 16  1  0
 14 15  1  6
 15  9  1  0
 16 17  2  0
 19 18  1  0
 20 21  1  1
 20 19  1  0
 22 20  1  0
 22 23  1  6
 23 16  1  0
 24 22  1  0
 25 24  1  0
 26 24  2  0
M  END
$$$$
