HVI.pdb
     RDKit          3D

 26 26  0  0  1  0  0  0  0  0999 V2000
   21.3346  -21.1613  -14.1414 N   0  0  0  0  0  0  0  0  0  0  0  0
   20.5246  -20.6749  -13.0475 C   0  0  1  0  0  0  0  0  0  0  0  0
   19.0635  -20.7491  -13.4513 C   0  0  0  0  0  0  0  0  0  0  0  0
   18.7817  -19.6857  -14.4750 C   0  0  0  0  0  0  0  0  0  0  0  0
   18.6906  -18.3320  -14.2622 C   0  0  0  0  0  0  0  0  0  0  0  0
   18.4270  -17.7247  -15.4290 N   0  0  0  0  0  0  0  0  0  0  0  0
   18.3538  -18.6871  -16.3617 C   0  0  0  0  0  0  0  0  0  0  0  0
   18.5666  -19.8636  -15.7895 N   0  0  0  0  0  0  0  0  0  0  0  0
   20.7141  -21.5846  -11.8957 C   0  0  0  0  0  0  0  0  0  0  0  0
   20.5448  -22.8430  -11.9988 O   0  0  0  0  0  0  0  0  0  0  0  0
   21.5151  -19.9106   -8.1319 C   0  0  0  0  0  0  0  0  0  0  0  0
   22.1598  -21.2217   -8.4919 C   0  0  1  0  0  0  0  0  0  0  0  0
   22.3224  -22.0245   -7.2282 C   0  0  0  0  0  0  0  0  0  0  0  0
   21.2926  -22.0009   -9.4919 C   0  0  2  0  0  0  0  0  0  0  0  0
   21.0933  -21.1096  -10.6176 N   0  0  0  0  0  0  0  0  0  0  0  0
   19.9502  -22.2511   -8.8552 C   0  0  0  0  0  0  0  0  0  0  0  0
   19.0309  -21.4101   -8.8855 O   0  0  0  0  0  0  0  0  0  0  0  0
   16.8783  -25.8099  -10.6034 C   0  0  0  0  0  0  0  0  0  0  0  0
   17.4079  -24.6453   -9.8578 C   0  0  0  0  0  0  0  0  0  0  0  0
   17.6967  -24.8219   -8.4081 C   0  0  2  0  0  0  0  0  0  0  0  0
   16.4446  -25.3589   -7.7454 C   0  0  0  0  0  0  0  0  0  0  0  0
   18.3607  -23.7439   -7.6694 C   0  0  2  0  0  0  0  0  0  0  0  0
   19.6930  -23.4629   -8.1970 N   0  0  0  0  0  0  0  0  0  0  0  0
   18.5492  -24.0499   -6.2462 C   0  0  0  0  0  0  0  0  0  0  0  0
   19.6661  -24.6458   -5.6781 O   0  0  0  0  0  0  0  0  0  0  0  0
   17.5848  -23.7429   -5.4480 O   0  0  0  0  0  0  0  0  0  0  0  0
  2  1  1  6
  3  2  1  0
  3  4  1  0
  4  8  1  0
  5  6  1  0
  5  4  2  0
  6  7  1  0
  7  8  2  0
  9 10  2  0
  9  2  1  0
 12 11  1  1
 12 14  1  0
 13 12  1  0
 14 16  1  0
 14 15  1  6
 15  9  1  0
 16 17  2  0
 19 18  1  0
 20 21  1  1
 20 19  1  0
 22 20  1  0
 22 23  1  6
 23 16  1  0
 24 22  1  0
 25 24  1  0
 26 24  2  0
M  END
$$$$
