HVI.pdb
     RDKit          3D

 26 26  0  0  1  0  0  0  0  0999 V2000
   22.0922  -23.7286  -16.2894 N   0  0  0  0  0  0  0  0  0  0  0  0
   22.0083  -23.6085  -14.8514 C   0  0  1  0  0  0  0  0  0  0  0  0
   21.6897  -24.9717  -14.2653 C   0  0  0  0  0  0  0  0  0  0  0  0
   20.2267  -25.2584  -14.4543 C   0  0  0  0  0  0  0  0  0  0  0  0
   19.1860  -24.8096  -13.6787 C   0  0  0  0  0  0  0  0  0  0  0  0
   18.0351  -25.2858  -14.1767 N   0  0  0  0  0  0  0  0  0  0  0  0
   18.3514  -26.0244  -15.2519 C   0  0  0  0  0  0  0  0  0  0  0  0
   19.6663  -26.0080  -15.4185 N   0  0  0  0  0  0  0  0  0  0  0  0
   23.3399  -23.2073  -14.3455 C   0  0  0  0  0  0  0  0  0  0  0  0
   24.3870  -23.8876  -14.5978 O   0  0  0  0  0  0  0  0  0  0  0  0
   25.0245  -20.3220  -15.2431 C   0  0  0  0  0  0  0  0  0  0  0  0
   25.0598  -20.2374  -13.7412 C   0  0  1  0  0  0  0  0  0  0  0  0
   23.9690  -19.2972  -13.3009 C   0  0  0  0  0  0  0  0  0  0  0  0
   24.8371  -21.6200  -13.1105 C   0  0  2  0  0  0  0  0  0  0  0  0
   23.5254  -22.0483  -13.5548 N   0  0  0  0  0  0  0  0  0  0  0  0
   24.7878  -21.4519  -11.6140 C   0  0  0  0  0  0  0  0  0  0  0  0
   23.7271  -21.5497  -10.9668 O   0  0  0  0  0  0  0  0  0  0  0  0
   28.6927  -20.6784   -6.7804 C   0  0  0  0  0  0  0  0  0  0  0  0
   27.3345  -20.8027   -7.3569 C   0  0  0  0  0  0  0  0  0  0  0  0
   27.2177  -20.9487   -8.8339 C   0  0  2  0  0  0  0  0  0  0  0  0
   28.2441  -20.0372   -9.4750 C   0  0  0  0  0  0  0  0  0  0  0  0
   25.8927  -20.9066   -9.4593 C   0  0  2  0  0  0  0  0  0  0  0  0
   25.9588  -21.1749  -10.8932 N   0  0  0  0  0  0  0  0  0  0  0  0
   25.2319  -19.6028   -9.3253 C   0  0  0  0  0  0  0  0  0  0  0  0
   24.3445  -19.2339   -8.3244 O   0  0  0  0  0  0  0  0  0  0  0  0
   25.4943  -18.7175  -10.2247 O   0  0  0  0  0  0  0  0  0  0  0  0
  2  1  1  6
  3  2  1  0
  3  4  1  0
  4  8  1  0
  5  6  1  0
  5  4  2  0
  6  7  1  0
  7  8  2  0
  9 10  2  0
  9  2  1  0
 12 11  1  6
 12 14  1  0
 13 12  1  0
 14 16  1  0
 14 15  1  6
 15  9  1  0
 16 17  2  0
 19 18  1  0
 20 21  1  6
 20 19  1  0
 22 20  1  0
 22 23  1  6
 23 16  1  0
 24 22  1  0
 25 24  1  0
 26 24  2  0
M  END
$$$$
