HVI.pdb
     RDKit          3D

 26 26  0  0  1  0  0  0  0  0999 V2000
   27.1795  -21.2366  -17.0617 N   0  0  0  0  0  0  0  0  0  0  0  0
   27.6902  -21.6613  -15.7780 C   0  0  1  0  0  0  0  0  0  0  0  0
   29.1995  -21.5020  -15.7759 C   0  0  0  0  0  0  0  0  0  0  0  0
   29.8137  -22.6266  -16.5608 C   0  0  0  0  0  0  0  0  0  0  0  0
   29.5444  -23.9678  -16.4390 C   0  0  0  0  0  0  0  0  0  0  0  0
   30.2988  -24.6448  -17.3176 N   0  0  0  0  0  0  0  0  0  0  0  0
   31.0322  -23.7380  -17.9821 C   0  0  0  0  0  0  0  0  0  0  0  0
   30.7412  -22.5272  -17.5281 N   0  0  0  0  0  0  0  0  0  0  0  0
   27.1460  -20.7532  -14.7439 C   0  0  0  0  0  0  0  0  0  0  0  0
   27.2751  -19.4885  -14.8255 O   0  0  0  0  0  0  0  0  0  0  0  0
   24.3597  -19.5060  -14.5049 C   0  0  0  0  0  0  0  0  0  0  0  0
   24.3795  -20.1604  -13.1501 C   0  0  1  0  0  0  0  0  0  0  0  0
   23.7063  -21.5021  -13.2698 C   0  0  0  0  0  0  0  0  0  0  0  0
   25.8212  -20.3472  -12.6544 C   0  0  2  0  0  0  0  0  0  0  0  0
   26.4530  -21.2368  -13.6086 N   0  0  0  0  0  0  0  0  0  0  0  0
   25.7734  -21.0527  -11.3239 C   0  0  0  0  0  0  0  0  0  0  0  0
   25.6583  -22.2901  -11.2293 O   0  0  0  0  0  0  0  0  0  0  0  0
   28.3936  -18.9190   -6.9108 C   0  0  0  0  0  0  0  0  0  0  0  0
   27.8474  -19.9284   -7.8464 C   0  0  0  0  0  0  0  0  0  0  0  0
   26.3924  -20.2333   -7.7672 C   0  0  2  0  0  0  0  0  0  0  0  0
   26.0986  -20.7450   -6.3718 C   0  0  0  0  0  0  0  0  0  0  0  0
   25.7578  -21.0014   -8.8423 C   0  0  2  0  0  0  0  0  0  0  0  0
   25.8588  -20.3207  -10.1303 N   0  0  0  0  0  0  0  0  0  0  0  0
   24.3249  -21.2300   -8.6207 C   0  0  0  0  0  0  0  0  0  0  0  0
   23.2850  -20.4749   -9.1438 O   0  0  0  0  0  0  0  0  0  0  0  0
   23.9997  -22.2213   -7.8637 O   0  0  0  0  0  0  0  0  0  0  0  0
  2  1  1  6
  3  2  1  0
  3  4  1  0
  4  8  1  0
  5  6  1  0
  5  4  2  0
  6  7  1  0
  7  8  2  0
  9 10  2  0
  9  2  1  0
 12 11  1  6
 12 14  1  0
 13 12  1  0
 14 16  1  0
 14 15  1  6
 15  9  1  0
 16 17  2  0
 19 18  1  0
 20 21  1  1
 20 19  1  0
 22 20  1  0
 22 23  1  6
 23 16  1  0
 24 22  1  0
 25 24  1  0
 26 24  2  0
M  END
$$$$
