HVI.pdb
     RDKit          3D

 26 26  0  0  1  0  0  0  0  0999 V2000
   28.7236  -22.1294  -17.9707 N   0  0  0  0  0  0  0  0  0  0  0  0
   27.9800  -22.7653  -16.9068 C   0  0  1  0  0  0  0  0  0  0  0  0
   28.6101  -24.1134  -16.6087 C   0  0  0  0  0  0  0  0  0  0  0  0
   27.7965  -25.1924  -17.2660 C   0  0  0  0  0  0  0  0  0  0  0  0
   26.8983  -26.0384  -16.6630 C   0  0  0  0  0  0  0  0  0  0  0  0
   26.3809  -26.8572  -17.5912 N   0  0  0  0  0  0  0  0  0  0  0  0
   26.9487  -26.5277  -18.7619 C   0  0  0  0  0  0  0  0  0  0  0  0
   27.7980  -25.5290  -18.5669 N   0  0  0  0  0  0  0  0  0  0  0  0
   28.1154  -21.9328  -15.6907 C   0  0  0  0  0  0  0  0  0  0  0  0
   29.2522  -21.6721  -15.1784 O   0  0  0  0  0  0  0  0  0  0  0  0
   27.6485  -18.5512  -15.2963 C   0  0  0  0  0  0  0  0  0  0  0  0
   26.6778  -19.1342  -14.3054 C   0  0  1  0  0  0  0  0  0  0  0  0
   25.3287  -19.2205  -14.9689 C   0  0  0  0  0  0  0  0  0  0  0  0
   27.1259  -20.5342  -13.8601 C   0  0  2  0  0  0  0  0  0  0  0  0
   26.9926  -21.3803  -15.0295 N   0  0  0  0  0  0  0  0  0  0  0  0
   26.1573  -21.0285  -12.8172 C   0  0  0  0  0  0  0  0  0  0  0  0
   25.3379  -21.9391  -13.0468 O   0  0  0  0  0  0  0  0  0  0  0  0
   27.4174  -19.9302   -7.5398 C   0  0  0  0  0  0  0  0  0  0  0  0
   26.8966  -20.7930   -8.6246 C   0  0  0  0  0  0  0  0  0  0  0  0
   25.5542  -20.4725   -9.1829 C   0  0  2  0  0  0  0  0  0  0  0  0
   24.5207  -20.7849   -8.1200 C   0  0  0  0  0  0  0  0  0  0  0  0
   25.2033  -20.9389  -10.5274 C   0  0  2  0  0  0  0  0  0  0  0  0
   26.1512  -20.4656  -11.5323 N   0  0  0  0  0  0  0  0  0  0  0  0
   23.8829  -20.4773  -10.9725 C   0  0  0  0  0  0  0  0  0  0  0  0
   22.6880  -21.1714  -10.8471 O   0  0  0  0  0  0  0  0  0  0  0  0
   23.8267  -19.3211  -11.5395 O   0  0  0  0  0  0  0  0  0  0  0  0
  2  1  1  6
  3  2  1  0
  3  4  1  0
  4  8  1  0
  5  6  1  0
  5  4  2  0
  6  7  1  0
  7  8  2  0
  9 10  2  0
  9  2  1  0
 12 11  1  6
 12 14  1  0
 13 12  1  0
 14 16  1  0
 14 15  1  6
 15  9  1  0
 16 17  2  0
 19 18  1  0
 20 21  1  1
 20 19  1  0
 22 20  1  0
 22 23  1  6
 23 16  1  0
 24 22  1  0
 25 24  1  0
 26 24  2  0
M  END
$$$$
