HVI.pdb
     RDKit          3D

 26 26  0  0  1  0  0  0  0  0999 V2000
   23.2667  -21.7554  -13.4278 N   0  0  0  0  0  0  0  0  0  0  0  0
   23.6073  -20.6484  -12.5631 C   0  0  1  0  0  0  0  0  0  0  0  0
   22.3459  -20.1611  -11.8739 C   0  0  0  0  0  0  0  0  0  0  0  0
   21.5127  -19.3921  -12.8600 C   0  0  0  0  0  0  0  0  0  0  0  0
   21.9000  -18.3048  -13.6042 C   0  0  0  0  0  0  0  0  0  0  0  0
   20.8681  -17.9072  -14.3636 N   0  0  0  0  0  0  0  0  0  0  0  0
   19.8463  -18.7361  -14.0980 C   0  0  0  0  0  0  0  0  0  0  0  0
   20.2330  -19.6269  -13.1960 N   0  0  0  0  0  0  0  0  0  0  0  0
   24.5219  -21.1500  -11.5133 C   0  0  0  0  0  0  0  0  0  0  0  0
   24.2167  -22.1420  -10.7746 O   0  0  0  0  0  0  0  0  0  0  0  0
   28.4955  -19.6430  -11.3180 C   0  0  0  0  0  0  0  0  0  0  0  0
   28.0980  -21.0660  -11.0329 C   0  0  1  0  0  0  0  0  0  0  0  0
   29.1503  -21.6757  -10.1448 C   0  0  0  0  0  0  0  0  0  0  0  0
   26.7328  -21.1222  -10.3313 C   0  0  2  0  0  0  0  0  0  0  0  0
   25.7842  -20.5578  -11.2709 N   0  0  0  0  0  0  0  0  0  0  0  0
   26.7857  -20.2188   -9.1266 C   0  0  0  0  0  0  0  0  0  0  0  0
   26.3537  -19.0499   -9.1505 O   0  0  0  0  0  0  0  0  0  0  0  0
   29.4481  -21.2920   -3.8734 C   0  0  0  0  0  0  0  0  0  0  0  0
   29.0325  -21.0752   -5.2780 C   0  0  0  0  0  0  0  0  0  0  0  0
   27.6657  -20.5383   -5.5227 C   0  0  2  0  0  0  0  0  0  0  0  0
   26.6709  -21.6400   -5.2196 C   0  0  0  0  0  0  0  0  0  0  0  0
   27.3936  -19.7966   -6.7574 C   0  0  2  0  0  0  0  0  0  0  0  0
   27.3340  -20.6782   -7.9200 N   0  0  0  0  0  0  0  0  0  0  0  0
   28.4198  -18.7937   -7.0667 C   0  0  0  0  0  0  0  0  0  0  0  0
   28.5773  -17.5644   -6.4428 O   0  0  0  0  0  0  0  0  0  0  0  0
   29.2502  -19.0767   -8.0111 O   0  0  0  0  0  0  0  0  0  0  0  0
  2  1  1  6
  3  2  1  0
  3  4  1  0
  4  8  1  0
  5  6  1  0
  5  4  2  0
  6  7  1  0
  7  8  2  0
  9 10  2  0
  9  2  1  0
 12 11  1  1
 12 14  1  0
 13 12  1  0
 14 16  1  0
 14 15  1  6
 15  9  1  0
 16 17  2  0
 19 18  1  0
 20 21  1  6
 20 19  1  0
 22 20  1  0
 22 23  1  6
 23 16  1  0
 24 22  1  0
 25 24  1  0
 26 24  2  0
M  END
$$$$
