HVI.pdb
     RDKit          3D

 26 26  0  0  1  0  0  0  0  0999 V2000
   20.9968  -20.8660  -14.8697 N   0  0  0  0  0  0  0  0  0  0  0  0
   21.7863  -19.9750  -14.0499 C   0  0  1  0  0  0  0  0  0  0  0  0
   20.8714  -19.2926  -13.0496 C   0  0  0  0  0  0  0  0  0  0  0  0
   20.0034  -18.3022  -13.7733 C   0  0  0  0  0  0  0  0  0  0  0  0
   20.3551  -17.0439  -14.1966 C   0  0  0  0  0  0  0  0  0  0  0  0
   19.3001  -16.4773  -14.8011 N   0  0  0  0  0  0  0  0  0  0  0  0
   18.2992  -17.3705  -14.7569 C   0  0  0  0  0  0  0  0  0  0  0  0
   18.7211  -18.4653  -14.1403 N   0  0  0  0  0  0  0  0  0  0  0  0
   22.7528  -20.7921  -13.2829 C   0  0  0  0  0  0  0  0  0  0  0  0
   22.3740  -21.6200  -12.3917 O   0  0  0  0  0  0  0  0  0  0  0  0
   25.1420  -22.8406  -15.0063 C   0  0  0  0  0  0  0  0  0  0  0  0
   25.9754  -22.1566  -13.9567 C   0  0  1  0  0  0  0  0  0  0  0  0
   26.7349  -21.0379  -14.6196 C   0  0  0  0  0  0  0  0  0  0  0  0
   25.0883  -21.5886  -12.8389 C   0  0  2  0  0  0  0  0  0  0  0  0
   24.1491  -20.7006  -13.4951 N   0  0  0  0  0  0  0  0  0  0  0  0
   25.9540  -20.7570  -11.9282 C   0  0  0  0  0  0  0  0  0  0  0  0
   26.0334  -19.5175  -12.0326 O   0  0  0  0  0  0  0  0  0  0  0  0
   25.4972  -20.5890   -6.7702 C   0  0  0  0  0  0  0  0  0  0  0  0
   25.8525  -20.3248   -8.1831 C   0  0  0  0  0  0  0  0  0  0  0  0
   27.2165  -20.7087   -8.6397 C   0  0  2  0  0  0  0  0  0  0  0  0
   28.2177  -20.1048   -7.6761 C   0  0  0  0  0  0  0  0  0  0  0  0
   27.5703  -20.5622  -10.0546 C   0  0  2  0  0  0  0  0  0  0  0  0
   26.7101  -21.3678  -10.9168 N   0  0  0  0  0  0  0  0  0  0  0  0
   28.9445  -20.9832  -10.3529 C   0  0  0  0  0  0  0  0  0  0  0  0
   30.0927  -20.2299  -10.1543 O   0  0  0  0  0  0  0  0  0  0  0  0
   29.1013  -22.1610  -10.8526 O   0  0  0  0  0  0  0  0  0  0  0  0
  2  1  1  6
  3  2  1  0
  3  4  1  0
  4  8  1  0
  5  6  1  0
  5  4  2  0
  6  7  1  0
  7  8  2  0
  9 10  2  0
  9  2  1  0
 12 11  1  6
 12 14  1  0
 13 12  1  0
 14 16  1  0
 14 15  1  6
 15  9  1  0
 16 17  2  0
 19 18  1  0
 20 21  1  1
 20 19  1  0
 22 20  1  0
 22 23  1  6
 23 16  1  0
 24 22  1  0
 25 24  1  0
 26 24  2  0
M  END
$$$$
