NDC.pdb
     RDKit          3D

 23 22  0  0  1  0  0  0  0  0999 V2000
    8.1769  -14.4418   16.0836 N   0  0  0  0  0  0  0  0  0  0  0  0
    7.8781  -14.6081   17.4700 C   0  0  0  0  0  0  0  0  0  0  0  0
    8.2098  -15.6718   18.0486 O   0  0  0  0  0  0  0  0  0  0  0  0
    7.1868  -13.5794   18.2798 C   0  0  0  0  0  0  0  0  0  0  0  0
    8.0618  -13.0801   19.4101 C   0  0  2  0  0  0  0  0  0  0  0  0
    9.3482  -12.7482   18.9388 N   0  0  0  0  0  0  0  0  0  0  0  0
    7.9971  -14.0436   20.5040 C   0  0  0  0  0  0  0  0  0  0  0  0
    6.8634  -14.3441   20.9598 O   0  0  0  0  0  0  0  0  0  0  0  0
    9.1350  -14.6446   21.0653 N   0  0  0  0  0  0  0  0  0  0  0  0
    9.1312  -15.5931   22.1359 C   0  0  1  0  0  0  0  0  0  0  0  0
   10.3494  -16.5026   22.1036 C   0  0  0  0  0  0  0  0  0  0  0  0
   10.3454  -17.4756   23.2043 C   0  0  0  0  0  0  0  0  0  0  0  0
    9.2994  -17.7943   23.7863 O   0  0  0  0  0  0  0  0  0  0  0  0
    9.2177  -14.8507   23.4426 C   0  0  0  0  0  0  0  0  0  0  0  0
   10.1139  -13.9774   23.5969 O   0  0  0  0  0  0  0  0  0  0  0  0
   11.5416  -18.0459   23.5956 O   0  0  0  0  0  0  0  0  0  0  0  0
    8.3373  -15.0841   24.5169 N   0  0  0  0  0  0  0  0  0  0  0  0
    8.3008  -14.2639   25.7128 C   0  0  1  0  0  0  0  0  0  0  0  0
    7.1387  -13.2927   25.6780 C   0  0  0  0  0  0  0  0  0  0  0  0
    7.0304  -12.3023   27.1689 S   0  0  0  0  0  0  0  0  0  0  0  0
    8.2600  -15.1212   26.9241 C   0  0  0  0  0  0  0  0  0  0  0  0
    7.9173  -16.3219   26.8625 O   0  0  0  0  0  0  0  0  0  0  0  0
    8.6044  -14.6062   28.1653 O   0  0  0  0  0  0  0  0  0  0  0  0
  1  2  1  0
  2  4  1  0
  3  2  2  0
  5  4  1  0
  5  6  1  6
  5  7  1  0
  7  8  2  0
  9  7  1  0
  9 10  1  0
 10 14  1  0
 10 11  1  6
 11 12  1  0
 12 16  1  0
 13 12  2  0
 14 15  2  0
 17 14  1  0
 17 18  1  0
 18 21  1  0
 18 19  1  6
 19 20  1  0
 21 22  2  0
 21 23  1  0
M  END
$$$$
