NDC.pdb
     RDKit          3D

 23 22  0  0  1  0  0  0  0  0999 V2000
    9.0326  -19.0151   14.5468 N   0  0  0  0  0  0  0  0  0  0  0  0
    8.3934  -19.6393   15.6607 C   0  0  0  0  0  0  0  0  0  0  0  0
    7.3106  -20.2505   15.4869 O   0  0  0  0  0  0  0  0  0  0  0  0
    8.9442  -19.6069   17.0346 C   0  0  0  0  0  0  0  0  0  0  0  0
   10.1930  -18.7546   17.1137 C   0  0  2  0  0  0  0  0  0  0  0  0
   11.1106  -19.1155   16.1062 N   0  0  0  0  0  0  0  0  0  0  0  0
   10.6869  -18.7857   18.4864 C   0  0  0  0  0  0  0  0  0  0  0  0
    9.8923  -18.4629   19.4072 O   0  0  0  0  0  0  0  0  0  0  0  0
   11.9987  -19.1570   18.8216 N   0  0  0  0  0  0  0  0  0  0  0  0
   12.4848  -19.3852   20.1473 C   0  0  1  0  0  0  0  0  0  0  0  0
   13.7816  -20.1792   20.1563 C   0  0  0  0  0  0  0  0  0  0  0  0
   14.2364  -20.4847   21.5194 C   0  0  0  0  0  0  0  0  0  0  0  0
   13.4357  -20.7357   22.4307 O   0  0  0  0  0  0  0  0  0  0  0  0
   12.8202  -18.0593   20.7763 C   0  0  0  0  0  0  0  0  0  0  0  0
   13.6105  -17.2776   20.1815 O   0  0  0  0  0  0  0  0  0  0  0  0
   15.5922  -20.4907   21.7853 O   0  0  0  0  0  0  0  0  0  0  0  0
   12.2897  -17.6409   22.0121 N   0  0  0  0  0  0  0  0  0  0  0  0
   12.5142  -16.3218   22.5724 C   0  0  1  0  0  0  0  0  0  0  0  0
   11.2307  -15.7308   23.1182 C   0  0  0  0  0  0  0  0  0  0  0  0
   10.4251  -16.8158   24.2969 S   0  0  0  0  0  0  0  0  0  0  0  0
   13.5746  -16.3769   23.6100 C   0  0  0  0  0  0  0  0  0  0  0  0
   14.0879  -15.3359   24.0745 O   0  0  0  0  0  0  0  0  0  0  0  0
   14.0259  -17.5963   24.0940 O   0  0  0  0  0  0  0  0  0  0  0  0
  1  2  1  0
  2  4  1  0
  3  2  2  0
  5  4  1  0
  5  6  1  6
  5  7  1  0
  7  8  2  0
  9  7  1  0
  9 10  1  0
 10 14  1  0
 10 11  1  6
 11 12  1  0
 12 16  1  0
 13 12  2  0
 14 15  2  0
 17 14  1  0
 17 18  1  0
 18 21  1  0
 18 19  1  1
 19 20  1  0
 21 22  2  0
 21 23  1  0
M  END
$$$$
