NDC.pdb
     RDKit          3D

 23 22  0  0  1  0  0  0  0  0999 V2000
    7.1279  -12.4011   18.5925 N   0  0  0  0  0  0  0  0  0  0  0  0
    7.4370  -13.7819   18.7840 C   0  0  0  0  0  0  0  0  0  0  0  0
    7.7104  -14.4962   17.7884 O   0  0  0  0  0  0  0  0  0  0  0  0
    7.4541  -14.4324   20.1140 C   0  0  0  0  0  0  0  0  0  0  0  0
    8.8470  -14.4496   20.7073 C   0  0  2  0  0  0  0  0  0  0  0  0
    9.7897  -14.8970   19.7596 N   0  0  0  0  0  0  0  0  0  0  0  0
    8.8006  -15.1747   21.9727 C   0  0  0  0  0  0  0  0  0  0  0  0
    7.8865  -14.8834   22.7869 O   0  0  0  0  0  0  0  0  0  0  0  0
    9.7236  -16.1745   22.3183 N   0  0  0  0  0  0  0  0  0  0  0  0
    9.7310  -16.9107   23.5447 C   0  0  1  0  0  0  0  0  0  0  0  0
   10.6276  -18.1369   23.4747 C   0  0  0  0  0  0  0  0  0  0  0  0
   10.1043  -19.1556   22.5545 C   0  0  0  0  0  0  0  0  0  0  0  0
    8.8878  -19.3450   22.4183 O   0  0  0  0  0  0  0  0  0  0  0  0
   10.3176  -16.0445   24.6273 C   0  0  0  0  0  0  0  0  0  0  0  0
   10.8937  -14.9686   24.3110 O   0  0  0  0  0  0  0  0  0  0  0  0
   10.9966  -19.9184   21.8256 O   0  0  0  0  0  0  0  0  0  0  0  0
   10.2554  -16.3783   25.9942 N   0  0  0  0  0  0  0  0  0  0  0  0
   10.4200  -15.4097   27.0614 C   0  0  1  0  0  0  0  0  0  0  0  0
    9.4394  -14.2638   26.9198 C   0  0  0  0  0  0  0  0  0  0  0  0
    9.6523  -13.0201   28.1940 S   0  0  0  0  0  0  0  0  0  0  0  0
   10.2963  -16.0742   28.3832 C   0  0  0  0  0  0  0  0  0  0  0  0
    9.6076  -17.1067   28.5328 O   0  0  0  0  0  0  0  0  0  0  0  0
   10.9481  -15.5607   29.4951 O   0  0  0  0  0  0  0  0  0  0  0  0
  1  2  1  0
  2  4  1  0
  3  2  2  0
  5  4  1  0
  5  6  1  6
  5  7  1  0
  7  8  2  0
  9  7  1  0
  9 10  1  0
 10 14  1  0
 10 11  1  6
 11 12  1  0
 12 16  1  0
 13 12  2  0
 14 15  2  0
 17 14  1  0
 17 18  1  0
 18 21  1  0
 18 19  1  6
 19 20  1  0
 21 22  2  0
 21 23  1  0
M  END
$$$$
