NDC.pdb
     RDKit          3D

 23 22  0  0  1  0  0  0  0  0999 V2000
    7.7857  -17.4239   19.5698 N   0  0  0  0  0  0  0  0  0  0  0  0
    6.4686  -16.9816   19.8990 C   0  0  0  0  0  0  0  0  0  0  0  0
    5.4862  -17.7146   19.6272 O   0  0  0  0  0  0  0  0  0  0  0  0
    6.1890  -15.6839   20.5548 C   0  0  0  0  0  0  0  0  0  0  0  0
    7.4661  -14.9749   20.9529 C   0  0  2  0  0  0  0  0  0  0  0  0
    8.3700  -14.9263   19.8723 N   0  0  0  0  0  0  0  0  0  0  0  0
    7.9599  -15.5728   22.1890 C   0  0  0  0  0  0  0  0  0  0  0  0
    7.1933  -15.5838   23.1868 O   0  0  0  0  0  0  0  0  0  0  0  0
    9.2420  -16.1314   22.3124 N   0  0  0  0  0  0  0  0  0  0  0  0
    9.8021  -16.6693   23.5136 C   0  0  1  0  0  0  0  0  0  0  0  0
   11.2006  -17.2259   23.2978 C   0  0  0  0  0  0  0  0  0  0  0  0
   11.6967  -17.9528   24.4741 C   0  0  0  0  0  0  0  0  0  0  0  0
   11.0231  -18.0512   25.5090 O   0  0  0  0  0  0  0  0  0  0  0  0
    9.9617  -15.5569   24.5153 C   0  0  0  0  0  0  0  0  0  0  0  0
   10.0295  -14.3658   24.1077 O   0  0  0  0  0  0  0  0  0  0  0  0
   12.9466  -18.5392   24.4185 O   0  0  0  0  0  0  0  0  0  0  0  0
   10.0404  -15.7808   25.9036 N   0  0  0  0  0  0  0  0  0  0  0  0
   10.0269  -14.7144   26.8869 C   0  0  1  0  0  0  0  0  0  0  0  0
    8.8871  -13.7489   26.6350 C   0  0  0  0  0  0  0  0  0  0  0  0
    8.7589  -12.4946   27.9101 S   0  0  0  0  0  0  0  0  0  0  0  0
    9.9709  -15.2796   28.2585 C   0  0  0  0  0  0  0  0  0  0  0  0
    9.4762  -16.4060   28.4805 O   0  0  0  0  0  0  0  0  0  0  0  0
   10.4707  -14.5648   29.3374 O   0  0  0  0  0  0  0  0  0  0  0  0
  1  2  1  0
  2  4  1  0
  3  2  2  0
  5  4  1  0
  5  6  1  6
  5  7  1  0
  7  8  2  0
  9  7  1  0
  9 10  1  0
 10 14  1  0
 10 11  1  6
 11 12  1  0
 12 16  1  0
 13 12  2  0
 14 15  2  0
 17 14  1  0
 17 18  1  0
 18 21  1  0
 18 19  1  6
 19 20  1  0
 21 22  2  0
 21 23  1  0
M  END
$$$$
