NDC.pdb
     RDKit          3D

 23 22  0  0  1  0  0  0  0  0999 V2000
    8.7358  -17.0867   16.7943 N   0  0  0  0  0  0  0  0  0  0  0  0
    7.6728  -17.7457   17.4832 C   0  0  0  0  0  0  0  0  0  0  0  0
    6.7524  -18.2870   16.8228 O   0  0  0  0  0  0  0  0  0  0  0  0
    7.5916  -17.8292   18.9592 C   0  0  0  0  0  0  0  0  0  0  0  0
    8.5922  -16.9081   19.6246 C   0  0  2  0  0  0  0  0  0  0  0  0
    9.8867  -17.1169   19.1071 N   0  0  0  0  0  0  0  0  0  0  0  0
    8.4410  -17.0300   21.0708 C   0  0  0  0  0  0  0  0  0  0  0  0
    7.2883  -16.8962   21.5573 O   0  0  0  0  0  0  0  0  0  0  0  0
    9.5166  -17.2878   21.9356 N   0  0  0  0  0  0  0  0  0  0  0  0
    9.4215  -17.4560   23.3528 C   0  0  1  0  0  0  0  0  0  0  0  0
   10.5765  -18.2701   23.9147 C   0  0  0  0  0  0  0  0  0  0  0  0
   10.5354  -19.6706   23.4731 C   0  0  0  0  0  0  0  0  0  0  0  0
    9.4658  -20.2845   23.3574 O   0  0  0  0  0  0  0  0  0  0  0  0
    9.5238  -16.1055   24.0099 C   0  0  0  0  0  0  0  0  0  0  0  0
   10.6040  -15.4606   23.9278 O   0  0  0  0  0  0  0  0  0  0  0  0
   11.7230  -20.3135   23.1808 O   0  0  0  0  0  0  0  0  0  0  0  0
    8.4606  -15.5166   24.7216 N   0  0  0  0  0  0  0  0  0  0  0  0
    8.5705  -14.2488   25.4179 C   0  0  1  0  0  0  0  0  0  0  0  0
    7.2470  -13.5121   25.4307 C   0  0  0  0  0  0  0  0  0  0  0  0
    6.4903  -13.4372   23.8067 S   0  0  0  0  0  0  0  0  0  0  0  0
    9.0914  -14.4597   26.7920 C   0  0  0  0  0  0  0  0  0  0  0  0
    9.2274  -15.6071   27.2694 O   0  0  0  0  0  0  0  0  0  0  0  0
    9.4432  -13.3787   27.5872 O   0  0  0  0  0  0  0  0  0  0  0  0
  1  2  1  0
  2  4  1  0
  3  2  2  0
  5  4  1  0
  5  6  1  1
  5  7  1  0
  7  8  2  0
  9  7  1  0
  9 10  1  0
 10 14  1  0
 10 11  1  1
 11 12  1  0
 12 16  1  0
 13 12  2  0
 14 15  2  0
 17 14  1  0
 17 18  1  0
 18 21  1  0
 18 19  1  1
 19 20  1  0
 21 22  2  0
 21 23  1  0
M  END
$$$$
