IIG.pdb
     RDKit          3D

 21 20  0  0  1  0  0  0  0  0999 V2000
   11.2791  -15.4192   30.9531 C   0  0  0  0  0  0  0  0  0  0  0  0
   10.1299  -16.1181   30.3139 C   0  0  0  0  0  0  0  0  0  0  0  0
    9.9458  -15.8281   28.8465 C   0  0  2  0  0  0  0  0  0  0  0  0
    9.9997  -14.3625   28.5666 C   0  0  0  0  0  0  0  0  0  0  0  0
    8.6786  -16.5058   28.3915 C   0  0  2  0  0  0  0  0  0  0  0  0
    8.9304  -17.9478   28.5775 N   0  0  0  0  0  0  0  0  0  0  0  0
    8.3748  -16.3152   26.9548 C   0  0  0  0  0  0  0  0  0  0  0  0
    8.4967  -17.3000   26.1443 O   0  0  0  0  0  0  0  0  0  0  0  0
    5.9696  -11.8824   25.9448 C   0  0  0  0  0  0  0  0  0  0  0  0
    6.0239  -13.3272   25.4171 C   0  0  0  0  0  0  0  0  0  0  0  0
    7.3075  -13.5784   24.6943 C   0  0  2  0  0  0  0  0  0  0  0  0
    7.3071  -13.0964   23.2753 C   0  0  0  0  0  0  0  0  0  0  0  0
    7.8712  -14.9598   24.8904 C   0  0  2  0  0  0  0  0  0  0  0  0
    7.9448  -15.1099   26.3600 N   0  0  0  0  0  0  0  0  0  0  0  0
    9.1489  -15.2455   24.2642 C   0  0  0  0  0  0  0  0  0  0  0  0
   10.1288  -14.4909   24.6100 O   0  0  0  0  0  0  0  0  0  0  0  0
    9.4143  -16.2582   23.3270 N   0  0  0  0  0  0  0  0  0  0  0  0
   10.7551  -16.4205   22.8004 C   0  0  0  0  0  0  0  0  0  0  0  0
   10.8242  -16.0878   21.3570 C   0  0  0  0  0  0  0  0  0  0  0  0
    9.7131  -15.7497   20.6025 O   0  0  0  0  0  0  0  0  0  0  0  0
   11.9369  -16.1098   20.7789 O   0  0  0  0  0  0  0  0  0  0  0  0
  2  1  1  0
  2  3  1  0
  3  5  1  0
  3  4  1  1
  5  7  1  0
  5  6  1  6
  7  8  2  0
 10  9  1  0
 11 10  1  0
 11 12  1  6
 13 11  1  0
 14  7  1  0
 13 14  1  1
 15 17  1  0
 15 13  1  0
 16 15  2  0
 18 17  1  0
 19 20  1  0
 19 18  1  0
 21 19  2  0
M  END
$$$$
