IIG.pdb
     RDKit          3D

 21 20  0  0  1  0  0  0  0  0999 V2000
   11.4762  -15.5434   31.0621 C   0  0  0  0  0  0  0  0  0  0  0  0
   10.3993  -16.3184   30.3856 C   0  0  0  0  0  0  0  0  0  0  0  0
   10.1931  -15.9835   28.9308 C   0  0  2  0  0  0  0  0  0  0  0  0
   10.2486  -14.5104   28.6943 C   0  0  0  0  0  0  0  0  0  0  0  0
    8.9160  -16.6425   28.4760 C   0  0  2  0  0  0  0  0  0  0  0  0
    9.1631  -18.0902   28.6186 N   0  0  0  0  0  0  0  0  0  0  0  0
    8.5922  -16.4110   27.0497 C   0  0  0  0  0  0  0  0  0  0  0  0
    8.6958  -17.3741   26.2110 O   0  0  0  0  0  0  0  0  0  0  0  0
    6.0364  -12.0232   26.2666 C   0  0  0  0  0  0  0  0  0  0  0  0
    6.1284  -13.4892   25.8070 C   0  0  0  0  0  0  0  0  0  0  0  0
    7.3008  -13.6873   24.9020 C   0  0  2  0  0  0  0  0  0  0  0  0
    7.0570  -13.2463   23.4906 C   0  0  0  0  0  0  0  0  0  0  0  0
    7.9701  -15.0284   25.0363 C   0  0  2  0  0  0  0  0  0  0  0  0
    8.1613  -15.1874   26.4943 N   0  0  0  0  0  0  0  0  0  0  0  0
    9.2150  -15.2190   24.3150 C   0  0  0  0  0  0  0  0  0  0  0  0
   10.1223  -14.3312   24.5093 O   0  0  0  0  0  0  0  0  0  0  0  0
    9.5202  -16.2711   23.4349 N   0  0  0  0  0  0  0  0  0  0  0  0
   10.7637  -16.2510   22.6902 C   0  0  0  0  0  0  0  0  0  0  0  0
   10.5566  -16.5946   21.2627 C   0  0  0  0  0  0  0  0  0  0  0  0
   11.5796  -17.0093   20.4261 O   0  0  0  0  0  0  0  0  0  0  0  0
    9.4038  -16.5100   20.7763 O   0  0  0  0  0  0  0  0  0  0  0  0
  2  1  1  0
  2  3  1  0
  3  5  1  0
  3  4  1  1
  5  7  1  0
  5  6  1  6
  7  8  2  0
 10  9  1  0
 11 10  1  0
 11 12  1  6
 13 11  1  0
 14  7  1  0
 13 14  1  1
 15 17  1  0
 15 13  1  0
 16 15  2  0
 18 17  1  0
 19 20  1  0
 19 18  1  0
 21 19  2  0
M  END
$$$$
