IIG.pdb
     RDKit          3D

 21 20  0  0  1  0  0  0  0  0999 V2000
    6.7521  -21.9095   25.3700 C   0  0  0  0  0  0  0  0  0  0  0  0
    6.0376  -20.6500   25.0221 C   0  0  0  0  0  0  0  0  0  0  0  0
    6.9025  -19.4163   24.9909 C   0  0  2  0  0  0  0  0  0  0  0  0
    7.7746  -19.3277   26.1995 C   0  0  0  0  0  0  0  0  0  0  0  0
    6.0069  -18.2229   24.7768 C   0  0  2  0  0  0  0  0  0  0  0  0
    5.2802  -18.5121   23.5255 N   0  0  0  0  0  0  0  0  0  0  0  0
    6.7360  -16.9534   24.5542 C   0  0  0  0  0  0  0  0  0  0  0  0
    7.2682  -16.7190   23.4125 O   0  0  0  0  0  0  0  0  0  0  0  0
    5.1939  -12.3294   26.8573 C   0  0  0  0  0  0  0  0  0  0  0  0
    5.7849  -13.2256   25.7544 C   0  0  0  0  0  0  0  0  0  0  0  0
    7.1632  -13.6734   26.1189 C   0  0  2  0  0  0  0  0  0  0  0  0
    8.1018  -12.5481   26.4329 C   0  0  0  0  0  0  0  0  0  0  0  0
    7.7313  -14.7342   25.2152 C   0  0  2  0  0  0  0  0  0  0  0  0
    6.9122  -15.9300   25.5097 N   0  0  0  0  0  0  0  0  0  0  0  0
    9.1488  -15.0188   25.3426 C   0  0  0  0  0  0  0  0  0  0  0  0
    9.9482  -14.1163   24.9004 O   0  0  0  0  0  0  0  0  0  0  0  0
    9.7243  -16.1738   25.8986 N   0  0  0  0  0  0  0  0  0  0  0  0
   11.1596  -16.2445   26.0893 C   0  0  0  0  0  0  0  0  0  0  0  0
   11.8452  -16.8170   24.9057 C   0  0  0  0  0  0  0  0  0  0  0  0
   13.2104  -17.0450   24.8564 O   0  0  0  0  0  0  0  0  0  0  0  0
   11.1675  -17.1137   23.8929 O   0  0  0  0  0  0  0  0  0  0  0  0
  2  1  1  0
  2  3  1  0
  3  5  1  0
  3  4  1  1
  5  7  1  0
  5  6  1  6
  7  8  2  0
 10  9  1  0
 11 10  1  0
 11 12  1  6
 13 11  1  0
 14  7  1  0
 13 14  1  1
 15 17  1  0
 15 13  1  0
 16 15  2  0
 18 17  1  0
 19 20  1  0
 19 18  1  0
 21 19  2  0
M  END
$$$$
