IIG.pdb
     RDKit          3D

 21 20  0  0  1  0  0  0  0  0999 V2000
   10.0542  -14.0623   29.7449 C   0  0  0  0  0  0  0  0  0  0  0  0
    9.8716  -15.0970   28.6894 C   0  0  0  0  0  0  0  0  0  0  0  0
    9.1577  -16.3454   29.1397 C   0  0  2  0  0  0  0  0  0  0  0  0
    9.9198  -17.0574   30.2080 C   0  0  0  0  0  0  0  0  0  0  0  0
    8.8617  -17.1803   27.9201 C   0  0  2  0  0  0  0  0  0  0  0  0
   10.1690  -17.3706   27.2627 N   0  0  0  0  0  0  0  0  0  0  0  0
    7.9875  -16.5121   26.9290 C   0  0  0  0  0  0  0  0  0  0  0  0
    6.8013  -16.9534   26.7295 O   0  0  0  0  0  0  0  0  0  0  0  0
    6.5216  -11.5993   26.6077 C   0  0  0  0  0  0  0  0  0  0  0  0
    6.3713  -13.0865   26.2406 C   0  0  0  0  0  0  0  0  0  0  0  0
    7.3647  -13.4760   25.1944 C   0  0  2  0  0  0  0  0  0  0  0  0
    7.2492  -12.6857   23.9263 C   0  0  0  0  0  0  0  0  0  0  0  0
    7.5128  -14.9609   25.0001 C   0  0  2  0  0  0  0  0  0  0  0  0
    8.3398  -15.3903   26.1487 N   0  0  0  0  0  0  0  0  0  0  0  0
    8.0813  -15.4076   23.7417 C   0  0  0  0  0  0  0  0  0  0  0  0
    7.4022  -15.1349   22.6864 O   0  0  0  0  0  0  0  0  0  0  0  0
    9.2910  -16.1012   23.5687 N   0  0  0  0  0  0  0  0  0  0  0  0
    9.7643  -16.4042   22.2324 C   0  0  0  0  0  0  0  0  0  0  0  0
   11.1910  -16.0402   22.0575 C   0  0  0  0  0  0  0  0  0  0  0  0
   11.8149  -15.9890   20.8220 O   0  0  0  0  0  0  0  0  0  0  0  0
   11.8779  -15.7628   23.0695 O   0  0  0  0  0  0  0  0  0  0  0  0
  2  1  1  0
  2  3  1  0
  3  5  1  0
  3  4  1  1
  5  7  1  0
  5  6  1  6
  7  8  2  0
 10  9  1  0
 11 10  1  0
 11 12  1  6
 13 11  1  0
 14  7  1  0
 13 14  1  1
 15 17  1  0
 15 13  1  0
 16 15  2  0
 18 17  1  0
 19 20  1  0
 19 18  1  0
 21 19  2  0
M  END
$$$$
