IIG.pdb
     RDKit          3D

 21 20  0  0  1  0  0  0  0  0999 V2000
   10.7057  -14.1528   29.6543 C   0  0  0  0  0  0  0  0  0  0  0  0
   10.2927  -15.1166   28.5967 C   0  0  0  0  0  0  0  0  0  0  0  0
    9.6077  -16.3601   29.1022 C   0  0  2  0  0  0  0  0  0  0  0  0
   10.4616  -17.0970   30.0804 C   0  0  0  0  0  0  0  0  0  0  0  0
    9.1777  -17.1747   27.9091 C   0  0  2  0  0  0  0  0  0  0  0  0
   10.4083  -17.3712   27.1190 N   0  0  0  0  0  0  0  0  0  0  0  0
    8.2155  -16.4829   27.0212 C   0  0  0  0  0  0  0  0  0  0  0  0
    6.9576  -16.6633   27.1853 O   0  0  0  0  0  0  0  0  0  0  0  0
    6.6978  -11.6918   26.3851 C   0  0  0  0  0  0  0  0  0  0  0  0
    6.4531  -13.1702   26.0336 C   0  0  0  0  0  0  0  0  0  0  0  0
    7.5160  -13.6782   25.1143 C   0  0  2  0  0  0  0  0  0  0  0  0
    7.6115  -12.9224   23.8237 C   0  0  0  0  0  0  0  0  0  0  0  0
    7.5504  -15.1759   24.9714 C   0  0  2  0  0  0  0  0  0  0  0  0
    8.5544  -15.6065   25.9684 N   0  0  0  0  0  0  0  0  0  0  0  0
    7.8510  -15.7056   23.6541 C   0  0  0  0  0  0  0  0  0  0  0  0
    6.9603  -15.5104   22.7498 O   0  0  0  0  0  0  0  0  0  0  0  0
    9.0111  -16.4029   23.2767 N   0  0  0  0  0  0  0  0  0  0  0  0
    9.1761  -16.8395   21.9042 C   0  0  0  0  0  0  0  0  0  0  0  0
    9.9937  -15.8853   21.1171 C   0  0  0  0  0  0  0  0  0  0  0  0
   11.2895  -16.1540   20.7083 O   0  0  0  0  0  0  0  0  0  0  0  0
    9.5001  -14.7771   20.7992 O   0  0  0  0  0  0  0  0  0  0  0  0
  2  1  1  0
  2  3  1  0
  3  5  1  0
  3  4  1  1
  5  7  1  0
  5  6  1  6
  7  8  2  0
 10  9  1  0
 11 10  1  0
 11 12  1  6
 13 11  1  0
 14  7  1  0
 13 14  1  1
 15 17  1  0
 15 13  1  0
 16 15  2  0
 18 17  1  0
 19 20  1  0
 19 18  1  0
 21 19  2  0
M  END
$$$$
