IIG.pdb
     RDKit          3D

 21 20  0  0  1  0  0  0  0  0999 V2000
   11.5045  -15.1734   30.8685 C   0  0  0  0  0  0  0  0  0  0  0  0
   10.4353  -16.0334   30.2898 C   0  0  0  0  0  0  0  0  0  0  0  0
   10.1213  -15.7683   28.8399 C   0  0  2  0  0  0  0  0  0  0  0  0
   10.0633  -14.3048   28.5505 C   0  0  0  0  0  0  0  0  0  0  0  0
    8.8668  -16.5259   28.4873 C   0  0  2  0  0  0  0  0  0  0  0  0
    9.2142  -17.9473   28.6783 N   0  0  0  0  0  0  0  0  0  0  0  0
    8.4525  -16.3821   27.0729 C   0  0  0  0  0  0  0  0  0  0  0  0
    8.2089  -17.4278   26.3735 O   0  0  0  0  0  0  0  0  0  0  0  0
    6.4602  -11.6482   25.8309 C   0  0  0  0  0  0  0  0  0  0  0  0
    6.3004  -13.1495   25.5315 C   0  0  0  0  0  0  0  0  0  0  0  0
    7.4758  -13.6641   24.7656 C   0  0  2  0  0  0  0  0  0  0  0  0
    7.4934  -13.2410   23.3279 C   0  0  0  0  0  0  0  0  0  0  0  0
    7.7802  -15.1194   24.9978 C   0  0  2  0  0  0  0  0  0  0  0  0
    8.2894  -15.1604   26.3858 N   0  0  0  0  0  0  0  0  0  0  0  0
    8.7035  -15.7550   24.0759 C   0  0  0  0  0  0  0  0  0  0  0  0
    8.2109  -16.1277   22.9500 O   0  0  0  0  0  0  0  0  0  0  0  0
   10.0702  -15.9981   24.2941 N   0  0  0  0  0  0  0  0  0  0  0  0
   10.8470  -16.7004   23.2917 C   0  0  0  0  0  0  0  0  0  0  0  0
   11.4763  -15.7657   22.3277 C   0  0  0  0  0  0  0  0  0  0  0  0
   10.7956  -15.2061   21.2592 O   0  0  0  0  0  0  0  0  0  0  0  0
   12.6832  -15.4585   22.4756 O   0  0  0  0  0  0  0  0  0  0  0  0
  2  1  1  0
  2  3  1  0
  3  5  1  0
  3  4  1  1
  5  7  1  0
  5  6  1  6
  7  8  2  0
 10  9  1  0
 11 10  1  0
 11 12  1  6
 13 11  1  0
 14  7  1  0
 13 14  1  1
 15 17  1  0
 15 13  1  0
 16 15  2  0
 18 17  1  0
 19 20  1  0
 19 18  1  0
 21 19  2  0
M  END
$$$$
