IIG.pdb
     RDKit          3D

 21 20  0  0  1  0  0  0  0  0999 V2000
   11.5345  -15.8840   30.6728 C   0  0  0  0  0  0  0  0  0  0  0  0
   10.2579  -16.4600   30.1665 C   0  0  0  0  0  0  0  0  0  0  0  0
    9.8586  -16.0057   28.7862 C   0  0  2  0  0  0  0  0  0  0  0  0
    9.9706  -14.5238   28.6432 C   0  0  0  0  0  0  0  0  0  0  0  0
    8.4892  -16.5612   28.4891 C   0  0  2  0  0  0  0  0  0  0  0  0
    8.6495  -18.0264   28.5589 N   0  0  0  0  0  0  0  0  0  0  0  0
    7.9977  -16.2578   27.1257 C   0  0  0  0  0  0  0  0  0  0  0  0
    7.4918  -17.1930   26.4107 O   0  0  0  0  0  0  0  0  0  0  0  0
    5.9618  -11.5144   26.5965 C   0  0  0  0  0  0  0  0  0  0  0  0
    5.8619  -12.9631   26.0863 C   0  0  0  0  0  0  0  0  0  0  0  0
    7.0289  -13.2987   25.2153 C   0  0  2  0  0  0  0  0  0  0  0  0
    6.9878  -12.6417   23.8690 C   0  0  0  0  0  0  0  0  0  0  0  0
    7.3875  -14.7600   25.1926 C   0  0  2  0  0  0  0  0  0  0  0  0
    8.0285  -14.9906   26.5054 N   0  0  0  0  0  0  0  0  0  0  0  0
    8.2323  -15.2146   24.1036 C   0  0  0  0  0  0  0  0  0  0  0  0
    7.7232  -15.1452   22.9267 O   0  0  0  0  0  0  0  0  0  0  0  0
    9.5403  -15.7167   24.2119 N   0  0  0  0  0  0  0  0  0  0  0  0
   10.2382  -16.1732   23.0262 C   0  0  0  0  0  0  0  0  0  0  0  0
   11.6747  -15.8066   23.0570 C   0  0  0  0  0  0  0  0  0  0  0  0
   12.4949  -15.8583   21.9422 O   0  0  0  0  0  0  0  0  0  0  0  0
   12.1846  -15.4295   24.1390 O   0  0  0  0  0  0  0  0  0  0  0  0
  2  1  1  0
  2  3  1  0
  3  5  1  0
  3  4  1  1
  5  7  1  0
  5  6  1  6
  7  8  2  0
 10  9  1  0
 11 10  1  0
 11 12  1  6
 13 11  1  0
 14  7  1  0
 13 14  1  1
 15 17  1  0
 15 13  1  0
 16 15  2  0
 18 17  1  0
 19 20  1  0
 19 18  1  0
 21 19  2  0
M  END
$$$$
