IIG.pdb
     RDKit          3D

 21 20  0  0  1  0  0  0  0  0999 V2000
   11.4372  -15.7613   30.7585 C   0  0  0  0  0  0  0  0  0  0  0  0
   10.2534  -16.4257   30.1462 C   0  0  0  0  0  0  0  0  0  0  0  0
    9.8318  -15.8688   28.8109 C   0  0  2  0  0  0  0  0  0  0  0  0
    9.6976  -14.3825   28.8547 C   0  0  0  0  0  0  0  0  0  0  0  0
    8.5866  -16.5967   28.3730 C   0  0  2  0  0  0  0  0  0  0  0  0
    8.9498  -18.0265   28.4068 N   0  0  0  0  0  0  0  0  0  0  0  0
    8.1731  -16.3021   26.9819 C   0  0  0  0  0  0  0  0  0  0  0  0
    7.8159  -17.2601   26.2096 O   0  0  0  0  0  0  0  0  0  0  0  0
    5.8148  -11.6789   26.4118 C   0  0  0  0  0  0  0  0  0  0  0  0
    5.8641  -13.1401   25.9309 C   0  0  0  0  0  0  0  0  0  0  0  0
    7.0723  -13.3778   25.0843 C   0  0  2  0  0  0  0  0  0  0  0  0
    7.0138  -12.7082   23.7448 C   0  0  0  0  0  0  0  0  0  0  0  0
    7.5381  -14.8085   25.0537 C   0  0  2  0  0  0  0  0  0  0  0  0
    8.1281  -15.0204   26.3933 N   0  0  0  0  0  0  0  0  0  0  0  0
    8.4672  -15.1769   24.0014 C   0  0  0  0  0  0  0  0  0  0  0  0
    7.9837  -15.2267   22.8127 O   0  0  0  0  0  0  0  0  0  0  0  0
    9.8306  -15.4796   24.1563 N   0  0  0  0  0  0  0  0  0  0  0  0
   10.6275  -15.8321   22.9978 C   0  0  0  0  0  0  0  0  0  0  0  0
   12.0358  -16.1173   23.3639 C   0  0  0  0  0  0  0  0  0  0  0  0
   13.0922  -15.9814   22.4785 O   0  0  0  0  0  0  0  0  0  0  0  0
   12.2971  -16.5010   24.5289 O   0  0  0  0  0  0  0  0  0  0  0  0
  2  1  1  0
  2  3  1  0
  3  5  1  0
  3  4  1  1
  5  7  1  0
  5  6  1  6
  7  8  2  0
 10  9  1  0
 11 10  1  0
 11 12  1  6
 13 11  1  0
 14  7  1  0
 13 14  1  1
 15 17  1  0
 15 13  1  0
 16 15  2  0
 18 17  1  0
 19 20  1  0
 19 18  1  0
 21 19  2  0
M  END
$$$$
