HFP.pdb
     RDKit          3D

 29 31  0  0  1  0  0  0  0  0999 V2000
   10.6190  -19.9558   -5.5674 N   0  0  0  0  0  0  0  0  0  0  0  0
    9.7653  -19.8351   -4.4304 C   0  0  1  0  0  0  0  0  0  0  0  0
    8.8285  -20.9755   -4.2201 C   0  0  0  0  0  0  0  0  0  0  0  0
    7.9510  -21.2074   -5.3967 C   0  0  0  0  0  0  0  0  0  0  0  0
    6.6683  -20.7284   -5.5634 C   0  0  0  0  0  0  0  0  0  0  0  0
    6.2069  -21.1554   -6.7619 N   0  0  0  0  0  0  0  0  0  0  0  0
    7.1593  -21.8803   -7.3397 C   0  0  0  0  0  0  0  0  0  0  0  0
    8.2127  -21.9103   -6.5126 N   0  0  0  0  0  0  0  0  0  0  0  0
   10.5372  -19.6574   -3.1478 C   0  0  0  0  0  0  0  0  0  0  0  0
   11.6094  -20.2765   -3.0247 O   0  0  0  0  0  0  0  0  0  0  0  0
    9.9841  -18.8031   -2.1865 N   0  0  0  0  0  0  0  0  0  0  0  0
   10.7532  -18.5290   -0.9652 C   0  0  1  0  0  0  0  0  0  0  0  0
   10.9930  -17.0375   -0.8430 C   0  0  0  0  0  0  0  0  0  0  0  0
   11.7056  -16.6804    0.3904 C   0  0  0  0  0  0  0  0  0  0  0  0
   13.0520  -17.0165    0.5334 C   0  0  0  0  0  0  0  0  0  0  0  0
   13.7627  -16.7027    1.6862 C   0  0  0  0  0  0  0  0  0  0  0  0
   13.1344  -16.0444    2.7193 C   0  0  0  0  0  0  0  0  0  0  0  0
   11.8158  -15.7058    2.6001 C   0  0  0  0  0  0  0  0  0  0  0  0
   11.1224  -16.0262    1.4443 C   0  0  0  0  0  0  0  0  0  0  0  0
   10.1158  -19.1243    0.2249 C   0  0  0  0  0  0  0  0  0  0  0  0
    8.8795  -18.8232    0.3771 O   0  0  0  0  0  0  0  0  0  0  0  0
   10.7703  -19.9724    1.1606 N   0  0  0  0  0  0  0  0  0  0  0  0
   12.0992  -20.4732    1.0536 C   0  0  0  0  0  0  0  0  0  0  0  0
   12.4947  -20.5068    2.5439 C   0  0  0  0  0  0  0  0  0  0  0  0
   11.2221  -21.1210    3.1572 C   0  0  0  0  0  0  0  0  0  0  0  0
   10.1371  -20.5158    2.3208 C   0  0  1  0  0  0  0  0  0  0  0  0
    9.3879  -19.4823    3.0882 C   0  0  0  0  0  0  0  0  0  0  0  0
    8.5952  -19.8576    4.1420 O   0  0  0  0  0  0  0  0  0  0  0  0
    9.4873  -18.2907    2.7676 O   0  0  0  0  0  0  0  0  0  0  0  0
  2  1  1  6
  3  2  1  0
  4  5  2  0
  4  3  1  0
  6  5  1  0
  7  8  2  0
  7  6  1  0
  8  4  1  0
  9  2  1  0
 10  9  2  0
 11  9  1  0
 12 11  1  0
 12 13  1  1
 13 14  1  0
 14 19  1  0
 14 15  2  0
 15 16  1  0
 16 17  2  0
 18 17  1  0
 19 18  2  0
 20 12  1  0
 21 20  2  0
 22 20  1  0
 22 26  1  0
 23 24  1  0
 23 22  1  0
 24 25  1  0
 25 26  1  0
 27 28  1  0
 26 27  1  1
 29 27  2  0
M  END
$$$$
