HFP.pdb
     RDKit          3D

 29 31  0  0  1  0  0  0  0  0999 V2000
   28.4483  -19.7755  -18.9533 N   0  0  0  0  0  0  0  0  0  0  0  0
   27.6250  -18.9865  -18.0955 C   0  0  1  0  0  0  0  0  0  0  0  0
   26.4211  -18.3941  -18.7451 C   0  0  0  0  0  0  0  0  0  0  0  0
   26.7664  -17.2641  -19.6462 C   0  0  0  0  0  0  0  0  0  0  0  0
   26.3890  -15.9475  -19.4831 C   0  0  0  0  0  0  0  0  0  0  0  0
   26.9000  -15.2281  -20.5093 N   0  0  0  0  0  0  0  0  0  0  0  0
   27.5787  -16.0541  -21.2987 C   0  0  0  0  0  0  0  0  0  0  0  0
   27.4966  -17.2844  -20.7750 N   0  0  0  0  0  0  0  0  0  0  0  0
   27.1420  -19.7572  -16.8934 C   0  0  0  0  0  0  0  0  0  0  0  0
   26.9328  -20.9761  -17.0306 O   0  0  0  0  0  0  0  0  0  0  0  0
   26.9645  -19.0371  -15.7061 N   0  0  0  0  0  0  0  0  0  0  0  0
   26.4949  -19.7545  -14.5132 C   0  0  1  0  0  0  0  0  0  0  0  0
   27.1197  -19.1413  -13.2760 C   0  0  0  0  0  0  0  0  0  0  0  0
   26.6226  -19.7474  -12.0342 C   0  0  0  0  0  0  0  0  0  0  0  0
   25.7060  -19.0530  -11.2442 C   0  0  0  0  0  0  0  0  0  0  0  0
   25.2143  -19.5871  -10.0586 C   0  0  0  0  0  0  0  0  0  0  0  0
   25.6341  -20.8306   -9.6426 C   0  0  0  0  0  0  0  0  0  0  0  0
   26.5316  -21.5279  -10.4013 C   0  0  0  0  0  0  0  0  0  0  0  0
   27.0115  -20.9808  -11.5802 C   0  0  0  0  0  0  0  0  0  0  0  0
   25.0218  -19.8189  -14.4611 C   0  0  0  0  0  0  0  0  0  0  0  0
   24.4380  -18.6797  -14.3999 O   0  0  0  0  0  0  0  0  0  0  0  0
   24.2581  -21.0187  -14.4768 N   0  0  0  0  0  0  0  0  0  0  0  0
   24.7528  -22.3253  -14.7536 C   0  0  0  0  0  0  0  0  0  0  0  0
   23.8414  -23.1590  -13.8301 C   0  0  0  0  0  0  0  0  0  0  0  0
   22.4770  -22.5052  -14.1193 C   0  0  0  0  0  0  0  0  0  0  0  0
   22.8415  -21.0631  -14.2941 C   0  0  1  0  0  0  0  0  0  0  0  0
   22.4007  -20.2573  -13.1216 C   0  0  0  0  0  0  0  0  0  0  0  0
   21.0836  -19.8969  -12.9991 O   0  0  0  0  0  0  0  0  0  0  0  0
   23.2288  -19.9189  -12.2659 O   0  0  0  0  0  0  0  0  0  0  0  0
  2  1  1  6
  3  2  1  0
  4  5  2  0
  4  3  1  0
  6  5  1  0
  7  8  2  0
  7  6  1  0
  8  4  1  0
  9  2  1  0
 10  9  2  0
 11  9  1  0
 12 11  1  0
 12 13  1  1
 13 14  1  0
 14 19  1  0
 14 15  2  0
 15 16  1  0
 16 17  2  0
 18 17  1  0
 19 18  2  0
 20 12  1  0
 21 20  2  0
 22 20  1  0
 22 26  1  0
 23 24  1  0
 23 22  1  0
 24 25  1  0
 25 26  1  0
 27 28  1  0
 26 27  1  1
 29 27  2  0
M  END
$$$$
