HFP.pdb
     RDKit          3D

 29 31  0  0  1  0  0  0  0  0999 V2000
   26.0050  -21.1813  -12.4747 N   0  0  0  0  0  0  0  0  0  0  0  0
   25.3450  -20.6336  -11.3343 C   0  0  1  0  0  0  0  0  0  0  0  0
   23.9197  -21.0399  -11.1738 C   0  0  0  0  0  0  0  0  0  0  0  0
   23.0558  -20.5024  -12.2568 C   0  0  0  0  0  0  0  0  0  0  0  0
   22.2834  -19.3616  -12.1923 C   0  0  0  0  0  0  0  0  0  0  0  0
   21.6462  -19.2114  -13.3767 N   0  0  0  0  0  0  0  0  0  0  0  0
   21.9982  -20.2188  -14.1689 C   0  0  0  0  0  0  0  0  0  0  0  0
   22.8505  -20.9980  -13.4897 N   0  0  0  0  0  0  0  0  0  0  0  0
   26.0475  -20.9737  -10.0447 C   0  0  0  0  0  0  0  0  0  0  0  0
   26.3012  -22.1709   -9.8198 O   0  0  0  0  0  0  0  0  0  0  0  0
   26.3628  -19.9086   -9.1927 N   0  0  0  0  0  0  0  0  0  0  0  0
   27.0739  -20.1980   -7.9403 C   0  0  1  0  0  0  0  0  0  0  0  0
   28.0580  -19.0829   -7.6485 C   0  0  0  0  0  0  0  0  0  0  0  0
   28.7832  -19.2867   -6.3880 C   0  0  0  0  0  0  0  0  0  0  0  0
   28.5193  -18.4590   -5.2964 C   0  0  0  0  0  0  0  0  0  0  0  0
   29.1868  -18.6134   -4.0868 C   0  0  0  0  0  0  0  0  0  0  0  0
   30.1336  -19.6033   -3.9494 C   0  0  0  0  0  0  0  0  0  0  0  0
   30.4078  -20.4253   -5.0062 C   0  0  0  0  0  0  0  0  0  0  0  0
   29.7333  -20.2575   -6.2046 C   0  0  0  0  0  0  0  0  0  0  0  0
   26.1378  -20.4649   -6.8316 C   0  0  0  0  0  0  0  0  0  0  0  0
   25.2336  -19.5716   -6.6676 O   0  0  0  0  0  0  0  0  0  0  0  0
   26.1853  -21.6049   -5.9823 N   0  0  0  0  0  0  0  0  0  0  0  0
   27.0648  -22.7168   -6.1179 C   0  0  0  0  0  0  0  0  0  0  0  0
   27.2736  -23.0772   -4.6329 C   0  0  0  0  0  0  0  0  0  0  0  0
   25.8256  -22.9822   -4.1159 C   0  0  0  0  0  0  0  0  0  0  0  0
   25.2780  -21.8307   -4.9016 C   0  0  1  0  0  0  0  0  0  0  0  0
   25.1197  -20.6263   -4.0398 C   0  0  0  0  0  0  0  0  0  0  0  0
   24.0372  -20.5236   -3.2047 O   0  0  0  0  0  0  0  0  0  0  0  0
   25.9684  -19.7261   -4.0848 O   0  0  0  0  0  0  0  0  0  0  0  0
  2  1  1  6
  3  2  1  0
  4  5  2  0
  4  3  1  0
  6  5  1  0
  7  8  2  0
  7  6  1  0
  8  4  1  0
  9  2  1  0
 10  9  2  0
 11  9  1  0
 12 11  1  0
 12 13  1  1
 13 14  1  0
 14 19  1  0
 14 15  2  0
 15 16  1  0
 16 17  2  0
 18 17  1  0
 19 18  2  0
 20 12  1  0
 21 20  2  0
 22 20  1  0
 22 26  1  0
 23 24  1  0
 23 22  1  0
 24 25  1  0
 25 26  1  0
 27 28  1  0
 26 27  1  1
 29 27  2  0
M  END
$$$$
