HFP.pdb
     RDKit          3D

 29 31  0  0  1  0  0  0  0  0999 V2000
   25.7250  -21.0379  -12.7849 N   0  0  0  0  0  0  0  0  0  0  0  0
   25.0713  -20.5445  -11.6164 C   0  0  1  0  0  0  0  0  0  0  0  0
   23.6544  -20.9785  -11.4546 C   0  0  0  0  0  0  0  0  0  0  0  0
   22.7782  -20.4537  -12.5340 C   0  0  0  0  0  0  0  0  0  0  0  0
   22.2863  -19.1688  -12.6315 C   0  0  0  0  0  0  0  0  0  0  0  0
   21.5314  -19.0860  -13.7517 N   0  0  0  0  0  0  0  0  0  0  0  0
   21.5404  -20.2737  -14.3479 C   0  0  0  0  0  0  0  0  0  0  0  0
   22.2948  -21.0990  -13.6100 N   0  0  0  0  0  0  0  0  0  0  0  0
   25.7950  -20.9232  -10.3494 C   0  0  0  0  0  0  0  0  0  0  0  0
   26.0284  -22.1293  -10.1522 O   0  0  0  0  0  0  0  0  0  0  0  0
   26.1514  -19.8809   -9.4855 N   0  0  0  0  0  0  0  0  0  0  0  0
   26.8621  -20.2108   -8.2428 C   0  0  1  0  0  0  0  0  0  0  0  0
   27.8599  -19.1153   -7.9250 C   0  0  0  0  0  0  0  0  0  0  0  0
   28.5648  -19.3453   -6.6575 C   0  0  0  0  0  0  0  0  0  0  0  0
   29.4812  -20.3922   -6.5557 C   0  0  0  0  0  0  0  0  0  0  0  0
   30.1660  -20.6487   -5.3733 C   0  0  0  0  0  0  0  0  0  0  0  0
   29.9435  -19.8579   -4.2686 C   0  0  0  0  0  0  0  0  0  0  0  0
   29.0498  -18.8269   -4.3464 C   0  0  0  0  0  0  0  0  0  0  0  0
   28.3760  -18.5853   -5.5326 C   0  0  0  0  0  0  0  0  0  0  0  0
   25.9254  -20.4952   -7.1388 C   0  0  0  0  0  0  0  0  0  0  0  0
   25.1087  -19.5445   -6.8714 O   0  0  0  0  0  0  0  0  0  0  0  0
   25.8849  -21.7084   -6.3975 N   0  0  0  0  0  0  0  0  0  0  0  0
   26.6370  -22.8861   -6.6727 C   0  0  0  0  0  0  0  0  0  0  0  0
   26.8623  -23.4028   -5.2371 C   0  0  0  0  0  0  0  0  0  0  0  0
   25.4528  -23.2105   -4.6463 C   0  0  0  0  0  0  0  0  0  0  0  0
   25.0000  -21.9413   -5.2998 C   0  0  1  0  0  0  0  0  0  0  0  0
   25.0014  -20.8128   -4.3278 C   0  0  0  0  0  0  0  0  0  0  0  0
   26.1214  -20.0341   -4.1895 O   0  0  0  0  0  0  0  0  0  0  0  0
   23.9894  -20.5869   -3.6515 O   0  0  0  0  0  0  0  0  0  0  0  0
  2  1  1  6
  3  2  1  0
  4  5  2  0
  4  3  1  0
  6  5  1  0
  7  8  2  0
  7  6  1  0
  8  4  1  0
  9  2  1  0
 10  9  2  0
 11  9  1  0
 12 11  1  0
 12 13  1  1
 13 14  1  0
 14 19  1  0
 14 15  2  0
 15 16  1  0
 16 17  2  0
 18 17  1  0
 19 18  2  0
 20 12  1  0
 21 20  2  0
 22 20  1  0
 22 26  1  0
 23 24  1  0
 23 22  1  0
 24 25  1  0
 25 26  1  0
 27 28  1  0
 26 27  1  1
 29 27  2  0
M  END
$$$$
