HFP.pdb
     RDKit          3D

 29 31  0  0  1  0  0  0  0  0999 V2000
   25.8716  -19.9486  -12.5717 N   0  0  0  0  0  0  0  0  0  0  0  0
   25.6030  -20.5656  -11.3134 C   0  0  1  0  0  0  0  0  0  0  0  0
   25.5714  -22.0559  -11.3347 C   0  0  0  0  0  0  0  0  0  0  0  0
   24.5703  -22.5840  -12.2975 C   0  0  0  0  0  0  0  0  0  0  0  0
   24.8396  -23.3319  -13.4247 C   0  0  0  0  0  0  0  0  0  0  0  0
   23.6664  -23.6187  -14.0354 N   0  0  0  0  0  0  0  0  0  0  0  0
   22.6839  -23.0743  -13.3251 C   0  0  0  0  0  0  0  0  0  0  0  0
   23.2327  -22.4493  -12.2749 N   0  0  0  0  0  0  0  0  0  0  0  0
   26.5937  -20.1616  -10.2515 C   0  0  0  0  0  0  0  0  0  0  0  0
   27.7157  -19.7718  -10.6221 O   0  0  0  0  0  0  0  0  0  0  0  0
   26.1721  -20.2567   -8.9199 N   0  0  0  0  0  0  0  0  0  0  0  0
   27.0793  -19.7933   -7.8614 C   0  0  1  0  0  0  0  0  0  0  0  0
   26.3198  -18.9022   -6.8992 C   0  0  0  0  0  0  0  0  0  0  0  0
   27.1453  -18.4629   -5.7668 C   0  0  0  0  0  0  0  0  0  0  0  0
   27.0802  -19.1514   -4.5552 C   0  0  0  0  0  0  0  0  0  0  0  0
   27.8399  -18.7660   -3.4565 C   0  0  0  0  0  0  0  0  0  0  0  0
   28.6807  -17.6802   -3.5532 C   0  0  0  0  0  0  0  0  0  0  0  0
   28.7598  -16.9914   -4.7309 C   0  0  0  0  0  0  0  0  0  0  0  0
   27.9956  -17.3890   -5.8160 C   0  0  0  0  0  0  0  0  0  0  0  0
   27.7696  -20.9196   -7.2042 C   0  0  0  0  0  0  0  0  0  0  0  0
   27.0011  -21.8765   -6.8351 O   0  0  0  0  0  0  0  0  0  0  0  0
   29.1713  -20.9928   -6.9739 N   0  0  0  0  0  0  0  0  0  0  0  0
   30.1516  -20.0845   -7.4661 C   0  0  0  0  0  0  0  0  0  0  0  0
   31.1580  -20.1161   -6.2978 C   0  0  0  0  0  0  0  0  0  0  0  0
   31.2207  -21.6306   -6.0236 C   0  0  0  0  0  0  0  0  0  0  0  0
   29.8074  -22.0612   -6.2696 C   0  0  1  0  0  0  0  0  0  0  0  0
   29.1176  -22.3789   -4.9884 C   0  0  0  0  0  0  0  0  0  0  0  0
   28.1381  -21.5436   -4.5166 O   0  0  0  0  0  0  0  0  0  0  0  0
   29.4351  -23.3965   -4.3589 O   0  0  0  0  0  0  0  0  0  0  0  0
  2  1  1  6
  3  2  1  0
  4  5  2  0
  4  3  1  0
  6  5  1  0
  7  8  2  0
  7  6  1  0
  8  4  1  0
  9  2  1  0
 10  9  2  0
 11  9  1  0
 12 11  1  0
 12 13  1  1
 13 14  1  0
 14 19  1  0
 14 15  2  0
 15 16  1  0
 16 17  2  0
 18 17  1  0
 19 18  2  0
 20 12  1  0
 21 20  2  0
 22 20  1  0
 22 26  1  0
 23 24  1  0
 23 22  1  0
 24 25  1  0
 25 26  1  0
 27 28  1  0
 26 27  1  1
 29 27  2  0
M  END
$$$$
