HFP.pdb
     RDKit          3D

 29 31  0  0  1  0  0  0  0  0999 V2000
   26.6638  -18.3022  -19.3136 N   0  0  0  0  0  0  0  0  0  0  0  0
   25.6046  -18.1472  -18.3701 C   0  0  1  0  0  0  0  0  0  0  0  0
   24.2342  -18.3526  -18.9197 C   0  0  0  0  0  0  0  0  0  0  0  0
   23.7505  -17.1722  -19.6818 C   0  0  0  0  0  0  0  0  0  0  0  0
   22.7776  -16.2830  -19.2756 C   0  0  0  0  0  0  0  0  0  0  0  0
   22.6227  -15.3500  -20.2436 N   0  0  0  0  0  0  0  0  0  0  0  0
   23.4653  -15.6324  -21.2318 C   0  0  0  0  0  0  0  0  0  0  0  0
   24.1461  -16.7344  -20.8900 N   0  0  0  0  0  0  0  0  0  0  0  0
   25.7476  -19.0712  -17.1877 C   0  0  0  0  0  0  0  0  0  0  0  0
   25.8265  -20.2927  -17.4114 O   0  0  0  0  0  0  0  0  0  0  0  0
   25.7809  -18.4797  -15.9193 N   0  0  0  0  0  0  0  0  0  0  0  0
   25.7748  -19.3521  -14.7373 C   0  0  1  0  0  0  0  0  0  0  0  0
   26.4289  -18.6327  -13.5748 C   0  0  0  0  0  0  0  0  0  0  0  0
   26.3803  -19.4115  -12.3308 C   0  0  0  0  0  0  0  0  0  0  0  0
   25.4525  -19.0800  -11.3430 C   0  0  0  0  0  0  0  0  0  0  0  0
   25.3763  -19.7870  -10.1484 C   0  0  0  0  0  0  0  0  0  0  0  0
   26.2314  -20.8420   -9.9221 C   0  0  0  0  0  0  0  0  0  0  0  0
   27.1480  -21.1836  -10.8764 C   0  0  0  0  0  0  0  0  0  0  0  0
   27.2104  -20.4683  -12.0613 C   0  0  0  0  0  0  0  0  0  0  0  0
   24.4195  -19.8514  -14.4360 C   0  0  0  0  0  0  0  0  0  0  0  0
   23.5470  -18.9370  -14.2239 O   0  0  0  0  0  0  0  0  0  0  0  0
   24.0525  -21.2242  -14.3745 N   0  0  0  0  0  0  0  0  0  0  0  0
   24.8994  -22.3333  -14.6591 C   0  0  0  0  0  0  0  0  0  0  0  0
   24.3386  -23.3637  -13.6579 C   0  0  0  0  0  0  0  0  0  0  0  0
   22.8258  -23.1593  -13.8641 C   0  0  0  0  0  0  0  0  0  0  0  0
   22.7286  -21.6823  -14.0925 C   0  0  1  0  0  0  0  0  0  0  0  0
   22.1378  -20.9989  -12.9084 C   0  0  0  0  0  0  0  0  0  0  0  0
   22.9160  -20.7483  -11.8078 O   0  0  0  0  0  0  0  0  0  0  0  0
   20.9467  -20.6621  -12.9278 O   0  0  0  0  0  0  0  0  0  0  0  0
  2  1  1  6
  3  2  1  0
  4  5  2  0
  4  3  1  0
  6  5  1  0
  7  8  2  0
  7  6  1  0
  8  4  1  0
  9  2  1  0
 10  9  2  0
 11  9  1  0
 12 11  1  0
 12 13  1  1
 13 14  1  0
 14 19  1  0
 14 15  2  0
 15 16  1  0
 16 17  2  0
 18 17  1  0
 19 18  2  0
 20 12  1  0
 21 20  2  0
 22 20  1  0
 22 26  1  0
 23 24  1  0
 23 22  1  0
 24 25  1  0
 25 26  1  0
 27 28  1  0
 26 27  1  1
 29 27  2  0
M  END
$$$$
