GSK.pdb
     RDKit          3D

 20 19  0  0  1  0  0  0  0  0999 V2000
   10.1203  -21.2843   19.2960 N   0  0  0  0  0  0  0  0  0  0  0  0
    9.4406  -20.9955   20.5420 C   0  0  0  0  0  0  0  0  0  0  0  0
   10.3114  -20.1710   21.3894 C   0  0  0  0  0  0  0  0  0  0  0  0
   11.4808  -19.9394   21.0333 O   0  0  0  0  0  0  0  0  0  0  0  0
    9.1317  -18.6485   25.0888 O   0  0  0  0  0  0  0  0  0  0  0  0
   10.1492  -17.9783   24.4257 C   0  0  0  0  0  0  0  0  0  0  0  0
   10.8667  -18.9686   23.4970 C   0  0  2  0  0  0  0  0  0  0  0  0
    9.8967  -19.6015   22.6270 N   0  0  0  0  0  0  0  0  0  0  0  0
   11.6268  -19.9656   24.2912 C   0  0  0  0  0  0  0  0  0  0  0  0
   11.1005  -21.0028   24.7553 O   0  0  0  0  0  0  0  0  0  0  0  0
   13.0060  -19.7667   24.5538 N   0  0  0  0  0  0  0  0  0  0  0  0
   13.7837  -20.7352   25.3293 C   0  0  1  0  0  0  0  0  0  0  0  0
   15.1757  -20.7118   24.7941 C   0  0  0  0  0  0  0  0  0  0  0  0
   16.1192  -21.6428   25.5123 C   0  0  0  0  0  0  0  0  0  0  0  0
   16.9862  -22.2739   24.4288 C   0  0  0  0  0  0  0  0  0  0  0  0
   17.9669  -23.2606   25.0198 C   0  0  0  0  0  0  0  0  0  0  0  0
   18.7753  -23.7787   23.9443 N   0  0  0  0  0  0  0  0  0  0  0  0
   13.6494  -20.5094   26.7654 C   0  0  0  0  0  0  0  0  0  0  0  0
   13.3027  -19.2409   27.2576 O   0  0  0  0  0  0  0  0  0  0  0  0
   13.8288  -21.4028   27.6207 O   0  0  0  0  0  0  0  0  0  0  0  0
  1  2  1  0
  3  4  2  0
  3  2  1  0
  5  6  1  0
  7  6  1  1
  7  8  1  0
  8  3  1  0
  9 11  1  0
  9  7  1  0
 10  9  2  0
 12 11  1  0
 12 13  1  6
 13 14  1  0
 14 15  1  0
 15 16  1  0
 16 17  1  0
 18 12  1  0
 19 18  1  0
 20 18  2  0
M  END
$$$$
