GSK.pdb
     RDKit          3D

 20 19  0  0  1  0  0  0  0  0999 V2000
    8.7904  -15.7684   15.0338 N   0  0  0  0  0  0  0  0  0  0  0  0
    7.8808  -15.2770   16.0483 C   0  0  0  0  0  0  0  0  0  0  0  0
    8.6530  -14.8136   17.2081 C   0  0  0  0  0  0  0  0  0  0  0  0
    9.8678  -15.0710   17.2847 O   0  0  0  0  0  0  0  0  0  0  0  0
    6.9611  -13.0401   20.6525 O   0  0  0  0  0  0  0  0  0  0  0  0
    8.2284  -12.6419   20.2528 C   0  0  0  0  0  0  0  0  0  0  0  0
    8.8786  -13.7886   19.4651 C   0  0  2  0  0  0  0  0  0  0  0  0
    8.0899  -14.0679   18.2827 N   0  0  0  0  0  0  0  0  0  0  0  0
    9.0255  -14.9892   20.3250 C   0  0  0  0  0  0  0  0  0  0  0  0
    8.1773  -15.9101   20.3500 O   0  0  0  0  0  0  0  0  0  0  0  0
   10.1597  -15.1312   21.1641 N   0  0  0  0  0  0  0  0  0  0  0  0
   10.3679  -16.3357   21.9703 C   0  0  1  0  0  0  0  0  0  0  0  0
   11.7862  -16.7550   21.7775 C   0  0  0  0  0  0  0  0  0  0  0  0
   12.1588  -18.0055   22.5326 C   0  0  0  0  0  0  0  0  0  0  0  0
   13.6292  -18.2581   22.2197 C   0  0  0  0  0  0  0  0  0  0  0  0
   14.0946  -19.5716   22.8052 C   0  0  0  0  0  0  0  0  0  0  0  0
   15.4188  -19.8364   22.3004 N   0  0  0  0  0  0  0  0  0  0  0  0
    9.9440  -16.1394   23.3535 C   0  0  0  0  0  0  0  0  0  0  0  0
    9.5956  -14.8606   23.8171 O   0  0  0  0  0  0  0  0  0  0  0  0
    9.8667  -17.0681   24.1864 O   0  0  0  0  0  0  0  0  0  0  0  0
  1  2  1  0
  3  4  2  0
  3  2  1  0
  5  6  1  0
  7  6  1  1
  7  8  1  0
  8  3  1  0
  9 11  1  0
  9  7  1  0
 10  9  2  0
 12 11  1  0
 12 13  1  1
 13 14  1  0
 14 15  1  0
 15 16  1  0
 16 17  1  0
 18 12  1  0
 19 18  1  0
 20 18  2  0
M  END
$$$$
