GSK.pdb
     RDKit          3D

 20 19  0  0  1  0  0  0  0  0999 V2000
    9.6174  -18.9609   33.9334 N   0  0  0  0  0  0  0  0  0  0  0  0
    9.6714  -18.8081   35.3727 C   0  0  0  0  0  0  0  0  0  0  0  0
   10.2328  -17.4912   35.6996 C   0  0  0  0  0  0  0  0  0  0  0  0
   10.8148  -16.8318   34.8196 O   0  0  0  0  0  0  0  0  0  0  0  0
    8.5732  -14.7198   36.6441 O   0  0  0  0  0  0  0  0  0  0  0  0
    9.9283  -14.5475   36.4024 C   0  0  0  0  0  0  0  0  0  0  0  0
   10.7100  -15.5825   37.2243 C   0  0  2  0  0  0  0  0  0  0  0  0
   10.1543  -16.9000   36.9927 N   0  0  0  0  0  0  0  0  0  0  0  0
   10.6904  -15.2222   38.6638 C   0  0  0  0  0  0  0  0  0  0  0  0
    9.7279  -15.4975   39.4162 O   0  0  0  0  0  0  0  0  0  0  0  0
   11.7893  -14.5383   39.2431 N   0  0  0  0  0  0  0  0  0  0  0  0
   11.7752  -14.1191   40.6460 C   0  0  1  0  0  0  0  0  0  0  0  0
   12.9526  -14.7526   41.3069 C   0  0  0  0  0  0  0  0  0  0  0  0
   12.7708  -16.2209   41.5961 C   0  0  0  0  0  0  0  0  0  0  0  0
   14.0468  -16.6676   42.3004 C   0  0  0  0  0  0  0  0  0  0  0  0
   14.0341  -18.1562   42.5620 C   0  0  0  0  0  0  0  0  0  0  0  0
   15.2893  -18.5078   43.1779 N   0  0  0  0  0  0  0  0  0  0  0  0
   11.6764  -12.6682   40.7749 C   0  0  0  0  0  0  0  0  0  0  0  0
   11.4051  -12.0807   42.0210 O   0  0  0  0  0  0  0  0  0  0  0  0
   11.8224  -11.8820   39.8144 O   0  0  0  0  0  0  0  0  0  0  0  0
  1  2  1  0
  3  4  2  0
  3  2  1  0
  5  6  1  0
  7  6  1  6
  7  8  1  0
  8  3  1  0
  9 11  1  0
  9  7  1  0
 10  9  2  0
 12 11  1  0
 12 13  1  6
 13 14  1  0
 14 15  1  0
 15 16  1  0
 16 17  1  0
 18 12  1  0
 19 18  1  0
 20 18  2  0
M  END
$$$$
