GSK.pdb
     RDKit          3D

 20 19  0  0  1  0  0  0  0  0999 V2000
   14.1806  -13.9923   17.7992 N   0  0  0  0  0  0  0  0  0  0  0  0
   14.6805  -14.9949   18.7174 C   0  0  0  0  0  0  0  0  0  0  0  0
   13.6170  -15.3611   19.6612 C   0  0  0  0  0  0  0  0  0  0  0  0
   12.8327  -14.4895   20.0773 O   0  0  0  0  0  0  0  0  0  0  0  0
   13.1700  -19.1950   21.3469 O   0  0  0  0  0  0  0  0  0  0  0  0
   12.0390  -18.4101   21.1769 C   0  0  0  0  0  0  0  0  0  0  0  0
   12.4570  -16.9327   21.2041 C   0  0  2  0  0  0  0  0  0  0  0  0
   13.4159  -16.6845   20.1471 N   0  0  0  0  0  0  0  0  0  0  0  0
   13.0018  -16.5733   22.5369 C   0  0  0  0  0  0  0  0  0  0  0  0
   14.2291  -16.4554   22.7558 O   0  0  0  0  0  0  0  0  0  0  0  0
   12.1253  -16.3473   23.6285 N   0  0  0  0  0  0  0  0  0  0  0  0
   12.6337  -16.0121   24.9601 C   0  0  1  0  0  0  0  0  0  0  0  0
   11.4683  -15.5663   25.7771 C   0  0  0  0  0  0  0  0  0  0  0  0
   11.8173  -15.2388   27.2068 C   0  0  0  0  0  0  0  0  0  0  0  0
   10.5090  -14.8240   27.8701 C   0  0  0  0  0  0  0  0  0  0  0  0
   10.7220  -14.4690   29.3238 C   0  0  0  0  0  0  0  0  0  0  0  0
    9.4507  -14.0666   29.8717 N   0  0  0  0  0  0  0  0  0  0  0  0
   13.4284  -17.0992   25.5240 C   0  0  0  0  0  0  0  0  0  0  0  0
   13.0659  -18.4371   25.2996 O   0  0  0  0  0  0  0  0  0  0  0  0
   14.4497  -16.9138   26.2201 O   0  0  0  0  0  0  0  0  0  0  0  0
  1  2  1  0
  3  4  2  0
  3  2  1  0
  5  6  1  0
  7  6  1  1
  7  8  1  0
  8  3  1  0
  9 11  1  0
  9  7  1  0
 10  9  2  0
 12 11  1  0
 12 13  1  1
 13 14  1  0
 14 15  1  0
 15 16  1  0
 16 17  1  0
 18 12  1  0
 19 18  1  0
 20 18  2  0
M  END
$$$$
