GSK.pdb
     RDKit          3D

 20 19  0  0  1  0  0  0  0  0999 V2000
    8.5726  -12.1849   18.3768 N   0  0  0  0  0  0  0  0  0  0  0  0
    8.6040  -13.6154   18.6020 C   0  0  0  0  0  0  0  0  0  0  0  0
    8.1559  -13.9004   19.9710 C   0  0  0  0  0  0  0  0  0  0  0  0
    8.0705  -12.9754   20.7986 O   0  0  0  0  0  0  0  0  0  0  0  0
    6.9811  -17.7022   21.3766 O   0  0  0  0  0  0  0  0  0  0  0  0
    6.3752  -16.5547   21.8670 C   0  0  0  0  0  0  0  0  0  0  0  0
    7.3847  -15.3994   21.8024 C   0  0  2  0  0  0  0  0  0  0  0  0
    7.8020  -15.2014   20.4296 N   0  0  0  0  0  0  0  0  0  0  0  0
    8.5390  -15.6700   22.6950 C   0  0  0  0  0  0  0  0  0  0  0  0
    9.6109  -16.1678   22.2812 O   0  0  0  0  0  0  0  0  0  0  0  0
    8.4587  -15.3647   24.0774 N   0  0  0  0  0  0  0  0  0  0  0  0
    9.5900  -15.5954   24.9780 C   0  0  1  0  0  0  0  0  0  0  0  0
    9.2008  -15.0690   26.3180 C   0  0  0  0  0  0  0  0  0  0  0  0
   10.2313  -15.3140   27.3907 C   0  0  0  0  0  0  0  0  0  0  0  0
    9.6664  -14.6891   28.6613 C   0  0  0  0  0  0  0  0  0  0  0  0
   10.6420  -14.8089   29.8095 C   0  0  0  0  0  0  0  0  0  0  0  0
   10.0047  -14.2776   30.9885 N   0  0  0  0  0  0  0  0  0  0  0  0
   10.0322  -16.9864   24.9439 C   0  0  0  0  0  0  0  0  0  0  0  0
    9.1016  -18.0259   24.7859 O   0  0  0  0  0  0  0  0  0  0  0  0
   11.2294  -17.3292   25.0497 O   0  0  0  0  0  0  0  0  0  0  0  0
  1  2  1  0
  3  4  2  0
  3  2  1  0
  5  6  1  0
  7  6  1  6
  7  8  1  0
  8  3  1  0
  9 11  1  0
  9  7  1  0
 10  9  2  0
 12 11  1  0
 12 13  1  1
 13 14  1  0
 14 15  1  0
 15 16  1  0
 16 17  1  0
 18 12  1  0
 19 18  1  0
 20 18  2  0
M  END
$$$$
