GSK.pdb
     RDKit          3D

 20 19  0  0  1  0  0  0  0  0999 V2000
    2.9566  -19.5407   22.1831 N   0  0  0  0  0  0  0  0  0  0  0  0
    3.2180  -18.1173   22.1217 C   0  0  0  0  0  0  0  0  0  0  0  0
    4.6683  -17.8925   22.0737 C   0  0  0  0  0  0  0  0  0  0  0  0
    5.4477  -18.8460   22.2508 O   0  0  0  0  0  0  0  0  0  0  0  0
    6.5335  -14.2282   21.0381 O   0  0  0  0  0  0  0  0  0  0  0  0
    7.0408  -15.4572   20.6427 C   0  0  0  0  0  0  0  0  0  0  0  0
    6.6999  -16.4990   21.7180 C   0  0  2  0  0  0  0  0  0  0  0  0
    5.2610  -16.6206   21.8312 N   0  0  0  0  0  0  0  0  0  0  0  0
    7.3246  -16.1302   23.0126 C   0  0  0  0  0  0  0  0  0  0  0  0
    6.8154  -15.2955   23.7950 O   0  0  0  0  0  0  0  0  0  0  0  0
    8.5474  -16.7279   23.4107 N   0  0  0  0  0  0  0  0  0  0  0  0
    9.2402  -16.3109   24.6314 C   0  0  1  0  0  0  0  0  0  0  0  0
    9.3717  -17.5180   25.4974 C   0  0  0  0  0  0  0  0  0  0  0  0
    8.0514  -18.0994   25.9351 C   0  0  0  0  0  0  0  0  0  0  0  0
    8.3948  -19.2821   26.8335 C   0  0  0  0  0  0  0  0  0  0  0  0
    7.1449  -19.9702   27.3324 C   0  0  0  0  0  0  0  0  0  0  0  0
    7.5506  -21.0767   28.1627 N   0  0  0  0  0  0  0  0  0  0  0  0
   10.4815  -15.6028   24.3326 C   0  0  0  0  0  0  0  0  0  0  0  0
   10.9541  -15.5197   23.0130 O   0  0  0  0  0  0  0  0  0  0  0  0
   11.1801  -15.0434   25.2049 O   0  0  0  0  0  0  0  0  0  0  0  0
  1  2  1  0
  3  4  2  0
  3  2  1  0
  5  6  1  0
  7  6  1  6
  7  8  1  0
  8  3  1  0
  9 11  1  0
  9  7  1  0
 10  9  2  0
 12 11  1  0
 12 13  1  1
 13 14  1  0
 14 15  1  0
 15 16  1  0
 16 17  1  0
 18 12  1  0
 19 18  1  0
 20 18  2  0
M  END
$$$$
