GSK.pdb
     RDKit          3D

 20 19  0  0  1  0  0  0  0  0999 V2000
    9.6980  -18.4527   19.0303 N   0  0  0  0  0  0  0  0  0  0  0  0
    8.3405  -18.9147   19.2350 C   0  0  0  0  0  0  0  0  0  0  0  0
    7.7812  -18.2630   20.4260 C   0  0  0  0  0  0  0  0  0  0  0  0
    7.3263  -17.1080   20.3424 O   0  0  0  0  0  0  0  0  0  0  0  0
    6.7035  -18.7485   25.0915 O   0  0  0  0  0  0  0  0  0  0  0  0
    6.4760  -19.1506   23.7835 C   0  0  0  0  0  0  0  0  0  0  0  0
    7.1699  -18.1605   22.8368 C   0  0  2  0  0  0  0  0  0  0  0  0
    7.7220  -18.8807   21.7078 N   0  0  0  0  0  0  0  0  0  0  0  0
    8.2120  -17.3934   23.5632 C   0  0  0  0  0  0  0  0  0  0  0  0
    9.3437  -17.8650   23.8179 O   0  0  0  0  0  0  0  0  0  0  0  0
    7.9490  -16.0704   24.0008 N   0  0  0  0  0  0  0  0  0  0  0  0
    8.8982  -15.3417   24.8448 C   0  0  1  0  0  0  0  0  0  0  0  0
    8.4126  -13.9347   24.9402 C   0  0  0  0  0  0  0  0  0  0  0  0
    7.3320  -13.7328   25.9719 C   0  0  0  0  0  0  0  0  0  0  0  0
    6.9701  -12.2532   25.9115 C   0  0  0  0  0  0  0  0  0  0  0  0
    5.8996  -11.9110   26.9222 C   0  0  0  0  0  0  0  0  0  0  0  0
    5.7107  -10.4818   26.8995 N   0  0  0  0  0  0  0  0  0  0  0  0
    9.1259  -16.0246   26.1149 C   0  0  0  0  0  0  0  0  0  0  0  0
   10.3407  -15.8659   26.8010 O   0  0  0  0  0  0  0  0  0  0  0  0
    8.2807  -16.7702   26.6549 O   0  0  0  0  0  0  0  0  0  0  0  0
  1  2  1  0
  3  4  2  0
  3  2  1  0
  5  6  1  0
  7  6  1  1
  7  8  1  0
  8  3  1  0
  9 11  1  0
  9  7  1  0
 10  9  2  0
 12 11  1  0
 12 13  1  1
 13 14  1  0
 14 15  1  0
 15 16  1  0
 16 17  1  0
 18 12  1  0
 19 18  1  0
 20 18  2  0
M  END
$$$$
