GSK.pdb
     RDKit          3D

 20 19  0  0  1  0  0  0  0  0999 V2000
    7.7165  -12.8206   17.8614 N   0  0  0  0  0  0  0  0  0  0  0  0
    8.8886  -13.4240   18.4617 C   0  0  0  0  0  0  0  0  0  0  0  0
    8.4709  -14.3123   19.5538 C   0  0  0  0  0  0  0  0  0  0  0  0
    7.5338  -13.9761   20.3000 O   0  0  0  0  0  0  0  0  0  0  0  0
   10.4498  -17.8776   20.6955 O   0  0  0  0  0  0  0  0  0  0  0  0
    9.0637  -17.8321   20.7263 C   0  0  0  0  0  0  0  0  0  0  0  0
    8.6239  -16.3760   20.9371 C   0  0  2  0  0  0  0  0  0  0  0  0
    9.0831  -15.5690   19.8253 N   0  0  0  0  0  0  0  0  0  0  0  0
    9.1309  -15.8648   22.2347 C   0  0  0  0  0  0  0  0  0  0  0  0
   10.2548  -15.3260   22.3560 O   0  0  0  0  0  0  0  0  0  0  0  0
    8.3365  -15.9747   23.4042 N   0  0  0  0  0  0  0  0  0  0  0  0
    8.7606  -15.3828   24.6746 C   0  0  1  0  0  0  0  0  0  0  0  0
    7.5397  -14.8389   25.3364 C   0  0  0  0  0  0  0  0  0  0  0  0
    7.6328  -13.3724   25.6737 C   0  0  0  0  0  0  0  0  0  0  0  0
    6.3119  -13.0152   26.3456 C   0  0  0  0  0  0  0  0  0  0  0  0
    6.2648  -11.5500   26.7135 C   0  0  0  0  0  0  0  0  0  0  0  0
    5.0044  -11.2983   27.3667 N   0  0  0  0  0  0  0  0  0  0  0  0
    9.5525  -16.3179   25.4683 C   0  0  0  0  0  0  0  0  0  0  0  0
   10.5073  -15.8452   26.3829 O   0  0  0  0  0  0  0  0  0  0  0  0
    9.4344  -17.5595   25.3864 O   0  0  0  0  0  0  0  0  0  0  0  0
  1  2  1  0
  3  4  2  0
  3  2  1  0
  5  6  1  0
  7  6  1  6
  7  8  1  0
  8  3  1  0
  9 11  1  0
  9  7  1  0
 10  9  2  0
 12 11  1  0
 12 13  1  1
 13 14  1  0
 14 15  1  0
 15 16  1  0
 16 17  1  0
 18 12  1  0
 19 18  1  0
 20 18  2  0
M  END
$$$$
