GSK.pdb
     RDKit          3D

 20 19  0  0  1  0  0  0  0  0999 V2000
    4.5779  -22.3513   24.6664 N   0  0  0  0  0  0  0  0  0  0  0  0
    5.8332  -21.8716   24.1258 C   0  0  0  0  0  0  0  0  0  0  0  0
    5.8365  -20.4033   24.1379 C   0  0  0  0  0  0  0  0  0  0  0  0
    4.9853  -19.7778   23.4806 O   0  0  0  0  0  0  0  0  0  0  0  0
    8.4501  -18.0827   26.4261 O   0  0  0  0  0  0  0  0  0  0  0  0
    7.2364  -17.5347   26.0375 C   0  0  0  0  0  0  0  0  0  0  0  0
    6.8048  -18.1838   24.7145 C   0  0  2  0  0  0  0  0  0  0  0  0
    6.7750  -19.6234   24.8722 N   0  0  0  0  0  0  0  0  0  0  0  0
    7.7107  -17.7692   23.6147 C   0  0  0  0  0  0  0  0  0  0  0  0
    8.6597  -18.4823   23.2159 O   0  0  0  0  0  0  0  0  0  0  0  0
    7.5225  -16.5216   22.9674 N   0  0  0  0  0  0  0  0  0  0  0  0
    8.4472  -16.0490   21.9351 C   0  0  1  0  0  0  0  0  0  0  0  0
    7.7594  -14.9505   21.1972 C   0  0  0  0  0  0  0  0  0  0  0  0
    8.6026  -14.3225   20.1167 C   0  0  0  0  0  0  0  0  0  0  0  0
    7.6348  -13.5427   19.2339 C   0  0  0  0  0  0  0  0  0  0  0  0
    8.3534  -12.9023   18.0685 C   0  0  0  0  0  0  0  0  0  0  0  0
    7.4074  -12.0682   17.3700 N   0  0  0  0  0  0  0  0  0  0  0  0
    9.7560  -15.7202   22.4924 C   0  0  0  0  0  0  0  0  0  0  0  0
    9.8998  -15.4538   23.8635 O   0  0  0  0  0  0  0  0  0  0  0  0
   10.7984  -15.6569   21.8058 O   0  0  0  0  0  0  0  0  0  0  0  0
  1  2  1  0
  3  4  2  0
  3  2  1  0
  5  6  1  0
  7  6  1  1
  7  8  1  0
  8  3  1  0
  9 11  1  0
  9  7  1  0
 10  9  2  0
 12 11  1  0
 12 13  1  1
 13 14  1  0
 14 15  1  0
 15 16  1  0
 16 17  1  0
 18 12  1  0
 19 18  1  0
 20 18  2  0
M  END
$$$$
