HRW.pdb
     RDKit          3D

 36 38  0  0  1  0  0  0  0  0999 V2000
   24.0702  -16.7470  -20.5292 N   0  0  0  0  0  0  0  0  0  0  0  0
   23.9472  -16.5772  -19.1147 C   0  0  1  0  0  0  0  0  0  0  0  0
   22.9553  -15.5196  -18.7333 C   0  0  0  0  0  0  0  0  0  0  0  0
   23.4690  -14.2198  -19.2633 C   0  0  0  0  0  0  0  0  0  0  0  0
   24.3853  -13.3714  -18.6924 C   0  0  0  0  0  0  0  0  0  0  0  0
   24.5723  -12.2958  -19.5162 N   0  0  0  0  0  0  0  0  0  0  0  0
   23.7796  -12.4898  -20.5767 C   0  0  0  0  0  0  0  0  0  0  0  0
   23.1008  -13.6651  -20.4308 N   0  0  0  0  0  0  0  0  0  0  0  0
   23.8375  -17.8504  -18.4039 C   0  0  0  0  0  0  0  0  0  0  0  0
   22.9354  -18.6549  -18.6937 O   0  0  0  0  0  0  0  0  0  0  0  0
   29.7312  -23.7247  -16.5085 N   0  0  0  0  0  0  0  0  0  0  0  0
   29.0075  -22.8264  -17.3278 C   0  0  0  0  0  0  0  0  0  0  0  0
   29.1386  -22.8852  -18.6178 N   0  0  0  0  0  0  0  0  0  0  0  0
   28.1503  -21.8671  -16.7749 N   0  0  0  0  0  0  0  0  0  0  0  0
   27.0463  -22.1570  -15.9104 C   0  0  0  0  0  0  0  0  0  0  0  0
   25.7664  -21.4898  -16.3579 C   0  0  0  0  0  0  0  0  0  0  0  0
   25.8104  -19.9862  -16.1834 C   0  0  0  0  0  0  0  0  0  0  0  0
   24.5052  -19.3536  -16.5650 C   0  0  2  0  0  0  0  0  0  0  0  0
   24.7433  -18.2131  -17.3708 N   0  0  0  0  0  0  0  0  0  0  0  0
   23.5886  -19.1438  -15.4160 C   0  0  0  0  0  0  0  0  0  0  0  0
   23.9767  -18.4179  -14.4748 O   0  0  0  0  0  0  0  0  0  0  0  0
   28.6448  -22.1876  -19.2258 N   0  0  0  0  0  0  0  0  0  0  0  0
   22.3067  -19.7377  -15.3676 C   0  0  2  0  0  0  0  0  0  0  0  0
   21.3562  -19.5066  -14.3021 C   0  0  0  0  0  0  0  0  0  0  0  0
   20.3728  -18.4388  -14.7040 C   0  0  0  0  0  0  0  0  0  0  0  0
   19.5500  -18.8600  -15.8489 C   0  0  0  0  0  0  0  0  0  0  0  0
   18.6672  -19.8863  -15.9082 N   0  0  0  0  0  0  0  0  0  0  0  0
   18.1236  -19.9237  -17.1360 C   0  0  0  0  0  0  0  0  0  0  0  0
   18.6721  -18.9118  -17.8534 C   0  0  0  0  0  0  0  0  0  0  0  0
   18.4840  -18.4829  -19.1622 C   0  0  0  0  0  0  0  0  0  0  0  0
   19.1782  -17.3990  -19.6656 C   0  0  0  0  0  0  0  0  0  0  0  0
   20.0850  -16.7090  -18.8769 C   0  0  0  0  0  0  0  0  0  0  0  0
   20.2553  -17.1586  -17.5743 C   0  0  0  0  0  0  0  0  0  0  0  0
   19.5651  -18.2294  -17.0817 C   0  0  0  0  0  0  0  0  0  0  0  0
   20.6569  -20.7804  -13.9299 O   0  0  0  0  0  0  0  0  0  0  0  0
   19.8354  -20.8489  -12.8206 O   0  0  0  0  0  0  0  0  0  0  0  0
  2  3  1  0
  2  1  1  6
  4  3  1  0
  5  4  2  0
  6  7  1  0
  6  5  1  0
  7  8  2  0
  8  4  1  0
  9 10  2  0
  9  2  1  0
 11 12  1  0
 12 13  2  0
 14 15  1  0
 14 12  1  0
 16 15  1  0
 16 17  1  0
 18 17  1  1
 18 20  1  0
 18 19  1  0
 19  9  1  0
 20 21  2  0
 22 20  1  0
 22 23  1  0
 23 24  1  1
 24 25  1  0
 25 33  1  0
 26 25  2  0
 26 27  1  0
 27 28  1  0
 28 29  1  0
 29 30  2  0
 31 30  1  0
 32 31  2  0
 33 28  2  0
 33 32  1  0
 34 35  1  0
 34 23  1  0
 36 34  2  0
M  END
$$$$
