HRW.pdb
     RDKit          3D

 36 38  0  0  1  0  0  0  0  0999 V2000
   26.5718  -17.0449  -17.0847 N   0  0  0  0  0  0  0  0  0  0  0  0
   27.0259  -18.0723  -16.1998 C   0  0  1  0  0  0  0  0  0  0  0  0
   28.4419  -17.8760  -15.7480 C   0  0  0  0  0  0  0  0  0  0  0  0
   29.2921  -17.8067  -16.9754 C   0  0  0  0  0  0  0  0  0  0  0  0
   29.9452  -16.7173  -17.4969 C   0  0  0  0  0  0  0  0  0  0  0  0
   30.6128  -17.0960  -18.6288 N   0  0  0  0  0  0  0  0  0  0  0  0
   30.3693  -18.4016  -18.7920 C   0  0  0  0  0  0  0  0  0  0  0  0
   29.5620  -18.8452  -17.7845 N   0  0  0  0  0  0  0  0  0  0  0  0
   26.0525  -18.3829  -15.1537 C   0  0  0  0  0  0  0  0  0  0  0  0
   25.8532  -17.5817  -14.2245 O   0  0  0  0  0  0  0  0  0  0  0  0
   19.7174  -19.8086  -15.9174 N   0  0  0  0  0  0  0  0  0  0  0  0
   19.3442  -20.7302  -14.9107 C   0  0  0  0  0  0  0  0  0  0  0  0
   18.4518  -21.6368  -15.1683 N   0  0  0  0  0  0  0  0  0  0  0  0
   19.9169  -20.6839  -13.6338 N   0  0  0  0  0  0  0  0  0  0  0  0
   21.1903  -20.1049  -13.3283 C   0  0  0  0  0  0  0  0  0  0  0  0
   22.3277  -21.0880  -13.4801 C   0  0  0  0  0  0  0  0  0  0  0  0
   23.2721  -20.7063  -14.6007 C   0  0  0  0  0  0  0  0  0  0  0  0
   24.4356  -19.9112  -14.0875 C   0  0  2  0  0  0  0  0  0  0  0  0
   25.3073  -19.5928  -15.1578 N   0  0  0  0  0  0  0  0  0  0  0  0
   25.0830  -20.5097  -12.8928 C   0  0  0  0  0  0  0  0  0  0  0  0
   25.7028  -21.5865  -13.0332 O   0  0  0  0  0  0  0  0  0  0  0  0
   18.2191  -22.3613  -14.4464 N   0  0  0  0  0  0  0  0  0  0  0  0
   25.0145  -19.8946  -11.6219 C   0  0  2  0  0  0  0  0  0  0  0  0
   25.5339  -20.4944  -10.4125 C   0  0  0  0  0  0  0  0  0  0  0  0
   26.3988  -19.5082   -9.6721 C   0  0  0  0  0  0  0  0  0  0  0  0
   27.5865  -20.1546   -9.0917 C   0  0  0  0  0  0  0  0  0  0  0  0
   28.3802  -21.0982   -9.6536 N   0  0  0  0  0  0  0  0  0  0  0  0
   29.3590  -21.4155   -8.7901 C   0  0  0  0  0  0  0  0  0  0  0  0
   29.1760  -20.6644   -7.6757 C   0  0  0  0  0  0  0  0  0  0  0  0
   29.8783  -20.5778   -6.4792 C   0  0  0  0  0  0  0  0  0  0  0  0
   29.4805  -19.7117   -5.4784 C   0  0  0  0  0  0  0  0  0  0  0  0
   28.3659  -18.9044   -5.6405 C   0  0  0  0  0  0  0  0  0  0  0  0
   27.6815  -19.0113   -6.8438 C   0  0  0  0  0  0  0  0  0  0  0  0
   28.0803  -19.8679   -7.8301 C   0  0  0  0  0  0  0  0  0  0  0  0
   24.4161  -20.9968   -9.5475 O   0  0  0  0  0  0  0  0  0  0  0  0
   24.6286  -21.9838   -8.6037 O   0  0  0  0  0  0  0  0  0  0  0  0
  2  3  1  0
  2  1  1  1
  4  3  1  0
  5  4  2  0
  6  7  1  0
  6  5  1  0
  7  8  2  0
  8  4  1  0
  9 10  2  0
  9  2  1  0
 11 12  1  0
 12 13  2  0
 14 15  1  0
 14 12  1  0
 16 15  1  0
 16 17  1  0
 18 17  1  6
 18 20  1  0
 18 19  1  0
 19  9  1  0
 20 21  2  0
 22 20  1  0
 22 23  1  0
 23 24  1  1
 24 25  1  0
 25 33  1  0
 26 25  2  0
 26 27  1  0
 27 28  1  0
 28 29  1  0
 29 30  2  0
 31 30  1  0
 32 31  2  0
 33 28  2  0
 33 32  1  0
 34 35  1  0
 34 23  1  0
 36 34  2  0
M  END
$$$$
