HRW.pdb
     RDKit          3D

 36 38  0  0  1  0  0  0  0  0999 V2000
   25.1601  -16.4185  -19.2287 N   0  0  0  0  0  0  0  0  0  0  0  0
   25.6514  -17.0466  -18.0418 C   0  0  1  0  0  0  0  0  0  0  0  0
   26.0717  -16.0662  -16.9882 C   0  0  0  0  0  0  0  0  0  0  0  0
   27.1788  -15.2443  -17.5655 C   0  0  0  0  0  0  0  0  0  0  0  0
   27.1739  -13.9055  -17.8701 C   0  0  0  0  0  0  0  0  0  0  0  0
   28.3965  -13.5576  -18.3748 N   0  0  0  0  0  0  0  0  0  0  0  0
   29.1363  -14.6725  -18.3748 C   0  0  0  0  0  0  0  0  0  0  0  0
   28.3994  -15.7100  -17.8808 N   0  0  0  0  0  0  0  0  0  0  0  0
   24.7986  -18.1472  -17.5949 C   0  0  0  0  0  0  0  0  0  0  0  0
   23.5627  -18.0655  -17.7000 O   0  0  0  0  0  0  0  0  0  0  0  0
   25.9457  -26.8271  -15.2540 N   0  0  0  0  0  0  0  0  0  0  0  0
   24.5763  -26.4712  -15.2489 C   0  0  0  0  0  0  0  0  0  0  0  0
   23.6814  -27.3640  -14.9540 N   0  0  0  0  0  0  0  0  0  0  0  0
   24.1617  -25.1704  -15.5600 N   0  0  0  0  0  0  0  0  0  0  0  0
   25.0414  -24.0696  -15.8139 C   0  0  0  0  0  0  0  0  0  0  0  0
   24.3007  -22.7685  -16.0187 C   0  0  0  0  0  0  0  0  0  0  0  0
   25.2242  -21.6388  -16.4241 C   0  0  0  0  0  0  0  0  0  0  0  0
   24.4920  -20.3316  -16.4897 C   0  0  2  0  0  0  0  0  0  0  0  0
   25.3396  -19.3347  -17.0325 N   0  0  0  0  0  0  0  0  0  0  0  0
   23.8096  -19.9689  -15.2219 C   0  0  0  0  0  0  0  0  0  0  0  0
   24.5075  -19.5439  -14.2754 O   0  0  0  0  0  0  0  0  0  0  0  0
   22.6630  -27.1417  -15.0707 N   0  0  0  0  0  0  0  0  0  0  0  0
   22.4098  -20.0913  -15.0679 C   0  0  2  0  0  0  0  0  0  0  0  0
   21.7026  -19.7344  -13.8578 C   0  0  0  0  0  0  0  0  0  0  0  0
   21.3958  -18.2597  -13.8496 C   0  0  0  0  0  0  0  0  0  0  0  0
   20.4755  -17.8893  -14.9364 C   0  0  0  0  0  0  0  0  0  0  0  0
   19.1692  -18.2222  -15.0721 N   0  0  0  0  0  0  0  0  0  0  0  0
   18.6949  -17.6755  -16.2038 C   0  0  0  0  0  0  0  0  0  0  0  0
   19.7146  -16.9946  -16.7835 C   0  0  0  0  0  0  0  0  0  0  0  0
   19.7961  -16.2471  -17.9527 C   0  0  0  0  0  0  0  0  0  0  0  0
   20.9773  -15.6364  -18.3294 C   0  0  0  0  0  0  0  0  0  0  0  0
   22.1169  -15.7544  -17.5498 C   0  0  0  0  0  0  0  0  0  0  0  0
   22.0091  -16.5074  -16.3883 C   0  0  0  0  0  0  0  0  0  0  0  0
   20.8386  -17.1073  -16.0201 C   0  0  0  0  0  0  0  0  0  0  0  0
   20.4536  -20.5523  -13.7127 O   0  0  0  0  0  0  0  0  0  0  0  0
   20.0702  -21.4536  -14.6880 O   0  0  0  0  0  0  0  0  0  0  0  0
  2  3  1  0
  2  1  1  6
  4  3  1  0
  5  4  2  0
  6  7  1  0
  6  5  1  0
  7  8  2  0
  8  4  1  0
  9 10  2  0
  9  2  1  0
 11 12  1  0
 12 13  2  0
 14 15  1  0
 14 12  1  0
 16 15  1  0
 16 17  1  0
 18 17  1  1
 18 20  1  0
 18 19  1  0
 19  9  1  0
 20 21  2  0
 22 20  1  0
 22 23  1  0
 23 24  1  6
 24 25  1  0
 25 33  1  0
 26 25  2  0
 26 27  1  0
 27 28  1  0
 28 29  1  0
 29 30  2  0
 31 30  1  0
 32 31  2  0
 33 28  2  0
 33 32  1  0
 34 35  1  0
 34 23  1  0
 36 34  2  0
M  END
$$$$
