HRW.pdb
     RDKit          3D

 36 38  0  0  1  0  0  0  0  0999 V2000
   28.5183  -20.8081  -16.8650 N   0  0  0  0  0  0  0  0  0  0  0  0
   28.1305  -21.6062  -15.7435 C   0  0  1  0  0  0  0  0  0  0  0  0
   29.2676  -22.3869  -15.1559 C   0  0  0  0  0  0  0  0  0  0  0  0
   29.8411  -23.2258  -16.2520 C   0  0  0  0  0  0  0  0  0  0  0  0
   29.4005  -23.3506  -17.5464 C   0  0  0  0  0  0  0  0  0  0  0  0
   30.2183  -24.2192  -18.2151 N   0  0  0  0  0  0  0  0  0  0  0  0
   31.1466  -24.6161  -17.3369 C   0  0  0  0  0  0  0  0  0  0  0  0
   30.9239  -24.0130  -16.1327 N   0  0  0  0  0  0  0  0  0  0  0  0
   27.2939  -20.8724  -14.7949 C   0  0  0  0  0  0  0  0  0  0  0  0
   27.7093  -19.8236  -14.2730 O   0  0  0  0  0  0  0  0  0  0  0  0
   20.0566  -20.7852  -10.3465 N   0  0  0  0  0  0  0  0  0  0  0  0
   19.7308  -20.0628  -11.5186 C   0  0  0  0  0  0  0  0  0  0  0  0
   18.7337  -19.2319  -11.5050 N   0  0  0  0  0  0  0  0  0  0  0  0
   20.4620  -20.2274  -12.7014 N   0  0  0  0  0  0  0  0  0  0  0  0
   21.6334  -21.0402  -12.8332 C   0  0  0  0  0  0  0  0  0  0  0  0
   22.9113  -20.2449  -12.6997 C   0  0  0  0  0  0  0  0  0  0  0  0
   23.8439  -20.4538  -13.8743 C   0  0  0  0  0  0  0  0  0  0  0  0
   25.2562  -20.6705  -13.4186 C   0  0  2  0  0  0  0  0  0  0  0  0
   25.9937  -21.3214  -14.4381 N   0  0  0  0  0  0  0  0  0  0  0  0
   25.3576  -21.2799  -12.0685 C   0  0  0  0  0  0  0  0  0  0  0  0
   24.9384  -22.4478  -11.9139 O   0  0  0  0  0  0  0  0  0  0  0  0
   18.4447  -18.7475  -12.3893 N   0  0  0  0  0  0  0  0  0  0  0  0
   25.9112  -20.5775  -10.9738 C   0  0  2  0  0  0  0  0  0  0  0  0
   25.8749  -21.0603   -9.6109 C   0  0  0  0  0  0  0  0  0  0  0  0
   27.2058  -20.8344   -8.9428 C   0  0  0  0  0  0  0  0  0  0  0  0
   27.0779  -20.7857   -7.4776 C   0  0  0  0  0  0  0  0  0  0  0  0
   26.1222  -21.3564   -6.7050 N   0  0  0  0  0  0  0  0  0  0  0  0
   26.3767  -21.0741   -5.4166 C   0  0  0  0  0  0  0  0  0  0  0  0
   27.5021  -20.3179   -5.3818 C   0  0  0  0  0  0  0  0  0  0  0  0
   28.2164  -19.7499   -4.3332 C   0  0  0  0  0  0  0  0  0  0  0  0
   29.3594  -19.0087   -4.5662 C   0  0  0  0  0  0  0  0  0  0  0  0
   29.8251  -18.8097   -5.8560 C   0  0  0  0  0  0  0  0  0  0  0  0
   29.0928  -19.3862   -6.8851 C   0  0  0  0  0  0  0  0  0  0  0  0
   27.9647  -20.1192   -6.6488 C   0  0  0  0  0  0  0  0  0  0  0  0
   24.7624  -20.4065   -8.8462 O   0  0  0  0  0  0  0  0  0  0  0  0
   24.1695  -21.0340   -7.7668 O   0  0  0  0  0  0  0  0  0  0  0  0
  2  3  1  0
  2  1  1  6
  4  3  1  0
  5  4  2  0
  6  7  1  0
  6  5  1  0
  7  8  2  0
  8  4  1  0
  9 10  2  0
  9  2  1  0
 11 12  1  0
 12 13  2  0
 14 15  1  0
 14 12  1  0
 16 15  1  0
 16 17  1  0
 18 17  1  6
 18 20  1  0
 18 19  1  0
 19  9  1  0
 20 21  2  0
 22 20  1  0
 22 23  1  0
 23 24  1  6
 24 25  1  0
 25 33  1  0
 26 25  2  0
 26 27  1  0
 27 28  1  0
 28 29  1  0
 29 30  2  0
 31 30  1  0
 32 31  2  0
 33 28  2  0
 33 32  1  0
 34 35  1  0
 34 23  1  0
 36 34  2  0
M  END
$$$$
