HRW.pdb
     RDKit          3D

 36 38  0  0  1  0  0  0  0  0999 V2000
   22.8971  -19.4157  -17.9151 N   0  0  0  0  0  0  0  0  0  0  0  0
   23.8650  -18.7947  -17.0652 C   0  0  1  0  0  0  0  0  0  0  0  0
   23.2808  -17.7258  -16.1912 C   0  0  0  0  0  0  0  0  0  0  0  0
   22.6880  -16.6919  -17.0934 C   0  0  0  0  0  0  0  0  0  0  0  0
   22.6093  -16.7039  -18.4641 C   0  0  0  0  0  0  0  0  0  0  0  0
   21.9853  -15.5624  -18.8860 N   0  0  0  0  0  0  0  0  0  0  0  0
   21.6866  -14.8656  -17.7833 C   0  0  0  0  0  0  0  0  0  0  0  0
   22.1127  -15.5494  -16.6813 N   0  0  0  0  0  0  0  0  0  0  0  0
   24.7352  -19.7653  -16.4026 C   0  0  0  0  0  0  0  0  0  0  0  0
   24.2479  -20.7478  -15.8176 O   0  0  0  0  0  0  0  0  0  0  0  0
   30.0593  -24.8527  -16.8388 N   0  0  0  0  0  0  0  0  0  0  0  0
   29.7137  -24.3894  -18.1302 C   0  0  0  0  0  0  0  0  0  0  0  0
   29.2911  -25.2313  -19.0231 N   0  0  0  0  0  0  0  0  0  0  0  0
   29.8212  -23.0353  -18.4701 N   0  0  0  0  0  0  0  0  0  0  0  0
   29.7816  -21.9511  -17.5357 C   0  0  0  0  0  0  0  0  0  0  0  0
   28.4329  -21.8064  -16.8697 C   0  0  0  0  0  0  0  0  0  0  0  0
   28.3281  -20.5349  -16.0537 C   0  0  0  0  0  0  0  0  0  0  0  0
   26.9492  -20.3596  -15.4904 C   0  0  2  0  0  0  0  0  0  0  0  0
   26.1495  -19.6267  -16.4016 N   0  0  0  0  0  0  0  0  0  0  0  0
   26.9381  -19.8657  -14.0903 C   0  0  0  0  0  0  0  0  0  0  0  0
   26.9774  -18.6307  -13.8985 O   0  0  0  0  0  0  0  0  0  0  0  0
   29.1406  -24.9137  -20.0114 N   0  0  0  0  0  0  0  0  0  0  0  0
   26.8832  -20.7501  -12.9889 C   0  0  2  0  0  0  0  0  0  0  0  0
   27.0245  -20.3264  -11.6132 C   0  0  0  0  0  0  0  0  0  0  0  0
   26.0162  -19.2544  -11.2923 C   0  0  0  0  0  0  0  0  0  0  0  0
   24.6611  -19.8086  -11.1449 C   0  0  0  0  0  0  0  0  0  0  0  0
   24.1318  -20.4416  -10.0701 N   0  0  0  0  0  0  0  0  0  0  0  0
   22.8628  -20.7842  -10.3469 C   0  0  0  0  0  0  0  0  0  0  0  0
   22.5947  -20.3629  -11.6079 C   0  0  0  0  0  0  0  0  0  0  0  0
   21.4558  -20.4458  -12.4005 C   0  0  0  0  0  0  0  0  0  0  0  0
   21.4364  -19.9241  -13.6802 C   0  0  0  0  0  0  0  0  0  0  0  0
   22.5563  -19.3034  -14.2102 C   0  0  0  0  0  0  0  0  0  0  0  0
   23.6808  -19.2352  -13.3987 C   0  0  0  0  0  0  0  0  0  0  0  0
   23.6936  -19.7511  -12.1341 C   0  0  0  0  0  0  0  0  0  0  0  0
   26.8933  -21.4952  -10.6823 O   0  0  0  0  0  0  0  0  0  0  0  0
   26.5293  -22.7446  -11.1479 O   0  0  0  0  0  0  0  0  0  0  0  0
  2  3  1  0
  2  1  1  1
  4  3  1  0
  5  4  2  0
  6  7  1  0
  6  5  1  0
  7  8  2  0
  8  4  1  0
  9 10  2  0
  9  2  1  0
 11 12  1  0
 12 13  2  0
 14 15  1  0
 14 12  1  0
 16 15  1  0
 16 17  1  0
 18 17  1  6
 18 20  1  0
 18 19  1  0
 19  9  1  0
 20 21  2  0
 22 20  1  0
 22 23  1  0
 23 24  1  6
 24 25  1  0
 25 33  1  0
 26 25  2  0
 26 27  1  0
 27 28  1  0
 28 29  1  0
 29 30  2  0
 31 30  1  0
 32 31  2  0
 33 28  2  0
 33 32  1  0
 34 35  1  0
 34 23  1  0
 36 34  2  0
M  END
$$$$
