HRW.pdb
     RDKit          3D

 36 38  0  0  1  0  0  0  0  0999 V2000
   29.7705  -22.5616  -17.2629 N   0  0  0  0  0  0  0  0  0  0  0  0
   29.7945  -22.6396  -15.8352 C   0  0  1  0  0  0  0  0  0  0  0  0
   31.1830  -22.6982  -15.2726 C   0  0  0  0  0  0  0  0  0  0  0  0
   31.8586  -23.8827  -15.8848 C   0  0  0  0  0  0  0  0  0  0  0  0
   31.3621  -24.7540  -16.8226 C   0  0  0  0  0  0  0  0  0  0  0  0
   32.3147  -25.6926  -17.1091 N   0  0  0  0  0  0  0  0  0  0  0  0
   33.3787  -25.3935  -16.3548 C   0  0  0  0  0  0  0  0  0  0  0  0
   33.1088  -24.2869  -15.6024 N   0  0  0  0  0  0  0  0  0  0  0  0
   28.8834  -21.6849  -15.2055 C   0  0  0  0  0  0  0  0  0  0  0  0
   28.8223  -20.5127  -15.6145 O   0  0  0  0  0  0  0  0  0  0  0  0
   24.2408  -25.2770  -16.2590 N   0  0  0  0  0  0  0  0  0  0  0  0
   23.0108  -24.6469  -15.9561 C   0  0  0  0  0  0  0  0  0  0  0  0
   21.9785  -25.3692  -15.6438 N   0  0  0  0  0  0  0  0  0  0  0  0
   22.8800  -23.2531  -15.9889 N   0  0  0  0  0  0  0  0  0  0  0  0
   23.9680  -22.3318  -16.1207 C   0  0  0  0  0  0  0  0  0  0  0  0
   24.8429  -22.2851  -14.8895 C   0  0  0  0  0  0  0  0  0  0  0  0
   25.9746  -21.2881  -15.0257 C   0  0  0  0  0  0  0  0  0  0  0  0
   26.8727  -21.3138  -13.8248 C   0  0  2  0  0  0  0  0  0  0  0  0
   28.0447  -22.0531  -14.1190 N   0  0  0  0  0  0  0  0  0  0  0  0
   26.1757  -21.6940  -12.5702 C   0  0  0  0  0  0  0  0  0  0  0  0
   25.9025  -22.9005  -12.3878 O   0  0  0  0  0  0  0  0  0  0  0  0
   21.0963  -24.9061  -15.3160 N   0  0  0  0  0  0  0  0  0  0  0  0
   25.8226  -20.7345  -11.5940 C   0  0  1  0  0  0  0  0  0  0  0  0
   25.1994  -21.0674  -10.3319 C   0  0  0  0  0  0  0  0  0  0  0  0
   26.2327  -21.5673   -9.3566 C   0  0  0  0  0  0  0  0  0  0  0  0
   26.8057  -20.4701   -8.5609 C   0  0  0  0  0  0  0  0  0  0  0  0
   26.2585  -19.2594   -8.2950 N   0  0  0  0  0  0  0  0  0  0  0  0
   27.1077  -18.5559   -7.5278 C   0  0  0  0  0  0  0  0  0  0  0  0
   28.1981  -19.3329   -7.3121 C   0  0  0  0  0  0  0  0  0  0  0  0
   29.3723  -19.1214   -6.5987 C   0  0  0  0  0  0  0  0  0  0  0  0
   30.3507  -20.0950   -6.5282 C   0  0  0  0  0  0  0  0  0  0  0  0
   30.1878  -21.3121   -7.1703 C   0  0  0  0  0  0  0  0  0  0  0  0
   29.0072  -21.4973   -7.8771 C   0  0  0  0  0  0  0  0  0  0  0  0
   28.0429  -20.5321   -7.9419 C   0  0  0  0  0  0  0  0  0  0  0  0
   24.4546  -19.8876   -9.7809 O   0  0  0  0  0  0  0  0  0  0  0  0
   23.5661  -20.0277   -8.7315 O   0  0  0  0  0  0  0  0  0  0  0  0
  2  3  1  0
  2  1  1  6
  4  3  1  0
  5  4  2  0
  6  7  1  0
  6  5  1  0
  7  8  2  0
  8  4  1  0
  9 10  2  0
  9  2  1  0
 11 12  1  0
 12 13  2  0
 14 15  1  0
 14 12  1  0
 16 15  1  0
 16 17  1  0
 18 17  1  6
 18 20  1  0
 18 19  1  0
 19  9  1  0
 20 21  2  0
 22 20  1  0
 22 23  1  0
 23 24  1  1
 24 25  1  0
 25 33  1  0
 26 25  2  0
 26 27  1  0
 27 28  1  0
 28 29  1  0
 29 30  2  0
 31 30  1  0
 32 31  2  0
 33 28  2  0
 33 32  1  0
 34 35  1  0
 34 23  1  0
 36 34  2  0
M  END
$$$$
