HRW.pdb
     RDKit          3D

 36 38  0  0  1  0  0  0  0  0999 V2000
   27.2018  -20.7515  -15.9400 N   0  0  0  0  0  0  0  0  0  0  0  0
   27.7980  -19.8974  -14.9603 C   0  0  1  0  0  0  0  0  0  0  0  0
   28.4126  -18.6640  -15.5510 C   0  0  0  0  0  0  0  0  0  0  0  0
   28.2680  -18.7653  -17.0353 C   0  0  0  0  0  0  0  0  0  0  0  0
   27.2667  -18.2616  -17.8283 C   0  0  0  0  0  0  0  0  0  0  0  0
   27.5271  -18.5794  -19.1327 N   0  0  0  0  0  0  0  0  0  0  0  0
   28.6751  -19.2670  -19.1321 C   0  0  0  0  0  0  0  0  0  0  0  0
   29.1360  -19.3854  -17.8527 N   0  0  0  0  0  0  0  0  0  0  0  0
   26.9385  -19.6946  -13.7948 C   0  0  0  0  0  0  0  0  0  0  0  0
   27.2729  -18.8999  -12.8995 O   0  0  0  0  0  0  0  0  0  0  0  0
   21.8008  -19.0194  -16.7372 N   0  0  0  0  0  0  0  0  0  0  0  0
   21.4248  -20.3213  -16.3304 C   0  0  0  0  0  0  0  0  0  0  0  0
   21.2879  -21.2577  -17.2188 N   0  0  0  0  0  0  0  0  0  0  0  0
   21.1923  -20.6237  -14.9831 N   0  0  0  0  0  0  0  0  0  0  0  0
   21.4024  -19.7193  -13.8932 C   0  0  0  0  0  0  0  0  0  0  0  0
   22.8670  -19.4614  -13.6254 C   0  0  0  0  0  0  0  0  0  0  0  0
   23.4928  -20.5394  -12.7654 C   0  0  0  0  0  0  0  0  0  0  0  0
   24.9304  -20.2338  -12.4667 C   0  0  2  0  0  0  0  0  0  0  0  0
   25.7065  -20.3862  -13.6419 N   0  0  0  0  0  0  0  0  0  0  0  0
   25.4486  -20.9332  -11.2638 C   0  0  0  0  0  0  0  0  0  0  0  0
   25.5350  -22.1802  -11.2961 O   0  0  0  0  0  0  0  0  0  0  0  0
   21.0474  -22.2332  -16.9174 N   0  0  0  0  0  0  0  0  0  0  0  0
   25.8410  -20.2279  -10.1033 C   0  0  2  0  0  0  0  0  0  0  0  0
   26.2765  -20.8714   -8.8834 C   0  0  0  0  0  0  0  0  0  0  0  0
   27.4184  -20.1049   -8.2692 C   0  0  0  0  0  0  0  0  0  0  0  0
   27.7467  -20.6026   -6.9239 C   0  0  0  0  0  0  0  0  0  0  0  0
   27.8109  -21.8892   -6.5039 N   0  0  0  0  0  0  0  0  0  0  0  0
   28.1496  -21.9074   -5.2041 C   0  0  0  0  0  0  0  0  0  0  0  0
   28.2978  -20.6196   -4.8055 C   0  0  0  0  0  0  0  0  0  0  0  0
   28.6374  -20.0508   -3.5834 C   0  0  0  0  0  0  0  0  0  0  0  0
   28.7266  -18.6798   -3.4336 C   0  0  0  0  0  0  0  0  0  0  0  0
   28.4773  -17.8319   -4.5009 C   0  0  0  0  0  0  0  0  0  0  0  0
   28.1387  -18.4251   -5.7097 C   0  0  0  0  0  0  0  0  0  0  0  0
   28.0538  -19.7809   -5.8524 C   0  0  0  0  0  0  0  0  0  0  0  0
   25.1342  -21.0128   -7.9215 O   0  0  0  0  0  0  0  0  0  0  0  0
   25.1123  -22.0231   -6.9786 O   0  0  0  0  0  0  0  0  0  0  0  0
  2  3  1  0
  2  1  1  6
  4  3  1  0
  5  4  2  0
  6  7  1  0
  6  5  1  0
  7  8  2  0
  8  4  1  0
  9 10  2  0
  9  2  1  0
 11 12  1  0
 12 13  2  0
 14 15  1  0
 14 12  1  0
 16 15  1  0
 16 17  1  0
 18 17  1  6
 18 20  1  0
 18 19  1  0
 19  9  1  0
 20 21  2  0
 22 20  1  0
 22 23  1  0
 23 24  1  1
 24 25  1  0
 25 33  1  0
 26 25  2  0
 26 27  1  0
 27 28  1  0
 28 29  1  0
 29 30  2  0
 31 30  1  0
 32 31  2  0
 33 28  2  0
 33 32  1  0
 34 35  1  0
 34 23  1  0
 36 34  2  0
M  END
$$$$
