HRW.pdb
     RDKit          3D

 36 38  0  0  1  0  0  0  0  0999 V2000
   19.3626  -20.8517  -12.6134 N   0  0  0  0  0  0  0  0  0  0  0  0
   20.5291  -20.0340  -12.7370 C   0  0  1  0  0  0  0  0  0  0  0  0
   20.4067  -18.7224  -12.0210 C   0  0  0  0  0  0  0  0  0  0  0  0
   19.2469  -17.9966  -12.6229 C   0  0  0  0  0  0  0  0  0  0  0  0
   17.9249  -18.0545  -12.2566 C   0  0  0  0  0  0  0  0  0  0  0  0
   17.1993  -17.2278  -13.0693 N   0  0  0  0  0  0  0  0  0  0  0  0
   18.0714  -16.6725  -13.9188 C   0  0  0  0  0  0  0  0  0  0  0  0
   19.3272  -17.1370  -13.6528 N   0  0  0  0  0  0  0  0  0  0  0  0
   21.7651  -20.7809  -12.5075 C   0  0  0  0  0  0  0  0  0  0  0  0
   22.0121  -21.2554  -11.3855 O   0  0  0  0  0  0  0  0  0  0  0  0
   28.9681  -20.5067  -14.9394 N   0  0  0  0  0  0  0  0  0  0  0  0
   29.2562  -21.8918  -14.9615 C   0  0  0  0  0  0  0  0  0  0  0  0
   30.4441  -22.3062  -14.6424 N   0  0  0  0  0  0  0  0  0  0  0  0
   28.2837  -22.8312  -15.3255 N   0  0  0  0  0  0  0  0  0  0  0  0
   26.9012  -22.5336  -15.5489 C   0  0  0  0  0  0  0  0  0  0  0  0
   26.1718  -22.1687  -14.2768 C   0  0  0  0  0  0  0  0  0  0  0  0
   24.7054  -21.8776  -14.5181 C   0  0  0  0  0  0  0  0  0  0  0  0
   24.0079  -21.4955  -13.2465 C   0  0  2  0  0  0  0  0  0  0  0  0
   22.7173  -20.9913  -13.5411 N   0  0  0  0  0  0  0  0  0  0  0  0
   24.8337  -20.6508  -12.3470 C   0  0  0  0  0  0  0  0  0  0  0  0
   25.0053  -19.4511  -12.6551 O   0  0  0  0  0  0  0  0  0  0  0  0
   30.6761  -23.3272  -14.7055 N   0  0  0  0  0  0  0  0  0  0  0  0
   25.4182  -21.1679  -11.1684 C   0  0  2  0  0  0  0  0  0  0  0  0
   26.3464  -20.4271  -10.3426 C   0  0  0  0  0  0  0  0  0  0  0  0
   26.0567  -20.6722   -8.8850 C   0  0  0  0  0  0  0  0  0  0  0  0
   26.8532  -19.7911   -8.0163 C   0  0  0  0  0  0  0  0  0  0  0  0
   26.8357  -18.4374   -7.9614 N   0  0  0  0  0  0  0  0  0  0  0  0
   27.7110  -18.0273   -7.0286 C   0  0  0  0  0  0  0  0  0  0  0  0
   28.2835  -19.1348   -6.4948 C   0  0  0  0  0  0  0  0  0  0  0  0
   29.2437  -19.3078   -5.5046 C   0  0  0  0  0  0  0  0  0  0  0  0
   29.6659  -20.5698   -5.1315 C   0  0  0  0  0  0  0  0  0  0  0  0
   29.1428  -21.7008   -5.7376 C   0  0  0  0  0  0  0  0  0  0  0  0
   28.1867  -21.5005   -6.7242 C   0  0  0  0  0  0  0  0  0  0  0  0
   27.7720  -20.2509   -7.0877 C   0  0  0  0  0  0  0  0  0  0  0  0
   27.7624  -20.7843  -10.6852 O   0  0  0  0  0  0  0  0  0  0  0  0
   28.7505  -19.8196  -10.7439 O   0  0  0  0  0  0  0  0  0  0  0  0
  2  3  1  0
  2  1  1  1
  4  3  1  0
  5  4  2  0
  6  7  1  0
  6  5  1  0
  7  8  2  0
  8  4  1  0
  9 10  2  0
  9  2  1  0
 11 12  1  0
 12 13  2  0
 14 15  1  0
 14 12  1  0
 16 15  1  0
 16 17  1  0
 18 17  1  6
 18 20  1  0
 18 19  1  0
 19  9  1  0
 20 21  2  0
 22 20  1  0
 22 23  1  0
 23 24  1  1
 24 25  1  0
 25 33  1  0
 26 25  2  0
 26 27  1  0
 27 28  1  0
 28 29  1  0
 29 30  2  0
 31 30  1  0
 32 31  2  0
 33 28  2  0
 33 32  1  0
 34 35  1  0
 34 23  1  0
 36 34  2  0
M  END
$$$$
