HRW.pdb
     RDKit          3D

 36 38  0  0  1  0  0  0  0  0999 V2000
   27.6512  -23.1121  -17.0794 N   0  0  0  0  0  0  0  0  0  0  0  0
   26.6736  -22.8092  -16.0806 C   0  0  1  0  0  0  0  0  0  0  0  0
   25.7514  -23.9559  -15.7933 C   0  0  0  0  0  0  0  0  0  0  0  0
   24.9966  -24.2422  -17.0512 C   0  0  0  0  0  0  0  0  0  0  0  0
   25.2485  -25.2097  -17.9924 C   0  0  0  0  0  0  0  0  0  0  0  0
   24.3097  -25.1245  -18.9832 N   0  0  0  0  0  0  0  0  0  0  0  0
   23.4954  -24.1175  -18.6465 C   0  0  0  0  0  0  0  0  0  0  0  0
   23.9079  -23.5718  -17.4653 N   0  0  0  0  0  0  0  0  0  0  0  0
   27.2500  -22.1380  -14.9164 C   0  0  0  0  0  0  0  0  0  0  0  0
   28.3578  -22.4886  -14.4748 O   0  0  0  0  0  0  0  0  0  0  0  0
   25.3612  -17.4422  -17.6763 N   0  0  0  0  0  0  0  0  0  0  0  0
   26.5775  -16.8282  -17.2947 C   0  0  0  0  0  0  0  0  0  0  0  0
   26.9261  -15.7014  -17.8363 N   0  0  0  0  0  0  0  0  0  0  0  0
   27.4207  -17.4141  -16.3426 N   0  0  0  0  0  0  0  0  0  0  0  0
   27.1410  -18.6293  -15.6389 C   0  0  0  0  0  0  0  0  0  0  0  0
   26.7490  -18.3907  -14.1992 C   0  0  0  0  0  0  0  0  0  0  0  0
   27.6056  -19.1802  -13.2316 C   0  0  0  0  0  0  0  0  0  0  0  0
   27.0638  -20.5636  -13.0260 C   0  0  2  0  0  0  0  0  0  0  0  0
   26.5781  -21.0750  -14.2545 N   0  0  0  0  0  0  0  0  0  0  0  0
   26.1311  -20.6711  -11.8758 C   0  0  0  0  0  0  0  0  0  0  0  0
   24.9245  -20.4035  -12.0659 O   0  0  0  0  0  0  0  0  0  0  0  0
   27.8252  -15.2413  -17.5533 N   0  0  0  0  0  0  0  0  0  0  0  0
   26.5734  -21.0652  -10.5924 C   0  0  2  0  0  0  0  0  0  0  0  0
   25.6810  -21.4348   -9.5158 C   0  0  0  0  0  0  0  0  0  0  0  0
   26.4626  -21.6757   -8.2510 C   0  0  0  0  0  0  0  0  0  0  0  0
   26.9061  -20.4143   -7.6367 C   0  0  0  0  0  0  0  0  0  0  0  0
   26.5636  -19.1510   -7.9870 N   0  0  0  0  0  0  0  0  0  0  0  0
   27.1851  -18.2872   -7.1673 C   0  0  0  0  0  0  0  0  0  0  0  0
   27.9253  -19.0164   -6.2956 C   0  0  0  0  0  0  0  0  0  0  0  0
   28.7580  -18.6544   -5.2430 C   0  0  0  0  0  0  0  0  0  0  0  0
   29.4112  -19.6097   -4.4876 C   0  0  0  0  0  0  0  0  0  0  0  0
   29.2546  -20.9592   -4.7611 C   0  0  0  0  0  0  0  0  0  0  0  0
   28.4190  -21.2938   -5.8182 C   0  0  0  0  0  0  0  0  0  0  0  0
   27.7745  -20.3453   -6.5602 C   0  0  0  0  0  0  0  0  0  0  0  0
   24.6286  -20.3848   -9.3153 O   0  0  0  0  0  0  0  0  0  0  0  0
   23.4283  -20.6821   -8.6979 O   0  0  0  0  0  0  0  0  0  0  0  0
  2  3  1  0
  2  1  1  6
  4  3  1  0
  5  4  2  0
  6  7  1  0
  6  5  1  0
  7  8  2  0
  8  4  1  0
  9 10  2  0
  9  2  1  0
 11 12  1  0
 12 13  2  0
 14 15  1  0
 14 12  1  0
 16 15  1  0
 16 17  1  0
 18 17  1  6
 18 20  1  0
 18 19  1  0
 19  9  1  0
 20 21  2  0
 22 20  1  0
 22 23  1  0
 23 24  1  6
 24 25  1  0
 25 33  1  0
 26 25  2  0
 26 27  1  0
 27 28  1  0
 28 29  1  0
 29 30  2  0
 31 30  1  0
 32 31  2  0
 33 28  2  0
 33 32  1  0
 34 35  1  0
 34 23  1  0
 36 34  2  0
M  END
$$$$
