HRW.pdb
     RDKit          3D

 36 38  0  0  1  0  0  0  0  0999 V2000
   25.9960  -20.6041  -20.9585 N   0  0  0  0  0  0  0  0  0  0  0  0
   25.2043  -19.8715  -20.0197 C   0  0  1  0  0  0  0  0  0  0  0  0
   25.3525  -18.3860  -20.1579 C   0  0  0  0  0  0  0  0  0  0  0  0
   26.6577  -18.0118  -19.5327 C   0  0  0  0  0  0  0  0  0  0  0  0
   27.7825  -18.7852  -19.3852 C   0  0  0  0  0  0  0  0  0  0  0  0
   28.7523  -18.0493  -18.7620 N   0  0  0  0  0  0  0  0  0  0  0  0
   28.2228  -16.8415  -18.5353 C   0  0  0  0  0  0  0  0  0  0  0  0
   26.9411  -16.8092  -19.0039 N   0  0  0  0  0  0  0  0  0  0  0  0
   23.8354  -20.3768  -19.9248 C   0  0  0  0  0  0  0  0  0  0  0  0
   23.2162  -20.7072  -20.9506 O   0  0  0  0  0  0  0  0  0  0  0  0
   25.6222  -24.2237  -18.0530 N   0  0  0  0  0  0  0  0  0  0  0  0
   24.9457  -25.3238  -17.4751 C   0  0  0  0  0  0  0  0  0  0  0  0
   25.5766  -26.1073  -16.6549 N   0  0  0  0  0  0  0  0  0  0  0  0
   23.6035  -25.5901  -17.7725 N   0  0  0  0  0  0  0  0  0  0  0  0
   22.7732  -24.7763  -18.6081 C   0  0  0  0  0  0  0  0  0  0  0  0
   22.7170  -23.3380  -18.1482 C   0  0  0  0  0  0  0  0  0  0  0  0
   21.8735  -22.4744  -19.0626 C   0  0  0  0  0  0  0  0  0  0  0  0
   21.8605  -21.0459  -18.6060 C   0  0  2  0  0  0  0  0  0  0  0  0
   23.1695  -20.5088  -18.6764 N   0  0  0  0  0  0  0  0  0  0  0  0
   21.1545  -20.8412  -17.3159 C   0  0  0  0  0  0  0  0  0  0  0  0
   21.8088  -20.9655  -16.2576 O   0  0  0  0  0  0  0  0  0  0  0  0
   25.0856  -26.9379  -16.2435 N   0  0  0  0  0  0  0  0  0  0  0  0
   19.7808  -20.5125  -17.2626 C   0  0  1  0  0  0  0  0  0  0  0  0
   19.0809  -20.1901  -16.0385 C   0  0  0  0  0  0  0  0  0  0  0  0
   18.0233  -19.1505  -16.3016 C   0  0  0  0  0  0  0  0  0  0  0  0
   18.6012  -17.9126  -16.8484 C   0  0  0  0  0  0  0  0  0  0  0  0
   19.7604  -17.3068  -16.4947 N   0  0  0  0  0  0  0  0  0  0  0  0
   19.9212  -16.2024  -17.2422 C   0  0  0  0  0  0  0  0  0  0  0  0
   18.8516  -16.1146  -18.0715 C   0  0  0  0  0  0  0  0  0  0  0  0
   18.4965  -15.1902  -19.0471 C   0  0  0  0  0  0  0  0  0  0  0  0
   17.3287  -15.3302  -19.7727 C   0  0  0  0  0  0  0  0  0  0  0  0
   16.4762  -16.3989  -19.5456 C   0  0  0  0  0  0  0  0  0  0  0  0
   16.8532  -17.3067  -18.5651 C   0  0  0  0  0  0  0  0  0  0  0  0
   18.0095  -17.1642  -17.8522 C   0  0  0  0  0  0  0  0  0  0  0  0
   18.4914  -21.4249  -15.4238 O   0  0  0  0  0  0  0  0  0  0  0  0
   17.8572  -21.3815  -14.1965 O   0  0  0  0  0  0  0  0  0  0  0  0
  2  3  1  0
  2  1  1  6
  4  3  1  0
  5  4  2  0
  6  7  1  0
  6  5  1  0
  7  8  2  0
  8  4  1  0
  9 10  2  0
  9  2  1  0
 11 12  1  0
 12 13  2  0
 14 15  1  0
 14 12  1  0
 16 15  1  0
 16 17  1  0
 18 17  1  1
 18 20  1  0
 18 19  1  0
 19  9  1  0
 20 21  2  0
 22 20  1  0
 22 23  1  0
 23 24  1  1
 24 25  1  0
 25 33  1  0
 26 25  2  0
 26 27  1  0
 27 28  1  0
 28 29  1  0
 29 30  2  0
 31 30  1  0
 32 31  2  0
 33 28  2  0
 33 32  1  0
 34 35  1  0
 34 23  1  0
 36 34  2  0
M  END
$$$$
