HRW.pdb
     RDKit          3D

 36 38  0  0  1  0  0  0  0  0999 V2000
   22.3727  -24.5063  -15.5756 N   0  0  0  0  0  0  0  0  0  0  0  0
   22.3899  -23.3689  -14.7091 C   0  0  1  0  0  0  0  0  0  0  0  0
   21.2082  -23.3131  -13.7880 C   0  0  0  0  0  0  0  0  0  0  0  0
   19.9928  -23.1305  -14.6387 C   0  0  0  0  0  0  0  0  0  0  0  0
   19.2838  -24.0855  -15.3246 C   0  0  0  0  0  0  0  0  0  0  0  0
   18.2383  -23.4869  -15.9720 N   0  0  0  0  0  0  0  0  0  0  0  0
   18.3105  -22.1829  -15.6809 C   0  0  0  0  0  0  0  0  0  0  0  0
   19.3811  -21.9554  -14.8651 N   0  0  0  0  0  0  0  0  0  0  0  0
   23.6983  -23.1523  -14.0931 C   0  0  0  0  0  0  0  0  0  0  0  0
   24.2719  -24.0796  -13.4964 O   0  0  0  0  0  0  0  0  0  0  0  0
   30.2474  -22.1448  -15.3788 N   0  0  0  0  0  0  0  0  0  0  0  0
   29.4161  -21.3709  -16.2224 C   0  0  0  0  0  0  0  0  0  0  0  0
   29.2432  -21.7287  -17.4581 N   0  0  0  0  0  0  0  0  0  0  0  0
   28.7742  -20.2185  -15.7526 N   0  0  0  0  0  0  0  0  0  0  0  0
   28.7695  -19.7825  -14.3888 C   0  0  0  0  0  0  0  0  0  0  0  0
   27.7809  -20.5452  -13.5378 C   0  0  0  0  0  0  0  0  0  0  0  0
   26.4946  -20.8442  -14.2791 C   0  0  0  0  0  0  0  0  0  0  0  0
   25.5637  -21.6732  -13.4451 C   0  0  2  0  0  0  0  0  0  0  0  0
   24.3558  -21.8939  -14.1517 N   0  0  0  0  0  0  0  0  0  0  0  0
   25.4087  -21.1751  -12.0550 C   0  0  0  0  0  0  0  0  0  0  0  0
   24.5977  -20.2465  -11.8466 O   0  0  0  0  0  0  0  0  0  0  0  0
   28.6024  -21.1759  -18.0777 N   0  0  0  0  0  0  0  0  0  0  0  0
   26.1468  -21.7226  -10.9809 C   0  0  2  0  0  0  0  0  0  0  0  0
   26.0873  -21.2162   -9.6274 C   0  0  0  0  0  0  0  0  0  0  0  0
   27.4769  -20.9600   -9.1057 C   0  0  0  0  0  0  0  0  0  0  0  0
   27.4572  -20.1349   -7.8874 C   0  0  0  0  0  0  0  0  0  0  0  0
   26.6210  -19.1120   -7.5870 N   0  0  0  0  0  0  0  0  0  0  0  0
   26.9383  -18.6311   -6.3736 C   0  0  0  0  0  0  0  0  0  0  0  0
   27.9845  -19.3589   -5.9098 C   0  0  0  0  0  0  0  0  0  0  0  0
   28.7122  -19.3038   -4.7266 C   0  0  0  0  0  0  0  0  0  0  0  0
   29.7545  -20.1793   -4.4874 C   0  0  0  0  0  0  0  0  0  0  0  0
   30.1047  -21.1382   -5.4246 C   0  0  0  0  0  0  0  0  0  0  0  0
   29.3633  -21.1710   -6.5980 C   0  0  0  0  0  0  0  0  0  0  0  0
   28.3331  -20.3043   -6.8283 C   0  0  0  0  0  0  0  0  0  0  0  0
   25.2426  -19.9784   -9.5610 O   0  0  0  0  0  0  0  0  0  0  0  0
   24.1971  -19.8719   -8.6632 O   0  0  0  0  0  0  0  0  0  0  0  0
  2  3  1  0
  2  1  1  1
  4  3  1  0
  5  4  2  0
  6  7  1  0
  6  5  1  0
  7  8  2  0
  8  4  1  0
  9 10  2  0
  9  2  1  0
 11 12  1  0
 12 13  2  0
 14 15  1  0
 14 12  1  0
 16 15  1  0
 16 17  1  0
 18 17  1  6
 18 20  1  0
 18 19  1  0
 19  9  1  0
 20 21  2  0
 22 20  1  0
 22 23  1  0
 23 24  1  1
 24 25  1  0
 25 33  1  0
 26 25  2  0
 26 27  1  0
 27 28  1  0
 28 29  1  0
 29 30  2  0
 31 30  1  0
 32 31  2  0
 33 28  2  0
 33 32  1  0
 34 35  1  0
 34 23  1  0
 36 34  2  0
M  END
$$$$
