HRH.pdb
     RDKit          3D

 32 33  0  0  1  0  0  0  0  0999 V2000
    7.4367  -13.1254   15.5317 N   0  0  0  0  0  0  0  0  0  0  0  0
    8.1949  -14.3368   15.4044 C   0  0  1  0  0  0  0  0  0  0  0  0
    9.2947  -14.1411   14.3976 C   0  0  0  0  0  0  0  0  0  0  0  0
    8.7075  -13.9186   13.0568 C   0  0  0  0  0  0  0  0  0  0  0  0
    8.4334  -12.7051   12.4750 C   0  0  0  0  0  0  0  0  0  0  0  0
    7.9014  -12.9572   11.2527 N   0  0  0  0  0  0  0  0  0  0  0  0
    7.8433  -14.2837   11.0724 C   0  0  0  0  0  0  0  0  0  0  0  0
    8.3354  -14.8893   12.1735 N   0  0  0  0  0  0  0  0  0  0  0  0
    8.7341  -14.8007   16.7068 C   0  0  0  0  0  0  0  0  0  0  0  0
    9.0242  -13.9697   17.5770 O   0  0  0  0  0  0  0  0  0  0  0  0
    5.5853  -19.9731   15.7555 N   0  0  0  0  0  0  0  0  0  0  0  0
    5.8127  -20.3783   17.0938 C   0  0  0  0  0  0  0  0  0  0  0  0
    4.8280  -20.7254   17.8870 N   0  0  0  0  0  0  0  0  0  0  0  0
    7.1176  -20.4392   17.6724 N   0  0  0  0  0  0  0  0  0  0  0  0
    8.3314  -20.1781   16.9287 C   0  0  0  0  0  0  0  0  0  0  0  0
    8.6835  -18.7246   16.8874 C   0  0  0  0  0  0  0  0  0  0  0  0
    8.9915  -18.1882   18.2441 C   0  0  0  0  0  0  0  0  0  0  0  0
    9.3581  -16.7282   18.1324 C   0  0  2  0  0  0  0  0  0  0  0  0
    8.8940  -16.1844   16.8961 N   0  0  0  0  0  0  0  0  0  0  0  0
   10.8654  -16.6162   18.1447 C   0  0  0  0  0  0  0  0  0  0  0  0
   11.4789  -16.7281   17.0537 O   0  0  0  0  0  0  0  0  0  0  0  0
    5.0839  -20.9908   18.8606 N   0  0  0  0  0  0  0  0  0  0  0  0
   11.5192  -16.3940   19.3632 C   0  0  1  0  0  0  0  0  0  0  0  0
   12.9750  -16.2269   19.3743 C   0  0  0  0  0  0  0  0  0  0  0  0
   13.3012  -14.7671   19.4820 C   0  0  0  0  0  0  0  0  0  0  0  0
   14.3595  -14.3955   18.5206 C   0  0  0  0  0  0  0  0  0  0  0  0
   14.9676  -15.2783   17.6270 N   0  0  0  0  0  0  0  0  0  0  0  0
   15.8724  -14.6113   16.9098 C   0  0  0  0  0  0  0  0  0  0  0  0
   15.8792  -13.3322   17.2985 N   0  0  0  0  0  0  0  0  0  0  0  0
   14.9605  -13.2257   18.2693 C   0  0  0  0  0  0  0  0  0  0  0  0
   13.5319  -17.0386   20.5060 O   0  0  0  0  0  0  0  0  0  0  0  0
   13.4308  -16.4715   21.7869 O   0  0  0  0  0  0  0  0  0  0  0  0
  2  1  1  1
  2  3  1  0
  4  3  1  0
  5  4  2  0
  6  5  1  0
  7  6  1  0
  7  8  2  0
  8  4  1  0
  9  2  1  0
  9 10  2  0
 12 11  1  0
 13 12  2  0
 14 12  1  0
 15 14  1  0
 16 17  1  0
 16 15  1  0
 18 19  1  0
 18 17  1  6
 19  9  1  0
 20 18  1  0
 21 20  2  0
 22 20  1  0
 23 22  1  0
 23 24  1  6
 24 25  1  0
 25 26  2  0
 25 29  1  0
 26 27  1  0
 27 28  1  0
 29 28  2  0
 30 23  1  0
 30 31  1  0
 32 30  2  0
M  END
$$$$
