HRH.pdb
     RDKit          3D

 32 33  0  0  1  0  0  0  0  0999 V2000
    9.6017  -15.1319   19.9092 N   0  0  0  0  0  0  0  0  0  0  0  0
    8.4321  -14.7823   20.6632 C   0  0  1  0  0  0  0  0  0  0  0  0
    7.2114  -14.9224   19.7962 C   0  0  0  0  0  0  0  0  0  0  0  0
    7.4275  -14.2128   18.5149 C   0  0  0  0  0  0  0  0  0  0  0  0
    7.9276  -12.9436   18.3570 C   0  0  0  0  0  0  0  0  0  0  0  0
    7.9556  -12.6860   17.0253 N   0  0  0  0  0  0  0  0  0  0  0  0
    7.4891  -13.7569   16.3687 C   0  0  0  0  0  0  0  0  0  0  0  0
    7.1598  -14.7049   17.2710 N   0  0  0  0  0  0  0  0  0  0  0  0
    8.3049  -15.5845   21.9052 C   0  0  0  0  0  0  0  0  0  0  0  0
    7.2782  -15.4891   22.5897 O   0  0  0  0  0  0  0  0  0  0  0  0
   11.1305  -20.7635   19.7798 N   0  0  0  0  0  0  0  0  0  0  0  0
    9.8005  -21.2457   19.8548 C   0  0  0  0  0  0  0  0  0  0  0  0
    9.1298  -21.5910   18.7823 N   0  0  0  0  0  0  0  0  0  0  0  0
    9.0990  -21.3911   21.0909 N   0  0  0  0  0  0  0  0  0  0  0  0
    9.4036  -20.6170   22.2751 C   0  0  0  0  0  0  0  0  0  0  0  0
    9.8870  -19.2374   21.9563 C   0  0  0  0  0  0  0  0  0  0  0  0
   10.2529  -18.4781   23.1863 C   0  0  0  0  0  0  0  0  0  0  0  0
    9.2961  -17.3243   23.3639 C   0  0  2  0  0  0  0  0  0  0  0  0
    9.3731  -16.4292   22.2537 N   0  0  0  0  0  0  0  0  0  0  0  0
    9.7044  -16.5565   24.6002 C   0  0  0  0  0  0  0  0  0  0  0  0
   10.8282  -15.9943   24.6068 O   0  0  0  0  0  0  0  0  0  0  0  0
    8.1489  -21.9086   18.9270 N   0  0  0  0  0  0  0  0  0  0  0  0
    8.8219  -16.5006   25.6863 C   0  0  2  0  0  0  0  0  0  0  0  0
    9.2564  -15.8571   26.9291 C   0  0  0  0  0  0  0  0  0  0  0  0
    8.0702  -15.2289   27.5979 C   0  0  0  0  0  0  0  0  0  0  0  0
    7.6525  -14.0065   26.8812 C   0  0  0  0  0  0  0  0  0  0  0  0
    8.3783  -13.3988   25.8558 N   0  0  0  0  0  0  0  0  0  0  0  0
    7.7126  -12.3230   25.4348 C   0  0  0  0  0  0  0  0  0  0  0  0
    6.5846  -12.2043   26.1425 N   0  0  0  0  0  0  0  0  0  0  0  0
    6.5698  -13.2288   27.0073 C   0  0  0  0  0  0  0  0  0  0  0  0
    9.9326  -16.8901   27.7809 O   0  0  0  0  0  0  0  0  0  0  0  0
   10.4945  -16.4331   28.9842 O   0  0  0  0  0  0  0  0  0  0  0  0
  2  1  1  6
  2  3  1  0
  4  3  1  0
  5  4  2  0
  6  5  1  0
  7  6  1  0
  7  8  2  0
  8  4  1  0
  9  2  1  0
  9 10  2  0
 12 11  1  0
 13 12  2  0
 14 12  1  0
 15 14  1  0
 16 17  1  0
 16 15  1  0
 18 19  1  0
 18 17  1  6
 19  9  1  0
 20 18  1  0
 21 20  2  0
 22 20  1  0
 23 22  1  0
 23 24  1  6
 24 25  1  0
 25 26  2  0
 25 29  1  0
 26 27  1  0
 27 28  1  0
 29 28  2  0
 30 23  1  0
 30 31  1  0
 32 30  2  0
M  END
$$$$
