HRH.pdb
     RDKit          3D

 32 33  0  0  1  0  0  0  0  0999 V2000
   12.9303  -18.7904   12.6720 N   0  0  0  0  0  0  0  0  0  0  0  0
   12.8924  -20.0518   13.3547 C   0  0  1  0  0  0  0  0  0  0  0  0
   14.1515  -20.8213   13.0648 C   0  0  0  0  0  0  0  0  0  0  0  0
   14.2404  -21.1007   11.6136 C   0  0  0  0  0  0  0  0  0  0  0  0
   13.3373  -21.8098   10.8603 C   0  0  0  0  0  0  0  0  0  0  0  0
   13.8042  -21.8288    9.5867 N   0  0  0  0  0  0  0  0  0  0  0  0
   14.9613  -21.1546    9.5411 C   0  0  0  0  0  0  0  0  0  0  0  0
   15.2435  -20.7004   10.7802 N   0  0  0  0  0  0  0  0  0  0  0  0
   12.6829  -19.8932   14.8152 C   0  0  0  0  0  0  0  0  0  0  0  0
   13.1802  -18.9225   15.4002 O   0  0  0  0  0  0  0  0  0  0  0  0
    6.0107  -19.8129   18.7298 N   0  0  0  0  0  0  0  0  0  0  0  0
    5.9231  -19.8334   17.3160 C   0  0  0  0  0  0  0  0  0  0  0  0
    5.1483  -19.0035   16.6601 N   0  0  0  0  0  0  0  0  0  0  0  0
    6.6649  -20.7490   16.5083 N   0  0  0  0  0  0  0  0  0  0  0  0
    7.8282  -21.4676   16.9828 C   0  0  0  0  0  0  0  0  0  0  0  0
    9.1035  -20.7197   16.7540 C   0  0  0  0  0  0  0  0  0  0  0  0
   10.2971  -21.5216   17.1484 C   0  0  0  0  0  0  0  0  0  0  0  0
   11.5491  -20.7325   16.8517 C   0  0  2  0  0  0  0  0  0  0  0  0
   11.9176  -20.8681   15.4786 N   0  0  0  0  0  0  0  0  0  0  0  0
   12.6749  -21.2992   17.6860 C   0  0  0  0  0  0  0  0  0  0  0  0
   13.1358  -22.4263   17.3757 O   0  0  0  0  0  0  0  0  0  0  0  0
    5.1383  -19.0946   15.6230 N   0  0  0  0  0  0  0  0  0  0  0  0
   13.1597  -20.5531   18.7676 C   0  0  1  0  0  0  0  0  0  0  0  0
   14.2331  -21.1085   19.5964 C   0  0  0  0  0  0  0  0  0  0  0  0
   15.4216  -20.1956   19.5374 C   0  0  0  0  0  0  0  0  0  0  0  0
   16.0361  -20.2236   18.1943 C   0  0  0  0  0  0  0  0  0  0  0  0
   16.8086  -21.2731   17.6950 N   0  0  0  0  0  0  0  0  0  0  0  0
   17.1996  -20.9700   16.4568 C   0  0  0  0  0  0  0  0  0  0  0  0
   16.7149  -19.7680   16.1290 N   0  0  0  0  0  0  0  0  0  0  0  0
   16.0177  -19.3377   17.1904 C   0  0  0  0  0  0  0  0  0  0  0  0
   13.7035  -21.2947   20.9872 O   0  0  0  0  0  0  0  0  0  0  0  0
   14.5787  -21.8880   21.9118 O   0  0  0  0  0  0  0  0  0  0  0  0
  2  1  1  6
  2  3  1  0
  4  3  1  0
  5  4  2  0
  6  5  1  0
  7  6  1  0
  7  8  2  0
  8  4  1  0
  9  2  1  0
  9 10  2  0
 12 11  1  0
 13 12  2  0
 14 12  1  0
 15 14  1  0
 16 17  1  0
 16 15  1  0
 18 19  1  0
 18 17  1  6
 19  9  1  0
 20 18  1  0
 21 20  2  0
 22 20  1  0
 23 22  1  0
 23 24  1  6
 24 25  1  0
 25 26  2  0
 25 29  1  0
 26 27  1  0
 27 28  1  0
 29 28  2  0
 30 23  1  0
 30 31  1  0
 32 30  2  0
M  END
$$$$
