HRH.pdb
     RDKit          3D

 32 33  0  0  1  0  0  0  0  0999 V2000
   14.5534  -15.6519   16.6845 N   0  0  0  0  0  0  0  0  0  0  0  0
   13.9038  -16.7006   17.4172 C   0  0  1  0  0  0  0  0  0  0  0  0
   14.8256  -17.8833   17.5312 C   0  0  0  0  0  0  0  0  0  0  0  0
   14.9262  -18.5634   16.2200 C   0  0  0  0  0  0  0  0  0  0  0  0
   14.8535  -17.9706   14.9834 C   0  0  0  0  0  0  0  0  0  0  0  0
   14.9887  -18.9538   14.0584 N   0  0  0  0  0  0  0  0  0  0  0  0
   15.1413  -20.1246   14.6921 C   0  0  0  0  0  0  0  0  0  0  0  0
   15.1050  -19.9013   16.0226 N   0  0  0  0  0  0  0  0  0  0  0  0
   13.4410  -16.2484   18.7527 C   0  0  0  0  0  0  0  0  0  0  0  0
   14.2148  -15.6178   19.4844 O   0  0  0  0  0  0  0  0  0  0  0  0
    6.8190  -13.6574   19.7948 N   0  0  0  0  0  0  0  0  0  0  0  0
    7.7045  -12.6622   19.3128 C   0  0  0  0  0  0  0  0  0  0  0  0
    7.3391  -11.4078   19.2019 N   0  0  0  0  0  0  0  0  0  0  0  0
    9.0472  -12.9478   18.9166 N   0  0  0  0  0  0  0  0  0  0  0  0
    9.6336  -14.2691   18.9852 C   0  0  0  0  0  0  0  0  0  0  0  0
    9.4543  -14.9131   20.3237 C   0  0  0  0  0  0  0  0  0  0  0  0
   10.0727  -16.2689   20.3760 C   0  0  0  0  0  0  0  0  0  0  0  0
   11.5759  -16.1323   20.3791 C   0  0  2  0  0  0  0  0  0  0  0  0
   12.1244  -16.5620   19.1324 N   0  0  0  0  0  0  0  0  0  0  0  0
   12.1310  -17.0332   21.4583 C   0  0  0  0  0  0  0  0  0  0  0  0
   12.6564  -18.1211   21.1127 O   0  0  0  0  0  0  0  0  0  0  0  0
    8.0485  -10.7465   18.8234 N   0  0  0  0  0  0  0  0  0  0  0  0
   12.0397  -16.6259   22.7953 C   0  0  2  0  0  0  0  0  0  0  0  0
   13.2040  -16.7807   23.6717 C   0  0  0  0  0  0  0  0  0  0  0  0
   14.0648  -15.5573   23.5655 C   0  0  0  0  0  0  0  0  0  0  0  0
   15.4159  -15.9090   23.0826 C   0  0  0  0  0  0  0  0  0  0  0  0
   15.7842  -17.1634   22.5943 N   0  0  0  0  0  0  0  0  0  0  0  0
   17.0706  -17.1298   22.2451 C   0  0  0  0  0  0  0  0  0  0  0  0
   17.5554  -15.9073   22.4854 N   0  0  0  0  0  0  0  0  0  0  0  0
   16.5413  -15.1894   22.9895 C   0  0  0  0  0  0  0  0  0  0  0  0
   12.7116  -17.0337   25.0657 O   0  0  0  0  0  0  0  0  0  0  0  0
   13.6706  -17.4700   25.9944 O   0  0  0  0  0  0  0  0  0  0  0  0
  2  1  1  1
  2  3  1  0
  4  3  1  0
  5  4  2  0
  6  5  1  0
  7  6  1  0
  7  8  2  0
  8  4  1  0
  9  2  1  0
  9 10  2  0
 12 11  1  0
 13 12  2  0
 14 12  1  0
 15 14  1  0
 16 17  1  0
 16 15  1  0
 18 19  1  0
 18 17  1  6
 19  9  1  0
 20 18  1  0
 21 20  2  0
 22 20  1  0
 23 22  1  0
 23 24  1  6
 24 25  1  0
 25 26  2  0
 25 29  1  0
 26 27  1  0
 27 28  1  0
 29 28  2  0
 30 23  1  0
 30 31  1  0
 32 30  2  0
M  END
$$$$
