HRH.pdb
     RDKit          3D

 32 33  0  0  1  0  0  0  0  0999 V2000
    5.9884  -18.2986   26.1104 N   0  0  0  0  0  0  0  0  0  0  0  0
    6.7763  -17.3089   25.4334 C   0  0  1  0  0  0  0  0  0  0  0  0
    7.3975  -16.3816   26.4412 C   0  0  0  0  0  0  0  0  0  0  0  0
    6.7939  -15.0354   26.3165 C   0  0  0  0  0  0  0  0  0  0  0  0
    5.7448  -14.6815   25.5041 C   0  0  0  0  0  0  0  0  0  0  0  0
    5.5171  -13.3579   25.6963 N   0  0  0  0  0  0  0  0  0  0  0  0
    6.3933  -12.8959   26.5987 C   0  0  0  0  0  0  0  0  0  0  0  0
    7.1858  -13.9157   26.9900 N   0  0  0  0  0  0  0  0  0  0  0  0
    7.8063  -17.9166   24.5548 C   0  0  0  0  0  0  0  0  0  0  0  0
    8.1668  -19.0835   24.7553 O   0  0  0  0  0  0  0  0  0  0  0  0
    8.4999  -12.9340   17.8029 N   0  0  0  0  0  0  0  0  0  0  0  0
    9.0054  -12.5109   19.0569 C   0  0  0  0  0  0  0  0  0  0  0  0
    9.4106  -11.2802   19.2584 N   0  0  0  0  0  0  0  0  0  0  0  0
    9.1093  -13.3836   20.1833 N   0  0  0  0  0  0  0  0  0  0  0  0
    9.0773  -14.8267   20.0781 C   0  0  0  0  0  0  0  0  0  0  0  0
    9.2333  -15.5070   21.4014 C   0  0  0  0  0  0  0  0  0  0  0  0
    9.2094  -16.9921   21.2697 C   0  0  0  0  0  0  0  0  0  0  0  0
    9.3455  -17.6169   22.6369 C   0  0  2  0  0  0  0  0  0  0  0  0
    8.3346  -17.1269   23.5188 N   0  0  0  0  0  0  0  0  0  0  0  0
   10.6859  -17.2163   23.2093 C   0  0  0  0  0  0  0  0  0  0  0  0
   11.3548  -16.3430   22.6018 O   0  0  0  0  0  0  0  0  0  0  0  0
    9.8412  -11.0760   20.1841 N   0  0  0  0  0  0  0  0  0  0  0  0
   11.1309  -17.8292   24.3874 C   0  0  1  0  0  0  0  0  0  0  0  0
   11.4166  -17.0002   25.5616 C   0  0  0  0  0  0  0  0  0  0  0  0
   10.3163  -15.9957   25.7332 C   0  0  0  0  0  0  0  0  0  0  0  0
   10.5805  -15.1247   26.8967 C   0  0  0  0  0  0  0  0  0  0  0  0
   11.6242  -15.3061   27.8052 N   0  0  0  0  0  0  0  0  0  0  0  0
   11.5689  -14.3417   28.7243 C   0  0  0  0  0  0  0  0  0  0  0  0
   10.5337  -13.5405   28.4531 N   0  0  0  0  0  0  0  0  0  0  0  0
    9.9532  -14.0313   27.3486 C   0  0  0  0  0  0  0  0  0  0  0  0
   11.5766  -17.9050   26.7471 O   0  0  0  0  0  0  0  0  0  0  0  0
   11.4406  -19.2813   26.5019 O   0  0  0  0  0  0  0  0  0  0  0  0
  2  1  1  1
  2  3  1  0
  4  3  1  0
  5  4  2  0
  6  5  1  0
  7  6  1  0
  7  8  2  0
  8  4  1  0
  9  2  1  0
  9 10  2  0
 12 11  1  0
 13 12  2  0
 14 12  1  0
 15 14  1  0
 16 17  1  0
 16 15  1  0
 18 19  1  0
 18 17  1  6
 19  9  1  0
 20 18  1  0
 21 20  2  0
 22 20  1  0
 23 22  1  0
 23 24  1  1
 24 25  1  0
 25 26  2  0
 25 29  1  0
 26 27  1  0
 27 28  1  0
 29 28  2  0
 30 23  1  0
 30 31  1  0
 32 30  2  0
M  END
$$$$
