HRH.pdb
     RDKit          3D

 32 33  0  0  1  0  0  0  0  0999 V2000
   13.4618  -17.2864   16.1717 N   0  0  0  0  0  0  0  0  0  0  0  0
   12.7218  -18.2596   16.9228 C   0  0  1  0  0  0  0  0  0  0  0  0
   13.5214  -19.5285   17.0318 C   0  0  0  0  0  0  0  0  0  0  0  0
   13.5448  -20.2155   15.7205 C   0  0  0  0  0  0  0  0  0  0  0  0
   14.1106  -19.7455   14.5608 C   0  0  0  0  0  0  0  0  0  0  0  0
   13.9020  -20.6839   13.6034 N   0  0  0  0  0  0  0  0  0  0  0  0
   13.2281  -21.7087   14.1431 C   0  0  0  0  0  0  0  0  0  0  0  0
   13.0007  -21.4358   15.4451 N   0  0  0  0  0  0  0  0  0  0  0  0
   12.3290  -17.7545   18.2618 C   0  0  0  0  0  0  0  0  0  0  0  0
   13.1859  -17.2489   18.9979 O   0  0  0  0  0  0  0  0  0  0  0  0
    7.8802  -12.8793   18.9884 N   0  0  0  0  0  0  0  0  0  0  0  0
    7.4923  -13.4582   17.7550 C   0  0  0  0  0  0  0  0  0  0  0  0
    7.5688  -12.7949   16.6265 N   0  0  0  0  0  0  0  0  0  0  0  0
    6.9951  -14.7935   17.6497 N   0  0  0  0  0  0  0  0  0  0  0  0
    7.2749  -15.8265   18.6240 C   0  0  0  0  0  0  0  0  0  0  0  0
    8.7386  -15.9969   18.8826 C   0  0  0  0  0  0  0  0  0  0  0  0
    9.0102  -17.1236   19.8207 C   0  0  0  0  0  0  0  0  0  0  0  0
   10.4977  -17.3717   19.8857 C   0  0  2  0  0  0  0  0  0  0  0  0
   10.9804  -17.8755   18.6396 N   0  0  0  0  0  0  0  0  0  0  0  0
   10.7564  -18.4263   20.9371 C   0  0  0  0  0  0  0  0  0  0  0  0
   10.5984  -19.6323   20.6210 O   0  0  0  0  0  0  0  0  0  0  0  0
    7.3547  -13.3261   15.7571 N   0  0  0  0  0  0  0  0  0  0  0  0
   11.1592  -18.0241   22.2167 C   0  0  2  0  0  0  0  0  0  0  0  0
   11.3535  -19.0373   23.2574 C   0  0  0  0  0  0  0  0  0  0  0  0
   11.6746  -18.3549   24.5537 C   0  0  0  0  0  0  0  0  0  0  0  0
   11.9046  -19.3470   25.6238 C   0  0  0  0  0  0  0  0  0  0  0  0
   11.8258  -20.7302   25.4561 N   0  0  0  0  0  0  0  0  0  0  0  0
   12.0924  -21.3220   26.6208 C   0  0  0  0  0  0  0  0  0  0  0  0
   12.3410  -20.3832   27.5395 N   0  0  0  0  0  0  0  0  0  0  0  0
   12.2221  -19.2018   26.9165 C   0  0  0  0  0  0  0  0  0  0  0  0
   10.1152  -19.8807   23.3282 O   0  0  0  0  0  0  0  0  0  0  0  0
   10.3051  -21.2410   23.6218 O   0  0  0  0  0  0  0  0  0  0  0  0
  2  1  1  1
  2  3  1  0
  4  3  1  0
  5  4  2  0
  6  5  1  0
  7  6  1  0
  7  8  2  0
  8  4  1  0
  9  2  1  0
  9 10  2  0
 12 11  1  0
 13 12  2  0
 14 12  1  0
 15 14  1  0
 16 17  1  0
 16 15  1  0
 18 19  1  0
 18 17  1  6
 19  9  1  0
 20 18  1  0
 21 20  2  0
 22 20  1  0
 23 22  1  0
 23 24  1  6
 24 25  1  0
 25 26  2  0
 25 29  1  0
 26 27  1  0
 27 28  1  0
 29 28  2  0
 30 23  1  0
 30 31  1  0
 32 30  2  0
M  END
$$$$
