HRH.pdb
     RDKit          3D

 32 33  0  0  1  0  0  0  0  0999 V2000
    8.3531  -19.2058   17.6877 N   0  0  0  0  0  0  0  0  0  0  0  0
    8.6511  -18.0030   18.4110 C   0  0  1  0  0  0  0  0  0  0  0  0
    8.2807  -16.8073   17.5776 C   0  0  0  0  0  0  0  0  0  0  0  0
    9.1465  -16.7499   16.3780 C   0  0  0  0  0  0  0  0  0  0  0  0
    8.7369  -16.5500   15.0825 C   0  0  0  0  0  0  0  0  0  0  0  0
    9.8469  -16.5729   14.3027 N   0  0  0  0  0  0  0  0  0  0  0  0
   10.9174  -16.7800   15.0815 C   0  0  0  0  0  0  0  0  0  0  0  0
   10.5032  -16.8911   16.3611 N   0  0  0  0  0  0  0  0  0  0  0  0
    7.9821  -17.9642   19.7350 C   0  0  0  0  0  0  0  0  0  0  0  0
    6.7458  -17.9616   19.7932 O   0  0  0  0  0  0  0  0  0  0  0  0
   10.1946  -24.5338   22.4288 N   0  0  0  0  0  0  0  0  0  0  0  0
   11.2154  -23.5706   22.2357 C   0  0  0  0  0  0  0  0  0  0  0  0
   12.4678  -23.9174   22.0611 N   0  0  0  0  0  0  0  0  0  0  0  0
   10.9591  -22.1652   22.2160 N   0  0  0  0  0  0  0  0  0  0  0  0
    9.6757  -21.5852   22.5493 C   0  0  0  0  0  0  0  0  0  0  0  0
    9.6359  -20.1053   22.3333 C   0  0  0  0  0  0  0  0  0  0  0  0
    8.2852  -19.5385   22.6123 C   0  0  0  0  0  0  0  0  0  0  0  0
    8.2560  -18.0885   22.1940 C   0  0  2  0  0  0  0  0  0  0  0  0
    8.7954  -17.9310   20.8811 N   0  0  0  0  0  0  0  0  0  0  0  0
    9.1297  -17.3036   23.1453 C   0  0  0  0  0  0  0  0  0  0  0  0
   10.3546  -17.2040   22.8828 O   0  0  0  0  0  0  0  0  0  0  0  0
   13.1507  -23.1446   21.9174 N   0  0  0  0  0  0  0  0  0  0  0  0
    8.5467  -16.7203   24.2773 C   0  0  2  0  0  0  0  0  0  0  0  0
    9.3885  -15.9580   25.2035 C   0  0  0  0  0  0  0  0  0  0  0  0
    8.5122  -15.2390   26.1855 C   0  0  0  0  0  0  0  0  0  0  0  0
    9.3276  -14.5405   27.2001 C   0  0  0  0  0  0  0  0  0  0  0  0
    9.8069  -13.2359   27.0745 N   0  0  0  0  0  0  0  0  0  0  0  0
   10.4998  -12.9233   28.1699 C   0  0  0  0  0  0  0  0  0  0  0  0
   10.4922  -13.9688   29.0031 N   0  0  0  0  0  0  0  0  0  0  0  0
    9.7806  -14.9308   28.3982 C   0  0  0  0  0  0  0  0  0  0  0  0
   10.3469  -16.9086   25.8573 O   0  0  0  0  0  0  0  0  0  0  0  0
   11.6606  -16.4441   26.0339 O   0  0  0  0  0  0  0  0  0  0  0  0
  2  1  1  6
  2  3  1  0
  4  3  1  0
  5  4  2  0
  6  5  1  0
  7  6  1  0
  7  8  2  0
  8  4  1  0
  9  2  1  0
  9 10  2  0
 12 11  1  0
 13 12  2  0
 14 12  1  0
 15 14  1  0
 16 17  1  0
 16 15  1  0
 18 19  1  0
 18 17  1  1
 19  9  1  0
 20 18  1  0
 21 20  2  0
 22 20  1  0
 23 22  1  0
 23 24  1  1
 24 25  1  0
 25 26  2  0
 25 29  1  0
 26 27  1  0
 27 28  1  0
 29 28  2  0
 30 23  1  0
 30 31  1  0
 32 30  2  0
M  END
$$$$
