HRH.pdb
     RDKit          3D

 32 33  0  0  1  0  0  0  0  0999 V2000
   13.5012  -15.8752   12.7556 N   0  0  0  0  0  0  0  0  0  0  0  0
   13.6805  -16.6275   13.9642 C   0  0  1  0  0  0  0  0  0  0  0  0
   15.0124  -17.3250   13.9323 C   0  0  0  0  0  0  0  0  0  0  0  0
   14.9811  -18.4106   12.9261 C   0  0  0  0  0  0  0  0  0  0  0  0
   14.1985  -19.5384   12.9637 C   0  0  0  0  0  0  0  0  0  0  0  0
   14.4863  -20.2637   11.8539 N   0  0  0  0  0  0  0  0  0  0  0  0
   15.4180  -19.6139   11.1432 C   0  0  0  0  0  0  0  0  0  0  0  0
   15.7331  -18.4719   11.7895 N   0  0  0  0  0  0  0  0  0  0  0  0
   13.5445  -15.7824   15.1764 C   0  0  0  0  0  0  0  0  0  0  0  0
   14.2170  -14.7482   15.2768 O   0  0  0  0  0  0  0  0  0  0  0  0
    6.6737  -14.1591   17.2724 N   0  0  0  0  0  0  0  0  0  0  0  0
    7.6788  -13.7833   18.1974 C   0  0  0  0  0  0  0  0  0  0  0  0
    7.5718  -12.7025   18.9321 N   0  0  0  0  0  0  0  0  0  0  0  0
    8.8703  -14.5459   18.3972 N   0  0  0  0  0  0  0  0  0  0  0  0
    9.8932  -14.1881   19.3564 C   0  0  0  0  0  0  0  0  0  0  0  0
   11.0474  -15.1401   19.3539 C   0  0  0  0  0  0  0  0  0  0  0  0
   11.1688  -15.8635   18.0558 C   0  0  0  0  0  0  0  0  0  0  0  0
   12.4572  -15.4626   17.3793 C   0  0  2  0  0  0  0  0  0  0  0  0
   12.6443  -16.2015   16.1715 N   0  0  0  0  0  0  0  0  0  0  0  0
   13.6032  -15.8007   18.3051 C   0  0  0  0  0  0  0  0  0  0  0  0
   13.9940  -16.9939   18.3563 O   0  0  0  0  0  0  0  0  0  0  0  0
    8.4324  -12.3859   19.4251 N   0  0  0  0  0  0  0  0  0  0  0  0
   14.1834  -14.7791   19.0675 C   0  0  2  0  0  0  0  0  0  0  0  0
   15.2576  -15.1097   20.0079 C   0  0  0  0  0  0  0  0  0  0  0  0
   16.1358  -13.9083   20.1927 C   0  0  0  0  0  0  0  0  0  0  0  0
   16.9514  -13.6661   18.9850 C   0  0  0  0  0  0  0  0  0  0  0  0
   17.7179  -14.6348   18.3357 N   0  0  0  0  0  0  0  0  0  0  0  0
   18.3199  -14.0762   17.2853 C   0  0  0  0  0  0  0  0  0  0  0  0
   17.9781  -12.7852   17.2233 N   0  0  0  0  0  0  0  0  0  0  0  0
   17.1538  -12.5609   18.2566 C   0  0  0  0  0  0  0  0  0  0  0  0
   14.6325  -15.5831   21.2865 O   0  0  0  0  0  0  0  0  0  0  0  0
   15.5174  -15.9216   22.3234 O   0  0  0  0  0  0  0  0  0  0  0  0
  2  1  1  6
  2  3  1  0
  4  3  1  0
  5  4  2  0
  6  5  1  0
  7  6  1  0
  7  8  2  0
  8  4  1  0
  9  2  1  0
  9 10  2  0
 12 11  1  0
 13 12  2  0
 14 12  1  0
 15 14  1  0
 16 17  1  0
 16 15  1  0
 18 19  1  0
 18 17  1  1
 19  9  1  0
 20 18  1  0
 21 20  2  0
 22 20  1  0
 23 22  1  0
 23 24  1  6
 24 25  1  0
 25 26  2  0
 25 29  1  0
 26 27  1  0
 27 28  1  0
 29 28  2  0
 30 23  1  0
 30 31  1  0
 32 30  2  0
M  END
$$$$
