QRG.pdb
     RDKit          3D

 25 24  0  0  1  0  0  0  0  0999 V2000
   28.2870  -17.3530  -17.1106 N   0  0  0  0  0  0  0  0  0  0  0  0
   28.3239  -17.8837  -18.4276 C   0  0  0  0  0  0  0  0  0  0  0  0
   29.0079  -17.2558  -19.2656 O   0  0  0  0  0  0  0  0  0  0  0  0
   27.6046  -19.0920  -18.7934 C   0  0  0  0  0  0  0  0  0  0  0  0
   26.8649  -19.8221  -17.7467 C   0  0  0  0  0  0  0  0  0  0  0  0
   27.6474  -20.6500  -16.7903 C   0  0  2  0  0  0  0  0  0  0  0  0
   28.4172  -21.7119  -17.3391 N   0  0  0  0  0  0  0  0  0  0  0  0
   26.7858  -21.1986  -15.7094 C   0  0  0  0  0  0  0  0  0  0  0  0
   26.4194  -22.3959  -15.8393 O   0  0  0  0  0  0  0  0  0  0  0  0
   26.3062  -20.0734   -6.9269 N   0  0  0  0  0  0  0  0  0  0  0  0
   25.1013  -20.7580   -7.2751 C   0  0  0  0  0  0  0  0  0  0  0  0
   24.2240  -21.0052   -6.3627 N   0  0  0  0  0  0  0  0  0  0  0  0
   24.9109  -21.1473   -8.6214 N   0  0  0  0  0  0  0  0  0  0  0  0
   25.6374  -20.5012   -9.7052 C   0  0  0  0  0  0  0  0  0  0  0  0
   25.1598  -21.0464  -11.0334 C   0  0  0  0  0  0  0  0  0  0  0  0
   25.9735  -20.5219  -12.1780 C   0  0  0  0  0  0  0  0  0  0  0  0
   25.5148  -20.9795  -13.5310 C   0  0  2  0  0  0  0  0  0  0  0  0
   26.3837  -20.4619  -14.6006 N   0  0  0  0  0  0  0  0  0  0  0  0
   24.1311  -20.4643  -13.8265 C   0  0  0  0  0  0  0  0  0  0  0  0
   23.9064  -19.2363  -13.9760 O   0  0  0  0  0  0  0  0  0  0  0  0
   23.3661  -21.5408   -6.5915 N   0  0  0  0  0  0  0  0  0  0  0  0
   23.0166  -21.3343  -13.9501 C   0  0  0  0  0  0  0  0  0  0  0  0
   21.6857  -20.8669  -14.2334 C   0  0  0  0  0  0  0  0  0  0  0  0
   20.8406  -20.7732  -13.0255 O   0  0  0  0  0  0  0  0  0  0  0  0
   19.5292  -20.3308  -13.2131 O   0  0  0  0  0  0  0  0  0  0  0  0
  2  1  1  0
  2  4  1  0
  3  2  2  0
  5  4  1  0
  5  6  1  0
  6  8  1  0
  6  7  1  6
  8  9  2  0
 10 11  1  0
 11 13  1  0
 11 12  2  0
 13 14  1  0
 14 15  1  0
 17 16  1  1
 16 15  1  0
 18 17  1  0
 18  8  1  0
 19 20  2  0
 19 17  1  0
 21 19  1  0
 22 21  1  0
 23 24  1  0
 23 22  1  0
 25 23  2  0
M  END
$$$$
