QRG.pdb
     RDKit          3D

 25 24  0  0  1  0  0  0  0  0999 V2000
   25.2708  -20.5857  -19.7182 N   0  0  0  0  0  0  0  0  0  0  0  0
   26.6091  -20.2283  -19.4044 C   0  0  0  0  0  0  0  0  0  0  0  0
   27.2642  -19.6625  -20.3073 O   0  0  0  0  0  0  0  0  0  0  0  0
   27.1974  -20.5044  -18.1048 C   0  0  0  0  0  0  0  0  0  0  0  0
   26.3277  -21.0058  -17.0241 C   0  0  0  0  0  0  0  0  0  0  0  0
   26.8867  -22.0262  -16.0975 C   0  0  2  0  0  0  0  0  0  0  0  0
   27.0922  -23.3303  -16.6252 N   0  0  0  0  0  0  0  0  0  0  0  0
   26.0767  -22.1397  -14.8555 C   0  0  0  0  0  0  0  0  0  0  0  0
   25.3188  -23.1413  -14.7712 O   0  0  0  0  0  0  0  0  0  0  0  0
   23.7931  -21.5093   -7.9067 N   0  0  0  0  0  0  0  0  0  0  0  0
   24.7721  -20.8206   -7.1264 C   0  0  0  0  0  0  0  0  0  0  0  0
   24.7171  -20.8813   -5.8394 N   0  0  0  0  0  0  0  0  0  0  0  0
   25.7770  -20.0866   -7.7987 N   0  0  0  0  0  0  0  0  0  0  0  0
   26.4807  -20.6433   -8.9453 C   0  0  0  0  0  0  0  0  0  0  0  0
   25.5843  -20.5973  -10.1634 C   0  0  0  0  0  0  0  0  0  0  0  0
   26.2450  -21.2001  -11.3666 C   0  0  0  0  0  0  0  0  0  0  0  0
   25.3575  -21.3233  -12.5696 C   0  0  2  0  0  0  0  0  0  0  0  0
   26.1240  -21.2111  -13.8213 N   0  0  0  0  0  0  0  0  0  0  0  0
   24.3410  -20.2127  -12.5975 C   0  0  0  0  0  0  0  0  0  0  0  0
   24.6743  -19.0244  -12.8379 O   0  0  0  0  0  0  0  0  0  0  0  0
   25.3957  -20.3531   -5.2600 N   0  0  0  0  0  0  0  0  0  0  0  0
   22.9630  -20.4499  -12.3547 C   0  0  0  0  0  0  0  0  0  0  0  0
   22.1526  -21.2895  -13.1964 C   0  0  0  0  0  0  0  0  0  0  0  0
   21.4868  -20.5420  -14.2828 O   0  0  0  0  0  0  0  0  0  0  0  0
   20.6918  -21.2860  -15.1572 O   0  0  0  0  0  0  0  0  0  0  0  0
  2  1  1  0
  2  4  1  0
  3  2  2  0
  5  4  1  0
  5  6  1  0
  6  8  1  0
  6  7  1  6
  8  9  2  0
 10 11  1  0
 11 13  1  0
 11 12  2  0
 13 14  1  0
 14 15  1  0
 17 16  1  1
 16 15  1  0
 18 17  1  0
 18  8  1  0
 19 20  2  0
 19 17  1  0
 21 19  1  0
 22 21  1  0
 23 24  1  0
 23 22  1  0
 25 23  2  0
M  END
$$$$
