QRG.pdb
     RDKit          3D

 25 24  0  0  1  0  0  0  0  0999 V2000
   23.2421  -19.7342  -16.8705 N   0  0  0  0  0  0  0  0  0  0  0  0
   23.9092  -20.2985  -17.9903 C   0  0  0  0  0  0  0  0  0  0  0  0
   23.1924  -20.6331  -18.9592 O   0  0  0  0  0  0  0  0  0  0  0  0
   25.3500  -20.4847  -18.0173 C   0  0  0  0  0  0  0  0  0  0  0  0
   26.1452  -20.0383  -16.8579 C   0  0  0  0  0  0  0  0  0  0  0  0
   26.9522  -21.0563  -16.1338 C   0  0  2  0  0  0  0  0  0  0  0  0
   27.4045  -22.1737  -16.8876 N   0  0  0  0  0  0  0  0  0  0  0  0
   26.2456  -21.5553  -14.9241 C   0  0  0  0  0  0  0  0  0  0  0  0
   25.7049  -22.6882  -15.0193 O   0  0  0  0  0  0  0  0  0  0  0  0
   26.2792  -19.9466   -6.1393 N   0  0  0  0  0  0  0  0  0  0  0  0
   27.3455  -20.1319   -7.0723 C   0  0  0  0  0  0  0  0  0  0  0  0
   28.5656  -20.1153   -6.6551 N   0  0  0  0  0  0  0  0  0  0  0  0
   27.0234  -20.3269   -8.4356 N   0  0  0  0  0  0  0  0  0  0  0  0
   25.6440  -20.2858   -8.9000 C   0  0  0  0  0  0  0  0  0  0  0  0
   25.4517  -21.2936  -10.0122 C   0  0  0  0  0  0  0  0  0  0  0  0
   26.1344  -20.8671  -11.2769 C   0  0  0  0  0  0  0  0  0  0  0  0
   25.4449  -21.3036  -12.5357 C   0  0  2  0  0  0  0  0  0  0  0  0
   26.1627  -20.8400  -13.7344 N   0  0  0  0  0  0  0  0  0  0  0  0
   24.0624  -20.7124  -12.6181 C   0  0  0  0  0  0  0  0  0  0  0  0
   23.8844  -19.4919  -12.8621 O   0  0  0  0  0  0  0  0  0  0  0  0
   29.3498  -20.2370   -7.3225 N   0  0  0  0  0  0  0  0  0  0  0  0
   22.8970  -21.4989  -12.4250 C   0  0  0  0  0  0  0  0  0  0  0  0
   21.7527  -21.4300  -13.2945 C   0  0  0  0  0  0  0  0  0  0  0  0
   20.6914  -20.5419  -12.7778 O   0  0  0  0  0  0  0  0  0  0  0  0
   19.5443  -20.4158  -13.5643 O   0  0  0  0  0  0  0  0  0  0  0  0
  2  1  1  0
  2  4  1  0
  3  2  2  0
  5  4  1  0
  5  6  1  0
  6  8  1  0
  6  7  1  6
  8  9  2  0
 10 11  1  0
 11 13  1  0
 11 12  2  0
 13 14  1  0
 14 15  1  0
 17 16  1  1
 16 15  1  0
 18 17  1  0
 18  8  1  0
 19 20  2  0
 19 17  1  0
 21 19  1  0
 22 21  1  0
 23 24  1  0
 23 22  1  0
 25 23  2  0
M  END
$$$$
