QRG.pdb
     RDKit          3D

 25 24  0  0  1  0  0  0  0  0999 V2000
   28.2679  -20.1570  -19.8033 N   0  0  0  0  0  0  0  0  0  0  0  0
   28.5828  -18.9143  -19.1920 C   0  0  0  0  0  0  0  0  0  0  0  0
   29.4458  -18.2118  -19.7631 O   0  0  0  0  0  0  0  0  0  0  0  0
   27.9428  -18.4738  -17.9640 C   0  0  0  0  0  0  0  0  0  0  0  0
   26.9103  -19.3328  -17.3542 C   0  0  0  0  0  0  0  0  0  0  0  0
   27.3566  -20.4047  -16.4247 C   0  0  2  0  0  0  0  0  0  0  0  0
   27.7592  -21.6366  -17.0093 N   0  0  0  0  0  0  0  0  0  0  0  0
   26.3334  -20.6865  -15.3829 C   0  0  0  0  0  0  0  0  0  0  0  0
   25.4398  -21.5195  -15.6870 O   0  0  0  0  0  0  0  0  0  0  0  0
   22.2977  -22.0473  -10.3409 N   0  0  0  0  0  0  0  0  0  0  0  0
   22.5547  -21.6136   -9.0039 C   0  0  0  0  0  0  0  0  0  0  0  0
   21.6329  -21.7298   -8.1095 N   0  0  0  0  0  0  0  0  0  0  0  0
   23.8230  -21.0640   -8.7044 N   0  0  0  0  0  0  0  0  0  0  0  0
   24.9292  -21.1577   -9.6464 C   0  0  0  0  0  0  0  0  0  0  0  0
   24.8587  -20.0094  -10.6293 C   0  0  0  0  0  0  0  0  0  0  0  0
   25.8870  -20.1372  -11.7127 C   0  0  0  0  0  0  0  0  0  0  0  0
   25.3228  -20.3455  -13.0869 C   0  0  2  0  0  0  0  0  0  0  0  0
   26.3279  -20.0831  -14.1300 N   0  0  0  0  0  0  0  0  0  0  0  0
   24.1875  -19.3911  -13.3467 C   0  0  0  0  0  0  0  0  0  0  0  0
   24.3855  -18.1564  -13.4781 O   0  0  0  0  0  0  0  0  0  0  0  0
   21.8118  -21.4370   -7.1310 N   0  0  0  0  0  0  0  0  0  0  0  0
   22.8438  -19.8347  -13.4555 C   0  0  0  0  0  0  0  0  0  0  0  0
   21.7382  -18.9391  -13.6695 C   0  0  0  0  0  0  0  0  0  0  0  0
   20.4377  -19.6369  -13.7317 O   0  0  0  0  0  0  0  0  0  0  0  0
   19.2987  -18.8312  -13.7962 O   0  0  0  0  0  0  0  0  0  0  0  0
  2  1  1  0
  2  4  1  0
  3  2  2  0
  5  4  1  0
  5  6  1  0
  6  8  1  0
  6  7  1  6
  8  9  2  0
 10 11  1  0
 11 13  1  0
 11 12  2  0
 13 14  1  0
 14 15  1  0
 17 16  1  1
 16 15  1  0
 18 17  1  0
 18  8  1  0
 19 20  2  0
 19 17  1  0
 21 19  1  0
 22 21  1  0
 23 24  1  0
 23 22  1  0
 25 23  2  0
M  END
$$$$
