QRG.pdb
     RDKit          3D

 25 24  0  0  1  0  0  0  0  0999 V2000
   27.5288  -13.7620  -19.3467 N   0  0  0  0  0  0  0  0  0  0  0  0
   26.8503  -14.1776  -20.5232 C   0  0  0  0  0  0  0  0  0  0  0  0
   27.1756  -13.6080  -21.5882 O   0  0  0  0  0  0  0  0  0  0  0  0
   25.8267  -15.2086  -20.5007 C   0  0  0  0  0  0  0  0  0  0  0  0
   25.4469  -15.8036  -19.2055 C   0  0  0  0  0  0  0  0  0  0  0  0
   26.2251  -16.9757  -18.7230 C   0  0  2  0  0  0  0  0  0  0  0  0
   26.7901  -17.8246  -19.7138 N   0  0  0  0  0  0  0  0  0  0  0  0
   25.4314  -17.8093  -17.7813 C   0  0  0  0  0  0  0  0  0  0  0  0
   24.7843  -18.7632  -18.2873 O   0  0  0  0  0  0  0  0  0  0  0  0
   27.1499  -21.6948  -12.3094 N   0  0  0  0  0  0  0  0  0  0  0  0
   26.4261  -20.7974  -11.4652 C   0  0  0  0  0  0  0  0  0  0  0  0
   25.7363  -21.2663  -10.4817 N   0  0  0  0  0  0  0  0  0  0  0  0
   26.4895  -19.4116  -11.7412 N   0  0  0  0  0  0  0  0  0  0  0  0
   27.4021  -18.8815  -12.7442 C   0  0  0  0  0  0  0  0  0  0  0  0
   26.7619  -18.9715  -14.1123 C   0  0  0  0  0  0  0  0  0  0  0  0
   25.3595  -18.4415  -14.1090 C   0  0  0  0  0  0  0  0  0  0  0  0
   24.6854  -18.4520  -15.4491 C   0  0  2  0  0  0  0  0  0  0  0  0
   25.3794  -17.5798  -16.4107 N   0  0  0  0  0  0  0  0  0  0  0  0
   23.2789  -17.9251  -15.3418 C   0  0  0  0  0  0  0  0  0  0  0  0
   23.0313  -16.6951  -15.4228 O   0  0  0  0  0  0  0  0  0  0  0  0
   25.2140  -20.6262   -9.8552 N   0  0  0  0  0  0  0  0  0  0  0  0
   22.1678  -18.7858  -15.1445 C   0  0  0  0  0  0  0  0  0  0  0  0
   20.8158  -18.3064  -15.0330 C   0  0  0  0  0  0  0  0  0  0  0  0
   20.1374  -18.1922  -16.3403 O   0  0  0  0  0  0  0  0  0  0  0  0
   18.7833  -17.8512  -16.3139 O   0  0  0  0  0  0  0  0  0  0  0  0
  2  1  1  0
  2  4  1  0
  3  2  2  0
  5  4  1  0
  5  6  1  0
  6  8  1  0
  6  7  1  6
  8  9  2  0
 10 11  1  0
 11 13  1  0
 11 12  2  0
 13 14  1  0
 14 15  1  0
 17 16  1  1
 16 15  1  0
 18 17  1  0
 18  8  1  0
 19 20  2  0
 19 17  1  0
 21 19  1  0
 22 21  1  0
 23 24  1  0
 23 22  1  0
 25 23  2  0
M  END
$$$$
