QRG.pdb
     RDKit          3D

 25 24  0  0  1  0  0  0  0  0999 V2000
   29.7998  -21.2409  -18.4325 N   0  0  0  0  0  0  0  0  0  0  0  0
   28.4177  -20.9153  -18.4003 C   0  0  0  0  0  0  0  0  0  0  0  0
   28.1268  -19.7362  -18.1010 O   0  0  0  0  0  0  0  0  0  0  0  0
   27.3866  -21.8957  -18.6952 C   0  0  0  0  0  0  0  0  0  0  0  0
   26.2233  -21.9952  -17.7937 C   0  0  0  0  0  0  0  0  0  0  0  0
   26.4298  -22.6126  -16.4564 C   0  0  2  0  0  0  0  0  0  0  0  0
   26.6888  -24.0103  -16.4262 N   0  0  0  0  0  0  0  0  0  0  0  0
   25.2971  -22.3206  -15.5381 C   0  0  0  0  0  0  0  0  0  0  0  0
   24.4037  -23.2034  -15.4531 O   0  0  0  0  0  0  0  0  0  0  0  0
   24.0205  -21.2467   -7.4053 N   0  0  0  0  0  0  0  0  0  0  0  0
   22.7758  -21.2522   -8.1071 C   0  0  0  0  0  0  0  0  0  0  0  0
   21.7066  -21.6452   -7.5025 N   0  0  0  0  0  0  0  0  0  0  0  0
   22.7588  -20.8243   -9.4551 N   0  0  0  0  0  0  0  0  0  0  0  0
   23.9782  -20.4028  -10.1299 C   0  0  0  0  0  0  0  0  0  0  0  0
   23.6479  -19.9318  -11.5295 C   0  0  0  0  0  0  0  0  0  0  0  0
   24.6822  -20.3664  -12.5239 C   0  0  0  0  0  0  0  0  0  0  0  0
   24.1257  -20.8762  -13.8204 C   0  0  2  0  0  0  0  0  0  0  0  0
   25.1926  -21.1482  -14.7974 N   0  0  0  0  0  0  0  0  0  0  0  0
   23.2262  -19.8485  -14.4546 C   0  0  0  0  0  0  0  0  0  0  0  0
   23.6899  -18.7997  -14.9701 O   0  0  0  0  0  0  0  0  0  0  0  0
   20.7879  -21.6039   -7.9815 N   0  0  0  0  0  0  0  0  0  0  0  0
   21.8171  -20.0110  -14.5017 C   0  0  0  0  0  0  0  0  0  0  0  0
   20.9300  -19.0072  -15.0265 C   0  0  0  0  0  0  0  0  0  0  0  0
   19.5142  -19.4283  -15.0136 O   0  0  0  0  0  0  0  0  0  0  0  0
   18.5705  -18.4586  -15.3591 O   0  0  0  0  0  0  0  0  0  0  0  0
  2  1  1  0
  2  4  1  0
  3  2  2  0
  5  4  1  0
  5  6  1  0
  6  8  1  0
  6  7  1  6
  8  9  2  0
 10 11  1  0
 11 13  1  0
 11 12  2  0
 13 14  1  0
 14 15  1  0
 17 16  1  1
 16 15  1  0
 18 17  1  0
 18  8  1  0
 19 20  2  0
 19 17  1  0
 21 19  1  0
 22 21  1  0
 23 24  1  0
 23 22  1  0
 25 23  2  0
M  END
$$$$
