QRG.pdb
     RDKit          3D

 25 24  0  0  1  0  0  0  0  0999 V2000
   27.2586  -10.9332  -14.9361 N   0  0  0  0  0  0  0  0  0  0  0  0
   27.1587  -11.8523  -16.0143 C   0  0  0  0  0  0  0  0  0  0  0  0
   28.0996  -12.6659  -16.1459 O   0  0  0  0  0  0  0  0  0  0  0  0
   26.0268  -11.8535  -16.9254 C   0  0  0  0  0  0  0  0  0  0  0  0
   24.9815  -10.8259  -16.7600 C   0  0  0  0  0  0  0  0  0  0  0  0
   23.5612  -11.2543  -16.8670 C   0  0  2  0  0  0  0  0  0  0  0  0
   23.2106  -12.0433  -17.9965 N   0  0  0  0  0  0  0  0  0  0  0  0
   22.6329  -10.0948  -16.7922 C   0  0  0  0  0  0  0  0  0  0  0  0
   22.2576   -9.6068  -17.8903 O   0  0  0  0  0  0  0  0  0  0  0  0
   18.8521  -13.1158  -15.5736 N   0  0  0  0  0  0  0  0  0  0  0  0
   17.6788  -12.7035  -16.2772 C   0  0  0  0  0  0  0  0  0  0  0  0
   17.0551  -13.5496  -17.0245 N   0  0  0  0  0  0  0  0  0  0  0  0
   17.2381  -11.3675  -16.1306 N   0  0  0  0  0  0  0  0  0  0  0  0
   17.9014  -10.4486  -15.2165 C   0  0  0  0  0  0  0  0  0  0  0  0
   19.1827   -9.9441  -15.8436 C   0  0  0  0  0  0  0  0  0  0  0  0
   19.8829   -8.9526  -14.9637 C   0  0  0  0  0  0  0  0  0  0  0  0
   21.1952   -8.4610  -15.4990 C   0  0  2  0  0  0  0  0  0  0  0  0
   22.1820   -9.5490  -15.5952 N   0  0  0  0  0  0  0  0  0  0  0  0
   21.7933   -7.4304  -14.5783 C   0  0  0  0  0  0  0  0  0  0  0  0
   22.4032   -7.7624  -13.5301 O   0  0  0  0  0  0  0  0  0  0  0  0
   16.1922  -13.2695  -17.5264 N   0  0  0  0  0  0  0  0  0  0  0  0
   21.6990   -6.0398  -14.8458 C   0  0  0  0  0  0  0  0  0  0  0  0
   22.1381   -5.0321  -13.9175 C   0  0  0  0  0  0  0  0  0  0  0  0
   21.9569   -3.6593  -14.4319 O   0  0  0  0  0  0  0  0  0  0  0  0
   22.2857   -2.6174  -13.5619 O   0  0  0  0  0  0  0  0  0  0  0  0
  2  1  1  0
  2  4  1  0
  3  2  2  0
  5  4  1  0
  5  6  1  0
  6  8  1  0
  6  7  1  6
  8  9  2  0
 10 11  1  0
 11 13  1  0
 11 12  2  0
 13 14  1  0
 14 15  1  0
 17 16  1  1
 16 15  1  0
 18 17  1  0
 18  8  1  0
 19 20  2  0
 19 17  1  0
 21 19  1  0
 22 21  1  0
 23 24  1  0
 23 22  1  0
 25 23  2  0
M  END
$$$$
