QRG.pdb
     RDKit          3D

 25 24  0  0  1  0  0  0  0  0999 V2000
   17.1463  -24.6893  -13.5986 N   0  0  0  0  0  0  0  0  0  0  0  0
   16.4401  -23.4702  -13.7782 C   0  0  0  0  0  0  0  0  0  0  0  0
   15.3298  -23.3770  -13.2098 O   0  0  0  0  0  0  0  0  0  0  0  0
   16.9703  -22.3821  -14.5821 C   0  0  0  0  0  0  0  0  0  0  0  0
   17.4673  -21.1725  -13.8998 C   0  0  0  0  0  0  0  0  0  0  0  0
   18.3032  -21.3535  -12.6829 C   0  0  2  0  0  0  0  0  0  0  0  0
   17.7128  -21.0003  -11.4387 N   0  0  0  0  0  0  0  0  0  0  0  0
   19.6075  -20.6497  -12.8054 C   0  0  0  0  0  0  0  0  0  0  0  0
   19.6150  -19.4282  -12.5013 O   0  0  0  0  0  0  0  0  0  0  0  0
   27.5519  -21.9919  -13.0434 N   0  0  0  0  0  0  0  0  0  0  0  0
   27.4238  -20.5733  -13.1573 C   0  0  0  0  0  0  0  0  0  0  0  0
   28.1127  -19.9419  -14.0461 N   0  0  0  0  0  0  0  0  0  0  0  0
   26.5388  -19.9028  -12.2811 N   0  0  0  0  0  0  0  0  0  0  0  0
   25.2809  -20.5084  -11.8678 C   0  0  0  0  0  0  0  0  0  0  0  0
   24.5690  -21.0767  -13.0761 C   0  0  0  0  0  0  0  0  0  0  0  0
   23.1744  -21.5172  -12.7470 C   0  0  0  0  0  0  0  0  0  0  0  0
   22.0955  -20.6169  -13.2722 C   0  0  2  0  0  0  0  0  0  0  0  0
   20.7772  -21.2706  -13.2301 N   0  0  0  0  0  0  0  0  0  0  0  0
   22.3474  -20.2697  -14.7156 C   0  0  0  0  0  0  0  0  0  0  0  0
   22.1482  -21.1037  -15.6352 O   0  0  0  0  0  0  0  0  0  0  0  0
   28.0046  -18.9173  -14.1628 N   0  0  0  0  0  0  0  0  0  0  0  0
   22.8201  -18.9906  -15.1086 C   0  0  0  0  0  0  0  0  0  0  0  0
   23.0165  -18.6168  -16.4841 C   0  0  0  0  0  0  0  0  0  0  0  0
   24.2793  -19.1377  -17.0462 O   0  0  0  0  0  0  0  0  0  0  0  0
   25.0997  -19.8594  -16.1764 O   0  0  0  0  0  0  0  0  0  0  0  0
  2  1  1  0
  2  4  1  0
  3  2  2  0
  5  4  1  0
  5  6  1  0
  6  8  1  0
  6  7  1  1
  8  9  2  0
 10 11  1  0
 11 13  1  0
 11 12  2  0
 13 14  1  0
 14 15  1  0
 17 16  1  6
 16 15  1  0
 18 17  1  0
 18  8  1  0
 19 20  2  0
 19 17  1  0
 21 19  1  0
 22 21  1  0
 23 24  1  0
 23 22  1  0
 25 23  2  0
M  END
$$$$
