QRG.pdb
     RDKit          3D

 25 24  0  0  1  0  0  0  0  0999 V2000
   20.7052  -27.3943  -17.1740 N   0  0  0  0  0  0  0  0  0  0  0  0
   22.0482  -27.7479  -17.4715 C   0  0  0  0  0  0  0  0  0  0  0  0
   22.2420  -28.9112  -17.8884 O   0  0  0  0  0  0  0  0  0  0  0  0
   23.1484  -26.8142  -17.3006 C   0  0  0  0  0  0  0  0  0  0  0  0
   22.8503  -25.4403  -16.8540 C   0  0  0  0  0  0  0  0  0  0  0  0
   23.9885  -24.5877  -16.4182 C   0  0  2  0  0  0  0  0  0  0  0  0
   25.2594  -25.2163  -16.3124 N   0  0  0  0  0  0  0  0  0  0  0  0
   23.6937  -23.8956  -15.1353 C   0  0  0  0  0  0  0  0  0  0  0  0
   23.9922  -24.5177  -14.0824 O   0  0  0  0  0  0  0  0  0  0  0  0
   28.6462  -18.6504  -14.3352 N   0  0  0  0  0  0  0  0  0  0  0  0
   27.7946  -19.2407  -15.3192 C   0  0  0  0  0  0  0  0  0  0  0  0
   27.9923  -18.9843  -16.5675 N   0  0  0  0  0  0  0  0  0  0  0  0
   26.7522  -20.0929  -14.8862 N   0  0  0  0  0  0  0  0  0  0  0  0
   26.5452  -20.3766  -13.4732 C   0  0  0  0  0  0  0  0  0  0  0  0
   25.4348  -21.3923  -13.3159 C   0  0  0  0  0  0  0  0  0  0  0  0
   24.1023  -20.8289  -13.7090 C   0  0  0  0  0  0  0  0  0  0  0  0
   23.0041  -21.8446  -13.8213 C   0  0  2  0  0  0  0  0  0  0  0  0
   23.1193  -22.6313  -15.0601 N   0  0  0  0  0  0  0  0  0  0  0  0
   21.6586  -21.1705  -13.8744 C   0  0  0  0  0  0  0  0  0  0  0  0
   21.4095  -20.2687  -14.7144 O   0  0  0  0  0  0  0  0  0  0  0  0
   27.3554  -19.3697  -17.2893 N   0  0  0  0  0  0  0  0  0  0  0  0
   20.6097  -21.5169  -12.9834 C   0  0  0  0  0  0  0  0  0  0  0  0
   19.3074  -21.9338  -13.4311 C   0  0  0  0  0  0  0  0  0  0  0  0
   18.7571  -23.0505  -12.6359 O   0  0  0  0  0  0  0  0  0  0  0  0
   17.4529  -23.4490  -12.9373 O   0  0  0  0  0  0  0  0  0  0  0  0
  2  1  1  0
  2  4  1  0
  3  2  2  0
  5  4  1  0
  5  6  1  0
  6  8  1  0
  6  7  1  1
  8  9  2  0
 10 11  1  0
 11 13  1  0
 11 12  2  0
 13 14  1  0
 14 15  1  0
 17 16  1  6
 16 15  1  0
 18 17  1  0
 18  8  1  0
 19 20  2  0
 19 17  1  0
 21 19  1  0
 22 21  1  0
 23 24  1  0
 23 22  1  0
 25 23  2  0
M  END
$$$$
