RRW.pdb
     RDKit          3D

 37 38  0  0  1  0  0  0  0  0999 V2000
   12.7315  -19.5077   14.9121 N   0  0  0  0  0  0  0  0  0  0  0  0
   11.3339  -19.3420   15.2435 C   0  0  0  0  0  0  0  0  0  0  0  0
   10.4245  -19.9188   14.5492 N   0  0  0  0  0  0  0  0  0  0  0  0
   10.9627  -18.5335   16.3481 N   0  0  0  0  0  0  0  0  0  0  0  0
   11.7188  -18.5277   17.5749 C   0  0  0  0  0  0  0  0  0  0  0  0
   11.0498  -17.6441   18.6054 C   0  0  0  0  0  0  0  0  0  0  0  0
   10.4629  -18.4472   19.7300 C   0  0  0  0  0  0  0  0  0  0  0  0
    8.9904  -18.2606   19.8628 C   0  0  2  0  0  0  0  0  0  0  0  0
    8.5663  -17.1834   18.9670 N   0  0  0  0  0  0  0  0  0  0  0  0
    8.5260  -17.9649   21.2403 C   0  0  0  0  0  0  0  0  0  0  0  0
    7.9306  -16.9062   21.5330 O   0  0  0  0  0  0  0  0  0  0  0  0
    9.4297  -19.6553   14.6474 N   0  0  0  0  0  0  0  0  0  0  0  0
    9.8167  -23.4053   22.8690 C   0  0  0  0  0  0  0  0  0  0  0  0
    9.8915  -23.8069   24.2295 N   0  0  0  0  0  0  0  0  0  0  0  0
   10.7805  -24.7050   24.5421 N   0  0  0  0  0  0  0  0  0  0  0  0
    9.0352  -23.2631   25.2217 C   0  0  0  0  0  0  0  0  0  0  0  0
    8.0318  -22.2904   24.8771 C   0  0  0  0  0  0  0  0  0  0  0  0
    8.5556  -20.9423   24.5401 C   0  0  0  0  0  0  0  0  0  0  0  0
    7.5328  -19.9079   24.2042 C   0  0  1  0  0  0  0  0  0  0  0  0
    8.2153  -18.6486   23.6448 N   0  0  0  0  0  0  0  0  0  0  0  0
    8.7326  -18.8771   22.3198 C   0  0  0  0  0  0  0  0  0  0  0  0
    9.2669  -18.1673   24.5758 O   0  0  0  0  0  0  0  0  0  0  0  0
   10.4251  -18.6848   24.5975 N   0  0  0  0  0  0  0  0  0  0  0  0
   10.8402  -25.0750   25.5036 C   0  0  2  0  0  0  0  0  0  0  0  0
    9.0608  -17.1048   25.5022 C   0  0  0  0  0  0  0  0  0  0  0  0
   10.1323  -16.5892   26.3302 C   0  0  0  0  0  0  0  0  0  0  0  0
    9.7712  -15.2497   26.9365 C   0  0  0  0  0  0  0  0  0  0  0  0
    8.7769  -14.5663   26.0723 N   0  0  0  0  0  0  0  0  0  0  0  0
    8.6386  -14.6405   24.6858 C   0  0  0  0  0  0  0  0  0  0  0  0
    7.6067  -13.8616   24.3025 C   0  0  0  0  0  0  0  0  0  0  0  0
    7.0450  -13.2675   25.3663 C   0  0  0  0  0  0  0  0  0  0  0  0
    5.9877  -12.3971   25.5108 C   0  0  0  0  0  0  0  0  0  0  0  0
    5.6683  -11.9700   26.7784 C   0  0  0  0  0  0  0  0  0  0  0  0
    6.3779  -12.3927   27.8868 C   0  0  0  0  0  0  0  0  0  0  0  0
    7.4296  -13.2623   27.7145 C   0  0  0  0  0  0  0  0  0  0  0  0
    7.7760  -13.7072   26.4755 O   0  0  0  0  0  0  0  0  0  0  0  0
   10.3996  -17.5615   27.4011 O   0  0  0  0  0  0  0  0  0  0  0  0
  2  3  2  0
  2  1  1  0
  4  2  1  0
  5  4  1  0
  6  5  1  0
  7  6  1  0
  8 10  1  0
  8  7  1  0
  8  9  1  6
 10 20  1  0
 10 11  2  0
 12 13  1  0
 13 14  2  0
 15 13  1  0
 16 15  1  0
 17 16  1  0
 18 17  1  0
 19 18  1  6
 19 21  1  0
 20 19  1  0
 21 23  1  0
 21 22  2  0
 23 24  1  0
 24 35  1  0
 24 25  1  1
 26 25  1  0
 27 26  2  0
 28 29  1  0
 28 27  1  0
 29 34  2  0
 30 29  1  0
 30 31  2  0
 31 32  1  0
 32 33  2  0
 34 26  1  0
 34 33  1  0
 35 37  1  0
 36 35  2  0
M  END
$$$$
