RRW.pdb
     RDKit          3D

 37 38  0  0  1  0  0  0  0  0999 V2000
   13.9781  -15.2202   14.0284 N   0  0  0  0  0  0  0  0  0  0  0  0
   13.1678  -16.2896   13.4895 C   0  0  0  0  0  0  0  0  0  0  0  0
   13.1838  -16.5540   12.2358 N   0  0  0  0  0  0  0  0  0  0  0  0
   12.3459  -17.0558   14.3550 N   0  0  0  0  0  0  0  0  0  0  0  0
   12.3451  -16.8517   15.7816 C   0  0  0  0  0  0  0  0  0  0  0  0
   13.4506  -17.6548   16.4323 C   0  0  0  0  0  0  0  0  0  0  0  0
   13.5192  -17.4099   17.9120 C   0  0  0  0  0  0  0  0  0  0  0  0
   12.3302  -17.9384   18.6384 C   0  0  2  0  0  0  0  0  0  0  0  0
   11.3174  -18.3402   17.6609 N   0  0  0  0  0  0  0  0  0  0  0  0
   11.7274  -16.9924   19.6092 C   0  0  0  0  0  0  0  0  0  0  0  0
   12.1147  -15.8097   19.7197 O   0  0  0  0  0  0  0  0  0  0  0  0
   12.5795  -17.2923   11.8378 N   0  0  0  0  0  0  0  0  0  0  0  0
    8.1511  -12.6735   17.6687 C   0  0  0  0  0  0  0  0  0  0  0  0
    7.9831  -13.9361   17.0399 N   0  0  0  0  0  0  0  0  0  0  0  0
    8.3738  -14.0472   15.8031 N   0  0  0  0  0  0  0  0  0  0  0  0
    7.4096  -15.0428   17.7177 C   0  0  0  0  0  0  0  0  0  0  0  0
    7.4806  -15.1467   19.1516 C   0  0  0  0  0  0  0  0  0  0  0  0
    8.7729  -15.6528   19.6799 C   0  0  0  0  0  0  0  0  0  0  0  0
    8.8341  -15.8778   21.1545 C   0  0  2  0  0  0  0  0  0  0  0  0
   10.1725  -16.5315   21.5366 N   0  0  0  0  0  0  0  0  0  0  0  0
   10.6630  -17.3788   20.4797 C   0  0  0  0  0  0  0  0  0  0  0  0
   10.0478  -17.2637   22.8222 O   0  0  0  0  0  0  0  0  0  0  0  0
    9.4009  -18.3517   22.9092 N   0  0  0  0  0  0  0  0  0  0  0  0
    8.3401  -14.9583   15.3198 C   0  0  2  0  0  0  0  0  0  0  0  0
   10.6348  -16.8092   24.0381 C   0  0  0  0  0  0  0  0  0  0  0  0
    9.8727  -16.0846   25.0350 C   0  0  0  0  0  0  0  0  0  0  0  0
    9.1872  -14.8735   24.4389 C   0  0  0  0  0  0  0  0  0  0  0  0
    8.1842  -14.3491   25.3990 N   0  0  0  0  0  0  0  0  0  0  0  0
    7.4478  -15.0529   26.3525 C   0  0  0  0  0  0  0  0  0  0  0  0
    6.6482  -14.1932   27.0158 C   0  0  0  0  0  0  0  0  0  0  0  0
    6.8127  -12.9447   26.5529 C   0  0  0  0  0  0  0  0  0  0  0  0
    6.2462  -11.7342   26.8843 C   0  0  0  0  0  0  0  0  0  0  0  0
    6.6516  -10.6175   26.1916 C   0  0  0  0  0  0  0  0  0  0  0  0
    7.5996  -10.6904   25.1884 C   0  0  0  0  0  0  0  0  0  0  0  0
    8.1496  -11.9121   24.8771 C   0  0  0  0  0  0  0  0  0  0  0  0
    7.7739  -13.0398   25.5404 O   0  0  0  0  0  0  0  0  0  0  0  0
    8.8656  -16.9952   25.6009 O   0  0  0  0  0  0  0  0  0  0  0  0
  2  3  2  0
  2  1  1  0
  4  2  1  0
  5  4  1  0
  6  5  1  0
  7  6  1  0
  8 10  1  0
  8  7  1  0
  8  9  1  6
 10 20  1  0
 10 11  2  0
 12 13  1  0
 13 14  2  0
 15 13  1  0
 16 15  1  0
 17 16  1  0
 18 17  1  0
 19 18  1  6
 19 21  1  0
 20 19  1  0
 21 23  1  0
 21 22  2  0
 23 24  1  0
 24 35  1  0
 24 25  1  1
 26 25  1  0
 27 26  2  0
 28 29  1  0
 28 27  1  0
 29 34  2  0
 30 29  1  0
 30 31  2  0
 31 32  1  0
 32 33  2  0
 34 26  1  0
 34 33  1  0
 35 37  1  0
 36 35  2  0
M  END
$$$$
