RRW.pdb
     RDKit          3D

 37 38  0  0  1  0  0  0  0  0999 V2000
   14.9548  -17.0406   16.3951 N   0  0  0  0  0  0  0  0  0  0  0  0
   13.9551  -17.8660   15.7549 C   0  0  0  0  0  0  0  0  0  0  0  0
   13.1601  -17.3703   14.8808 N   0  0  0  0  0  0  0  0  0  0  0  0
   13.8510  -19.2388   16.0958 N   0  0  0  0  0  0  0  0  0  0  0  0
   14.0859  -19.7094   17.4375 C   0  0  0  0  0  0  0  0  0  0  0  0
   12.8354  -19.5621   18.2771 C   0  0  0  0  0  0  0  0  0  0  0  0
   13.0535  -20.0298   19.6870 C   0  0  0  0  0  0  0  0  0  0  0  0
   11.8221  -19.9369   20.5210 C   0  0  2  0  0  0  0  0  0  0  0  0
   10.7498  -20.6904   19.8689 N   0  0  0  0  0  0  0  0  0  0  0  0
   11.3580  -18.5533   20.7872 C   0  0  0  0  0  0  0  0  0  0  0  0
   11.9053  -17.5537   20.2750 O   0  0  0  0  0  0  0  0  0  0  0  0
   12.3946  -17.9338   14.4743 N   0  0  0  0  0  0  0  0  0  0  0  0
    8.0065  -13.1632   15.6873 C   0  0  0  0  0  0  0  0  0  0  0  0
    8.0309  -13.5415   17.0563 N   0  0  0  0  0  0  0  0  0  0  0  0
    7.1360  -13.0138   17.8407 N   0  0  0  0  0  0  0  0  0  0  0  0
    8.9895  -14.4547   17.5666 C   0  0  0  0  0  0  0  0  0  0  0  0
    8.5764  -15.6435   18.2651 C   0  0  0  0  0  0  0  0  0  0  0  0
    8.8075  -15.6206   19.7319 C   0  0  0  0  0  0  0  0  0  0  0  0
    8.5958  -16.9133   20.4481 C   0  0  2  0  0  0  0  0  0  0  0  0
    9.5539  -17.0195   21.6462 N   0  0  0  0  0  0  0  0  0  0  0  0
   10.2524  -18.2795   21.6490 C   0  0  0  0  0  0  0  0  0  0  0  0
    8.8263  -16.7855   22.9190 O   0  0  0  0  0  0  0  0  0  0  0  0
    7.7380  -17.3817   23.1837 N   0  0  0  0  0  0  0  0  0  0  0  0
    7.0876  -13.2775   18.8372 C   0  0  2  0  0  0  0  0  0  0  0  0
    9.2855  -15.8881   23.9257 C   0  0  0  0  0  0  0  0  0  0  0  0
    8.4008  -15.3575   24.9432 C   0  0  0  0  0  0  0  0  0  0  0  0
    9.1085  -14.3511   25.8256 C   0  0  0  0  0  0  0  0  0  0  0  0
    9.9415  -15.0666   26.8240 N   0  0  0  0  0  0  0  0  0  0  0  0
   10.8408  -16.1120   26.6115 C   0  0  0  0  0  0  0  0  0  0  0  0
   11.3870  -16.4714   27.7909 C   0  0  0  0  0  0  0  0  0  0  0  0
   10.8969  -15.7166   28.7860 C   0  0  0  0  0  0  0  0  0  0  0  0
   11.1238  -15.6839   30.1438 C   0  0  0  0  0  0  0  0  0  0  0  0
   10.4346  -14.7600   30.8940 C   0  0  0  0  0  0  0  0  0  0  0  0
    9.5363  -13.8818   30.3175 C   0  0  0  0  0  0  0  0  0  0  0  0
    9.3283  -13.9357   28.9589 C   0  0  0  0  0  0  0  0  0  0  0  0
    9.9916  -14.8364   28.1831 O   0  0  0  0  0  0  0  0  0  0  0  0
    7.2591  -14.7139   24.2753 O   0  0  0  0  0  0  0  0  0  0  0  0
  2  3  2  0
  2  1  1  0
  4  2  1  0
  5  4  1  0
  6  5  1  0
  7  6  1  0
  8 10  1  0
  8  7  1  0
  8  9  1  6
 10 20  1  0
 10 11  2  0
 12 13  1  0
 13 14  2  0
 15 13  1  0
 16 15  1  0
 17 16  1  0
 18 17  1  0
 19 18  1  6
 19 21  1  0
 20 19  1  0
 21 23  1  0
 21 22  2  0
 23 24  1  0
 24 35  1  0
 24 25  1  1
 26 25  1  0
 27 26  2  0
 28 29  1  0
 28 27  1  0
 29 34  2  0
 30 29  1  0
 30 31  2  0
 31 32  1  0
 32 33  2  0
 34 26  1  0
 34 33  1  0
 35 37  1  0
 36 35  2  0
M  END
$$$$
