RRW.pdb
     RDKit          3D

 37 38  0  0  1  0  0  0  0  0999 V2000
   12.1202  -17.0220   13.0649 N   0  0  0  0  0  0  0  0  0  0  0  0
   12.1034  -17.4385   14.4494 C   0  0  0  0  0  0  0  0  0  0  0  0
   11.3713  -18.4195   14.8281 N   0  0  0  0  0  0  0  0  0  0  0  0
   12.9045  -16.7562   15.4003 N   0  0  0  0  0  0  0  0  0  0  0  0
   12.5124  -16.6403   16.7822 C   0  0  0  0  0  0  0  0  0  0  0  0
   12.9307  -17.8714   17.5566 C   0  0  0  0  0  0  0  0  0  0  0  0
   12.6940  -17.7087   19.0303 C   0  0  0  0  0  0  0  0  0  0  0  0
   11.2590  -17.8595   19.4026 C   0  0  2  0  0  0  0  0  0  0  0  0
   10.4466  -17.8182   18.1857 N   0  0  0  0  0  0  0  0  0  0  0  0
   10.7586  -16.8442   20.3615 C   0  0  0  0  0  0  0  0  0  0  0  0
   11.2832  -15.7160   20.4760 O   0  0  0  0  0  0  0  0  0  0  0  0
   11.2843  -18.6662   15.8283 N   0  0  0  0  0  0  0  0  0  0  0  0
    7.6659  -12.2244   17.9151 C   0  0  0  0  0  0  0  0  0  0  0  0
    8.4441  -13.4085   18.0156 N   0  0  0  0  0  0  0  0  0  0  0  0
    9.5999  -13.4196   17.4167 N   0  0  0  0  0  0  0  0  0  0  0  0
    7.9924  -14.5460   18.7336 C   0  0  0  0  0  0  0  0  0  0  0  0
    7.7102  -14.4641   20.1427 C   0  0  0  0  0  0  0  0  0  0  0  0
    7.2060  -15.7198   20.7547 C   0  0  0  0  0  0  0  0  0  0  0  0
    7.6534  -15.9920   22.1528 C   0  0  2  0  0  0  0  0  0  0  0  0
    9.1822  -16.1504   22.1997 N   0  0  0  0  0  0  0  0  0  0  0  0
    9.6418  -17.0966   21.2154 C   0  0  0  0  0  0  0  0  0  0  0  0
    9.6279  -16.5130   23.5687 O   0  0  0  0  0  0  0  0  0  0  0  0
    9.8201  -17.7201   23.9089 N   0  0  0  0  0  0  0  0  0  0  0  0
   10.1862  -14.2688   17.4187 C   0  0  2  0  0  0  0  0  0  0  0  0
    9.8703  -15.5499   24.5901 C   0  0  0  0  0  0  0  0  0  0  0  0
   10.3149  -15.9313   25.9153 C   0  0  0  0  0  0  0  0  0  0  0  0
    9.7459  -15.0151   26.9779 C   0  0  0  0  0  0  0  0  0  0  0  0
    8.3076  -14.7719   26.7043 N   0  0  0  0  0  0  0  0  0  0  0  0
    7.2871  -15.7090   26.5392 C   0  0  0  0  0  0  0  0  0  0  0  0
    6.1270  -15.0623   26.3058 C   0  0  0  0  0  0  0  0  0  0  0  0
    6.3200  -13.7346   26.3062 C   0  0  0  0  0  0  0  0  0  0  0  0
    5.4795  -12.6598   26.1204 C   0  0  0  0  0  0  0  0  0  0  0  0
    6.0185  -11.3963   26.1864 C   0  0  0  0  0  0  0  0  0  0  0  0
    7.3636  -11.1932   26.4316 C   0  0  0  0  0  0  0  0  0  0  0  0
    8.1813  -12.2842   26.6135 C   0  0  0  0  0  0  0  0  0  0  0  0
    7.6846  -13.5503   26.5554 O   0  0  0  0  0  0  0  0  0  0  0  0
    9.8817  -17.3138   26.1698 O   0  0  0  0  0  0  0  0  0  0  0  0
  2  3  2  0
  2  1  1  0
  4  2  1  0
  5  4  1  0
  6  5  1  0
  7  6  1  0
  8 10  1  0
  8  7  1  0
  8  9  1  6
 10 20  1  0
 10 11  2  0
 12 13  1  0
 13 14  2  0
 15 13  1  0
 16 15  1  0
 17 16  1  0
 18 17  1  0
 19 18  1  6
 19 21  1  0
 20 19  1  0
 21 23  1  0
 21 22  2  0
 23 24  1  0
 24 35  1  0
 24 25  1  6
 26 25  1  0
 27 26  2  0
 28 29  1  0
 28 27  1  0
 29 34  2  0
 30 29  1  0
 30 31  2  0
 31 32  1  0
 32 33  2  0
 34 26  1  0
 34 33  1  0
 35 37  1  0
 36 35  2  0
M  END
$$$$
