RRW.pdb
     RDKit          3D

 37 38  0  0  1  0  0  0  0  0999 V2000
    8.6891  -12.6355   13.9045 N   0  0  0  0  0  0  0  0  0  0  0  0
    8.7958  -14.0362   14.2470 C   0  0  0  0  0  0  0  0  0  0  0  0
    9.6097  -14.8022   13.6205 N   0  0  0  0  0  0  0  0  0  0  0  0
    7.9928  -14.5704   15.2868 N   0  0  0  0  0  0  0  0  0  0  0  0
    8.4240  -14.5618   16.6619 C   0  0  0  0  0  0  0  0  0  0  0  0
    7.2681  -14.2210   17.5774 C   0  0  0  0  0  0  0  0  0  0  0  0
    7.7434  -13.7299   18.9143 C   0  0  0  0  0  0  0  0  0  0  0  0
    8.6664  -14.6888   19.5845 C   0  0  2  0  0  0  0  0  0  0  0  0
    8.9737  -15.7784   18.6566 N   0  0  0  0  0  0  0  0  0  0  0  0
    8.1529  -15.2564   20.8553 C   0  0  0  0  0  0  0  0  0  0  0  0
    7.7541  -14.5377   21.7963 O   0  0  0  0  0  0  0  0  0  0  0  0
    9.6920  -15.8044   13.8604 N   0  0  0  0  0  0  0  0  0  0  0  0
    8.9035  -20.5609   25.8782 C   0  0  0  0  0  0  0  0  0  0  0  0
    7.5507  -20.9532   26.0625 N   0  0  0  0  0  0  0  0  0  0  0  0
    7.0951  -20.9825   27.2816 N   0  0  0  0  0  0  0  0  0  0  0  0
    6.7154  -21.3067   24.9713 C   0  0  0  0  0  0  0  0  0  0  0  0
    6.9551  -20.7729   23.6562 C   0  0  0  0  0  0  0  0  0  0  0  0
    7.2123  -19.3111   23.6106 C   0  0  0  0  0  0  0  0  0  0  0  0
    7.4344  -18.7275   22.2545 C   0  0  1  0  0  0  0  0  0  0  0  0
    7.7903  -17.2360   22.3702 N   0  0  0  0  0  0  0  0  0  0  0  0
    8.0830  -16.6651   21.0802 C   0  0  0  0  0  0  0  0  0  0  0  0
    8.9051  -17.0382   23.3305 O   0  0  0  0  0  0  0  0  0  0  0  0
   10.1122  -17.2516   23.0032 N   0  0  0  0  0  0  0  0  0  0  0  0
    6.1091  -21.2216   27.4700 C   0  0  1  0  0  0  0  0  0  0  0  0
    8.7096  -16.6008   24.6722 C   0  0  0  0  0  0  0  0  0  0  0  0
    9.8213  -16.3151   25.5565 C   0  0  0  0  0  0  0  0  0  0  0  0
    9.8605  -14.8525   25.9458 C   0  0  0  0  0  0  0  0  0  0  0  0
    8.5248  -14.4351   26.4400 N   0  0  0  0  0  0  0  0  0  0  0  0
    7.7010  -15.0832   27.3609 C   0  0  0  0  0  0  0  0  0  0  0  0
    6.5728  -14.3635   27.5275 C   0  0  0  0  0  0  0  0  0  0  0  0
    6.5998  -13.2622   26.7616 C   0  0  0  0  0  0  0  0  0  0  0  0
    5.7142  -12.2252   26.5702 C   0  0  0  0  0  0  0  0  0  0  0  0
    6.0629  -11.2294   25.6882 C   0  0  0  0  0  0  0  0  0  0  0  0
    7.2643  -11.2532   25.0051 C   0  0  0  0  0  0  0  0  0  0  0  0
    8.1309  -12.3006   25.2147 C   0  0  0  0  0  0  0  0  0  0  0  0
    7.8210  -13.3048   26.0797 O   0  0  0  0  0  0  0  0  0  0  0  0
    9.6794  -17.1449   26.7628 O   0  0  0  0  0  0  0  0  0  0  0  0
  2  3  2  0
  2  1  1  0
  4  2  1  0
  5  4  1  0
  6  5  1  0
  7  6  1  0
  8 10  1  0
  8  7  1  0
  8  9  1  6
 10 20  1  0
 10 11  2  0
 12 13  1  0
 13 14  2  0
 15 13  1  0
 16 15  1  0
 17 16  1  0
 18 17  1  0
 19 18  1  6
 19 21  1  0
 20 19  1  0
 21 23  1  0
 21 22  2  0
 23 24  1  0
 24 35  1  0
 24 25  1  1
 26 25  1  0
 27 26  2  0
 28 29  1  0
 28 27  1  0
 29 34  2  0
 30 29  1  0
 30 31  2  0
 31 32  1  0
 32 33  2  0
 34 26  1  0
 34 33  1  0
 35 37  1  0
 36 35  2  0
M  END
$$$$
