RRW.pdb
     RDKit          3D

 37 38  0  0  1  0  0  0  0  0999 V2000
    6.7883  -14.3441   15.2429 N   0  0  0  0  0  0  0  0  0  0  0  0
    7.7100  -13.2352   15.3500 C   0  0  0  0  0  0  0  0  0  0  0  0
    8.3111  -12.7822   14.3132 N   0  0  0  0  0  0  0  0  0  0  0  0
    7.9529  -12.6406   16.6145 N   0  0  0  0  0  0  0  0  0  0  0  0
    7.4614  -13.2246   17.8369 C   0  0  0  0  0  0  0  0  0  0  0  0
    8.2940  -14.4287   18.2209 C   0  0  0  0  0  0  0  0  0  0  0  0
    7.8772  -15.6572   17.4650 C   0  0  0  0  0  0  0  0  0  0  0  0
    8.6932  -16.8535   17.8167 C   0  0  2  0  0  0  0  0  0  0  0  0
    8.2763  -17.9760   16.9746 N   0  0  0  0  0  0  0  0  0  0  0  0
    8.6190  -17.2556   19.2427 C   0  0  0  0  0  0  0  0  0  0  0  0
    7.5326  -17.4611   19.8244 O   0  0  0  0  0  0  0  0  0  0  0  0
    9.0316  -12.0451   14.3928 N   0  0  0  0  0  0  0  0  0  0  0  0
   11.5416  -22.8692   21.2005 C   0  0  0  0  0  0  0  0  0  0  0  0
   12.4500  -22.2773   22.1182 N   0  0  0  0  0  0  0  0  0  0  0  0
   13.6881  -22.6774   22.0796 N   0  0  0  0  0  0  0  0  0  0  0  0
   12.0395  -21.2896   23.0506 C   0  0  0  0  0  0  0  0  0  0  0  0
   10.6441  -21.0737   23.3296 C   0  0  0  0  0  0  0  0  0  0  0  0
   10.1460  -19.7104   23.0157 C   0  0  0  0  0  0  0  0  0  0  0  0
   10.2018  -19.3078   21.5791 C   0  0  1  0  0  0  0  0  0  0  0  0
    9.7415  -17.8494   21.4182 N   0  0  0  0  0  0  0  0  0  0  0  0
    9.7908  -17.4329   20.0399 C   0  0  0  0  0  0  0  0  0  0  0  0
   10.5325  -16.9522   22.2977 O   0  0  0  0  0  0  0  0  0  0  0  0
   11.5549  -17.3659   22.9249 N   0  0  0  0  0  0  0  0  0  0  0  0
   14.3865  -22.2937   22.7352 C   0  0  2  0  0  0  0  0  0  0  0  0
   10.2104  -15.5797   22.5029 C   0  0  0  0  0  0  0  0  0  0  0  0
    9.4395  -15.1343   23.6461 C   0  0  0  0  0  0  0  0  0  0  0  0
    7.9536  -15.1537   23.3565 C   0  0  0  0  0  0  0  0  0  0  0  0
    7.2029  -14.8318   24.5956 N   0  0  0  0  0  0  0  0  0  0  0  0
    6.4063  -15.6765   25.3694 C   0  0  0  0  0  0  0  0  0  0  0  0
    5.9071  -14.9810   26.4113 C   0  0  0  0  0  0  0  0  0  0  0  0
    6.3309  -13.7085   26.3740 C   0  0  0  0  0  0  0  0  0  0  0  0
    6.1127  -12.6182   27.1862 C   0  0  0  0  0  0  0  0  0  0  0  0
    6.7154  -11.4286   26.8501 C   0  0  0  0  0  0  0  0  0  0  0  0
    7.5204  -11.3134   25.7324 C   0  0  0  0  0  0  0  0  0  0  0  0
    7.7218  -12.4181   24.9380 C   0  0  0  0  0  0  0  0  0  0  0  0
    7.1423  -13.6127   25.2380 O   0  0  0  0  0  0  0  0  0  0  0  0
    9.7347  -16.0242   24.7796 O   0  0  0  0  0  0  0  0  0  0  0  0
  2  3  2  0
  2  1  1  0
  4  2  1  0
  5  4  1  0
  6  5  1  0
  7  6  1  0
  8 10  1  0
  8  7  1  0
  8  9  1  6
 10 20  1  0
 10 11  2  0
 12 13  1  0
 13 14  2  0
 15 13  1  0
 16 15  1  0
 17 16  1  0
 18 17  1  0
 19 18  1  6
 19 21  1  0
 20 19  1  0
 21 23  1  0
 21 22  2  0
 23 24  1  0
 24 35  1  0
 24 25  1  1
 26 25  1  0
 27 26  2  0
 28 29  1  0
 28 27  1  0
 29 34  2  0
 30 29  1  0
 30 31  2  0
 31 32  1  0
 32 33  2  0
 34 26  1  0
 34 33  1  0
 35 37  1  0
 36 35  2  0
M  END
$$$$
