RRW.pdb
     RDKit          3D

 37 38  0  0  1  0  0  0  0  0999 V2000
    7.8884  -15.3537   16.1260 N   0  0  0  0  0  0  0  0  0  0  0  0
    8.3192  -14.0522   15.6662 C   0  0  0  0  0  0  0  0  0  0  0  0
    8.8540  -13.9112   14.5105 N   0  0  0  0  0  0  0  0  0  0  0  0
    8.1490  -12.9182   16.5008 N   0  0  0  0  0  0  0  0  0  0  0  0
    8.6600  -12.8813   17.8478 C   0  0  0  0  0  0  0  0  0  0  0  0
    7.6100  -13.3616   18.8261 C   0  0  0  0  0  0  0  0  0  0  0  0
    8.2281  -13.9570   20.0580 C   0  0  0  0  0  0  0  0  0  0  0  0
    8.2615  -15.4464   20.0226 C   0  0  2  0  0  0  0  0  0  0  0  0
    7.2067  -15.9232   19.1267 N   0  0  0  0  0  0  0  0  0  0  0  0
    8.1142  -16.1002   21.3460 C   0  0  0  0  0  0  0  0  0  0  0  0
    7.2555  -15.7393   22.1788 O   0  0  0  0  0  0  0  0  0  0  0  0
    9.2801  -13.0136   14.2249 N   0  0  0  0  0  0  0  0  0  0  0  0
   13.4193  -20.1319   23.2364 C   0  0  0  0  0  0  0  0  0  0  0  0
   13.3499  -20.7105   21.9410 N   0  0  0  0  0  0  0  0  0  0  0  0
   14.4682  -20.8683   21.2935 N   0  0  0  0  0  0  0  0  0  0  0  0
   12.1171  -21.1034   21.3585 C   0  0  0  0  0  0  0  0  0  0  0  0
   10.8750  -20.9063   22.0584 C   0  0  0  0  0  0  0  0  0  0  0  0
   10.5193  -19.4877   22.3161 C   0  0  0  0  0  0  0  0  0  0  0  0
    9.2385  -19.2565   23.0477 C   0  0  1  0  0  0  0  0  0  0  0  0
    8.9047  -17.7556   23.0723 N   0  0  0  0  0  0  0  0  0  0  0  0
    8.9489  -17.1868   21.7494 C   0  0  0  0  0  0  0  0  0  0  0  0
    9.7984  -17.0373   24.0154 O   0  0  0  0  0  0  0  0  0  0  0  0
   10.8620  -16.4678   23.6226 N   0  0  0  0  0  0  0  0  0  0  0  0
   14.4745  -21.2701   20.3430 C   0  0  1  0  0  0  0  0  0  0  0  0
    9.5360  -16.9333   25.4118 C   0  0  0  0  0  0  0  0  0  0  0  0
   10.5412  -16.4768   26.3503 C   0  0  0  0  0  0  0  0  0  0  0  0
   10.3256  -15.0285   26.7352 C   0  0  0  0  0  0  0  0  0  0  0  0
    8.8710  -14.7361   26.7704 N   0  0  0  0  0  0  0  0  0  0  0  0
    7.9077  -15.2394   27.6453 C   0  0  0  0  0  0  0  0  0  0  0  0
    6.7062  -14.7157   27.3282 C   0  0  0  0  0  0  0  0  0  0  0  0
    6.8169  -13.8841   26.2811 C   0  0  0  0  0  0  0  0  0  0  0  0
    5.9085  -13.1169   25.5865 C   0  0  0  0  0  0  0  0  0  0  0  0
    6.3694  -12.3596   24.5351 C   0  0  0  0  0  0  0  0  0  0  0  0
    7.7033  -12.3569   24.1727 C   0  0  0  0  0  0  0  0  0  0  0  0
    8.5898  -13.1323   24.8833 C   0  0  0  0  0  0  0  0  0  0  0  0
    8.1714  -13.8953   25.9301 O   0  0  0  0  0  0  0  0  0  0  0  0
   10.4732  -17.3237   27.5511 O   0  0  0  0  0  0  0  0  0  0  0  0
  2  3  2  0
  2  1  1  0
  4  2  1  0
  5  4  1  0
  6  5  1  0
  7  6  1  0
  8 10  1  0
  8  7  1  0
  8  9  1  6
 10 20  1  0
 10 11  2  0
 12 13  1  0
 13 14  2  0
 15 13  1  0
 16 15  1  0
 17 16  1  0
 18 17  1  0
 19 18  1  6
 19 21  1  0
 20 19  1  0
 21 23  1  0
 21 22  2  0
 23 24  1  0
 24 35  1  0
 24 25  1  6
 26 25  1  0
 27 26  2  0
 28 29  1  0
 28 27  1  0
 29 34  2  0
 30 29  1  0
 30 31  2  0
 31 32  1  0
 32 33  2  0
 34 26  1  0
 34 33  1  0
 35 37  1  0
 36 35  2  0
M  END
$$$$
