RRW.pdb
     RDKit          3D

 37 38  0  0  1  0  0  0  0  0999 V2000
    7.5089  -13.3306   14.7534 N   0  0  0  0  0  0  0  0  0  0  0  0
    8.7069  -13.9704   15.2495 C   0  0  0  0  0  0  0  0  0  0  0  0
    9.4220  -14.7049   14.4807 N   0  0  0  0  0  0  0  0  0  0  0  0
    9.0972  -13.7848   16.6003 N   0  0  0  0  0  0  0  0  0  0  0  0
    8.1925  -13.2515   17.5872 C   0  0  0  0  0  0  0  0  0  0  0  0
    7.4302  -14.3690   18.2658 C   0  0  0  0  0  0  0  0  0  0  0  0
    8.1029  -15.6976   18.0745 C   0  0  0  0  0  0  0  0  0  0  0  0
    8.9437  -16.0899   19.2407 C   0  0  2  0  0  0  0  0  0  0  0  0
    9.7086  -17.2882   18.8920 N   0  0  0  0  0  0  0  0  0  0  0  0
    8.1879  -16.3371   20.4929 C   0  0  0  0  0  0  0  0  0  0  0  0
    7.4350  -15.4789   21.0007 O   0  0  0  0  0  0  0  0  0  0  0  0
   10.2761  -15.1709   14.8301 N   0  0  0  0  0  0  0  0  0  0  0  0
    8.4140  -21.0058   26.3201 C   0  0  0  0  0  0  0  0  0  0  0  0
    7.0307  -21.1194   26.6223 N   0  0  0  0  0  0  0  0  0  0  0  0
    6.7034  -21.3352   27.8637 N   0  0  0  0  0  0  0  0  0  0  0  0
    6.0312  -21.0086   25.6212 C   0  0  0  0  0  0  0  0  0  0  0  0
    6.0655  -19.9373   24.6606 C   0  0  0  0  0  0  0  0  0  0  0  0
    7.3363  -19.8166   23.9017 C   0  0  0  0  0  0  0  0  0  0  0  0
    7.2098  -19.3870   22.4774 C   0  0  1  0  0  0  0  0  0  0  0  0
    7.4710  -17.8767   22.3533 N   0  0  0  0  0  0  0  0  0  0  0  0
    8.2757  -17.5770   21.1966 C   0  0  0  0  0  0  0  0  0  0  0  0
    8.0747  -17.3469   23.6019 O   0  0  0  0  0  0  0  0  0  0  0  0
    7.4419  -17.3505   24.7017 N   0  0  0  0  0  0  0  0  0  0  0  0
    5.7138  -21.4399   28.1370 C   0  0  1  0  0  0  0  0  0  0  0  0
    9.3897  -16.8019   23.6616 C   0  0  0  0  0  0  0  0  0  0  0  0
    9.7005  -15.6312   24.4567 C   0  0  0  0  0  0  0  0  0  0  0  0
    9.0103  -14.3952   23.9201 C   0  0  0  0  0  0  0  0  0  0  0  0
    7.8640  -14.0477   24.7963 N   0  0  0  0  0  0  0  0  0  0  0  0
    6.7890  -14.8523   25.1755 C   0  0  0  0  0  0  0  0  0  0  0  0
    5.9700  -14.1450   25.9801 C   0  0  0  0  0  0  0  0  0  0  0  0
    6.4442  -12.9027   26.1594 C   0  0  0  0  0  0  0  0  0  0  0  0
    5.9931  -11.8157   26.8743 C   0  0  0  0  0  0  0  0  0  0  0  0
    6.7415  -10.6623   26.8412 C   0  0  0  0  0  0  0  0  0  0  0  0
    7.9154  -10.5796   26.1162 C   0  0  0  0  0  0  0  0  0  0  0  0
    8.3434  -11.6802   25.4109 C   0  0  0  0  0  0  0  0  0  0  0  0
    7.6299  -12.8394   25.4191 O   0  0  0  0  0  0  0  0  0  0  0  0
    9.2648  -15.8807   25.8394 O   0  0  0  0  0  0  0  0  0  0  0  0
  2  3  2  0
  2  1  1  0
  4  2  1  0
  5  4  1  0
  6  5  1  0
  7  6  1  0
  8 10  1  0
  8  7  1  0
  8  9  1  6
 10 20  1  0
 10 11  2  0
 12 13  1  0
 13 14  2  0
 15 13  1  0
 16 15  1  0
 17 16  1  0
 18 17  1  0
 19 18  1  6
 19 21  1  0
 20 19  1  0
 21 23  1  0
 21 22  2  0
 23 24  1  0
 24 35  1  0
 24 25  1  1
 26 25  1  0
 27 26  2  0
 28 29  1  0
 28 27  1  0
 29 34  2  0
 30 29  1  0
 30 31  2  0
 31 32  1  0
 32 33  2  0
 34 26  1  0
 34 33  1  0
 35 37  1  0
 36 35  2  0
M  END
$$$$
