RRW.pdb
     RDKit          3D

 37 38  0  0  1  0  0  0  0  0999 V2000
   17.6812  -15.4108   17.7260 N   0  0  0  0  0  0  0  0  0  0  0  0
   16.8192  -14.3094   17.3593 C   0  0  0  0  0  0  0  0  0  0  0  0
   17.0348  -13.1310   17.8139 N   0  0  0  0  0  0  0  0  0  0  0  0
   15.7229  -14.5326   16.4874 N   0  0  0  0  0  0  0  0  0  0  0  0
   14.4918  -15.1228   16.9488 C   0  0  0  0  0  0  0  0  0  0  0  0
   13.8946  -14.2963   18.0671 C   0  0  0  0  0  0  0  0  0  0  0  0
   12.5134  -14.7622   18.4267 C   0  0  0  0  0  0  0  0  0  0  0  0
   12.5065  -15.7050   19.5808 C   0  0  2  0  0  0  0  0  0  0  0  0
   12.2243  -17.0545   19.0889 N   0  0  0  0  0  0  0  0  0  0  0  0
   11.5416  -15.3620   20.6541 C   0  0  0  0  0  0  0  0  0  0  0  0
   11.7032  -14.3810   21.4108 O   0  0  0  0  0  0  0  0  0  0  0  0
   16.3820  -12.3543   17.6158 N   0  0  0  0  0  0  0  0  0  0  0  0
    8.0508  -12.5925   17.9663 C   0  0  0  0  0  0  0  0  0  0  0  0
    7.8507  -13.9022   17.4541 N   0  0  0  0  0  0  0  0  0  0  0  0
    8.2541  -14.1396   16.2394 N   0  0  0  0  0  0  0  0  0  0  0  0
    7.2331  -14.9232   18.2219 C   0  0  0  0  0  0  0  0  0  0  0  0
    7.4193  -14.9882   19.6477 C   0  0  0  0  0  0  0  0  0  0  0  0
    7.7577  -16.3347   20.1747 C   0  0  0  0  0  0  0  0  0  0  0  0
    8.0379  -16.4130   21.6391 C   0  0  2  0  0  0  0  0  0  0  0  0
    9.4312  -15.8384   21.9443 N   0  0  0  0  0  0  0  0  0  0  0  0
   10.3643  -16.1362   20.8879 C   0  0  0  0  0  0  0  0  0  0  0  0
    9.9156  -16.3164   23.2638 O   0  0  0  0  0  0  0  0  0  0  0  0
   10.8476  -17.1719   23.3614 N   0  0  0  0  0  0  0  0  0  0  0  0
    8.2020  -15.0912   15.8434 C   0  0  1  0  0  0  0  0  0  0  0  0
    9.3806  -15.8597   24.5026 C   0  0  0  0  0  0  0  0  0  0  0  0
   10.0786  -16.0512   25.7579 C   0  0  0  0  0  0  0  0  0  0  0  0
    9.8473  -14.8930   26.7051 C   0  0  0  0  0  0  0  0  0  0  0  0
    8.4009  -14.5626   26.7403 N   0  0  0  0  0  0  0  0  0  0  0  0
    7.3145  -15.4361   26.8003 C   0  0  0  0  0  0  0  0  0  0  0  0
    6.1720  -14.7198   26.8136 C   0  0  0  0  0  0  0  0  0  0  0  0
    6.4396  -13.4060   26.7653 C   0  0  0  0  0  0  0  0  0  0  0  0
    5.6445  -12.2818   26.7550 C   0  0  0  0  0  0  0  0  0  0  0  0
    6.2598  -11.0531   26.6981 C   0  0  0  0  0  0  0  0  0  0  0  0
    7.6359  -10.9323   26.6521 C   0  0  0  0  0  0  0  0  0  0  0  0
    8.4069  -12.0713   26.6636 C   0  0  0  0  0  0  0  0  0  0  0  0
    7.8345  -13.3051   26.7193 O   0  0  0  0  0  0  0  0  0  0  0  0
    9.5949  -17.2973   26.3720 O   0  0  0  0  0  0  0  0  0  0  0  0
  2  3  2  0
  2  1  1  0
  4  2  1  0
  5  4  1  0
  6  5  1  0
  7  6  1  0
  8 10  1  0
  8  7  1  0
  8  9  1  6
 10 20  1  0
 10 11  2  0
 12 13  1  0
 13 14  2  0
 15 13  1  0
 16 15  1  0
 17 16  1  0
 18 17  1  0
 19 18  1  6
 19 21  1  0
 20 19  1  0
 21 23  1  0
 21 22  2  0
 23 24  1  0
 24 35  1  0
 24 25  1  1
 26 25  1  0
 27 26  2  0
 28 29  1  0
 28 27  1  0
 29 34  2  0
 30 29  1  0
 30 31  2  0
 31 32  1  0
 32 33  2  0
 34 26  1  0
 34 33  1  0
 35 37  1  0
 36 35  2  0
M  END
$$$$
