LCP.pdb
     RDKit          3D

 22 22  0  0  1  0  0  0  0  0999 V2000
    5.7667  -12.3711   25.3311 C   0  0  0  0  0  0  0  0  0  0  0  0
    6.4372  -12.9640   26.5595 C   0  0  2  0  0  0  0  0  0  0  0  0
    7.0865  -11.7902   27.2950 C   0  0  0  0  0  0  0  0  0  0  0  0
    7.5584  -13.9026   26.1808 C   0  0  0  0  0  0  0  0  0  0  0  0
    6.9496  -15.1731   25.6701 C   0  0  2  0  0  0  0  0  0  0  0  0
    6.4068  -15.9180   26.7715 N   0  0  0  0  0  0  0  0  0  0  0  0
    7.9428  -16.0161   24.9496 C   0  0  0  0  0  0  0  0  0  0  0  0
    8.6630  -16.8548   25.5629 O   0  0  0  0  0  0  0  0  0  0  0  0
    8.1094  -15.9041   23.5630 N   0  0  0  0  0  0  0  0  0  0  0  0
    9.0520  -16.7668   22.8036 C   0  0  1  0  0  0  0  0  0  0  0  0
    8.2925  -17.0160   21.5016 C   0  0  0  0  0  0  0  0  0  0  0  0
    9.2675  -18.0792   20.3960 S   0  0  0  0  0  0  0  0  0  0  0  0
   10.2972  -16.0426   22.5364 C   0  0  0  0  0  0  0  0  0  0  0  0
   10.1245  -15.0992   21.6363 O   0  0  0  0  0  0  0  0  0  0  0  0
   11.5762  -16.2124   23.0808 N   0  0  0  0  0  0  0  0  0  0  0  0
   11.6756  -16.6960   24.5075 C   0  0  0  0  0  0  0  0  0  0  0  0
   12.5495  -17.9053   24.2704 C   0  0  0  0  0  0  0  0  0  0  0  0
   13.4376  -17.5454   23.1070 C   0  0  0  0  0  0  0  0  0  0  0  0
   12.9477  -16.1122   22.7958 C   0  0  1  0  0  0  0  0  0  0  0  0
   13.4820  -15.6482   21.5613 C   0  0  0  0  0  0  0  0  0  0  0  0
   14.5985  -15.1923   21.3785 O   0  0  0  0  0  0  0  0  0  0  0  0
   12.6545  -15.7113   20.4154 O   0  0  0  0  0  0  0  0  0  0  0  0
  2  1  1  6
  2  3  1  0
  4  2  1  0
  5  4  1  0
  5  7  1  0
  5  6  1  1
  7  8  2  0
  7  9  1  0
  9 10  1  0
 10 11  1  6
 11 12  1  0
 13 10  1  0
 13 15  1  0
 14 13  2  0
 15 16  1  0
 17 16  1  0
 18 17  1  0
 19 18  1  0
 19 15  1  0
 19 20  1  6
 20 22  1  0
 21 20  2  0
M  END
$$$$
