LCP.pdb
     RDKit          3D

 22 22  0  0  1  0  0  0  0  0999 V2000
    8.4403  -18.0006   20.3862 C   0  0  0  0  0  0  0  0  0  0  0  0
    9.4212  -16.9564   19.8788 C   0  0  2  0  0  0  0  0  0  0  0  0
   10.7504  -17.6867   19.6782 C   0  0  0  0  0  0  0  0  0  0  0  0
    9.6753  -15.8853   20.9131 C   0  0  0  0  0  0  0  0  0  0  0  0
    8.3825  -15.1738   21.1740 C   0  0  2  0  0  0  0  0  0  0  0  0
    8.1083  -14.2710   20.0914 N   0  0  0  0  0  0  0  0  0  0  0  0
    8.4146  -14.4116   22.4524 C   0  0  0  0  0  0  0  0  0  0  0  0
    8.9667  -13.2770   22.5289 O   0  0  0  0  0  0  0  0  0  0  0  0
    7.8306  -14.9323   23.6146 N   0  0  0  0  0  0  0  0  0  0  0  0
    7.8558  -14.2055   24.9109 C   0  0  1  0  0  0  0  0  0  0  0  0
    6.3710  -13.9710   25.1845 C   0  0  0  0  0  0  0  0  0  0  0  0
    6.1393  -13.2614   26.8417 S   0  0  0  0  0  0  0  0  0  0  0  0
    8.4386  -15.0525   25.9545 C   0  0  0  0  0  0  0  0  0  0  0  0
    7.8375  -16.2205   26.0212 O   0  0  0  0  0  0  0  0  0  0  0  0
    9.4914  -14.7978   26.8421 N   0  0  0  0  0  0  0  0  0  0  0  0
   10.2207  -13.4826   26.7103 C   0  0  0  0  0  0  0  0  0  0  0  0
   10.0414  -12.9876   28.1263 C   0  0  0  0  0  0  0  0  0  0  0  0
   10.0297  -14.2217   28.9916 C   0  0  0  0  0  0  0  0  0  0  0  0
   10.2079  -15.3287   27.9270 C   0  0  1  0  0  0  0  0  0  0  0  0
    9.9819  -16.6165   28.4886 C   0  0  0  0  0  0  0  0  0  0  0  0
    9.0852  -17.3897   28.1954 O   0  0  0  0  0  0  0  0  0  0  0  0
   10.8734  -17.0689   29.4897 O   0  0  0  0  0  0  0  0  0  0  0  0
  2  1  1  1
  2  3  1  0
  4  2  1  0
  5  4  1  0
  5  7  1  0
  5  6  1  6
  7  8  2  0
  7  9  1  0
  9 10  1  0
 10 11  1  1
 11 12  1  0
 13 10  1  0
 13 15  1  0
 14 13  2  0
 15 16  1  0
 17 16  1  0
 18 17  1  0
 19 18  1  0
 19 15  1  0
 19 20  1  1
 20 22  1  0
 21 20  2  0
M  END
$$$$
