LCP.pdb
     RDKit          3D

 22 22  0  0  1  0  0  0  0  0999 V2000
    7.7992  -19.6458   20.5673 C   0  0  0  0  0  0  0  0  0  0  0  0
    8.8996  -19.0837   21.4523 C   0  0  2  0  0  0  0  0  0  0  0  0
    9.6476  -20.2928   22.0168 C   0  0  0  0  0  0  0  0  0  0  0  0
    8.3321  -18.3414   22.6392 C   0  0  0  0  0  0  0  0  0  0  0  0
    7.8536  -17.0026   22.1657 C   0  0  2  0  0  0  0  0  0  0  0  0
    8.4597  -16.7002   20.8994 N   0  0  0  0  0  0  0  0  0  0  0  0
    8.1776  -15.9206   23.1356 C   0  0  0  0  0  0  0  0  0  0  0  0
    9.2855  -15.3131   23.0986 O   0  0  0  0  0  0  0  0  0  0  0  0
    7.2590  -15.5419   24.1233 N   0  0  0  0  0  0  0  0  0  0  0  0
    7.5908  -14.5489   25.1784 C   0  0  1  0  0  0  0  0  0  0  0  0
    6.2101  -14.0705   25.6247 C   0  0  0  0  0  0  0  0  0  0  0  0
    6.3527  -13.0242   27.1040 S   0  0  0  0  0  0  0  0  0  0  0  0
    8.2864  -15.2042   26.2889 C   0  0  0  0  0  0  0  0  0  0  0  0
    7.6443  -16.2775   26.6959 O   0  0  0  0  0  0  0  0  0  0  0  0
    9.4773  -14.8584   26.9394 N   0  0  0  0  0  0  0  0  0  0  0  0
   10.2418  -13.6643   26.4206 C   0  0  0  0  0  0  0  0  0  0  0  0
   10.3128  -12.8724   27.7052 C   0  0  0  0  0  0  0  0  0  0  0  0
   10.3759  -13.8940   28.8116 C   0  0  0  0  0  0  0  0  0  0  0  0
   10.3283  -15.2093   28.0000 C   0  0  1  0  0  0  0  0  0  0  0  0
   10.1294  -16.3288   28.8556 C   0  0  0  0  0  0  0  0  0  0  0  0
   10.9862  -16.9151   29.4959 O   0  0  0  0  0  0  0  0  0  0  0  0
    8.8142  -16.8315   28.9945 O   0  0  0  0  0  0  0  0  0  0  0  0
  2  1  1  6
  2  3  1  0
  4  2  1  0
  5  4  1  0
  5  7  1  0
  5  6  1  6
  7  8  2  0
  7  9  1  0
  9 10  1  0
 10 11  1  1
 11 12  1  0
 13 10  1  0
 13 15  1  0
 14 13  2  0
 15 16  1  0
 17 16  1  0
 18 17  1  0
 19 18  1  0
 19 15  1  0
 19 20  1  1
 20 22  1  0
 21 20  2  0
M  END
$$$$
