LCP.pdb
     RDKit          3D

 22 22  0  0  1  0  0  0  0  0999 V2000
    7.9387  -13.0966   18.4713 C   0  0  0  0  0  0  0  0  0  0  0  0
    7.7911  -13.6470   19.8803 C   0  0  2  0  0  0  0  0  0  0  0  0
    7.6787  -12.4299   20.8002 C   0  0  0  0  0  0  0  0  0  0  0  0
    9.0279  -14.3972   20.3152 C   0  0  0  0  0  0  0  0  0  0  0  0
    8.6441  -15.3205   21.4313 C   0  0  2  0  0  0  0  0  0  0  0  0
    7.2993  -15.7814   21.2277 N   0  0  0  0  0  0  0  0  0  0  0  0
    8.7394  -14.6570   22.7605 C   0  0  0  0  0  0  0  0  0  0  0  0
    9.7506  -13.9703   23.0829 O   0  0  0  0  0  0  0  0  0  0  0  0
    7.7053  -14.7747   23.6984 N   0  0  0  0  0  0  0  0  0  0  0  0
    7.8056  -14.2049   25.0676 C   0  0  1  0  0  0  0  0  0  0  0  0
    6.3393  -14.0096   25.4500 C   0  0  0  0  0  0  0  0  0  0  0  0
    6.2111  -13.3146   27.1245 S   0  0  0  0  0  0  0  0  0  0  0  0
    8.4437  -15.1665   25.9701 C   0  0  0  0  0  0  0  0  0  0  0  0
    7.8574  -16.3426   25.9168 O   0  0  0  0  0  0  0  0  0  0  0  0
    9.5336  -15.0084   26.8350 N   0  0  0  0  0  0  0  0  0  0  0  0
   10.3032  -13.7113   26.7680 C   0  0  0  0  0  0  0  0  0  0  0  0
   10.1884  -13.3110   28.2202 C   0  0  0  0  0  0  0  0  0  0  0  0
   10.1629  -14.6015   28.9985 C   0  0  0  0  0  0  0  0  0  0  0  0
   10.2671  -15.6366   27.8547 C   0  0  1  0  0  0  0  0  0  0  0  0
   10.0156  -16.9525   28.3341 C   0  0  0  0  0  0  0  0  0  0  0  0
    9.0831  -17.6739   28.0211 O   0  0  0  0  0  0  0  0  0  0  0  0
   10.9242  -17.5024   29.2688 O   0  0  0  0  0  0  0  0  0  0  0  0
  2  1  1  6
  2  3  1  0
  4  2  1  0
  5  4  1  0
  5  7  1  0
  5  6  1  6
  7  8  2  0
  7  9  1  0
  9 10  1  0
 10 11  1  1
 11 12  1  0
 13 10  1  0
 13 15  1  0
 14 13  2  0
 15 16  1  0
 17 16  1  0
 18 17  1  0
 19 18  1  0
 19 15  1  0
 19 20  1  1
 20 22  1  0
 21 20  2  0
M  END
$$$$
