LCP.pdb
     RDKit          3D

 22 22  0  0  1  0  0  0  0  0999 V2000
    9.2151  -13.9952   18.6804 C   0  0  0  0  0  0  0  0  0  0  0  0
    7.8141  -13.6341   19.1461 C   0  0  2  0  0  0  0  0  0  0  0  0
    7.3709  -12.4545   18.2787 C   0  0  0  0  0  0  0  0  0  0  0  0
    7.8144  -13.1378   20.5727 C   0  0  0  0  0  0  0  0  0  0  0  0
    8.3308  -14.2386   21.4485 C   0  0  2  0  0  0  0  0  0  0  0  0
    7.5049  -15.4025   21.2883 N   0  0  0  0  0  0  0  0  0  0  0  0
    8.3508  -13.8450   22.8841 C   0  0  0  0  0  0  0  0  0  0  0  0
    8.9483  -12.8009   23.2725 O   0  0  0  0  0  0  0  0  0  0  0  0
    7.7044  -14.6245   23.8522 N   0  0  0  0  0  0  0  0  0  0  0  0
    7.7309  -14.2796   25.2978 C   0  0  1  0  0  0  0  0  0  0  0  0
    6.2522  -14.3416   25.6772 C   0  0  0  0  0  0  0  0  0  0  0  0
    5.9588  -13.4320   27.2231 S   0  0  0  0  0  0  0  0  0  0  0  0
    8.4909  -15.2855   26.0441 C   0  0  0  0  0  0  0  0  0  0  0  0
    8.0402  -16.4998   25.8157 O   0  0  0  0  0  0  0  0  0  0  0  0
    9.5726  -15.1344   26.9205 N   0  0  0  0  0  0  0  0  0  0  0  0
   10.2398  -13.7818   26.9886 C   0  0  0  0  0  0  0  0  0  0  0  0
   10.1066  -13.5444   28.4747 C   0  0  0  0  0  0  0  0  0  0  0  0
   10.1866  -14.9068   29.1145 C   0  0  0  0  0  0  0  0  0  0  0  0
   10.3605  -15.8065   27.8690 C   0  0  1  0  0  0  0  0  0  0  0  0
   10.2146  -17.1805   28.2090 C   0  0  0  0  0  0  0  0  0  0  0  0
    9.2428  -17.8842   27.9889 O   0  0  0  0  0  0  0  0  0  0  0  0
   11.2913  -17.8180   28.8694 O   0  0  0  0  0  0  0  0  0  0  0  0
  2  1  1  6
  2  3  1  0
  4  2  1  0
  5  4  1  0
  5  7  1  0
  5  6  1  1
  7  8  2  0
  7  9  1  0
  9 10  1  0
 10 11  1  1
 11 12  1  0
 13 10  1  0
 13 15  1  0
 14 13  2  0
 15 16  1  0
 17 16  1  0
 18 17  1  0
 19 18  1  0
 19 15  1  0
 19 20  1  1
 20 22  1  0
 21 20  2  0
M  END
$$$$
