LCP.pdb
     RDKit          3D

 22 22  0  0  1  0  0  0  0  0999 V2000
    8.0573  -18.4667   20.5002 C   0  0  0  0  0  0  0  0  0  0  0  0
    9.4698  -17.9146   20.3996 C   0  0  2  0  0  0  0  0  0  0  0  0
   10.4054  -19.1129   20.5694 C   0  0  0  0  0  0  0  0  0  0  0  0
    9.7779  -16.9688   21.5363 C   0  0  0  0  0  0  0  0  0  0  0  0
    8.8630  -15.7877   21.4203 C   0  0  2  0  0  0  0  0  0  0  0  0
    9.2411  -15.0019   20.2793 N   0  0  0  0  0  0  0  0  0  0  0  0
    8.8999  -14.9330   22.6386 C   0  0  0  0  0  0  0  0  0  0  0  0
    9.8269  -14.0944   22.8270 O   0  0  0  0  0  0  0  0  0  0  0  0
    7.9028  -15.0334   23.6177 N   0  0  0  0  0  0  0  0  0  0  0  0
    7.9408  -14.2414   24.8750 C   0  0  1  0  0  0  0  0  0  0  0  0
    6.4623  -13.9456   25.1213 C   0  0  0  0  0  0  0  0  0  0  0  0
    6.2282  -13.2368   26.7785 S   0  0  0  0  0  0  0  0  0  0  0  0
    8.4871  -15.0514   25.9667 C   0  0  0  0  0  0  0  0  0  0  0  0
    7.9174  -16.2356   26.0223 O   0  0  0  0  0  0  0  0  0  0  0  0
    9.4792  -14.7489   26.9076 N   0  0  0  0  0  0  0  0  0  0  0  0
   10.0909  -13.3692   26.8668 C   0  0  0  0  0  0  0  0  0  0  0  0
    9.8156  -12.9632   28.2957 C   0  0  0  0  0  0  0  0  0  0  0  0
    9.8839  -14.2350   29.1018 C   0  0  0  0  0  0  0  0  0  0  0  0
   10.2005  -15.2675   27.9952 C   0  0  1  0  0  0  0  0  0  0  0  0
   10.0715  -16.5966   28.4868 C   0  0  0  0  0  0  0  0  0  0  0  0
    9.2032  -17.4001   28.1896 O   0  0  0  0  0  0  0  0  0  0  0  0
   11.0351  -17.0565   29.4152 O   0  0  0  0  0  0  0  0  0  0  0  0
  2  1  1  1
  2  3  1  0
  4  2  1  0
  5  4  1  0
  5  7  1  0
  5  6  1  6
  7  8  2  0
  7  9  1  0
  9 10  1  0
 10 11  1  1
 11 12  1  0
 13 10  1  0
 13 15  1  0
 14 13  2  0
 15 16  1  0
 17 16  1  0
 18 17  1  0
 19 18  1  0
 19 15  1  0
 19 20  1  1
 20 22  1  0
 21 20  2  0
M  END
$$$$
