LCP.pdb
     RDKit          3D

 22 22  0  0  1  0  0  0  0  0999 V2000
    9.4679  -13.1804   20.4129 C   0  0  0  0  0  0  0  0  0  0  0  0
    8.5024  -13.3694   19.2544 C   0  0  2  0  0  0  0  0  0  0  0  0
    7.8553  -12.0038   19.0159 C   0  0  0  0  0  0  0  0  0  0  0  0
    7.3814  -14.3152   19.6152 C   0  0  0  0  0  0  0  0  0  0  0  0
    7.9508  -15.4091   20.4665 C   0  0  2  0  0  0  0  0  0  0  0  0
    7.8557  -16.6582   19.7642 N   0  0  0  0  0  0  0  0  0  0  0  0
    7.2435  -15.5247   21.7712 C   0  0  0  0  0  0  0  0  0  0  0  0
    5.9847  -15.4371   21.8480 O   0  0  0  0  0  0  0  0  0  0  0  0
    7.9561  -15.7352   22.9590 N   0  0  0  0  0  0  0  0  0  0  0  0
    7.2858  -15.8253   24.2826 C   0  0  1  0  0  0  0  0  0  0  0  0
    7.1056  -17.3324   24.4573 C   0  0  0  0  0  0  0  0  0  0  0  0
    6.5747  -17.7119   26.1537 S   0  0  0  0  0  0  0  0  0  0  0  0
    8.1605  -15.2921   25.3299 C   0  0  0  0  0  0  0  0  0  0  0  0
    9.1139  -16.1423   25.6432 O   0  0  0  0  0  0  0  0  0  0  0  0
    8.1182  -14.0661   26.0053 N   0  0  0  0  0  0  0  0  0  0  0  0
    7.3817  -12.9246   25.3468 C   0  0  0  0  0  0  0  0  0  0  0  0
    6.4241  -12.6023   26.4700 C   0  0  0  0  0  0  0  0  0  0  0  0
    7.1670  -12.9178   27.7429 C   0  0  0  0  0  0  0  0  0  0  0  0
    8.5206  -13.4084   27.1792 C   0  0  1  0  0  0  0  0  0  0  0  0
    9.3141  -13.9995   28.2018 C   0  0  0  0  0  0  0  0  0  0  0  0
   10.0365  -13.4135   28.9909 O   0  0  0  0  0  0  0  0  0  0  0  0
    9.2789  -15.4073   28.3378 O   0  0  0  0  0  0  0  0  0  0  0  0
  2  1  1  1
  2  3  1  0
  4  2  1  0
  5  4  1  0
  5  7  1  0
  5  6  1  6
  7  8  2  0
  7  9  1  0
  9 10  1  0
 10 11  1  1
 11 12  1  0
 13 10  1  0
 13 15  1  0
 14 13  2  0
 15 16  1  0
 17 16  1  0
 18 17  1  0
 19 18  1  0
 19 15  1  0
 19 20  1  1
 20 22  1  0
 21 20  2  0
M  END
$$$$
