LCP.pdb
     RDKit          3D

 22 22  0  0  1  0  0  0  0  0999 V2000
    8.2073  -12.3174   25.9851 C   0  0  0  0  0  0  0  0  0  0  0  0
    6.8629  -11.9972   25.3526 C   0  0  2  0  0  0  0  0  0  0  0  0
    5.9678  -11.5014   26.4898 C   0  0  0  0  0  0  0  0  0  0  0  0
    6.2011  -13.2368   24.7987 C   0  0  0  0  0  0  0  0  0  0  0  0
    7.0696  -13.7789   23.7044 C   0  0  2  0  0  0  0  0  0  0  0  0
    6.3783  -13.6722   22.4501 N   0  0  0  0  0  0  0  0  0  0  0  0
    7.4404  -15.2012   23.9408 C   0  0  0  0  0  0  0  0  0  0  0  0
    6.5619  -16.1071   24.0154 O   0  0  0  0  0  0  0  0  0  0  0  0
    8.7813  -15.5794   24.0882 N   0  0  0  0  0  0  0  0  0  0  0  0
    9.1843  -16.9793   24.3839 C   0  0  1  0  0  0  0  0  0  0  0  0
   10.4110  -17.1630   23.4919 C   0  0  0  0  0  0  0  0  0  0  0  0
   11.2198  -18.7507   23.8505 S   0  0  0  0  0  0  0  0  0  0  0  0
    9.5559  -17.1114   25.7948 C   0  0  0  0  0  0  0  0  0  0  0  0
   10.6464  -16.4309   26.0735 O   0  0  0  0  0  0  0  0  0  0  0  0
    8.9395  -17.8271   26.8286 N   0  0  0  0  0  0  0  0  0  0  0  0
    7.4312  -17.8904   26.8391 C   0  0  0  0  0  0  0  0  0  0  0  0
    7.2732  -19.3927   26.8598 C   0  0  0  0  0  0  0  0  0  0  0  0
    8.4578  -19.9171   27.6302 C   0  0  0  0  0  0  0  0  0  0  0  0
    9.1911  -18.5999   27.9739 C   0  0  1  0  0  0  0  0  0  0  0  0
   10.4870  -18.8609   28.5006 C   0  0  0  0  0  0  0  0  0  0  0  0
   10.7693  -19.0591   29.6706 O   0  0  0  0  0  0  0  0  0  0  0  0
   11.5746  -18.8999   27.5964 O   0  0  0  0  0  0  0  0  0  0  0  0
  2  1  1  1
  2  3  1  0
  4  2  1  0
  5  4  1  0
  5  7  1  0
  5  6  1  6
  7  8  2  0
  7  9  1  0
  9 10  1  0
 10 11  1  6
 11 12  1  0
 13 10  1  0
 13 15  1  0
 14 13  2  0
 15 16  1  0
 17 16  1  0
 18 17  1  0
 19 18  1  0
 19 15  1  0
 19 20  1  6
 20 22  1  0
 21 20  2  0
M  END
$$$$
