QFM.pdb
     RDKit          3D

 29 29  0  0  1  0  0  0  0  0999 V2000
   27.3481  -16.9033  -14.0097 N   0  0  0  0  0  0  0  0  0  0  0  0
   27.9432  -17.5630  -15.1093 C   0  0  0  0  0  0  0  0  0  0  0  0
   28.6557  -16.9048  -15.8997 O   0  0  0  0  0  0  0  0  0  0  0  0
   27.7530  -19.0076  -15.3596 C   0  0  0  0  0  0  0  0  0  0  0  0
   26.9389  -19.6642  -14.2649 C   0  0  0  0  0  0  0  0  0  0  0  0
   27.9035  -20.0543  -13.1695 C   0  0  2  0  0  0  0  0  0  0  0  0
   28.7178  -21.1381  -13.6828 N   0  0  0  0  0  0  0  0  0  0  0  0
   27.2064  -20.5474  -11.9577 C   0  0  0  0  0  0  0  0  0  0  0  0
   26.5020  -21.5706  -11.9911 O   0  0  0  0  0  0  0  0  0  0  0  0
   27.3250  -19.8580  -10.7126 N   0  0  0  0  0  0  0  0  0  0  0  0
   26.3990  -20.0934   -9.6109 C   0  0  1  0  0  0  0  0  0  0  0  0
   26.7410  -19.0326   -8.5585 C   0  0  0  0  0  0  0  0  0  0  0  0
   27.0458  -19.6520   -7.2582 C   0  0  0  0  0  0  0  0  0  0  0  0
   28.2090  -19.3545   -6.5711 C   0  0  0  0  0  0  0  0  0  0  0  0
   28.4864  -19.9458   -5.3439 C   0  0  0  0  0  0  0  0  0  0  0  0
   27.6074  -20.8391   -4.7898 C   0  0  0  0  0  0  0  0  0  0  0  0
   26.4578  -21.1430   -5.4533 C   0  0  0  0  0  0  0  0  0  0  0  0
   26.1779  -20.5529   -6.6810 C   0  0  0  0  0  0  0  0  0  0  0  0
   24.9946  -19.9840  -10.0402 C   0  0  0  0  0  0  0  0  0  0  0  0
   24.5211  -18.9245  -10.5763 O   0  0  0  0  0  0  0  0  0  0  0  0
   22.6040  -24.4622  -13.8980 C   0  0  0  0  0  0  0  0  0  0  0  0
   21.1804  -24.0272  -12.9326 S   0  0  0  0  0  0  0  0  0  0  0  0
   21.3179  -22.6077  -11.8710 C   0  0  0  0  0  0  0  0  0  0  0  0
   22.6553  -22.3404  -11.2875 C   0  0  0  0  0  0  0  0  0  0  0  0
   22.7887  -21.1790  -10.3799 C   0  0  2  0  0  0  0  0  0  0  0  0
   24.1323  -21.0940   -9.8537 N   0  0  0  0  0  0  0  0  0  0  0  0
   21.7576  -21.0776   -9.3491 C   0  0  0  0  0  0  0  0  0  0  0  0
   20.5911  -20.7530   -9.6544 O   0  0  0  0  0  0  0  0  0  0  0  0
   22.0212  -21.3322   -8.0099 O   0  0  0  0  0  0  0  0  0  0  0  0
  2  3  2  0
  2  1  1  0
  4  2  1  0
  5  4  1  0
  5  6  1  0
  6  8  1  0
  6  7  1  6
  8  9  2  0
 10 11  1  0
 10  8  1  0
 11 12  1  1
 12 13  1  0
 13 18  2  0
 14 15  2  0
 14 13  1  0
 15 16  1  0
 16 17  2  0
 18 17  1  0
 19 20  2  0
 19 11  1  0
 21 22  1  0
 22 23  1  0
 23 24  1  0
 25 24  1  1
 25 27  1  0
 25 26  1  0
 26 19  1  0
 27 29  1  0
 28 27  2  0
M  END
$$$$
