QFM.pdb
     RDKit          3D

 29 29  0  0  1  0  0  0  0  0999 V2000
   21.3875  -10.7422  -22.8239 N   0  0  0  0  0  0  0  0  0  0  0  0
   22.7837  -10.8832  -22.9935 C   0  0  0  0  0  0  0  0  0  0  0  0
   23.2300  -11.2035  -24.1179 O   0  0  0  0  0  0  0  0  0  0  0  0
   23.7389  -10.6654  -21.8863 C   0  0  0  0  0  0  0  0  0  0  0  0
   23.0331  -10.2740  -20.6054 C   0  0  0  0  0  0  0  0  0  0  0  0
   24.1031   -9.8959  -19.6082 C   0  0  2  0  0  0  0  0  0  0  0  0
   24.7203  -11.1271  -19.1559 N   0  0  0  0  0  0  0  0  0  0  0  0
   23.5445   -9.2073  -18.4202 C   0  0  0  0  0  0  0  0  0  0  0  0
   22.8052   -9.8031  -17.6185 O   0  0  0  0  0  0  0  0  0  0  0  0
   23.8414   -7.8343  -18.1622 N   0  0  0  0  0  0  0  0  0  0  0  0
   23.2808   -7.1276  -17.0163 C   0  0  1  0  0  0  0  0  0  0  0  0
   24.4728   -6.8289  -16.1000 C   0  0  0  0  0  0  0  0  0  0  0  0
   25.0257   -8.0666  -15.5257 C   0  0  0  0  0  0  0  0  0  0  0  0
   26.1869   -8.6354  -16.0173 C   0  0  0  0  0  0  0  0  0  0  0  0
   26.6996   -9.8045  -15.4671 C   0  0  0  0  0  0  0  0  0  0  0  0
   26.0602  -10.4179  -14.4218 C   0  0  0  0  0  0  0  0  0  0  0  0
   24.9159   -9.8708  -13.9260 C   0  0  0  0  0  0  0  0  0  0  0  0
   24.4010   -8.7014  -14.4747 C   0  0  0  0  0  0  0  0  0  0  0  0
   22.5937   -5.8883  -17.4171 C   0  0  0  0  0  0  0  0  0  0  0  0
   23.1184   -5.0401  -18.2168 O   0  0  0  0  0  0  0  0  0  0  0  0
   15.6352   -3.8713  -15.9592 C   0  0  0  0  0  0  0  0  0  0  0  0
   16.4014   -4.0784  -17.5459 S   0  0  0  0  0  0  0  0  0  0  0  0
   18.1361   -3.7087  -17.6682 C   0  0  0  0  0  0  0  0  0  0  0  0
   19.0753   -4.7763  -17.2454 C   0  0  0  0  0  0  0  0  0  0  0  0
   20.5189   -4.4509  -17.2215 C   0  0  2  0  0  0  0  0  0  0  0  0
   21.3011   -5.6227  -16.8985 N   0  0  0  0  0  0  0  0  0  0  0  0
   20.8761   -3.2802  -16.4227 C   0  0  0  0  0  0  0  0  0  0  0  0
   21.0289   -3.3829  -15.1876 O   0  0  0  0  0  0  0  0  0  0  0  0
   21.0584   -2.0252  -16.9879 O   0  0  0  0  0  0  0  0  0  0  0  0
  2  3  2  0
  2  1  1  0
  4  2  1  0
  5  4  1  0
  5  6  1  0
  6  8  1  0
  6  7  1  1
  8  9  2  0
 10 11  1  0
 10  8  1  0
 11 12  1  1
 12 13  1  0
 13 18  2  0
 14 15  2  0
 14 13  1  0
 15 16  1  0
 16 17  2  0
 18 17  1  0
 19 20  2  0
 19 11  1  0
 21 22  1  0
 22 23  1  0
 23 24  1  0
 25 24  1  1
 25 27  1  0
 25 26  1  0
 26 19  1  0
 27 29  1  0
 28 27  2  0
M  END
$$$$
