QFM.pdb
     RDKit          3D

 29 29  0  0  1  0  0  0  0  0999 V2000
   27.2842  -16.6366  -14.6043 N   0  0  0  0  0  0  0  0  0  0  0  0
   28.1674  -16.9980  -15.6472 C   0  0  0  0  0  0  0  0  0  0  0  0
   29.0311  -16.1750  -16.0247 O   0  0  0  0  0  0  0  0  0  0  0  0
   28.1067  -18.3179  -16.3105 C   0  0  0  0  0  0  0  0  0  0  0  0
   27.0323  -19.1990  -15.7092 C   0  0  0  0  0  0  0  0  0  0  0  0
   27.6665  -19.9498  -14.5618 C   0  0  2  0  0  0  0  0  0  0  0  0
   28.5848  -20.9130  -15.1366 N   0  0  0  0  0  0  0  0  0  0  0  0
   26.6683  -20.6987  -13.7616 C   0  0  0  0  0  0  0  0  0  0  0  0
   26.3138  -21.8455  -14.0835 O   0  0  0  0  0  0  0  0  0  0  0  0
   26.0835  -20.1215  -12.5935 N   0  0  0  0  0  0  0  0  0  0  0  0
   25.0773  -20.8262  -11.8077 C   0  0  1  0  0  0  0  0  0  0  0  0
   25.1560  -20.2150  -10.4042 C   0  0  0  0  0  0  0  0  0  0  0  0
   26.4183  -20.5742   -9.7373 C   0  0  0  0  0  0  0  0  0  0  0  0
   27.3549  -21.3856  -10.3522 C   0  0  0  0  0  0  0  0  0  0  0  0
   28.5435  -21.7184   -9.7126 C   0  0  0  0  0  0  0  0  0  0  0  0
   28.8100  -21.2459   -8.4543 C   0  0  0  0  0  0  0  0  0  0  0  0
   27.8985  -20.4460   -7.8349 C   0  0  0  0  0  0  0  0  0  0  0  0
   26.7088  -20.1116   -8.4725 C   0  0  0  0  0  0  0  0  0  0  0  0
   23.7285  -20.6755  -12.3792 C   0  0  0  0  0  0  0  0  0  0  0  0
   23.2552  -19.5417  -12.7324 O   0  0  0  0  0  0  0  0  0  0  0  0
   20.6450  -26.3161  -14.3986 C   0  0  0  0  0  0  0  0  0  0  0  0
   19.6177  -24.9882  -14.9724 S   0  0  0  0  0  0  0  0  0  0  0  0
   19.9908  -23.3541  -14.3796 C   0  0  0  0  0  0  0  0  0  0  0  0
   21.2623  -23.1915  -13.6331 C   0  0  0  0  0  0  0  0  0  0  0  0
   21.6214  -21.8300  -13.1771 C   0  0  2  0  0  0  0  0  0  0  0  0
   22.9216  -21.8295  -12.5455 N   0  0  0  0  0  0  0  0  0  0  0  0
   20.5957  -21.1514  -12.3874 C   0  0  0  0  0  0  0  0  0  0  0  0
   20.6236  -21.2035  -11.1401 O   0  0  0  0  0  0  0  0  0  0  0  0
   19.5637  -20.4319  -12.9749 O   0  0  0  0  0  0  0  0  0  0  0  0
  2  3  2  0
  2  1  1  0
  4  2  1  0
  5  4  1  0
  5  6  1  0
  6  8  1  0
  6  7  1  6
  8  9  2  0
 10 11  1  0
 10  8  1  0
 11 12  1  1
 12 13  1  0
 13 18  2  0
 14 15  2  0
 14 13  1  0
 15 16  1  0
 16 17  2  0
 18 17  1  0
 19 20  2  0
 19 11  1  0
 21 22  1  0
 22 23  1  0
 23 24  1  0
 25 24  1  1
 25 27  1  0
 25 26  1  0
 26 19  1  0
 27 29  1  0
 28 27  2  0
M  END
$$$$
