QFM.pdb
     RDKit          3D

 29 29  0  0  1  0  0  0  0  0999 V2000
   13.1552   -8.5622  -16.4593 N   0  0  0  0  0  0  0  0  0  0  0  0
   13.9161   -9.1828  -17.4762 C   0  0  0  0  0  0  0  0  0  0  0  0
   13.4506   -9.2367  -18.6364 O   0  0  0  0  0  0  0  0  0  0  0  0
   15.2468   -9.7726  -17.2170 C   0  0  0  0  0  0  0  0  0  0  0  0
   15.6674   -9.5955  -15.7735 C   0  0  0  0  0  0  0  0  0  0  0  0
   17.0541  -10.1805  -15.6416 C   0  0  2  0  0  0  0  0  0  0  0  0
   16.9329  -11.6133  -15.8251 N   0  0  0  0  0  0  0  0  0  0  0  0
   17.6371   -9.9444  -14.2991 C   0  0  0  0  0  0  0  0  0  0  0  0
   17.2438  -10.5784  -13.3053 O   0  0  0  0  0  0  0  0  0  0  0  0
   18.6712   -8.9779  -14.1092 N   0  0  0  0  0  0  0  0  0  0  0  0
   19.1590   -8.6231  -12.7815 C   0  0  1  0  0  0  0  0  0  0  0  0
   20.6373   -8.2662  -12.9733 C   0  0  0  0  0  0  0  0  0  0  0  0
   21.2970   -8.0186  -11.6806 C   0  0  0  0  0  0  0  0  0  0  0  0
   21.8476   -9.0499  -10.9411 C   0  0  0  0  0  0  0  0  0  0  0  0
   22.4679   -8.8041   -9.7216 C   0  0  0  0  0  0  0  0  0  0  0  0
   22.5455   -7.5285   -9.2274 C   0  0  0  0  0  0  0  0  0  0  0  0
   22.0084   -6.5018   -9.9429 C   0  0  0  0  0  0  0  0  0  0  0  0
   21.3874   -6.7450  -11.1631 C   0  0  0  0  0  0  0  0  0  0  0  0
   18.4095   -7.4948  -12.2037 C   0  0  0  0  0  0  0  0  0  0  0  0
   18.1092   -6.4521  -12.8796 O   0  0  0  0  0  0  0  0  0  0  0  0
   12.9469   -5.8300   -6.7120 C   0  0  0  0  0  0  0  0  0  0  0  0
   13.9929   -6.9253   -7.6360 S   0  0  0  0  0  0  0  0  0  0  0  0
   15.3295   -6.1955   -8.5536 C   0  0  0  0  0  0  0  0  0  0  0  0
   16.1761   -7.1212   -9.3455 C   0  0  0  0  0  0  0  0  0  0  0  0
   17.2570   -6.5308  -10.1661 C   0  0  2  0  0  0  0  0  0  0  0  0
   18.0037   -7.5643  -10.8469 N   0  0  0  0  0  0  0  0  0  0  0  0
   18.1075   -5.5681   -9.4690 C   0  0  0  0  0  0  0  0  0  0  0  0
   17.8147   -4.3542   -9.4669 O   0  0  0  0  0  0  0  0  0  0  0  0
   19.2570   -5.9502   -8.7905 O   0  0  0  0  0  0  0  0  0  0  0  0
  2  3  2  0
  2  1  1  0
  4  2  1  0
  5  4  1  0
  5  6  1  0
  6  8  1  0
  6  7  1  1
  8  9  2  0
 10 11  1  0
 10  8  1  0
 11 12  1  6
 12 13  1  0
 13 18  2  0
 14 15  2  0
 14 13  1  0
 15 16  1  0
 16 17  2  0
 18 17  1  0
 19 20  2  0
 19 11  1  0
 21 22  1  0
 22 23  1  0
 23 24  1  0
 25 24  1  1
 25 27  1  0
 25 26  1  0
 26 19  1  0
 27 29  1  0
 28 27  2  0
M  END
$$$$
