QFM.pdb
     RDKit          3D

 29 29  0  0  1  0  0  0  0  0999 V2000
   22.1390  -19.5748  -13.2614 N   0  0  0  0  0  0  0  0  0  0  0  0
   22.2014  -20.1416  -14.5549 C   0  0  0  0  0  0  0  0  0  0  0  0
   21.5898  -19.5834  -15.4931 O   0  0  0  0  0  0  0  0  0  0  0  0
   22.9658  -21.3746  -14.8398 C   0  0  0  0  0  0  0  0  0  0  0  0
   23.6409  -21.9157  -13.5975 C   0  0  0  0  0  0  0  0  0  0  0  0
   24.8879  -21.0917  -13.3769 C   0  0  2  0  0  0  0  0  0  0  0  0
   25.8428  -21.4799  -14.3961 N   0  0  0  0  0  0  0  0  0  0  0  0
   25.5062  -21.3529  -12.0551 C   0  0  0  0  0  0  0  0  0  0  0  0
   25.9221  -22.4836  -11.7505 O   0  0  0  0  0  0  0  0  0  0  0  0
   25.6421  -20.3084  -11.0906 N   0  0  0  0  0  0  0  0  0  0  0  0
   26.1687  -20.5587   -9.7539 C   0  0  1  0  0  0  0  0  0  0  0  0
   26.8363  -19.2463   -9.3276 C   0  0  0  0  0  0  0  0  0  0  0  0
   27.5911  -19.4156   -8.0750 C   0  0  0  0  0  0  0  0  0  0  0  0
   27.3050  -18.6612   -6.9513 C   0  0  0  0  0  0  0  0  0  0  0  0
   28.0248  -18.8297   -5.7740 C   0  0  0  0  0  0  0  0  0  0  0  0
   29.0363  -19.7514   -5.7052 C   0  0  0  0  0  0  0  0  0  0  0  0
   29.3308  -20.5022   -6.8024 C   0  0  0  0  0  0  0  0  0  0  0  0
   28.6123  -20.3357   -7.9814 C   0  0  0  0  0  0  0  0  0  0  0  0
   25.1083  -20.9480   -8.8091 C   0  0  0  0  0  0  0  0  0  0  0  0
   23.9484  -20.4105   -8.8193 O   0  0  0  0  0  0  0  0  0  0  0  0
   24.2868  -22.9443   -1.2546 C   0  0  0  0  0  0  0  0  0  0  0  0
   25.2231  -22.5557   -2.7107 S   0  0  0  0  0  0  0  0  0  0  0  0
   24.3697  -22.6161   -4.2692 C   0  0  0  0  0  0  0  0  0  0  0  0
   25.1663  -22.2886   -5.4769 C   0  0  0  0  0  0  0  0  0  0  0  0
   24.4781  -22.3339   -6.7864 C   0  0  2  0  0  0  0  0  0  0  0  0
   25.3805  -21.9568   -7.8508 N   0  0  0  0  0  0  0  0  0  0  0  0
   23.1986  -21.6293   -6.8376 C   0  0  0  0  0  0  0  0  0  0  0  0
   22.1328  -22.2415   -6.6172 O   0  0  0  0  0  0  0  0  0  0  0  0
   23.1101  -20.2743   -7.1277 O   0  0  0  0  0  0  0  0  0  0  0  0
  2  3  2  0
  2  1  1  0
  4  2  1  0
  5  4  1  0
  5  6  1  0
  6  8  1  0
  6  7  1  6
  8  9  2  0
 10 11  1  0
 10  8  1  0
 11 12  1  1
 12 13  1  0
 13 18  2  0
 14 15  2  0
 14 13  1  0
 15 16  1  0
 16 17  2  0
 18 17  1  0
 19 20  2  0
 19 11  1  0
 21 22  1  0
 22 23  1  0
 23 24  1  0
 25 24  1  1
 25 27  1  0
 25 26  1  0
 26 19  1  0
 27 29  1  0
 28 27  2  0
M  END
$$$$
