QFM.pdb
     RDKit          3D

 29 29  0  0  1  0  0  0  0  0999 V2000
   28.5502  -18.7787  -18.4271 N   0  0  0  0  0  0  0  0  0  0  0  0
   28.1877  -19.5930  -19.5243 C   0  0  0  0  0  0  0  0  0  0  0  0
   28.7748  -19.4354  -20.6180 O   0  0  0  0  0  0  0  0  0  0  0  0
   27.1361  -20.6274  -19.4255 C   0  0  0  0  0  0  0  0  0  0  0  0
   26.4427  -20.5957  -18.0800 C   0  0  0  0  0  0  0  0  0  0  0  0
   27.3745  -21.2491  -17.0864 C   0  0  2  0  0  0  0  0  0  0  0  0
   27.8243  -22.4943  -17.6769 N   0  0  0  0  0  0  0  0  0  0  0  0
   26.6947  -21.5738  -15.8096 C   0  0  0  0  0  0  0  0  0  0  0  0
   26.0137  -22.6060  -15.6867 O   0  0  0  0  0  0  0  0  0  0  0  0
   26.8038  -20.7064  -14.6803 N   0  0  0  0  0  0  0  0  0  0  0  0
   26.0661  -20.9524  -13.4466 C   0  0  1  0  0  0  0  0  0  0  0  0
   26.8419  -20.2085  -12.3538 C   0  0  0  0  0  0  0  0  0  0  0  0
   26.1689  -20.3259  -11.0497 C   0  0  0  0  0  0  0  0  0  0  0  0
   26.3026  -21.4587  -10.2670 C   0  0  0  0  0  0  0  0  0  0  0  0
   25.6621  -21.5585   -9.0372 C   0  0  0  0  0  0  0  0  0  0  0  0
   24.8823  -20.5306   -8.5758 C   0  0  0  0  0  0  0  0  0  0  0  0
   24.7402  -19.4084   -9.3340 C   0  0  0  0  0  0  0  0  0  0  0  0
   25.3799  -19.3061  -10.5646 C   0  0  0  0  0  0  0  0  0  0  0  0
   24.6761  -20.4737  -13.5324 C   0  0  0  0  0  0  0  0  0  0  0  0
   24.3830  -19.2667  -13.8351 O   0  0  0  0  0  0  0  0  0  0  0  0
   19.4117  -24.9372  -13.6500 C   0  0  0  0  0  0  0  0  0  0  0  0
   18.9538  -23.3612  -14.3240 S   0  0  0  0  0  0  0  0  0  0  0  0
   19.9301  -21.9547  -13.8449 C   0  0  0  0  0  0  0  0  0  0  0  0
   21.3886  -22.1784  -13.6917 C   0  0  0  0  0  0  0  0  0  0  0  0
   22.2194  -21.0274  -13.2727 C   0  0  2  0  0  0  0  0  0  0  0  0
   23.6204  -21.3832  -13.2702 N   0  0  0  0  0  0  0  0  0  0  0  0
   21.7887  -20.3693  -12.0409 C   0  0  0  0  0  0  0  0  0  0  0  0
   21.2230  -19.2570  -12.0853 O   0  0  0  0  0  0  0  0  0  0  0  0
   21.9843  -20.9383  -10.7895 O   0  0  0  0  0  0  0  0  0  0  0  0
  2  3  2  0
  2  1  1  0
  4  2  1  0
  5  4  1  0
  5  6  1  0
  6  8  1  0
  6  7  1  6
  8  9  2  0
 10 11  1  0
 10  8  1  0
 11 12  1  1
 12 13  1  0
 13 18  2  0
 14 15  2  0
 14 13  1  0
 15 16  1  0
 16 17  2  0
 18 17  1  0
 19 20  2  0
 19 11  1  0
 21 22  1  0
 22 23  1  0
 23 24  1  0
 25 24  1  1
 25 27  1  0
 25 26  1  0
 26 19  1  0
 27 29  1  0
 28 27  2  0
M  END
$$$$
