HWK.pdb
     RDKit          3D

 34 36  0  0  1  0  0  0  0  0999 V2000
   10.5903  -17.6714   18.9528 N   0  0  0  0  0  0  0  0  0  0  0  0
    9.5000  -17.5975   19.8893 C   0  0  1  0  0  0  0  0  0  0  0  0
    8.9862  -18.9984   20.2110 C   0  0  0  0  0  0  0  0  0  0  0  0
    8.1785  -19.4711   19.0641 C   0  0  0  0  0  0  0  0  0  0  0  0
    7.9251  -18.8021   17.8923 C   0  0  0  0  0  0  0  0  0  0  0  0
    7.1400  -19.6270   17.1379 N   0  0  0  0  0  0  0  0  0  0  0  0
    6.9094  -20.7719   17.8122 C   0  0  0  0  0  0  0  0  0  0  0  0
    7.5602  -20.6517   18.9970 N   0  0  0  0  0  0  0  0  0  0  0  0
    9.9407  -16.9685   21.1446 C   0  0  0  0  0  0  0  0  0  0  0  0
   11.1139  -17.0120   21.5846 O   0  0  0  0  0  0  0  0  0  0  0  0
    8.9543  -16.2662   21.8949 N   0  0  0  0  0  0  0  0  0  0  0  0
    9.2648  -15.5479   23.0906 C   0  0  1  0  0  0  0  0  0  0  0  0
    8.3726  -14.3347   23.1881 C   0  0  0  0  0  0  0  0  0  0  0  0
    7.5530  -14.2400   24.3841 C   0  0  0  0  0  0  0  0  0  0  0  0
    6.7248  -15.2438   24.9021 C   0  0  0  0  0  0  0  0  0  0  0  0
    6.0984  -14.7904   25.9971 N   0  0  0  0  0  0  0  0  0  0  0  0
    6.4886  -13.5220   26.2155 C   0  0  0  0  0  0  0  0  0  0  0  0
    6.1610  -12.6187   27.1906 C   0  0  0  0  0  0  0  0  0  0  0  0
    6.7137  -11.3482   27.2123 C   0  0  0  0  0  0  0  0  0  0  0  0
    7.6142  -10.9820   26.2318 C   0  0  0  0  0  0  0  0  0  0  0  0
    7.9330  -11.8930   25.2632 C   0  0  0  0  0  0  0  0  0  0  0  0
    7.3783  -13.1686   25.2394 C   0  0  0  0  0  0  0  0  0  0  0  0
    9.1812  -16.4230   24.2535 C   0  0  0  0  0  0  0  0  0  0  0  0
    8.2105  -17.1967   24.4025 O   0  0  0  0  0  0  0  0  0  0  0  0
   10.1962  -16.4353   25.2644 N   0  0  0  0  0  0  0  0  0  0  0  0
   10.1337  -17.4358   26.3108 C   0  0  1  0  0  0  0  0  0  0  0  0
   11.3817  -18.2884   26.2297 C   0  0  0  0  0  0  0  0  0  0  0  0
   11.4620  -18.8937   24.8717 C   0  0  0  0  0  0  0  0  0  0  0  0
   12.7745  -19.6146   24.6283 C   0  0  0  0  0  0  0  0  0  0  0  0
   12.7055  -20.1365   23.1891 C   0  0  0  0  0  0  0  0  0  0  0  0
   13.9911  -20.7656   22.9333 N   0  0  0  0  0  0  0  0  0  0  0  0
   10.1074  -16.7599   27.6319 C   0  0  0  0  0  0  0  0  0  0  0  0
   10.2390  -15.5088   27.6719 O   0  0  0  0  0  0  0  0  0  0  0  0
    9.9460  -17.4162   28.8424 O   0  0  0  0  0  0  0  0  0  0  0  0
  2  1  1  6
  2  3  1  0
  3  4  1  0
  4  5  2  0
  4  8  1  0
  5  6  1  0
  6  7  1  0
  8  7  2  0
  9 10  2  0
  9  2  1  0
 11  9  1  0
 12 13  1  1
 12 11  1  0
 13 14  1  0
 14 15  2  0
 14 22  1  0
 15 16  1  0
 16 17  1  0
 17 18  2  0
 19 18  1  0
 20 19  2  0
 21 22  2  0
 21 20  1  0
 22 17  1  0
 23 12  1  0
 24 23  2  0
 25 23  1  0
 26 25  1  0
 26 27  1  1
 27 28  1  0
 29 28  1  0
 29 30  1  0
 30 31  1  0
 32 26  1  0
 32 34  1  0
 33 32  2  0
M  END
$$$$
