HWK.pdb
     RDKit          3D

 34 36  0  0  1  0  0  0  0  0999 V2000
    9.6526  -18.1692   20.6910 N   0  0  0  0  0  0  0  0  0  0  0  0
   10.2899  -16.8884   20.8485 C   0  0  1  0  0  0  0  0  0  0  0  0
    9.6468  -15.8624   19.9191 C   0  0  0  0  0  0  0  0  0  0  0  0
    9.9187  -16.2674   18.5216 C   0  0  0  0  0  0  0  0  0  0  0  0
   11.1244  -16.6439   17.9835 C   0  0  0  0  0  0  0  0  0  0  0  0
   10.8893  -16.9279   16.6682 N   0  0  0  0  0  0  0  0  0  0  0  0
    9.5833  -16.7364   16.3914 C   0  0  0  0  0  0  0  0  0  0  0  0
    9.0060  -16.3293   17.5502 N   0  0  0  0  0  0  0  0  0  0  0  0
   10.1486  -16.4092   22.2326 C   0  0  0  0  0  0  0  0  0  0  0  0
   10.6840  -15.3672   22.6793 O   0  0  0  0  0  0  0  0  0  0  0  0
    9.3443  -17.1942   23.1079 N   0  0  0  0  0  0  0  0  0  0  0  0
    9.2014  -16.8937   24.4975 C   0  0  1  0  0  0  0  0  0  0  0  0
    7.7388  -16.7063   24.8183 C   0  0  0  0  0  0  0  0  0  0  0  0
    7.2258  -15.3530   24.6900 C   0  0  0  0  0  0  0  0  0  0  0  0
    6.4767  -14.8494   23.6190 C   0  0  0  0  0  0  0  0  0  0  0  0
    6.2051  -13.5536   23.8292 N   0  0  0  0  0  0  0  0  0  0  0  0
    6.7507  -13.1900   25.0035 C   0  0  0  0  0  0  0  0  0  0  0  0
    6.7595  -11.9993   25.6789 C   0  0  0  0  0  0  0  0  0  0  0  0
    7.3921  -11.8699   26.9049 C   0  0  0  0  0  0  0  0  0  0  0  0
    8.0279  -12.9625   27.4603 C   0  0  0  0  0  0  0  0  0  0  0  0
    8.0124  -14.1461   26.7757 C   0  0  0  0  0  0  0  0  0  0  0  0
    7.3785  -14.2775   25.5444 C   0  0  0  0  0  0  0  0  0  0  0  0
    9.8470  -17.9143   25.3142 C   0  0  0  0  0  0  0  0  0  0  0  0
    9.4712  -19.1057   25.2629 O   0  0  0  0  0  0  0  0  0  0  0  0
   10.9283  -17.6009   26.2000 N   0  0  0  0  0  0  0  0  0  0  0  0
   11.4406  -18.6346   27.0767 C   0  0  1  0  0  0  0  0  0  0  0  0
   12.9529  -18.5932   27.0290 C   0  0  0  0  0  0  0  0  0  0  0  0
   13.4006  -18.9755   25.6614 C   0  0  0  0  0  0  0  0  0  0  0  0
   14.9103  -19.0679   25.5436 C   0  0  0  0  0  0  0  0  0  0  0  0
   15.1909  -19.5440   24.1142 C   0  0  0  0  0  0  0  0  0  0  0  0
   16.6360  -19.5045   23.9595 N   0  0  0  0  0  0  0  0  0  0  0  0
   11.0034  -18.3566   28.4675 C   0  0  0  0  0  0  0  0  0  0  0  0
   10.4103  -17.2728   28.7079 O   0  0  0  0  0  0  0  0  0  0  0  0
   11.2035  -19.2166   29.5364 O   0  0  0  0  0  0  0  0  0  0  0  0
  2  1  1  1
  2  3  1  0
  3  4  1  0
  4  5  2  0
  4  8  1  0
  5  6  1  0
  6  7  1  0
  8  7  2  0
  9 10  2  0
  9  2  1  0
 11  9  1  0
 12 13  1  1
 12 11  1  0
 13 14  1  0
 14 15  2  0
 14 22  1  0
 15 16  1  0
 16 17  1  0
 17 18  2  0
 19 18  1  0
 20 19  2  0
 21 22  2  0
 21 20  1  0
 22 17  1  0
 23 12  1  0
 24 23  2  0
 25 23  1  0
 26 25  1  0
 26 27  1  1
 27 28  1  0
 29 28  1  0
 29 30  1  0
 30 31  1  0
 32 26  1  0
 32 34  1  0
 33 32  2  0
M  END
$$$$
