HWK.pdb
     RDKit          3D

 34 36  0  0  1  0  0  0  0  0999 V2000
    8.6686  -17.6989   20.4596 N   0  0  0  0  0  0  0  0  0  0  0  0
    9.5872  -16.5915   20.4940 C   0  0  1  0  0  0  0  0  0  0  0  0
    8.9801  -15.3816   19.7885 C   0  0  0  0  0  0  0  0  0  0  0  0
    8.7719  -15.7306   18.3651 C   0  0  0  0  0  0  0  0  0  0  0  0
    9.7085  -15.7262   17.3613 C   0  0  0  0  0  0  0  0  0  0  0  0
    9.0594  -16.1177   16.2248 N   0  0  0  0  0  0  0  0  0  0  0  0
    7.7626  -16.3589   16.5059 C   0  0  0  0  0  0  0  0  0  0  0  0
    7.6100  -16.1131   17.8318 N   0  0  0  0  0  0  0  0  0  0  0  0
    9.8859  -16.2127   21.8842 C   0  0  0  0  0  0  0  0  0  0  0  0
   10.5853  -15.2260   22.2145 O   0  0  0  0  0  0  0  0  0  0  0  0
    9.3329  -17.0330   22.9092 N   0  0  0  0  0  0  0  0  0  0  0  0
    9.6987  -16.8972   24.2838 C   0  0  1  0  0  0  0  0  0  0  0  0
    8.4501  -16.8769   25.1312 C   0  0  0  0  0  0  0  0  0  0  0  0
    7.6044  -15.7035   24.9933 C   0  0  0  0  0  0  0  0  0  0  0  0
    6.4649  -15.5943   24.1864 C   0  0  0  0  0  0  0  0  0  0  0  0
    5.9585  -14.3571   24.2872 N   0  0  0  0  0  0  0  0  0  0  0  0
    6.7279  -13.6507   25.1343 C   0  0  0  0  0  0  0  0  0  0  0  0
    6.6470  -12.3604   25.5846 C   0  0  0  0  0  0  0  0  0  0  0  0
    7.5701  -11.8508   26.4836 C   0  0  0  0  0  0  0  0  0  0  0  0
    8.5943  -12.6582   26.9371 C   0  0  0  0  0  0  0  0  0  0  0  0
    8.6644  -13.9448   26.4796 C   0  0  0  0  0  0  0  0  0  0  0  0
    7.7390  -14.4578   25.5764 C   0  0  0  0  0  0  0  0  0  0  0  0
   10.6439  -17.9375   24.6705 C   0  0  0  0  0  0  0  0  0  0  0  0
   10.3658  -19.1456   24.5087 O   0  0  0  0  0  0  0  0  0  0  0  0
   11.9183  -17.6248   25.2451 N   0  0  0  0  0  0  0  0  0  0  0  0
   12.8180  -18.7070   25.5904 C   0  0  1  0  0  0  0  0  0  0  0  0
   14.2399  -18.2064   25.4533 C   0  0  0  0  0  0  0  0  0  0  0  0
   15.1741  -19.3222   25.7687 C   0  0  0  0  0  0  0  0  0  0  0  0
   16.6311  -18.9240   25.6273 C   0  0  0  0  0  0  0  0  0  0  0  0
   17.4422  -20.1902   25.9232 C   0  0  0  0  0  0  0  0  0  0  0  0
   18.8373  -19.8145   25.7604 N   0  0  0  0  0  0  0  0  0  0  0  0
   12.5892  -19.1007   27.0030 C   0  0  0  0  0  0  0  0  0  0  0  0
   13.1887  -20.1124   27.4518 O   0  0  0  0  0  0  0  0  0  0  0  0
   11.7512  -18.4249   27.8767 O   0  0  0  0  0  0  0  0  0  0  0  0
  2  1  1  1
  2  3  1  0
  3  4  1  0
  4  5  2  0
  4  8  1  0
  5  6  1  0
  6  7  1  0
  8  7  2  0
  9 10  2  0
  9  2  1  0
 11  9  1  0
 12 13  1  1
 12 11  1  0
 13 14  1  0
 14 15  2  0
 14 22  1  0
 15 16  1  0
 16 17  1  0
 17 18  2  0
 19 18  1  0
 20 19  2  0
 21 22  2  0
 21 20  1  0
 22 17  1  0
 23 12  1  0
 24 23  2  0
 25 23  1  0
 26 25  1  0
 26 27  1  1
 27 28  1  0
 29 28  1  0
 29 30  1  0
 30 31  1  0
 32 26  1  0
 32 34  1  0
 33 32  2  0
M  END
$$$$
