HWK.pdb
     RDKit          3D

 34 36  0  0  1  0  0  0  0  0999 V2000
    8.2980  -15.4049   20.0626 N   0  0  0  0  0  0  0  0  0  0  0  0
    8.8578  -16.5810   20.6748 C   0  0  1  0  0  0  0  0  0  0  0  0
   10.0396  -17.0901   19.8537 C   0  0  0  0  0  0  0  0  0  0  0  0
    9.5469  -17.4502   18.5050 C   0  0  0  0  0  0  0  0  0  0  0  0
    8.9533  -18.6275   18.1225 C   0  0  0  0  0  0  0  0  0  0  0  0
    8.6686  -18.5029   16.7923 N   0  0  0  0  0  0  0  0  0  0  0  0
    9.0692  -17.2912   16.3564 C   0  0  0  0  0  0  0  0  0  0  0  0
    9.6076  -16.6608   17.4309 N   0  0  0  0  0  0  0  0  0  0  0  0
    9.3367  -16.2770   22.0326 C   0  0  0  0  0  0  0  0  0  0  0  0
   10.2896  -15.5042   22.2909 O   0  0  0  0  0  0  0  0  0  0  0  0
    8.6582  -16.9112   23.1128 N   0  0  0  0  0  0  0  0  0  0  0  0
    9.0725  -16.7653   24.4726 C   0  0  1  0  0  0  0  0  0  0  0  0
    7.8543  -16.7290   25.3626 C   0  0  0  0  0  0  0  0  0  0  0  0
    7.0713  -15.5058   25.3227 C   0  0  0  0  0  0  0  0  0  0  0  0
    5.7518  -15.3816   24.8698 C   0  0  0  0  0  0  0  0  0  0  0  0
    5.3665  -14.1001   24.9508 N   0  0  0  0  0  0  0  0  0  0  0  0
    6.3896  -13.3789   25.4428 C   0  0  0  0  0  0  0  0  0  0  0  0
    6.5164  -12.0457   25.7266 C   0  0  0  0  0  0  0  0  0  0  0  0
    7.6906  -11.5278   26.2491 C   0  0  0  0  0  0  0  0  0  0  0  0
    8.7572  -12.3709   26.4900 C   0  0  0  0  0  0  0  0  0  0  0  0
    8.6182  -13.7003   26.2020 C   0  0  0  0  0  0  0  0  0  0  0  0
    7.4404  -14.2218   25.6766 C   0  0  0  0  0  0  0  0  0  0  0  0
   10.0239  -17.8085   24.8358 C   0  0  0  0  0  0  0  0  0  0  0  0
   10.2696  -18.7504   24.0514 O   0  0  0  0  0  0  0  0  0  0  0  0
   10.7116  -17.7995   26.0924 N   0  0  0  0  0  0  0  0  0  0  0  0
   11.6708  -18.8482   26.3760 C   0  0  1  0  0  0  0  0  0  0  0  0
   12.9066  -18.6028   25.5372 C   0  0  0  0  0  0  0  0  0  0  0  0
   13.8786  -19.7041   25.7811 C   0  0  0  0  0  0  0  0  0  0  0  0
   15.1894  -19.5023   25.0444 C   0  0  0  0  0  0  0  0  0  0  0  0
   16.0135  -20.7687   25.3009 C   0  0  0  0  0  0  0  0  0  0  0  0
   17.2667  -20.5772   24.5889 N   0  0  0  0  0  0  0  0  0  0  0  0
   12.0518  -18.7871   27.8091 C   0  0  0  0  0  0  0  0  0  0  0  0
   11.6929  -17.7888   28.4865 O   0  0  0  0  0  0  0  0  0  0  0  0
   12.7848  -19.7641   28.4652 O   0  0  0  0  0  0  0  0  0  0  0  0
  2  1  1  6
  2  3  1  0
  3  4  1  0
  4  5  2  0
  4  8  1  0
  5  6  1  0
  6  7  1  0
  8  7  2  0
  9 10  2  0
  9  2  1  0
 11  9  1  0
 12 13  1  1
 12 11  1  0
 13 14  1  0
 14 15  2  0
 14 22  1  0
 15 16  1  0
 16 17  1  0
 17 18  2  0
 19 18  1  0
 20 19  2  0
 21 22  2  0
 21 20  1  0
 22 17  1  0
 23 12  1  0
 24 23  2  0
 25 23  1  0
 26 25  1  0
 26 27  1  6
 27 28  1  0
 29 28  1  0
 29 30  1  0
 30 31  1  0
 32 26  1  0
 32 34  1  0
 33 32  2  0
M  END
$$$$
