HWK.pdb
     RDKit          3D

 34 36  0  0  1  0  0  0  0  0999 V2000
    8.5020  -17.2908   21.0738 N   0  0  0  0  0  0  0  0  0  0  0  0
    9.4428  -16.2160   21.2498 C   0  0  1  0  0  0  0  0  0  0  0  0
    8.8680  -14.9165   20.6920 C   0  0  0  0  0  0  0  0  0  0  0  0
    8.6634  -15.0869   19.2359 C   0  0  0  0  0  0  0  0  0  0  0  0
    9.6294  -15.2182   18.2692 C   0  0  0  0  0  0  0  0  0  0  0  0
    8.9709  -15.3503   17.0796 N   0  0  0  0  0  0  0  0  0  0  0  0
    7.6401  -15.3037   17.2927 C   0  0  0  0  0  0  0  0  0  0  0  0
    7.4757  -15.1407   18.6300 N   0  0  0  0  0  0  0  0  0  0  0  0
    9.7349  -16.0153   22.6780 C   0  0  0  0  0  0  0  0  0  0  0  0
   10.5056  -15.1338   23.1260 O   0  0  0  0  0  0  0  0  0  0  0  0
    9.0878  -16.8898   23.5976 N   0  0  0  0  0  0  0  0  0  0  0  0
    9.3491  -16.8587   25.0021 C   0  0  1  0  0  0  0  0  0  0  0  0
    8.0434  -16.7351   25.7486 C   0  0  0  0  0  0  0  0  0  0  0  0
    7.2599  -15.5435   25.4708 C   0  0  0  0  0  0  0  0  0  0  0  0
    6.2021  -15.4419   24.5585 C   0  0  0  0  0  0  0  0  0  0  0  0
    5.7376  -14.1844   24.5456 N   0  0  0  0  0  0  0  0  0  0  0  0
    6.4553  -13.4573   25.4201 C   0  0  0  0  0  0  0  0  0  0  0  0
    6.3850  -12.1413   25.7909 C   0  0  0  0  0  0  0  0  0  0  0  0
    7.2434  -11.6128   26.7416 C   0  0  0  0  0  0  0  0  0  0  0  0
    8.1906  -12.4273   27.3297 C   0  0  0  0  0  0  0  0  0  0  0  0
    8.2509  -13.7397   26.9507 C   0  0  0  0  0  0  0  0  0  0  0  0
    7.3905  -14.2717   25.9957 C   0  0  0  0  0  0  0  0  0  0  0  0
   10.1388  -18.0160   25.4048 C   0  0  0  0  0  0  0  0  0  0  0  0
    9.9581  -19.1308   24.8685 O   0  0  0  0  0  0  0  0  0  0  0  0
   11.1455  -17.9275   26.4201 N   0  0  0  0  0  0  0  0  0  0  0  0
   11.7061  -19.1490   26.9622 C   0  0  1  0  0  0  0  0  0  0  0  0
   13.1842  -19.1797   26.6378 C   0  0  0  0  0  0  0  0  0  0  0  0
   13.7761  -20.4193   27.2123 C   0  0  0  0  0  0  0  0  0  0  0  0
   15.2604  -20.5469   26.9261 C   0  0  0  0  0  0  0  0  0  0  0  0
   15.6969  -21.8726   27.5591 C   0  0  0  0  0  0  0  0  0  0  0  0
   17.1407  -21.9324   27.3983 N   0  0  0  0  0  0  0  0  0  0  0  0
   11.5455  -19.1473   28.4377 C   0  0  0  0  0  0  0  0  0  0  0  0
   11.4024  -18.0447   29.0275 O   0  0  0  0  0  0  0  0  0  0  0  0
   11.5415  -20.2888   29.2246 O   0  0  0  0  0  0  0  0  0  0  0  0
  2  1  1  1
  2  3  1  0
  3  4  1  0
  4  5  2  0
  4  8  1  0
  5  6  1  0
  6  7  1  0
  8  7  2  0
  9 10  2  0
  9  2  1  0
 11  9  1  0
 12 13  1  1
 12 11  1  0
 13 14  1  0
 14 15  2  0
 14 22  1  0
 15 16  1  0
 16 17  1  0
 17 18  2  0
 19 18  1  0
 20 19  2  0
 21 22  2  0
 21 20  1  0
 22 17  1  0
 23 12  1  0
 24 23  2  0
 25 23  1  0
 26 25  1  0
 26 27  1  1
 27 28  1  0
 29 28  1  0
 29 30  1  0
 30 31  1  0
 32 26  1  0
 32 34  1  0
 33 32  2  0
M  END
$$$$
