HWK.pdb
     RDKit          3D

 34 36  0  0  1  0  0  0  0  0999 V2000
   11.9078  -13.9933   19.1765 N   0  0  0  0  0  0  0  0  0  0  0  0
   10.5884  -14.4717   19.4954 C   0  0  1  0  0  0  0  0  0  0  0  0
   10.3388  -15.8176   18.8198 C   0  0  0  0  0  0  0  0  0  0  0  0
    9.7197  -15.5662   17.4989 C   0  0  0  0  0  0  0  0  0  0  0  0
    9.5175  -14.3513   16.8920 C   0  0  0  0  0  0  0  0  0  0  0  0
    8.9197  -14.6131   15.6920 N   0  0  0  0  0  0  0  0  0  0  0  0
    8.7530  -15.9440   15.5514 C   0  0  0  0  0  0  0  0  0  0  0  0
    9.2542  -16.5099   16.6785 N   0  0  0  0  0  0  0  0  0  0  0  0
   10.4425  -14.6512   20.9486 C   0  0  0  0  0  0  0  0  0  0  0  0
   11.4019  -14.7583   21.7486 O   0  0  0  0  0  0  0  0  0  0  0  0
    9.1147  -14.7023   21.4620 N   0  0  0  0  0  0  0  0  0  0  0  0
    8.8341  -14.8070   22.8592 C   0  0  1  0  0  0  0  0  0  0  0  0
    7.3775  -14.4937   23.0991 C   0  0  0  0  0  0  0  0  0  0  0  0
    6.9465  -14.4865   24.4866 C   0  0  0  0  0  0  0  0  0  0  0  0
    6.2935  -15.5290   25.1563 C   0  0  0  0  0  0  0  0  0  0  0  0
    6.0224  -15.1556   26.4150 N   0  0  0  0  0  0  0  0  0  0  0  0
    6.4765  -13.9024   26.5938 C   0  0  0  0  0  0  0  0  0  0  0  0
    6.4619  -13.0701   27.6805 C   0  0  0  0  0  0  0  0  0  0  0  0
    7.0136  -11.8003   27.6243 C   0  0  0  0  0  0  0  0  0  0  0  0
    7.5914  -11.3618   26.4493 C   0  0  0  0  0  0  0  0  0  0  0  0
    7.5994  -12.2024   25.3709 C   0  0  0  0  0  0  0  0  0  0  0  0
    7.0451  -13.4771   25.4254 C   0  0  0  0  0  0  0  0  0  0  0  0
    9.2370  -16.1120   23.3690 C   0  0  0  0  0  0  0  0  0  0  0  0
    9.0259  -17.1503   22.7053 O   0  0  0  0  0  0  0  0  0  0  0  0
    9.8860  -16.2602   24.6375 N   0  0  0  0  0  0  0  0  0  0  0  0
   10.2516  -17.5877   25.0890 C   0  0  1  0  0  0  0  0  0  0  0  0
   11.5936  -17.9431   24.4858 C   0  0  0  0  0  0  0  0  0  0  0  0
   11.9704  -19.3142   24.9276 C   0  0  0  0  0  0  0  0  0  0  0  0
   13.3405  -19.7343   24.4295 C   0  0  0  0  0  0  0  0  0  0  0  0
   13.1047  -20.9563   23.5351 C   0  0  0  0  0  0  0  0  0  0  0  0
   14.4252  -21.4205   23.1417 N   0  0  0  0  0  0  0  0  0  0  0  0
   10.3840  -17.5818   26.5672 C   0  0  0  0  0  0  0  0  0  0  0  0
   10.2192  -16.4965   27.1831 O   0  0  0  0  0  0  0  0  0  0  0  0
   10.6801  -18.7011   27.3298 O   0  0  0  0  0  0  0  0  0  0  0  0
  2  1  1  1
  2  3  1  0
  3  4  1  0
  4  5  2  0
  4  8  1  0
  5  6  1  0
  6  7  1  0
  8  7  2  0
  9 10  2  0
  9  2  1  0
 11  9  1  0
 12 13  1  6
 12 11  1  0
 13 14  1  0
 14 15  2  0
 14 22  1  0
 15 16  1  0
 16 17  1  0
 17 18  2  0
 19 18  1  0
 20 19  2  0
 21 22  2  0
 21 20  1  0
 22 17  1  0
 23 12  1  0
 24 23  2  0
 25 23  1  0
 26 25  1  0
 26 27  1  6
 27 28  1  0
 29 28  1  0
 29 30  1  0
 30 31  1  0
 32 26  1  0
 32 34  1  0
 33 32  2  0
M  END
$$$$
