HWK.pdb
     RDKit          3D

 34 36  0  0  1  0  0  0  0  0999 V2000
    9.8227  -16.3423   19.9805 N   0  0  0  0  0  0  0  0  0  0  0  0
    9.3651  -17.2811   20.9708 C   0  0  1  0  0  0  0  0  0  0  0  0
   10.0367  -18.6358   20.7621 C   0  0  0  0  0  0  0  0  0  0  0  0
    9.2264  -19.4116   19.7963 C   0  0  0  0  0  0  0  0  0  0  0  0
    8.0849  -19.0045   19.1511 C   0  0  0  0  0  0  0  0  0  0  0  0
    7.6926  -20.0491   18.3630 N   0  0  0  0  0  0  0  0  0  0  0  0
    8.5568  -21.0741   18.5087 C   0  0  0  0  0  0  0  0  0  0  0  0
    9.4936  -20.6567   19.3975 N   0  0  0  0  0  0  0  0  0  0  0  0
    9.6964  -16.8057   22.3235 C   0  0  0  0  0  0  0  0  0  0  0  0
   10.6275  -16.0080   22.5854 O   0  0  0  0  0  0  0  0  0  0  0  0
    8.8929  -17.2944   23.3935 N   0  0  0  0  0  0  0  0  0  0  0  0
    9.0789  -16.8769   24.7474 C   0  0  1  0  0  0  0  0  0  0  0  0
    7.7458  -16.4812   25.3337 C   0  0  0  0  0  0  0  0  0  0  0  0
    7.2291  -15.1857   24.9266 C   0  0  0  0  0  0  0  0  0  0  0  0
    6.6415  -14.8791   23.6927 C   0  0  0  0  0  0  0  0  0  0  0  0
    6.3129  -13.5798   23.6608 N   0  0  0  0  0  0  0  0  0  0  0  0
    6.6649  -13.0235   24.8335 C   0  0  0  0  0  0  0  0  0  0  0  0
    6.5446  -11.7471   25.3136 C   0  0  0  0  0  0  0  0  0  0  0  0
    6.9798  -11.4106   26.5854 C   0  0  0  0  0  0  0  0  0  0  0  0
    7.5470  -12.3802   27.3883 C   0  0  0  0  0  0  0  0  0  0  0  0
    7.6618  -13.6511   26.8972 C   0  0  0  0  0  0  0  0  0  0  0  0
    7.2263  -13.9904   25.6203 C   0  0  0  0  0  0  0  0  0  0  0  0
    9.7653  -17.9090   25.5149 C   0  0  0  0  0  0  0  0  0  0  0  0
    9.2364  -19.0268   25.6984 O   0  0  0  0  0  0  0  0  0  0  0  0
   11.0613  -17.6904   26.0849 N   0  0  0  0  0  0  0  0  0  0  0  0
   11.6658  -18.7408   26.8792 C   0  0  1  0  0  0  0  0  0  0  0  0
   13.1701  -18.6204   26.7625 C   0  0  0  0  0  0  0  0  0  0  0  0
   13.5483  -18.7060   25.3249 C   0  0  0  0  0  0  0  0  0  0  0  0
   15.0377  -18.5259   25.0992 C   0  0  0  0  0  0  0  0  0  0  0  0
   15.2501  -18.6479   23.5863 C   0  0  0  0  0  0  0  0  0  0  0  0
   16.6729  -18.4432   23.3680 N   0  0  0  0  0  0  0  0  0  0  0  0
   11.2856  -18.5576   28.3021 C   0  0  0  0  0  0  0  0  0  0  0  0
   11.6903  -19.3977   29.1475 O   0  0  0  0  0  0  0  0  0  0  0  0
   10.5058  -17.5131   28.7744 O   0  0  0  0  0  0  0  0  0  0  0  0
  2  1  1  6
  2  3  1  0
  3  4  1  0
  4  5  2  0
  4  8  1  0
  5  6  1  0
  6  7  1  0
  8  7  2  0
  9 10  2  0
  9  2  1  0
 11  9  1  0
 12 13  1  1
 12 11  1  0
 13 14  1  0
 14 15  2  0
 14 22  1  0
 15 16  1  0
 16 17  1  0
 17 18  2  0
 19 18  1  0
 20 19  2  0
 21 22  2  0
 21 20  1  0
 22 17  1  0
 23 12  1  0
 24 23  2  0
 25 23  1  0
 26 25  1  0
 26 27  1  1
 27 28  1  0
 29 28  1  0
 29 30  1  0
 30 31  1  0
 32 26  1  0
 32 34  1  0
 33 32  2  0
M  END
$$$$
