HWK.pdb
     RDKit          3D

 34 36  0  0  1  0  0  0  0  0999 V2000
    9.7643  -17.4484   19.5992 N   0  0  0  0  0  0  0  0  0  0  0  0
    8.9563  -17.2087   20.7658 C   0  0  1  0  0  0  0  0  0  0  0  0
    8.3172  -18.5112   21.2403 C   0  0  0  0  0  0  0  0  0  0  0  0
    7.4683  -19.0367   20.1474 C   0  0  0  0  0  0  0  0  0  0  0  0
    7.8803  -19.7062   19.0218 C   0  0  0  0  0  0  0  0  0  0  0  0
    6.7518  -19.9935   18.3077 N   0  0  0  0  0  0  0  0  0  0  0  0
    5.6711  -19.5213   18.9620 C   0  0  0  0  0  0  0  0  0  0  0  0
    6.1389  -18.9356   20.0933 N   0  0  0  0  0  0  0  0  0  0  0  0
    9.7794  -16.6730   21.8617 C   0  0  0  0  0  0  0  0  0  0  0  0
   11.0328  -16.6948   21.8817 O   0  0  0  0  0  0  0  0  0  0  0  0
    9.0877  -16.0932   22.9638 N   0  0  0  0  0  0  0  0  0  0  0  0
    9.7637  -15.5959   24.1203 C   0  0  1  0  0  0  0  0  0  0  0  0
    9.2989  -14.1880   24.4014 C   0  0  0  0  0  0  0  0  0  0  0  0
    7.9894  -14.0595   25.0176 C   0  0  0  0  0  0  0  0  0  0  0  0
    7.0391  -15.0780   25.1630 C   0  0  0  0  0  0  0  0  0  0  0  0
    5.9381  -14.5864   25.7491 N   0  0  0  0  0  0  0  0  0  0  0  0
    6.1348  -13.2787   25.9939 C   0  0  0  0  0  0  0  0  0  0  0  0
    5.3411  -12.3271   26.5759 C   0  0  0  0  0  0  0  0  0  0  0  0
    5.7766  -11.0209   26.7312 C   0  0  0  0  0  0  0  0  0  0  0  0
    7.0369  -10.6679   26.2911 C   0  0  0  0  0  0  0  0  0  0  0  0
    7.8198  -11.6272   25.7113 C   0  0  0  0  0  0  0  0  0  0  0  0
    7.3838  -12.9389   25.5538 C   0  0  0  0  0  0  0  0  0  0  0  0
    9.5859  -16.5005   25.2497 C   0  0  0  0  0  0  0  0  0  0  0  0
   10.1476  -16.2750   26.3436 O   0  0  0  0  0  0  0  0  0  0  0  0
    8.7684  -17.6733   25.1569 N   0  0  0  0  0  0  0  0  0  0  0  0
    8.6958  -18.5709   26.2922 C   0  0  1  0  0  0  0  0  0  0  0  0
    7.8997  -19.7917   25.8839 C   0  0  0  0  0  0  0  0  0  0  0  0
    7.8170  -20.7210   27.0444 C   0  0  0  0  0  0  0  0  0  0  0  0
    6.9680  -21.9446   26.7558 C   0  0  0  0  0  0  0  0  0  0  0  0
    6.9552  -22.7613   28.0526 C   0  0  0  0  0  0  0  0  0  0  0  0
    6.2395  -23.9881   27.7416 N   0  0  0  0  0  0  0  0  0  0  0  0
   10.0668  -19.0021   26.6624 C   0  0  0  0  0  0  0  0  0  0  0  0
   10.8491  -19.3741   25.7493 O   0  0  0  0  0  0  0  0  0  0  0  0
   10.5552  -19.0250   27.9597 O   0  0  0  0  0  0  0  0  0  0  0  0
  2  1  1  6
  2  3  1  0
  3  4  1  0
  4  5  2  0
  4  8  1  0
  5  6  1  0
  6  7  1  0
  8  7  2  0
  9 10  2  0
  9  2  1  0
 11  9  1  0
 12 13  1  1
 12 11  1  0
 13 14  1  0
 14 15  2  0
 14 22  1  0
 15 16  1  0
 16 17  1  0
 17 18  2  0
 19 18  1  0
 20 19  2  0
 21 22  2  0
 21 20  1  0
 22 17  1  0
 23 12  1  0
 24 23  2  0
 25 23  1  0
 26 25  1  0
 26 27  1  6
 27 28  1  0
 29 28  1  0
 29 30  1  0
 30 31  1  0
 32 26  1  0
 32 34  1  0
 33 32  2  0
M  END
$$$$
