EQS.pdb
     RDKit          3D

 25 24  0  0  1  0  0  0  0  0999 V2000
   20.0643  -12.5337  -16.9427 N   0  0  0  0  0  0  0  0  0  0  0  0
   19.2506  -11.3238  -16.8907 C   0  0  1  0  0  0  0  0  0  0  0  0
   18.4511  -11.4147  -15.6077 C   0  0  0  0  0  0  0  0  0  0  0  0
   17.3937  -12.4917  -15.7448 C   0  0  0  0  0  0  0  0  0  0  0  0
   16.6200  -12.5481  -14.4877 C   0  0  0  0  0  0  0  0  0  0  0  0
   16.6731  -11.6227  -13.6655 O   0  0  0  0  0  0  0  0  0  0  0  0
   20.1877  -10.1734  -16.8915 C   0  0  0  0  0  0  0  0  0  0  0  0
   21.3934  -10.2717  -16.5390 O   0  0  0  0  0  0  0  0  0  0  0  0
   15.8125  -13.6838  -14.2460 O   0  0  0  0  0  0  0  0  0  0  0  0
   19.2836   -5.6517  -20.7129 N   0  0  0  0  0  0  0  0  0  0  0  0
   20.1443   -6.7625  -20.9622 C   0  0  0  0  0  0  0  0  0  0  0  0
   20.3358   -7.0996  -22.1446 O   0  0  0  0  0  0  0  0  0  0  0  0
   20.7413   -7.4233  -19.7759 C   0  0  0  0  0  0  0  0  0  0  0  0
   20.2550   -6.8489  -18.4808 C   0  0  0  0  0  0  0  0  0  0  0  0
   20.6484   -7.7246  -17.2838 C   0  0  2  0  0  0  0  0  0  0  0  0
   19.7640   -8.8585  -17.3019 N   0  0  0  0  0  0  0  0  0  0  0  0
   20.4675   -6.8699  -16.0889 C   0  0  0  0  0  0  0  0  0  0  0  0
   19.2837   -6.6468  -15.7353 O   0  0  0  0  0  0  0  0  0  0  0  0
   21.3573   -7.3589  -12.6933 O   0  0  0  0  0  0  0  0  0  0  0  0
   21.9657   -6.1290  -12.9496 C   0  0  0  0  0  0  0  0  0  0  0  0
   21.2635   -5.5467  -14.1468 C   0  0  2  0  0  0  0  0  0  0  0  0
   21.5176   -6.3089  -15.3457 N   0  0  0  0  0  0  0  0  0  0  0  0
   21.6938   -4.1183  -14.3072 C   0  0  0  0  0  0  0  0  0  0  0  0
   22.3364   -3.8018  -15.3323 O   0  0  0  0  0  0  0  0  0  0  0  0
   21.3794   -3.1736  -13.3345 O   0  0  0  0  0  0  0  0  0  0  0  0
  2  1  1  1
  2  7  1  0
  3  2  1  0
  4  3  1  0
  5  4  1  0
  5  6  2  0
  7  8  2  0
  9  5  1  0
 10 11  1  0
 11 12  2  0
 13 11  1  0
 13 14  1  0
 15 14  1  6
 16  7  1  0
 16 15  1  0
 17 18  2  0
 17 15  1  0
 19 20  1  0
 21 20  1  1
 21 22  1  0
 21 23  1  0
 22 17  1  0
 23 25  1  0
 24 23  2  0
M  END
$$$$
