EQS.pdb
     RDKit          3D

 25 24  0  0  1  0  0  0  0  0999 V2000
   20.2170  -12.3346  -17.2668 N   0  0  0  0  0  0  0  0  0  0  0  0
   19.1485  -11.3414  -17.2391 C   0  0  1  0  0  0  0  0  0  0  0  0
   18.3191  -11.6568  -16.0118 C   0  0  0  0  0  0  0  0  0  0  0  0
   17.3912  -12.8169  -16.3117 C   0  0  0  0  0  0  0  0  0  0  0  0
   16.6705  -13.1702  -15.0716 C   0  0  0  0  0  0  0  0  0  0  0  0
   17.1957  -13.8949  -14.2146 O   0  0  0  0  0  0  0  0  0  0  0  0
   19.7989  -10.0105  -17.1541 C   0  0  0  0  0  0  0  0  0  0  0  0
   20.9827   -9.8509  -16.7533 O   0  0  0  0  0  0  0  0  0  0  0  0
   15.3660  -12.6575  -14.8832 O   0  0  0  0  0  0  0  0  0  0  0  0
   17.0637   -4.6645  -19.1525 N   0  0  0  0  0  0  0  0  0  0  0  0
   18.3252   -4.1556  -18.7208 C   0  0  0  0  0  0  0  0  0  0  0  0
   18.5596   -2.9465  -18.8989 O   0  0  0  0  0  0  0  0  0  0  0  0
   19.2551   -5.1243  -18.0904 C   0  0  0  0  0  0  0  0  0  0  0  0
   18.7008   -6.5147  -18.0348 C   0  0  0  0  0  0  0  0  0  0  0  0
   19.7003   -7.5043  -17.4217 C   0  0  2  0  0  0  0  0  0  0  0  0
   19.1013   -8.8072  -17.5311 N   0  0  0  0  0  0  0  0  0  0  0  0
   19.8825   -7.0682  -16.0189 C   0  0  0  0  0  0  0  0  0  0  0  0
   19.1375   -7.6079  -15.1646 O   0  0  0  0  0  0  0  0  0  0  0  0
   22.3470   -6.9804  -12.4341 O   0  0  0  0  0  0  0  0  0  0  0  0
   21.9111   -7.2493  -13.7326 C   0  0  0  0  0  0  0  0  0  0  0  0
   21.2136   -6.0056  -14.2147 C   0  0  2  0  0  0  0  0  0  0  0  0
   20.8180   -6.1102  -15.5987 N   0  0  0  0  0  0  0  0  0  0  0  0
   22.1209   -4.8311  -13.9941 C   0  0  0  0  0  0  0  0  0  0  0  0
   22.4162   -4.5194  -12.8195 O   0  0  0  0  0  0  0  0  0  0  0  0
   22.6195   -4.1121  -15.0767 O   0  0  0  0  0  0  0  0  0  0  0  0
  2  1  1  1
  2  7  1  0
  3  2  1  0
  4  3  1  0
  5  4  1  0
  5  6  2  0
  7  8  2  0
  9  5  1  0
 10 11  1  0
 11 12  2  0
 13 11  1  0
 13 14  1  0
 15 14  1  6
 16  7  1  0
 16 15  1  0
 17 18  2  0
 17 15  1  0
 19 20  1  0
 21 20  1  6
 21 22  1  0
 21 23  1  0
 22 17  1  0
 23 25  1  0
 24 23  2  0
M  END
$$$$
