EQS.pdb
     RDKit          3D

 25 24  0  0  1  0  0  0  0  0999 V2000
   22.1832  -20.5590  -10.7460 N   0  0  0  0  0  0  0  0  0  0  0  0
   23.3898  -20.4608  -11.5604 C   0  0  1  0  0  0  0  0  0  0  0  0
   24.2243  -21.6767  -11.2159 C   0  0  0  0  0  0  0  0  0  0  0  0
   24.8597  -21.4858   -9.8533 C   0  0  0  0  0  0  0  0  0  0  0  0
   26.2840  -21.1452  -10.0466 C   0  0  0  0  0  0  0  0  0  0  0  0
   26.8031  -20.2048   -9.4289 O   0  0  0  0  0  0  0  0  0  0  0  0
   22.9539  -20.4589  -12.9787 C   0  0  0  0  0  0  0  0  0  0  0  0
   23.7602  -20.5413  -13.9433 O   0  0  0  0  0  0  0  0  0  0  0  0
   27.0438  -21.9217  -10.9520 O   0  0  0  0  0  0  0  0  0  0  0  0
   16.8903  -20.5914  -14.7818 N   0  0  0  0  0  0  0  0  0  0  0  0
   17.5171  -20.3617  -16.0433 C   0  0  0  0  0  0  0  0  0  0  0  0
   16.7899  -20.2683  -17.0488 O   0  0  0  0  0  0  0  0  0  0  0  0
   18.9965  -20.2527  -16.0432 C   0  0  0  0  0  0  0  0  0  0  0  0
   19.5884  -20.3375  -14.6699 C   0  0  0  0  0  0  0  0  0  0  0  0
   21.1219  -20.3002  -14.7053 C   0  0  2  0  0  0  0  0  0  0  0  0
   21.5615  -20.3608  -13.3374 N   0  0  0  0  0  0  0  0  0  0  0  0
   21.4737  -19.0247  -15.3691 C   0  0  0  0  0  0  0  0  0  0  0  0
   21.0090  -17.9790  -14.8526 O   0  0  0  0  0  0  0  0  0  0  0  0
   24.1901  -18.8201  -18.2953 O   0  0  0  0  0  0  0  0  0  0  0  0
   23.9835  -17.5946  -17.6597 C   0  0  0  0  0  0  0  0  0  0  0  0
   22.5881  -17.6358  -17.0969 C   0  0  2  0  0  0  0  0  0  0  0  0
   22.2782  -18.9193  -16.5143 N   0  0  0  0  0  0  0  0  0  0  0  0
   21.6204  -17.2844  -18.1884 C   0  0  0  0  0  0  0  0  0  0  0  0
   20.7239  -18.1074  -18.4768 O   0  0  0  0  0  0  0  0  0  0  0  0
   21.7235  -16.0684  -18.8578 O   0  0  0  0  0  0  0  0  0  0  0  0
  2  1  1  1
  2  7  1  0
  3  2  1  0
  4  3  1  0
  5  4  1  0
  5  6  2  0
  7  8  2  0
  9  5  1  0
 10 11  1  0
 11 12  2  0
 13 11  1  0
 13 14  1  0
 15 14  1  1
 16  7  1  0
 16 15  1  0
 17 18  2  0
 17 15  1  0
 19 20  1  0
 21 20  1  6
 21 22  1  0
 21 23  1  0
 22 17  1  0
 23 25  1  0
 24 23  2  0
M  END
$$$$
