EQS.pdb
     RDKit          3D

 25 24  0  0  1  0  0  0  0  0999 V2000
   26.1517  -19.5131  -16.6397 N   0  0  0  0  0  0  0  0  0  0  0  0
   26.6924  -20.8645  -16.5393 C   0  0  1  0  0  0  0  0  0  0  0  0
   28.1491  -20.7026  -16.1581 C   0  0  0  0  0  0  0  0  0  0  0  0
   28.9367  -20.2205  -17.3597 C   0  0  0  0  0  0  0  0  0  0  0  0
   28.9152  -18.7435  -17.3694 C   0  0  0  0  0  0  0  0  0  0  0  0
   28.9956  -18.0988  -16.3142 O   0  0  0  0  0  0  0  0  0  0  0  0
   25.9095  -21.5656  -15.4919 C   0  0  0  0  0  0  0  0  0  0  0  0
   26.0506  -22.7914  -15.2364 O   0  0  0  0  0  0  0  0  0  0  0  0
   28.8043  -18.0811  -18.6140 O   0  0  0  0  0  0  0  0  0  0  0  0
   25.3520  -20.3461   -9.8685 N   0  0  0  0  0  0  0  0  0  0  0  0
   26.3210  -21.0544  -10.6406 C   0  0  0  0  0  0  0  0  0  0  0  0
   27.4358  -21.2644  -10.1291 O   0  0  0  0  0  0  0  0  0  0  0  0
   25.9078  -21.4828  -11.9993 C   0  0  0  0  0  0  0  0  0  0  0  0
   24.5222  -21.0390  -12.3557 C   0  0  0  0  0  0  0  0  0  0  0  0
   24.0964  -21.5500  -13.7383 C   0  0  2  0  0  0  0  0  0  0  0  0
   24.9283  -20.8724  -14.6959 N   0  0  0  0  0  0  0  0  0  0  0  0
   22.6639  -21.2004  -13.8679 C   0  0  0  0  0  0  0  0  0  0  0  0
   22.4004  -19.9908  -14.0767 O   0  0  0  0  0  0  0  0  0  0  0  0
   18.9087  -20.9609  -11.6644 O   0  0  0  0  0  0  0  0  0  0  0  0
   20.2537  -21.1443  -11.9896 C   0  0  0  0  0  0  0  0  0  0  0  0
   20.2825  -21.7039  -13.3866 C   0  0  2  0  0  0  0  0  0  0  0  0
   21.6086  -22.1209  -13.7743 N   0  0  0  0  0  0  0  0  0  0  0  0
   19.7388  -20.6701  -14.3284 C   0  0  0  0  0  0  0  0  0  0  0  0
   20.5265  -19.8202  -14.7987 O   0  0  0  0  0  0  0  0  0  0  0  0
   18.3887  -20.6655  -14.6673 O   0  0  0  0  0  0  0  0  0  0  0  0
  2  1  1  1
  2  7  1  0
  3  2  1  0
  4  3  1  0
  5  4  1  0
  5  6  2  0
  7  8  2  0
  9  5  1  0
 10 11  1  0
 11 12  2  0
 13 11  1  0
 13 14  1  0
 15 14  1  1
 16  7  1  0
 16 15  1  0
 17 18  2  0
 17 15  1  0
 19 20  1  0
 21 20  1  1
 21 22  1  0
 21 23  1  0
 22 17  1  0
 23 25  1  0
 24 23  2  0
M  END
$$$$
