EQS.pdb
     RDKit          3D

 25 24  0  0  1  0  0  0  0  0999 V2000
   13.4448   -9.6796  -15.0527 N   0  0  0  0  0  0  0  0  0  0  0  0
   14.6381   -9.7233  -14.2143 C   0  0  1  0  0  0  0  0  0  0  0  0
   15.2501  -11.0912  -14.4326 C   0  0  0  0  0  0  0  0  0  0  0  0
   14.3730  -12.1472  -13.7905 C   0  0  0  0  0  0  0  0  0  0  0  0
   15.0114  -13.4650  -13.9849 C   0  0  0  0  0  0  0  0  0  0  0  0
   14.4473  -14.5058  -13.6192 O   0  0  0  0  0  0  0  0  0  0  0  0
   15.5274   -8.6274  -14.6723 C   0  0  0  0  0  0  0  0  0  0  0  0
   15.6913   -8.3411  -15.8883 O   0  0  0  0  0  0  0  0  0  0  0  0
   16.2826  -13.5112  -14.6031 O   0  0  0  0  0  0  0  0  0  0  0  0
   14.3410   -2.8491  -15.1285 N   0  0  0  0  0  0  0  0  0  0  0  0
   14.8565   -3.7122  -14.1156 C   0  0  0  0  0  0  0  0  0  0  0  0
   14.7619   -3.3444  -12.9306 O   0  0  0  0  0  0  0  0  0  0  0  0
   15.4653   -4.9860  -14.5708 C   0  0  0  0  0  0  0  0  0  0  0  0
   16.5723   -5.4563  -13.6779 C   0  0  0  0  0  0  0  0  0  0  0  0
   17.1712   -6.7837  -14.1610 C   0  0  2  0  0  0  0  0  0  0  0  0
   16.2651   -7.8167  -13.7366 N   0  0  0  0  0  0  0  0  0  0  0  0
   18.4996   -6.8795  -13.5151 C   0  0  0  0  0  0  0  0  0  0  0  0
   18.6280   -7.7592  -12.6286 O   0  0  0  0  0  0  0  0  0  0  0  0
   22.6560   -7.8413  -13.0466 O   0  0  0  0  0  0  0  0  0  0  0  0
   21.3968   -7.7071  -13.6338 C   0  0  0  0  0  0  0  0  0  0  0  0
   20.9075   -6.3275  -13.2835 C   0  0  2  0  0  0  0  0  0  0  0  0
   19.5977   -6.0640  -13.8294 N   0  0  0  0  0  0  0  0  0  0  0  0
   21.9125   -5.3247  -13.7691 C   0  0  0  0  0  0  0  0  0  0  0  0
   21.8009   -4.8869  -14.9353 O   0  0  0  0  0  0  0  0  0  0  0  0
   22.9403   -4.8955  -12.9344 O   0  0  0  0  0  0  0  0  0  0  0  0
  2  1  1  6
  2  7  1  0
  3  2  1  0
  4  3  1  0
  5  4  1  0
  5  6  2  0
  7  8  2  0
  9  5  1  0
 10 11  1  0
 11 12  2  0
 13 11  1  0
 13 14  1  0
 15 14  1  1
 16  7  1  0
 16 15  1  0
 17 18  2  0
 17 15  1  0
 19 20  1  0
 21 20  1  6
 21 22  1  0
 21 23  1  0
 22 17  1  0
 23 25  1  0
 24 23  2  0
M  END
$$$$
