EQS.pdb
     RDKit          3D

 25 24  0  0  1  0  0  0  0  0999 V2000
   19.5751  -11.8130  -15.7706 N   0  0  0  0  0  0  0  0  0  0  0  0
   19.3757  -10.6313  -16.6028 C   0  0  1  0  0  0  0  0  0  0  0  0
   17.8790  -10.5082  -16.7988 C   0  0  0  0  0  0  0  0  0  0  0  0
   17.1892  -10.5114  -15.4495 C   0  0  0  0  0  0  0  0  0  0  0  0
   15.7314  -10.4224  -15.6708 C   0  0  0  0  0  0  0  0  0  0  0  0
   15.1378  -11.2713  -16.3508 O   0  0  0  0  0  0  0  0  0  0  0  0
   19.9442   -9.4796  -15.8598 C   0  0  0  0  0  0  0  0  0  0  0  0
   20.0379   -9.4536  -14.6036 O   0  0  0  0  0  0  0  0  0  0  0  0
   15.0271   -9.3454  -15.0840 O   0  0  0  0  0  0  0  0  0  0  0  0
   25.0785   -6.8564  -17.0107 N   0  0  0  0  0  0  0  0  0  0  0  0
   24.6255   -5.8949  -16.0583 C   0  0  0  0  0  0  0  0  0  0  0  0
   25.4419   -5.0508  -15.6464 O   0  0  0  0  0  0  0  0  0  0  0  0
   23.2054   -5.9880  -15.6399 C   0  0  0  0  0  0  0  0  0  0  0  0
   22.4649   -7.0931  -16.3285 C   0  0  0  0  0  0  0  0  0  0  0  0
   21.0118   -7.1943  -15.8463 C   0  0  2  0  0  0  0  0  0  0  0  0
   20.4285   -8.3078  -16.5449 N   0  0  0  0  0  0  0  0  0  0  0  0
   20.3850   -5.8999  -16.1971 C   0  0  0  0  0  0  0  0  0  0  0  0
   20.3327   -5.6173  -17.4192 O   0  0  0  0  0  0  0  0  0  0  0  0
   17.5189   -4.0819  -14.2737 O   0  0  0  0  0  0  0  0  0  0  0  0
   17.8347   -3.6541  -15.5643 C   0  0  0  0  0  0  0  0  0  0  0  0
   19.3343   -3.7129  -15.6784 C   0  0  2  0  0  0  0  0  0  0  0  0
   19.8577   -4.9928  -15.2651 N   0  0  0  0  0  0  0  0  0  0  0  0
   19.9211   -2.5959  -14.8665 C   0  0  0  0  0  0  0  0  0  0  0  0
   20.7002   -2.8849  -13.9318 O   0  0  0  0  0  0  0  0  0  0  0  0
   19.6025   -1.2719  -15.1547 O   0  0  0  0  0  0  0  0  0  0  0  0
  2  1  1  1
  2  7  1  0
  3  2  1  0
  4  3  1  0
  5  4  1  0
  5  6  2  0
  7  8  2  0
  9  5  1  0
 10 11  1  0
 11 12  2  0
 13 11  1  0
 13 14  1  0
 15 14  1  6
 16  7  1  0
 16 15  1  0
 17 18  2  0
 17 15  1  0
 19 20  1  0
 21 20  1  1
 21 22  1  0
 21 23  1  0
 22 17  1  0
 23 25  1  0
 24 23  2  0
M  END
$$$$
