LFH.pdb
     RDKit          3D

 30 31  0  0  1  0  0  0  0  0999 V2000
   38.8635  -18.7173   10.7207 C   0  0  0  0  0  0  0  0  0  0  0  0
   37.5986  -17.9223   10.8250 C   0  0  1  0  0  0  0  0  0  0  0  0
   37.5071  -17.0128    9.6186 C   0  0  0  0  0  0  0  0  0  0  0  0
   36.4033  -18.8331   10.9316 C   0  0  0  0  0  0  0  0  0  0  0  0
   35.1072  -18.0950   10.9799 C   0  0  2  0  0  0  0  0  0  0  0  0
   35.0214  -17.3855   12.2410 N   0  0  0  0  0  0  0  0  0  0  0  0
   33.9940  -19.0960   10.8743 C   0  0  0  0  0  0  0  0  0  0  0  0
   33.6628  -19.7963   11.8836 O   0  0  0  0  0  0  0  0  0  0  0  0
   33.2928  -19.2794    9.6509 N   0  0  0  0  0  0  0  0  0  0  0  0
   32.2193  -20.2152    9.5965 C   0  0  1  0  0  0  0  0  0  0  0  0
   31.1659  -19.8789    8.5860 C   0  0  0  0  0  0  0  0  0  0  0  0
   31.6435  -19.8287    7.2109 C   0  0  0  0  0  0  0  0  0  0  0  0
   32.3623  -18.7641    6.7276 C   0  0  0  0  0  0  0  0  0  0  0  0
   32.8178  -18.7183    5.4145 C   0  0  0  0  0  0  0  0  0  0  0  0
   32.5498  -19.7562    4.5681 C   0  0  0  0  0  0  0  0  0  0  0  0
   31.8265  -20.8461    5.0245 C   0  0  0  0  0  0  0  0  0  0  0  0
   31.3813  -20.8670    6.3466 C   0  0  0  0  0  0  0  0  0  0  0  0
   32.7354  -21.6010    9.3032 C   0  0  0  0  0  0  0  0  0  0  0  0
   33.7771  -21.7792    8.6301 O   0  0  0  0  0  0  0  0  0  0  0  0
   32.0499  -22.7523    9.7849 N   0  0  0  0  0  0  0  0  0  0  0  0
   32.5795  -24.1049    9.6082 C   0  0  1  0  0  0  0  0  0  0  0  0
   33.9556  -24.2367   10.1513 C   0  0  0  0  0  0  0  0  0  0  0  0
   34.4403  -25.6245   10.0097 C   0  0  0  0  0  0  0  0  0  0  0  0
   34.4359  -26.4782    8.9247 C   0  0  0  0  0  0  0  0  0  0  0  0
   34.9706  -27.6488    9.3020 N   0  0  0  0  0  0  0  0  0  0  0  0
   35.3194  -27.5819   10.5898 C   0  0  0  0  0  0  0  0  0  0  0  0
   34.9930  -26.3476   11.0107 N   0  0  0  0  0  0  0  0  0  0  0  0
   31.6352  -25.1106   10.1352 C   0  0  0  0  0  0  0  0  0  0  0  0
   31.5186  -25.2625   11.5099 O   0  0  0  0  0  0  0  0  0  0  0  0
   30.9308  -25.8371    9.4076 O   0  0  0  0  0  0  0  0  0  0  0  0
  2  3  1  6
  2  1  1  0
  4  2  1  0
  5  4  1  0
  5  6  1  1
  7  5  1  0
  7  8  2  0
  9  7  1  0
 10  9  1  0
 10 11  1  6
 12 11  1  0
 12 17  1  0
 13 12  2  0
 14 13  1  0
 14 15  2  0
 15 16  1  0
 16 17  2  0
 18 10  1  0
 19 18  2  0
 20 18  1  0
 21 20  1  0
 21 22  1  1
 22 23  1  0
 23 27  1  0
 24 23  2  0
 24 25  1  0
 25 26  1  0
 27 26  2  0
 28 21  1  0
 28 29  1  0
 30 28  2  0
M  END
$$$$
