LFH.pdb
     RDKit          3D

 30 31  0  0  1  0  0  0  0  0999 V2000
   35.7758  -29.1253  -22.2653 C   0  0  0  0  0  0  0  0  0  0  0  0
   35.6086  -28.0015  -21.2896 C   0  0  1  0  0  0  0  0  0  0  0  0
   35.2820  -26.7429  -22.0643 C   0  0  0  0  0  0  0  0  0  0  0  0
   34.5420  -28.3285  -20.2771 C   0  0  0  0  0  0  0  0  0  0  0  0
   34.2623  -27.2036  -19.3372 C   0  0  2  0  0  0  0  0  0  0  0  0
   35.3119  -27.1586  -18.3385 N   0  0  0  0  0  0  0  0  0  0  0  0
   32.9368  -27.4597  -18.6815 C   0  0  0  0  0  0  0  0  0  0  0  0
   32.8662  -28.1850  -17.6385 O   0  0  0  0  0  0  0  0  0  0  0  0
   31.7418  -26.8997  -19.2111 N   0  0  0  0  0  0  0  0  0  0  0  0
   30.5009  -27.1647  -18.5622 C   0  0  1  0  0  0  0  0  0  0  0  0
   29.5385  -26.0172  -18.5917 C   0  0  0  0  0  0  0  0  0  0  0  0
   28.2364  -26.3070  -18.0066 C   0  0  0  0  0  0  0  0  0  0  0  0
   27.1103  -26.4627  -18.7756 C   0  0  0  0  0  0  0  0  0  0  0  0
   25.8682  -26.7397  -18.2151 C   0  0  0  0  0  0  0  0  0  0  0  0
   25.7491  -26.8635  -16.8601 C   0  0  0  0  0  0  0  0  0  0  0  0
   26.8665  -26.7121  -16.0552 C   0  0  0  0  0  0  0  0  0  0  0  0
   28.1010  -26.4345  -16.6431 C   0  0  0  0  0  0  0  0  0  0  0  0
   29.8270  -28.3673  -19.1725 C   0  0  0  0  0  0  0  0  0  0  0  0
   29.7870  -28.5313  -20.4141 O   0  0  0  0  0  0  0  0  0  0  0  0
   29.2134  -29.3553  -18.3511 N   0  0  0  0  0  0  0  0  0  0  0  0
   28.5279  -30.5195  -18.9133 C   0  0  1  0  0  0  0  0  0  0  0  0
   28.1089  -31.4784  -17.8593 C   0  0  0  0  0  0  0  0  0  0  0  0
   29.2418  -32.3354  -17.4552 C   0  0  0  0  0  0  0  0  0  0  0  0
   30.4647  -32.0161  -16.8996 C   0  0  0  0  0  0  0  0  0  0  0  0
   31.1644  -33.1478  -16.7321 N   0  0  0  0  0  0  0  0  0  0  0  0
   30.4386  -34.1848  -17.1592 C   0  0  0  0  0  0  0  0  0  0  0  0
   29.2718  -33.6805  -17.5967 N   0  0  0  0  0  0  0  0  0  0  0  0
   27.4278  -30.1003  -19.8048 C   0  0  0  0  0  0  0  0  0  0  0  0
   26.9637  -30.9941  -20.7598 O   0  0  0  0  0  0  0  0  0  0  0  0
   26.8880  -28.9784  -19.7467 O   0  0  0  0  0  0  0  0  0  0  0  0
  2  3  1  6
  2  1  1  0
  4  2  1  0
  5  4  1  0
  5  6  1  1
  7  5  1  0
  7  8  2  0
  9  7  1  0
 10  9  1  0
 10 11  1  6
 12 11  1  0
 12 17  1  0
 13 12  2  0
 14 13  1  0
 14 15  2  0
 15 16  1  0
 16 17  2  0
 18 10  1  0
 19 18  2  0
 20 18  1  0
 21 20  1  0
 21 22  1  1
 22 23  1  0
 23 27  1  0
 24 23  2  0
 24 25  1  0
 25 26  1  0
 27 26  2  0
 28 21  1  0
 28 29  1  0
 30 28  2  0
M  END
$$$$
