LFH.pdb
     RDKit          3D

 30 31  0  0  1  0  0  0  0  0999 V2000
   28.9649  -22.5493  -20.3878 C   0  0  0  0  0  0  0  0  0  0  0  0
   27.6088  -22.2927  -19.8065 C   0  0  1  0  0  0  0  0  0  0  0  0
   26.5690  -22.6554  -20.8449 C   0  0  0  0  0  0  0  0  0  0  0  0
   27.4199  -23.0698  -18.5297 C   0  0  0  0  0  0  0  0  0  0  0  0
   28.2481  -22.5523  -17.4013 C   0  0  2  0  0  0  0  0  0  0  0  0
   29.3928  -23.4240  -17.2251 N   0  0  0  0  0  0  0  0  0  0  0  0
   27.4030  -22.5536  -16.1611 C   0  0  0  0  0  0  0  0  0  0  0  0
   26.8905  -23.6372  -15.7347 O   0  0  0  0  0  0  0  0  0  0  0  0
   27.1604  -21.3500  -15.4437 N   0  0  0  0  0  0  0  0  0  0  0  0
   26.4379  -21.4039  -14.2164 C   0  0  1  0  0  0  0  0  0  0  0  0
   26.8076  -20.3279  -13.2418 C   0  0  0  0  0  0  0  0  0  0  0  0
   26.2369  -20.4966  -11.9124 C   0  0  0  0  0  0  0  0  0  0  0  0
   26.8593  -21.2405  -10.9413 C   0  0  0  0  0  0  0  0  0  0  0  0
   26.3131  -21.4000   -9.6724 C   0  0  0  0  0  0  0  0  0  0  0  0
   25.1220  -20.8047   -9.3681 C   0  0  0  0  0  0  0  0  0  0  0  0
   24.4679  -20.0468  -10.3259 C   0  0  0  0  0  0  0  0  0  0  0  0
   25.0377  -19.9028  -11.5911 C   0  0  0  0  0  0  0  0  0  0  0  0
   24.9535  -21.3285  -14.4685 C   0  0  0  0  0  0  0  0  0  0  0  0
   24.4528  -20.3934  -15.1354 O   0  0  0  0  0  0  0  0  0  0  0  0
   24.0742  -22.3227  -13.9530 N   0  0  0  0  0  0  0  0  0  0  0  0
   22.6202  -22.2181  -14.0798 C   0  0  1  0  0  0  0  0  0  0  0  0
   21.9160  -23.1849  -13.1993 C   0  0  0  0  0  0  0  0  0  0  0  0
   20.4676  -23.1920  -13.4875 C   0  0  0  0  0  0  0  0  0  0  0  0
   19.7513  -23.7823  -14.5095 C   0  0  0  0  0  0  0  0  0  0  0  0
   18.4542  -23.4821  -14.3486 N   0  0  0  0  0  0  0  0  0  0  0  0
   18.3073  -22.7202  -13.2612 C   0  0  0  0  0  0  0  0  0  0  0  0
   19.5368  -22.5496  -12.7450 N   0  0  0  0  0  0  0  0  0  0  0  0
   22.1774  -20.8209  -13.9000 C   0  0  0  0  0  0  0  0  0  0  0  0
   22.2161  -20.2657  -12.6284 O   0  0  0  0  0  0  0  0  0  0  0  0
   21.7673  -20.1059  -14.8349 O   0  0  0  0  0  0  0  0  0  0  0  0
  2  3  1  6
  2  1  1  0
  4  2  1  0
  5  4  1  0
  5  6  1  1
  7  5  1  0
  7  8  2  0
  9  7  1  0
 10  9  1  0
 10 11  1  1
 12 11  1  0
 12 17  1  0
 13 12  2  0
 14 13  1  0
 14 15  2  0
 15 16  1  0
 16 17  2  0
 18 10  1  0
 19 18  2  0
 20 18  1  0
 21 20  1  0
 21 22  1  1
 22 23  1  0
 23 27  1  0
 24 23  2  0
 24 25  1  0
 25 26  1  0
 27 26  2  0
 28 21  1  0
 28 29  1  0
 30 28  2  0
M  END
$$$$
