LFH.pdb
     RDKit          3D

 30 31  0  0  1  0  0  0  0  0999 V2000
   30.8403  -24.1344  -17.0200 C   0  0  0  0  0  0  0  0  0  0  0  0
   29.7632  -23.1284  -17.2859 C   0  0  1  0  0  0  0  0  0  0  0  0
   29.1385  -23.4431  -18.6281 C   0  0  0  0  0  0  0  0  0  0  0  0
   28.7424  -23.1344  -16.1779 C   0  0  0  0  0  0  0  0  0  0  0  0
   27.6481  -22.1410  -16.3845 C   0  0  2  0  0  0  0  0  0  0  0  0
   28.2393  -20.8510  -16.6806 N   0  0  0  0  0  0  0  0  0  0  0  0
   26.8429  -22.0615  -15.1205 C   0  0  0  0  0  0  0  0  0  0  0  0
   26.3683  -23.1182  -14.5943 O   0  0  0  0  0  0  0  0  0  0  0  0
   26.5967  -20.8103  -14.4911 N   0  0  0  0  0  0  0  0  0  0  0  0
   25.7286  -20.7572  -13.3621 C   0  0  1  0  0  0  0  0  0  0  0  0
   26.0654  -19.6749  -12.3827 C   0  0  0  0  0  0  0  0  0  0  0  0
   26.6834  -20.1471  -11.1511 C   0  0  0  0  0  0  0  0  0  0  0  0
   26.0041  -20.1741   -9.9589 C   0  0  0  0  0  0  0  0  0  0  0  0
   26.5957  -20.6256   -8.7842 C   0  0  0  0  0  0  0  0  0  0  0  0
   27.8911  -21.0584   -8.8013 C   0  0  0  0  0  0  0  0  0  0  0  0
   28.6050  -21.0441   -9.9886 C   0  0  0  0  0  0  0  0  0  0  0  0
   27.9876  -20.5862  -11.1529 C   0  0  0  0  0  0  0  0  0  0  0  0
   24.2972  -20.5755  -13.7990 C   0  0  0  0  0  0  0  0  0  0  0  0
   23.9849  -19.7340  -14.6732 O   0  0  0  0  0  0  0  0  0  0  0  0
   23.2546  -21.3587  -13.2273 N   0  0  0  0  0  0  0  0  0  0  0  0
   21.8469  -21.1496  -13.5680 C   0  0  1  0  0  0  0  0  0  0  0  0
   21.1846  -22.4114  -13.9865 C   0  0  0  0  0  0  0  0  0  0  0  0
   21.7718  -22.9151  -15.2444 C   0  0  0  0  0  0  0  0  0  0  0  0
   22.6314  -23.9687  -15.4836 C   0  0  0  0  0  0  0  0  0  0  0  0
   22.8963  -24.0120  -16.7975 N   0  0  0  0  0  0  0  0  0  0  0  0
   22.2398  -23.0256  -17.4146 C   0  0  0  0  0  0  0  0  0  0  0  0
   21.5594  -22.3648  -16.4620 N   0  0  0  0  0  0  0  0  0  0  0  0
   21.1432  -20.4436  -12.4786 C   0  0  0  0  0  0  0  0  0  0  0  0
   19.8330  -20.0341  -12.6841 O   0  0  0  0  0  0  0  0  0  0  0  0
   21.6649  -20.1927  -11.3749 O   0  0  0  0  0  0  0  0  0  0  0  0
  2  3  1  6
  2  1  1  0
  4  2  1  0
  5  4  1  0
  5  6  1  1
  7  5  1  0
  7  8  2  0
  9  7  1  0
 10  9  1  0
 10 11  1  1
 12 11  1  0
 12 17  1  0
 13 12  2  0
 14 13  1  0
 14 15  2  0
 15 16  1  0
 16 17  2  0
 18 10  1  0
 19 18  2  0
 20 18  1  0
 21 20  1  0
 21 22  1  1
 22 23  1  0
 23 27  1  0
 24 23  2  0
 24 25  1  0
 25 26  1  0
 27 26  2  0
 28 21  1  0
 28 29  1  0
 30 28  2  0
M  END
$$$$
