LFH.pdb
     RDKit          3D

 30 31  0  0  1  0  0  0  0  0999 V2000
   23.2358  -25.4884  -18.8878 C   0  0  0  0  0  0  0  0  0  0  0  0
   24.3983  -25.2852  -17.9658 C   0  0  1  0  0  0  0  0  0  0  0  0
   25.5085  -24.6090  -18.7411 C   0  0  0  0  0  0  0  0  0  0  0  0
   23.9881  -24.4818  -16.7592 C   0  0  0  0  0  0  0  0  0  0  0  0
   25.1314  -24.1534  -15.8581 C   0  0  2  0  0  0  0  0  0  0  0  0
   25.4176  -25.3072  -15.0286 N   0  0  0  0  0  0  0  0  0  0  0  0
   24.7324  -22.9879  -15.0009 C   0  0  0  0  0  0  0  0  0  0  0  0
   23.9860  -23.1637  -13.9856 O   0  0  0  0  0  0  0  0  0  0  0  0
   25.1785  -21.6726  -15.3061 N   0  0  0  0  0  0  0  0  0  0  0  0
   24.7788  -20.5898  -14.4702 C   0  0  1  0  0  0  0  0  0  0  0  0
   25.9144  -19.7453  -13.9792 C   0  0  0  0  0  0  0  0  0  0  0  0
   26.8446  -20.4386  -13.0985 C   0  0  0  0  0  0  0  0  0  0  0  0
   28.0109  -20.9939  -13.5624 C   0  0  0  0  0  0  0  0  0  0  0  0
   28.8979  -21.6552  -12.7200 C   0  0  0  0  0  0  0  0  0  0  0  0
   28.6140  -21.7637  -11.3884 C   0  0  0  0  0  0  0  0  0  0  0  0
   27.4449  -21.2141  -10.8878 C   0  0  0  0  0  0  0  0  0  0  0  0
   26.5721  -20.5558  -11.7547 C   0  0  0  0  0  0  0  0  0  0  0  0
   23.7974  -19.6978  -15.1872 C   0  0  0  0  0  0  0  0  0  0  0  0
   23.8368  -19.5536  -16.4312 O   0  0  0  0  0  0  0  0  0  0  0  0
   22.7933  -18.9902  -14.4672 N   0  0  0  0  0  0  0  0  0  0  0  0
   21.7134  -18.2689  -15.1416 C   0  0  1  0  0  0  0  0  0  0  0  0
   22.2123  -17.4738  -16.2926 C   0  0  0  0  0  0  0  0  0  0  0  0
   21.1116  -16.7093  -16.9132 C   0  0  0  0  0  0  0  0  0  0  0  0
   19.7973  -16.5396  -16.5263 C   0  0  0  0  0  0  0  0  0  0  0  0
   19.1820  -15.7694  -17.4355 N   0  0  0  0  0  0  0  0  0  0  0  0
   20.0505  -15.4363  -18.3944 C   0  0  0  0  0  0  0  0  0  0  0  0
   21.2203  -16.0124  -18.0678 N   0  0  0  0  0  0  0  0  0  0  0  0
   20.6078  -19.1844  -15.4882 C   0  0  0  0  0  0  0  0  0  0  0  0
   19.3914  -19.0411  -14.8353 O   0  0  0  0  0  0  0  0  0  0  0  0
   20.7071  -20.0869  -16.3421 O   0  0  0  0  0  0  0  0  0  0  0  0
  2  3  1  6
  2  1  1  0
  4  2  1  0
  5  4  1  0
  5  6  1  1
  7  5  1  0
  7  8  2  0
  9  7  1  0
 10  9  1  0
 10 11  1  6
 12 11  1  0
 12 17  1  0
 13 12  2  0
 14 13  1  0
 14 15  2  0
 15 16  1  0
 16 17  2  0
 18 10  1  0
 19 18  2  0
 20 18  1  0
 21 20  1  0
 21 22  1  6
 22 23  1  0
 23 27  1  0
 24 23  2  0
 24 25  1  0
 25 26  1  0
 27 26  2  0
 28 21  1  0
 28 29  1  0
 30 28  2  0
M  END
$$$$
