ETY.pdb
     RDKit          3D

 29 29  0  0  1  0  0  0  0  0999 V2000
    9.8406  -18.6580   17.8703 N   0  0  0  0  0  0  0  0  0  0  0  0
   10.8834  -17.7524   18.2388 C   0  0  1  0  0  0  0  0  0  0  0  0
   11.7455  -17.2381   17.1486 C   0  0  0  0  0  0  0  0  0  0  0  0
   11.3301  -17.4863   15.7519 C   0  0  0  0  0  0  0  0  0  0  0  0
   12.2649  -17.1411   14.6845 C   0  0  0  0  0  0  0  0  0  0  0  0
   11.9107  -17.0169   13.5050 O   0  0  0  0  0  0  0  0  0  0  0  0
   10.3608  -16.6449   19.1108 C   0  0  0  0  0  0  0  0  0  0  0  0
   10.3908  -15.4318   18.7161 O   0  0  0  0  0  0  0  0  0  0  0  0
   13.5980  -16.9458   15.0081 O   0  0  0  0  0  0  0  0  0  0  0  0
    7.1453  -15.4002   19.8515 C   0  0  0  0  0  0  0  0  0  0  0  0
    7.7402  -15.8582   21.1590 C   0  0  1  0  0  0  0  0  0  0  0  0
    7.3406  -17.1523   21.4214 O   0  0  0  0  0  0  0  0  0  0  0  0
    9.2397  -15.7988   21.1712 C   0  0  2  0  0  0  0  0  0  0  0  0
    9.8195  -16.9088   20.3946 N   0  0  0  0  0  0  0  0  0  0  0  0
    9.6726  -16.0202   22.5887 C   0  0  0  0  0  0  0  0  0  0  0  0
   10.4050  -17.0109   22.9054 O   0  0  0  0  0  0  0  0  0  0  0  0
   10.6924  -15.1597   31.2048 O   0  0  0  0  0  0  0  0  0  0  0  0
   10.3402  -14.9340   29.8959 C   0  0  0  0  0  0  0  0  0  0  0  0
    9.1860  -15.5010   29.3849 C   0  0  0  0  0  0  0  0  0  0  0  0
    8.8173  -15.2821   28.0653 C   0  0  0  0  0  0  0  0  0  0  0  0
    9.6053  -14.4997   27.2715 C   0  0  0  0  0  0  0  0  0  0  0  0
    9.2387  -14.2699   25.8676 C   0  0  0  0  0  0  0  0  0  0  0  0
    9.7114  -15.4201   25.0201 C   0  0  2  0  0  0  0  0  0  0  0  0
    9.3020  -15.1608   23.6350 N   0  0  0  0  0  0  0  0  0  0  0  0
    9.1850  -16.7310   25.4409 C   0  0  0  0  0  0  0  0  0  0  0  0
   10.0068  -17.6010   26.1326 O   0  0  0  0  0  0  0  0  0  0  0  0
   10.7483  -13.9383   27.7773 C   0  0  0  0  0  0  0  0  0  0  0  0
   11.1435  -14.1390   29.0938 C   0  0  0  0  0  0  0  0  0  0  0  0
    8.0149  -17.1154   25.2066 O   0  0  0  0  0  0  0  0  0  0  0  0
  2  1  1  6
  3  2  1  0
  3  4  1  0
  4  5  1  0
  5  9  1  0
  5  6  2  0
  7  8  2  0
  7  2  1  0
 11 10  1  6
 11 13  1  0
 11 12  1  0
 13 14  1  6
 14  7  1  0
 15 13  1  0
 16 15  2  0
 18 17  1  0
 19 18  2  0
 20 19  1  0
 21 27  1  0
 21 20  2  0
 22 21  1  0
 23 22  1  1
 23 24  1  0
 24 15  1  0
 25 23  1  0
 26 25  1  0
 27 28  2  0
 28 18  1  0
 29 25  2  0
M  END
$$$$
