ETY.pdb
     RDKit          3D

 29 29  0  0  1  0  0  0  0  0999 V2000
   12.9550  -17.9552   18.5189 N   0  0  0  0  0  0  0  0  0  0  0  0
   12.2580  -16.7663   18.1392 C   0  0  1  0  0  0  0  0  0  0  0  0
   11.9546  -16.5942   16.6989 C   0  0  0  0  0  0  0  0  0  0  0  0
   12.4355  -17.6246   15.7545 C   0  0  0  0  0  0  0  0  0  0  0  0
   12.1069  -17.4688   14.3403 C   0  0  0  0  0  0  0  0  0  0  0  0
   11.2856  -18.1942   13.7647 O   0  0  0  0  0  0  0  0  0  0  0  0
   11.0439  -16.5482   18.9984 C   0  0  0  0  0  0  0  0  0  0  0  0
   10.2380  -15.5877   18.7607 O   0  0  0  0  0  0  0  0  0  0  0  0
   12.7404  -16.4698   13.6186 O   0  0  0  0  0  0  0  0  0  0  0  0
    7.9365  -18.6138   19.8413 C   0  0  0  0  0  0  0  0  0  0  0  0
    8.7038  -18.2938   21.0991 C   0  0  1  0  0  0  0  0  0  0  0  0
    9.4731  -19.3802   21.4612 O   0  0  0  0  0  0  0  0  0  0  0  0
    9.5931  -17.0939   20.9517 C   0  0  2  0  0  0  0  0  0  0  0  0
   10.7539  -17.3976   20.0962 N   0  0  0  0  0  0  0  0  0  0  0  0
   10.1516  -16.7965   22.3101 C   0  0  0  0  0  0  0  0  0  0  0  0
   11.3459  -17.1124   22.6136 O   0  0  0  0  0  0  0  0  0  0  0  0
   10.7121  -14.5624   30.7221 O   0  0  0  0  0  0  0  0  0  0  0  0
   10.2892  -14.6789   29.4199 C   0  0  0  0  0  0  0  0  0  0  0  0
    9.5420  -15.7775   29.0333 C   0  0  0  0  0  0  0  0  0  0  0  0
    9.1077  -15.9090   27.7221 C   0  0  0  0  0  0  0  0  0  0  0  0
    9.4247  -14.9419   26.8123 C   0  0  0  0  0  0  0  0  0  0  0  0
    8.9867  -15.0723   25.4161 C   0  0  0  0  0  0  0  0  0  0  0  0
    9.9505  -15.9432   24.6564 C   0  0  2  0  0  0  0  0  0  0  0  0
    9.4022  -16.1611   23.3128 N   0  0  0  0  0  0  0  0  0  0  0  0
   10.2061  -17.2492   25.2902 C   0  0  0  0  0  0  0  0  0  0  0  0
   11.3901  -17.4504   25.9745 O   0  0  0  0  0  0  0  0  0  0  0  0
   10.1646  -13.8541   27.1950 C   0  0  0  0  0  0  0  0  0  0  0  0
   10.6135  -13.6946   28.4999 C   0  0  0  0  0  0  0  0  0  0  0  0
    9.4012  -18.2096   25.2473 O   0  0  0  0  0  0  0  0  0  0  0  0
  2  1  1  6
  3  2  1  0
  3  4  1  0
  4  5  1  0
  5  9  1  0
  5  6  2  0
  7  8  2  0
  7  2  1  0
 11 10  1  6
 11 13  1  0
 11 12  1  0
 13 14  1  6
 14  7  1  0
 15 13  1  0
 16 15  2  0
 18 17  1  0
 19 18  2  0
 20 19  1  0
 21 27  1  0
 21 20  2  0
 22 21  1  0
 23 22  1  1
 23 24  1  0
 24 15  1  0
 25 23  1  0
 26 25  1  0
 27 28  2  0
 28 18  1  0
 29 25  2  0
M  END
$$$$
