ETY.pdb
     RDKit          3D

 29 29  0  0  1  0  0  0  0  0999 V2000
    9.9564  -13.3819   20.2445 N   0  0  0  0  0  0  0  0  0  0  0  0
    8.5816  -13.7695   20.3005 C   0  0  1  0  0  0  0  0  0  0  0  0
    7.9407  -14.1650   19.0242 C   0  0  0  0  0  0  0  0  0  0  0  0
    8.6923  -15.0488   18.1082 C   0  0  0  0  0  0  0  0  0  0  0  0
    8.0789  -15.3955   16.8292 C   0  0  0  0  0  0  0  0  0  0  0  0
    8.6504  -16.1000   15.9870 O   0  0  0  0  0  0  0  0  0  0  0  0
    8.3446  -14.7829   21.3852 C   0  0  0  0  0  0  0  0  0  0  0  0
    7.1677  -15.2049   21.6406 O   0  0  0  0  0  0  0  0  0  0  0  0
    6.8089  -14.9159   16.5513 O   0  0  0  0  0  0  0  0  0  0  0  0
    9.2669  -18.3901   21.6606 C   0  0  0  0  0  0  0  0  0  0  0  0
    9.8939  -17.6203   22.7953 C   0  0  1  0  0  0  0  0  0  0  0  0
   11.1922  -17.2881   22.4678 O   0  0  0  0  0  0  0  0  0  0  0  0
    9.1414  -16.3678   23.1376 C   0  0  2  0  0  0  0  0  0  0  0  0
    9.4146  -15.3019   22.1575 N   0  0  0  0  0  0  0  0  0  0  0  0
    9.6882  -15.8745   24.4428 C   0  0  0  0  0  0  0  0  0  0  0  0
   10.6928  -15.0950   24.4823 O   0  0  0  0  0  0  0  0  0  0  0  0
    6.0917  -10.7332   25.4192 O   0  0  0  0  0  0  0  0  0  0  0  0
    6.6784  -11.8380   25.9878 C   0  0  0  0  0  0  0  0  0  0  0  0
    5.9047  -12.7443   26.6912 C   0  0  0  0  0  0  0  0  0  0  0  0
    6.4828  -13.8646   27.2708 C   0  0  0  0  0  0  0  0  0  0  0  0
    7.8265  -14.0668   27.1411 C   0  0  0  0  0  0  0  0  0  0  0  0
    8.4582  -15.2393   27.7614 C   0  0  0  0  0  0  0  0  0  0  0  0
    9.6394  -15.6792   26.9394 C   0  0  2  0  0  0  0  0  0  0  0  0
    9.1329  -16.2369   25.6801 N   0  0  0  0  0  0  0  0  0  0  0  0
   10.4911  -16.6828   27.6028 C   0  0  0  0  0  0  0  0  0  0  0  0
   10.6359  -17.9332   27.0315 O   0  0  0  0  0  0  0  0  0  0  0  0
    8.5927  -13.1695   26.4446 C   0  0  0  0  0  0  0  0  0  0  0  0
    8.0429  -12.0390   25.8534 C   0  0  0  0  0  0  0  0  0  0  0  0
   11.1056  -16.4704   28.6748 O   0  0  0  0  0  0  0  0  0  0  0  0
  2  1  1  6
  3  2  1  0
  3  4  1  0
  4  5  1  0
  5  9  1  0
  5  6  2  0
  7  8  2  0
  7  2  1  0
 11 10  1  6
 11 13  1  0
 11 12  1  0
 13 14  1  6
 14  7  1  0
 15 13  1  0
 16 15  2  0
 18 17  1  0
 19 18  2  0
 20 19  1  0
 21 27  1  0
 21 20  2  0
 22 21  1  0
 23 22  1  1
 23 24  1  0
 24 15  1  0
 25 23  1  0
 26 25  1  0
 27 28  2  0
 28 18  1  0
 29 25  2  0
M  END
$$$$
