ETY.pdb
     RDKit          3D

 29 29  0  0  1  0  0  0  0  0999 V2000
    9.6172  -18.5144   18.3800 N   0  0  0  0  0  0  0  0  0  0  0  0
   10.7004  -17.6034   18.5804 C   0  0  1  0  0  0  0  0  0  0  0  0
   11.3523  -17.0548   17.3678 C   0  0  0  0  0  0  0  0  0  0  0  0
   11.0363  -17.6732   16.0630 C   0  0  0  0  0  0  0  0  0  0  0  0
   11.6992  -17.1463   14.8734 C   0  0  0  0  0  0  0  0  0  0  0  0
   12.8850  -17.3864   14.6117 O   0  0  0  0  0  0  0  0  0  0  0  0
   10.3297  -16.5218   19.5563 C   0  0  0  0  0  0  0  0  0  0  0  0
   11.1202  -15.5460   19.7831 O   0  0  0  0  0  0  0  0  0  0  0  0
   10.9701  -16.3476   14.0070 O   0  0  0  0  0  0  0  0  0  0  0  0
    7.2957  -14.0636   19.8246 C   0  0  0  0  0  0  0  0  0  0  0  0
    7.4169  -14.9443   21.0423 C   0  0  1  0  0  0  0  0  0  0  0  0
    6.5320  -15.9979   20.9416 O   0  0  0  0  0  0  0  0  0  0  0  0
    8.8025  -15.4878   21.2346 C   0  0  2  0  0  0  0  0  0  0  0  0
    9.0957  -16.5483   20.2544 N   0  0  0  0  0  0  0  0  0  0  0  0
    8.8268  -16.1526   22.5775 C   0  0  0  0  0  0  0  0  0  0  0  0
    8.8467  -17.4202   22.6833 O   0  0  0  0  0  0  0  0  0  0  0  0
    5.4060  -10.9166   26.2134 O   0  0  0  0  0  0  0  0  0  0  0  0
    6.3143  -11.9477   26.2044 C   0  0  0  0  0  0  0  0  0  0  0  0
    7.4774  -11.8356   25.4632 C   0  0  0  0  0  0  0  0  0  0  0  0
    8.4040  -12.8682   25.4444 C   0  0  0  0  0  0  0  0  0  0  0  0
    8.1583  -14.0006   26.1660 C   0  0  0  0  0  0  0  0  0  0  0  0
    9.1207  -15.1103   26.1453 C   0  0  0  0  0  0  0  0  0  0  0  0
    8.7366  -16.1013   25.0800 C   0  0  2  0  0  0  0  0  0  0  0  0
    8.8295  -15.4277   23.7796 N   0  0  0  0  0  0  0  0  0  0  0  0
    7.3809  -16.6573   25.2390 C   0  0  0  0  0  0  0  0  0  0  0  0
    7.1384  -17.5760   26.2430 O   0  0  0  0  0  0  0  0  0  0  0  0
    7.0066  -14.1118   26.8999 C   0  0  0  0  0  0  0  0  0  0  0  0
    6.0605  -13.0954   26.9385 C   0  0  0  0  0  0  0  0  0  0  0  0
    6.4130  -16.3437   24.5062 O   0  0  0  0  0  0  0  0  0  0  0  0
  2  1  1  6
  3  2  1  0
  3  4  1  0
  4  5  1  0
  5  9  1  0
  5  6  2  0
  7  8  2  0
  7  2  1  0
 11 10  1  6
 11 13  1  0
 11 12  1  0
 13 14  1  6
 14  7  1  0
 15 13  1  0
 16 15  2  0
 18 17  1  0
 19 18  2  0
 20 19  1  0
 21 27  1  0
 21 20  2  0
 22 21  1  0
 23 22  1  1
 23 24  1  0
 24 15  1  0
 25 23  1  0
 26 25  1  0
 27 28  2  0
 28 18  1  0
 29 25  2  0
M  END
$$$$
