ETY.pdb
     RDKit          3D

 29 29  0  0  1  0  0  0  0  0999 V2000
    9.0273  -18.2575   18.0150 N   0  0  0  0  0  0  0  0  0  0  0  0
    9.3687  -18.1748   19.4006 C   0  0  1  0  0  0  0  0  0  0  0  0
   10.5906  -18.8907   19.8373 C   0  0  0  0  0  0  0  0  0  0  0  0
   11.8180  -18.7378   19.0280 C   0  0  0  0  0  0  0  0  0  0  0  0
   13.0132  -19.4647   19.4468 C   0  0  0  0  0  0  0  0  0  0  0  0
   14.1153  -18.9156   19.5730 O   0  0  0  0  0  0  0  0  0  0  0  0
    9.3500  -16.7511   19.8827 C   0  0  0  0  0  0  0  0  0  0  0  0
    9.9952  -15.8416   19.2622 O   0  0  0  0  0  0  0  0  0  0  0  0
   12.9056  -20.8205   19.7121 O   0  0  0  0  0  0  0  0  0  0  0  0
    6.4271  -14.3801   20.0653 C   0  0  0  0  0  0  0  0  0  0  0  0
    7.0527  -14.5265   21.4293 C   0  0  1  0  0  0  0  0  0  0  0  0
    6.3479  -15.4572   22.1644 O   0  0  0  0  0  0  0  0  0  0  0  0
    8.4936  -14.9417   21.3696 C   0  0  2  0  0  0  0  0  0  0  0  0
    8.6187  -16.3718   21.0369 N   0  0  0  0  0  0  0  0  0  0  0  0
    9.0471  -14.7930   22.7543 C   0  0  0  0  0  0  0  0  0  0  0  0
    8.7737  -13.7744   23.4657 O   0  0  0  0  0  0  0  0  0  0  0  0
   11.0973  -14.7416   30.8717 O   0  0  0  0  0  0  0  0  0  0  0  0
   10.6403  -14.8741   29.5826 C   0  0  0  0  0  0  0  0  0  0  0  0
   10.2729  -16.1201   29.1059 C   0  0  0  0  0  0  0  0  0  0  0  0
    9.8096  -16.2696   27.8066 C   0  0  0  0  0  0  0  0  0  0  0  0
    9.7185  -15.1731   26.9986 C   0  0  0  0  0  0  0  0  0  0  0  0
    9.2449  -15.3150   25.6152 C   0  0  0  0  0  0  0  0  0  0  0  0
   10.4089  -15.5866   24.7009 C   0  0  2  0  0  0  0  0  0  0  0  0
    9.8867  -15.7537   23.3397 N   0  0  0  0  0  0  0  0  0  0  0  0
   11.1927  -16.7802   25.0663 C   0  0  0  0  0  0  0  0  0  0  0  0
   10.8307  -18.0118   24.5537 O   0  0  0  0  0  0  0  0  0  0  0  0
   10.0823  -13.9393   27.4704 C   0  0  0  0  0  0  0  0  0  0  0  0
   10.5496  -13.7581   28.7660 C   0  0  0  0  0  0  0  0  0  0  0  0
   12.1877  -16.7491   25.8285 O   0  0  0  0  0  0  0  0  0  0  0  0
  2  1  1  6
  3  2  1  0
  3  4  1  0
  4  5  1  0
  5  9  1  0
  5  6  2  0
  7  8  2  0
  7  2  1  0
 11 10  1  6
 11 13  1  0
 11 12  1  0
 13 14  1  1
 14  7  1  0
 15 13  1  0
 16 15  2  0
 18 17  1  0
 19 18  2  0
 20 19  1  0
 21 27  1  0
 21 20  2  0
 22 21  1  0
 23 22  1  1
 23 24  1  0
 24 15  1  0
 25 23  1  0
 26 25  1  0
 27 28  2  0
 28 18  1  0
 29 25  2  0
M  END
$$$$
