ETY.pdb
     RDKit          3D

 29 29  0  0  1  0  0  0  0  0999 V2000
   10.4528  -15.2877   16.7603 N   0  0  0  0  0  0  0  0  0  0  0  0
   11.2743  -15.2491   17.9295 C   0  0  1  0  0  0  0  0  0  0  0  0
   12.6970  -14.8793   17.7413 C   0  0  0  0  0  0  0  0  0  0  0  0
   13.5809  -14.8725   18.9260 C   0  0  0  0  0  0  0  0  0  0  0  0
   14.9854  -14.5219   18.7346 C   0  0  0  0  0  0  0  0  0  0  0  0
   15.6870  -15.0422   17.8576 O   0  0  0  0  0  0  0  0  0  0  0  0
   10.6266  -14.4487   19.0247 C   0  0  0  0  0  0  0  0  0  0  0  0
   10.7750  -13.1828   19.0855 O   0  0  0  0  0  0  0  0  0  0  0  0
   15.5507  -13.5701   19.5681 O   0  0  0  0  0  0  0  0  0  0  0  0
    7.2810  -13.2694   19.8397 C   0  0  0  0  0  0  0  0  0  0  0  0
    7.7381  -14.1889   20.9437 C   0  0  1  0  0  0  0  0  0  0  0  0
    7.2662  -15.4639   20.7095 O   0  0  0  0  0  0  0  0  0  0  0  0
    9.2317  -14.2392   21.0811 C   0  0  2  0  0  0  0  0  0  0  0  0
    9.8328  -15.0695   20.0224 N   0  0  0  0  0  0  0  0  0  0  0  0
    9.5267  -14.9427   22.3710 C   0  0  0  0  0  0  0  0  0  0  0  0
    9.8424  -16.1749   22.3906 O   0  0  0  0  0  0  0  0  0  0  0  0
   11.1031  -16.6525   30.7525 O   0  0  0  0  0  0  0  0  0  0  0  0
   10.8132  -16.0028   29.5769 C   0  0  0  0  0  0  0  0  0  0  0  0
    9.6300  -15.2961   29.4533 C   0  0  0  0  0  0  0  0  0  0  0  0
    9.3234  -14.6350   28.2726 C   0  0  0  0  0  0  0  0  0  0  0  0
   10.2019  -14.6873   27.2292 C   0  0  0  0  0  0  0  0  0  0  0  0
    9.8867  -14.0064   25.9662 C   0  0  0  0  0  0  0  0  0  0  0  0
    9.7130  -15.0200   24.8675 C   0  0  2  0  0  0  0  0  0  0  0  0
    9.4736  -14.2942   23.6148 N   0  0  0  0  0  0  0  0  0  0  0  0
    8.6065  -15.9670   25.0948 C   0  0  0  0  0  0  0  0  0  0  0  0
    8.8720  -17.1928   25.6757 O   0  0  0  0  0  0  0  0  0  0  0  0
   11.3735  -15.3871   27.3513 C   0  0  0  0  0  0  0  0  0  0  0  0
   11.7081  -16.0589   28.5203 C   0  0  0  0  0  0  0  0  0  0  0  0
    7.4148  -15.7266   24.7882 O   0  0  0  0  0  0  0  0  0  0  0  0
  2  1  1  6
  3  2  1  0
  3  4  1  0
  4  5  1  0
  5  9  1  0
  5  6  2  0
  7  8  2  0
  7  2  1  0
 11 10  1  6
 11 13  1  0
 11 12  1  0
 13 14  1  6
 14  7  1  0
 15 13  1  0
 16 15  2  0
 18 17  1  0
 19 18  2  0
 20 19  1  0
 21 27  1  0
 21 20  2  0
 22 21  1  0
 23 22  1  1
 23 24  1  0
 24 15  1  0
 25 23  1  0
 26 25  1  0
 27 28  2  0
 28 18  1  0
 29 25  2  0
M  END
$$$$
