ETY.pdb
     RDKit          3D

 29 29  0  0  1  0  0  0  0  0999 V2000
    8.5363  -19.0297   18.4933 N   0  0  0  0  0  0  0  0  0  0  0  0
    8.5770  -18.7311   19.8907 C   0  0  1  0  0  0  0  0  0  0  0  0
    9.4259  -19.5990   20.7406 C   0  0  0  0  0  0  0  0  0  0  0  0
   10.8614  -19.7155   20.4078 C   0  0  0  0  0  0  0  0  0  0  0  0
   11.7007  -20.5490   21.2641 C   0  0  0  0  0  0  0  0  0  0  0  0
   12.9160  -20.6859   21.0735 O   0  0  0  0  0  0  0  0  0  0  0  0
    8.8507  -17.2722   20.1287 C   0  0  0  0  0  0  0  0  0  0  0  0
    9.6064  -16.6112   19.3410 O   0  0  0  0  0  0  0  0  0  0  0  0
   11.1107  -21.2101   22.3295 O   0  0  0  0  0  0  0  0  0  0  0  0
    6.6692  -14.3603   19.8499 C   0  0  0  0  0  0  0  0  0  0  0  0
    7.2209  -14.3738   21.2530 C   0  0  1  0  0  0  0  0  0  0  0  0
    6.2940  -14.9307   22.1097 O   0  0  0  0  0  0  0  0  0  0  0  0
    8.5093  -15.1348   21.3668 C   0  0  2  0  0  0  0  0  0  0  0  0
    8.2815  -16.5843   21.2303 N   0  0  0  0  0  0  0  0  0  0  0  0
    9.0147  -14.9289   22.7626 C   0  0  0  0  0  0  0  0  0  0  0  0
    8.5868  -13.9711   23.4821 O   0  0  0  0  0  0  0  0  0  0  0  0
   10.8660  -14.9142   30.9456 O   0  0  0  0  0  0  0  0  0  0  0  0
   10.4606  -15.0700   29.6419 C   0  0  0  0  0  0  0  0  0  0  0  0
   10.3267  -16.3398   29.1085 C   0  0  0  0  0  0  0  0  0  0  0  0
    9.9183  -16.5130   27.7939 C   0  0  0  0  0  0  0  0  0  0  0  0
    9.6482  -15.4163   27.0273 C   0  0  0  0  0  0  0  0  0  0  0  0
    9.2297  -15.5803   25.6287 C   0  0  0  0  0  0  0  0  0  0  0  0
   10.4348  -15.5576   24.7276 C   0  0  2  0  0  0  0  0  0  0  0  0
    9.9748  -15.7678   23.3501 N   0  0  0  0  0  0  0  0  0  0  0  0
   11.4493  -16.5748   25.0574 C   0  0  0  0  0  0  0  0  0  0  0  0
   11.3019  -17.8610   24.5730 O   0  0  0  0  0  0  0  0  0  0  0  0
    9.7808  -14.1590   27.5553 C   0  0  0  0  0  0  0  0  0  0  0  0
   10.1876  -13.9536   28.8675 C   0  0  0  0  0  0  0  0  0  0  0  0
   12.4586  -16.3430   25.7642 O   0  0  0  0  0  0  0  0  0  0  0  0
  2  1  1  6
  3  2  1  0
  3  4  1  0
  4  5  1  0
  5  9  1  0
  5  6  2  0
  7  8  2  0
  7  2  1  0
 11 10  1  6
 11 13  1  0
 11 12  1  0
 13 14  1  1
 14  7  1  0
 15 13  1  0
 16 15  2  0
 18 17  1  0
 19 18  2  0
 20 19  1  0
 21 27  1  0
 21 20  2  0
 22 21  1  0
 23 22  1  1
 23 24  1  0
 24 15  1  0
 25 23  1  0
 26 25  1  0
 27 28  2  0
 28 18  1  0
 29 25  2  0
M  END
$$$$
