ETY.pdb
     RDKit          3D

 29 29  0  0  1  0  0  0  0  0999 V2000
    8.9045  -17.7980   17.2644 N   0  0  0  0  0  0  0  0  0  0  0  0
    9.5877  -16.9982   18.2323 C   0  0  1  0  0  0  0  0  0  0  0  0
    9.5415  -15.5288   18.0456 C   0  0  0  0  0  0  0  0  0  0  0  0
    8.2276  -14.8946   17.8082 C   0  0  0  0  0  0  0  0  0  0  0  0
    8.1902  -13.4520   17.5852 C   0  0  0  0  0  0  0  0  0  0  0  0
    7.1331  -12.8347   17.4019 O   0  0  0  0  0  0  0  0  0  0  0  0
    9.2133  -17.3981   19.6322 C   0  0  0  0  0  0  0  0  0  0  0  0
    8.0045  -17.6762   19.9321 O   0  0  0  0  0  0  0  0  0  0  0  0
    9.3854  -12.7508   17.5796 O   0  0  0  0  0  0  0  0  0  0  0  0
   10.3379  -20.3278   21.6402 C   0  0  0  0  0  0  0  0  0  0  0  0
   10.5792  -19.0907   22.4676 C   0  0  1  0  0  0  0  0  0  0  0  0
   11.9176  -18.7591   22.4252 O   0  0  0  0  0  0  0  0  0  0  0  0
    9.7701  -17.9134   22.0076 C   0  0  2  0  0  0  0  0  0  0  0  0
   10.1850  -17.4797   20.6618 N   0  0  0  0  0  0  0  0  0  0  0  0
   10.0985  -16.7746   22.9247 C   0  0  0  0  0  0  0  0  0  0  0  0
   10.5841  -15.6878   22.4757 O   0  0  0  0  0  0  0  0  0  0  0  0
    5.6646  -11.2361   27.4585 O   0  0  0  0  0  0  0  0  0  0  0  0
    6.2451  -12.2353   26.7150 C   0  0  0  0  0  0  0  0  0  0  0  0
    5.7816  -13.5345   26.8247 C   0  0  0  0  0  0  0  0  0  0  0  0
    6.3576  -14.5540   26.0804 C   0  0  0  0  0  0  0  0  0  0  0  0
    7.3896  -14.2642   25.2352 C   0  0  0  0  0  0  0  0  0  0  0  0
    8.0219  -15.3337   24.4511 C   0  0  0  0  0  0  0  0  0  0  0  0
    9.3501  -15.6969   25.0582 C   0  0  2  0  0  0  0  0  0  0  0  0
    9.8928  -16.8379   24.3119 N   0  0  0  0  0  0  0  0  0  0  0  0
    9.2803  -16.0459   26.4886 C   0  0  0  0  0  0  0  0  0  0  0  0
    9.7562  -15.1511   27.4286 O   0  0  0  0  0  0  0  0  0  0  0  0
    7.8488  -12.9779   25.1265 C   0  0  0  0  0  0  0  0  0  0  0  0
    7.2927  -11.9363   25.8583 C   0  0  0  0  0  0  0  0  0  0  0  0
    8.8069  -17.1253   26.9161 O   0  0  0  0  0  0  0  0  0  0  0  0
  2  1  1  6
  3  2  1  0
  3  4  1  0
  4  5  1  0
  5  9  1  0
  5  6  2  0
  7  8  2  0
  7  2  1  0
 11 10  1  6
 11 13  1  0
 11 12  1  0
 13 14  1  6
 14  7  1  0
 15 13  1  0
 16 15  2  0
 18 17  1  0
 19 18  2  0
 20 19  1  0
 21 27  1  0
 21 20  2  0
 22 21  1  0
 23 22  1  6
 23 24  1  0
 24 15  1  0
 25 23  1  0
 26 25  1  0
 27 28  2  0
 28 18  1  0
 29 25  2  0
M  END
$$$$
