ETY.pdb
     RDKit          3D

 29 29  0  0  1  0  0  0  0  0999 V2000
    9.6086  -16.2230   16.6354 N   0  0  0  0  0  0  0  0  0  0  0  0
    9.6095  -16.7714   17.9555 C   0  0  1  0  0  0  0  0  0  0  0  0
   10.8506  -17.4459   18.4039 C   0  0  0  0  0  0  0  0  0  0  0  0
   12.1374  -16.9951   17.8330 C   0  0  0  0  0  0  0  0  0  0  0  0
   13.3614  -17.6377   18.3033 C   0  0  0  0  0  0  0  0  0  0  0  0
   14.4436  -17.5182   17.7145 O   0  0  0  0  0  0  0  0  0  0  0  0
    9.1205  -15.7685   18.9628 C   0  0  0  0  0  0  0  0  0  0  0  0
    8.5704  -14.6797   18.5883 O   0  0  0  0  0  0  0  0  0  0  0  0
   13.3055  -18.4095   19.4528 O   0  0  0  0  0  0  0  0  0  0  0  0
    6.5434  -14.6966   19.9042 C   0  0  0  0  0  0  0  0  0  0  0  0
    7.0978  -15.2004   21.2126 C   0  0  1  0  0  0  0  0  0  0  0  0
    6.7449  -16.5227   21.3865 O   0  0  0  0  0  0  0  0  0  0  0  0
    8.5910  -15.0786   21.2999 C   0  0  2  0  0  0  0  0  0  0  0  0
    9.2528  -15.9966   20.3561 N   0  0  0  0  0  0  0  0  0  0  0  0
    8.9863  -15.5429   22.6688 C   0  0  0  0  0  0  0  0  0  0  0  0
    9.4362  -16.7173   22.8604 O   0  0  0  0  0  0  0  0  0  0  0  0
   10.9873  -15.5179   31.1775 O   0  0  0  0  0  0  0  0  0  0  0  0
   10.5427  -15.1587   29.9279 C   0  0  0  0  0  0  0  0  0  0  0  0
   11.3352  -14.3671   29.1154 C   0  0  0  0  0  0  0  0  0  0  0  0
   10.9000  -13.9963   27.8512 C   0  0  0  0  0  0  0  0  0  0  0  0
    9.6786  -14.4203   27.4132 C   0  0  0  0  0  0  0  0  0  0  0  0
    9.1949  -14.0244   26.0837 C   0  0  0  0  0  0  0  0  0  0  0  0
    9.4381  -15.1358   25.0986 C   0  0  2  0  0  0  0  0  0  0  0  0
    8.8859  -14.7223   23.8034 N   0  0  0  0  0  0  0  0  0  0  0  0
    8.8389  -16.4247   25.4887 C   0  0  0  0  0  0  0  0  0  0  0  0
    7.4864  -16.6307   25.2913 O   0  0  0  0  0  0  0  0  0  0  0  0
    8.8938  -15.2039   28.2176 C   0  0  0  0  0  0  0  0  0  0  0  0
    9.3020  -15.5914   29.4876 C   0  0  0  0  0  0  0  0  0  0  0  0
    9.4913  -17.3659   25.9990 O   0  0  0  0  0  0  0  0  0  0  0  0
  2  1  1  6
  3  2  1  0
  3  4  1  0
  4  5  1  0
  5  9  1  0
  5  6  2  0
  7  8  2  0
  7  2  1  0
 11 10  1  6
 11 13  1  0
 11 12  1  0
 13 14  1  6
 14  7  1  0
 15 13  1  0
 16 15  2  0
 18 17  1  0
 19 18  2  0
 20 19  1  0
 21 27  1  0
 21 20  2  0
 22 21  1  0
 23 22  1  1
 23 24  1  0
 24 15  1  0
 25 23  1  0
 26 25  1  0
 27 28  2  0
 28 18  1  0
 29 25  2  0
M  END
$$$$
