ETY.pdb
     RDKit          3D

 29 29  0  0  1  0  0  0  0  0999 V2000
    9.4902  -17.2724   17.0337 N   0  0  0  0  0  0  0  0  0  0  0  0
    9.5180  -17.7362   18.3855 C   0  0  1  0  0  0  0  0  0  0  0  0
   10.5952  -18.6865   18.7497 C   0  0  0  0  0  0  0  0  0  0  0  0
   11.9980  -18.2561   18.5709 C   0  0  0  0  0  0  0  0  0  0  0  0
   13.0538  -19.1144   19.1008 C   0  0  0  0  0  0  0  0  0  0  0  0
   13.2074  -19.3079   20.3137 O   0  0  0  0  0  0  0  0  0  0  0  0
    9.4270  -16.5922   19.3564 C   0  0  0  0  0  0  0  0  0  0  0  0
   10.1144  -15.5310   19.1836 O   0  0  0  0  0  0  0  0  0  0  0  0
   13.9145  -19.7341   18.2089 O   0  0  0  0  0  0  0  0  0  0  0  0
    6.5107  -14.3335   20.1716 C   0  0  0  0  0  0  0  0  0  0  0  0
    6.9882  -15.0334   21.4188 C   0  0  1  0  0  0  0  0  0  0  0  0
    6.2067  -16.1458   21.6535 O   0  0  0  0  0  0  0  0  0  0  0  0
    8.4260  -15.4557   21.3375 C   0  0  2  0  0  0  0  0  0  0  0  0
    8.5789  -16.6524   20.4913 N   0  0  0  0  0  0  0  0  0  0  0  0
    8.8354  -15.8741   22.7170 C   0  0  0  0  0  0  0  0  0  0  0  0
    9.0494  -17.0965   22.9970 O   0  0  0  0  0  0  0  0  0  0  0  0
   10.7490  -15.7295   31.2177 O   0  0  0  0  0  0  0  0  0  0  0  0
   10.4896  -15.3535   29.9217 C   0  0  0  0  0  0  0  0  0  0  0  0
    9.7655  -14.2016   29.6698 C   0  0  0  0  0  0  0  0  0  0  0  0
    9.4957  -13.8091   28.3666 C   0  0  0  0  0  0  0  0  0  0  0  0
    9.9521  -14.5714   27.3303 C   0  0  0  0  0  0  0  0  0  0  0  0
    9.6625  -14.1794   25.9444 C   0  0  0  0  0  0  0  0  0  0  0  0
    9.3437  -15.3996   25.1233 C   0  0  2  0  0  0  0  0  0  0  0  0
    9.0050  -14.9567   23.7659 N   0  0  0  0  0  0  0  0  0  0  0  0
    8.2333  -16.2084   25.6574 C   0  0  0  0  0  0  0  0  0  0  0  0
    6.9305  -15.8130   25.4183 O   0  0  0  0  0  0  0  0  0  0  0  0
   10.6690  -15.7121   27.5796 C   0  0  0  0  0  0  0  0  0  0  0  0
   10.9549  -16.1307   28.8729 C   0  0  0  0  0  0  0  0  0  0  0  0
    8.3983  -17.2542   26.3291 O   0  0  0  0  0  0  0  0  0  0  0  0
  2  1  1  6
  3  2  1  0
  3  4  1  0
  4  5  1  0
  5  9  1  0
  5  6  2  0
  7  8  2  0
  7  2  1  0
 11 10  1  6
 11 13  1  0
 11 12  1  0
 13 14  1  6
 14  7  1  0
 15 13  1  0
 16 15  2  0
 18 17  1  0
 19 18  2  0
 20 19  1  0
 21 27  1  0
 21 20  2  0
 22 21  1  0
 23 22  1  1
 23 24  1  0
 24 15  1  0
 25 23  1  0
 26 25  1  0
 27 28  2  0
 28 18  1  0
 29 25  2  0
M  END
$$$$
