PYI.pdb
     RDKit          3D

 28 29  0  0  1  0  0  0  0  0999 V2000
    8.6797  -15.3921   19.3010 N   0  0  0  0  0  0  0  0  0  0  0  0
    8.9153  -14.6834   18.0337 C   0  0  0  0  0  0  0  0  0  0  0  0
    7.7513  -13.7076   17.9173 C   0  0  0  0  0  0  0  0  0  0  0  0
    7.0680  -13.7618   19.2695 C   0  0  0  0  0  0  0  0  0  0  0  0
    8.1832  -14.3110   20.1226 C   0  0  1  0  0  0  0  0  0  0  0  0
    7.7688  -14.7296   21.4539 C   0  0  0  0  0  0  0  0  0  0  0  0
    7.1836  -13.9293   22.2185 O   0  0  0  0  0  0  0  0  0  0  0  0
    7.5711  -20.1203   28.6020 O   0  0  0  0  0  0  0  0  0  0  0  0
    7.6940  -19.5819   27.3232 C   0  0  0  0  0  0  0  0  0  0  0  0
    8.9171  -19.2196   26.7990 C   0  0  0  0  0  0  0  0  0  0  0  0
    9.0677  -18.6839   25.5348 C   0  0  0  0  0  0  0  0  0  0  0  0
    7.9679  -18.4890   24.7331 C   0  0  0  0  0  0  0  0  0  0  0  0
    8.0134  -17.9457   23.3818 C   0  0  0  0  0  0  0  0  0  0  0  0
    7.6127  -16.5188   23.2560 C   0  0  2  0  0  0  0  0  0  0  0  0
    8.0292  -16.0515   21.8880 N   0  0  0  0  0  0  0  0  0  0  0  0
    8.3314  -15.6468   24.1717 C   0  0  0  0  0  0  0  0  0  0  0  0
    9.5765  -15.4129   23.9422 O   0  0  0  0  0  0  0  0  0  0  0  0
    6.7324  -18.8450   25.2387 C   0  0  0  0  0  0  0  0  0  0  0  0
    6.6080  -19.3758   26.4993 C   0  0  0  0  0  0  0  0  0  0  0  0
    5.8397  -11.8072   27.5941 C   0  0  0  0  0  0  0  0  0  0  0  0
    6.5427  -13.0742   27.2416 C   0  0  0  0  0  0  0  0  0  0  0  0
    7.7275  -12.9532   26.3670 C   0  0  2  0  0  0  0  0  0  0  0  0
    7.4946  -12.1701   25.0867 C   0  0  0  0  0  0  0  0  0  0  0  0
    8.5814  -14.1624   26.1585 C   0  0  2  0  0  0  0  0  0  0  0  0
    7.7500  -15.0350   25.2854 N   0  0  0  0  0  0  0  0  0  0  0  0
    9.0744  -14.8393   27.3298 C   0  0  0  0  0  0  0  0  0  0  0  0
    8.7234  -16.1268   27.6702 O   0  0  0  0  0  0  0  0  0  0  0  0
    9.8693  -14.2598   28.1122 O   0  0  0  0  0  0  0  0  0  0  0  0
  1  2  1  0
  3  2  1  0
  4  5  1  0
  4  3  1  0
  5  1  1  0
  6 15  1  0
  5  6  1  1
  7  6  2  0
  9  8  1  0
 10  9  2  0
 11 10  1  0
 12 11  2  0
 12 18  1  0
 14 13  1  1
 13 12  1  0
 14 15  1  0
 16 17  2  0
 16 14  1  0
 18 19  2  0
 19  9  1  0
 21 20  1  0
 21 22  1  0
 22 23  1  6
 24 22  1  0
 24 25  1  1
 25 16  1  0
 26 24  1  0
 27 26  1  0
 28 26  2  0
M  END
$$$$
