PYI.pdb
     RDKit          3D

 28 29  0  0  1  0  0  0  0  0999 V2000
    6.5275  -21.1167   23.5243 N   0  0  0  0  0  0  0  0  0  0  0  0
    6.0436  -22.4909   23.3207 C   0  0  0  0  0  0  0  0  0  0  0  0
    4.5461  -22.4144   23.5892 C   0  0  0  0  0  0  0  0  0  0  0  0
    4.2478  -20.9309   23.6819 C   0  0  0  0  0  0  0  0  0  0  0  0
    5.4365  -20.3621   22.9495 C   0  0  1  0  0  0  0  0  0  0  0  0
    5.5879  -18.9202   23.0814 C   0  0  0  0  0  0  0  0  0  0  0  0
    5.0021  -18.1446   22.2923 O   0  0  0  0  0  0  0  0  0  0  0  0
    7.2944  -11.2237   27.2521 O   0  0  0  0  0  0  0  0  0  0  0  0
    7.1224  -12.5587   26.8938 C   0  0  0  0  0  0  0  0  0  0  0  0
    5.8715  -13.1295   26.7868 C   0  0  0  0  0  0  0  0  0  0  0  0
    5.6720  -14.4499   26.4335 C   0  0  0  0  0  0  0  0  0  0  0  0
    6.7486  -15.2629   26.1685 C   0  0  0  0  0  0  0  0  0  0  0  0
    6.6530  -16.6626   25.7748 C   0  0  0  0  0  0  0  0  0  0  0  0
    6.5365  -16.9054   24.3119 C   0  0  2  0  0  0  0  0  0  0  0  0
    6.4038  -18.3903   24.1097 N   0  0  0  0  0  0  0  0  0  0  0  0
    7.7416  -16.5459   23.5813 C   0  0  0  0  0  0  0  0  0  0  0  0
    8.7106  -17.3930   23.5466 O   0  0  0  0  0  0  0  0  0  0  0  0
    8.0113  -14.7113   26.2701 C   0  0  0  0  0  0  0  0  0  0  0  0
    8.1842  -13.3954   26.6234 C   0  0  0  0  0  0  0  0  0  0  0  0
    6.9455  -12.7258   19.7927 C   0  0  0  0  0  0  0  0  0  0  0  0
    7.3069  -13.9493   20.5649 C   0  0  0  0  0  0  0  0  0  0  0  0
    8.6702  -13.9956   21.1329 C   0  0  2  0  0  0  0  0  0  0  0  0
    9.7707  -13.5643   20.1791 C   0  0  0  0  0  0  0  0  0  0  0  0
    9.0536  -15.1795   21.9611 C   0  0  2  0  0  0  0  0  0  0  0  0
    7.9111  -15.3366   22.9020 N   0  0  0  0  0  0  0  0  0  0  0  0
   10.3313  -15.1427   22.6241 C   0  0  0  0  0  0  0  0  0  0  0  0
   11.5156  -15.4955   22.0162 O   0  0  0  0  0  0  0  0  0  0  0  0
   10.4154  -14.7759   23.8234 O   0  0  0  0  0  0  0  0  0  0  0  0
  1  2  1  0
  3  2  1  0
  4  5  1  0
  4  3  1  0
  5  1  1  0
  6 15  1  0
  5  6  1  1
  7  6  2  0
  9  8  1  0
 10  9  2  0
 11 10  1  0
 12 11  2  0
 12 18  1  0
 14 13  1  1
 13 12  1  0
 14 15  1  0
 16 17  2  0
 16 14  1  0
 18 19  2  0
 19  9  1  0
 21 20  1  0
 21 22  1  0
 22 23  1  6
 24 22  1  0
 24 25  1  1
 25 16  1  0
 26 24  1  0
 27 26  1  0
 28 26  2  0
M  END
$$$$
