PYI.pdb
     RDKit          3D

 28 29  0  0  1  0  0  0  0  0999 V2000
    8.5323  -17.3384   19.5541 N   0  0  0  0  0  0  0  0  0  0  0  0
    8.5108  -17.6742   18.1221 C   0  0  0  0  0  0  0  0  0  0  0  0
    8.4983  -16.3267   17.4119 C   0  0  0  0  0  0  0  0  0  0  0  0
    8.7704  -15.3133   18.5061 C   0  0  0  0  0  0  0  0  0  0  0  0
    9.4154  -16.1938   19.5461 C   0  0  1  0  0  0  0  0  0  0  0  0
    9.5717  -15.5653   20.8500 C   0  0  0  0  0  0  0  0  0  0  0  0
   10.4380  -14.6793   21.0289 O   0  0  0  0  0  0  0  0  0  0  0  0
    5.5606  -11.5437   27.6260 O   0  0  0  0  0  0  0  0  0  0  0  0
    5.9320  -12.3581   26.5587 C   0  0  0  0  0  0  0  0  0  0  0  0
    5.7961  -13.7297   26.6064 C   0  0  0  0  0  0  0  0  0  0  0  0
    6.1560  -14.5606   25.5634 C   0  0  0  0  0  0  0  0  0  0  0  0
    6.6775  -14.0297   24.4073 C   0  0  0  0  0  0  0  0  0  0  0  0
    7.0763  -14.8102   23.2432 C   0  0  0  0  0  0  0  0  0  0  0  0
    8.5360  -15.0683   23.1202 C   0  0  2  0  0  0  0  0  0  0  0  0
    8.7380  -15.9586   21.9242 N   0  0  0  0  0  0  0  0  0  0  0  0
    9.0712  -15.8326   24.2359 C   0  0  0  0  0  0  0  0  0  0  0  0
    9.4673  -17.0379   24.0168 O   0  0  0  0  0  0  0  0  0  0  0  0
    6.8225  -12.6574   24.3383 C   0  0  0  0  0  0  0  0  0  0  0  0
    6.4575  -11.8518   25.3890 C   0  0  0  0  0  0  0  0  0  0  0  0
   11.5060  -14.2633   29.6647 C   0  0  0  0  0  0  0  0  0  0  0  0
   11.3573  -15.2905   28.5940 C   0  0  0  0  0  0  0  0  0  0  0  0
   10.4797  -14.9409   27.4578 C   0  0  2  0  0  0  0  0  0  0  0  0
    9.3209  -14.0241   27.8089 C   0  0  0  0  0  0  0  0  0  0  0  0
   10.0922  -16.0230   26.5018 C   0  0  2  0  0  0  0  0  0  0  0  0
    9.1930  -15.3349   25.5359 N   0  0  0  0  0  0  0  0  0  0  0  0
    9.5186  -17.2236   27.0522 C   0  0  0  0  0  0  0  0  0  0  0  0
    8.2124  -17.6079   26.8460 O   0  0  0  0  0  0  0  0  0  0  0  0
   10.2124  -17.9905   27.7666 O   0  0  0  0  0  0  0  0  0  0  0  0
  1  2  1  0
  3  2  1  0
  4  5  1  0
  4  3  1  0
  5  1  1  0
  6 15  1  0
  5  6  1  1
  7  6  2  0
  9  8  1  0
 10  9  2  0
 11 10  1  0
 12 11  2  0
 12 18  1  0
 14 13  1  1
 13 12  1  0
 14 15  1  0
 16 17  2  0
 16 14  1  0
 18 19  2  0
 19  9  1  0
 21 20  1  0
 21 22  1  0
 22 23  1  1
 24 22  1  0
 24 25  1  6
 25 16  1  0
 26 24  1  0
 27 26  1  0
 28 26  2  0
M  END
$$$$
