RLQ.pdb
     RDKit          3D

 29 28  0  0  1  0  0  0  0  0999 V2000
    9.0158  -15.0914   16.6008 N   0  0  0  0  0  0  0  0  0  0  0  0
    8.1077  -14.0140   16.4604 C   0  0  0  0  0  0  0  0  0  0  0  0
    7.7551  -13.5531   15.3066 N   0  0  0  0  0  0  0  0  0  0  0  0
    7.5435  -13.3934   17.6141 N   0  0  0  0  0  0  0  0  0  0  0  0
    8.3558  -13.0105   18.7511 C   0  0  0  0  0  0  0  0  0  0  0  0
    8.6459  -14.2994   19.5413 C   0  0  0  0  0  0  0  0  0  0  0  0
    8.5146  -14.0577   21.0124 C   0  0  0  0  0  0  0  0  0  0  0  0
    8.8279  -15.2638   21.8229 C   0  0  2  0  0  0  0  0  0  0  0  0
    7.7128  -16.2118   21.7215 N   0  0  0  0  0  0  0  0  0  0  0  0
    9.1626  -15.0049   23.2408 C   0  0  0  0  0  0  0  0  0  0  0  0
   10.3226  -14.7128   23.5934 O   0  0  0  0  0  0  0  0  0  0  0  0
    7.1567  -12.7126   15.1988 C   0  0  0  0  0  0  0  0  0  0  0  0
    5.5002  -12.5511   26.4596 C   0  0  1  0  0  0  0  0  0  0  0  0
    6.7827  -12.9504   25.8305 C   0  0  0  0  0  0  0  0  0  0  0  0
    7.8047  -11.8403   26.0001 C   0  0  0  0  0  0  0  0  0  0  0  0
    7.3257  -14.2092   26.3822 C   0  0  2  0  0  0  0  0  0  0  0  0
    8.5087  -14.8051   25.6862 N   0  0  0  0  0  0  0  0  0  0  0  0
    8.1844  -15.0745   24.2767 C   0  0  0  0  0  0  0  0  0  0  0  0
    9.0754  -16.0221   26.2673 O   0  0  0  0  0  0  0  0  0  0  0  0
    9.3650  -16.0986   27.5147 N   0  0  0  0  0  0  0  0  0  0  0  0
   11.5888  -18.7659   22.3720 C   0  0  0  0  0  0  0  0  0  0  0  0
   11.1682  -19.8859   23.1344 O   0  0  0  0  0  0  0  0  0  0  0  0
   10.7064  -20.9173   22.5860 C   0  0  0  0  0  0  0  0  0  0  0  0
   11.3055  -19.7682   24.6162 C   0  0  0  0  0  0  0  0  0  0  0  0
    9.9187  -19.5696   25.1863 C   0  0  1  0  0  0  0  0  0  0  0  0
    9.8883  -18.4091   26.1716 N   0  0  0  0  0  0  0  0  0  0  0  0
    9.3561  -17.2187   25.5432 C   0  0  0  0  0  0  0  0  0  0  0  0
   11.1988  -18.2084   26.8132 O   0  0  0  0  0  0  0  0  0  0  0  0
   11.9976  -17.3069   26.3885 O   0  0  0  0  0  0  0  0  0  0  0  0
  2  1  1  0
  2  3  2  0
  4  2  1  0
  5  4  1  0
  6  5  1  0
  7  6  1  0
  8 10  1  0
  8  7  1  0
  8  9  1  1
 10 11  2  0
 13 12  1  6
 14 13  1  0
 15 13  1  0
 16 15  1  6
 17 16  1  0
 17 10  1  0
 18 16  1  0
 18 19  2  0
 20 21  1  0
 21 23  1  0
 21 22  2  0
 23 24  1  0
 25 24  1  1
 25 26  1  0
 25 27  1  0
 26 18  1  0
 27 28  2  0
 27 29  1  0
M  END
$$$$
