RLQ.pdb
     RDKit          3D

 29 28  0  0  1  0  0  0  0  0999 V2000
    7.7851  -15.1361   17.0458 N   0  0  0  0  0  0  0  0  0  0  0  0
    8.5021  -13.9874   16.6314 C   0  0  0  0  0  0  0  0  0  0  0  0
    9.1835  -13.9563   15.5348 N   0  0  0  0  0  0  0  0  0  0  0  0
    8.4919  -12.8057   17.4302 N   0  0  0  0  0  0  0  0  0  0  0  0
    7.8384  -12.7617   18.7226 C   0  0  0  0  0  0  0  0  0  0  0  0
    8.4084  -13.9306   19.5464 C   0  0  0  0  0  0  0  0  0  0  0  0
    7.7877  -13.9695   20.9076 C   0  0  0  0  0  0  0  0  0  0  0  0
    8.2845  -15.1012   21.7334 C   0  0  2  0  0  0  0  0  0  0  0  0
    7.2802  -16.1707   21.7341 N   0  0  0  0  0  0  0  0  0  0  0  0
    8.6733  -14.7526   23.1178 C   0  0  0  0  0  0  0  0  0  0  0  0
    9.7659  -14.2065   23.3696 O   0  0  0  0  0  0  0  0  0  0  0  0
    9.7126  -13.1183   15.2283 C   0  0  0  0  0  0  0  0  0  0  0  0
    5.0718  -12.3624   26.0061 C   0  0  1  0  0  0  0  0  0  0  0  0
    6.4070  -12.7560   25.4937 C   0  0  0  0  0  0  0  0  0  0  0  0
    7.3547  -11.5721   25.5690 C   0  0  0  0  0  0  0  0  0  0  0  0
    6.9883  -13.9006   26.2255 C   0  0  2  0  0  0  0  0  0  0  0  0
    8.1622  -14.5857   25.5994 N   0  0  0  0  0  0  0  0  0  0  0  0
    7.8265  -15.0195   24.2343 C   0  0  0  0  0  0  0  0  0  0  0  0
    8.7233  -15.7288   26.3192 O   0  0  0  0  0  0  0  0  0  0  0  0
    9.0502  -15.6481   27.5570 N   0  0  0  0  0  0  0  0  0  0  0  0
    6.4552  -20.9848   28.1006 C   0  0  0  0  0  0  0  0  0  0  0  0
    6.4909  -20.2586   26.8823 O   0  0  0  0  0  0  0  0  0  0  0  0
    5.8906  -20.6665   25.8571 C   0  0  0  0  0  0  0  0  0  0  0  0
    7.2779  -18.9903   26.8898 C   0  0  0  0  0  0  0  0  0  0  0  0
    8.6941  -19.3322   26.4835 C   0  0  2  0  0  0  0  0  0  0  0  0
    9.5825  -18.0956   26.4860 N   0  0  0  0  0  0  0  0  0  0  0  0
    8.9583  -17.0161   25.7511 C   0  0  0  0  0  0  0  0  0  0  0  0
   10.9496  -18.4095   26.0364 O   0  0  0  0  0  0  0  0  0  0  0  0
   11.4663  -17.7869   25.0482 O   0  0  0  0  0  0  0  0  0  0  0  0
  2  1  1  0
  2  3  2  0
  4  2  1  0
  5  4  1  0
  6  5  1  0
  7  6  1  0
  8 10  1  0
  8  7  1  0
  8  9  1  1
 10 11  2  0
 13 12  1  6
 14 13  1  0
 15 13  1  0
 16 15  1  6
 17 16  1  0
 17 10  1  0
 18 16  1  0
 18 19  2  0
 20 21  1  0
 21 23  1  0
 21 22  2  0
 23 24  1  0
 25 24  1  1
 25 26  1  0
 25 27  1  0
 26 18  1  0
 27 28  2  0
 27 29  1  0
M  END
$$$$
