RLQ.pdb
     RDKit          3D

 29 28  0  0  1  0  0  0  0  0999 V2000
    8.7878  -20.9376   20.4082 N   0  0  0  0  0  0  0  0  0  0  0  0
    8.3347  -20.5814   19.1147 C   0  0  0  0  0  0  0  0  0  0  0  0
    8.7676  -21.1633   18.0461 N   0  0  0  0  0  0  0  0  0  0  0  0
    7.3657  -19.5476   18.9510 N   0  0  0  0  0  0  0  0  0  0  0  0
    6.8653  -18.7832   20.0756 C   0  0  0  0  0  0  0  0  0  0  0  0
    7.8283  -17.5977   20.2680 C   0  0  0  0  0  0  0  0  0  0  0  0
    7.3565  -16.7084   21.3754 C   0  0  0  0  0  0  0  0  0  0  0  0
    8.2599  -15.5509   21.6072 C   0  0  2  0  0  0  0  0  0  0  0  0
    9.4418  -15.6864   20.7486 N   0  0  0  0  0  0  0  0  0  0  0  0
    8.6620  -15.3328   23.0143 C   0  0  0  0  0  0  0  0  0  0  0  0
    9.8157  -15.5933   23.4099 O   0  0  0  0  0  0  0  0  0  0  0  0
    8.4659  -20.8819   17.0944 C   0  0  0  0  0  0  0  0  0  0  0  0
    5.8049  -11.7134   26.1249 C   0  0  1  0  0  0  0  0  0  0  0  0
    6.9913  -12.4116   25.5724 C   0  0  0  0  0  0  0  0  0  0  0  0
    8.2434  -11.6031   25.8623 C   0  0  0  0  0  0  0  0  0  0  0  0
    7.1529  -13.7798   26.1065 C   0  0  2  0  0  0  0  0  0  0  0  0
    8.1278  -14.6745   25.4078 N   0  0  0  0  0  0  0  0  0  0  0  0
    7.7593  -14.8162   23.9905 C   0  0  0  0  0  0  0  0  0  0  0  0
    8.3186  -16.0122   25.9682 O   0  0  0  0  0  0  0  0  0  0  0  0
    7.6081  -17.0087   25.5840 N   0  0  0  0  0  0  0  0  0  0  0  0
   10.0036  -19.3941   23.6552 C   0  0  0  0  0  0  0  0  0  0  0  0
   10.8629  -20.0084   24.6022 O   0  0  0  0  0  0  0  0  0  0  0  0
   11.0783  -21.2458   24.5875 C   0  0  0  0  0  0  0  0  0  0  0  0
   11.4919  -19.1048   25.6103 C   0  0  0  0  0  0  0  0  0  0  0  0
   10.7020  -17.8150   25.6194 C   0  0  1  0  0  0  0  0  0  0  0  0
   10.0101  -17.6014   26.9588 N   0  0  0  0  0  0  0  0  0  0  0  0
    9.2821  -16.3503   26.9645 C   0  0  0  0  0  0  0  0  0  0  0  0
   10.9494  -17.7486   28.0837 O   0  0  0  0  0  0  0  0  0  0  0  0
   11.4242  -18.8949   28.3866 O   0  0  0  0  0  0  0  0  0  0  0  0
  2  1  1  0
  2  3  2  0
  4  2  1  0
  5  4  1  0
  6  5  1  0
  7  6  1  0
  8 10  1  0
  8  7  1  0
  8  9  1  6
 10 11  2  0
 13 12  1  6
 14 13  1  0
 15 13  1  0
 16 15  1  6
 17 16  1  0
 17 10  1  0
 18 16  1  0
 18 19  2  0
 20 21  1  0
 21 23  1  0
 21 22  2  0
 23 24  1  0
 25 24  1  6
 25 26  1  0
 25 27  1  0
 26 18  1  0
 27 28  2  0
 27 29  1  0
M  END
$$$$
