RLQ.pdb
     RDKit          3D

 29 28  0  0  1  0  0  0  0  0999 V2000
    9.8904  -13.7129   17.9717 N   0  0  0  0  0  0  0  0  0  0  0  0
    8.8599  -12.9488   18.5712 C   0  0  0  0  0  0  0  0  0  0  0  0
    8.9408  -11.6672   18.7093 N   0  0  0  0  0  0  0  0  0  0  0  0
    7.6769  -13.5860   19.0498 N   0  0  0  0  0  0  0  0  0  0  0  0
    7.4544  -15.0083   18.8858 C   0  0  0  0  0  0  0  0  0  0  0  0
    7.5108  -15.6298   20.2930 C   0  0  0  0  0  0  0  0  0  0  0  0
    8.7906  -16.3809   20.4877 C   0  0  0  0  0  0  0  0  0  0  0  0
    8.9272  -16.9375   21.8592 C   0  0  2  0  0  0  0  0  0  0  0  0
    7.7697  -17.7920   22.1468 N   0  0  0  0  0  0  0  0  0  0  0  0
    9.1142  -15.9370   22.9333 C   0  0  0  0  0  0  0  0  0  0  0  0
   10.1843  -15.3090   23.0592 O   0  0  0  0  0  0  0  0  0  0  0  0
    8.1963  -11.1052   19.1632 C   0  0  0  0  0  0  0  0  0  0  0  0
    7.7570  -11.5893   25.8415 C   0  0  2  0  0  0  0  0  0  0  0  0
    6.9852  -12.8135   26.1668 C   0  0  0  0  0  0  0  0  0  0  0  0
    5.5457  -12.4447   26.4785 C   0  0  0  0  0  0  0  0  0  0  0  0
    7.0137  -13.8158   25.0813 C   0  0  1  0  0  0  0  0  0  0  0  0
    8.2618  -14.6283   24.9352 N   0  0  0  0  0  0  0  0  0  0  0  0
    8.0887  -15.6369   23.8782 C   0  0  0  0  0  0  0  0  0  0  0  0
    8.7579  -15.3018   26.1352 O   0  0  0  0  0  0  0  0  0  0  0  0
    9.1609  -14.6408   27.1581 N   0  0  0  0  0  0  0  0  0  0  0  0
    6.3644  -19.9191   28.5355 C   0  0  0  0  0  0  0  0  0  0  0  0
    7.2085  -20.4511   27.5270 O   0  0  0  0  0  0  0  0  0  0  0  0
    6.9814  -21.5702   27.0037 C   0  0  0  0  0  0  0  0  0  0  0  0
    8.3744  -19.6092   27.1266 C   0  0  0  0  0  0  0  0  0  0  0  0
    8.3823  -18.3896   28.0212 C   0  0  1  0  0  0  0  0  0  0  0  0
    9.3524  -17.3347   27.5071 N   0  0  0  0  0  0  0  0  0  0  0  0
    8.8433  -16.7161   26.3015 C   0  0  0  0  0  0  0  0  0  0  0  0
   10.7163  -17.8737   27.3693 O   0  0  0  0  0  0  0  0  0  0  0  0
   11.3048  -17.8673   26.2359 O   0  0  0  0  0  0  0  0  0  0  0  0
  2  1  1  0
  2  3  2  0
  4  2  1  0
  5  4  1  0
  6  5  1  0
  7  6  1  0
  8 10  1  0
  8  7  1  0
  8  9  1  1
 10 11  2  0
 13 12  1  1
 14 13  1  0
 15 13  1  0
 16 15  1  6
 17 16  1  0
 17 10  1  0
 18 16  1  0
 18 19  2  0
 20 21  1  0
 21 23  1  0
 21 22  2  0
 23 24  1  0
 25 24  1  1
 25 26  1  0
 25 27  1  0
 26 18  1  0
 27 28  2  0
 27 29  1  0
M  END
$$$$
