RLQ.pdb
     RDKit          3D

 29 28  0  0  1  0  0  0  0  0999 V2000
    8.8870  -17.5857   16.1204 N   0  0  0  0  0  0  0  0  0  0  0  0
    7.6059  -18.1666   16.2835 C   0  0  0  0  0  0  0  0  0  0  0  0
    6.9624  -18.7078   15.3032 N   0  0  0  0  0  0  0  0  0  0  0  0
    6.9756  -18.1715   17.5630 N   0  0  0  0  0  0  0  0  0  0  0  0
    7.6298  -17.6367   18.7401 C   0  0  0  0  0  0  0  0  0  0  0  0
    7.8035  -16.1259   18.5014 C   0  0  0  0  0  0  0  0  0  0  0  0
    7.4313  -15.3515   19.7268 C   0  0  0  0  0  0  0  0  0  0  0  0
    7.9272  -15.9826   20.9779 C   0  0  2  0  0  0  0  0  0  0  0  0
    6.9031  -16.8998   21.4902 N   0  0  0  0  0  0  0  0  0  0  0  0
    8.3572  -15.0411   22.0353 C   0  0  0  0  0  0  0  0  0  0  0  0
    9.3860  -14.3473   21.9105 O   0  0  0  0  0  0  0  0  0  0  0  0
    6.0439  -19.1739   15.4262 C   0  0  0  0  0  0  0  0  0  0  0  0
    7.7089  -11.2140   25.7514 C   0  0  2  0  0  0  0  0  0  0  0  0
    7.0997  -12.5011   26.1666 C   0  0  0  0  0  0  0  0  0  0  0  0
    5.7976  -12.2386   26.9021 C   0  0  0  0  0  0  0  0  0  0  0  0
    6.8494  -13.4113   25.0298 C   0  0  1  0  0  0  0  0  0  0  0  0
    8.0455  -13.9377   24.3008 N   0  0  0  0  0  0  0  0  0  0  0  0
    7.6247  -14.8753   23.2479 C   0  0  0  0  0  0  0  0  0  0  0  0
    9.0796  -14.5866   25.1065 O   0  0  0  0  0  0  0  0  0  0  0  0
    9.4282  -14.1235   26.2510 N   0  0  0  0  0  0  0  0  0  0  0  0
   10.3404  -18.6792   28.7017 C   0  0  0  0  0  0  0  0  0  0  0  0
    9.3362  -18.9430   27.7349 O   0  0  0  0  0  0  0  0  0  0  0  0
    8.5937  -19.9526   27.8183 C   0  0  0  0  0  0  0  0  0  0  0  0
    9.2143  -17.9574   26.6204 C   0  0  0  0  0  0  0  0  0  0  0  0
   10.2349  -16.8680   26.8639 C   0  0  1  0  0  0  0  0  0  0  0  0
   10.8203  -16.3579   25.5542 N   0  0  0  0  0  0  0  0  0  0  0  0
    9.7888  -15.7655   24.7294 C   0  0  0  0  0  0  0  0  0  0  0  0
   11.6052  -17.3992   24.8693 O   0  0  0  0  0  0  0  0  0  0  0  0
   12.6306  -17.9132   25.4311 O   0  0  0  0  0  0  0  0  0  0  0  0
  2  1  1  0
  2  3  2  0
  4  2  1  0
  5  4  1  0
  6  5  1  0
  7  6  1  0
  8 10  1  0
  8  7  1  0
  8  9  1  1
 10 11  2  0
 13 12  1  1
 14 13  1  0
 15 13  1  0
 16 15  1  6
 17 16  1  0
 17 10  1  0
 18 16  1  0
 18 19  2  0
 20 21  1  0
 21 23  1  0
 21 22  2  0
 23 24  1  0
 25 24  1  1
 25 26  1  0
 25 27  1  0
 26 18  1  0
 27 28  2  0
 27 29  1  0
M  END
$$$$
