RLQ.pdb
     RDKit          3D

 29 28  0  0  1  0  0  0  0  0999 V2000
    9.2574  -21.4672   19.5605 N   0  0  0  0  0  0  0  0  0  0  0  0
    8.7737  -20.6114   18.5413 C   0  0  0  0  0  0  0  0  0  0  0  0
    9.1989  -20.6774   17.3236 N   0  0  0  0  0  0  0  0  0  0  0  0
    7.7808  -19.6307   18.8363 N   0  0  0  0  0  0  0  0  0  0  0  0
    7.6147  -19.0872   20.1691 C   0  0  0  0  0  0  0  0  0  0  0  0
    8.8833  -18.2706   20.4749 C   0  0  0  0  0  0  0  0  0  0  0  0
    8.8140  -17.6820   21.8491 C   0  0  0  0  0  0  0  0  0  0  0  0
    8.8173  -16.1956   21.8383 C   0  0  2  0  0  0  0  0  0  0  0  0
    9.7686  -15.7261   20.8247 N   0  0  0  0  0  0  0  0  0  0  0  0
    9.0891  -15.5530   23.1432 C   0  0  0  0  0  0  0  0  0  0  0  0
   10.2524  -15.4121   23.5701 O   0  0  0  0  0  0  0  0  0  0  0  0
    8.8766  -20.0274   16.5823 C   0  0  0  0  0  0  0  0  0  0  0  0
    5.4075  -12.1731   25.7192 C   0  0  1  0  0  0  0  0  0  0  0  0
    6.7031  -12.7206   25.2481 C   0  0  0  0  0  0  0  0  0  0  0  0
    7.7986  -11.6881   25.4459 C   0  0  0  0  0  0  0  0  0  0  0  0
    7.0788  -13.9757   25.9316 C   0  0  2  0  0  0  0  0  0  0  0  0
    8.2616  -14.7181   25.3938 N   0  0  0  0  0  0  0  0  0  0  0  0
    8.0435  -15.0622   23.9801 C   0  0  0  0  0  0  0  0  0  0  0  0
    8.6611  -15.9321   26.1052 O   0  0  0  0  0  0  0  0  0  0  0  0
    7.9784  -17.0150   26.0212 N   0  0  0  0  0  0  0  0  0  0  0  0
   13.9662  -17.4532   26.0215 C   0  0  0  0  0  0  0  0  0  0  0  0
   13.0816  -18.3378   25.3524 O   0  0  0  0  0  0  0  0  0  0  0  0
   13.4151  -18.9215   24.2914 C   0  0  0  0  0  0  0  0  0  0  0  0
   11.7406  -18.5331   25.9785 C   0  0  0  0  0  0  0  0  0  0  0  0
   11.6656  -17.6231   27.1843 C   0  0  2  0  0  0  0  0  0  0  0  0
   10.2214  -17.2993   27.5420 N   0  0  0  0  0  0  0  0  0  0  0  0
    9.8132  -16.0486   26.9384 C   0  0  0  0  0  0  0  0  0  0  0  0
    9.9965  -17.3598   28.9963 O   0  0  0  0  0  0  0  0  0  0  0  0
    9.5196  -16.3533   29.6213 O   0  0  0  0  0  0  0  0  0  0  0  0
  2  1  1  0
  2  3  2  0
  4  2  1  0
  5  4  1  0
  6  5  1  0
  7  6  1  0
  8 10  1  0
  8  7  1  0
  8  9  1  6
 10 11  2  0
 13 12  1  6
 14 13  1  0
 15 13  1  0
 16 15  1  6
 17 16  1  0
 17 10  1  0
 18 16  1  0
 18 19  2  0
 20 21  1  0
 21 23  1  0
 21 22  2  0
 23 24  1  0
 25 24  1  6
 25 26  1  0
 25 27  1  0
 26 18  1  0
 27 28  2  0
 27 29  1  0
M  END
$$$$
