RLQ.pdb
     RDKit          3D

 29 28  0  0  1  0  0  0  0  0999 V2000
    8.7701  -20.8057   20.5050 N   0  0  0  0  0  0  0  0  0  0  0  0
    7.6946  -20.2924   19.7402 C   0  0  0  0  0  0  0  0  0  0  0  0
    7.5020  -20.6258   18.5075 N   0  0  0  0  0  0  0  0  0  0  0  0
    6.7724  -19.3727   20.3219 N   0  0  0  0  0  0  0  0  0  0  0  0
    6.9142  -18.9075   21.6868 C   0  0  0  0  0  0  0  0  0  0  0  0
    7.5564  -17.5104   21.6133 C   0  0  0  0  0  0  0  0  0  0  0  0
    6.5062  -16.4444   21.6375 C   0  0  0  0  0  0  0  0  0  0  0  0
    7.0778  -15.0734   21.5805 C   0  0  2  0  0  0  0  0  0  0  0  0
    7.8590  -14.9312   20.3468 N   0  0  0  0  0  0  0  0  0  0  0  0
    7.8838  -14.6736   22.7551 C   0  0  0  0  0  0  0  0  0  0  0  0
    9.1099  -14.4648   22.6631 O   0  0  0  0  0  0  0  0  0  0  0  0
    6.7541  -20.2054   17.9243 C   0  0  0  0  0  0  0  0  0  0  0  0
    5.5268  -11.5925   26.7313 C   0  0  1  0  0  0  0  0  0  0  0  0
    6.4673  -12.1306   25.7183 C   0  0  0  0  0  0  0  0  0  0  0  0
    7.4769  -11.0625   25.3372 C   0  0  0  0  0  0  0  0  0  0  0  0
    7.1795  -13.3400   26.1809 C   0  0  2  0  0  0  0  0  0  0  0  0
    8.0841  -14.0166   25.1996 N   0  0  0  0  0  0  0  0  0  0  0  0
    7.3081  -14.5059   24.0494 C   0  0  0  0  0  0  0  0  0  0  0  0
    8.9019  -15.1195   25.7040 O   0  0  0  0  0  0  0  0  0  0  0  0
    9.7120  -14.9603   26.6858 N   0  0  0  0  0  0  0  0  0  0  0  0
   13.1890  -19.9222   23.6812 C   0  0  0  0  0  0  0  0  0  0  0  0
   13.1179  -18.6233   24.2473 O   0  0  0  0  0  0  0  0  0  0  0  0
   13.8653  -17.6938   23.8534 C   0  0  0  0  0  0  0  0  0  0  0  0
   12.1101  -18.4268   25.3308 C   0  0  0  0  0  0  0  0  0  0  0  0
   11.1179  -17.3932   24.8461 C   0  0  1  0  0  0  0  0  0  0  0  0
    9.8137  -17.4713   25.6280 N   0  0  0  0  0  0  0  0  0  0  0  0
    8.8901  -16.4484   25.1853 C   0  0  0  0  0  0  0  0  0  0  0  0
   10.0521  -17.4695   27.0814 O   0  0  0  0  0  0  0  0  0  0  0  0
    9.6300  -16.5067   27.8067 O   0  0  0  0  0  0  0  0  0  0  0  0
  2  1  1  0
  2  3  2  0
  4  2  1  0
  5  4  1  0
  6  5  1  0
  7  6  1  0
  8 10  1  0
  8  7  1  0
  8  9  1  6
 10 11  2  0
 13 12  1  6
 14 13  1  0
 15 13  1  0
 16 15  1  6
 17 16  1  0
 17 10  1  0
 18 16  1  0
 18 19  2  0
 20 21  1  0
 21 23  1  0
 21 22  2  0
 23 24  1  0
 25 24  1  6
 25 26  1  0
 25 27  1  0
 26 18  1  0
 27 28  2  0
 27 29  1  0
M  END
$$$$
