YED.pdb
     RDKit          3D

 30 30  0  0  1  0  0  0  0  0999 V2000
   30.0378  -19.3588   -3.3552 O   0  0  0  0  0  0  0  0  0  0  0  0
   29.1902  -19.6791   -4.4021 C   0  0  0  0  0  0  0  0  0  0  0  0
   29.7011  -20.1778   -5.5839 C   0  0  0  0  0  0  0  0  0  0  0  0
   28.8978  -20.5076   -6.6475 C   0  0  0  0  0  0  0  0  0  0  0  0
   27.5354  -20.3359   -6.5321 C   0  0  0  0  0  0  0  0  0  0  0  0
   26.6751  -20.6921   -7.6778 C   0  0  0  0  0  0  0  0  0  0  0  0
   26.7838  -19.7273   -8.8152 C   0  0  2  0  0  0  0  0  0  0  0  0
   26.4725  -18.3979   -8.3314 N   0  0  0  0  0  0  0  0  0  0  0  0
   25.9093  -20.1014   -9.9625 C   0  0  0  0  0  0  0  0  0  0  0  0
   24.6824  -19.8295   -9.9218 O   0  0  0  0  0  0  0  0  0  0  0  0
   26.9824  -19.8404   -5.3677 C   0  0  0  0  0  0  0  0  0  0  0  0
   27.8237  -19.5235   -4.3300 C   0  0  0  0  0  0  0  0  0  0  0  0
   26.4569  -20.7527  -11.0761 N   0  0  0  0  0  0  0  0  0  0  0  0
   25.9939  -20.7473  -12.4253 C   0  0  1  0  0  0  0  0  0  0  0  0
   27.0003  -21.1823  -13.4601 C   0  0  0  0  0  0  0  0  0  0  0  0
   26.5600  -21.1545  -14.8745 C   0  0  0  0  0  0  0  0  0  0  0  0
   27.6384  -21.5163  -15.8602 C   0  0  0  0  0  0  0  0  0  0  0  0
   28.0945  -20.6847  -16.6594 O   0  0  0  0  0  0  0  0  0  0  0  0
   24.7337  -21.4571  -12.6330 C   0  0  0  0  0  0  0  0  0  0  0  0
   24.5528  -22.6581  -12.2163 O   0  0  0  0  0  0  0  0  0  0  0  0
   28.1575  -22.8038  -15.9042 O   0  0  0  0  0  0  0  0  0  0  0  0
   23.6552  -20.8277  -13.3120 N   0  0  0  0  0  0  0  0  0  0  0  0
   22.3947  -21.5397  -13.4944 C   0  0  1  0  0  0  0  0  0  0  0  0
   21.3105  -20.4802  -13.6917 C   0  0  0  0  0  0  0  0  0  0  0  0
   20.4004  -20.5558  -12.5124 C   0  0  0  0  0  0  0  0  0  0  0  0
   20.5707  -21.4844  -11.6593 O   0  0  0  0  0  0  0  0  0  0  0  0
   22.5336  -22.4184  -14.6752 C   0  0  0  0  0  0  0  0  0  0  0  0
   23.4373  -22.1941  -15.5181 O   0  0  0  0  0  0  0  0  0  0  0  0
   19.3881  -19.6067  -12.3794 O   0  0  0  0  0  0  0  0  0  0  0  0
   21.6832  -23.4782  -14.8592 O   0  0  0  0  0  0  0  0  0  0  0  0
  2  1  1  0
  3  2  2  0
  4  3  1  0
  5 11  1  0
  5  4  2  0
  6  5  1  0
  7  9  1  0
  7  6  1  0
  7  8  1  1
  9 10  2  0
 11 12  2  0
 12  2  1  0
 13 14  1  0
 13  9  1  0
 14 15  1  6
 15 16  1  0
 16 17  1  0
 17 21  1  0
 17 18  2  0
 19 14  1  0
 20 19  2  0
 22 19  1  0
 23 27  1  0
 23 22  1  0
 23 24  1  6
 25 24  1  0
 26 25  2  0
 27 30  1  0
 28 27  2  0
 29 25  1  0
M  END
$$$$
