YED.pdb
     RDKit          3D

 30 30  0  0  1  0  0  0  0  0999 V2000
   31.2543   -1.6307  -17.8198 O   0  0  0  0  0  0  0  0  0  0  0  0
   29.9347   -2.0395  -17.7278 C   0  0  0  0  0  0  0  0  0  0  0  0
   28.9299   -1.2822  -18.2964 C   0  0  0  0  0  0  0  0  0  0  0  0
   27.6086   -1.6492  -18.2283 C   0  0  0  0  0  0  0  0  0  0  0  0
   27.2731   -2.8130  -17.5709 C   0  0  0  0  0  0  0  0  0  0  0  0
   25.8513   -3.2043  -17.5004 C   0  0  0  0  0  0  0  0  0  0  0  0
   25.6139   -4.6260  -17.8990 C   0  0  2  0  0  0  0  0  0  0  0  0
   26.0483   -4.8057  -19.2691 N   0  0  0  0  0  0  0  0  0  0  0  0
   24.1907   -5.0336  -17.7274 C   0  0  0  0  0  0  0  0  0  0  0  0
   23.3973   -4.9401  -18.6982 O   0  0  0  0  0  0  0  0  0  0  0  0
   28.2465   -3.6005  -16.9884 C   0  0  0  0  0  0  0  0  0  0  0  0
   29.5549   -3.1944  -17.0807 C   0  0  0  0  0  0  0  0  0  0  0  0
   23.7458   -5.5162  -16.4891 N   0  0  0  0  0  0  0  0  0  0  0  0
   22.4362   -5.9456  -16.1212 C   0  0  1  0  0  0  0  0  0  0  0  0
   22.3779   -7.0649  -15.1130 C   0  0  0  0  0  0  0  0  0  0  0  0
   21.0310   -7.5297  -14.7067 C   0  0  0  0  0  0  0  0  0  0  0  0
   21.0449   -8.7109  -13.7739 C   0  0  0  0  0  0  0  0  0  0  0  0
   20.9885   -8.5683  -12.5432 O   0  0  0  0  0  0  0  0  0  0  0  0
   21.5404   -4.8659  -15.7128 C   0  0  0  0  0  0  0  0  0  0  0  0
   21.8437   -4.0511  -14.7679 O   0  0  0  0  0  0  0  0  0  0  0  0
   21.1234  -10.0061  -14.2692 O   0  0  0  0  0  0  0  0  0  0  0  0
   20.2887   -4.6836  -16.3611 N   0  0  0  0  0  0  0  0  0  0  0  0
   19.3929   -3.6162  -15.9283 C   0  0  1  0  0  0  0  0  0  0  0  0
   19.0753   -2.7743  -17.1640 C   0  0  0  0  0  0  0  0  0  0  0  0
   18.1870   -1.6604  -16.7222 C   0  0  0  0  0  0  0  0  0  0  0  0
   17.9019   -1.5505  -15.4870 O   0  0  0  0  0  0  0  0  0  0  0  0
   18.1814   -4.2411  -15.3560 C   0  0  0  0  0  0  0  0  0  0  0  0
   17.4968   -5.0304  -16.0529 O   0  0  0  0  0  0  0  0  0  0  0  0
   17.6935   -0.7720  -17.6764 O   0  0  0  0  0  0  0  0  0  0  0  0
   17.7974   -3.9665  -14.0686 O   0  0  0  0  0  0  0  0  0  0  0  0
  2  1  1  0
  3  2  2  0
  4  3  1  0
  5 11  1  0
  5  4  2  0
  6  5  1  0
  7  9  1  0
  7  6  1  0
  7  8  1  6
  9 10  2  0
 11 12  2  0
 12  2  1  0
 13 14  1  0
 13  9  1  0
 14 15  1  1
 15 16  1  0
 16 17  1  0
 17 21  1  0
 17 18  2  0
 19 14  1  0
 20 19  2  0
 22 19  1  0
 23 27  1  0
 23 22  1  0
 23 24  1  6
 25 24  1  0
 26 25  2  0
 27 30  1  0
 28 27  2  0
 29 25  1  0
M  END
$$$$
