YED.pdb
     RDKit          3D

 30 30  0  0  1  0  0  0  0  0999 V2000
   17.0004  -13.7962  -22.2850 O   0  0  0  0  0  0  0  0  0  0  0  0
   16.9627  -12.7971  -21.3273 C   0  0  0  0  0  0  0  0  0  0  0  0
   15.8019  -12.5541  -20.6201 C   0  0  0  0  0  0  0  0  0  0  0  0
   15.7195  -11.5733  -19.6627 C   0  0  0  0  0  0  0  0  0  0  0  0
   16.8327  -10.8054  -19.3977 C   0  0  0  0  0  0  0  0  0  0  0  0
   16.7402   -9.7522  -18.3673 C   0  0  0  0  0  0  0  0  0  0  0  0
   17.3700  -10.1450  -17.0691 C   0  0  2  0  0  0  0  0  0  0  0  0
   16.6133  -11.2385  -16.4948 N   0  0  0  0  0  0  0  0  0  0  0  0
   17.4707   -9.0019  -16.1181 C   0  0  0  0  0  0  0  0  0  0  0  0
   16.4699   -8.6779  -15.4295 O   0  0  0  0  0  0  0  0  0  0  0  0
   18.0141  -11.0152  -20.0814 C   0  0  0  0  0  0  0  0  0  0  0  0
   18.0506  -12.0066  -21.0306 C   0  0  0  0  0  0  0  0  0  0  0  0
   18.6756   -8.2963  -15.9978 N   0  0  0  0  0  0  0  0  0  0  0  0
   18.9364   -7.1020  -15.2627 C   0  0  1  0  0  0  0  0  0  0  0  0
   20.3302   -6.9743  -14.7024 C   0  0  0  0  0  0  0  0  0  0  0  0
   20.6337   -5.7416  -13.9385 C   0  0  0  0  0  0  0  0  0  0  0  0
   22.0622   -5.6431  -13.4747 C   0  0  0  0  0  0  0  0  0  0  0  0
   22.5434   -4.5726  -13.0737 O   0  0  0  0  0  0  0  0  0  0  0  0
   18.5704   -5.8720  -15.9614 C   0  0  0  0  0  0  0  0  0  0  0  0
   18.9782   -5.6191  -17.1523 O   0  0  0  0  0  0  0  0  0  0  0  0
   22.8903   -6.7582  -13.4837 O   0  0  0  0  0  0  0  0  0  0  0  0
   17.7385   -4.9061  -15.3328 N   0  0  0  0  0  0  0  0  0  0  0  0
   17.4144   -3.6630  -16.0249 C   0  0  1  0  0  0  0  0  0  0  0  0
   15.9047   -3.4620  -15.8936 C   0  0  0  0  0  0  0  0  0  0  0  0
   15.5746   -2.1620  -16.5462 C   0  0  0  0  0  0  0  0  0  0  0  0
   15.5407   -2.0998  -17.8167 O   0  0  0  0  0  0  0  0  0  0  0  0
   18.1776   -2.5712  -15.3836 C   0  0  0  0  0  0  0  0  0  0  0  0
   18.1964   -1.4302  -15.9081 O   0  0  0  0  0  0  0  0  0  0  0  0
   15.3138   -1.0518  -15.7447 O   0  0  0  0  0  0  0  0  0  0  0  0
   18.8664   -2.7930  -14.2189 O   0  0  0  0  0  0  0  0  0  0  0  0
  2  1  1  0
  3  2  2  0
  4  3  1  0
  5 11  1  0
  5  4  2  0
  6  5  1  0
  7  9  1  0
  7  6  1  0
  7  8  1  1
  9 10  2  0
 11 12  2  0
 12  2  1  0
 13 14  1  0
 13  9  1  0
 14 15  1  6
 15 16  1  0
 16 17  1  0
 17 21  1  0
 17 18  2  0
 19 14  1  0
 20 19  2  0
 22 19  1  0
 23 27  1  0
 23 22  1  0
 23 24  1  1
 25 24  1  0
 26 25  2  0
 27 30  1  0
 28 27  2  0
 29 25  1  0
M  END
$$$$
