YED.pdb
     RDKit          3D

 30 30  0  0  1  0  0  0  0  0999 V2000
   16.3939  -22.6135  -15.2888 O   0  0  0  0  0  0  0  0  0  0  0  0
   16.9348  -21.3428  -15.3874 C   0  0  0  0  0  0  0  0  0  0  0  0
   17.2526  -20.6311  -14.2478 C   0  0  0  0  0  0  0  0  0  0  0  0
   17.7895  -19.3684  -14.2990 C   0  0  0  0  0  0  0  0  0  0  0  0
   18.0199  -18.7915  -15.5291 C   0  0  0  0  0  0  0  0  0  0  0  0
   18.5978  -17.4339  -15.5799 C   0  0  0  0  0  0  0  0  0  0  0  0
   20.0162  -17.4177  -16.0534 C   0  0  2  0  0  0  0  0  0  0  0  0
   20.8280  -18.1745  -15.1226 N   0  0  0  0  0  0  0  0  0  0  0  0
   20.5418  -16.0336  -16.2245 C   0  0  0  0  0  0  0  0  0  0  0  0
   21.1095  -15.4619  -15.2593 O   0  0  0  0  0  0  0  0  0  0  0  0
   17.7171  -19.4684  -16.6941 C   0  0  0  0  0  0  0  0  0  0  0  0
   17.1812  -20.7286  -16.5952 C   0  0  0  0  0  0  0  0  0  0  0  0
   20.4000  -15.3789  -17.4555 N   0  0  0  0  0  0  0  0  0  0  0  0
   20.8498  -14.0771  -17.8266 C   0  0  1  0  0  0  0  0  0  0  0  0
   21.3886  -13.9502  -19.2289 C   0  0  0  0  0  0  0  0  0  0  0  0
   22.6528  -14.6632  -19.5267 C   0  0  0  0  0  0  0  0  0  0  0  0
   23.1461  -14.4750  -20.9362 C   0  0  0  0  0  0  0  0  0  0  0  0
   22.5141  -13.7984  -21.7615 O   0  0  0  0  0  0  0  0  0  0  0  0
   19.8851  -13.0100  -17.5698 C   0  0  0  0  0  0  0  0  0  0  0  0
   18.6193  -13.1978  -17.6741 O   0  0  0  0  0  0  0  0  0  0  0  0
   24.3334  -15.0601  -21.3572 O   0  0  0  0  0  0  0  0  0  0  0  0
   20.3280  -11.7139  -17.1901 N   0  0  0  0  0  0  0  0  0  0  0  0
   19.3545  -10.6574  -16.9346 C   0  0  1  0  0  0  0  0  0  0  0  0
   19.2096  -10.5442  -15.4171 C   0  0  0  0  0  0  0  0  0  0  0  0
   18.1609   -9.5177  -15.1496 C   0  0  0  0  0  0  0  0  0  0  0  0
   18.1176   -8.4749  -15.8775 O   0  0  0  0  0  0  0  0  0  0  0  0
   19.8671   -9.4088  -17.5379 C   0  0  0  0  0  0  0  0  0  0  0  0
   21.0937   -9.2896  -17.7800 O   0  0  0  0  0  0  0  0  0  0  0  0
   17.2587   -9.7302  -14.1085 O   0  0  0  0  0  0  0  0  0  0  0  0
   19.0142   -8.3775  -17.8364 O   0  0  0  0  0  0  0  0  0  0  0  0
  2  1  1  0
  3  2  2  0
  4  3  1  0
  5 11  1  0
  5  4  2  0
  6  5  1  0
  7  9  1  0
  7  6  1  0
  7  8  1  1
  9 10  2  0
 11 12  2  0
 12  2  1  0
 13 14  1  0
 13  9  1  0
 14 15  1  6
 15 16  1  0
 16 17  1  0
 17 21  1  0
 17 18  2  0
 19 14  1  0
 20 19  2  0
 22 19  1  0
 23 27  1  0
 23 22  1  0
 23 24  1  1
 25 24  1  0
 26 25  2  0
 27 30  1  0
 28 27  2  0
 29 25  1  0
M  END
$$$$
