YED.pdb
     RDKit          3D

 30 30  0  0  1  0  0  0  0  0999 V2000
   27.1413   -2.8518  -17.9704 O   0  0  0  0  0  0  0  0  0  0  0  0
   25.9108   -3.1713  -17.4221 C   0  0  0  0  0  0  0  0  0  0  0  0
   25.7821   -4.2664  -16.5911 C   0  0  0  0  0  0  0  0  0  0  0  0
   24.5814   -4.6203  -16.0267 C   0  0  0  0  0  0  0  0  0  0  0  0
   23.4668   -3.8567  -16.2978 C   0  0  0  0  0  0  0  0  0  0  0  0
   22.1778   -4.2401  -15.6886 C   0  0  0  0  0  0  0  0  0  0  0  0
   21.5755   -5.4598  -16.3097 C   0  0  2  0  0  0  0  0  0  0  0  0
   21.4013   -5.2241  -17.7282 N   0  0  0  0  0  0  0  0  0  0  0  0
   20.2883   -5.8478  -15.6663 C   0  0  0  0  0  0  0  0  0  0  0  0
   19.2323   -5.2393  -15.9750 O   0  0  0  0  0  0  0  0  0  0  0  0
   23.5510   -2.7527  -17.1232 C   0  0  0  0  0  0  0  0  0  0  0  0
   24.7719   -2.4365  -17.6661 C   0  0  0  0  0  0  0  0  0  0  0  0
   20.2622   -6.8843  -14.7234 N   0  0  0  0  0  0  0  0  0  0  0  0
   19.1468   -7.3966  -13.9965 C   0  0  1  0  0  0  0  0  0  0  0  0
   19.0366   -8.8994  -13.9482 C   0  0  0  0  0  0  0  0  0  0  0  0
   17.8067   -9.4607  -13.3423 C   0  0  0  0  0  0  0  0  0  0  0  0
   17.7560  -10.9650  -13.3381 C   0  0  0  0  0  0  0  0  0  0  0  0
   16.8418  -11.5834  -12.7723 O   0  0  0  0  0  0  0  0  0  0  0  0
   19.0007   -6.8472  -12.6505 C   0  0  0  0  0  0  0  0  0  0  0  0
   19.9769   -6.8205  -11.8169 O   0  0  0  0  0  0  0  0  0  0  0  0
   18.7413  -11.7106  -13.9726 O   0  0  0  0  0  0  0  0  0  0  0  0
   17.7542   -6.3172  -12.2196 N   0  0  0  0  0  0  0  0  0  0  0  0
   17.6221   -5.7683  -10.8741 C   0  0  1  0  0  0  0  0  0  0  0  0
   17.1063   -4.3374  -11.0266 C   0  0  0  0  0  0  0  0  0  0  0  0
   15.6987   -4.4256  -11.5122 C   0  0  0  0  0  0  0  0  0  0  0  0
   15.4477   -5.1045  -12.5587 O   0  0  0  0  0  0  0  0  0  0  0  0
   16.6767   -6.6221  -10.1236 C   0  0  0  0  0  0  0  0  0  0  0  0
   16.0139   -7.5012  -10.7279 O   0  0  0  0  0  0  0  0  0  0  0  0
   14.6982   -3.7602  -10.8054 O   0  0  0  0  0  0  0  0  0  0  0  0
   16.5166   -6.4629   -8.7712 O   0  0  0  0  0  0  0  0  0  0  0  0
  2  1  1  0
  3  2  2  0
  4  3  1  0
  5 11  1  0
  5  4  2  0
  6  5  1  0
  7  9  1  0
  7  6  1  0
  7  8  1  6
  9 10  2  0
 11 12  2  0
 12  2  1  0
 13 14  1  0
 13  9  1  0
 14 15  1  1
 15 16  1  0
 16 17  1  0
 17 21  1  0
 17 18  2  0
 19 14  1  0
 20 19  2  0
 22 19  1  0
 23 27  1  0
 23 22  1  0
 23 24  1  6
 25 24  1  0
 26 25  2  0
 27 30  1  0
 28 27  2  0
 29 25  1  0
M  END
$$$$
