YED.pdb
     RDKit          3D

 30 30  0  0  1  0  0  0  0  0999 V2000
   10.7168  -13.3949   -9.0102 O   0  0  0  0  0  0  0  0  0  0  0  0
   11.7276  -12.4884   -9.2812 C   0  0  0  0  0  0  0  0  0  0  0  0
   12.6813  -12.7745  -10.2378 C   0  0  0  0  0  0  0  0  0  0  0  0
   13.7011  -11.9056  -10.5379 C   0  0  0  0  0  0  0  0  0  0  0  0
   13.7758  -10.7068   -9.8622 C   0  0  0  0  0  0  0  0  0  0  0  0
   14.8736   -9.7750  -10.1881 C   0  0  0  0  0  0  0  0  0  0  0  0
   14.4520   -8.6688  -11.1018 C   0  0  2  0  0  0  0  0  0  0  0  0
   14.1442   -9.2284  -12.4019 N   0  0  0  0  0  0  0  0  0  0  0  0
   15.4813   -7.5961  -11.2072 C   0  0  0  0  0  0  0  0  0  0  0  0
   16.2374   -7.5584  -12.2111 O   0  0  0  0  0  0  0  0  0  0  0  0
   12.8424  -10.3805   -8.8982 C   0  0  0  0  0  0  0  0  0  0  0  0
   11.8401  -11.2799   -8.6305 C   0  0  0  0  0  0  0  0  0  0  0  0
   15.6012   -6.6394  -10.1901 N   0  0  0  0  0  0  0  0  0  0  0  0
   16.3409   -5.4198  -10.2001 C   0  0  1  0  0  0  0  0  0  0  0  0
   15.9798   -4.4312   -9.1206 C   0  0  0  0  0  0  0  0  0  0  0  0
   16.7081   -3.1410   -9.1244 C   0  0  0  0  0  0  0  0  0  0  0  0
   16.2490   -2.1740   -8.0663 C   0  0  0  0  0  0  0  0  0  0  0  0
   16.8074   -1.0791   -7.8995 O   0  0  0  0  0  0  0  0  0  0  0  0
   17.7909   -5.5945  -10.2448 C   0  0  0  0  0  0  0  0  0  0  0  0
   18.4390   -6.1505   -9.2860 O   0  0  0  0  0  0  0  0  0  0  0  0
   15.1778   -2.4834   -7.2380 O   0  0  0  0  0  0  0  0  0  0  0  0
   18.5364   -5.1477  -11.3695 N   0  0  0  0  0  0  0  0  0  0  0  0
   19.9354   -5.5355  -11.5167 C   0  0  1  0  0  0  0  0  0  0  0  0
   19.9516   -7.0337  -11.8196 C   0  0  0  0  0  0  0  0  0  0  0  0
   21.3762   -7.4275  -12.0205 C   0  0  0  0  0  0  0  0  0  0  0  0
   21.6365   -8.5448  -12.5710 O   0  0  0  0  0  0  0  0  0  0  0  0
   20.5159   -4.7400  -12.6194 C   0  0  0  0  0  0  0  0  0  0  0  0
   21.7577   -4.7454  -12.8074 O   0  0  0  0  0  0  0  0  0  0  0  0
   22.3821   -6.5599  -11.5979 O   0  0  0  0  0  0  0  0  0  0  0  0
   19.7095   -3.9946  -13.4407 O   0  0  0  0  0  0  0  0  0  0  0  0
  2  1  1  0
  3  2  2  0
  4  3  1  0
  5 11  1  0
  5  4  2  0
  6  5  1  0
  7  9  1  0
  7  6  1  0
  7  8  1  6
  9 10  2  0
 11 12  2  0
 12  2  1  0
 13 14  1  0
 13  9  1  0
 14 15  1  1
 15 16  1  0
 16 17  1  0
 17 21  1  0
 17 18  2  0
 19 14  1  0
 20 19  2  0
 22 19  1  0
 23 27  1  0
 23 22  1  0
 23 24  1  6
 25 24  1  0
 26 25  2  0
 27 30  1  0
 28 27  2  0
 29 25  1  0
M  END
$$$$
