EYM.pdb
     RDKit          3D

 30 30  0  0  1  0  0  0  0  0999 V2000
   10.9380  -16.5273   18.7812 N   0  0  0  0  0  0  0  0  0  0  0  0
   10.8697  -17.4873   19.9003 C   0  0  1  0  0  0  0  0  0  0  0  0
   12.1685  -18.2123   20.0344 C   0  0  0  0  0  0  0  0  0  0  0  0
   12.1750  -19.1981   21.1624 C   0  0  0  0  0  0  0  0  0  0  0  0
   13.3396  -20.1376   20.9798 C   0  0  0  0  0  0  0  0  0  0  0  0
   13.2613  -21.3445   21.3245 O   0  0  0  0  0  0  0  0  0  0  0  0
   10.5912  -16.7061   21.1130 C   0  0  0  0  0  0  0  0  0  0  0  0
   11.3713  -15.7957   21.4601 O   0  0  0  0  0  0  0  0  0  0  0  0
   14.5214  -19.6848   20.4264 O   0  0  0  0  0  0  0  0  0  0  0  0
    5.7433  -12.6955   27.2605 O   0  0  0  0  0  0  0  0  0  0  0  0
    6.2395  -13.4269   26.1698 C   0  0  0  0  0  0  0  0  0  0  0  0
    5.9575  -14.7668   26.1072 C   0  0  0  0  0  0  0  0  0  0  0  0
    6.4266  -15.5270   25.0494 C   0  0  0  0  0  0  0  0  0  0  0  0
    7.1885  -14.9059   24.0525 C   0  0  0  0  0  0  0  0  0  0  0  0
    7.7009  -15.7494   22.9619 C   0  0  0  0  0  0  0  0  0  0  0  0
    9.1205  -16.1294   23.0839 C   0  0  2  0  0  0  0  0  0  0  0  0
    9.4581  -16.9568   21.9043 N   0  0  0  0  0  0  0  0  0  0  0  0
    9.5744  -16.8440   24.2630 C   0  0  0  0  0  0  0  0  0  0  0  0
    9.9052  -18.0791   24.0880 O   0  0  0  0  0  0  0  0  0  0  0  0
    7.4465  -13.5542   24.1585 C   0  0  0  0  0  0  0  0  0  0  0  0
    6.9842  -12.8009   25.2027 C   0  0  0  0  0  0  0  0  0  0  0  0
   11.2706  -12.2842   28.0183 C   0  0  0  0  0  0  0  0  0  0  0  0
   10.3218  -13.7987   28.3288 S   0  0  0  0  0  0  0  0  0  0  0  0
   11.2296  -15.1779   27.5787 C   0  0  0  0  0  0  0  0  0  0  0  0
   10.4877  -16.4348   27.8791 C   0  0  0  0  0  0  0  0  0  0  0  0
   10.2250  -17.2004   26.6171 C   0  0  2  0  0  0  0  0  0  0  0  0
    9.6980  -16.3293   25.5813 N   0  0  0  0  0  0  0  0  0  0  0  0
    9.2955  -18.3104   26.8756 C   0  0  0  0  0  0  0  0  0  0  0  0
    8.1547  -18.3959   26.3520 O   0  0  0  0  0  0  0  0  0  0  0  0
    9.7172  -19.3228   27.7550 O   0  0  0  0  0  0  0  0  0  0  0  0
  2  7  1  0
  2  3  1  0
  2  1  1  6
  3  4  1  0
  4  5  1  0
  5  6  2  0
  7  8  2  0
  9  5  1  0
 10 11  1  0
 11 21  2  0
 12 13  2  0
 12 11  1  0
 13 14  1  0
 14 15  1  0
 14 20  2  0
 16 15  1  1
 16 18  1  0
 17 16  1  0
 17  7  1  0
 18 19  2  0
 18 27  1  0
 21 20  1  0
 22 23  1  0
 23 24  1  0
 24 25  1  0
 26 25  1  1
 26 28  1  0
 27 26  1  0
 28 29  2  0
 28 30  1  0
M  END
$$$$
