EYM.pdb
     RDKit          3D

 30 30  0  0  1  0  0  0  0  0999 V2000
   10.3881  -17.3253   18.5238 N   0  0  0  0  0  0  0  0  0  0  0  0
   10.5930  -17.9668   19.8373 C   0  0  1  0  0  0  0  0  0  0  0  0
   11.9508  -18.5855   19.8998 C   0  0  0  0  0  0  0  0  0  0  0  0
   12.2636  -19.4330   18.7047 C   0  0  0  0  0  0  0  0  0  0  0  0
   13.6517  -19.9998   18.8609 C   0  0  0  0  0  0  0  0  0  0  0  0
   14.6634  -19.3544   18.4847 O   0  0  0  0  0  0  0  0  0  0  0  0
   10.4642  -16.9102   20.8501 C   0  0  0  0  0  0  0  0  0  0  0  0
   11.3249  -16.0093   20.9230 O   0  0  0  0  0  0  0  0  0  0  0  0
   13.8368  -21.2472   19.4243 O   0  0  0  0  0  0  0  0  0  0  0  0
    6.1625  -11.5794   26.4759 O   0  0  0  0  0  0  0  0  0  0  0  0
    6.5495  -12.5814   25.5720 C   0  0  0  0  0  0  0  0  0  0  0  0
    7.2169  -12.2049   24.4355 C   0  0  0  0  0  0  0  0  0  0  0  0
    7.6173  -13.1597   23.5164 C   0  0  0  0  0  0  0  0  0  0  0  0
    7.3300  -14.5067   23.7679 C   0  0  0  0  0  0  0  0  0  0  0  0
    7.7380  -15.4910   22.7541 C   0  0  0  0  0  0  0  0  0  0  0  0
    9.1848  -15.7723   22.7071 C   0  0  2  0  0  0  0  0  0  0  0  0
    9.3868  -16.8836   21.7510 N   0  0  0  0  0  0  0  0  0  0  0  0
    9.8906  -16.1136   23.9288 C   0  0  0  0  0  0  0  0  0  0  0  0
    9.6484  -17.2826   24.4187 O   0  0  0  0  0  0  0  0  0  0  0  0
    6.6558  -14.8374   24.9259 C   0  0  0  0  0  0  0  0  0  0  0  0
    6.2589  -13.8958   25.8356 C   0  0  0  0  0  0  0  0  0  0  0  0
    9.4684  -14.3530   30.6847 C   0  0  0  0  0  0  0  0  0  0  0  0
   10.6140  -13.6533   29.4647 S   0  0  0  0  0  0  0  0  0  0  0  0
   11.1202  -14.9954   28.3550 C   0  0  0  0  0  0  0  0  0  0  0  0
   10.7446  -14.6100   26.9654 C   0  0  0  0  0  0  0  0  0  0  0  0
   11.1645  -15.6746   25.9968 C   0  0  2  0  0  0  0  0  0  0  0  0
   10.8193  -15.3035   24.6356 N   0  0  0  0  0  0  0  0  0  0  0  0
   10.5461  -16.9612   26.3501 C   0  0  0  0  0  0  0  0  0  0  0  0
   11.2011  -17.9600   26.7458 O   0  0  0  0  0  0  0  0  0  0  0  0
    9.1490  -17.0665   26.2362 O   0  0  0  0  0  0  0  0  0  0  0  0
  2  7  1  0
  2  3  1  0
  2  1  1  6
  3  4  1  0
  4  5  1  0
  5  6  2  0
  7  8  2  0
  9  5  1  0
 10 11  1  0
 11 21  2  0
 12 13  2  0
 12 11  1  0
 13 14  1  0
 14 15  1  0
 14 20  2  0
 16 15  1  1
 16 18  1  0
 17 16  1  0
 17  7  1  0
 18 19  2  0
 18 27  1  0
 21 20  1  0
 22 23  1  0
 23 24  1  0
 24 25  1  0
 26 25  1  1
 26 28  1  0
 27 26  1  0
 28 29  2  0
 28 30  1  0
M  END
$$$$
