EYM.pdb
     RDKit          3D

 30 30  0  0  1  0  0  0  0  0999 V2000
   11.2808  -17.1801   18.9250 N   0  0  0  0  0  0  0  0  0  0  0  0
   10.0431  -17.5467   19.6408 C   0  0  1  0  0  0  0  0  0  0  0  0
   10.0447  -19.0070   19.9536 C   0  0  0  0  0  0  0  0  0  0  0  0
   11.4045  -19.5294   20.3031 C   0  0  0  0  0  0  0  0  0  0  0  0
   11.3029  -21.0100   20.5678 C   0  0  0  0  0  0  0  0  0  0  0  0
   12.3025  -21.6727   20.9461 O   0  0  0  0  0  0  0  0  0  0  0  0
   10.0199  -16.7572   20.8797 C   0  0  0  0  0  0  0  0  0  0  0  0
   11.0808  -16.2851   21.3372 O   0  0  0  0  0  0  0  0  0  0  0  0
   10.1005  -21.6683   20.3979 O   0  0  0  0  0  0  0  0  0  0  0  0
    6.4653  -12.2536   27.6541 O   0  0  0  0  0  0  0  0  0  0  0  0
    6.7173  -12.9467   26.4596 C   0  0  0  0  0  0  0  0  0  0  0  0
    6.1212  -14.1682   26.2823 C   0  0  0  0  0  0  0  0  0  0  0  0
    6.3418  -14.8868   25.1196 C   0  0  0  0  0  0  0  0  0  0  0  0
    7.1787  -14.3463   24.1360 C   0  0  0  0  0  0  0  0  0  0  0  0
    7.4197  -15.1516   22.9290 C   0  0  0  0  0  0  0  0  0  0  0  0
    8.7799  -15.7096   22.8150 C   0  0  2  0  0  0  0  0  0  0  0  0
    8.8232  -16.5149   21.5741 N   0  0  0  0  0  0  0  0  0  0  0  0
    9.3121  -16.5307   23.8872 C   0  0  0  0  0  0  0  0  0  0  0  0
    8.4674  -17.2981   24.4897 O   0  0  0  0  0  0  0  0  0  0  0  0
    7.7566  -13.1130   24.3595 C   0  0  0  0  0  0  0  0  0  0  0  0
    7.5403  -12.4011   25.5075 C   0  0  0  0  0  0  0  0  0  0  0  0
   11.0182  -12.3718   28.8825 C   0  0  0  0  0  0  0  0  0  0  0  0
   10.6077  -14.1048   28.5384 S   0  0  0  0  0  0  0  0  0  0  0  0
   10.5162  -14.2995   26.7377 C   0  0  0  0  0  0  0  0  0  0  0  0
    9.9145  -15.6317   26.4487 C   0  0  0  0  0  0  0  0  0  0  0  0
   10.9124  -16.5185   25.7663 C   0  0  2  0  0  0  0  0  0  0  0  0
   10.6584  -16.5830   24.3377 N   0  0  0  0  0  0  0  0  0  0  0  0
   10.8853  -17.8666   26.3534 C   0  0  0  0  0  0  0  0  0  0  0  0
   10.2134  -18.8174   25.8765 O   0  0  0  0  0  0  0  0  0  0  0  0
   11.6561  -18.0910   27.5073 O   0  0  0  0  0  0  0  0  0  0  0  0
  2  7  1  0
  2  3  1  0
  2  1  1  1
  3  4  1  0
  4  5  1  0
  5  6  2  0
  7  8  2  0
  9  5  1  0
 10 11  1  0
 11 21  2  0
 12 13  2  0
 12 11  1  0
 13 14  1  0
 14 15  1  0
 14 20  2  0
 16 15  1  1
 16 18  1  0
 17 16  1  0
 17  7  1  0
 18 19  2  0
 18 27  1  0
 21 20  1  0
 22 23  1  0
 23 24  1  0
 24 25  1  0
 26 25  1  1
 26 28  1  0
 27 26  1  0
 28 29  2  0
 28 30  1  0
M  END
$$$$
