EYM.pdb
     RDKit          3D

 30 30  0  0  1  0  0  0  0  0999 V2000
   11.6579  -16.5846   18.9213 N   0  0  0  0  0  0  0  0  0  0  0  0
   10.4561  -17.1556   19.5602 C   0  0  1  0  0  0  0  0  0  0  0  0
   10.6170  -18.6307   19.7298 C   0  0  0  0  0  0  0  0  0  0  0  0
   11.8790  -19.0035   20.4459 C   0  0  0  0  0  0  0  0  0  0  0  0
   11.9420  -20.5045   20.5697 C   0  0  0  0  0  0  0  0  0  0  0  0
   12.0266  -21.0610   21.6944 O   0  0  0  0  0  0  0  0  0  0  0  0
   10.3198  -16.5012   20.8686 C   0  0  0  0  0  0  0  0  0  0  0  0
   11.2946  -15.9059   21.3717 O   0  0  0  0  0  0  0  0  0  0  0  0
   11.9074  -21.2999   19.4410 O   0  0  0  0  0  0  0  0  0  0  0  0
    6.0453  -12.2301   27.3088 O   0  0  0  0  0  0  0  0  0  0  0  0
    6.4104  -12.9747   26.1761 C   0  0  0  0  0  0  0  0  0  0  0  0
    6.0865  -14.3062   26.1451 C   0  0  0  0  0  0  0  0  0  0  0  0
    6.4273  -15.0789   25.0480 C   0  0  0  0  0  0  0  0  0  0  0  0
    7.1036  -14.4790   23.9789 C   0  0  0  0  0  0  0  0  0  0  0  0
    7.4818  -15.3361   22.8451 C   0  0  0  0  0  0  0  0  0  0  0  0
    8.9012  -15.7345   22.8129 C   0  0  2  0  0  0  0  0  0  0  0  0
    9.1088  -16.5262   21.5799 N   0  0  0  0  0  0  0  0  0  0  0  0
    9.4603  -16.4922   23.9176 C   0  0  0  0  0  0  0  0  0  0  0  0
    9.7927  -17.7124   23.6606 O   0  0  0  0  0  0  0  0  0  0  0  0
    7.4083  -13.1350   24.0556 C   0  0  0  0  0  0  0  0  0  0  0  0
    7.0728  -12.3695   25.1386 C   0  0  0  0  0  0  0  0  0  0  0  0
   11.1737  -12.3566   28.8310 C   0  0  0  0  0  0  0  0  0  0  0  0
   10.8112  -14.1213   29.0433 S   0  0  0  0  0  0  0  0  0  0  0  0
   10.8050  -14.8816   27.3969 C   0  0  0  0  0  0  0  0  0  0  0  0
   10.4036  -16.3084   27.5503 C   0  0  0  0  0  0  0  0  0  0  0  0
   10.2578  -16.9573   26.2066 C   0  0  2  0  0  0  0  0  0  0  0  0
    9.6845  -16.0337   25.2433 N   0  0  0  0  0  0  0  0  0  0  0  0
    9.4311  -18.1691   26.3101 C   0  0  0  0  0  0  0  0  0  0  0  0
    8.2350  -18.2277   25.9242 O   0  0  0  0  0  0  0  0  0  0  0  0
   10.0211  -19.3153   26.8705 O   0  0  0  0  0  0  0  0  0  0  0  0
  2  7  1  0
  2  3  1  0
  2  1  1  1
  3  4  1  0
  4  5  1  0
  5  6  2  0
  7  8  2  0
  9  5  1  0
 10 11  1  0
 11 21  2  0
 12 13  2  0
 12 11  1  0
 13 14  1  0
 14 15  1  0
 14 20  2  0
 16 15  1  1
 16 18  1  0
 17 16  1  0
 17  7  1  0
 18 19  2  0
 18 27  1  0
 21 20  1  0
 22 23  1  0
 23 24  1  0
 24 25  1  0
 26 25  1  1
 26 28  1  0
 27 26  1  0
 28 29  2  0
 28 30  1  0
M  END
$$$$
