EYM.pdb
     RDKit          3D

 30 30  0  0  1  0  0  0  0  0999 V2000
   10.8337  -17.6211   18.8849 N   0  0  0  0  0  0  0  0  0  0  0  0
    9.8906  -18.0712   19.9273 C   0  0  1  0  0  0  0  0  0  0  0  0
   10.3295  -19.3860   20.4832 C   0  0  0  0  0  0  0  0  0  0  0  0
   11.7296  -19.7487   20.0927 C   0  0  0  0  0  0  0  0  0  0  0  0
   12.0530  -21.1103   20.6530 C   0  0  0  0  0  0  0  0  0  0  0  0
   12.5917  -21.2371   21.7823 O   0  0  0  0  0  0  0  0  0  0  0  0
    9.8964  -17.0432   20.9770 C   0  0  0  0  0  0  0  0  0  0  0  0
   10.9622  -16.4691   21.2804 O   0  0  0  0  0  0  0  0  0  0  0  0
   11.7606  -22.2501   19.9297 O   0  0  0  0  0  0  0  0  0  0  0  0
    6.5143  -11.4615   27.0123 O   0  0  0  0  0  0  0  0  0  0  0  0
    6.7046  -12.4709   26.0553 C   0  0  0  0  0  0  0  0  0  0  0  0
    7.3054  -12.1340   24.8703 C   0  0  0  0  0  0  0  0  0  0  0  0
    7.5129  -13.0974   23.8979 C   0  0  0  0  0  0  0  0  0  0  0  0
    7.1008  -14.4122   24.1461 C   0  0  0  0  0  0  0  0  0  0  0  0
    7.3041  -15.4029   23.0781 C   0  0  0  0  0  0  0  0  0  0  0  0
    8.7134  -15.6613   22.7295 C   0  0  2  0  0  0  0  0  0  0  0  0
    8.7223  -16.6827   21.6587 N   0  0  0  0  0  0  0  0  0  0  0  0
    9.6397  -16.0987   23.7579 C   0  0  0  0  0  0  0  0  0  0  0  0
   10.6672  -15.3438   23.9573 O   0  0  0  0  0  0  0  0  0  0  0  0
    6.5003  -14.7036   25.3542 C   0  0  0  0  0  0  0  0  0  0  0  0
    6.2941  -13.7534   26.3165 C   0  0  0  0  0  0  0  0  0  0  0  0
   10.7036  -12.5604   28.0970 C   0  0  0  0  0  0  0  0  0  0  0  0
   10.1810  -14.2699   28.4052 S   0  0  0  0  0  0  0  0  0  0  0  0
   10.7942  -15.2862   27.0341 C   0  0  0  0  0  0  0  0  0  0  0  0
    9.8328  -16.4054   26.8249 C   0  0  0  0  0  0  0  0  0  0  0  0
   10.3428  -17.3418   25.7710 C   0  0  2  0  0  0  0  0  0  0  0  0
    9.5327  -17.2607   24.5681 N   0  0  0  0  0  0  0  0  0  0  0  0
   10.3680  -18.7212   26.2803 C   0  0  0  0  0  0  0  0  0  0  0  0
    9.5446  -19.6053   25.9291 O   0  0  0  0  0  0  0  0  0  0  0  0
   11.3707  -19.0561   27.2068 O   0  0  0  0  0  0  0  0  0  0  0  0
  2  7  1  0
  2  3  1  0
  2  1  1  6
  3  4  1  0
  4  5  1  0
  5  6  2  0
  7  8  2  0
  9  5  1  0
 10 11  1  0
 11 21  2  0
 12 13  2  0
 12 11  1  0
 13 14  1  0
 14 15  1  0
 14 20  2  0
 16 15  1  1
 16 18  1  0
 17 16  1  0
 17  7  1  0
 18 19  2  0
 18 27  1  0
 21 20  1  0
 22 23  1  0
 23 24  1  0
 24 25  1  0
 26 25  1  1
 26 28  1  0
 27 26  1  0
 28 29  2  0
 28 30  1  0
M  END
$$$$
