EYM.pdb
     RDKit          3D

 30 30  0  0  1  0  0  0  0  0999 V2000
   13.8460  -19.8071   22.4121 N   0  0  0  0  0  0  0  0  0  0  0  0
   13.1053  -18.5344   22.3104 C   0  0  1  0  0  0  0  0  0  0  0  0
   12.4874  -18.4072   20.9568 C   0  0  0  0  0  0  0  0  0  0  0  0
   11.7247  -17.1301   20.7790 C   0  0  0  0  0  0  0  0  0  0  0  0
   11.0591  -17.1459   19.4265 C   0  0  0  0  0  0  0  0  0  0  0  0
   11.2351  -18.1003   18.6267 O   0  0  0  0  0  0  0  0  0  0  0  0
   12.0652  -18.5650   23.3477 C   0  0  0  0  0  0  0  0  0  0  0  0
   11.2449  -19.5051   23.3795 O   0  0  0  0  0  0  0  0  0  0  0  0
   10.2384  -16.1042   19.0404 O   0  0  0  0  0  0  0  0  0  0  0  0
    9.1062  -12.8114   29.2784 O   0  0  0  0  0  0  0  0  0  0  0  0
    9.7218  -13.8659   28.5857 C   0  0  0  0  0  0  0  0  0  0  0  0
    9.6451  -15.1247   29.1225 C   0  0  0  0  0  0  0  0  0  0  0  0
   10.2378  -16.1943   28.4733 C   0  0  0  0  0  0  0  0  0  0  0  0
   10.9118  -15.9675   27.2673 C   0  0  0  0  0  0  0  0  0  0  0  0
   11.5603  -17.1193   26.6223 C   0  0  0  0  0  0  0  0  0  0  0  0
   10.9250  -17.5702   25.3702 C   0  0  2  0  0  0  0  0  0  0  0  0
   11.9651  -17.5539   24.3176 N   0  0  0  0  0  0  0  0  0  0  0  0
    9.7698  -16.8588   24.8538 C   0  0  0  0  0  0  0  0  0  0  0  0
   10.0108  -15.9390   23.9812 O   0  0  0  0  0  0  0  0  0  0  0  0
   10.9624  -14.6826   26.7658 C   0  0  0  0  0  0  0  0  0  0  0  0
   10.3777  -13.6241   27.4054 C   0  0  0  0  0  0  0  0  0  0  0  0
    6.4612  -12.4753   20.8587 C   0  0  0  0  0  0  0  0  0  0  0  0
    7.7607  -13.4812   21.6266 S   0  0  0  0  0  0  0  0  0  0  0  0
    6.9503  -14.6953   22.7028 C   0  0  0  0  0  0  0  0  0  0  0  0
    8.0002  -15.3420   23.5394 C   0  0  0  0  0  0  0  0  0  0  0  0
    7.3861  -16.3587   24.4543 C   0  0  2  0  0  0  0  0  0  0  0  0
    8.4086  -17.0705   25.2009 N   0  0  0  0  0  0  0  0  0  0  0  0
    6.5591  -17.3034   23.6886 C   0  0  0  0  0  0  0  0  0  0  0  0
    6.9606  -18.4384   23.3232 O   0  0  0  0  0  0  0  0  0  0  0  0
    5.2529  -16.9049   23.3551 O   0  0  0  0  0  0  0  0  0  0  0  0
  2  7  1  0
  2  3  1  0
  2  1  1  6
  3  4  1  0
  4  5  1  0
  5  6  2  0
  7  8  2  0
  9  5  1  0
 10 11  1  0
 11 21  2  0
 12 13  2  0
 12 11  1  0
 13 14  1  0
 14 15  1  0
 14 20  2  0
 16 15  1  1
 16 18  1  0
 17 16  1  0
 17  7  1  0
 18 19  2  0
 18 27  1  0
 21 20  1  0
 22 23  1  0
 23 24  1  0
 24 25  1  0
 26 25  1  6
 26 28  1  0
 27 26  1  0
 28 29  2  0
 28 30  1  0
M  END
$$$$
