EYM.pdb
     RDKit          3D

 30 30  0  0  1  0  0  0  0  0999 V2000
    3.4532  -19.5327   21.6547 N   0  0  0  0  0  0  0  0  0  0  0  0
    4.8538  -19.6602   22.1028 C   0  0  1  0  0  0  0  0  0  0  0  0
    5.7136  -20.1248   20.9735 C   0  0  0  0  0  0  0  0  0  0  0  0
    5.2334  -21.4045   20.3602 C   0  0  0  0  0  0  0  0  0  0  0  0
    6.2224  -21.8409   19.3097 C   0  0  0  0  0  0  0  0  0  0  0  0
    7.3891  -22.1921   19.6213 O   0  0  0  0  0  0  0  0  0  0  0  0
    5.2774  -18.3279   22.5549 C   0  0  0  0  0  0  0  0  0  0  0  0
    4.9038  -17.3117   21.9341 O   0  0  0  0  0  0  0  0  0  0  0  0
    5.8607  -21.8626   17.9768 O   0  0  0  0  0  0  0  0  0  0  0  0
    8.7051  -12.1300   27.8570 O   0  0  0  0  0  0  0  0  0  0  0  0
    8.1347  -13.2803   27.2894 C   0  0  0  0  0  0  0  0  0  0  0  0
    8.8811  -14.4297   27.2685 C   0  0  0  0  0  0  0  0  0  0  0  0
    8.3584  -15.5878   26.7184 C   0  0  0  0  0  0  0  0  0  0  0  0
    7.0629  -15.5627   26.1881 C   0  0  0  0  0  0  0  0  0  0  0  0
    6.5519  -16.8004   25.5796 C   0  0  0  0  0  0  0  0  0  0  0  0
    6.5973  -16.8339   24.1061 C   0  0  2  0  0  0  0  0  0  0  0  0
    6.1017  -18.1617   23.6801 N   0  0  0  0  0  0  0  0  0  0  0  0
    7.8543  -16.5962   23.4202 C   0  0  0  0  0  0  0  0  0  0  0  0
    8.6698  -17.5948   23.3636 O   0  0  0  0  0  0  0  0  0  0  0  0
    6.3497  -14.3819   26.2318 C   0  0  0  0  0  0  0  0  0  0  0  0
    6.8640  -13.2363   26.7747 C   0  0  0  0  0  0  0  0  0  0  0  0
    7.0456  -11.8385   18.8793 C   0  0  0  0  0  0  0  0  0  0  0  0
    8.6288  -12.2611   19.6575 S   0  0  0  0  0  0  0  0  0  0  0  0
    8.3901  -13.8013   20.5846 C   0  0  0  0  0  0  0  0  0  0  0  0
    9.6770  -14.1385   21.2558 C   0  0  0  0  0  0  0  0  0  0  0  0
    9.5302  -15.3905   22.0676 C   0  0  2  0  0  0  0  0  0  0  0  0
    8.2775  -15.3888   22.8027 N   0  0  0  0  0  0  0  0  0  0  0  0
   10.6660  -15.5390   22.9899 C   0  0  0  0  0  0  0  0  0  0  0  0
   10.5495  -15.5179   24.2425 O   0  0  0  0  0  0  0  0  0  0  0  0
   11.9430  -15.7140   22.4291 O   0  0  0  0  0  0  0  0  0  0  0  0
  2  7  1  0
  2  3  1  0
  2  1  1  6
  3  4  1  0
  4  5  1  0
  5  6  2  0
  7  8  2  0
  9  5  1  0
 10 11  1  0
 11 21  2  0
 12 13  2  0
 12 11  1  0
 13 14  1  0
 14 15  1  0
 14 20  2  0
 16 15  1  1
 16 18  1  0
 17 16  1  0
 17  7  1  0
 18 19  2  0
 18 27  1  0
 21 20  1  0
 22 23  1  0
 23 24  1  0
 24 25  1  0
 26 25  1  1
 26 28  1  0
 27 26  1  0
 28 29  2  0
 28 30  1  0
M  END
$$$$
