EYM.pdb
     RDKit          3D

 30 30  0  0  1  0  0  0  0  0999 V2000
    6.4265  -19.0303   19.5148 N   0  0  0  0  0  0  0  0  0  0  0  0
    7.6641  -18.4884   20.1095 C   0  0  1  0  0  0  0  0  0  0  0  0
    8.0591  -17.2281   19.4125 C   0  0  0  0  0  0  0  0  0  0  0  0
    8.4914  -17.4532   17.9959 C   0  0  0  0  0  0  0  0  0  0  0  0
    8.7814  -16.1183   17.3585 C   0  0  0  0  0  0  0  0  0  0  0  0
    9.5510  -15.2891   17.9079 O   0  0  0  0  0  0  0  0  0  0  0  0
    7.3732  -18.2219   21.5248 C   0  0  0  0  0  0  0  0  0  0  0  0
    6.2093  -17.9443   21.8797 O   0  0  0  0  0  0  0  0  0  0  0  0
    8.2020  -15.7810   16.1508 O   0  0  0  0  0  0  0  0  0  0  0  0
    8.0523  -19.6622   30.1510 O   0  0  0  0  0  0  0  0  0  0  0  0
    8.0819  -19.6314   28.7478 C   0  0  0  0  0  0  0  0  0  0  0  0
    9.3024  -19.6731   28.1253 C   0  0  0  0  0  0  0  0  0  0  0  0
    9.3788  -19.6448   26.7432 C   0  0  0  0  0  0  0  0  0  0  0  0
    8.1949  -19.5734   25.9992 C   0  0  0  0  0  0  0  0  0  0  0  0
    8.3137  -19.5092   24.5346 C   0  0  0  0  0  0  0  0  0  0  0  0
    8.0796  -18.1760   23.9495 C   0  0  2  0  0  0  0  0  0  0  0  0
    8.3797  -18.2706   22.5034 N   0  0  0  0  0  0  0  0  0  0  0  0
    8.7973  -17.0266   24.4700 C   0  0  0  0  0  0  0  0  0  0  0  0
    9.9950  -16.8525   24.0222 O   0  0  0  0  0  0  0  0  0  0  0  0
    6.9896  -19.5335   26.6704 C   0  0  0  0  0  0  0  0  0  0  0  0
    6.9114  -19.5613   28.0359 C   0  0  0  0  0  0  0  0  0  0  0  0
    5.2181  -13.1133   27.4263 C   0  0  0  0  0  0  0  0  0  0  0  0
    6.3565  -12.1514   26.3923 S   0  0  0  0  0  0  0  0  0  0  0  0
    7.3969  -13.3261   25.4832 C   0  0  0  0  0  0  0  0  0  0  0  0
    8.4137  -13.8676   26.4285 C   0  0  0  0  0  0  0  0  0  0  0  0
    9.1926  -14.9729   25.7807 C   0  0  2  0  0  0  0  0  0  0  0  0
    8.3214  -16.0747   25.4111 N   0  0  0  0  0  0  0  0  0  0  0  0
   10.2596  -15.4414   26.6777 C   0  0  0  0  0  0  0  0  0  0  0  0
   11.2486  -14.7365   27.0065 O   0  0  0  0  0  0  0  0  0  0  0  0
   10.1561  -16.7470   27.1883 O   0  0  0  0  0  0  0  0  0  0  0  0
  2  7  1  0
  2  3  1  0
  2  1  1  6
  3  4  1  0
  4  5  1  0
  5  6  2  0
  7  8  2  0
  9  5  1  0
 10 11  1  0
 11 21  2  0
 12 13  2  0
 12 11  1  0
 13 14  1  0
 14 15  1  0
 14 20  2  0
 16 15  1  1
 16 18  1  0
 17 16  1  0
 17  7  1  0
 18 19  2  0
 18 27  1  0
 21 20  1  0
 22 23  1  0
 23 24  1  0
 24 25  1  0
 26 25  1  1
 26 28  1  0
 27 26  1  0
 28 29  2  0
 28 30  1  0
M  END
$$$$
