CWK.pdb
     RDKit          3D

 30 31  0  0  1  0  0  0  0  0999 V2000
    8.6158  -17.3684   18.6516 N   0  0  0  0  0  0  0  0  0  0  0  0
    8.1301  -17.9827   19.8952 C   0  0  1  0  0  0  0  0  0  0  0  0
    8.7241  -19.3735   19.9522 C   0  0  0  0  0  0  0  0  0  0  0  0
   10.5180  -19.2309   20.1703 S   0  0  0  0  0  0  0  0  0  0  0  0
    8.6159  -17.1308   21.0091 C   0  0  0  0  0  0  0  0  0  0  0  0
    9.5703  -16.3222   20.8792 O   0  0  0  0  0  0  0  0  0  0  0  0
    8.0091  -17.1904   22.3103 N   0  0  0  0  0  0  0  0  0  0  0  0
    8.5225  -16.4116   23.4207 C   0  0  1  0  0  0  0  0  0  0  0  0
    7.3850  -16.2096   24.3982 C   0  0  0  0  0  0  0  0  0  0  0  0
    7.3229  -14.8443   24.9214 C   0  0  0  0  0  0  0  0  0  0  0  0
    6.6423  -13.7931   24.3484 C   0  0  0  0  0  0  0  0  0  0  0  0
    6.8256  -12.7075   25.1227 N   0  0  0  0  0  0  0  0  0  0  0  0
    7.6011  -12.9948   26.1882 C   0  0  0  0  0  0  0  0  0  0  0  0
    8.0600  -12.2327   27.2414 C   0  0  0  0  0  0  0  0  0  0  0  0
    8.8538  -12.8516   28.1856 C   0  0  0  0  0  0  0  0  0  0  0  0
    9.1646  -14.1934   28.0569 C   0  0  0  0  0  0  0  0  0  0  0  0
    8.7137  -14.9691   27.0098 C   0  0  0  0  0  0  0  0  0  0  0  0
    7.9171  -14.3528   26.0602 C   0  0  0  0  0  0  0  0  0  0  0  0
    9.6965  -17.0370   24.0432 C   0  0  0  0  0  0  0  0  0  0  0  0
    9.6915  -18.2763   24.2548 O   0  0  0  0  0  0  0  0  0  0  0  0
   10.8615  -16.3238   24.4307 N   0  0  0  0  0  0  0  0  0  0  0  0
   12.0727  -17.0310   24.9182 C   0  0  1  0  0  0  0  0  0  0  0  0
   13.2917  -16.2273   24.4860 C   0  0  0  0  0  0  0  0  0  0  0  0
   14.5350  -16.8839   24.9597 C   0  0  0  0  0  0  0  0  0  0  0  0
   15.8032  -16.1559   24.6078 C   0  0  0  0  0  0  0  0  0  0  0  0
   17.0488  -16.7757   25.1066 C   0  0  0  0  0  0  0  0  0  0  0  0
   18.1782  -16.6405   24.2424 N   0  0  0  0  0  0  0  0  0  0  0  0
   11.9551  -17.1817   26.3701 C   0  0  0  0  0  0  0  0  0  0  0  0
   11.3472  -16.4080   27.1447 O   0  0  0  0  0  0  0  0  0  0  0  0
   12.5790  -18.2975   26.9717 O   0  0  0  0  0  0  0  0  0  0  0  0
  2  1  1  6
  2  5  1  0
  3  2  1  0
  4  3  1  0
  5  6  2  0
  7  5  1  0
  7  8  1  0
  8  9  1  1
  9 10  1  0
 10 11  2  0
 11 12  1  0
 13 14  2  0
 13 12  1  0
 15 14  1  0
 16 15  2  0
 17 16  1  0
 17 18  2  0
 18 10  1  0
 18 13  1  0
 19 21  1  0
 19  8  1  0
 20 19  2  0
 22 23  1  1
 22 28  1  0
 22 21  1  0
 24 23  1  0
 25 24  1  0
 26 25  1  0
 27 26  1  0
 28 30  1  0
 29 28  2  0
M  END
$$$$
