CWK.pdb
     RDKit          3D

 30 31  0  0  1  0  0  0  0  0999 V2000
    6.5888  -15.0117   20.3188 N   0  0  0  0  0  0  0  0  0  0  0  0
    6.7287  -16.1823   21.1964 C   0  0  1  0  0  0  0  0  0  0  0  0
    7.1763  -17.3309   20.3185 C   0  0  0  0  0  0  0  0  0  0  0  0
    8.8864  -17.0318   19.7969 S   0  0  0  0  0  0  0  0  0  0  0  0
    7.7537  -15.8336   22.2114 C   0  0  0  0  0  0  0  0  0  0  0  0
    8.5163  -14.8407   22.0931 O   0  0  0  0  0  0  0  0  0  0  0  0
    7.9264  -16.6271   23.3969 N   0  0  0  0  0  0  0  0  0  0  0  0
    9.0184  -16.3813   24.3191 C   0  0  1  0  0  0  0  0  0  0  0  0
    8.4206  -16.2305   25.7012 C   0  0  0  0  0  0  0  0  0  0  0  0
    7.4661  -15.1246   25.7883 C   0  0  0  0  0  0  0  0  0  0  0  0
    6.1109  -15.2114   25.5592 C   0  0  0  0  0  0  0  0  0  0  0  0
    5.5799  -13.9875   25.7370 N   0  0  0  0  0  0  0  0  0  0  0  0
    6.5280  -13.0899   26.0754 C   0  0  0  0  0  0  0  0  0  0  0  0
    6.4790  -11.7408   26.3551 C   0  0  0  0  0  0  0  0  0  0  0  0
    7.6624  -11.1065   26.6744 C   0  0  0  0  0  0  0  0  0  0  0  0
    8.8453  -11.8228   26.7059 C   0  0  0  0  0  0  0  0  0  0  0  0
    8.9112  -13.1720   26.4288 C   0  0  0  0  0  0  0  0  0  0  0  0
    7.7267  -13.8126   26.1080 C   0  0  0  0  0  0  0  0  0  0  0  0
   10.0438  -17.4310   24.2597 C   0  0  0  0  0  0  0  0  0  0  0  0
    9.7012  -18.6320   24.4044 O   0  0  0  0  0  0  0  0  0  0  0  0
   11.4245  -17.1782   24.0456 N   0  0  0  0  0  0  0  0  0  0  0  0
   12.4245  -18.2752   24.0816 C   0  0  1  0  0  0  0  0  0  0  0  0
   13.7128  -17.7571   23.4567 C   0  0  0  0  0  0  0  0  0  0  0  0
   13.6617  -17.8982   21.9807 C   0  0  0  0  0  0  0  0  0  0  0  0
   14.9246  -17.5003   21.2675 C   0  0  0  0  0  0  0  0  0  0  0  0
   14.9081  -17.6822   19.8008 C   0  0  0  0  0  0  0  0  0  0  0  0
   16.0694  -17.2037   19.1202 N   0  0  0  0  0  0  0  0  0  0  0  0
   12.5790  -18.7012   25.4742 C   0  0  0  0  0  0  0  0  0  0  0  0
   12.3348  -18.0086   26.4884 O   0  0  0  0  0  0  0  0  0  0  0  0
   13.0459  -20.0125   25.7165 O   0  0  0  0  0  0  0  0  0  0  0  0
  2  1  1  6
  2  5  1  0
  3  2  1  0
  4  3  1  0
  5  6  2  0
  7  5  1  0
  7  8  1  0
  8  9  1  1
  9 10  1  0
 10 11  2  0
 11 12  1  0
 13 14  2  0
 13 12  1  0
 15 14  1  0
 16 15  2  0
 17 16  1  0
 17 18  2  0
 18 10  1  0
 18 13  1  0
 19 21  1  0
 19  8  1  0
 20 19  2  0
 22 23  1  1
 22 28  1  0
 22 21  1  0
 24 23  1  0
 25 24  1  0
 26 25  1  0
 27 26  1  0
 28 30  1  0
 29 28  2  0
M  END
$$$$
