CWK.pdb
     RDKit          3D

 30 31  0  0  1  0  0  0  0  0999 V2000
    7.4488  -15.8495   19.6503 N   0  0  0  0  0  0  0  0  0  0  0  0
    7.2917  -16.6096   20.8983 C   0  0  1  0  0  0  0  0  0  0  0  0
    7.4820  -18.0685   20.5438 C   0  0  0  0  0  0  0  0  0  0  0  0
    9.1453  -18.2879   19.8573 S   0  0  0  0  0  0  0  0  0  0  0  0
    8.3445  -16.1270   21.8262 C   0  0  0  0  0  0  0  0  0  0  0  0
    9.3161  -15.4253   21.4451 O   0  0  0  0  0  0  0  0  0  0  0  0
    8.3032  -16.4438   23.2273 N   0  0  0  0  0  0  0  0  0  0  0  0
    9.3772  -16.0577   24.1221 C   0  0  1  0  0  0  0  0  0  0  0  0
    8.8350  -16.1147   25.5338 C   0  0  0  0  0  0  0  0  0  0  0  0
    7.6726  -15.2474   25.7300 C   0  0  0  0  0  0  0  0  0  0  0  0
    6.3561  -15.6513   25.7183 C   0  0  0  0  0  0  0  0  0  0  0  0
    5.5869  -14.5681   25.9339 N   0  0  0  0  0  0  0  0  0  0  0  0
    6.3394  -13.4595   26.0886 C   0  0  0  0  0  0  0  0  0  0  0  0
    6.0195  -12.1395   26.3251 C   0  0  0  0  0  0  0  0  0  0  0  0
    7.0567  -11.2355   26.4335 C   0  0  0  0  0  0  0  0  0  0  0  0
    8.3654  -11.6647   26.3051 C   0  0  0  0  0  0  0  0  0  0  0  0
    8.7019  -12.9808   26.0685 C   0  0  0  0  0  0  0  0  0  0  0  0
    7.6650  -13.8913   25.9590 C   0  0  0  0  0  0  0  0  0  0  0  0
   10.5753  -16.8882   23.9442 C   0  0  0  0  0  0  0  0  0  0  0  0
   10.4446  -18.0813   23.5699 O   0  0  0  0  0  0  0  0  0  0  0  0
   11.8991  -16.4273   24.1705 N   0  0  0  0  0  0  0  0  0  0  0  0
   13.0771  -17.2530   23.8029 C   0  0  1  0  0  0  0  0  0  0  0  0
   13.7024  -16.6491   22.5528 C   0  0  0  0  0  0  0  0  0  0  0  0
   15.1602  -16.4551   22.7491 C   0  0  0  0  0  0  0  0  0  0  0  0
   15.8703  -15.8127   21.5894 C   0  0  0  0  0  0  0  0  0  0  0  0
   17.3262  -15.6260   21.7625 C   0  0  0  0  0  0  0  0  0  0  0  0
   17.9742  -14.9191   20.7037 N   0  0  0  0  0  0  0  0  0  0  0  0
   13.9828  -17.2867   24.9532 C   0  0  0  0  0  0  0  0  0  0  0  0
   15.0735  -17.8988   25.0150 O   0  0  0  0  0  0  0  0  0  0  0  0
   13.6088  -16.5679   26.1105 O   0  0  0  0  0  0  0  0  0  0  0  0
  2  1  1  6
  2  5  1  0
  3  2  1  0
  4  3  1  0
  5  6  2  0
  7  5  1  0
  7  8  1  0
  8  9  1  1
  9 10  1  0
 10 11  2  0
 11 12  1  0
 13 14  2  0
 13 12  1  0
 15 14  1  0
 16 15  2  0
 17 16  1  0
 17 18  2  0
 18 10  1  0
 18 13  1  0
 19 21  1  0
 19  8  1  0
 20 19  2  0
 22 23  1  6
 22 28  1  0
 22 21  1  0
 24 23  1  0
 25 24  1  0
 26 25  1  0
 27 26  1  0
 28 30  1  0
 29 28  2  0
M  END
$$$$
