CWK.pdb
     RDKit          3D

 30 31  0  0  1  0  0  0  0  0999 V2000
    9.5554  -15.8073   19.0212 N   0  0  0  0  0  0  0  0  0  0  0  0
    9.1194  -16.8223   19.9905 C   0  0  1  0  0  0  0  0  0  0  0  0
    9.8252  -18.1082   19.6182 C   0  0  0  0  0  0  0  0  0  0  0  0
    8.6587  -19.4843   19.7969 S   0  0  0  0  0  0  0  0  0  0  0  0
    9.5319  -16.3364   21.3306 C   0  0  0  0  0  0  0  0  0  0  0  0
   10.6168  -15.7321   21.5297 O   0  0  0  0  0  0  0  0  0  0  0  0
    8.6978  -16.5365   22.4835 N   0  0  0  0  0  0  0  0  0  0  0  0
    9.1583  -16.2024   23.8175 C   0  0  1  0  0  0  0  0  0  0  0  0
    7.9466  -16.1790   24.7238 C   0  0  0  0  0  0  0  0  0  0  0  0
    7.7251  -14.8704   25.3404 C   0  0  0  0  0  0  0  0  0  0  0  0
    6.8507  -13.9064   24.8903 C   0  0  0  0  0  0  0  0  0  0  0  0
    6.9332  -12.8499   25.7201 N   0  0  0  0  0  0  0  0  0  0  0  0
    7.8279  -13.0728   26.7045 C   0  0  0  0  0  0  0  0  0  0  0  0
    8.2532  -12.3084   27.7701 C   0  0  0  0  0  0  0  0  0  0  0  0
    9.2054  -12.8490   28.6103 C   0  0  0  0  0  0  0  0  0  0  0  0
    9.7009  -14.1179   28.3696 C   0  0  0  0  0  0  0  0  0  0  0  0
    9.2861  -14.8948   27.3087 C   0  0  0  0  0  0  0  0  0  0  0  0
    8.3311  -14.3570   26.4632 C   0  0  0  0  0  0  0  0  0  0  0  0
   10.2004  -17.1217   24.2929 C   0  0  0  0  0  0  0  0  0  0  0  0
    9.9695  -18.3575   24.3041 O   0  0  0  0  0  0  0  0  0  0  0  0
   11.4775  -16.7025   24.7503 N   0  0  0  0  0  0  0  0  0  0  0  0
   12.4708  -17.6782   25.2662 C   0  0  1  0  0  0  0  0  0  0  0  0
   13.8613  -17.1467   24.9460 C   0  0  0  0  0  0  0  0  0  0  0  0
   14.0719  -17.1082   23.4779 C   0  0  0  0  0  0  0  0  0  0  0  0
   15.4631  -16.7265   23.0526 C   0  0  0  0  0  0  0  0  0  0  0  0
   15.7189  -16.7831   21.5980 C   0  0  0  0  0  0  0  0  0  0  0  0
   16.9889  -16.2734   21.1882 N   0  0  0  0  0  0  0  0  0  0  0  0
   12.2276  -17.8568   26.6992 C   0  0  0  0  0  0  0  0  0  0  0  0
   12.5029  -18.8763   27.3722 O   0  0  0  0  0  0  0  0  0  0  0  0
   11.6271  -16.7909   27.4059 O   0  0  0  0  0  0  0  0  0  0  0  0
  2  1  1  6
  2  5  1  0
  3  2  1  0
  4  3  1  0
  5  6  2  0
  7  5  1  0
  7  8  1  0
  8  9  1  1
  9 10  1  0
 10 11  2  0
 11 12  1  0
 13 14  2  0
 13 12  1  0
 15 14  1  0
 16 15  2  0
 17 16  1  0
 17 18  2  0
 18 10  1  0
 18 13  1  0
 19 21  1  0
 19  8  1  0
 20 19  2  0
 22 23  1  1
 22 28  1  0
 22 21  1  0
 24 23  1  0
 25 24  1  0
 26 25  1  0
 27 26  1  0
 28 30  1  0
 29 28  2  0
M  END
$$$$
