CWK.pdb
     RDKit          3D

 30 31  0  0  1  0  0  0  0  0999 V2000
    7.7139  -15.6900   19.8427 N   0  0  0  0  0  0  0  0  0  0  0  0
    7.6841  -16.8069   20.7975 C   0  0  1  0  0  0  0  0  0  0  0  0
    8.2312  -18.0149   20.0684 C   0  0  0  0  0  0  0  0  0  0  0  0
    6.8848  -19.2029   19.8198 S   0  0  0  0  0  0  0  0  0  0  0  0
    8.5482  -16.4149   21.9385 C   0  0  0  0  0  0  0  0  0  0  0  0
    9.5618  -15.6829   21.8028 O   0  0  0  0  0  0  0  0  0  0  0  0
    8.2633  -16.8606   23.2747 N   0  0  0  0  0  0  0  0  0  0  0  0
    9.1299  -16.5199   24.3866 C   0  0  1  0  0  0  0  0  0  0  0  0
    8.2767  -16.4946   25.6362 C   0  0  0  0  0  0  0  0  0  0  0  0
    7.3552  -15.3582   25.6706 C   0  0  0  0  0  0  0  0  0  0  0  0
    5.9833  -15.4315   25.5758 C   0  0  0  0  0  0  0  0  0  0  0  0
    5.4940  -14.1796   25.6475 N   0  0  0  0  0  0  0  0  0  0  0  0
    6.4861  -13.2765   25.7862 C   0  0  0  0  0  0  0  0  0  0  0  0
    6.4885  -11.9025   25.9000 C   0  0  0  0  0  0  0  0  0  0  0  0
    7.7080  -11.2699   26.0315 C   0  0  0  0  0  0  0  0  0  0  0  0
    8.8751  -12.0122   26.0458 C   0  0  0  0  0  0  0  0  0  0  0  0
    8.8897  -13.3864   25.9330 C   0  0  0  0  0  0  0  0  0  0  0  0
    7.6689  -14.0255   25.8009 C   0  0  0  0  0  0  0  0  0  0  0  0
   10.2724  -17.4353   24.5022 C   0  0  0  0  0  0  0  0  0  0  0  0
   10.0673  -18.6757   24.4991 O   0  0  0  0  0  0  0  0  0  0  0  0
   11.6212  -17.0074   24.6198 N   0  0  0  0  0  0  0  0  0  0  0  0
   12.7202  -17.9769   24.8584 C   0  0  1  0  0  0  0  0  0  0  0  0
   14.0418  -17.2384   24.6952 C   0  0  0  0  0  0  0  0  0  0  0  0
   14.9454  -17.9942   23.7933 C   0  0  0  0  0  0  0  0  0  0  0  0
   15.6733  -17.1511   22.7827 C   0  0  0  0  0  0  0  0  0  0  0  0
   16.6944  -17.8604   21.9835 C   0  0  0  0  0  0  0  0  0  0  0  0
   16.5683  -17.7057   20.5689 N   0  0  0  0  0  0  0  0  0  0  0  0
   12.5328  -18.5545   26.1911 C   0  0  0  0  0  0  0  0  0  0  0  0
   11.8657  -18.0531   27.1246 O   0  0  0  0  0  0  0  0  0  0  0  0
   13.1547  -19.7924   26.4687 O   0  0  0  0  0  0  0  0  0  0  0  0
  2  1  1  6
  2  5  1  0
  3  2  1  0
  4  3  1  0
  5  6  2  0
  7  5  1  0
  7  8  1  0
  8  9  1  1
  9 10  1  0
 10 11  2  0
 11 12  1  0
 13 14  2  0
 13 12  1  0
 15 14  1  0
 16 15  2  0
 17 16  1  0
 17 18  2  0
 18 10  1  0
 18 13  1  0
 19 21  1  0
 19  8  1  0
 20 19  2  0
 22 23  1  1
 22 28  1  0
 22 21  1  0
 24 23  1  0
 25 24  1  0
 26 25  1  0
 27 26  1  0
 28 30  1  0
 29 28  2  0
M  END
$$$$
