CWK.pdb
     RDKit          3D

 30 31  0  0  1  0  0  0  0  0999 V2000
   10.5228  -16.4232   18.2441 N   0  0  0  0  0  0  0  0  0  0  0  0
    9.3684  -16.9479   18.9871 C   0  0  1  0  0  0  0  0  0  0  0  0
    9.5172  -18.4537   19.0118 C   0  0  0  0  0  0  0  0  0  0  0  0
   10.9513  -18.8795   20.0356 S   0  0  0  0  0  0  0  0  0  0  0  0
    9.4390  -16.3656   20.3503 C   0  0  0  0  0  0  0  0  0  0  0  0
   10.5179  -15.9808   20.8695 O   0  0  0  0  0  0  0  0  0  0  0  0
    8.2586  -16.2114   21.1552 N   0  0  0  0  0  0  0  0  0  0  0  0
    8.3338  -15.7463   22.5268 C   0  0  1  0  0  0  0  0  0  0  0  0
    6.9277  -15.4007   22.9670 C   0  0  0  0  0  0  0  0  0  0  0  0
    6.8547  -15.0090   24.3752 C   0  0  0  0  0  0  0  0  0  0  0  0
    6.5654  -15.8465   25.4294 C   0  0  0  0  0  0  0  0  0  0  0  0
    6.5928  -15.1167   26.5600 N   0  0  0  0  0  0  0  0  0  0  0  0
    6.8891  -13.8269   26.2997 C   0  0  0  0  0  0  0  0  0  0  0  0
    7.0303  -12.7197   27.1091 C   0  0  0  0  0  0  0  0  0  0  0  0
    7.3460  -11.5186   26.5071 C   0  0  0  0  0  0  0  0  0  0  0  0
    7.5099  -11.4538   25.1351 C   0  0  0  0  0  0  0  0  0  0  0  0
    7.3720  -12.5514   24.3120 C   0  0  0  0  0  0  0  0  0  0  0  0
    7.0556  -13.7585   24.9112 C   0  0  0  0  0  0  0  0  0  0  0  0
    8.9771  -16.7258   23.4120 C   0  0  0  0  0  0  0  0  0  0  0  0
    8.7133  -17.9468   23.2702 O   0  0  0  0  0  0  0  0  0  0  0  0
    9.8957  -16.3819   24.4386 N   0  0  0  0  0  0  0  0  0  0  0  0
   10.6582  -17.4236   25.1724 C   0  0  1  0  0  0  0  0  0  0  0  0
   12.0756  -17.4472   24.6168 C   0  0  0  0  0  0  0  0  0  0  0  0
   12.8600  -18.5333   25.2542 C   0  0  0  0  0  0  0  0  0  0  0  0
   14.2625  -18.6847   24.7327 C   0  0  0  0  0  0  0  0  0  0  0  0
   15.0602  -19.7580   25.3621 C   0  0  0  0  0  0  0  0  0  0  0  0
   16.3551  -19.9600   24.7938 N   0  0  0  0  0  0  0  0  0  0  0  0
   10.5943  -17.1087   26.6012 C   0  0  0  0  0  0  0  0  0  0  0  0
   10.9630  -17.8540   27.5375 O   0  0  0  0  0  0  0  0  0  0  0  0
   10.0708  -15.8518   26.9786 O   0  0  0  0  0  0  0  0  0  0  0  0
  2  1  1  6
  2  5  1  0
  3  2  1  0
  4  3  1  0
  5  6  2  0
  7  5  1  0
  7  8  1  0
  8  9  1  1
  9 10  1  0
 10 11  2  0
 11 12  1  0
 13 14  2  0
 13 12  1  0
 15 14  1  0
 16 15  2  0
 17 16  1  0
 17 18  2  0
 18 10  1  0
 18 13  1  0
 19 21  1  0
 19  8  1  0
 20 19  2  0
 22 23  1  6
 22 28  1  0
 22 21  1  0
 24 23  1  0
 25 24  1  0
 26 25  1  0
 27 26  1  0
 28 30  1  0
 29 28  2  0
M  END
$$$$
