CWK.pdb
     RDKit          3D

 30 31  0  0  1  0  0  0  0  0999 V2000
    9.3254  -17.5596   18.7090 N   0  0  0  0  0  0  0  0  0  0  0  0
    8.1617  -17.1331   19.4987 C   0  0  1  0  0  0  0  0  0  0  0  0
    7.2759  -18.3499   19.6570 C   0  0  0  0  0  0  0  0  0  0  0  0
    8.0931  -19.5227   20.7719 S   0  0  0  0  0  0  0  0  0  0  0  0
    8.6837  -16.6589   20.8045 C   0  0  0  0  0  0  0  0  0  0  0  0
    9.8160  -16.9865   21.2426 O   0  0  0  0  0  0  0  0  0  0  0  0
    7.9073  -15.7887   21.6441 N   0  0  0  0  0  0  0  0  0  0  0  0
    8.3721  -15.3948   22.9602 C   0  0  1  0  0  0  0  0  0  0  0  0
    7.4423  -14.3129   23.4653 C   0  0  0  0  0  0  0  0  0  0  0  0
    7.7469  -13.8978   24.8352 C   0  0  0  0  0  0  0  0  0  0  0  0
    8.7398  -14.4217   25.6328 C   0  0  0  0  0  0  0  0  0  0  0  0
    8.7034  -13.7819   26.8164 N   0  0  0  0  0  0  0  0  0  0  0  0
    7.7257  -12.8531   26.8379 C   0  0  0  0  0  0  0  0  0  0  0  0
    7.3043  -11.9633   27.8030 C   0  0  0  0  0  0  0  0  0  0  0  0
    6.2486  -11.1302   27.4931 C   0  0  0  0  0  0  0  0  0  0  0  0
    5.6498  -11.2050   26.2484 C   0  0  0  0  0  0  0  0  0  0  0  0
    6.0592  -12.0890   25.2726 C   0  0  0  0  0  0  0  0  0  0  0  0
    7.1179  -12.9267   25.5787 C   0  0  0  0  0  0  0  0  0  0  0  0
    8.4644  -16.5345   23.8818 C   0  0  0  0  0  0  0  0  0  0  0  0
    7.5494  -17.3967   23.8847 O   0  0  0  0  0  0  0  0  0  0  0  0
    9.5382  -16.7343   24.7890 N   0  0  0  0  0  0  0  0  0  0  0  0
    9.7798  -18.0568   25.4195 C   0  0  1  0  0  0  0  0  0  0  0  0
   10.6628  -18.8697   24.4826 C   0  0  0  0  0  0  0  0  0  0  0  0
   10.9356  -20.2071   25.0640 C   0  0  0  0  0  0  0  0  0  0  0  0
   11.8259  -21.0856   24.2288 C   0  0  0  0  0  0  0  0  0  0  0  0
   12.0741  -22.4368   24.7737 C   0  0  0  0  0  0  0  0  0  0  0  0
   12.9805  -23.2372   24.0130 N   0  0  0  0  0  0  0  0  0  0  0  0
   10.3780  -17.8276   26.7365 C   0  0  0  0  0  0  0  0  0  0  0  0
   11.3539  -17.0828   26.9833 O   0  0  0  0  0  0  0  0  0  0  0  0
    9.8160  -18.5008   27.8442 O   0  0  0  0  0  0  0  0  0  0  0  0
  2  1  1  6
  2  5  1  0
  3  2  1  0
  4  3  1  0
  5  6  2  0
  7  5  1  0
  7  8  1  0
  8  9  1  1
  9 10  1  0
 10 11  2  0
 11 12  1  0
 13 14  2  0
 13 12  1  0
 15 14  1  0
 16 15  2  0
 17 16  1  0
 17 18  2  0
 18 10  1  0
 18 13  1  0
 19 21  1  0
 19  8  1  0
 20 19  2  0
 22 23  1  6
 22 28  1  0
 22 21  1  0
 24 23  1  0
 25 24  1  0
 26 25  1  0
 27 26  1  0
 28 30  1  0
 29 28  2  0
M  END
$$$$
