CWK.pdb
     RDKit          3D

 30 31  0  0  1  0  0  0  0  0999 V2000
    9.9720  -15.9080   17.9994 N   0  0  0  0  0  0  0  0  0  0  0  0
    9.2709  -16.8415   18.8922 C   0  0  1  0  0  0  0  0  0  0  0  0
   10.0058  -18.1614   18.8024 C   0  0  0  0  0  0  0  0  0  0  0  0
    9.2794  -19.3138   19.9984 S   0  0  0  0  0  0  0  0  0  0  0  0
    9.3446  -16.2625   20.2566 C   0  0  0  0  0  0  0  0  0  0  0  0
   10.3794  -15.7037   20.7023 O   0  0  0  0  0  0  0  0  0  0  0  0
    8.2187  -16.3137   21.1481 N   0  0  0  0  0  0  0  0  0  0  0  0
    8.3128  -15.8344   22.5137 C   0  0  1  0  0  0  0  0  0  0  0  0
    6.9053  -15.5571   22.9957 C   0  0  0  0  0  0  0  0  0  0  0  0
    6.8583  -15.1387   24.3973 C   0  0  0  0  0  0  0  0  0  0  0  0
    6.6998  -15.9731   25.4813 C   0  0  0  0  0  0  0  0  0  0  0  0
    6.7072  -15.2157   26.5938 N   0  0  0  0  0  0  0  0  0  0  0  0
    6.8644  -13.9103   26.2930 C   0  0  0  0  0  0  0  0  0  0  0  0
    6.9336  -12.7746   27.0715 C   0  0  0  0  0  0  0  0  0  0  0  0
    7.1033  -11.5643   26.4303 C   0  0  0  0  0  0  0  0  0  0  0  0
    7.1978  -11.5188   25.0510 C   0  0  0  0  0  0  0  0  0  0  0  0
    7.1305  -12.6451   24.2584 C   0  0  0  0  0  0  0  0  0  0  0  0
    6.9604  -13.8614   24.8970 C   0  0  0  0  0  0  0  0  0  0  0  0
    9.0323  -16.7730   23.3844 C   0  0  0  0  0  0  0  0  0  0  0  0
    8.7950  -18.0040   23.2881 O   0  0  0  0  0  0  0  0  0  0  0  0
    9.9978  -16.3783   24.3477 N   0  0  0  0  0  0  0  0  0  0  0  0
   10.7912  -17.3821   25.1011 C   0  0  1  0  0  0  0  0  0  0  0  0
   12.2163  -17.3524   24.5657 C   0  0  0  0  0  0  0  0  0  0  0  0
   13.0510  -18.3577   25.2685 C   0  0  0  0  0  0  0  0  0  0  0  0
   14.4627  -18.4672   24.7615 C   0  0  0  0  0  0  0  0  0  0  0  0
   15.3120  -19.4547   25.4601 C   0  0  0  0  0  0  0  0  0  0  0  0
   16.6414  -19.5747   24.9512 N   0  0  0  0  0  0  0  0  0  0  0  0
   10.6940  -17.0586   26.5262 C   0  0  0  0  0  0  0  0  0  0  0  0
   10.2638  -15.9874   27.0112 O   0  0  0  0  0  0  0  0  0  0  0  0
   11.1206  -18.0331   27.4559 O   0  0  0  0  0  0  0  0  0  0  0  0
  2  1  1  6
  2  5  1  0
  3  2  1  0
  4  3  1  0
  5  6  2  0
  7  5  1  0
  7  8  1  0
  8  9  1  1
  9 10  1  0
 10 11  2  0
 11 12  1  0
 13 14  2  0
 13 12  1  0
 15 14  1  0
 16 15  2  0
 17 16  1  0
 17 18  2  0
 18 10  1  0
 18 13  1  0
 19 21  1  0
 19  8  1  0
 20 19  2  0
 22 23  1  6
 22 28  1  0
 22 21  1  0
 24 23  1  0
 25 24  1  0
 26 25  1  0
 27 26  1  0
 28 30  1  0
 29 28  2  0
M  END
$$$$
