CWK.pdb
     RDKit          3D

 30 31  0  0  1  0  0  0  0  0999 V2000
    6.5618  -15.7023   19.9017 N   0  0  0  0  0  0  0  0  0  0  0  0
    6.8491  -16.7503   20.8912 C   0  0  1  0  0  0  0  0  0  0  0  0
    7.2988  -17.9684   20.1138 C   0  0  0  0  0  0  0  0  0  0  0  0
    6.0983  -19.3011   20.3760 S   0  0  0  0  0  0  0  0  0  0  0  0
    7.9278  -16.2265   21.7654 C   0  0  0  0  0  0  0  0  0  0  0  0
    8.8426  -15.4757   21.3398 O   0  0  0  0  0  0  0  0  0  0  0  0
    7.9792  -16.5577   23.1628 N   0  0  0  0  0  0  0  0  0  0  0  0
    9.0772  -16.1211   24.0037 C   0  0  1  0  0  0  0  0  0  0  0  0
    8.6054  -16.1919   25.4399 C   0  0  0  0  0  0  0  0  0  0  0  0
    7.5271  -15.2458   25.7295 C   0  0  0  0  0  0  0  0  0  0  0  0
    6.1911  -15.5592   25.8452 C   0  0  0  0  0  0  0  0  0  0  0  0
    5.5195  -14.4244   26.1147 N   0  0  0  0  0  0  0  0  0  0  0  0
    6.3557  -13.3684   26.1830 C   0  0  0  0  0  0  0  0  0  0  0  0
    6.1483  -12.0277   26.4285 C   0  0  0  0  0  0  0  0  0  0  0  0
    7.2494  -11.1955   26.4275 C   0  0  0  0  0  0  0  0  0  0  0  0
    8.5088  -11.7138   26.1854 C   0  0  0  0  0  0  0  0  0  0  0  0
    8.7329  -13.0517   25.9382 C   0  0  0  0  0  0  0  0  0  0  0  0
    7.6316  -13.8904   25.9383 C   0  0  0  0  0  0  0  0  0  0  0  0
   10.2995  -16.9019   23.7726 C   0  0  0  0  0  0  0  0  0  0  0  0
   10.2768  -18.1454   23.9562 O   0  0  0  0  0  0  0  0  0  0  0  0
   11.5309  -16.3376   23.3471 N   0  0  0  0  0  0  0  0  0  0  0  0
   12.7618  -17.1614   23.2421 C   0  0  1  0  0  0  0  0  0  0  0  0
   13.7880  -16.3726   22.4401 C   0  0  0  0  0  0  0  0  0  0  0  0
   14.6779  -17.2959   21.6938 C   0  0  0  0  0  0  0  0  0  0  0  0
   15.1537  -16.7736   20.3661 C   0  0  0  0  0  0  0  0  0  0  0  0
   16.1456  -17.6204   19.6708 C   0  0  0  0  0  0  0  0  0  0  0  0
   16.6999  -17.0501   18.4842 N   0  0  0  0  0  0  0  0  0  0  0  0
   13.2046  -17.4885   24.5991 C   0  0  0  0  0  0  0  0  0  0  0  0
   14.0774  -18.3321   24.9065 O   0  0  0  0  0  0  0  0  0  0  0  0
   12.6027  -16.7987   25.6753 O   0  0  0  0  0  0  0  0  0  0  0  0
  2  1  1  6
  2  5  1  0
  3  2  1  0
  4  3  1  0
  5  6  2  0
  7  5  1  0
  7  8  1  0
  8  9  1  1
  9 10  1  0
 10 11  2  0
 11 12  1  0
 13 14  2  0
 13 12  1  0
 15 14  1  0
 16 15  2  0
 17 16  1  0
 17 18  2  0
 18 10  1  0
 18 13  1  0
 19 21  1  0
 19  8  1  0
 20 19  2  0
 22 23  1  1
 22 28  1  0
 22 21  1  0
 24 23  1  0
 25 24  1  0
 26 25  1  0
 27 26  1  0
 28 30  1  0
 29 28  2  0
M  END
$$$$
