KEY.pdb
     RDKit          3D

 31 31  0  0  1  0  0  0  0  0999 V2000
    9.7406  -15.3403   18.0102 N   0  0  0  0  0  0  0  0  0  0  0  0
    9.0865  -14.2670   18.7342 C   0  0  1  0  0  0  0  0  0  0  0  0
    8.0907  -13.5137   17.8602 C   0  0  0  0  0  0  0  0  0  0  0  0
    8.1681  -14.0862   16.4631 C   0  0  0  0  0  0  0  0  0  0  0  0
    7.4274  -13.2638   15.4594 C   0  0  0  0  0  0  0  0  0  0  0  0
    7.3803  -13.8962   14.0913 C   0  0  0  0  0  0  0  0  0  0  0  0
    6.6449  -13.1302   13.1371 N   0  0  0  0  0  0  0  0  0  0  0  0
    8.4719  -14.7666   19.9658 C   0  0  0  0  0  0  0  0  0  0  0  0
    7.8234  -13.9800   20.7100 O   0  0  0  0  0  0  0  0  0  0  0  0
    8.5853  -16.1163   20.3478 N   0  0  0  0  0  0  0  0  0  0  0  0
    7.9414  -16.7128   21.5042 C   0  0  1  0  0  0  0  0  0  0  0  0
    7.9075  -18.1923   21.4407 C   0  0  0  0  0  0  0  0  0  0  0  0
    8.6246  -18.8902   20.3673 C   0  0  0  0  0  0  0  0  0  0  0  0
    8.5033  -20.3376   20.2207 C   0  0  0  0  0  0  0  0  0  0  0  0
    7.5770  -21.0059   19.7542 O   0  0  0  0  0  0  0  0  0  0  0  0
    8.4749  -16.1464   22.7334 C   0  0  0  0  0  0  0  0  0  0  0  0
    7.9085  -15.1283   23.2620 O   0  0  0  0  0  0  0  0  0  0  0  0
    9.6080  -21.1339   20.6768 O   0  0  0  0  0  0  0  0  0  0  0  0
   10.5734  -14.2739   30.7930 O   0  0  0  0  0  0  0  0  0  0  0  0
   10.1870  -14.6860   29.5271 C   0  0  0  0  0  0  0  0  0  0  0  0
   10.4087  -15.9905   29.0973 C   0  0  0  0  0  0  0  0  0  0  0  0
   10.0253  -16.4199   27.8258 C   0  0  0  0  0  0  0  0  0  0  0  0
    9.4110  -15.5358   26.9671 C   0  0  0  0  0  0  0  0  0  0  0  0
    9.0016  -15.9529   25.6135 C   0  0  0  0  0  0  0  0  0  0  0  0
   10.1020  -15.9935   24.6023 C   0  0  2  0  0  0  0  0  0  0  0  0
    9.6168  -16.6737   23.3917 N   0  0  0  0  0  0  0  0  0  0  0  0
   11.2143  -16.8215   25.1180 C   0  0  0  0  0  0  0  0  0  0  0  0
   11.1913  -18.0570   24.9054 O   0  0  0  0  0  0  0  0  0  0  0  0
    9.1945  -14.2447   27.4000 C   0  0  0  0  0  0  0  0  0  0  0  0
    9.5741  -13.8191   28.6597 C   0  0  0  0  0  0  0  0  0  0  0  0
   12.2894  -16.3138   25.8273 O   0  0  0  0  0  0  0  0  0  0  0  0
  2  1  1  6
  2  3  1  0
  4  3  1  0
  5  4  1  0
  6  5  1  0
  7  6  1  0
  8  2  1  0
  9  8  2  0
 10  8  1  0
 11 10  1  0
 11 12  1  1
 13 14  1  0
 13 12  1  0
 14 15  2  0
 16 11  1  0
 16 17  2  0
 18 14  1  0
 20 19  1  0
 21 20  2  0
 22 21  1  0
 23 22  2  0
 23 29  1  0
 25 24  1  1
 24 23  1  0
 25 26  1  0
 26 16  1  0
 27 25  1  0
 28 27  2  0
 29 30  2  0
 30 20  1  0
 31 27  1  0
M  END
$$$$
