KEY.pdb
     RDKit          3D

 31 31  0  0  1  0  0  0  0  0999 V2000
   10.1476  -15.5116   19.1880 N   0  0  0  0  0  0  0  0  0  0  0  0
    9.2887  -14.8651   20.1618 C   0  0  1  0  0  0  0  0  0  0  0  0
    8.2117  -14.0157   19.4973 C   0  0  0  0  0  0  0  0  0  0  0  0
    8.4168  -14.0870   18.0011 C   0  0  0  0  0  0  0  0  0  0  0  0
    7.3924  -13.3107   17.2395 C   0  0  0  0  0  0  0  0  0  0  0  0
    7.5244  -13.4590   15.7447 C   0  0  0  0  0  0  0  0  0  0  0  0
    7.5234  -14.8179   15.3069 N   0  0  0  0  0  0  0  0  0  0  0  0
    8.7229  -15.8451   21.0912 C   0  0  0  0  0  0  0  0  0  0  0  0
    7.6899  -16.4950   20.7693 O   0  0  0  0  0  0  0  0  0  0  0  0
    9.3060  -16.0855   22.3493 N   0  0  0  0  0  0  0  0  0  0  0  0
   10.1945  -17.1910   22.6591 C   0  0  1  0  0  0  0  0  0  0  0  0
   11.3334  -17.2913   21.7174 C   0  0  0  0  0  0  0  0  0  0  0  0
   12.2885  -18.3978   21.8473 C   0  0  0  0  0  0  0  0  0  0  0  0
   13.7226  -18.1302   21.9020 C   0  0  0  0  0  0  0  0  0  0  0  0
   14.4928  -18.1644   22.8652 O   0  0  0  0  0  0  0  0  0  0  0  0
   10.5429  -17.1846   24.0716 C   0  0  0  0  0  0  0  0  0  0  0  0
   11.7316  -16.8776   24.4313 O   0  0  0  0  0  0  0  0  0  0  0  0
   14.3660  -17.7706   20.6695 O   0  0  0  0  0  0  0  0  0  0  0  0
    5.6199  -11.1675   27.4606 O   0  0  0  0  0  0  0  0  0  0  0  0
    6.2775  -12.2242   26.8502 C   0  0  0  0  0  0  0  0  0  0  0  0
    7.6006  -12.1049   26.4372 C   0  0  0  0  0  0  0  0  0  0  0  0
    8.2757  -13.1599   25.8214 C   0  0  0  0  0  0  0  0  0  0  0  0
    7.6227  -14.3542   25.6126 C   0  0  0  0  0  0  0  0  0  0  0  0
    8.3023  -15.4862   24.9563 C   0  0  0  0  0  0  0  0  0  0  0  0
    9.0263  -16.4128   25.8793 C   0  0  2  0  0  0  0  0  0  0  0  0
    9.6142  -17.5095   25.0949 N   0  0  0  0  0  0  0  0  0  0  0  0
    8.0579  -17.0443   26.8025 C   0  0  0  0  0  0  0  0  0  0  0  0
    7.3518  -17.9891   26.3771 O   0  0  0  0  0  0  0  0  0  0  0  0
    6.3116  -14.4651   26.0246 C   0  0  0  0  0  0  0  0  0  0  0  0
    5.6425  -13.4201   26.6349 C   0  0  0  0  0  0  0  0  0  0  0  0
    7.8802  -16.6546   28.1190 O   0  0  0  0  0  0  0  0  0  0  0  0
  2  1  1  6
  2  3  1  0
  4  3  1  0
  5  4  1  0
  6  5  1  0
  7  6  1  0
  8  2  1  0
  9  8  2  0
 10  8  1  0
 11 10  1  0
 11 12  1  6
 13 14  1  0
 13 12  1  0
 14 15  2  0
 16 11  1  0
 16 17  2  0
 18 14  1  0
 20 19  1  0
 21 20  2  0
 22 21  1  0
 23 22  2  0
 23 29  1  0
 25 24  1  6
 24 23  1  0
 25 26  1  0
 26 16  1  0
 27 25  1  0
 28 27  2  0
 29 30  2  0
 30 20  1  0
 31 27  1  0
M  END
$$$$
