KEY.pdb
     RDKit          3D

 31 31  0  0  1  0  0  0  0  0999 V2000
    6.4923  -17.1194   21.5178 N   0  0  0  0  0  0  0  0  0  0  0  0
    7.6712  -16.2978   21.7154 C   0  0  1  0  0  0  0  0  0  0  0  0
    7.3144  -14.8331   21.9399 C   0  0  0  0  0  0  0  0  0  0  0  0
    7.1491  -14.1793   20.5867 C   0  0  0  0  0  0  0  0  0  0  0  0
    8.4543  -13.8178   19.9560 C   0  0  0  0  0  0  0  0  0  0  0  0
    8.3007  -13.1557   18.6099 C   0  0  0  0  0  0  0  0  0  0  0  0
    7.8041  -11.8195   18.6880 N   0  0  0  0  0  0  0  0  0  0  0  0
    8.5065  -16.8334   22.7923 C   0  0  0  0  0  0  0  0  0  0  0  0
    7.9729  -17.4496   23.7559 O   0  0  0  0  0  0  0  0  0  0  0  0
    9.9051  -16.6783   22.7828 N   0  0  0  0  0  0  0  0  0  0  0  0
   10.8130  -17.2379   23.7677 C   0  0  1  0  0  0  0  0  0  0  0  0
   12.1849  -17.4239   23.2412 C   0  0  0  0  0  0  0  0  0  0  0  0
   13.2059  -18.0600   24.0817 C   0  0  0  0  0  0  0  0  0  0  0  0
   14.4860  -18.4633   23.5073 C   0  0  0  0  0  0  0  0  0  0  0  0
   14.9151  -19.5930   23.2583 O   0  0  0  0  0  0  0  0  0  0  0  0
   10.7130  -16.5113   25.0241 C   0  0  0  0  0  0  0  0  0  0  0  0
   11.1051  -15.2952   25.0877 O   0  0  0  0  0  0  0  0  0  0  0  0
   15.4080  -17.4154   23.1696 O   0  0  0  0  0  0  0  0  0  0  0  0
    6.3330  -11.6642   25.2402 O   0  0  0  0  0  0  0  0  0  0  0  0
    6.9415  -12.7275   25.8889 C   0  0  0  0  0  0  0  0  0  0  0  0
    7.9849  -12.5203   26.7854 C   0  0  0  0  0  0  0  0  0  0  0  0
    8.6071  -13.5808   27.4460 C   0  0  0  0  0  0  0  0  0  0  0  0
    8.1839  -14.8697   27.2100 C   0  0  0  0  0  0  0  0  0  0  0  0
    8.8250  -16.0142   27.8831 C   0  0  0  0  0  0  0  0  0  0  0  0
   10.2266  -16.3012   27.4496 C   0  0  2  0  0  0  0  0  0  0  0  0
   10.1934  -17.0928   26.2103 N   0  0  0  0  0  0  0  0  0  0  0  0
   10.8902  -17.1531   28.4609 C   0  0  0  0  0  0  0  0  0  0  0  0
   11.0270  -16.7069   29.6247 O   0  0  0  0  0  0  0  0  0  0  0  0
    7.1492  -15.0674   26.3204 C   0  0  0  0  0  0  0  0  0  0  0  0
    6.5325  -14.0170   25.6659 C   0  0  0  0  0  0  0  0  0  0  0  0
   11.3742  -18.4239   28.2014 O   0  0  0  0  0  0  0  0  0  0  0  0
  2  1  1  1
  2  3  1  0
  4  3  1  0
  5  4  1  0
  6  5  1  0
  7  6  1  0
  8  2  1  0
  9  8  2  0
 10  8  1  0
 11 10  1  0
 11 12  1  6
 13 14  1  0
 13 12  1  0
 14 15  2  0
 16 11  1  0
 16 17  2  0
 18 14  1  0
 20 19  1  0
 21 20  2  0
 22 21  1  0
 23 22  2  0
 23 29  1  0
 25 24  1  1
 24 23  1  0
 25 26  1  0
 26 16  1  0
 27 25  1  0
 28 27  2  0
 29 30  2  0
 30 20  1  0
 31 27  1  0
M  END
$$$$
