KEY.pdb
     RDKit          3D

 31 31  0  0  1  0  0  0  0  0999 V2000
    9.9151  -13.7614   19.2604 N   0  0  0  0  0  0  0  0  0  0  0  0
    8.7213  -13.8012   20.0833 C   0  0  1  0  0  0  0  0  0  0  0  0
    7.4567  -13.9546   19.2464 C   0  0  0  0  0  0  0  0  0  0  0  0
    7.7924  -14.8072   18.0438 C   0  0  0  0  0  0  0  0  0  0  0  0
    7.4329  -14.1503   16.7509 C   0  0  0  0  0  0  0  0  0  0  0  0
    7.6978  -15.0205   15.5483 C   0  0  0  0  0  0  0  0  0  0  0  0
    7.5324  -14.3372   14.3058 N   0  0  0  0  0  0  0  0  0  0  0  0
    8.8307  -14.8371   21.1124 C   0  0  0  0  0  0  0  0  0  0  0  0
    7.8064  -15.1945   21.7575 O   0  0  0  0  0  0  0  0  0  0  0  0
   10.0614  -15.4532   21.4061 N   0  0  0  0  0  0  0  0  0  0  0  0
   10.2339  -16.5933   22.2880 C   0  0  1  0  0  0  0  0  0  0  0  0
   11.4327  -17.3975   21.9560 C   0  0  0  0  0  0  0  0  0  0  0  0
   11.4995  -18.1069   20.6731 C   0  0  0  0  0  0  0  0  0  0  0  0
   12.6863  -18.8801   20.3200 C   0  0  0  0  0  0  0  0  0  0  0  0
   13.6792  -18.5438   19.6696 O   0  0  0  0  0  0  0  0  0  0  0  0
   10.1142  -16.1846   23.6791 C   0  0  0  0  0  0  0  0  0  0  0  0
   10.8498  -15.2396   24.1291 O   0  0  0  0  0  0  0  0  0  0  0  0
   12.7403  -20.2389   20.7820 O   0  0  0  0  0  0  0  0  0  0  0  0
    6.7120  -10.3845   25.9594 O   0  0  0  0  0  0  0  0  0  0  0  0
    6.9767  -11.7421   26.0515 C   0  0  0  0  0  0  0  0  0  0  0  0
    6.0076  -12.6867   25.7286 C   0  0  0  0  0  0  0  0  0  0  0  0
    6.2595  -14.0567   25.8164 C   0  0  0  0  0  0  0  0  0  0  0  0
    7.4969  -14.4943   26.2330 C   0  0  0  0  0  0  0  0  0  0  0  0
    7.7941  -15.9340   26.3464 C   0  0  0  0  0  0  0  0  0  0  0  0
    9.1896  -16.3245   25.9788 C   0  0  2  0  0  0  0  0  0  0  0  0
    9.2057  -16.7927   24.5846 N   0  0  0  0  0  0  0  0  0  0  0  0
    9.6110  -17.4790   26.8024 C   0  0  0  0  0  0  0  0  0  0  0  0
    9.6913  -18.6062   26.2591 O   0  0  0  0  0  0  0  0  0  0  0  0
    8.4523  -13.5524   26.5512 C   0  0  0  0  0  0  0  0  0  0  0  0
    8.2032  -12.1951   26.4642 C   0  0  0  0  0  0  0  0  0  0  0  0
    9.9254  -17.3929   28.1479 O   0  0  0  0  0  0  0  0  0  0  0  0
  2  1  1  6
  2  3  1  0
  4  3  1  0
  5  4  1  0
  6  5  1  0
  7  6  1  0
  8  2  1  0
  9  8  2  0
 10  8  1  0
 11 10  1  0
 11 12  1  1
 13 14  1  0
 13 12  1  0
 14 15  2  0
 16 11  1  0
 16 17  2  0
 18 14  1  0
 20 19  1  0
 21 20  2  0
 22 21  1  0
 23 22  2  0
 23 29  1  0
 25 24  1  1
 24 23  1  0
 25 26  1  0
 26 16  1  0
 27 25  1  0
 28 27  2  0
 29 30  2  0
 30 20  1  0
 31 27  1  0
M  END
$$$$
