KEY.pdb
     RDKit          3D

 31 31  0  0  1  0  0  0  0  0999 V2000
    9.1583  -14.0521   19.8481 N   0  0  0  0  0  0  0  0  0  0  0  0
    7.9758  -14.5339   20.5362 C   0  0  1  0  0  0  0  0  0  0  0  0
    6.9244  -15.0574   19.5648 C   0  0  0  0  0  0  0  0  0  0  0  0
    7.6080  -15.9970   18.5975 C   0  0  0  0  0  0  0  0  0  0  0  0
    6.7063  -16.4482   17.4950 C   0  0  0  0  0  0  0  0  0  0  0  0
    7.4316  -17.1882   16.3994 C   0  0  0  0  0  0  0  0  0  0  0  0
    6.5695  -17.6492   15.3590 N   0  0  0  0  0  0  0  0  0  0  0  0
    8.3309  -15.5267   21.5523 C   0  0  0  0  0  0  0  0  0  0  0  0
    7.4424  -15.9846   22.3229 O   0  0  0  0  0  0  0  0  0  0  0  0
    9.6519  -15.9905   21.6954 N   0  0  0  0  0  0  0  0  0  0  0  0
   10.0808  -17.0092   22.6366 C   0  0  1  0  0  0  0  0  0  0  0  0
   11.3639  -17.6408   22.2511 C   0  0  0  0  0  0  0  0  0  0  0  0
   11.9023  -18.7430   23.0566 C   0  0  0  0  0  0  0  0  0  0  0  0
   13.1427  -19.4049   22.6635 C   0  0  0  0  0  0  0  0  0  0  0  0
   13.6109  -19.5933   21.5377 O   0  0  0  0  0  0  0  0  0  0  0  0
   10.0100  -16.5061   23.9998 C   0  0  0  0  0  0  0  0  0  0  0  0
   10.5809  -15.4011   24.2996 O   0  0  0  0  0  0  0  0  0  0  0  0
   13.9657  -19.9267   23.7183 O   0  0  0  0  0  0  0  0  0  0  0  0
    7.2913  -10.5991   26.5704 O   0  0  0  0  0  0  0  0  0  0  0  0
    7.4898  -11.9689   26.6463 C   0  0  0  0  0  0  0  0  0  0  0  0
    8.5733  -12.5008   27.3381 C   0  0  0  0  0  0  0  0  0  0  0  0
    8.7860  -13.8776   27.4233 C   0  0  0  0  0  0  0  0  0  0  0  0
    7.9055  -14.7400   26.8090 C   0  0  0  0  0  0  0  0  0  0  0  0
    8.1052  -16.1995   26.8706 C   0  0  0  0  0  0  0  0  0  0  0  0
    9.4457  -16.6763   26.4114 C   0  0  2  0  0  0  0  0  0  0  0  0
    9.3277  -17.1917   25.0388 N   0  0  0  0  0  0  0  0  0  0  0  0
    9.8718  -17.8231   27.2432 C   0  0  0  0  0  0  0  0  0  0  0  0
    9.9774  -18.9497   26.7030 O   0  0  0  0  0  0  0  0  0  0  0  0
    6.8340  -14.2057   26.1254 C   0  0  0  0  0  0  0  0  0  0  0  0
    6.6228  -12.8417   26.0410 C   0  0  0  0  0  0  0  0  0  0  0  0
   10.1644  -17.7304   28.5931 O   0  0  0  0  0  0  0  0  0  0  0  0
  2  1  1  6
  2  3  1  0
  4  3  1  0
  5  4  1  0
  6  5  1  0
  7  6  1  0
  8  2  1  0
  9  8  2  0
 10  8  1  0
 11 10  1  0
 11 12  1  6
 13 14  1  0
 13 12  1  0
 14 15  2  0
 16 11  1  0
 16 17  2  0
 18 14  1  0
 20 19  1  0
 21 20  2  0
 22 21  1  0
 23 22  2  0
 23 29  1  0
 25 24  1  1
 24 23  1  0
 25 26  1  0
 26 16  1  0
 27 25  1  0
 28 27  2  0
 29 30  2  0
 30 20  1  0
 31 27  1  0
M  END
$$$$
