RQQ.pdb
     RDKit          3D

 30 29  0  0  1  0  0  0  0  0999 V2000
   22.0395  -21.8797   -7.8403 N   0  0  0  0  0  0  0  0  0  0  0  0
   21.7450  -20.6712   -8.4865 C   0  0  0  0  0  0  0  0  0  0  0  0
   20.7110  -19.9870   -8.1777 N   0  0  0  0  0  0  0  0  0  0  0  0
   22.6044  -20.1811   -9.5079 N   0  0  0  0  0  0  0  0  0  0  0  0
   23.5834  -21.0191  -10.1318 C   0  0  0  0  0  0  0  0  0  0  0  0
   24.9142  -20.8431   -9.4558 C   0  0  0  0  0  0  0  0  0  0  0  0
   25.9635  -20.5461  -10.4790 C   0  0  0  0  0  0  0  0  0  0  0  0
   25.7141  -21.2895  -11.7835 C   0  0  2  0  0  0  0  0  0  0  0  0
   26.8092  -22.2224  -11.9982 N   0  0  0  0  0  0  0  0  0  0  0  0
   25.6150  -20.3572  -12.9271 C   0  0  0  0  0  0  0  0  0  0  0  0
   25.0052  -19.2719  -12.7666 O   0  0  0  0  0  0  0  0  0  0  0  0
   20.4392  -19.0971   -8.6432 N   0  0  0  0  0  0  0  0  0  0  0  0
   27.3674  -17.8514  -17.6712 C   0  0  0  0  0  0  0  0  0  0  0  0
   28.4336  -18.4794  -16.9883 O   0  0  0  0  0  0  0  0  0  0  0  0
   29.5702  -17.9075  -16.9431 C   0  0  0  0  0  0  0  0  0  0  0  0
   28.2216  -19.8065  -16.3254 C   0  0  0  0  0  0  0  0  0  0  0  0
   26.7704  -20.1711  -16.4599 C   0  0  2  0  0  0  0  0  0  0  0  0
   25.9117  -19.6655  -15.3300 N   0  0  0  0  0  0  0  0  0  0  0  0
   26.1662  -20.6022  -14.2114 C   0  0  0  0  0  0  0  0  0  0  0  0
   24.4876  -19.6954  -15.6978 O   0  0  0  0  0  0  0  0  0  0  0  0
   23.8965  -20.7983  -15.7271 N   0  0  0  0  0  0  0  0  0  0  0  0
   18.4054  -15.8444  -17.3906 C   0  0  0  0  0  0  0  0  0  0  0  0
   19.4360  -16.1805  -16.4965 O   0  0  0  0  0  0  0  0  0  0  0  0
   19.7546  -15.3100  -15.6223 C   0  0  0  0  0  0  0  0  0  0  0  0
   20.1490  -17.4808  -16.5330 C   0  0  0  0  0  0  0  0  0  0  0  0
   21.6329  -17.3073  -16.2697 C   0  0  2  0  0  0  0  0  0  0  0  0
   22.3482  -18.6490  -16.3380 N   0  0  0  0  0  0  0  0  0  0  0  0
   23.7358  -18.5350  -16.0244 C   0  0  0  0  0  0  0  0  0  0  0  0
   22.1173  -19.2973  -17.6640 O   0  0  0  0  0  0  0  0  0  0  0  0
   22.9008  -19.1797  -18.6360 O   0  0  0  0  0  0  0  0  0  0  0  0
  2  1  1  0
  3  2  2  0
  4  2  1  0
  5  6  1  0
  5  4  1  0
  7  6  1  0
  8  7  1  0
  8  9  1  6
 10 11  2  0
 10  8  1  0
 13 12  1  0
 13 15  1  0
 14 13  2  0
 16 15  1  0
 17 16  1  1
 17 18  1  0
 18 10  1  0
 19 17  1  0
 19 27  1  0
 20 19  2  0
 22 21  1  0
 22 23  2  0
 24 22  1  0
 25 24  1  0
 26 27  1  0
 26 25  1  1
 28 26  1  0
 29 28  2  0
 30 28  1  0
M  END
$$$$
