RQQ.pdb
     RDKit          3D

 30 29  0  0  1  0  0  0  0  0999 V2000
   15.4184  -22.8235   -5.4042 N   0  0  0  0  0  0  0  0  0  0  0  0
   14.1585  -23.1463   -5.9269 C   0  0  0  0  0  0  0  0  0  0  0  0
   14.0387  -23.8557   -6.9828 N   0  0  0  0  0  0  0  0  0  0  0  0
   12.9790  -22.6845   -5.2807 N   0  0  0  0  0  0  0  0  0  0  0  0
   13.0085  -22.1607   -3.9485 C   0  0  0  0  0  0  0  0  0  0  0  0
   13.3950  -23.2436   -2.9806 C   0  0  0  0  0  0  0  0  0  0  0  0
   13.3593  -22.7079   -1.5849 C   0  0  0  0  0  0  0  0  0  0  0  0
   13.8217  -23.7400   -0.5664 C   0  0  2  0  0  0  0  0  0  0  0  0
   12.8925  -24.8588   -0.5903 N   0  0  0  0  0  0  0  0  0  0  0  0
   13.8842  -23.1661    0.7951 C   0  0  0  0  0  0  0  0  0  0  0  0
   12.8472  -23.1818    1.5021 O   0  0  0  0  0  0  0  0  0  0  0  0
   13.1274  -24.1043   -7.4192 N   0  0  0  0  0  0  0  0  0  0  0  0
   17.9322  -23.9152    4.9793 C   0  0  0  0  0  0  0  0  0  0  0  0
   16.8343  -24.7191    4.5973 O   0  0  0  0  0  0  0  0  0  0  0  0
   16.7859  -25.9331    4.9782 C   0  0  0  0  0  0  0  0  0  0  0  0
   15.7402  -24.1418    3.7516 C   0  0  0  0  0  0  0  0  0  0  0  0
   16.0481  -22.6909    3.5133 C   0  0  2  0  0  0  0  0  0  0  0  0
   14.9930  -21.9712    2.7143 N   0  0  0  0  0  0  0  0  0  0  0  0
   15.0467  -22.5903    1.3700 C   0  0  0  0  0  0  0  0  0  0  0  0
   15.2942  -20.5343    2.6193 O   0  0  0  0  0  0  0  0  0  0  0  0
   16.1575  -20.1533    1.7969 N   0  0  0  0  0  0  0  0  0  0  0  0
   11.8127  -15.3796    3.8829 C   0  0  0  0  0  0  0  0  0  0  0  0
   11.6371  -16.5080    3.0640 O   0  0  0  0  0  0  0  0  0  0  0  0
   10.5140  -16.6301    2.4747 C   0  0  0  0  0  0  0  0  0  0  0  0
   12.6869  -17.5372    2.8657 C   0  0  0  0  0  0  0  0  0  0  0  0
   13.9339  -17.2193    3.6691 C   0  0  2  0  0  0  0  0  0  0  0  0
   15.0598  -18.1784    3.3099 N   0  0  0  0  0  0  0  0  0  0  0  0
   14.6566  -19.5436    3.4133 C   0  0  0  0  0  0  0  0  0  0  0  0
   16.2774  -17.8830    4.1237 O   0  0  0  0  0  0  0  0  0  0  0  0
   16.8440  -18.7321    4.8521 O   0  0  0  0  0  0  0  0  0  0  0  0
  2  1  1  0
  3  2  2  0
  4  2  1  0
  5  6  1  0
  5  4  1  0
  7  6  1  0
  8  7  1  0
  8  9  1  1
 10 11  2  0
 10  8  1  0
 13 12  1  0
 13 15  1  0
 14 13  2  0
 16 15  1  0
 17 16  1  1
 17 18  1  0
 18 10  1  0
 19 17  1  0
 19 27  1  0
 20 19  2  0
 22 21  1  0
 22 23  2  0
 24 22  1  0
 25 24  1  0
 26 27  1  0
 26 25  1  6
 28 26  1  0
 29 28  2  0
 30 28  1  0
M  END
$$$$
