RQQ.pdb
     RDKit          3D

 30 29  0  0  1  0  0  0  0  0999 V2000
   25.5624  -20.9989   -8.8876 N   0  0  0  0  0  0  0  0  0  0  0  0
   24.5931  -20.8422   -9.8878 C   0  0  0  0  0  0  0  0  0  0  0  0
   23.3541  -20.7213   -9.5999 N   0  0  0  0  0  0  0  0  0  0  0  0
   24.9789  -20.8136  -11.2563 N   0  0  0  0  0  0  0  0  0  0  0  0
   26.2337  -21.3463  -11.6940 C   0  0  0  0  0  0  0  0  0  0  0  0
   27.2529  -20.2457  -11.7877 C   0  0  0  0  0  0  0  0  0  0  0  0
   27.2198  -19.6438  -13.1561 C   0  0  0  0  0  0  0  0  0  0  0  0
   26.3102  -20.4196  -14.0981 C   0  0  2  0  0  0  0  0  0  0  0  0
   26.9544  -21.6823  -14.4239 N   0  0  0  0  0  0  0  0  0  0  0  0
   26.0384  -19.6584  -15.3365 C   0  0  0  0  0  0  0  0  0  0  0  0
   25.6832  -18.4586  -15.2387 O   0  0  0  0  0  0  0  0  0  0  0  0
   22.5971  -20.6222  -10.3068 N   0  0  0  0  0  0  0  0  0  0  0  0
   28.9804  -20.1559  -20.4888 C   0  0  0  0  0  0  0  0  0  0  0  0
   28.0141  -19.2355  -20.9544 O   0  0  0  0  0  0  0  0  0  0  0  0
   28.1621  -18.6996  -22.0998 C   0  0  0  0  0  0  0  0  0  0  0  0
   26.8284  -18.8977  -20.1026 C   0  0  0  0  0  0  0  0  0  0  0  0
   26.9635  -19.6318  -18.7989 C   0  0  1  0  0  0  0  0  0  0  0  0
   25.8451  -19.3536  -17.8285 N   0  0  0  0  0  0  0  0  0  0  0  0
   26.1508  -20.1919  -16.6465 C   0  0  0  0  0  0  0  0  0  0  0  0
   24.5456  -19.7416  -18.3986 O   0  0  0  0  0  0  0  0  0  0  0  0
   24.2818  -20.9589  -18.5221 N   0  0  0  0  0  0  0  0  0  0  0  0
   21.5665  -21.6972  -15.4501 C   0  0  0  0  0  0  0  0  0  0  0  0
   20.7228  -20.5747  -15.3962 O   0  0  0  0  0  0  0  0  0  0  0  0
   19.6305  -20.6984  -14.7520 C   0  0  0  0  0  0  0  0  0  0  0  0
   21.0504  -19.2824  -16.0466 C   0  0  0  0  0  0  0  0  0  0  0  0
   22.4036  -19.3329  -16.7304 C   0  0  2  0  0  0  0  0  0  0  0  0
   22.3272  -18.7025  -18.1136 N   0  0  0  0  0  0  0  0  0  0  0  0
   23.5623  -18.8071  -18.8211 C   0  0  0  0  0  0  0  0  0  0  0  0
   21.8449  -17.2917  -18.0190 O   0  0  0  0  0  0  0  0  0  0  0  0
   22.5806  -16.3310  -17.6897 O   0  0  0  0  0  0  0  0  0  0  0  0
  2  1  1  0
  3  2  2  0
  4  2  1  0
  5  6  1  0
  5  4  1  0
  7  6  1  0
  8  7  1  0
  8  9  1  6
 10 11  2  0
 10  8  1  0
 13 12  1  0
 13 15  1  0
 14 13  2  0
 16 15  1  0
 17 16  1  1
 17 18  1  0
 18 10  1  0
 19 17  1  0
 19 27  1  0
 20 19  2  0
 22 21  1  0
 22 23  2  0
 24 22  1  0
 25 24  1  0
 26 27  1  0
 26 25  1  6
 28 26  1  0
 29 28  2  0
 30 28  1  0
M  END
$$$$
