RQQ.pdb
     RDKit          3D

 30 29  0  0  1  0  0  0  0  0999 V2000
   25.3329  -17.9873  -19.6412 N   0  0  0  0  0  0  0  0  0  0  0  0
   26.2551  -17.1814  -18.9595 C   0  0  0  0  0  0  0  0  0  0  0  0
   25.9361  -16.0193  -18.5348 N   0  0  0  0  0  0  0  0  0  0  0  0
   27.5767  -17.6515  -18.7258 N   0  0  0  0  0  0  0  0  0  0  0  0
   27.9952  -18.9550  -19.1451 C   0  0  0  0  0  0  0  0  0  0  0  0
   28.4955  -19.7373  -17.9633 C   0  0  0  0  0  0  0  0  0  0  0  0
   27.3381  -20.1824  -17.1276 C   0  0  0  0  0  0  0  0  0  0  0  0
   27.7853  -20.9998  -15.9240 C   0  0  2  0  0  0  0  0  0  0  0  0
   28.4139  -22.2204  -16.4045 N   0  0  0  0  0  0  0  0  0  0  0  0
   26.6454  -21.3334  -15.0430 C   0  0  0  0  0  0  0  0  0  0  0  0
   25.7717  -22.1292  -15.4658 O   0  0  0  0  0  0  0  0  0  0  0  0
   26.5980  -15.3659  -18.0684 N   0  0  0  0  0  0  0  0  0  0  0  0
   26.4084  -20.0717   -9.0193 C   0  0  0  0  0  0  0  0  0  0  0  0
   25.2272  -20.8428   -9.1087 O   0  0  0  0  0  0  0  0  0  0  0  0
   24.6048  -21.1588   -8.0438 C   0  0  0  0  0  0  0  0  0  0  0  0
   24.7174  -21.2815  -10.4478 C   0  0  0  0  0  0  0  0  0  0  0  0
   25.7484  -20.9264  -11.4811 C   0  0  1  0  0  0  0  0  0  0  0  0
   25.3442  -21.2839  -12.8878 N   0  0  0  0  0  0  0  0  0  0  0  0
   26.4633  -20.8126  -13.7357 C   0  0  0  0  0  0  0  0  0  0  0  0
   24.1002  -20.5967  -13.2681 O   0  0  0  0  0  0  0  0  0  0  0  0
   24.1242  -19.3563  -13.4338 N   0  0  0  0  0  0  0  0  0  0  0  0
   19.7365  -21.9845  -17.4493 C   0  0  0  0  0  0  0  0  0  0  0  0
   19.2900  -20.8093  -16.8213 O   0  0  0  0  0  0  0  0  0  0  0  0
   18.2968  -20.2097  -17.3480 C   0  0  0  0  0  0  0  0  0  0  0  0
   19.9183  -20.2555  -15.5970 C   0  0  0  0  0  0  0  0  0  0  0  0
   21.1320  -21.0651  -15.1815 C   0  0  2  0  0  0  0  0  0  0  0  0
   21.7123  -20.5289  -13.8807 N   0  0  0  0  0  0  0  0  0  0  0  0
   22.8611  -21.2645  -13.4609 C   0  0  0  0  0  0  0  0  0  0  0  0
   20.6584  -20.4702  -12.8234 O   0  0  0  0  0  0  0  0  0  0  0  0
   20.6207  -21.2497  -11.8418 O   0  0  0  0  0  0  0  0  0  0  0  0
  2  1  1  0
  3  2  2  0
  4  2  1  0
  5  6  1  0
  5  4  1  0
  7  6  1  0
  8  7  1  0
  8  9  1  6
 10 11  2  0
 10  8  1  0
 13 12  1  0
 13 15  1  0
 14 13  2  0
 16 15  1  0
 17 16  1  1
 17 18  1  0
 18 10  1  0
 19 17  1  0
 19 27  1  0
 20 19  2  0
 22 21  1  0
 22 23  2  0
 24 22  1  0
 25 24  1  0
 26 27  1  0
 26 25  1  6
 28 26  1  0
 29 28  2  0
 30 28  1  0
M  END
$$$$
