RQQ.pdb
     RDKit          3D

 30 29  0  0  1  0  0  0  0  0999 V2000
   21.8644  -18.3877  -20.8246 N   0  0  0  0  0  0  0  0  0  0  0  0
   20.7337  -18.1248  -20.0391 C   0  0  0  0  0  0  0  0  0  0  0  0
   19.5550  -18.1890  -20.5281 N   0  0  0  0  0  0  0  0  0  0  0  0
   20.8829  -17.7794  -18.6678 N   0  0  0  0  0  0  0  0  0  0  0  0
   22.1738  -17.6473  -18.0628 C   0  0  0  0  0  0  0  0  0  0  0  0
   22.9458  -18.9275  -18.2177 C   0  0  0  0  0  0  0  0  0  0  0  0
   22.8396  -19.7346  -16.9633 C   0  0  0  0  0  0  0  0  0  0  0  0
   24.2069  -20.0857  -16.3942 C   0  0  2  0  0  0  0  0  0  0  0  0
   24.8585  -21.0161  -17.3027 N   0  0  0  0  0  0  0  0  0  0  0  0
   24.0940  -20.6904  -15.0494 C   0  0  0  0  0  0  0  0  0  0  0  0
   24.0219  -21.9401  -14.9565 O   0  0  0  0  0  0  0  0  0  0  0  0
   18.6878  -17.9840  -19.9909 N   0  0  0  0  0  0  0  0  0  0  0  0
   26.8802  -21.3394  -10.8139 C   0  0  0  0  0  0  0  0  0  0  0  0
   25.8459  -21.2012   -9.8605 O   0  0  0  0  0  0  0  0  0  0  0  0
   25.9291  -21.8243   -8.7533 C   0  0  0  0  0  0  0  0  0  0  0  0
   24.6649  -20.3277  -10.1564 C   0  0  0  0  0  0  0  0  0  0  0  0
   24.7706  -19.8634  -11.5812 C   0  0  1  0  0  0  0  0  0  0  0  0
   23.9094  -20.6454  -12.5385 N   0  0  0  0  0  0  0  0  0  0  0  0
   24.0604  -19.9518  -13.8384 C   0  0  0  0  0  0  0  0  0  0  0  0
   22.5003  -20.6232  -12.1166 O   0  0  0  0  0  0  0  0  0  0  0  0
   21.9254  -19.5179  -11.9958 N   0  0  0  0  0  0  0  0  0  0  0  0
   17.8600  -23.5182   -7.4599 C   0  0  0  0  0  0  0  0  0  0  0  0
   18.5454  -23.7623   -8.6622 O   0  0  0  0  0  0  0  0  0  0  0  0
   18.9631  -24.9491   -8.8630 C   0  0  0  0  0  0  0  0  0  0  0  0
   18.7940  -22.7132   -9.6810 C   0  0  0  0  0  0  0  0  0  0  0  0
   20.2374  -22.7239  -10.1475 C   0  0  2  0  0  0  0  0  0  0  0  0
   20.4548  -21.6835  -11.2368 N   0  0  0  0  0  0  0  0  0  0  0  0
   21.7455  -21.7937  -11.8357 C   0  0  0  0  0  0  0  0  0  0  0  0
   20.1892  -20.3113  -10.7091 O   0  0  0  0  0  0  0  0  0  0  0  0
   20.9413  -19.7277   -9.8928 O   0  0  0  0  0  0  0  0  0  0  0  0
  2  1  1  0
  3  2  2  0
  4  2  1  0
  5  6  1  0
  5  4  1  0
  7  6  1  0
  8  7  1  0
  8  9  1  6
 10 11  2  0
 10  8  1  0
 13 12  1  0
 13 15  1  0
 14 13  2  0
 16 15  1  0
 17 16  1  6
 17 18  1  0
 18 10  1  0
 19 17  1  0
 19 27  1  0
 20 19  2  0
 22 21  1  0
 22 23  2  0
 24 22  1  0
 25 24  1  0
 26 27  1  0
 26 25  1  6
 28 26  1  0
 29 28  2  0
 30 28  1  0
M  END
$$$$
