RQQ.pdb
     RDKit          3D

 30 29  0  0  1  0  0  0  0  0999 V2000
   29.0439  -23.2818  -16.1763 N   0  0  0  0  0  0  0  0  0  0  0  0
   28.9540  -22.3469  -17.2167 C   0  0  0  0  0  0  0  0  0  0  0  0
   29.9477  -22.1082  -17.9837 N   0  0  0  0  0  0  0  0  0  0  0  0
   27.7393  -21.6415  -17.4385 N   0  0  0  0  0  0  0  0  0  0  0  0
   26.4787  -22.1612  -17.0018 C   0  0  0  0  0  0  0  0  0  0  0  0
   25.7074  -21.0936  -16.2778 C   0  0  0  0  0  0  0  0  0  0  0  0
   25.6310  -21.4269  -14.8220 C   0  0  0  0  0  0  0  0  0  0  0  0
   24.4825  -22.3770  -14.5144 C   0  0  2  0  0  0  0  0  0  0  0  0
   23.8679  -22.7780  -15.7703 N   0  0  0  0  0  0  0  0  0  0  0  0
   23.4735  -21.7408  -13.6404 C   0  0  0  0  0  0  0  0  0  0  0  0
   23.8193  -21.3750  -12.4906 O   0  0  0  0  0  0  0  0  0  0  0  0
   29.9464  -21.3876  -18.7342 N   0  0  0  0  0  0  0  0  0  0  0  0
   20.3044  -17.2003  -14.9498 C   0  0  0  0  0  0  0  0  0  0  0  0
   19.6390  -17.4247  -13.7231 O   0  0  0  0  0  0  0  0  0  0  0  0
   18.8430  -16.5390  -13.2726 C   0  0  0  0  0  0  0  0  0  0  0  0
   19.8728  -18.6957  -12.9646 C   0  0  0  0  0  0  0  0  0  0  0  0
   20.8496  -19.5321  -13.7413 C   0  0  1  0  0  0  0  0  0  0  0  0
   21.1913  -20.8394  -13.0750 N   0  0  0  0  0  0  0  0  0  0  0  0
   22.1232  -21.5101  -14.0105 C   0  0  0  0  0  0  0  0  0  0  0  0
   19.9875  -21.6638  -12.8861 O   0  0  0  0  0  0  0  0  0  0  0  0
   19.4821  -22.2282  -13.8824 N   0  0  0  0  0  0  0  0  0  0  0  0
   18.4912  -26.3202   -8.1232 C   0  0  0  0  0  0  0  0  0  0  0  0
   18.3959  -24.9765   -8.5233 O   0  0  0  0  0  0  0  0  0  0  0  0
   18.2459  -24.1055   -7.6055 C   0  0  0  0  0  0  0  0  0  0  0  0
   18.4620  -24.5462   -9.9414 C   0  0  0  0  0  0  0  0  0  0  0  0
   17.9177  -23.1416  -10.1208 C   0  0  2  0  0  0  0  0  0  0  0  0
   18.1718  -22.6469  -11.5375 N   0  0  0  0  0  0  0  0  0  0  0  0
   19.3587  -21.8594  -11.6272 C   0  0  0  0  0  0  0  0  0  0  0  0
   16.9724  -21.9276  -12.0628 O   0  0  0  0  0  0  0  0  0  0  0  0
   16.9164  -20.6817  -12.1933 O   0  0  0  0  0  0  0  0  0  0  0  0
  2  1  1  0
  3  2  2  0
  4  2  1  0
  5  6  1  0
  5  4  1  0
  7  6  1  0
  8  7  1  0
  8  9  1  6
 10 11  2  0
 10  8  1  0
 13 12  1  0
 13 15  1  0
 14 13  2  0
 16 15  1  0
 17 16  1  1
 17 18  1  0
 18 10  1  0
 19 17  1  0
 19 27  1  0
 20 19  2  0
 22 21  1  0
 22 23  2  0
 24 22  1  0
 25 24  1  0
 26 27  1  0
 26 25  1  6
 28 26  1  0
 29 28  2  0
 30 28  1  0
M  END
$$$$
