RQQ.pdb
     RDKit          3D

 30 29  0  0  1  0  0  0  0  0999 V2000
   20.0160  -24.9433  -13.7689 N   0  0  0  0  0  0  0  0  0  0  0  0
   18.6593  -24.6022  -13.6826 C   0  0  0  0  0  0  0  0  0  0  0  0
   17.8137  -25.0152  -14.5470 N   0  0  0  0  0  0  0  0  0  0  0  0
   18.1967  -23.7818  -12.6172 N   0  0  0  0  0  0  0  0  0  0  0  0
   18.7397  -23.8889  -11.2967 C   0  0  0  0  0  0  0  0  0  0  0  0
   17.6528  -24.2495  -10.3234 C   0  0  0  0  0  0  0  0  0  0  0  0
   18.1629  -24.1106   -8.9246 C   0  0  0  0  0  0  0  0  0  0  0  0
   18.7192  -25.4218   -8.3880 C   0  0  2  0  0  0  0  0  0  0  0  0
   18.7284  -26.3946   -9.4693 N   0  0  0  0  0  0  0  0  0  0  0  0
   17.9108  -25.9308   -7.2592 C   0  0  0  0  0  0  0  0  0  0  0  0
   16.8786  -26.5986   -7.5122 O   0  0  0  0  0  0  0  0  0  0  0  0
   16.8088  -24.7455  -14.5562 N   0  0  0  0  0  0  0  0  0  0  0  0
   19.8314  -27.5583   -1.7949 C   0  0  0  0  0  0  0  0  0  0  0  0
   18.4513  -27.5958   -1.4921 O   0  0  0  0  0  0  0  0  0  0  0  0
   18.0675  -28.0948   -0.3854 C   0  0  0  0  0  0  0  0  0  0  0  0
   17.4540  -27.0515   -2.4691 C   0  0  0  0  0  0  0  0  0  0  0  0
   18.1978  -26.5890   -3.6897 C   0  0  1  0  0  0  0  0  0  0  0  0
   17.2994  -26.1861   -4.8299 N   0  0  0  0  0  0  0  0  0  0  0  0
   18.2200  -25.7170   -5.8910 C   0  0  0  0  0  0  0  0  0  0  0  0
   16.3967  -25.0961   -4.4282 O   0  0  0  0  0  0  0  0  0  0  0  0
   16.7653  -23.9132   -4.6054 N   0  0  0  0  0  0  0  0  0  0  0  0
   15.1911  -22.8347    0.3394 C   0  0  0  0  0  0  0  0  0  0  0  0
   14.3354  -22.0450   -0.4474 O   0  0  0  0  0  0  0  0  0  0  0  0
   13.6344  -21.1686    0.1559 C   0  0  0  0  0  0  0  0  0  0  0  0
   14.2218  -22.1916   -1.9191 C   0  0  0  0  0  0  0  0  0  0  0  0
   15.1089  -23.3088   -2.4353 C   0  0  2  0  0  0  0  0  0  0  0  0
   14.3413  -24.1958   -3.4051 N   0  0  0  0  0  0  0  0  0  0  0  0
   15.1184  -25.3088   -3.8459 C   0  0  0  0  0  0  0  0  0  0  0  0
   13.8102  -23.3877   -4.5438 O   0  0  0  0  0  0  0  0  0  0  0  0
   14.5208  -22.9845   -5.4952 O   0  0  0  0  0  0  0  0  0  0  0  0
  2  1  1  0
  3  2  2  0
  4  2  1  0
  5  6  1  0
  5  4  1  0
  7  6  1  0
  8  7  1  0
  8  9  1  6
 10 11  2  0
 10  8  1  0
 13 12  1  0
 13 15  1  0
 14 13  2  0
 16 15  1  0
 17 16  1  6
 17 18  1  0
 18 10  1  0
 19 17  1  0
 19 27  1  0
 20 19  2  0
 22 21  1  0
 22 23  2  0
 24 22  1  0
 25 24  1  0
 26 27  1  0
 26 25  1  1
 28 26  1  0
 29 28  2  0
 30 28  1  0
M  END
$$$$
