RQQ.pdb
     RDKit          3D

 30 29  0  0  1  0  0  0  0  0999 V2000
   11.3464  -12.5756   -9.0632 N   0  0  0  0  0  0  0  0  0  0  0  0
   12.2173  -13.4313   -9.7516 C   0  0  0  0  0  0  0  0  0  0  0  0
   11.9586  -14.6752   -9.8863 N   0  0  0  0  0  0  0  0  0  0  0  0
   13.4173  -12.9212  -10.3192 N   0  0  0  0  0  0  0  0  0  0  0  0
   13.6648  -11.5140  -10.4127 C   0  0  0  0  0  0  0  0  0  0  0  0
   15.0192  -11.2711  -11.0173 C   0  0  0  0  0  0  0  0  0  0  0  0
   15.5145   -9.9184  -10.6160 C   0  0  0  0  0  0  0  0  0  0  0  0
   14.5368   -8.8167  -10.9990 C   0  0  2  0  0  0  0  0  0  0  0  0
   14.1457   -9.0103  -12.3865 N   0  0  0  0  0  0  0  0  0  0  0  0
   15.1376   -7.4764  -10.8273 C   0  0  0  0  0  0  0  0  0  0  0  0
   15.4666   -6.8296  -11.8514 O   0  0  0  0  0  0  0  0  0  0  0  0
   12.5785  -15.3509  -10.3781 N   0  0  0  0  0  0  0  0  0  0  0  0
   14.9017   -4.2540   -5.6190 C   0  0  0  0  0  0  0  0  0  0  0  0
   13.8164   -4.3390   -6.5204 O   0  0  0  0  0  0  0  0  0  0  0  0
   12.6381   -4.0934   -6.1049 C   0  0  0  0  0  0  0  0  0  0  0  0
   14.0569   -4.7152   -7.9508 C   0  0  0  0  0  0  0  0  0  0  0  0
   15.5235   -4.9922   -8.1222 C   0  0  2  0  0  0  0  0  0  0  0  0
   15.8918   -5.4727   -9.5018 N   0  0  0  0  0  0  0  0  0  0  0  0
   15.3735   -6.8583   -9.5720 C   0  0  0  0  0  0  0  0  0  0  0  0
   17.3513   -5.4710   -9.6870 O   0  0  0  0  0  0  0  0  0  0  0  0
   18.0507   -6.2158   -8.9639 N   0  0  0  0  0  0  0  0  0  0  0  0
   22.2017   -8.9336  -11.9117 C   0  0  0  0  0  0  0  0  0  0  0  0
   21.0712   -8.1780  -12.2661 O   0  0  0  0  0  0  0  0  0  0  0  0
   20.1592   -8.7716  -12.9289 C   0  0  0  0  0  0  0  0  0  0  0  0
   20.9056   -6.7487  -11.9052 C   0  0  0  0  0  0  0  0  0  0  0  0
   19.4851   -6.4488  -11.4651 C   0  0  1  0  0  0  0  0  0  0  0  0
   19.3515   -4.9914  -11.0475 N   0  0  0  0  0  0  0  0  0  0  0  0
   18.0205   -4.6664  -10.6479 C   0  0  0  0  0  0  0  0  0  0  0  0
   19.8561   -4.0902  -12.1269 O   0  0  0  0  0  0  0  0  0  0  0  0
   19.1042   -3.4553  -12.9042 O   0  0  0  0  0  0  0  0  0  0  0  0
  2  1  1  0
  3  2  2  0
  4  2  1  0
  5  6  1  0
  5  4  1  0
  7  6  1  0
  8  7  1  0
  8  9  1  6
 10 11  2  0
 10  8  1  0
 13 12  1  0
 13 15  1  0
 14 13  2  0
 16 15  1  0
 17 16  1  6
 17 18  1  0
 18 10  1  0
 19 17  1  0
 19 27  1  0
 20 19  2  0
 22 21  1  0
 22 23  2  0
 24 22  1  0
 25 24  1  0
 26 27  1  0
 26 25  1  1
 28 26  1  0
 29 28  2  0
 30 28  1  0
M  END
$$$$
