RQQ.pdb
     RDKit          3D

 30 29  0  0  1  0  0  0  0  0999 V2000
   26.0351  -35.4564   -8.9872 N   0  0  0  0  0  0  0  0  0  0  0  0
   25.5759  -34.9957  -10.2288 C   0  0  0  0  0  0  0  0  0  0  0  0
   25.5184  -35.7685  -11.2447 N   0  0  0  0  0  0  0  0  0  0  0  0
   25.1603  -33.6440  -10.3784 N   0  0  0  0  0  0  0  0  0  0  0  0
   25.0915  -32.7514   -9.2611 C   0  0  0  0  0  0  0  0  0  0  0  0
   24.1100  -33.2722   -8.2489 C   0  0  0  0  0  0  0  0  0  0  0  0
   23.9958  -32.3051   -7.1142 C   0  0  0  0  0  0  0  0  0  0  0  0
   22.7588  -31.4267   -7.2363 C   0  0  2  0  0  0  0  0  0  0  0  0
   23.0169  -30.4053   -8.2392 N   0  0  0  0  0  0  0  0  0  0  0  0
   22.4174  -30.7906   -5.9457 C   0  0  0  0  0  0  0  0  0  0  0  0
   22.6808  -29.5737   -5.7872 O   0  0  0  0  0  0  0  0  0  0  0  0
   25.2490  -35.4577  -12.2004 N   0  0  0  0  0  0  0  0  0  0  0  0
   18.6497  -27.8884   -5.0006 C   0  0  0  0  0  0  0  0  0  0  0  0
   18.8503  -27.9097   -3.6016 O   0  0  0  0  0  0  0  0  0  0  0  0
   18.2317  -27.0722   -2.8687 C   0  0  0  0  0  0  0  0  0  0  0  0
   19.7838  -28.9113   -2.9928 C   0  0  0  0  0  0  0  0  0  0  0  0
   20.3601  -29.7480   -4.0994 C   0  0  1  0  0  0  0  0  0  0  0  0
   21.4138  -30.7207   -3.6374 N   0  0  0  0  0  0  0  0  0  0  0  0
   21.8052  -31.4640   -4.8571 C   0  0  0  0  0  0  0  0  0  0  0  0
   20.8688  -31.6493   -2.6349 O   0  0  0  0  0  0  0  0  0  0  0  0
   19.9025  -32.3787   -2.9526 N   0  0  0  0  0  0  0  0  0  0  0  0
   16.3552  -33.1552   -2.0099 C   0  0  0  0  0  0  0  0  0  0  0  0
   17.3290  -33.8776   -1.2995 O   0  0  0  0  0  0  0  0  0  0  0  0
   16.9148  -34.7481   -0.4663 C   0  0  0  0  0  0  0  0  0  0  0  0
   18.7863  -33.6683   -1.4806 C   0  0  0  0  0  0  0  0  0  0  0  0
   19.3615  -32.7929   -0.3832 C   0  0  1  0  0  0  0  0  0  0  0  0
   20.8821  -32.7865   -0.4466 N   0  0  0  0  0  0  0  0  0  0  0  0
   21.3797  -31.7687   -1.3146 C   0  0  0  0  0  0  0  0  0  0  0  0
   21.3957  -34.1420   -0.8083 O   0  0  0  0  0  0  0  0  0  0  0  0
   22.0038  -34.3876   -1.8772 O   0  0  0  0  0  0  0  0  0  0  0  0
  2  1  1  0
  3  2  2  0
  4  2  1  0
  5  6  1  0
  5  4  1  0
  7  6  1  0
  8  7  1  0
  8  9  1  6
 10 11  2  0
 10  8  1  0
 13 12  1  0
 13 15  1  0
 14 13  2  0
 16 15  1  0
 17 16  1  6
 17 18  1  0
 18 10  1  0
 19 17  1  0
 19 27  1  0
 20 19  2  0
 22 21  1  0
 22 23  2  0
 24 22  1  0
 25 24  1  0
 26 27  1  0
 26 25  1  1
 28 26  1  0
 29 28  2  0
 30 28  1  0
M  END
$$$$
