LLK.pdb
     RDKit          3D

 26 25  0  0  1  0  0  0  0  0999 V2000
    7.4505  -12.3184   19.0886 C   0  0  0  0  0  0  0  0  0  0  0  0
    7.7930  -13.7404   19.4186 C   0  0  1  0  0  0  0  0  0  0  0  0
    8.4339  -14.4608   18.2389 C   0  0  0  0  0  0  0  0  0  0  0  0
    8.6595  -13.8671   20.6480 C   0  0  0  0  0  0  0  0  0  0  0  0
    8.3069  -15.1207   21.3957 C   0  0  2  0  0  0  0  0  0  0  0  0
    6.8871  -15.3630   21.4042 N   0  0  0  0  0  0  0  0  0  0  0  0
    8.7846  -15.0361   22.7983 C   0  0  0  0  0  0  0  0  0  0  0  0
   10.0032  -14.8186   23.0000 O   0  0  0  0  0  0  0  0  0  0  0  0
    8.0885  -12.0834   26.1213 C   0  0  0  0  0  0  0  0  0  0  0  0
    6.9412  -12.9931   25.6198 C   0  0  2  0  0  0  0  0  0  0  0  0
    5.6726  -12.4883   26.2801 C   0  0  0  0  0  0  0  0  0  0  0  0
    7.2612  -14.3878   26.0038 C   0  0  0  0  0  0  0  0  0  0  0  0
    8.3550  -15.0773   25.2754 C   0  0  2  0  0  0  0  0  0  0  0  0
    7.8687  -15.2023   23.8841 N   0  0  0  0  0  0  0  0  0  0  0  0
    8.7278  -16.4116   25.7880 C   0  0  0  0  0  0  0  0  0  0  0  0
    7.8382  -17.2935   25.8790 O   0  0  0  0  0  0  0  0  0  0  0  0
   10.0448  -16.7409   26.1784 N   0  0  0  0  0  0  0  0  0  0  0  0
   10.3022  -18.1337   26.5913 C   0  0  1  0  0  0  0  0  0  0  0  0
   11.5730  -18.5346   25.8709 C   0  0  0  0  0  0  0  0  0  0  0  0
   12.1091  -19.8656   26.2832 C   0  0  0  0  0  0  0  0  0  0  0  0
   13.3819  -20.0898   25.4620 C   0  0  0  0  0  0  0  0  0  0  0  0
   13.9210  -21.4944   25.6782 C   0  0  0  0  0  0  0  0  0  0  0  0
   14.9734  -21.7051   24.6817 N   0  0  0  0  0  0  0  0  0  0  0  0
   10.4222  -18.1947   28.0627 C   0  0  0  0  0  0  0  0  0  0  0  0
   10.2500  -19.3961   28.7212 O   0  0  0  0  0  0  0  0  0  0  0  0
   10.6772  -17.1805   28.7403 O   0  0  0  0  0  0  0  0  0  0  0  0
  2  1  1  6
  2  4  1  0
  3  2  1  0
  5  6  1  1
  5  4  1  0
  7  5  1  0
  8  7  2  0
 10  9  1  1
 10 12  1  0
 11 10  1  0
 13 12  1  1
 13 14  1  0
 14  7  1  0
 15 13  1  0
 15 17  1  0
 16 15  2  0
 18 19  1  6
 18 17  1  0
 18 24  1  0
 20 21  1  0
 20 19  1  0
 21 22  1  0
 22 23  1  0
 24 25  1  0
 26 24  2  0
M  END
$$$$
