LLK.pdb
     RDKit          3D

 26 25  0  0  1  0  0  0  0  0999 V2000
    7.9574  -11.9072   19.4076 C   0  0  0  0  0  0  0  0  0  0  0  0
    7.8824  -13.2926   19.9763 C   0  0  1  0  0  0  0  0  0  0  0  0
    8.3654  -14.3430   18.9839 C   0  0  0  0  0  0  0  0  0  0  0  0
    8.6149  -13.4307   21.2888 C   0  0  0  0  0  0  0  0  0  0  0  0
    8.3706  -14.7934   21.8704 C   0  0  2  0  0  0  0  0  0  0  0  0
    7.0236  -15.2468   21.6365 N   0  0  0  0  0  0  0  0  0  0  0  0
    8.6228  -14.7827   23.3328 C   0  0  0  0  0  0  0  0  0  0  0  0
    9.8097  -14.7094   23.7317 O   0  0  0  0  0  0  0  0  0  0  0  0
    8.0449  -12.0372   26.7456 C   0  0  0  0  0  0  0  0  0  0  0  0
    6.7819  -12.6219   26.0686 C   0  0  2  0  0  0  0  0  0  0  0  0
    5.5948  -11.9015   26.6788 C   0  0  0  0  0  0  0  0  0  0  0  0
    6.7541  -14.0796   26.3321 C   0  0  0  0  0  0  0  0  0  0  0  0
    7.8048  -14.9205   25.7064 C   0  0  2  0  0  0  0  0  0  0  0  0
    7.5315  -14.8566   24.2542 N   0  0  0  0  0  0  0  0  0  0  0  0
    7.8402  -16.3326   26.1387 C   0  0  0  0  0  0  0  0  0  0  0  0
    7.9167  -16.5864   27.3663 O   0  0  0  0  0  0  0  0  0  0  0  0
    7.7884  -17.4127   25.2298 N   0  0  0  0  0  0  0  0  0  0  0  0
    7.8008  -18.7758   25.7940 C   0  0  1  0  0  0  0  0  0  0  0  0
    6.9972  -19.6164   24.8233 C   0  0  0  0  0  0  0  0  0  0  0  0
    6.8358  -21.0397   25.2437 C   0  0  0  0  0  0  0  0  0  0  0  0
    6.0703  -21.7372   24.1158 C   0  0  0  0  0  0  0  0  0  0  0  0
    5.7745  -23.1829   24.4805 C   0  0  0  0  0  0  0  0  0  0  0  0
    5.0182  -23.7575   23.3657 N   0  0  0  0  0  0  0  0  0  0  0  0
    9.1981  -19.2325   25.9423 C   0  0  0  0  0  0  0  0  0  0  0  0
    9.5192  -20.1773   26.8967 O   0  0  0  0  0  0  0  0  0  0  0  0
   10.1119  -18.7850   25.2227 O   0  0  0  0  0  0  0  0  0  0  0  0
  2  1  1  6
  2  4  1  0
  3  2  1  0
  5  6  1  1
  5  4  1  0
  7  5  1  0
  8  7  2  0
 10  9  1  1
 10 12  1  0
 11 10  1  0
 13 12  1  1
 13 14  1  0
 14  7  1  0
 15 13  1  0
 15 17  1  0
 16 15  2  0
 18 19  1  6
 18 17  1  0
 18 24  1  0
 20 21  1  0
 20 19  1  0
 21 22  1  0
 22 23  1  0
 24 25  1  0
 26 24  2  0
M  END
$$$$
