LLK.pdb
     RDKit          3D

 26 25  0  0  1  0  0  0  0  0999 V2000
    7.5829  -12.1539   18.5198 C   0  0  0  0  0  0  0  0  0  0  0  0
    7.5634  -13.4448   19.2823 C   0  0  1  0  0  0  0  0  0  0  0  0
    7.9564  -14.6292   18.4081 C   0  0  0  0  0  0  0  0  0  0  0  0
    8.4129  -13.4048   20.5293 C   0  0  0  0  0  0  0  0  0  0  0  0
    8.2934  -14.7045   21.2720 C   0  0  2  0  0  0  0  0  0  0  0  0
    6.9205  -15.1082   21.4362 N   0  0  0  0  0  0  0  0  0  0  0  0
    8.9209  -14.5921   22.6122 C   0  0  0  0  0  0  0  0  0  0  0  0
   10.1264  -14.2523   22.6785 O   0  0  0  0  0  0  0  0  0  0  0  0
    8.0816  -11.7946   26.1200 C   0  0  0  0  0  0  0  0  0  0  0  0
    7.0437  -12.8721   25.7237 C   0  0  2  0  0  0  0  0  0  0  0  0
    5.8126  -12.6153   26.5717 C   0  0  0  0  0  0  0  0  0  0  0  0
    7.6417  -14.2022   25.9848 C   0  0  0  0  0  0  0  0  0  0  0  0
    8.7657  -14.6421   25.1213 C   0  0  2  0  0  0  0  0  0  0  0  0
    8.1600  -14.8690   23.7911 N   0  0  0  0  0  0  0  0  0  0  0  0
    9.4701  -15.8655   25.5564 C   0  0  0  0  0  0  0  0  0  0  0  0
    8.8973  -16.9743   25.4156 O   0  0  0  0  0  0  0  0  0  0  0  0
   10.7643  -15.8432   26.1221 N   0  0  0  0  0  0  0  0  0  0  0  0
   11.3846  -17.1412   26.4490 C   0  0  1  0  0  0  0  0  0  0  0  0
   10.3793  -17.8527   27.3310 C   0  0  0  0  0  0  0  0  0  0  0  0
   10.7674  -19.2495   27.6874 C   0  0  0  0  0  0  0  0  0  0  0  0
   10.6287  -19.3595   29.2084 C   0  0  0  0  0  0  0  0  0  0  0  0
   11.1269  -20.7096   29.6976 C   0  0  0  0  0  0  0  0  0  0  0  0
   10.8349  -20.7779   31.1311 N   0  0  0  0  0  0  0  0  0  0  0  0
   11.6829  -17.8708   25.1992 C   0  0  0  0  0  0  0  0  0  0  0  0
   12.8641  -18.5749   25.0748 O   0  0  0  0  0  0  0  0  0  0  0  0
   10.8904  -17.8710   24.2375 O   0  0  0  0  0  0  0  0  0  0  0  0
  2  1  1  6
  2  4  1  0
  3  2  1  0
  5  6  1  1
  5  4  1  0
  7  5  1  0
  8  7  2  0
 10  9  1  1
 10 12  1  0
 11 10  1  0
 13 12  1  1
 13 14  1  0
 14  7  1  0
 15 13  1  0
 15 17  1  0
 16 15  2  0
 18 19  1  1
 18 17  1  0
 18 24  1  0
 20 21  1  0
 20 19  1  0
 21 22  1  0
 22 23  1  0
 24 25  1  0
 26 24  2  0
M  END
$$$$
