LLK.pdb
     RDKit          3D

 26 25  0  0  1  0  0  0  0  0999 V2000
    7.3329  -12.7056   18.5406 C   0  0  0  0  0  0  0  0  0  0  0  0
    7.7059  -13.8938   19.3758 C   0  0  1  0  0  0  0  0  0  0  0  0
    8.7787  -14.7453   18.7086 C   0  0  0  0  0  0  0  0  0  0  0  0
    8.1247  -13.5203   20.7770 C   0  0  0  0  0  0  0  0  0  0  0  0
    8.4013  -14.7609   21.5764 C   0  0  2  0  0  0  0  0  0  0  0  0
    7.2772  -15.6615   21.5819 N   0  0  0  0  0  0  0  0  0  0  0  0
    8.7355  -14.4071   22.9784 C   0  0  0  0  0  0  0  0  0  0  0  0
    9.8456  -13.8706   23.2085 O   0  0  0  0  0  0  0  0  0  0  0  0
    7.6686  -11.6853   26.5543 C   0  0  0  0  0  0  0  0  0  0  0  0
    6.5339  -12.5645   25.9758 C   0  0  2  0  0  0  0  0  0  0  0  0
    5.2897  -12.2458   26.7826 C   0  0  0  0  0  0  0  0  0  0  0  0
    6.9424  -13.9828   26.1045 C   0  0  0  0  0  0  0  0  0  0  0  0
    8.1956  -14.4101   25.4342 C   0  0  2  0  0  0  0  0  0  0  0  0
    7.8075  -14.6782   24.0323 N   0  0  0  0  0  0  0  0  0  0  0  0
    8.8519  -15.6063   26.0003 C   0  0  0  0  0  0  0  0  0  0  0  0
    9.0434  -15.6598   27.2404 O   0  0  0  0  0  0  0  0  0  0  0  0
    9.2717  -16.6968   25.2065 N   0  0  0  0  0  0  0  0  0  0  0  0
   10.0138  -17.7800   25.8791 C   0  0  1  0  0  0  0  0  0  0  0  0
    9.3799  -19.0640   25.3849 C   0  0  0  0  0  0  0  0  0  0  0  0
   10.0086  -20.3011   25.9355 C   0  0  0  0  0  0  0  0  0  0  0  0
    9.3223  -21.4791   25.2384 C   0  0  0  0  0  0  0  0  0  0  0  0
    9.7665  -22.7983   25.8490 C   0  0  0  0  0  0  0  0  0  0  0  0
    8.9829  -23.8528   25.2019 N   0  0  0  0  0  0  0  0  0  0  0  0
   11.4490  -17.6721   25.5449 C   0  0  0  0  0  0  0  0  0  0  0  0
   11.8729  -16.7537   24.6050 O   0  0  0  0  0  0  0  0  0  0  0  0
   12.3037  -18.3954   26.0920 O   0  0  0  0  0  0  0  0  0  0  0  0
  2  1  1  6
  2  4  1  0
  3  2  1  0
  5  6  1  1
  5  4  1  0
  7  5  1  0
  8  7  2  0
 10  9  1  1
 10 12  1  0
 11 10  1  0
 13 12  1  1
 13 14  1  0
 14  7  1  0
 15 13  1  0
 15 17  1  0
 16 15  2  0
 18 19  1  6
 18 17  1  0
 18 24  1  0
 20 21  1  0
 20 19  1  0
 21 22  1  0
 22 23  1  0
 24 25  1  0
 26 24  2  0
M  END
$$$$
