LLK.pdb
     RDKit          3D

 26 25  0  0  1  0  0  0  0  0999 V2000
    7.2998  -18.2591   19.1421 C   0  0  0  0  0  0  0  0  0  0  0  0
    6.4181  -18.0752   20.3409 C   0  0  1  0  0  0  0  0  0  0  0  0
    5.5929  -19.3210   20.6380 C   0  0  0  0  0  0  0  0  0  0  0  0
    7.1789  -17.6409   21.5702 C   0  0  0  0  0  0  0  0  0  0  0  0
    7.2987  -16.1443   21.5958 C   0  0  2  0  0  0  0  0  0  0  0  0
    7.9344  -15.6332   20.4086 N   0  0  0  0  0  0  0  0  0  0  0  0
    8.0808  -15.7099   22.7799 C   0  0  0  0  0  0  0  0  0  0  0  0
    9.3297  -15.6524   22.6801 O   0  0  0  0  0  0  0  0  0  0  0  0
    7.8751  -11.9645   25.4185 C   0  0  0  0  0  0  0  0  0  0  0  0
    6.7204  -12.9876   25.5416 C   0  0  2  0  0  0  0  0  0  0  0  0
    5.7026  -12.3754   26.4847 C   0  0  0  0  0  0  0  0  0  0  0  0
    7.2843  -14.2541   26.0642 C   0  0  0  0  0  0  0  0  0  0  0  0
    8.2141  -15.0145   25.1926 C   0  0  2  0  0  0  0  0  0  0  0  0
    7.4154  -15.3699   23.9994 N   0  0  0  0  0  0  0  0  0  0  0  0
    8.7902  -16.2404   25.7820 C   0  0  0  0  0  0  0  0  0  0  0  0
    8.0297  -17.2114   26.0190 O   0  0  0  0  0  0  0  0  0  0  0  0
   10.1631  -16.3700   26.0885 N   0  0  0  0  0  0  0  0  0  0  0  0
   10.6228  -17.6726   26.6066 C   0  0  1  0  0  0  0  0  0  0  0  0
   11.8649  -18.0044   25.8054 C   0  0  0  0  0  0  0  0  0  0  0  0
   12.5879  -19.2198   26.2839 C   0  0  0  0  0  0  0  0  0  0  0  0
   13.8206  -19.3676   25.3877 C   0  0  0  0  0  0  0  0  0  0  0  0
   14.6668  -20.5510   25.8279 C   0  0  0  0  0  0  0  0  0  0  0  0
   15.7927  -20.6402   24.8956 N   0  0  0  0  0  0  0  0  0  0  0  0
   10.8778  -17.5607   28.0577 C   0  0  0  0  0  0  0  0  0  0  0  0
   10.7779  -16.3346   28.6848 O   0  0  0  0  0  0  0  0  0  0  0  0
   11.1859  -18.5531   28.7456 O   0  0  0  0  0  0  0  0  0  0  0  0
  2  1  1  6
  2  4  1  0
  3  2  1  0
  5  6  1  6
  5  4  1  0
  7  5  1  0
  8  7  2  0
 10  9  1  1
 10 12  1  0
 11 10  1  0
 13 12  1  1
 13 14  1  0
 14  7  1  0
 15 13  1  0
 15 17  1  0
 16 15  2  0
 18 19  1  6
 18 17  1  0
 18 24  1  0
 20 21  1  0
 20 19  1  0
 21 22  1  0
 22 23  1  0
 24 25  1  0
 26 24  2  0
M  END
$$$$
