LLK.pdb
     RDKit          3D

 26 25  0  0  1  0  0  0  0  0999 V2000
    6.8244  -22.2237   23.5340 C   0  0  0  0  0  0  0  0  0  0  0  0
    6.3315  -21.1481   24.4552 C   0  0  1  0  0  0  0  0  0  0  0  0
    6.2874  -21.6151   25.9047 C   0  0  0  0  0  0  0  0  0  0  0  0
    7.1193  -19.8660   24.3378 C   0  0  0  0  0  0  0  0  0  0  0  0
    6.2719  -18.8007   23.7038 C   0  0  2  0  0  0  0  0  0  0  0  0
    5.9984  -19.0821   22.3179 N   0  0  0  0  0  0  0  0  0  0  0  0
    6.9455  -17.4817   23.7985 C   0  0  0  0  0  0  0  0  0  0  0  0
    7.8455  -17.2119   22.9677 O   0  0  0  0  0  0  0  0  0  0  0  0
    5.9600  -12.4223   27.0975 C   0  0  0  0  0  0  0  0  0  0  0  0
    7.0350  -13.1134   26.2246 C   0  0  2  0  0  0  0  0  0  0  0  0
    7.3789  -12.1385   25.1147 C   0  0  0  0  0  0  0  0  0  0  0  0
    6.4620  -14.3780   25.7078 C   0  0  0  0  0  0  0  0  0  0  0  0
    7.3733  -15.3252   25.0187 C   0  0  2  0  0  0  0  0  0  0  0  0
    6.5702  -16.5509   24.8174 N   0  0  0  0  0  0  0  0  0  0  0  0
    8.6154  -15.6643   25.7427 C   0  0  0  0  0  0  0  0  0  0  0  0
    8.5484  -16.4466   26.7229 O   0  0  0  0  0  0  0  0  0  0  0  0
    9.8789  -15.1484   25.3781 N   0  0  0  0  0  0  0  0  0  0  0  0
   11.0704  -15.9080   25.8024 C   0  0  1  0  0  0  0  0  0  0  0  0
   12.1304  -15.5987   24.7654 C   0  0  0  0  0  0  0  0  0  0  0  0
   13.4353  -16.2814   25.0105 C   0  0  0  0  0  0  0  0  0  0  0  0
   13.8935  -16.8320   23.6571 C   0  0  0  0  0  0  0  0  0  0  0  0
   15.2562  -17.4941   23.7794 C   0  0  0  0  0  0  0  0  0  0  0  0
   15.6194  -17.9718   22.4434 N   0  0  0  0  0  0  0  0  0  0  0  0
   11.4537  -15.4962   27.1686 C   0  0  0  0  0  0  0  0  0  0  0  0
   12.3373  -14.4514   27.3534 O   0  0  0  0  0  0  0  0  0  0  0  0
   10.9985  -16.0707   28.1764 O   0  0  0  0  0  0  0  0  0  0  0  0
  2  1  1  6
  2  4  1  0
  3  2  1  0
  5  6  1  6
  5  4  1  0
  7  5  1  0
  8  7  2  0
 10  9  1  1
 10 12  1  0
 11 10  1  0
 13 12  1  1
 13 14  1  0
 14  7  1  0
 15 13  1  0
 15 17  1  0
 16 15  2  0
 18 19  1  6
 18 17  1  0
 18 24  1  0
 20 21  1  0
 20 19  1  0
 21 22  1  0
 22 23  1  0
 24 25  1  0
 26 24  2  0
M  END
$$$$
