RWY.pdb
     RDKit          3D

 38 40  0  0  1  0  0  0  0  0999 V2000
    7.4220  -19.8019   14.8336 N   0  0  0  0  0  0  0  0  0  0  0  0
    7.6810  -18.7605   13.9076 C   0  0  0  0  0  0  0  0  0  0  0  0
    7.1529  -18.8059   12.7385 N   0  0  0  0  0  0  0  0  0  0  0  0
    8.5136  -17.6598   14.2325 N   0  0  0  0  0  0  0  0  0  0  0  0
    9.3038  -17.5779   15.4614 C   0  0  0  0  0  0  0  0  0  0  0  0
    8.3294  -17.3393   16.5864 C   0  0  0  0  0  0  0  0  0  0  0  0
    8.9680  -16.5035   17.6587 C   0  0  0  0  0  0  0  0  0  0  0  0
    9.3139  -17.3192   18.8440 C   0  0  2  0  0  0  0  0  0  0  0  0
    8.3657  -18.3328   19.1739 N   0  0  0  0  0  0  0  0  0  0  0  0
    9.6771  -16.4796   20.0350 C   0  0  0  0  0  0  0  0  0  0  0  0
   10.5534  -15.5865   19.8819 O   0  0  0  0  0  0  0  0  0  0  0  0
    7.3022  -18.0414   12.0470 N   0  0  0  0  0  0  0  0  0  0  0  0
    9.1136  -16.6157   21.3079 C   0  0  1  0  0  0  0  0  0  0  0  0
    9.4546  -15.7940   22.4654 C   0  0  0  0  0  0  0  0  0  0  0  0
    8.4053  -16.0981   23.5119 C   0  0  0  0  0  0  0  0  0  0  0  0
    7.4389  -15.0174   23.7236 C   0  0  0  0  0  0  0  0  0  0  0  0
    6.2749  -14.8073   22.9806 N   0  0  0  0  0  0  0  0  0  0  0  0
    5.6699  -13.7218   23.4884 C   0  0  0  0  0  0  0  0  0  0  0  0
    6.4090  -13.2424   24.5212 C   0  0  0  0  0  0  0  0  0  0  0  0
    6.2709  -12.1749   25.3880 C   0  0  0  0  0  0  0  0  0  0  0  0
    7.2144  -11.9448   26.3573 C   0  0  0  0  0  0  0  0  0  0  0  0
    8.3280  -12.7527   26.5125 C   0  0  0  0  0  0  0  0  0  0  0  0
    8.4689  -13.8100   25.6574 C   0  0  0  0  0  0  0  0  0  0  0  0
    7.5188  -14.0471   24.6762 C   0  0  0  0  0  0  0  0  0  0  0  0
   10.7604  -16.2339   23.0523 O   0  0  0  0  0  0  0  0  0  0  0  0
   11.7822  -15.6131   22.7041 O   0  0  0  0  0  0  0  0  0  0  0  0
   10.9435  -14.7960   31.3344 C   0  0  0  0  0  0  0  0  0  0  0  0
   10.7613  -15.0891   29.9898 C   0  0  0  0  0  0  0  0  0  0  0  0
   10.4093  -16.3909   29.6440 C   0  0  0  0  0  0  0  0  0  0  0  0
   10.2317  -16.6699   28.3084 C   0  0  0  0  0  0  0  0  0  0  0  0
   10.3912  -15.7068   27.3156 C   0  0  0  0  0  0  0  0  0  0  0  0
   10.2048  -16.0497   25.8941 C   0  0  1  0  0  0  0  0  0  0  0  0
   11.1770  -17.0348   25.3425 N   0  0  0  0  0  0  0  0  0  0  0  0
   10.8368  -17.3006   23.9574 C   0  0  0  0  0  0  0  0  0  0  0  0
   11.2033  -18.2859   26.1423 O   0  0  0  0  0  0  0  0  0  0  0  0
   10.1571  -19.2073   26.0891 C   0  0  0  0  0  0  0  0  0  0  0  0
   10.7405  -14.4165   27.6647 C   0  0  0  0  0  0  0  0  0  0  0  0
   10.9164  -14.1419   29.0001 O   0  0  0  0  0  0  0  0  0  0  0  0
  2  3  2  0
  2  1  1  0
  4  2  1  0
  5  4  1  0
  6  7  1  0
  6  5  1  0
  8 10  1  0
  8  7  1  0
  8  9  1  1
 10 12  1  0
 11 10  2  0
 12 13  1  0
 13 24  1  0
 13 14  1  6
 14 15  1  0
 15 16  2  0
 17 16  1  0
 18 17  1  0
 19 18  2  0
 20 19  1  0
 21 22  1  0
 21 20  2  0
 22 23  2  0
 23 18  1  0
 23 15  1  0
 24 25  2  0
 24 33  1  0
 27 26  1  0
 27 37  2  0
 28 27  1  0
 29 28  2  0
 29 30  1  0
 30 36  2  0
 31 30  1  0
 32 31  1  6
 33 32  1  0
 34 32  1  0
 34 35  1  0
 36 37  1  0
 38 34  2  0
M  END
$$$$
