RWY.pdb
     RDKit          3D

 38 40  0  0  1  0  0  0  0  0999 V2000
    7.5357  -12.8357   16.0656 N   0  0  0  0  0  0  0  0  0  0  0  0
    8.2932  -13.5064   15.0729 C   0  0  0  0  0  0  0  0  0  0  0  0
    8.6434  -12.8776   14.0100 N   0  0  0  0  0  0  0  0  0  0  0  0
    8.6799  -14.8631   15.2157 N   0  0  0  0  0  0  0  0  0  0  0  0
    8.2291  -15.7220   16.3114 C   0  0  0  0  0  0  0  0  0  0  0  0
    9.4541  -16.4190   16.8458 C   0  0  0  0  0  0  0  0  0  0  0  0
    9.7474  -15.9556   18.2442 C   0  0  0  0  0  0  0  0  0  0  0  0
    9.7902  -17.0920   19.1912 C   0  0  2  0  0  0  0  0  0  0  0  0
    8.8564  -18.1360   18.9202 N   0  0  0  0  0  0  0  0  0  0  0  0
    9.7382  -16.6491   20.6252 C   0  0  0  0  0  0  0  0  0  0  0  0
   10.7224  -16.0060   21.0798 O   0  0  0  0  0  0  0  0  0  0  0  0
    9.2308  -13.3330   13.2804 N   0  0  0  0  0  0  0  0  0  0  0  0
    8.6746  -16.8988   21.4985 C   0  0  1  0  0  0  0  0  0  0  0  0
    8.6570  -16.5496   22.9159 C   0  0  0  0  0  0  0  0  0  0  0  0
    7.2639  -16.0308   23.1967 C   0  0  0  0  0  0  0  0  0  0  0  0
    7.1783  -14.5723   23.3066 C   0  0  0  0  0  0  0  0  0  0  0  0
    7.2983  -13.6665   22.2500 N   0  0  0  0  0  0  0  0  0  0  0  0
    7.1600  -12.4346   22.7651 C   0  0  0  0  0  0  0  0  0  0  0  0
    6.9579  -12.5319   24.1039 C   0  0  0  0  0  0  0  0  0  0  0  0
    6.7577  -11.6115   25.1152 C   0  0  0  0  0  0  0  0  0  0  0  0
    6.5778  -12.0335   26.4085 C   0  0  0  0  0  0  0  0  0  0  0  0
    6.5877  -13.3732   26.7578 C   0  0  0  0  0  0  0  0  0  0  0  0
    6.7854  -14.2874   25.7607 C   0  0  0  0  0  0  0  0  0  0  0  0
    6.9677  -13.8667   24.4524 C   0  0  0  0  0  0  0  0  0  0  0  0
    8.8163  -17.7774   23.7587 O   0  0  0  0  0  0  0  0  0  0  0  0
    9.5638  -18.6748   23.3268 O   0  0  0  0  0  0  0  0  0  0  0  0
   12.7449  -16.1472   31.0352 C   0  0  0  0  0  0  0  0  0  0  0  0
   11.9972  -16.2850   29.8737 C   0  0  0  0  0  0  0  0  0  0  0  0
   10.9506  -15.3928   29.6576 C   0  0  0  0  0  0  0  0  0  0  0  0
   10.2162  -15.5391   28.5033 C   0  0  0  0  0  0  0  0  0  0  0  0
   10.4855  -16.5334   27.5666 C   0  0  0  0  0  0  0  0  0  0  0  0
    9.6660  -16.6649   26.3483 C   0  0  1  0  0  0  0  0  0  0  0  0
    8.9276  -17.9517   26.2117 N   0  0  0  0  0  0  0  0  0  0  0  0
    8.1536  -17.9176   24.9851 C   0  0  0  0  0  0  0  0  0  0  0  0
    8.0625  -18.2151   27.3898 O   0  0  0  0  0  0  0  0  0  0  0  0
    6.8094  -17.6164   27.5223 C   0  0  0  0  0  0  0  0  0  0  0  0
   11.5255  -17.4160   27.7863 C   0  0  0  0  0  0  0  0  0  0  0  0
   12.2570  -17.2659   28.9404 O   0  0  0  0  0  0  0  0  0  0  0  0
  2  3  2  0
  2  1  1  0
  4  2  1  0
  5  4  1  0
  6  7  1  0
  6  5  1  0
  8 10  1  0
  8  7  1  0
  8  9  1  6
 10 12  1  0
 11 10  2  0
 12 13  1  0
 13 24  1  0
 13 14  1  1
 14 15  1  0
 15 16  2  0
 17 16  1  0
 18 17  1  0
 19 18  2  0
 20 19  1  0
 21 22  1  0
 21 20  2  0
 22 23  2  0
 23 18  1  0
 23 15  1  0
 24 25  2  0
 24 33  1  0
 27 26  1  0
 27 37  2  0
 28 27  1  0
 29 28  2  0
 29 30  1  0
 30 36  2  0
 31 30  1  0
 32 31  1  6
 33 32  1  0
 34 32  1  0
 34 35  1  0
 36 37  1  0
 38 34  2  0
M  END
$$$$
