RWY.pdb
     RDKit          3D

 38 40  0  0  1  0  0  0  0  0999 V2000
    8.6451  -15.4849   14.2916 N   0  0  0  0  0  0  0  0  0  0  0  0
    8.3743  -14.1151   14.5354 C   0  0  0  0  0  0  0  0  0  0  0  0
    8.5803  -13.2530   13.6069 N   0  0  0  0  0  0  0  0  0  0  0  0
    7.8797  -13.6605   15.7841 N   0  0  0  0  0  0  0  0  0  0  0  0
    7.5348  -14.5530   16.8912 C   0  0  0  0  0  0  0  0  0  0  0  0
    8.8310  -15.1280   17.4024 C   0  0  0  0  0  0  0  0  0  0  0  0
    8.5750  -16.4102   18.1418 C   0  0  0  0  0  0  0  0  0  0  0  0
    9.4701  -16.5455   19.3126 C   0  0  2  0  0  0  0  0  0  0  0  0
    9.5650  -17.8646   19.8477 N   0  0  0  0  0  0  0  0  0  0  0  0
    9.1842  -15.5258   20.3773 C   0  0  0  0  0  0  0  0  0  0  0  0
    9.2963  -14.3077   20.0726 O   0  0  0  0  0  0  0  0  0  0  0  0
    8.4197  -12.2364   13.7667 N   0  0  0  0  0  0  0  0  0  0  0  0
    8.8017  -15.8280   21.6882 C   0  0  1  0  0  0  0  0  0  0  0  0
    8.4903  -14.8401   22.7171 C   0  0  0  0  0  0  0  0  0  0  0  0
    7.0653  -15.1199   23.1411 C   0  0  0  0  0  0  0  0  0  0  0  0
    6.7198  -14.5952   24.4647 C   0  0  0  0  0  0  0  0  0  0  0  0
    6.1859  -15.3362   25.5216 N   0  0  0  0  0  0  0  0  0  0  0  0
    6.0148  -14.4926   26.5518 C   0  0  0  0  0  0  0  0  0  0  0  0
    6.4205  -13.2509   26.1825 C   0  0  0  0  0  0  0  0  0  0  0  0
    6.4708  -12.0265   26.8214 C   0  0  0  0  0  0  0  0  0  0  0  0
    6.9475  -10.9216   26.1620 C   0  0  0  0  0  0  0  0  0  0  0  0
    7.3922  -10.9765   24.8519 C   0  0  0  0  0  0  0  0  0  0  0  0
    7.3443  -12.1856   24.2158 C   0  0  0  0  0  0  0  0  0  0  0  0
    6.8636  -13.3051   24.8772 C   0  0  0  0  0  0  0  0  0  0  0  0
    9.3338  -15.0687   23.9334 O   0  0  0  0  0  0  0  0  0  0  0  0
    9.2184  -14.2567   24.8705 O   0  0  0  0  0  0  0  0  0  0  0  0
   12.5023  -16.7785   31.4562 C   0  0  0  0  0  0  0  0  0  0  0  0
   11.9027  -16.6990   30.2067 C   0  0  0  0  0  0  0  0  0  0  0  0
   11.7812  -15.4443   29.6160 C   0  0  0  0  0  0  0  0  0  0  0  0
   11.1851  -15.3776   28.3777 C   0  0  0  0  0  0  0  0  0  0  0  0
   10.7105  -16.5062   27.7144 C   0  0  0  0  0  0  0  0  0  0  0  0
   10.0655  -16.3904   26.3940 C   0  0  2  0  0  0  0  0  0  0  0  0
   10.9960  -16.3383   25.2315 N   0  0  0  0  0  0  0  0  0  0  0  0
   10.2196  -16.1507   24.0204 C   0  0  0  0  0  0  0  0  0  0  0  0
   11.8396  -17.5579   25.1494 O   0  0  0  0  0  0  0  0  0  0  0  0
   11.3659  -18.7340   24.5675 C   0  0  0  0  0  0  0  0  0  0  0  0
   10.8339  -17.7488   28.3055 C   0  0  0  0  0  0  0  0  0  0  0  0
   11.4306  -17.8110   29.5423 O   0  0  0  0  0  0  0  0  0  0  0  0
  2  3  2  0
  2  1  1  0
  4  2  1  0
  5  4  1  0
  6  7  1  0
  6  5  1  0
  8 10  1  0
  8  7  1  0
  8  9  1  1
 10 12  1  0
 11 10  2  0
 12 13  1  0
 13 24  1  0
 13 14  1  1
 14 15  1  0
 15 16  2  0
 17 16  1  0
 18 17  1  0
 19 18  2  0
 20 19  1  0
 21 22  1  0
 21 20  2  0
 22 23  2  0
 23 18  1  0
 23 15  1  0
 24 25  2  0
 24 33  1  0
 27 26  1  0
 27 37  2  0
 28 27  1  0
 29 28  2  0
 29 30  1  0
 30 36  2  0
 31 30  1  0
 32 31  1  1
 33 32  1  0
 34 32  1  0
 34 35  1  0
 36 37  1  0
 38 34  2  0
M  END
$$$$
