RWY.pdb
     RDKit          3D

 38 40  0  0  1  0  0  0  0  0999 V2000
    8.2404  -12.9437   14.4219 N   0  0  0  0  0  0  0  0  0  0  0  0
    7.3869  -14.0750   14.4497 C   0  0  0  0  0  0  0  0  0  0  0  0
    6.1641  -13.9560   14.0775 N   0  0  0  0  0  0  0  0  0  0  0  0
    7.8429  -15.3464   14.8808 N   0  0  0  0  0  0  0  0  0  0  0  0
    9.2203  -15.6139   15.2964 C   0  0  0  0  0  0  0  0  0  0  0  0
    9.1411  -16.5358   16.4862 C   0  0  0  0  0  0  0  0  0  0  0  0
    9.1277  -15.7403   17.7603 C   0  0  0  0  0  0  0  0  0  0  0  0
    9.0963  -16.6235   18.9473 C   0  0  2  0  0  0  0  0  0  0  0  0
    8.2469  -17.7633   18.8265 N   0  0  0  0  0  0  0  0  0  0  0  0
    8.8462  -15.8681   20.2210 C   0  0  0  0  0  0  0  0  0  0  0  0
    7.9398  -14.9920   20.2188 O   0  0  0  0  0  0  0  0  0  0  0  0
    5.5463  -14.7882   13.9740 N   0  0  0  0  0  0  0  0  0  0  0  0
    9.5477  -16.0643   21.4149 C   0  0  1  0  0  0  0  0  0  0  0  0
    9.2814  -15.3612   22.6663 C   0  0  0  0  0  0  0  0  0  0  0  0
    7.8108  -15.5699   22.9531 C   0  0  0  0  0  0  0  0  0  0  0  0
    7.3763  -15.0619   24.2568 C   0  0  0  0  0  0  0  0  0  0  0  0
    6.8276  -15.8273   25.2885 N   0  0  0  0  0  0  0  0  0  0  0  0
    6.5661  -14.9925   26.3068 C   0  0  0  0  0  0  0  0  0  0  0  0
    6.9294  -13.7329   25.9543 C   0  0  0  0  0  0  0  0  0  0  0  0
    6.8896  -12.5072   26.5916 C   0  0  0  0  0  0  0  0  0  0  0  0
    7.3445  -11.3810   25.9532 C   0  0  0  0  0  0  0  0  0  0  0  0
    7.8547  -11.4149   24.6665 C   0  0  0  0  0  0  0  0  0  0  0  0
    7.8960  -12.6252   24.0321 C   0  0  0  0  0  0  0  0  0  0  0  0
    7.4378  -13.7662   24.6723 C   0  0  0  0  0  0  0  0  0  0  0  0
   10.0173  -16.0107   23.7976 O   0  0  0  0  0  0  0  0  0  0  0  0
    9.6247  -17.1337   24.1657 O   0  0  0  0  0  0  0  0  0  0  0  0
    9.2671  -14.0941   30.5229 C   0  0  0  0  0  0  0  0  0  0  0  0
    9.7850  -14.7951   29.4424 C   0  0  0  0  0  0  0  0  0  0  0  0
    9.5848  -16.1720   29.3969 C   0  0  0  0  0  0  0  0  0  0  0  0
   10.1028  -16.8564   28.3215 C   0  0  0  0  0  0  0  0  0  0  0  0
   10.8063  -16.2229   27.3004 C   0  0  0  0  0  0  0  0  0  0  0  0
   11.3572  -16.9946   26.1717 C   0  0  2  0  0  0  0  0  0  0  0  0
   12.0730  -16.1931   25.1396 N   0  0  0  0  0  0  0  0  0  0  0  0
   11.1049  -15.3856   24.4217 C   0  0  0  0  0  0  0  0  0  0  0  0
   12.8480  -17.0581   24.2140 O   0  0  0  0  0  0  0  0  0  0  0  0
   13.8358  -17.9251   24.6817 C   0  0  0  0  0  0  0  0  0  0  0  0
   11.0019  -14.8562   27.3508 C   0  0  0  0  0  0  0  0  0  0  0  0
   10.4821  -14.1763   28.4266 O   0  0  0  0  0  0  0  0  0  0  0  0
  2  3  2  0
  2  1  1  0
  4  2  1  0
  5  4  1  0
  6  7  1  0
  6  5  1  0
  8 10  1  0
  8  7  1  0
  8  9  1  6
 10 12  1  0
 11 10  2  0
 12 13  1  0
 13 24  1  0
 13 14  1  6
 14 15  1  0
 15 16  2  0
 17 16  1  0
 18 17  1  0
 19 18  2  0
 20 19  1  0
 21 22  1  0
 21 20  2  0
 22 23  2  0
 23 18  1  0
 23 15  1  0
 24 25  2  0
 24 33  1  0
 27 26  1  0
 27 37  2  0
 28 27  1  0
 29 28  2  0
 29 30  1  0
 30 36  2  0
 31 30  1  0
 32 31  1  1
 33 32  1  0
 34 32  1  0
 34 35  1  0
 36 37  1  0
 38 34  2  0
M  END
$$$$
