RWY.pdb
     RDKit          3D

 38 40  0  0  1  0  0  0  0  0999 V2000
    9.1297  -12.2890   16.5343 N   0  0  0  0  0  0  0  0  0  0  0  0
    8.6985  -13.5834   16.1498 C   0  0  0  0  0  0  0  0  0  0  0  0
    8.8279  -13.9580   14.9288 N   0  0  0  0  0  0  0  0  0  0  0  0
    8.1219  -14.4869   17.0780 N   0  0  0  0  0  0  0  0  0  0  0  0
    8.1711  -14.2982   18.5283 C   0  0  0  0  0  0  0  0  0  0  0  0
    7.5106  -15.5053   19.1435 C   0  0  0  0  0  0  0  0  0  0  0  0
    7.3454  -15.3095   20.6237 C   0  0  0  0  0  0  0  0  0  0  0  0
    8.0044  -16.3920   21.3878 C   0  0  2  0  0  0  0  0  0  0  0  0
    7.1377  -17.4433   21.8106 N   0  0  0  0  0  0  0  0  0  0  0  0
    8.8474  -15.8701   22.5157 C   0  0  0  0  0  0  0  0  0  0  0  0
    9.7803  -15.0706   22.2338 O   0  0  0  0  0  0  0  0  0  0  0  0
    8.4363  -14.8640   14.5962 N   0  0  0  0  0  0  0  0  0  0  0  0
    8.6744  -16.2070   23.8621 C   0  0  1  0  0  0  0  0  0  0  0  0
    9.4654  -15.6717   24.9662 C   0  0  0  0  0  0  0  0  0  0  0  0
    8.5955  -15.7979   26.1975 C   0  0  0  0  0  0  0  0  0  0  0  0
    7.3428  -15.0414   26.1266 C   0  0  0  0  0  0  0  0  0  0  0  0
    6.0754  -15.5823   25.8976 N   0  0  0  0  0  0  0  0  0  0  0  0
    5.2009  -14.5638   25.9080 C   0  0  0  0  0  0  0  0  0  0  0  0
    5.8702  -13.4047   26.1345 C   0  0  0  0  0  0  0  0  0  0  0  0
    5.4894  -12.0808   26.2457 C   0  0  0  0  0  0  0  0  0  0  0  0
    6.4282  -11.1091   26.4846 C   0  0  0  0  0  0  0  0  0  0  0  0
    7.7749  -11.3994   26.6233 C   0  0  0  0  0  0  0  0  0  0  0  0
    8.1563  -12.7077   26.5141 C   0  0  0  0  0  0  0  0  0  0  0  0
    7.2121  -13.6935   26.2727 C   0  0  0  0  0  0  0  0  0  0  0  0
   10.6628  -16.5354   25.2183 O   0  0  0  0  0  0  0  0  0  0  0  0
   11.4430  -16.1820   26.1222 O   0  0  0  0  0  0  0  0  0  0  0  0
    7.9860  -20.3179   29.4122 C   0  0  0  0  0  0  0  0  0  0  0  0
    8.8568  -20.2225   28.3352 C   0  0  0  0  0  0  0  0  0  0  0  0
   10.2108  -20.0379   28.6008 C   0  0  0  0  0  0  0  0  0  0  0  0
   11.0644  -19.9445   27.5256 C   0  0  0  0  0  0  0  0  0  0  0  0
   10.6202  -20.0276   26.2086 C   0  0  0  0  0  0  0  0  0  0  0  0
   11.5658  -19.9092   25.0840 C   0  0  2  0  0  0  0  0  0  0  0  0
   12.0449  -18.5282   24.7958 N   0  0  0  0  0  0  0  0  0  0  0  0
   10.9019  -17.6960   24.4707 C   0  0  0  0  0  0  0  0  0  0  0  0
   13.0520  -18.5138   23.7043 O   0  0  0  0  0  0  0  0  0  0  0  0
   12.8291  -17.8176   22.5161 C   0  0  0  0  0  0  0  0  0  0  0  0
    9.2752  -20.2110   25.9511 C   0  0  0  0  0  0  0  0  0  0  0  0
    8.4261  -20.3044   27.0281 O   0  0  0  0  0  0  0  0  0  0  0  0
  2  3  2  0
  2  1  1  0
  4  2  1  0
  5  4  1  0
  6  7  1  0
  6  5  1  0
  8 10  1  0
  8  7  1  0
  8  9  1  1
 10 12  1  0
 11 10  2  0
 12 13  1  0
 13 24  1  0
 13 14  1  1
 14 15  1  0
 15 16  2  0
 17 16  1  0
 18 17  1  0
 19 18  2  0
 20 19  1  0
 21 22  1  0
 21 20  2  0
 22 23  2  0
 23 18  1  0
 23 15  1  0
 24 25  2  0
 24 33  1  0
 27 26  1  0
 27 37  2  0
 28 27  1  0
 29 28  2  0
 29 30  1  0
 30 36  2  0
 31 30  1  0
 32 31  1  1
 33 32  1  0
 34 32  1  0
 34 35  1  0
 36 37  1  0
 38 34  2  0
M  END
$$$$
