RWY.pdb
     RDKit          3D

 38 40  0  0  1  0  0  0  0  0999 V2000
    8.5327  -13.3121   15.8575 N   0  0  0  0  0  0  0  0  0  0  0  0
    7.8374  -14.4337   16.3748 C   0  0  0  0  0  0  0  0  0  0  0  0
    6.6798  -14.7328   15.9075 N   0  0  0  0  0  0  0  0  0  0  0  0
    8.3828  -15.2439   17.4027 N   0  0  0  0  0  0  0  0  0  0  0  0
    9.6954  -15.0108   18.0061 C   0  0  0  0  0  0  0  0  0  0  0  0
    9.8897  -16.0846   19.0458 C   0  0  0  0  0  0  0  0  0  0  0  0
   10.6935  -15.5531   20.1981 C   0  0  0  0  0  0  0  0  0  0  0  0
   10.8562  -16.5729   21.2581 C   0  0  2  0  0  0  0  0  0  0  0  0
    9.9100  -17.6398   21.2165 N   0  0  0  0  0  0  0  0  0  0  0  0
   10.9615  -15.9677   22.6285 C   0  0  0  0  0  0  0  0  0  0  0  0
   11.8158  -15.0582   22.8075 O   0  0  0  0  0  0  0  0  0  0  0  0
    6.1792  -15.5940   16.2118 N   0  0  0  0  0  0  0  0  0  0  0  0
   10.1794  -16.3400   23.7266 C   0  0  1  0  0  0  0  0  0  0  0  0
   10.1584  -15.6473   25.0115 C   0  0  0  0  0  0  0  0  0  0  0  0
    8.7537  -15.8134   25.5480 C   0  0  0  0  0  0  0  0  0  0  0  0
    7.8630  -14.6877   25.2547 C   0  0  0  0  0  0  0  0  0  0  0  0
    7.0437  -14.5678   24.1297 N   0  0  0  0  0  0  0  0  0  0  0  0
    6.3905  -13.3998   24.2365 C   0  0  0  0  0  0  0  0  0  0  0  0
    6.7680  -12.7820   25.3848 C   0  0  0  0  0  0  0  0  0  0  0  0
    6.4280  -11.5870   25.9899 C   0  0  0  0  0  0  0  0  0  0  0  0
    6.9986  -11.2306   27.1858 C   0  0  0  0  0  0  0  0  0  0  0  0
    7.9237  -12.0326   27.8323 C   0  0  0  0  0  0  0  0  0  0  0  0
    8.2632  -13.2158   27.2375 C   0  0  0  0  0  0  0  0  0  0  0  0
    7.6899  -13.5808   26.0293 C   0  0  0  0  0  0  0  0  0  0  0  0
   11.0572  -16.3364   25.9915 O   0  0  0  0  0  0  0  0  0  0  0  0
   11.5993  -15.6322   26.8638 O   0  0  0  0  0  0  0  0  0  0  0  0
   11.1093  -20.8373   33.0798 C   0  0  0  0  0  0  0  0  0  0  0  0
   10.9420  -20.1957   31.8602 C   0  0  0  0  0  0  0  0  0  0  0  0
   12.0730  -19.6934   31.2225 C   0  0  0  0  0  0  0  0  0  0  0  0
   11.8950  -19.0592   30.0145 C   0  0  0  0  0  0  0  0  0  0  0  0
   10.6420  -18.9095   29.4260 C   0  0  0  0  0  0  0  0  0  0  0  0
   10.4922  -18.2113   28.1363 C   0  0  1  0  0  0  0  0  0  0  0  0
   11.5912  -18.4384   27.1562 N   0  0  0  0  0  0  0  0  0  0  0  0
   11.2837  -17.7179   25.9351 C   0  0  0  0  0  0  0  0  0  0  0  0
   11.8003  -19.8849   26.8924 O   0  0  0  0  0  0  0  0  0  0  0  0
   11.5955  -20.4318   25.6254 C   0  0  0  0  0  0  0  0  0  0  0  0
    9.5231  -19.4101   30.0633 C   0  0  0  0  0  0  0  0  0  0  0  0
    9.7055  -20.0435   31.2697 O   0  0  0  0  0  0  0  0  0  0  0  0
  2  3  2  0
  2  1  1  0
  4  2  1  0
  5  4  1  0
  6  7  1  0
  6  5  1  0
  8 10  1  0
  8  7  1  0
  8  9  1  1
 10 12  1  0
 11 10  2  0
 12 13  1  0
 13 24  1  0
 13 14  1  6
 14 15  1  0
 15 16  2  0
 17 16  1  0
 18 17  1  0
 19 18  2  0
 20 19  1  0
 21 22  1  0
 21 20  2  0
 22 23  2  0
 23 18  1  0
 23 15  1  0
 24 25  2  0
 24 33  1  0
 27 26  1  0
 27 37  2  0
 28 27  1  0
 29 28  2  0
 29 30  1  0
 30 36  2  0
 31 30  1  0
 32 31  1  1
 33 32  1  0
 34 32  1  0
 34 35  1  0
 36 37  1  0
 38 34  2  0
M  END
$$$$
