RWY.pdb
     RDKit          3D

 38 40  0  0  1  0  0  0  0  0999 V2000
    9.0504  -13.1717   14.3156 N   0  0  0  0  0  0  0  0  0  0  0  0
    7.8466  -13.7375   14.8054 C   0  0  0  0  0  0  0  0  0  0  0  0
    6.7432  -13.0956   14.6699 N   0  0  0  0  0  0  0  0  0  0  0  0
    7.8205  -15.0012   15.4479 N   0  0  0  0  0  0  0  0  0  0  0  0
    8.6511  -15.3382   16.6046 C   0  0  0  0  0  0  0  0  0  0  0  0
    8.1595  -14.4917   17.7507 C   0  0  0  0  0  0  0  0  0  0  0  0
    9.2395  -14.3369   18.7832 C   0  0  0  0  0  0  0  0  0  0  0  0
    9.4595  -15.5973   19.5268 C   0  0  2  0  0  0  0  0  0  0  0  0
    8.4088  -16.5553   19.4105 N   0  0  0  0  0  0  0  0  0  0  0  0
    9.8499  -15.3615   20.9576 C   0  0  0  0  0  0  0  0  0  0  0  0
   10.6390  -14.4099   21.2045 O   0  0  0  0  0  0  0  0  0  0  0  0
    5.8508  -13.4646   15.0601 N   0  0  0  0  0  0  0  0  0  0  0  0
    9.4019  -16.1228   22.0419 C   0  0  1  0  0  0  0  0  0  0  0  0
    9.9066  -16.0113   23.4072 C   0  0  0  0  0  0  0  0  0  0  0  0
    8.7004  -16.1629   24.3077 C   0  0  0  0  0  0  0  0  0  0  0  0
    7.6839  -15.1231   24.1284 C   0  0  0  0  0  0  0  0  0  0  0  0
    6.6666  -15.1338   23.1712 N   0  0  0  0  0  0  0  0  0  0  0  0
    5.9524  -14.0094   23.3379 C   0  0  0  0  0  0  0  0  0  0  0  0
    6.4819  -13.2934   24.3625 C   0  0  0  0  0  0  0  0  0  0  0  0
    6.1631  -12.0879   24.9584 C   0  0  0  0  0  0  0  0  0  0  0  0
    6.9116  -11.6157   26.0071 C   0  0  0  0  0  0  0  0  0  0  0  0
    8.0001  -12.3079   26.5100 C   0  0  0  0  0  0  0  0  0  0  0  0
    8.3193  -13.5010   25.9237 C   0  0  0  0  0  0  0  0  0  0  0  0
    7.5666  -13.9827   24.8639 C   0  0  0  0  0  0  0  0  0  0  0  0
   10.8067  -17.1647   23.7277 O   0  0  0  0  0  0  0  0  0  0  0  0
   10.4036  -18.3048   23.4303 O   0  0  0  0  0  0  0  0  0  0  0  0
   10.5269  -16.0834   31.9029 C   0  0  0  0  0  0  0  0  0  0  0  0
   10.7561  -16.0098   30.5357 C   0  0  0  0  0  0  0  0  0  0  0  0
   11.5545  -16.9889   29.9508 C   0  0  0  0  0  0  0  0  0  0  0  0
   11.7751  -16.9057   28.5952 C   0  0  0  0  0  0  0  0  0  0  0  0
   11.2334  -15.8912   27.8103 C   0  0  0  0  0  0  0  0  0  0  0  0
   11.5049  -15.8300   26.3627 C   0  0  1  0  0  0  0  0  0  0  0  0
   12.1548  -17.0392   25.7836 N   0  0  0  0  0  0  0  0  0  0  0  0
   12.0537  -16.9759   24.3377 C   0  0  0  0  0  0  0  0  0  0  0  0
   11.5552  -18.2905   26.3132 O   0  0  0  0  0  0  0  0  0  0  0  0
   12.3223  -19.2332   26.9983 C   0  0  0  0  0  0  0  0  0  0  0  0
   10.4417  -14.9223   28.3962 C   0  0  0  0  0  0  0  0  0  0  0  0
   10.2234  -15.0095   29.7507 O   0  0  0  0  0  0  0  0  0  0  0  0
  2  3  2  0
  2  1  1  0
  4  2  1  0
  5  4  1  0
  6  7  1  0
  6  5  1  0
  8 10  1  0
  8  7  1  0
  8  9  1  1
 10 12  1  0
 11 10  2  0
 12 13  1  0
 13 24  1  0
 13 14  1  6
 14 15  1  0
 15 16  2  0
 17 16  1  0
 18 17  1  0
 19 18  2  0
 20 19  1  0
 21 22  1  0
 21 20  2  0
 22 23  2  0
 23 18  1  0
 23 15  1  0
 24 25  2  0
 24 33  1  0
 27 26  1  0
 27 37  2  0
 28 27  1  0
 29 28  2  0
 29 30  1  0
 30 36  2  0
 31 30  1  0
 32 31  1  6
 33 32  1  0
 34 32  1  0
 34 35  1  0
 36 37  1  0
 38 34  2  0
M  END
$$$$
