RWY.pdb
     RDKit          3D

 38 40  0  0  1  0  0  0  0  0999 V2000
    8.8453  -13.0247   17.5507 N   0  0  0  0  0  0  0  0  0  0  0  0
    8.1459  -13.5919   16.4560 C   0  0  0  0  0  0  0  0  0  0  0  0
    7.0789  -13.0248   16.0229 N   0  0  0  0  0  0  0  0  0  0  0  0
    8.5895  -14.7778   15.8178 N   0  0  0  0  0  0  0  0  0  0  0  0
    9.7900  -15.5121   16.2189 C   0  0  0  0  0  0  0  0  0  0  0  0
    9.4782  -16.1587   17.5443 C   0  0  0  0  0  0  0  0  0  0  0  0
   10.6466  -16.9803   18.0094 C   0  0  0  0  0  0  0  0  0  0  0  0
   10.3605  -17.6413   19.3022 C   0  0  2  0  0  0  0  0  0  0  0  0
    9.3219  -18.6185   19.2611 N   0  0  0  0  0  0  0  0  0  0  0  0
   10.1642  -16.6586   20.4207 C   0  0  0  0  0  0  0  0  0  0  0  0
   11.0188  -15.7420   20.5572 O   0  0  0  0  0  0  0  0  0  0  0  0
    6.5539  -13.4087   15.2094 N   0  0  0  0  0  0  0  0  0  0  0  0
    9.0994  -16.6849   21.3272 C   0  0  1  0  0  0  0  0  0  0  0  0
    8.8788  -15.7049   22.3865 C   0  0  0  0  0  0  0  0  0  0  0  0
    7.4068  -15.7871   22.7260 C   0  0  0  0  0  0  0  0  0  0  0  0
    7.0456  -15.1371   23.9883 C   0  0  0  0  0  0  0  0  0  0  0  0
    6.6288  -15.7892   25.1512 N   0  0  0  0  0  0  0  0  0  0  0  0
    6.3967  -14.8437   26.0755 C   0  0  0  0  0  0  0  0  0  0  0  0
    6.6516  -13.6235   25.5379 C   0  0  0  0  0  0  0  0  0  0  0  0
    6.5857  -12.3291   26.0176 C   0  0  0  0  0  0  0  0  0  0  0  0
    6.9175  -11.2734   25.2062 C   0  0  0  0  0  0  0  0  0  0  0  0
    7.3259  -11.4479   23.8948 C   0  0  0  0  0  0  0  0  0  0  0  0
    7.3926  -12.7267   23.4160 C   0  0  0  0  0  0  0  0  0  0  0  0
    7.0585  -13.7970   24.2312 C   0  0  0  0  0  0  0  0  0  0  0  0
    9.6108  -16.1058   23.6301 O   0  0  0  0  0  0  0  0  0  0  0  0
    9.3733  -17.2366   24.0944 O   0  0  0  0  0  0  0  0  0  0  0  0
   11.0182  -16.8958   31.8538 C   0  0  0  0  0  0  0  0  0  0  0  0
   10.7229  -16.5496   30.5423 C   0  0  0  0  0  0  0  0  0  0  0  0
   10.3944  -17.5690   29.6528 C   0  0  0  0  0  0  0  0  0  0  0  0
   10.1038  -17.2142   28.3555 C   0  0  0  0  0  0  0  0  0  0  0  0
   10.1291  -15.8925   27.9183 C   0  0  0  0  0  0  0  0  0  0  0  0
    9.8244  -15.5553   26.5160 C   0  0  1  0  0  0  0  0  0  0  0  0
   10.9927  -15.5545   25.5914 N   0  0  0  0  0  0  0  0  0  0  0  0
   10.5275  -15.2478   24.2519 C   0  0  0  0  0  0  0  0  0  0  0  0
   11.7213  -16.8482   25.6276 O   0  0  0  0  0  0  0  0  0  0  0  0
   12.3851  -17.2789   26.7766 C   0  0  0  0  0  0  0  0  0  0  0  0
   10.4556  -14.8850   28.8054 C   0  0  0  0  0  0  0  0  0  0  0  0
   10.7446  -15.2438   30.1006 O   0  0  0  0  0  0  0  0  0  0  0  0
  2  3  2  0
  2  1  1  0
  4  2  1  0
  5  4  1  0
  6  7  1  0
  6  5  1  0
  8 10  1  0
  8  7  1  0
  8  9  1  6
 10 12  1  0
 11 10  2  0
 12 13  1  0
 13 24  1  0
 13 14  1  6
 14 15  1  0
 15 16  2  0
 17 16  1  0
 18 17  1  0
 19 18  2  0
 20 19  1  0
 21 22  1  0
 21 20  2  0
 22 23  2  0
 23 18  1  0
 23 15  1  0
 24 25  2  0
 24 33  1  0
 27 26  1  0
 27 37  2  0
 28 27  1  0
 29 28  2  0
 29 30  1  0
 30 36  2  0
 31 30  1  0
 32 31  1  1
 33 32  1  0
 34 32  1  0
 34 35  1  0
 36 37  1  0
 38 34  2  0
M  END
$$$$
