RWY.pdb
     RDKit          3D

 38 40  0  0  1  0  0  0  0  0999 V2000
    6.7530  -13.9267   14.5667 N   0  0  0  0  0  0  0  0  0  0  0  0
    8.1619  -14.0737   14.5163 C   0  0  0  0  0  0  0  0  0  0  0  0
    8.7269  -14.3926   13.4087 N   0  0  0  0  0  0  0  0  0  0  0  0
    8.9762  -13.8796   15.6607 N   0  0  0  0  0  0  0  0  0  0  0  0
    8.4442  -13.5891   16.9926 C   0  0  0  0  0  0  0  0  0  0  0  0
    7.8476  -14.8734   17.5089 C   0  0  0  0  0  0  0  0  0  0  0  0
    7.2891  -14.6695   18.8884 C   0  0  0  0  0  0  0  0  0  0  0  0
    7.6125  -15.8092   19.7752 C   0  0  2  0  0  0  0  0  0  0  0  0
    6.5267  -16.6981   20.0323 N   0  0  0  0  0  0  0  0  0  0  0  0
    8.2985  -15.3786   21.0397 C   0  0  0  0  0  0  0  0  0  0  0  0
    8.6152  -14.1639   21.1547 O   0  0  0  0  0  0  0  0  0  0  0  0
    9.7607  -14.4992   13.3393 N   0  0  0  0  0  0  0  0  0  0  0  0
    8.6146  -16.2288   22.1044 C   0  0  1  0  0  0  0  0  0  0  0  0
    9.3696  -15.8376   23.2910 C   0  0  0  0  0  0  0  0  0  0  0  0
    8.5901  -16.3723   24.4721 C   0  0  0  0  0  0  0  0  0  0  0  0
    7.4587  -15.5324   24.8735 C   0  0  0  0  0  0  0  0  0  0  0  0
    6.1483  -15.9718   25.0759 N   0  0  0  0  0  0  0  0  0  0  0  0
    5.4211  -14.9015   25.4335 C   0  0  0  0  0  0  0  0  0  0  0  0
    6.2241  -13.8074   25.4633 C   0  0  0  0  0  0  0  0  0  0  0  0
    6.0194  -12.4725   25.7569 C   0  0  0  0  0  0  0  0  0  0  0  0
    7.0629  -11.5835   25.6966 C   0  0  0  0  0  0  0  0  0  0  0  0
    8.3453  -11.9703   25.3462 C   0  0  0  0  0  0  0  0  0  0  0  0
    8.5526  -13.2898   25.0549 C   0  0  0  0  0  0  0  0  0  0  0  0
    7.5020  -14.1924   25.1141 C   0  0  0  0  0  0  0  0  0  0  0  0
   10.6939  -16.5365   23.3219 O   0  0  0  0  0  0  0  0  0  0  0  0
   10.7599  -17.6611   22.7910 O   0  0  0  0  0  0  0  0  0  0  0  0
   11.2214  -15.8256   31.7074 C   0  0  0  0  0  0  0  0  0  0  0  0
   11.1591  -15.7458   30.3229 C   0  0  0  0  0  0  0  0  0  0  0  0
   11.3549  -14.5025   29.7280 C   0  0  0  0  0  0  0  0  0  0  0  0
   11.2906  -14.4354   28.3551 C   0  0  0  0  0  0  0  0  0  0  0  0
   11.0406  -15.5526   27.5627 C   0  0  0  0  0  0  0  0  0  0  0  0
   10.9663  -15.4359   26.0951 C   0  0  1  0  0  0  0  0  0  0  0  0
   12.0419  -16.1416   25.3435 N   0  0  0  0  0  0  0  0  0  0  0  0
   11.8180  -15.9544   23.9224 C   0  0  0  0  0  0  0  0  0  0  0  0
   12.1019  -17.5831   25.6961 O   0  0  0  0  0  0  0  0  0  0  0  0
   13.0840  -18.0841   26.5510 C   0  0  0  0  0  0  0  0  0  0  0  0
   10.8472  -16.7840   28.1586 C   0  0  0  0  0  0  0  0  0  0  0  0
   10.9128  -16.8467   29.5303 O   0  0  0  0  0  0  0  0  0  0  0  0
  2  3  2  0
  2  1  1  0
  4  2  1  0
  5  4  1  0
  6  7  1  0
  6  5  1  0
  8 10  1  0
  8  7  1  0
  8  9  1  1
 10 12  1  0
 11 10  2  0
 12 13  1  0
 13 24  1  0
 13 14  1  1
 14 15  1  0
 15 16  2  0
 17 16  1  0
 18 17  1  0
 19 18  2  0
 20 19  1  0
 21 22  1  0
 21 20  2  0
 22 23  2  0
 23 18  1  0
 23 15  1  0
 24 25  2  0
 24 33  1  0
 27 26  1  0
 27 37  2  0
 28 27  1  0
 29 28  2  0
 29 30  1  0
 30 36  2  0
 31 30  1  0
 32 31  1  1
 33 32  1  0
 34 32  1  0
 34 35  1  0
 36 37  1  0
 38 34  2  0
M  END
$$$$
