RWY.pdb
     RDKit          3D

 38 40  0  0  1  0  0  0  0  0999 V2000
    9.8625  -17.8525   14.5926 N   0  0  0  0  0  0  0  0  0  0  0  0
    8.6825  -18.4538   15.0979 C   0  0  0  0  0  0  0  0  0  0  0  0
    8.2765  -19.5668   14.6038 N   0  0  0  0  0  0  0  0  0  0  0  0
    7.9273  -17.8600   16.1406 N   0  0  0  0  0  0  0  0  0  0  0  0
    8.3001  -16.6065   16.7972 C   0  0  0  0  0  0  0  0  0  0  0  0
    9.1610  -16.9766   17.9777 C   0  0  0  0  0  0  0  0  0  0  0  0
    8.8999  -16.0425   19.1247 C   0  0  0  0  0  0  0  0  0  0  0  0
    8.2161  -16.7353   20.2395 C   0  0  2  0  0  0  0  0  0  0  0  0
    6.7999  -16.8401   20.1040 N   0  0  0  0  0  0  0  0  0  0  0  0
    8.6142  -16.1961   21.5834 C   0  0  0  0  0  0  0  0  0  0  0  0
    8.0483  -15.1450   21.9884 O   0  0  0  0  0  0  0  0  0  0  0  0
    7.4374  -20.0534   14.9832 N   0  0  0  0  0  0  0  0  0  0  0  0
    9.5711  -16.7753   22.4231 C   0  0  1  0  0  0  0  0  0  0  0  0
   10.0189  -16.2127   23.6936 C   0  0  0  0  0  0  0  0  0  0  0  0
    8.9358  -16.5431   24.6968 C   0  0  0  0  0  0  0  0  0  0  0  0
    7.7912  -15.6289   24.6661 C   0  0  0  0  0  0  0  0  0  0  0  0
    6.5396  -15.9078   24.1121 N   0  0  0  0  0  0  0  0  0  0  0  0
    5.7756  -14.8180   24.2879 C   0  0  0  0  0  0  0  0  0  0  0  0
    6.4991  -13.8661   24.9307 C   0  0  0  0  0  0  0  0  0  0  0  0
    6.2294  -12.5805   25.3604 C   0  0  0  0  0  0  0  0  0  0  0  0
    7.1974  -11.8479   26.0001 C   0  0  0  0  0  0  0  0  0  0  0  0
    8.4654  -12.3487   26.2419 C   0  0  0  0  0  0  0  0  0  0  0  0
    8.7368  -13.6200   25.8186 C   0  0  0  0  0  0  0  0  0  0  0  0
    7.7626  -14.3646   25.1718 C   0  0  0  0  0  0  0  0  0  0  0  0
   11.2511  -16.9170   24.1718 O   0  0  0  0  0  0  0  0  0  0  0  0
   11.1649  -18.1413   24.3828 O   0  0  0  0  0  0  0  0  0  0  0  0
   10.4260  -16.4279   31.5933 C   0  0  0  0  0  0  0  0  0  0  0  0
   10.8458  -16.0774   30.3173 C   0  0  0  0  0  0  0  0  0  0  0  0
   11.9884  -16.6907   29.8110 C   0  0  0  0  0  0  0  0  0  0  0  0
   12.3952  -16.3353   28.5455 C   0  0  0  0  0  0  0  0  0  0  0  0
   11.7101  -15.3995   27.7750 C   0  0  0  0  0  0  0  0  0  0  0  0
   12.1866  -15.0362   26.4282 C   0  0  1  0  0  0  0  0  0  0  0  0
   12.9725  -16.0880   25.7240 N   0  0  0  0  0  0  0  0  0  0  0  0
   12.4563  -16.2322   24.3759 C   0  0  0  0  0  0  0  0  0  0  0  0
   12.9397  -17.3795   26.4565 O   0  0  0  0  0  0  0  0  0  0  0  0
   14.0675  -17.8748   27.1116 C   0  0  0  0  0  0  0  0  0  0  0  0
   10.5767  -14.7941   28.2826 C   0  0  0  0  0  0  0  0  0  0  0  0
   10.1735  -15.1525   29.5470 O   0  0  0  0  0  0  0  0  0  0  0  0
  2  3  2  0
  2  1  1  0
  4  2  1  0
  5  4  1  0
  6  7  1  0
  6  5  1  0
  8 10  1  0
  8  7  1  0
  8  9  1  6
 10 12  1  0
 11 10  2  0
 12 13  1  0
 13 24  1  0
 13 14  1  6
 14 15  1  0
 15 16  2  0
 17 16  1  0
 18 17  1  0
 19 18  2  0
 20 19  1  0
 21 22  1  0
 21 20  2  0
 22 23  2  0
 23 18  1  0
 23 15  1  0
 24 25  2  0
 24 33  1  0
 27 26  1  0
 27 37  2  0
 28 27  1  0
 29 28  2  0
 29 30  1  0
 30 36  2  0
 31 30  1  0
 32 31  1  6
 33 32  1  0
 34 32  1  0
 34 35  1  0
 36 37  1  0
 38 34  2  0
M  END
$$$$
