RWY.pdb
     RDKit          3D

 38 40  0  0  1  0  0  0  0  0999 V2000
    8.1867  -12.1648   16.1654 N   0  0  0  0  0  0  0  0  0  0  0  0
    7.7734  -13.4566   15.7538 C   0  0  0  0  0  0  0  0  0  0  0  0
    8.0409  -13.8589   14.5646 N   0  0  0  0  0  0  0  0  0  0  0  0
    7.0659  -14.3278   16.6204 N   0  0  0  0  0  0  0  0  0  0  0  0
    6.7859  -14.0215   18.0237 C   0  0  0  0  0  0  0  0  0  0  0  0
    7.2080  -15.2286   18.8217 C   0  0  0  0  0  0  0  0  0  0  0  0
    8.1530  -14.8233   19.9167 C   0  0  0  0  0  0  0  0  0  0  0  0
    8.5652  -15.9878   20.7318 C   0  0  2  0  0  0  0  0  0  0  0  0
    7.5065  -16.8719   21.0960 N   0  0  0  0  0  0  0  0  0  0  0  0
    9.4025  -15.5952   21.9151 C   0  0  0  0  0  0  0  0  0  0  0  0
   10.3726  -14.8147   21.7183 O   0  0  0  0  0  0  0  0  0  0  0  0
    7.6525  -14.7519   14.1950 N   0  0  0  0  0  0  0  0  0  0  0  0
    9.1857  -16.0335   23.2255 C   0  0  1  0  0  0  0  0  0  0  0  0
    9.9329  -15.5778   24.3939 C   0  0  0  0  0  0  0  0  0  0  0  0
    9.0849  -15.9387   25.5936 C   0  0  0  0  0  0  0  0  0  0  0  0
    7.8066  -15.2260   25.6604 C   0  0  0  0  0  0  0  0  0  0  0  0
    6.5475  -15.7871   25.4348 N   0  0  0  0  0  0  0  0  0  0  0  0
    5.6422  -14.8084   25.5923 C   0  0  0  0  0  0  0  0  0  0  0  0
    6.2843  -13.6547   25.9080 C   0  0  0  0  0  0  0  0  0  0  0  0
    5.8671  -12.3644   26.1747 C   0  0  0  0  0  0  0  0  0  0  0  0
    6.7850  -11.3883   26.4706 C   0  0  0  0  0  0  0  0  0  0  0  0
    8.1455  -11.6411   26.5157 C   0  0  0  0  0  0  0  0  0  0  0  0
    8.5629  -12.9161   26.2525 C   0  0  0  0  0  0  0  0  0  0  0  0
    7.6400  -13.9062   25.9529 C   0  0  0  0  0  0  0  0  0  0  0  0
   11.2034  -16.3577   24.5386 O   0  0  0  0  0  0  0  0  0  0  0  0
   11.8698  -16.1785   25.5753 O   0  0  0  0  0  0  0  0  0  0  0  0
   13.8647  -13.9116   18.8068 C   0  0  0  0  0  0  0  0  0  0  0  0
   13.9062  -14.6388   19.9886 C   0  0  0  0  0  0  0  0  0  0  0  0
   13.4979  -15.9693   19.9548 C   0  0  0  0  0  0  0  0  0  0  0  0
   13.5430  -16.6802   21.1321 C   0  0  0  0  0  0  0  0  0  0  0  0
   13.9762  -16.1170   22.3295 C   0  0  0  0  0  0  0  0  0  0  0  0
   13.9967  -16.9092   23.5725 C   0  0  2  0  0  0  0  0  0  0  0  0
   12.9110  -17.9212   23.7023 N   0  0  0  0  0  0  0  0  0  0  0  0
   11.6313  -17.2547   23.5511 C   0  0  0  0  0  0  0  0  0  0  0  0
   12.9919  -18.6494   24.9942 O   0  0  0  0  0  0  0  0  0  0  0  0
   11.8954  -18.7352   25.8525 C   0  0  0  0  0  0  0  0  0  0  0  0
   14.3803  -14.7961   22.3570 C   0  0  0  0  0  0  0  0  0  0  0  0
   14.3343  -14.0898   21.1786 O   0  0  0  0  0  0  0  0  0  0  0  0
  2  3  2  0
  2  1  1  0
  4  2  1  0
  5  4  1  0
  6  7  1  0
  6  5  1  0
  8 10  1  0
  8  7  1  0
  8  9  1  1
 10 12  1  0
 11 10  2  0
 12 13  1  0
 13 24  1  0
 13 14  1  6
 14 15  1  0
 15 16  2  0
 17 16  1  0
 18 17  1  0
 19 18  2  0
 20 19  1  0
 21 22  1  0
 21 20  2  0
 22 23  2  0
 23 18  1  0
 23 15  1  0
 24 25  2  0
 24 33  1  0
 27 26  1  0
 27 37  2  0
 28 27  1  0
 29 28  2  0
 29 30  1  0
 30 36  2  0
 31 30  1  0
 32 31  1  6
 33 32  1  0
 34 32  1  0
 34 35  1  0
 36 37  1  0
 38 34  2  0
M  END
$$$$
