FPF.pdb
     RDKit          3D

 30 32  0  0  1  0  0  0  0  0999 V2000
   20.8759  -21.2879  -16.1390 N   0  0  0  0  0  0  0  0  0  0  0  0
   21.9682  -20.4931  -16.5929 C   0  0  1  0  0  0  0  0  0  0  0  0
   21.7842  -19.0483  -16.2032 C   0  0  0  0  0  0  0  0  0  0  0  0
   20.6693  -18.3906  -16.9158 C   0  0  0  0  0  0  0  0  0  0  0  0
   20.8191  -17.9787  -18.2441 C   0  0  0  0  0  0  0  0  0  0  0  0
   19.7870  -17.3903  -18.9075 C   0  0  0  0  0  0  0  0  0  0  0  0
   18.5626  -17.1773  -18.3054 C   0  0  0  0  0  0  0  0  0  0  0  0
   18.3756  -17.5698  -16.9972 C   0  0  0  0  0  0  0  0  0  0  0  0
   19.4332  -18.1666  -16.3355 C   0  0  0  0  0  0  0  0  0  0  0  0
   23.3075  -20.9608  -16.2064 C   0  0  0  0  0  0  0  0  0  0  0  0
   23.4275  -21.3921  -15.0173 O   0  0  0  0  0  0  0  0  0  0  0  0
   24.4255  -20.9562  -17.0503 N   0  0  0  0  0  0  0  0  0  0  0  0
   24.5442  -20.5065  -18.4160 C   0  0  0  0  0  0  0  0  0  0  0  0
   25.7060  -21.3606  -18.9492 C   0  0  0  0  0  0  0  0  0  0  0  0
   26.6481  -21.3708  -17.8001 C   0  0  0  0  0  0  0  0  0  0  0  0
   25.7318  -21.4669  -16.6009 C   0  0  1  0  0  0  0  0  0  0  0  0
   26.3058  -20.5815  -15.5328 C   0  0  0  0  0  0  0  0  0  0  0  0
   25.9375  -19.3764  -15.4861 O   0  0  0  0  0  0  0  0  0  0  0  0
   27.2403  -21.0427  -14.5786 N   0  0  0  0  0  0  0  0  0  0  0  0
   27.7951  -20.1449  -13.5486 C   0  0  1  0  0  0  0  0  0  0  0  0
   27.8639  -20.9130  -12.2781 C   0  0  0  0  0  0  0  0  0  0  0  0
   26.5722  -21.1255  -11.5948 C   0  0  0  0  0  0  0  0  0  0  0  0
   25.6908  -22.1110  -11.9147 C   0  0  0  0  0  0  0  0  0  0  0  0
   24.5150  -22.2214  -11.2063 C   0  0  0  0  0  0  0  0  0  0  0  0
   24.2200  -21.3512  -10.1824 C   0  0  0  0  0  0  0  0  0  0  0  0
   25.0995  -20.3510   -9.8477 C   0  0  0  0  0  0  0  0  0  0  0  0
   26.2734  -20.2556  -10.5687 C   0  0  0  0  0  0  0  0  0  0  0  0
   29.1278  -19.7342  -14.0352 C   0  0  0  0  0  0  0  0  0  0  0  0
   29.7160  -18.6058  -13.4901 O   0  0  0  0  0  0  0  0  0  0  0  0
   29.7555  -20.3578  -14.9210 O   0  0  0  0  0  0  0  0  0  0  0  0
  2  1  1  1
  2  3  1  0
  3  4  1  0
  4  9  1  0
  5  4  2  0
  5  6  1  0
  6  7  2  0
  7  8  1  0
  9  8  2  0
 10 12  1  0
 10  2  1  0
 11 10  2  0
 12 16  1  0
 13 12  1  0
 13 14  1  0
 14 15  1  0
 15 16  1  0
 16 17  1  1
 17 18  2  0
 19 17  1  0
 20 28  1  0
 20 19  1  0
 20 21  1  1
 22 23  2  0
 22 21  1  0
 24 23  1  0
 25 24  2  0
 26 25  1  0
 26 27  2  0
 27 22  1  0
 28 29  1  0
 30 28  2  0
M  END
$$$$
