FPF.pdb
     RDKit          3D

 30 32  0  0  1  0  0  0  0  0999 V2000
   21.1531  -32.6248  -10.8691 N   0  0  0  0  0  0  0  0  0  0  0  0
   22.2732  -32.1095  -10.1546 C   0  0  1  0  0  0  0  0  0  0  0  0
   21.8936  -30.8811   -9.3671 C   0  0  0  0  0  0  0  0  0  0  0  0
   21.3531  -29.7938  -10.2091 C   0  0  0  0  0  0  0  0  0  0  0  0
   22.2141  -28.9188  -10.8797 C   0  0  0  0  0  0  0  0  0  0  0  0
   21.7179  -27.9292  -11.6707 C   0  0  0  0  0  0  0  0  0  0  0  0
   20.3598  -27.7484  -11.8434 C   0  0  0  0  0  0  0  0  0  0  0  0
   19.4787  -28.5908  -11.1995 C   0  0  0  0  0  0  0  0  0  0  0  0
   19.9973  -29.5922  -10.3990 C   0  0  0  0  0  0  0  0  0  0  0  0
   22.9842  -33.0682   -9.2960 C   0  0  0  0  0  0  0  0  0  0  0  0
   22.2583  -33.8965   -8.6625 O   0  0  0  0  0  0  0  0  0  0  0  0
   24.3755  -33.1171   -9.1411 N   0  0  0  0  0  0  0  0  0  0  0  0
   25.3887  -32.2252   -9.6501 C   0  0  0  0  0  0  0  0  0  0  0  0
   26.6213  -33.1390   -9.7448 C   0  0  0  0  0  0  0  0  0  0  0  0
   26.5147  -33.9483   -8.5032 C   0  0  0  0  0  0  0  0  0  0  0  0
   25.0277  -34.1924   -8.3747 C   0  0  1  0  0  0  0  0  0  0  0  0
   24.6855  -34.0842   -6.9168 C   0  0  0  0  0  0  0  0  0  0  0  0
   24.4682  -32.9408   -6.4316 O   0  0  0  0  0  0  0  0  0  0  0  0
   24.5965  -35.2097   -6.0672 N   0  0  0  0  0  0  0  0  0  0  0  0
   24.2196  -35.0745   -4.6479 C   0  0  1  0  0  0  0  0  0  0  0  0
   22.8953  -35.7264   -4.4744 C   0  0  0  0  0  0  0  0  0  0  0  0
   22.4435  -35.8823   -3.0772 C   0  0  0  0  0  0  0  0  0  0  0  0
   22.1006  -34.8470   -2.2642 C   0  0  0  0  0  0  0  0  0  0  0  0
   21.6867  -35.1077   -0.9770 C   0  0  0  0  0  0  0  0  0  0  0  0
   21.6154  -36.3972   -0.5027 C   0  0  0  0  0  0  0  0  0  0  0  0
   21.9584  -37.4529   -1.3112 C   0  0  0  0  0  0  0  0  0  0  0  0
   22.3711  -37.1725   -2.5989 C   0  0  0  0  0  0  0  0  0  0  0  0
   25.2856  -35.7423   -3.8737 C   0  0  0  0  0  0  0  0  0  0  0  0
   26.0232  -36.7425   -4.4835 O   0  0  0  0  0  0  0  0  0  0  0  0
   25.5568  -35.4485   -2.6873 O   0  0  0  0  0  0  0  0  0  0  0  0
  2  1  1  1
  2  3  1  0
  3  4  1  0
  4  9  1  0
  5  4  2  0
  5  6  1  0
  6  7  2  0
  7  8  1  0
  9  8  2  0
 10 12  1  0
 10  2  1  0
 11 10  2  0
 12 16  1  0
 13 12  1  0
 13 14  1  0
 14 15  1  0
 15 16  1  0
 16 17  1  1
 17 18  2  0
 19 17  1  0
 20 28  1  0
 20 19  1  0
 20 21  1  6
 22 23  2  0
 22 21  1  0
 24 23  1  0
 25 24  2  0
 26 25  1  0
 26 27  2  0
 27 22  1  0
 28 29  1  0
 30 28  2  0
M  END
$$$$
