FPF.pdb
     RDKit          3D

 30 32  0  0  1  0  0  0  0  0999 V2000
   19.2665   -9.3226  -15.1311 N   0  0  0  0  0  0  0  0  0  0  0  0
   17.9212   -8.9387  -14.8602 C   0  0  1  0  0  0  0  0  0  0  0  0
   17.2845   -9.8691  -13.8591 C   0  0  0  0  0  0  0  0  0  0  0  0
   17.0669  -11.2319  -14.3873 C   0  0  0  0  0  0  0  0  0  0  0  0
   16.0841  -11.4714  -15.3533 C   0  0  0  0  0  0  0  0  0  0  0  0
   15.8958  -12.7223  -15.8545 C   0  0  0  0  0  0  0  0  0  0  0  0
   16.6574  -13.7957  -15.4363 C   0  0  0  0  0  0  0  0  0  0  0  0
   17.6365  -13.5998  -14.4858 C   0  0  0  0  0  0  0  0  0  0  0  0
   17.8169  -12.3233  -13.9855 C   0  0  0  0  0  0  0  0  0  0  0  0
   17.7210   -7.5389  -14.4571 C   0  0  0  0  0  0  0  0  0  0  0  0
   18.6229   -7.0360  -13.7168 O   0  0  0  0  0  0  0  0  0  0  0  0
   16.6238   -6.7528  -14.8315 N   0  0  0  0  0  0  0  0  0  0  0  0
   15.5035   -7.0824  -15.6787 C   0  0  0  0  0  0  0  0  0  0  0  0
   15.0847   -5.7090  -16.2281 C   0  0  0  0  0  0  0  0  0  0  0  0
   15.2317   -4.8310  -15.0383 C   0  0  0  0  0  0  0  0  0  0  0  0
   16.4775   -5.3631  -14.3661 C   0  0  1  0  0  0  0  0  0  0  0  0
   16.2324   -5.3251  -12.8853 C   0  0  0  0  0  0  0  0  0  0  0  0
   16.0242   -4.2088  -12.3369 O   0  0  0  0  0  0  0  0  0  0  0  0
   16.2248   -6.4874  -12.0820 N   0  0  0  0  0  0  0  0  0  0  0  0
   15.7191   -6.4623  -10.6970 C   0  0  1  0  0  0  0  0  0  0  0  0
   14.4059   -7.1582  -10.6893 C   0  0  0  0  0  0  0  0  0  0  0  0
   13.8391   -7.4283   -9.3528 C   0  0  0  0  0  0  0  0  0  0  0  0
   13.8115   -8.6561   -8.7677 C   0  0  0  0  0  0  0  0  0  0  0  0
   13.2625   -8.7935   -7.5123 C   0  0  0  0  0  0  0  0  0  0  0  0
   12.7427   -7.7095   -6.8433 C   0  0  0  0  0  0  0  0  0  0  0  0
   12.7630   -6.4638   -7.4208 C   0  0  0  0  0  0  0  0  0  0  0  0
   13.3175   -6.3448   -8.6799 C   0  0  0  0  0  0  0  0  0  0  0  0
   16.7325   -7.1557   -9.8761 C   0  0  0  0  0  0  0  0  0  0  0  0
   17.4386   -8.2054  -10.4382 O   0  0  0  0  0  0  0  0  0  0  0  0
   16.9862   -6.8409   -8.6912 O   0  0  0  0  0  0  0  0  0  0  0  0
  2  1  1  1
  2  3  1  0
  3  4  1  0
  4  9  1  0
  5  4  2  0
  5  6  1  0
  6  7  2  0
  7  8  1  0
  9  8  2  0
 10 12  1  0
 10  2  1  0
 11 10  2  0
 12 16  1  0
 13 12  1  0
 13 14  1  0
 14 15  1  0
 15 16  1  0
 16 17  1  1
 17 18  2  0
 19 17  1  0
 20 28  1  0
 20 19  1  0
 20 21  1  6
 22 23  2  0
 22 21  1  0
 24 23  1  0
 25 24  2  0
 26 25  1  0
 26 27  2  0
 27 22  1  0
 28 29  1  0
 30 28  2  0
M  END
$$$$
