FPF.pdb
     RDKit          3D

 30 32  0  0  1  0  0  0  0  0999 V2000
   20.5921  -21.4155  -13.7751 N   0  0  0  0  0  0  0  0  0  0  0  0
   21.7612  -20.6338  -13.5454 C   0  0  1  0  0  0  0  0  0  0  0  0
   21.4012  -19.2516  -13.0628 C   0  0  0  0  0  0  0  0  0  0  0  0
   20.7918  -18.4088  -14.1125 C   0  0  0  0  0  0  0  0  0  0  0  0
   21.5913  -17.7810  -15.0733 C   0  0  0  0  0  0  0  0  0  0  0  0
   21.0299  -17.0204  -16.0519 C   0  0  0  0  0  0  0  0  0  0  0  0
   19.6637  -16.8380  -16.1376 C   0  0  0  0  0  0  0  0  0  0  0  0
   18.8421  -17.4409  -15.2092 C   0  0  0  0  0  0  0  0  0  0  0  0
   19.4265  -18.2112  -14.2205 C   0  0  0  0  0  0  0  0  0  0  0  0
   22.7739  -21.2355  -12.6653 C   0  0  0  0  0  0  0  0  0  0  0  0
   22.3921  -21.5213  -11.4876 O   0  0  0  0  0  0  0  0  0  0  0  0
   24.0967  -21.5018  -13.0410 N   0  0  0  0  0  0  0  0  0  0  0  0
   24.7357  -21.3493  -14.3255 C   0  0  0  0  0  0  0  0  0  0  0  0
   25.8615  -22.3944  -14.2648 C   0  0  0  0  0  0  0  0  0  0  0  0
   26.3490  -22.2574  -12.8678 C   0  0  0  0  0  0  0  0  0  0  0  0
   25.0799  -22.0269  -12.0783 C   0  0  1  0  0  0  0  0  0  0  0  0
   25.3917  -20.9997  -11.0286 C   0  0  0  0  0  0  0  0  0  0  0  0
   25.2552  -19.7801  -11.3189 O   0  0  0  0  0  0  0  0  0  0  0  0
   25.8309  -21.3429   -9.7303 N   0  0  0  0  0  0  0  0  0  0  0  0
   26.6761  -20.4308   -8.9377 C   0  0  1  0  0  0  0  0  0  0  0  0
   26.4894  -20.7816   -7.5056 C   0  0  0  0  0  0  0  0  0  0  0  0
   27.2682  -19.9716   -6.5475 C   0  0  0  0  0  0  0  0  0  0  0  0
   27.3961  -18.6190   -6.6162 C   0  0  0  0  0  0  0  0  0  0  0  0
   28.1437  -17.9623   -5.6643 C   0  0  0  0  0  0  0  0  0  0  0  0
   28.7616  -18.6531   -4.6475 C   0  0  0  0  0  0  0  0  0  0  0  0
   28.6420  -20.0186   -4.5648 C   0  0  0  0  0  0  0  0  0  0  0  0
   27.8885  -20.6603   -5.5279 C   0  0  0  0  0  0  0  0  0  0  0  0
   28.0623  -20.6495   -9.3985 C   0  0  0  0  0  0  0  0  0  0  0  0
   28.4605  -21.9353   -9.7216 O   0  0  0  0  0  0  0  0  0  0  0  0
   28.9001  -19.7260   -9.5116 O   0  0  0  0  0  0  0  0  0  0  0  0
  2  1  1  1
  2  3  1  0
  3  4  1  0
  4  9  1  0
  5  4  2  0
  5  6  1  0
  6  7  2  0
  7  8  1  0
  9  8  2  0
 10 12  1  0
 10  2  1  0
 11 10  2  0
 12 16  1  0
 13 12  1  0
 13 14  1  0
 14 15  1  0
 15 16  1  0
 16 17  1  1
 17 18  2  0
 19 17  1  0
 20 28  1  0
 20 19  1  0
 20 21  1  1
 22 23  2  0
 22 21  1  0
 24 23  1  0
 25 24  2  0
 26 25  1  0
 26 27  2  0
 27 22  1  0
 28 29  1  0
 30 28  2  0
M  END
$$$$
