FPF.pdb
     RDKit          3D

 30 32  0  0  1  0  0  0  0  0999 V2000
   27.8638  -19.9413  -15.8957 N   0  0  0  0  0  0  0  0  0  0  0  0
   27.1384  -20.4521  -14.7805 C   0  0  1  0  0  0  0  0  0  0  0  0
   27.2590  -19.5341  -13.5906 C   0  0  0  0  0  0  0  0  0  0  0  0
   26.6453  -20.0859  -12.3650 C   0  0  0  0  0  0  0  0  0  0  0  0
   25.3533  -19.7080  -11.9847 C   0  0  0  0  0  0  0  0  0  0  0  0
   24.7797  -20.2302  -10.8668 C   0  0  0  0  0  0  0  0  0  0  0  0
   25.4400  -21.1443  -10.0697 C   0  0  0  0  0  0  0  0  0  0  0  0
   26.7149  -21.5421  -10.4115 C   0  0  0  0  0  0  0  0  0  0  0  0
   27.2853  -21.0034  -11.5504 C   0  0  0  0  0  0  0  0  0  0  0  0
   25.7280  -20.7848  -15.0292 C   0  0  0  0  0  0  0  0  0  0  0  0
   25.0527  -19.9169  -15.6656 O   0  0  0  0  0  0  0  0  0  0  0  0
   25.1055  -21.9693  -14.6148 N   0  0  0  0  0  0  0  0  0  0  0  0
   25.6153  -23.0339  -13.7853 C   0  0  0  0  0  0  0  0  0  0  0  0
   24.8045  -24.2487  -14.2650 C   0  0  0  0  0  0  0  0  0  0  0  0
   23.4479  -23.6724  -14.4541 C   0  0  0  0  0  0  0  0  0  0  0  0
   23.7301  -22.3005  -15.0245 C   0  0  1  0  0  0  0  0  0  0  0  0
   22.7496  -21.3507  -14.3993 C   0  0  0  0  0  0  0  0  0  0  0  0
   22.9613  -20.9545  -13.2210 O   0  0  0  0  0  0  0  0  0  0  0  0
   21.6012  -20.8827  -15.0763 N   0  0  0  0  0  0  0  0  0  0  0  0
   20.6499  -19.9596  -14.4302 C   0  0  1  0  0  0  0  0  0  0  0  0
   20.4121  -18.8340  -15.3712 C   0  0  0  0  0  0  0  0  0  0  0  0
   21.6119  -18.0629  -15.7536 C   0  0  0  0  0  0  0  0  0  0  0  0
   22.4428  -18.3987  -16.7771 C   0  0  0  0  0  0  0  0  0  0  0  0
   23.5328  -17.6029  -17.0506 C   0  0  0  0  0  0  0  0  0  0  0  0
   23.7929  -16.4762  -16.3053 C   0  0  0  0  0  0  0  0  0  0  0  0
   22.9636  -16.1242  -15.2688 C   0  0  0  0  0  0  0  0  0  0  0  0
   21.8754  -16.9338  -15.0091 C   0  0  0  0  0  0  0  0  0  0  0  0
   19.4276  -20.7459  -14.1671 C   0  0  0  0  0  0  0  0  0  0  0  0
   18.5014  -20.2530  -13.2639 O   0  0  0  0  0  0  0  0  0  0  0  0
   19.1857  -21.8418  -14.7219 O   0  0  0  0  0  0  0  0  0  0  0  0
  2  1  1  6
  2  3  1  0
  3  4  1  0
  4  9  1  0
  5  4  2  0
  5  6  1  0
  6  7  2  0
  7  8  1  0
  9  8  2  0
 10 12  1  0
 10  2  1  0
 11 10  2  0
 12 16  1  0
 13 12  1  0
 13 14  1  0
 14 15  1  0
 15 16  1  0
 16 17  1  1
 17 18  2  0
 19 17  1  0
 20 28  1  0
 20 19  1  0
 20 21  1  6
 22 23  2  0
 22 21  1  0
 24 23  1  0
 25 24  2  0
 26 25  1  0
 26 27  2  0
 27 22  1  0
 28 29  1  0
 30 28  2  0
M  END
$$$$
