FPF.pdb
     RDKit          3D

 30 32  0  0  1  0  0  0  0  0999 V2000
   23.1776  -22.0628  -14.7995 N   0  0  0  0  0  0  0  0  0  0  0  0
   23.8579  -20.9702  -14.1878 C   0  0  1  0  0  0  0  0  0  0  0  0
   22.9141  -20.1476  -13.3478 C   0  0  0  0  0  0  0  0  0  0  0  0
   22.0626  -19.2419  -14.1466 C   0  0  0  0  0  0  0  0  0  0  0  0
   20.7141  -19.5427  -14.3652 C   0  0  0  0  0  0  0  0  0  0  0  0
   19.9242  -18.6999  -15.0843 C   0  0  0  0  0  0  0  0  0  0  0  0
   20.4137  -17.5260  -15.6224 C   0  0  0  0  0  0  0  0  0  0  0  0
   21.7376  -17.1943  -15.4284 C   0  0  0  0  0  0  0  0  0  0  0  0
   22.5285  -18.0601  -14.6953 C   0  0  0  0  0  0  0  0  0  0  0  0
   25.0622  -21.3134  -13.4170 C   0  0  0  0  0  0  0  0  0  0  0  0
   25.0302  -22.4200  -12.7934 O   0  0  0  0  0  0  0  0  0  0  0  0
   26.2079  -20.5119  -13.3334 N   0  0  0  0  0  0  0  0  0  0  0  0
   26.5244  -19.2861  -14.0252 C   0  0  0  0  0  0  0  0  0  0  0  0
   28.0614  -19.3036  -14.0497 C   0  0  0  0  0  0  0  0  0  0  0  0
   28.3963  -19.8193  -12.6970 C   0  0  0  0  0  0  0  0  0  0  0  0
   27.3331  -20.8665  -12.4518 C   0  0  1  0  0  0  0  0  0  0  0  0
   26.9288  -20.7579  -11.0099 C   0  0  0  0  0  0  0  0  0  0  0  0
   25.8546  -20.1605  -10.7281 O   0  0  0  0  0  0  0  0  0  0  0  0
   27.7012  -21.2975   -9.9570 N   0  0  0  0  0  0  0  0  0  0  0  0
   27.2900  -21.1523   -8.5483 C   0  0  1  0  0  0  0  0  0  0  0  0
   28.5201  -21.2124   -7.7164 C   0  0  0  0  0  0  0  0  0  0  0  0
   28.3708  -20.7323   -6.3280 C   0  0  0  0  0  0  0  0  0  0  0  0
   27.9291  -21.5011   -5.2962 C   0  0  0  0  0  0  0  0  0  0  0  0
   27.8335  -20.9513   -4.0373 C   0  0  0  0  0  0  0  0  0  0  0  0
   28.1772  -19.6389   -3.8089 C   0  0  0  0  0  0  0  0  0  0  0  0
   28.6245  -18.8501   -4.8401 C   0  0  0  0  0  0  0  0  0  0  0  0
   28.7141  -19.4182   -6.0956 C   0  0  0  0  0  0  0  0  0  0  0  0
   26.6043  -19.8476   -8.4521 C   0  0  0  0  0  0  0  0  0  0  0  0
   27.1393  -18.7639   -9.1272 O   0  0  0  0  0  0  0  0  0  0  0  0
   25.5585  -19.6710   -7.7869 O   0  0  0  0  0  0  0  0  0  0  0  0
  2  1  1  1
  2  3  1  0
  3  4  1  0
  4  9  1  0
  5  4  2  0
  5  6  1  0
  6  7  2  0
  7  8  1  0
  9  8  2  0
 10 12  1  0
 10  2  1  0
 11 10  2  0
 12 16  1  0
 13 12  1  0
 13 14  1  0
 14 15  1  0
 15 16  1  0
 16 17  1  1
 17 18  2  0
 19 17  1  0
 20 28  1  0
 20 19  1  0
 20 21  1  1
 22 23  2  0
 22 21  1  0
 24 23  1  0
 25 24  2  0
 26 25  1  0
 26 27  2  0
 27 22  1  0
 28 29  1  0
 30 28  2  0
M  END
$$$$
