FPF.pdb
     RDKit          3D

 30 32  0  0  1  0  0  0  0  0999 V2000
   26.8428  -18.5411  -10.9430 N   0  0  0  0  0  0  0  0  0  0  0  0
   26.9774  -19.8852  -11.3969 C   0  0  1  0  0  0  0  0  0  0  0  0
   26.5270  -20.8607  -10.3392 C   0  0  0  0  0  0  0  0  0  0  0  0
   27.2252  -20.6839   -9.0490 C   0  0  0  0  0  0  0  0  0  0  0  0
   28.5688  -21.0479   -8.9120 C   0  0  0  0  0  0  0  0  0  0  0  0
   29.2183  -20.8677   -7.7300 C   0  0  0  0  0  0  0  0  0  0  0  0
   28.5868  -20.3244   -6.6286 C   0  0  0  0  0  0  0  0  0  0  0  0
   27.2627  -19.9526   -6.7241 C   0  0  0  0  0  0  0  0  0  0  0  0
   26.6154  -20.1413   -7.9315 C   0  0  0  0  0  0  0  0  0  0  0  0
   26.3390  -20.1957  -12.6845 C   0  0  0  0  0  0  0  0  0  0  0  0
   25.2662  -19.5657  -12.9428 O   0  0  0  0  0  0  0  0  0  0  0  0
   26.8320  -21.1204  -13.6139 N   0  0  0  0  0  0  0  0  0  0  0  0
   27.9566  -22.0180  -13.5093 C   0  0  0  0  0  0  0  0  0  0  0  0
   28.3694  -22.2089  -14.9778 C   0  0  0  0  0  0  0  0  0  0  0  0
   27.0572  -22.3047  -15.6684 C   0  0  0  0  0  0  0  0  0  0  0  0
   26.2045  -21.2936  -14.9351 C   0  0  1  0  0  0  0  0  0  0  0  0
   24.8335  -21.8894  -14.7945 C   0  0  0  0  0  0  0  0  0  0  0  0
   24.6528  -22.7896  -13.9302 O   0  0  0  0  0  0  0  0  0  0  0  0
   23.7385  -21.4829  -15.5897 N   0  0  0  0  0  0  0  0  0  0  0  0
   22.4029  -22.0862  -15.4261 C   0  0  1  0  0  0  0  0  0  0  0  0
   21.5685  -21.1215  -14.6633 C   0  0  0  0  0  0  0  0  0  0  0  0
   21.5614  -19.7394  -15.1833 C   0  0  0  0  0  0  0  0  0  0  0  0
   20.7456  -19.3014  -16.1799 C   0  0  0  0  0  0  0  0  0  0  0  0
   20.8192  -17.9870  -16.5839 C   0  0  0  0  0  0  0  0  0  0  0  0
   21.7038  -17.1129  -15.9957 C   0  0  0  0  0  0  0  0  0  0  0  0
   22.5340  -17.5401  -14.9886 C   0  0  0  0  0  0  0  0  0  0  0  0
   22.4463  -18.8613  -14.5963 C   0  0  0  0  0  0  0  0  0  0  0  0
   21.8892  -22.3246  -16.7902 C   0  0  0  0  0  0  0  0  0  0  0  0
   20.7995  -23.1627  -16.9533 O   0  0  0  0  0  0  0  0  0  0  0  0
   22.3924  -21.8050  -17.8121 O   0  0  0  0  0  0  0  0  0  0  0  0
  2  1  1  1
  2  3  1  0
  3  4  1  0
  4  9  1  0
  5  4  2  0
  5  6  1  0
  6  7  2  0
  7  8  1  0
  9  8  2  0
 10 12  1  0
 10  2  1  0
 11 10  2  0
 12 16  1  0
 13 12  1  0
 13 14  1  0
 14 15  1  0
 15 16  1  0
 16 17  1  1
 17 18  2  0
 19 17  1  0
 20 28  1  0
 20 19  1  0
 20 21  1  6
 22 23  2  0
 22 21  1  0
 24 23  1  0
 25 24  2  0
 26 25  1  0
 26 27  2  0
 27 22  1  0
 28 29  1  0
 30 28  2  0
M  END
$$$$
