SFV.pdb
     RDKit          3D

 25 25  0  0  1  0  0  0  0  0999 V2000
   25.6395  -20.9683  -17.8643 O   0  0  0  0  0  0  0  0  0  0  0  0
   26.9872  -20.9463  -17.5485 C   0  0  0  0  0  0  0  0  0  0  0  0
   27.3367  -22.2518  -16.8179 C   0  0  2  0  0  0  0  0  0  0  0  0
   26.8520  -23.3756  -17.5666 N   0  0  0  0  0  0  0  0  0  0  0  0
   26.6109  -22.1880  -15.5282 C   0  0  0  0  0  0  0  0  0  0  0  0
   25.5877  -22.9151  -15.4028 O   0  0  0  0  0  0  0  0  0  0  0  0
   27.0631  -21.3394  -14.4905 N   0  0  0  0  0  0  0  0  0  0  0  0
   26.3141  -21.2828  -13.2586 C   0  0  1  0  0  0  0  0  0  0  0  0
   27.2031  -20.8075  -12.1439 C   0  0  0  0  0  0  0  0  0  0  0  0
   26.5256  -20.6376  -10.8559 C   0  0  0  0  0  0  0  0  0  0  0  0
   26.2620  -19.4054  -10.3065 C   0  0  0  0  0  0  0  0  0  0  0  0
   25.6135  -19.2950   -9.0689 C   0  0  0  0  0  0  0  0  0  0  0  0
   25.2271  -20.4190   -8.3778 C   0  0  0  0  0  0  0  0  0  0  0  0
   25.4881  -21.6492   -8.9223 C   0  0  0  0  0  0  0  0  0  0  0  0
   26.1267  -21.7401  -10.1405 C   0  0  0  0  0  0  0  0  0  0  0  0
   25.0966  -20.5039  -13.4452 C   0  0  0  0  0  0  0  0  0  0  0  0
   25.0502  -19.3399  -13.9265 O   0  0  0  0  0  0  0  0  0  0  0  0
   21.4942  -22.3488  -14.1872 C   0  0  0  0  0  0  0  0  0  0  0  0
   21.8377  -20.8944  -14.3612 C   0  0  2  0  0  0  0  0  0  0  0  0
   22.5706  -20.7319  -15.6681 C   0  0  0  0  0  0  0  0  0  0  0  0
   22.6099  -20.3239  -13.2004 C   0  0  2  0  0  0  0  0  0  0  0  0
   23.8539  -21.0771  -13.0631 N   0  0  0  0  0  0  0  0  0  0  0  0
   21.7484  -20.5012  -11.9889 C   0  0  0  0  0  0  0  0  0  0  0  0
   21.9898  -21.4546  -11.2345 O   0  0  0  0  0  0  0  0  0  0  0  0
   20.7368  -19.5944  -11.7826 O   0  0  0  0  0  0  0  0  0  0  0  0
  2  1  1  0
  3  2  1  0
  3  4  1  6
  5  3  1  0
  6  5  2  0
  7  5  1  0
  8  7  1  0
  8  9  1  1
  9 10  1  0
 10 15  2  0
 10 11  1  0
 11 12  2  0
 12 13  1  0
 14 13  2  0
 15 14  1  0
 16 22  1  0
 16  8  1  0
 17 16  2  0
 19 18  1  1
 19 21  1  0
 20 19  1  0
 21 23  1  0
 21 22  1  1
 23 25  1  0
 24 23  2  0
M  END
$$$$
