SFV.pdb
     RDKit          3D

 25 25  0  0  1  0  0  0  0  0999 V2000
   18.2767   -2.8298  -18.5962 O   0  0  0  0  0  0  0  0  0  0  0  0
   18.5553   -1.9573  -17.5580 C   0  0  0  0  0  0  0  0  0  0  0  0
   18.1168   -2.6139  -16.2402 C   0  0  2  0  0  0  0  0  0  0  0  0
   16.6846   -2.6388  -16.1595 N   0  0  0  0  0  0  0  0  0  0  0  0
   18.6406   -1.7353  -15.1688 C   0  0  0  0  0  0  0  0  0  0  0  0
   18.2086   -1.9275  -13.9992 O   0  0  0  0  0  0  0  0  0  0  0  0
   19.5871   -0.7266  -15.4654 N   0  0  0  0  0  0  0  0  0  0  0  0
   20.0929    0.0937  -14.3915 C   0  0  1  0  0  0  0  0  0  0  0  0
   20.7992   -0.7677  -13.3826 C   0  0  0  0  0  0  0  0  0  0  0  0
   21.5365   -0.0240  -12.3577 C   0  0  0  0  0  0  0  0  0  0  0  0
   22.8164    0.4405  -12.5467 C   0  0  0  0  0  0  0  0  0  0  0  0
   23.4815    1.1448  -11.5337 C   0  0  0  0  0  0  0  0  0  0  0  0
   22.8661    1.3857  -10.3280 C   0  0  0  0  0  0  0  0  0  0  0  0
   21.5901    0.9241  -10.1359 C   0  0  0  0  0  0  0  0  0  0  0  0
   20.9503    0.2333  -11.1426 C   0  0  0  0  0  0  0  0  0  0  0  0
   20.8914    1.1886  -14.9277 C   0  0  0  0  0  0  0  0  0  0  0  0
   21.8186    1.0607  -15.7719 O   0  0  0  0  0  0  0  0  0  0  0  0
   19.5192    4.1988  -16.5832 C   0  0  0  0  0  0  0  0  0  0  0  0
   20.4178    4.6882  -15.4802 C   0  0  2  0  0  0  0  0  0  0  0  0
   21.1139    5.9383  -15.9532 C   0  0  0  0  0  0  0  0  0  0  0  0
   21.3894    3.6427  -14.9983 C   0  0  2  0  0  0  0  0  0  0  0  0
   20.6250    2.5107  -14.4807 N   0  0  0  0  0  0  0  0  0  0  0  0
   22.1932    4.2802  -13.9080 C   0  0  0  0  0  0  0  0  0  0  0  0
   23.3096    4.7359  -14.1951 O   0  0  0  0  0  0  0  0  0  0  0  0
   21.6457    4.3236  -12.6484 O   0  0  0  0  0  0  0  0  0  0  0  0
  2  1  1  0
  3  2  1  0
  3  4  1  6
  5  3  1  0
  6  5  2  0
  7  5  1  0
  8  7  1  0
  8  9  1  1
  9 10  1  0
 10 15  2  0
 10 11  1  0
 11 12  2  0
 12 13  1  0
 14 13  2  0
 15 14  1  0
 16 22  1  0
 16  8  1  0
 17 16  2  0
 19 18  1  6
 19 21  1  0
 20 19  1  0
 21 23  1  0
 21 22  1  1
 23 25  1  0
 24 23  2  0
M  END
$$$$
