SFV.pdb
     RDKit          3D

 25 25  0  0  1  0  0  0  0  0999 V2000
   26.0332  -20.2315  -17.7510 O   0  0  0  0  0  0  0  0  0  0  0  0
   27.2636  -20.2191  -17.1164 C   0  0  0  0  0  0  0  0  0  0  0  0
   27.5433  -21.6277  -16.5707 C   0  0  2  0  0  0  0  0  0  0  0  0
   27.0456  -22.6141  -17.4858 N   0  0  0  0  0  0  0  0  0  0  0  0
   26.7774  -21.7196  -15.3061 C   0  0  0  0  0  0  0  0  0  0  0  0
   25.7628  -22.4692  -15.2966 O   0  0  0  0  0  0  0  0  0  0  0  0
   27.1837  -20.9882  -14.1653 N   0  0  0  0  0  0  0  0  0  0  0  0
   26.3882  -21.0692  -12.9643 C   0  0  1  0  0  0  0  0  0  0  0  0
   27.2146  -20.6588  -11.7779 C   0  0  0  0  0  0  0  0  0  0  0  0
   26.4625  -20.5342  -10.5266 C   0  0  0  0  0  0  0  0  0  0  0  0
   26.1537  -19.3216   -9.9574 C   0  0  0  0  0  0  0  0  0  0  0  0
   25.4342  -19.2546   -8.7565 C   0  0  0  0  0  0  0  0  0  0  0  0
   25.0218  -20.4026   -8.1221 C   0  0  0  0  0  0  0  0  0  0  0  0
   25.3277  -21.6134   -8.6865 C   0  0  0  0  0  0  0  0  0  0  0  0
   26.0361  -21.6615   -9.8680 C   0  0  0  0  0  0  0  0  0  0  0  0
   25.1463  -20.3254  -13.1321 C   0  0  0  0  0  0  0  0  0  0  0  0
   25.0623  -19.1521  -13.5850 O   0  0  0  0  0  0  0  0  0  0  0  0
   21.6656  -22.1035  -14.2286 C   0  0  0  0  0  0  0  0  0  0  0  0
   21.9956  -20.6368  -14.1688 C   0  0  2  0  0  0  0  0  0  0  0  0
   22.8334  -20.2885  -15.3722 C   0  0  0  0  0  0  0  0  0  0  0  0
   22.6559  -20.2291  -12.8777 C   0  0  2  0  0  0  0  0  0  0  0  0
   23.9228  -20.9473  -12.7643 N   0  0  0  0  0  0  0  0  0  0  0  0
   21.7217  -20.6287  -11.7782 C   0  0  0  0  0  0  0  0  0  0  0  0
   21.9490  -21.6867  -11.1737 O   0  0  0  0  0  0  0  0  0  0  0  0
   20.6632  -19.7973  -11.5016 O   0  0  0  0  0  0  0  0  0  0  0  0
  2  1  1  0
  3  2  1  0
  3  4  1  6
  5  3  1  0
  6  5  2  0
  7  5  1  0
  8  7  1  0
  8  9  1  1
  9 10  1  0
 10 15  2  0
 10 11  1  0
 11 12  2  0
 12 13  1  0
 14 13  2  0
 15 14  1  0
 16 22  1  0
 16  8  1  0
 17 16  2  0
 19 18  1  1
 19 21  1  0
 20 19  1  0
 21 23  1  0
 21 22  1  1
 23 25  1  0
 24 23  2  0
M  END
$$$$
