SFV.pdb
     RDKit          3D

 25 25  0  0  1  0  0  0  0  0999 V2000
   10.2654  -24.0385  -10.6120 O   0  0  0  0  0  0  0  0  0  0  0  0
   10.5885  -22.9790   -9.7815 C   0  0  0  0  0  0  0  0  0  0  0  0
   11.9772  -22.4559  -10.1788 C   0  0  2  0  0  0  0  0  0  0  0  0
   12.6710  -23.4475  -10.9491 N   0  0  0  0  0  0  0  0  0  0  0  0
   12.7007  -22.2499   -8.9026 C   0  0  0  0  0  0  0  0  0  0  0  0
   13.7086  -22.9765   -8.6844 O   0  0  0  0  0  0  0  0  0  0  0  0
   12.2631  -21.2723   -7.9783 N   0  0  0  0  0  0  0  0  0  0  0  0
   13.0839  -20.9827   -6.8276 C   0  0  1  0  0  0  0  0  0  0  0  0
   13.4904  -19.5359   -6.8437 C   0  0  0  0  0  0  0  0  0  0  0  0
   14.2879  -19.1411   -8.0078 C   0  0  0  0  0  0  0  0  0  0  0  0
   15.6186  -19.4577   -8.1448 C   0  0  0  0  0  0  0  0  0  0  0  0
   16.3398  -19.0542   -9.2767 C   0  0  0  0  0  0  0  0  0  0  0  0
   15.7299  -18.3319  -10.2751 C   0  0  0  0  0  0  0  0  0  0  0  0
   14.4034  -18.0144  -10.1422 C   0  0  0  0  0  0  0  0  0  0  0  0
   13.7086  -18.4192   -9.0226 C   0  0  0  0  0  0  0  0  0  0  0  0
   12.4129  -21.4165   -5.6088 C   0  0  0  0  0  0  0  0  0  0  0  0
   11.1731  -21.3326   -5.3975 O   0  0  0  0  0  0  0  0  0  0  0  0
   12.8157  -24.1586   -1.5101 C   0  0  0  0  0  0  0  0  0  0  0  0
   13.3829  -23.5795   -2.7775 C   0  0  2  0  0  0  0  0  0  0  0  0
   14.8136  -23.1819   -2.5201 C   0  0  0  0  0  0  0  0  0  0  0  0
   12.5651  -22.4400   -3.3273 C   0  0  2  0  0  0  0  0  0  0  0  0
   13.1929  -21.9802   -4.5635 N   0  0  0  0  0  0  0  0  0  0  0  0
   12.5884  -21.3611   -2.2897 C   0  0  0  0  0  0  0  0  0  0  0  0
   13.5015  -20.5243   -2.3370 O   0  0  0  0  0  0  0  0  0  0  0  0
   11.5933  -21.3606   -1.3420 O   0  0  0  0  0  0  0  0  0  0  0  0
  2  1  1  0
  3  2  1  0
  3  4  1  6
  5  3  1  0
  6  5  2  0
  7  5  1  0
  8  7  1  0
  8  9  1  1
  9 10  1  0
 10 15  2  0
 10 11  1  0
 11 12  2  0
 12 13  1  0
 14 13  2  0
 15 14  1  0
 16 22  1  0
 16  8  1  0
 17 16  2  0
 19 18  1  1
 19 21  1  0
 20 19  1  0
 21 23  1  0
 21 22  1  6
 23 25  1  0
 24 23  2  0
M  END
$$$$
