SFV.pdb
     RDKit          3D

 25 25  0  0  1  0  0  0  0  0999 V2000
   24.3618  -19.2217  -12.5540 O   0  0  0  0  0  0  0  0  0  0  0  0
   24.4573  -20.4972  -12.0242 C   0  0  0  0  0  0  0  0  0  0  0  0
   25.9400  -20.8973  -11.9841 C   0  0  2  0  0  0  0  0  0  0  0  0
   26.1288  -22.1430  -12.6702 N   0  0  0  0  0  0  0  0  0  0  0  0
   26.2578  -21.0887  -10.5500 C   0  0  0  0  0  0  0  0  0  0  0  0
   25.9367  -22.1913  -10.0278 O   0  0  0  0  0  0  0  0  0  0  0  0
   26.8963  -20.0641   -9.8126 N   0  0  0  0  0  0  0  0  0  0  0  0
   27.1379  -20.2644   -8.4043 C   0  0  1  0  0  0  0  0  0  0  0  0
   28.2461  -19.3592   -7.9444 C   0  0  0  0  0  0  0  0  0  0  0  0
   28.5644  -19.4638   -6.5180 C   0  0  0  0  0  0  0  0  0  0  0  0
   28.2767  -18.4700   -5.6128 C   0  0  0  0  0  0  0  0  0  0  0  0
   28.6043  -18.6161   -4.2579 C   0  0  0  0  0  0  0  0  0  0  0  0
   29.2214  -19.7585   -3.8057 C   0  0  0  0  0  0  0  0  0  0  0  0
   29.5098  -20.7515   -4.7050 C   0  0  0  0  0  0  0  0  0  0  0  0
   29.1807  -20.5918   -6.0341 C   0  0  0  0  0  0  0  0  0  0  0  0
   25.8933  -20.1368   -7.6570 C   0  0  0  0  0  0  0  0  0  0  0  0
   25.0060  -19.2681   -7.8739 O   0  0  0  0  0  0  0  0  0  0  0  0
   23.1624  -22.3256   -7.4337 C   0  0  0  0  0  0  0  0  0  0  0  0
   23.5816  -22.1458   -6.0000 C   0  0  2  0  0  0  0  0  0  0  0  0
   22.3442  -22.1417   -5.1397 C   0  0  0  0  0  0  0  0  0  0  0  0
   24.4328  -20.9227   -5.7794 C   0  0  2  0  0  0  0  0  0  0  0  0
   25.6362  -21.0483   -6.5978 N   0  0  0  0  0  0  0  0  0  0  0  0
   24.7830  -20.9057   -4.3240 C   0  0  0  0  0  0  0  0  0  0  0  0
   25.7313  -21.6069   -3.9428 O   0  0  0  0  0  0  0  0  0  0  0  0
   24.0308  -20.1116   -3.4922 O   0  0  0  0  0  0  0  0  0  0  0  0
  2  1  1  0
  3  2  1  0
  3  4  1  6
  5  3  1  0
  6  5  2  0
  7  5  1  0
  8  7  1  0
  8  9  1  1
  9 10  1  0
 10 15  2  0
 10 11  1  0
 11 12  2  0
 12 13  1  0
 14 13  2  0
 15 14  1  0
 16 22  1  0
 16  8  1  0
 17 16  2  0
 19 18  1  6
 19 21  1  0
 20 19  1  0
 21 23  1  0
 21 22  1  6
 23 25  1  0
 24 23  2  0
M  END
$$$$
