SFV.pdb
     RDKit          3D

 25 25  0  0  1  0  0  0  0  0999 V2000
   20.7062  -10.4573  -20.7039 O   0  0  0  0  0  0  0  0  0  0  0  0
   20.6874   -9.7465  -19.5160 C   0  0  0  0  0  0  0  0  0  0  0  0
   22.0456   -9.9255  -18.8208 C   0  0  2  0  0  0  0  0  0  0  0  0
   22.1708  -11.2682  -18.3311 N   0  0  0  0  0  0  0  0  0  0  0  0
   22.0234   -8.9964  -17.6673 C   0  0  0  0  0  0  0  0  0  0  0  0
   21.2669   -9.2901  -16.7015 O   0  0  0  0  0  0  0  0  0  0  0  0
   22.8260   -7.8314  -17.6676 N   0  0  0  0  0  0  0  0  0  0  0  0
   22.7689   -6.9440  -16.5314 C   0  0  1  0  0  0  0  0  0  0  0  0
   24.0849   -6.9611  -15.8057 C   0  0  0  0  0  0  0  0  0  0  0  0
   25.2601   -6.8575  -16.6748 C   0  0  0  0  0  0  0  0  0  0  0  0
   25.6942   -5.6665  -17.2065 C   0  0  0  0  0  0  0  0  0  0  0  0
   26.8231   -5.6195  -18.0359 C   0  0  0  0  0  0  0  0  0  0  0  0
   27.5205   -6.7660  -18.3352 C   0  0  0  0  0  0  0  0  0  0  0  0
   27.0908   -7.9552  -17.8070 C   0  0  0  0  0  0  0  0  0  0  0  0
   25.9787   -7.9839  -16.9930 C   0  0  0  0  0  0  0  0  0  0  0  0
   22.3161   -5.6226  -16.9471 C   0  0  0  0  0  0  0  0  0  0  0  0
   22.6994   -5.0213  -17.9865 O   0  0  0  0  0  0  0  0  0  0  0  0
   18.5646   -4.4046  -15.8948 C   0  0  0  0  0  0  0  0  0  0  0  0
   19.4319   -3.7703  -16.9479 C   0  0  2  0  0  0  0  0  0  0  0  0
   19.2932   -4.5656  -18.2205 C   0  0  0  0  0  0  0  0  0  0  0  0
   20.8694   -3.6219  -16.5227 C   0  0  2  0  0  0  0  0  0  0  0  0
   21.3711   -4.9382  -16.1363 N   0  0  0  0  0  0  0  0  0  0  0  0
   20.8716   -2.6906  -15.3505 C   0  0  0  0  0  0  0  0  0  0  0  0
   20.7452   -1.4769  -15.5682 O   0  0  0  0  0  0  0  0  0  0  0  0
   21.0142   -3.2364  -14.0975 O   0  0  0  0  0  0  0  0  0  0  0  0
  2  1  1  0
  3  2  1  0
  3  4  1  1
  5  3  1  0
  6  5  2  0
  7  5  1  0
  8  7  1  0
  8  9  1  6
  9 10  1  0
 10 15  2  0
 10 11  1  0
 11 12  2  0
 12 13  1  0
 14 13  2  0
 15 14  1  0
 16 22  1  0
 16  8  1  0
 17 16  2  0
 19 18  1  1
 19 21  1  0
 20 19  1  0
 21 23  1  0
 21 22  1  1
 23 25  1  0
 24 23  2  0
M  END
$$$$
