SFV.pdb
     RDKit          3D

 25 25  0  0  1  0  0  0  0  0999 V2000
   26.7022  -19.5797  -14.4114 O   0  0  0  0  0  0  0  0  0  0  0  0
   27.5312  -19.2666  -13.3478 C   0  0  0  0  0  0  0  0  0  0  0  0
   28.3855  -20.5000  -13.0178 C   0  0  2  0  0  0  0  0  0  0  0  0
   28.0604  -21.5733  -13.9126 N   0  0  0  0  0  0  0  0  0  0  0  0
   27.9984  -20.8909  -11.6424 C   0  0  0  0  0  0  0  0  0  0  0  0
   27.2412  -21.8920  -11.5161 O   0  0  0  0  0  0  0  0  0  0  0  0
   28.4695  -20.1581  -10.5277 N   0  0  0  0  0  0  0  0  0  0  0  0
   27.8974  -20.4180   -9.2289 C   0  0  1  0  0  0  0  0  0  0  0  0
   28.7900  -19.8566   -8.1581 C   0  0  0  0  0  0  0  0  0  0  0  0
   28.2742  -20.0082   -6.7950 C   0  0  0  0  0  0  0  0  0  0  0  0
   28.4081  -21.1681   -6.0696 C   0  0  0  0  0  0  0  0  0  0  0  0
   27.8943  -21.2651   -4.7692 C   0  0  0  0  0  0  0  0  0  0  0  0
   27.2445  -20.1999   -4.1916 C   0  0  0  0  0  0  0  0  0  0  0  0
   27.1091  -19.0418   -4.9117 C   0  0  0  0  0  0  0  0  0  0  0  0
   27.6204  -18.9632   -6.1894 C   0  0  0  0  0  0  0  0  0  0  0  0
   26.5180  -19.9497   -9.1838 C   0  0  0  0  0  0  0  0  0  0  0  0
   26.1577  -18.7494   -9.3185 O   0  0  0  0  0  0  0  0  0  0  0  0
   22.1079  -20.3544  -10.5638 C   0  0  0  0  0  0  0  0  0  0  0  0
   23.5376  -20.7872  -10.3843 C   0  0  2  0  0  0  0  0  0  0  0  0
   23.6397  -22.2491  -10.7359 C   0  0  0  0  0  0  0  0  0  0  0  0
   24.0787  -20.4928   -9.0096 C   0  0  2  0  0  0  0  0  0  0  0  0
   25.4815  -20.8983   -8.9727 N   0  0  0  0  0  0  0  0  0  0  0  0
   23.2677  -21.3075   -8.0504 C   0  0  0  0  0  0  0  0  0  0  0  0
   23.8223  -22.2536   -7.4730 O   0  0  0  0  0  0  0  0  0  0  0  0
   21.9516  -20.9585   -7.8651 O   0  0  0  0  0  0  0  0  0  0  0  0
  2  1  1  0
  3  2  1  0
  3  4  1  6
  5  3  1  0
  6  5  2  0
  7  5  1  0
  8  7  1  0
  8  9  1  1
  9 10  1  0
 10 15  2  0
 10 11  1  0
 11 12  2  0
 12 13  1  0
 14 13  2  0
 15 14  1  0
 16 22  1  0
 16  8  1  0
 17 16  2  0
 19 18  1  1
 19 21  1  0
 20 19  1  0
 21 23  1  0
 21 22  1  6
 23 25  1  0
 24 23  2  0
M  END
$$$$
