QQG.pdb
     RDKit          3D

 23 22  0  0  1  0  0  0  0  0999 V2000
   27.2507  -10.1189  -16.1089 N   0  0  0  0  0  0  0  0  0  0  0  0
   26.9815  -11.5025  -16.0417 C   0  0  0  0  0  0  0  0  0  0  0  0
   27.9225  -12.3008  -15.8427 O   0  0  0  0  0  0  0  0  0  0  0  0
   25.6114  -12.0374  -16.2006 C   0  0  0  0  0  0  0  0  0  0  0  0
   24.6027  -10.9031  -16.3741 C   0  0  0  0  0  0  0  0  0  0  0  0
   23.2342  -11.4959  -16.5860 C   0  0  2  0  0  0  0  0  0  0  0  0
   23.2164  -12.3364  -17.7482 N   0  0  0  0  0  0  0  0  0  0  0  0
   22.2383  -10.4043  -16.6559 C   0  0  0  0  0  0  0  0  0  0  0  0
   22.1115   -9.7445  -17.7325 O   0  0  0  0  0  0  0  0  0  0  0  0
   17.3209  -10.9425  -18.7019 N   0  0  0  0  0  0  0  0  0  0  0  0
   17.6320  -10.1133  -17.5984 C   0  0  0  0  0  0  0  0  0  0  0  0
   17.0650   -8.9930  -17.4752 O   0  0  0  0  0  0  0  0  0  0  0  0
   18.6032  -10.5183  -16.5670 C   0  0  0  0  0  0  0  0  0  0  0  0
   19.0402   -9.4841  -15.6151 C   0  0  0  0  0  0  0  0  0  0  0  0
   20.4104   -8.9242  -15.7283 C   0  0  2  0  0  0  0  0  0  0  0  0
   21.3937  -10.0323  -15.5800 N   0  0  0  0  0  0  0  0  0  0  0  0
   20.8155   -7.8975  -14.7691 C   0  0  0  0  0  0  0  0  0  0  0  0
   21.3700   -8.1365  -13.6459 O   0  0  0  0  0  0  0  0  0  0  0  0
   20.6157   -6.4972  -15.0218 N   0  0  0  0  0  0  0  0  0  0  0  0
   21.0928   -5.4830  -14.1132 C   0  0  0  0  0  0  0  0  0  0  0  0
   22.4857   -5.0589  -14.4518 C   0  0  0  0  0  0  0  0  0  0  0  0
   23.1581   -4.0876  -13.7551 O   0  0  0  0  0  0  0  0  0  0  0  0
   23.0559   -5.6112  -15.4048 O   0  0  0  0  0  0  0  0  0  0  0  0
  1  2  1  0
  2  3  2  0
  4  5  1  0
  4  2  1  0
  6  8  1  0
  6  7  1  6
  6  5  1  0
  8  9  2  0
 10 11  1  0
 11 12  2  0
 13 11  1  0
 13 14  1  0
 15 14  1  1
 15 17  1  0
 16 15  1  0
 16  8  1  0
 17 18  2  0
 17 19  1  0
 19 20  1  0
 21 20  1  0
 21 22  1  0
 23 21  2  0
M  END
$$$$
