QQG.pdb
     RDKit          3D

 23 22  0  0  1  0  0  0  0  0999 V2000
   17.2528  -12.8306  -12.6620 N   0  0  0  0  0  0  0  0  0  0  0  0
   16.5954  -13.2123  -13.8508 C   0  0  0  0  0  0  0  0  0  0  0  0
   16.2665  -14.4073  -14.0125 O   0  0  0  0  0  0  0  0  0  0  0  0
   16.2829  -12.2342  -14.9158 C   0  0  0  0  0  0  0  0  0  0  0  0
   16.7708  -10.8384  -14.5310 C   0  0  0  0  0  0  0  0  0  0  0  0
   15.6641  -10.1178  -13.8063 C   0  0  2  0  0  0  0  0  0  0  0  0
   14.5369   -9.9137  -14.6696 N   0  0  0  0  0  0  0  0  0  0  0  0
   16.1923   -8.8534  -13.2489 C   0  0  0  0  0  0  0  0  0  0  0  0
   16.0871   -7.7833  -13.9230 O   0  0  0  0  0  0  0  0  0  0  0  0
   15.4473   -6.5703   -7.5857 N   0  0  0  0  0  0  0  0  0  0  0  0
   14.6294   -6.7290   -8.7293 C   0  0  0  0  0  0  0  0  0  0  0  0
   13.3776   -6.6088   -8.6277 O   0  0  0  0  0  0  0  0  0  0  0  0
   15.1938   -7.0269  -10.0574 C   0  0  0  0  0  0  0  0  0  0  0  0
   16.6541   -7.1911  -10.1433 C   0  0  0  0  0  0  0  0  0  0  0  0
   17.2823   -7.4290  -11.4670 C   0  0  2  0  0  0  0  0  0  0  0  0
   16.8235   -8.7476  -11.9842 N   0  0  0  0  0  0  0  0  0  0  0  0
   18.7425   -7.4553  -11.5409 C   0  0  0  0  0  0  0  0  0  0  0  0
   19.4734   -8.3863  -11.0663 O   0  0  0  0  0  0  0  0  0  0  0  0
   19.4927   -6.4046  -12.1717 N   0  0  0  0  0  0  0  0  0  0  0  0
   20.9352   -6.3782  -12.1486 C   0  0  0  0  0  0  0  0  0  0  0  0
   21.4691   -5.1513  -12.8153 C   0  0  0  0  0  0  0  0  0  0  0  0
   22.7772   -4.7543  -12.7060 O   0  0  0  0  0  0  0  0  0  0  0  0
   20.6929   -4.4643  -13.4965 O   0  0  0  0  0  0  0  0  0  0  0  0
  1  2  1  0
  2  3  2  0
  4  5  1  0
  4  2  1  0
  6  8  1  0
  6  7  1  6
  6  5  1  0
  8  9  2  0
 10 11  1  0
 11 12  2  0
 13 11  1  0
 13 14  1  0
 15 14  1  1
 15 17  1  0
 16 15  1  0
 16  8  1  0
 17 18  2  0
 17 19  1  0
 19 20  1  0
 21 20  1  0
 21 22  1  0
 23 21  2  0
M  END
$$$$
