QQG.pdb
     RDKit          3D

 23 22  0  0  1  0  0  0  0  0999 V2000
   18.7437  -16.0438  -14.4472 N   0  0  0  0  0  0  0  0  0  0  0  0
   18.3878  -16.2799  -15.7921 C   0  0  0  0  0  0  0  0  0  0  0  0
   17.6379  -17.2411  -16.0678 O   0  0  0  0  0  0  0  0  0  0  0  0
   18.8791  -15.4184  -16.8899 C   0  0  0  0  0  0  0  0  0  0  0  0
   19.5932  -14.1868  -16.3352 C   0  0  0  0  0  0  0  0  0  0  0  0
   21.0765  -14.3494  -16.5413 C   0  0  2  0  0  0  0  0  0  0  0  0
   21.5589  -15.5241  -15.8743 N   0  0  0  0  0  0  0  0  0  0  0  0
   21.7657  -13.1178  -16.0978 C   0  0  0  0  0  0  0  0  0  0  0  0
   21.7683  -12.8146  -14.8655 O   0  0  0  0  0  0  0  0  0  0  0  0
   27.0775  -11.8637  -15.7796 N   0  0  0  0  0  0  0  0  0  0  0  0
   26.8052  -10.5011  -16.0466 C   0  0  0  0  0  0  0  0  0  0  0  0
   27.6491   -9.6184  -15.7300 O   0  0  0  0  0  0  0  0  0  0  0  0
   25.5565  -10.0677  -16.6975 C   0  0  0  0  0  0  0  0  0  0  0  0
   24.5844  -11.1163  -17.0476 C   0  0  0  0  0  0  0  0  0  0  0  0
   23.2312  -11.0859  -16.4381 C   0  0  2  0  0  0  0  0  0  0  0  0
   22.4405  -12.2290  -16.9717 N   0  0  0  0  0  0  0  0  0  0  0  0
   22.4082   -9.8958  -16.6489 C   0  0  0  0  0  0  0  0  0  0  0  0
   21.6006   -9.7390  -17.6233 O   0  0  0  0  0  0  0  0  0  0  0  0
   22.4441   -8.7754  -15.7500 N   0  0  0  0  0  0  0  0  0  0  0  0
   21.5939   -7.6240  -15.9326 C   0  0  0  0  0  0  0  0  0  0  0  0
   21.7959   -6.6186  -14.8449 C   0  0  0  0  0  0  0  0  0  0  0  0
   21.7215   -6.9377  -13.5132 O   0  0  0  0  0  0  0  0  0  0  0  0
   22.0415   -5.4454  -15.1636 O   0  0  0  0  0  0  0  0  0  0  0  0
  1  2  1  0
  2  3  2  0
  4  5  1  0
  4  2  1  0
  6  8  1  0
  6  7  1  1
  6  5  1  0
  8  9  2  0
 10 11  1  0
 11 12  2  0
 13 11  1  0
 13 14  1  0
 15 14  1  6
 15 17  1  0
 16 15  1  0
 16  8  1  0
 17 18  2  0
 17 19  1  0
 19 20  1  0
 21 20  1  0
 21 22  1  0
 23 21  2  0
M  END
$$$$
