QQG.pdb
     RDKit          3D

 23 22  0  0  1  0  0  0  0  0999 V2000
   27.9821  -18.8906  -16.6199 N   0  0  0  0  0  0  0  0  0  0  0  0
   28.5422  -19.4916  -17.7672 C   0  0  0  0  0  0  0  0  0  0  0  0
   29.5896  -19.0175  -18.2577 O   0  0  0  0  0  0  0  0  0  0  0  0
   27.9226  -20.6718  -18.4087 C   0  0  0  0  0  0  0  0  0  0  0  0
   26.7294  -21.1686  -17.5939 C   0  0  0  0  0  0  0  0  0  0  0  0
   27.2382  -21.9607  -16.4179 C   0  0  2  0  0  0  0  0  0  0  0  0
   27.6690  -23.2655  -16.8293 N   0  0  0  0  0  0  0  0  0  0  0  0
   26.1899  -22.0082  -15.3752 C   0  0  0  0  0  0  0  0  0  0  0  0
   25.2320  -22.8324  -15.4918 O   0  0  0  0  0  0  0  0  0  0  0  0
   26.8634  -20.4214   -9.2606 N   0  0  0  0  0  0  0  0  0  0  0  0
   25.4937  -20.7592   -9.3700 C   0  0  0  0  0  0  0  0  0  0  0  0
   24.7491  -20.6997   -8.3533 O   0  0  0  0  0  0  0  0  0  0  0  0
   24.8928  -21.1775  -10.6487 C   0  0  0  0  0  0  0  0  0  0  0  0
   25.7117  -21.0105  -11.8604 C   0  0  0  0  0  0  0  0  0  0  0  0
   25.1236  -21.3306  -13.1852 C   0  0  2  0  0  0  0  0  0  0  0  0
   26.1775  -21.1788  -14.2258 N   0  0  0  0  0  0  0  0  0  0  0  0
   23.9880  -20.5322  -13.6449 C   0  0  0  0  0  0  0  0  0  0  0  0
   24.0889  -19.4337  -14.2848 O   0  0  0  0  0  0  0  0  0  0  0  0
   22.6287  -20.9321  -13.4060 N   0  0  0  0  0  0  0  0  0  0  0  0
   21.5127  -20.0890  -13.7603 C   0  0  0  0  0  0  0  0  0  0  0  0
   20.2093  -20.7408  -13.4271 C   0  0  0  0  0  0  0  0  0  0  0  0
   20.1172  -22.0317  -12.9732 O   0  0  0  0  0  0  0  0  0  0  0  0
   19.1671  -20.0832  -13.5683 O   0  0  0  0  0  0  0  0  0  0  0  0
  1  2  1  0
  2  3  2  0
  4  5  1  0
  4  2  1  0
  6  8  1  0
  6  7  1  6
  6  5  1  0
  8  9  2  0
 10 11  1  0
 11 12  2  0
 13 11  1  0
 13 14  1  0
 15 14  1  1
 15 17  1  0
 16 15  1  0
 16  8  1  0
 17 18  2  0
 17 19  1  0
 19 20  1  0
 21 20  1  0
 21 22  1  0
 23 21  2  0
M  END
$$$$
