QQG.pdb
     RDKit          3D

 23 22  0  0  1  0  0  0  0  0999 V2000
   26.4611  -15.6318  -14.3378 N   0  0  0  0  0  0  0  0  0  0  0  0
   26.6894  -16.0205  -15.6749 C   0  0  0  0  0  0  0  0  0  0  0  0
   27.4963  -16.9444  -15.9151 O   0  0  0  0  0  0  0  0  0  0  0  0
   25.9981  -15.3629  -16.8054 C   0  0  0  0  0  0  0  0  0  0  0  0
   25.0648  -14.2619  -16.3044 C   0  0  0  0  0  0  0  0  0  0  0  0
   23.6545  -14.5930  -16.7176 C   0  0  2  0  0  0  0  0  0  0  0  0
   23.6473  -15.4407  -17.8747 N   0  0  0  0  0  0  0  0  0  0  0  0
   22.9025  -13.3362  -16.9263 C   0  0  0  0  0  0  0  0  0  0  0  0
   22.9878  -12.7370  -18.0416 O   0  0  0  0  0  0  0  0  0  0  0  0
   17.0218  -12.7168  -15.8791 N   0  0  0  0  0  0  0  0  0  0  0  0
   17.3510  -11.4179  -16.3336 C   0  0  0  0  0  0  0  0  0  0  0  0
   16.4330  -10.6008  -16.6186 O   0  0  0  0  0  0  0  0  0  0  0  0
   18.7480  -10.9738  -16.4823 C   0  0  0  0  0  0  0  0  0  0  0  0
   19.7986  -11.9793  -16.2542 C   0  0  0  0  0  0  0  0  0  0  0  0
   21.2228  -11.5611  -16.2785 C   0  0  2  0  0  0  0  0  0  0  0  0
   22.0725  -12.7374  -15.9456 N   0  0  0  0  0  0  0  0  0  0  0  0
   21.6420  -10.4938  -15.3711 C   0  0  0  0  0  0  0  0  0  0  0  0
   21.8713  -10.6519  -14.1266 O   0  0  0  0  0  0  0  0  0  0  0  0
   21.8347   -9.1428  -15.8210 N   0  0  0  0  0  0  0  0  0  0  0  0
   22.1989   -8.0818  -14.9135 C   0  0  0  0  0  0  0  0  0  0  0  0
   21.0720   -7.1188  -14.7198 C   0  0  0  0  0  0  0  0  0  0  0  0
   21.1553   -6.0339  -13.8851 O   0  0  0  0  0  0  0  0  0  0  0  0
   20.0167   -7.3119  -15.3424 O   0  0  0  0  0  0  0  0  0  0  0  0
  1  2  1  0
  2  3  2  0
  4  5  1  0
  4  2  1  0
  6  8  1  0
  6  7  1  6
  6  5  1  0
  8  9  2  0
 10 11  1  0
 11 12  2  0
 13 11  1  0
 13 14  1  0
 15 14  1  1
 15 17  1  0
 16 15  1  0
 16  8  1  0
 17 18  2  0
 17 19  1  0
 19 20  1  0
 21 20  1  0
 21 22  1  0
 23 21  2  0
M  END
$$$$
