QQG.pdb
     RDKit          3D

 23 22  0  0  1  0  0  0  0  0999 V2000
   16.6971   -9.9963  -17.9309 N   0  0  0  0  0  0  0  0  0  0  0  0
   16.3506  -11.3632  -17.8793 C   0  0  0  0  0  0  0  0  0  0  0  0
   15.4222  -11.7876  -18.6006 O   0  0  0  0  0  0  0  0  0  0  0  0
   17.0579  -12.3125  -16.9921 C   0  0  0  0  0  0  0  0  0  0  0  0
   18.1691  -11.6060  -16.2172 C   0  0  0  0  0  0  0  0  0  0  0  0
   19.4994  -12.1520  -16.6660 C   0  0  2  0  0  0  0  0  0  0  0  0
   19.6925  -13.4881  -16.1814 N   0  0  0  0  0  0  0  0  0  0  0  0
   20.5724  -11.2286  -16.2366 C   0  0  0  0  0  0  0  0  0  0  0  0
   21.0859  -11.3632  -15.0839 O   0  0  0  0  0  0  0  0  0  0  0  0
   25.1801   -8.8297  -19.6793 N   0  0  0  0  0  0  0  0  0  0  0  0
   25.3123   -8.1102  -18.4682 C   0  0  0  0  0  0  0  0  0  0  0  0
   26.2994   -7.3432  -18.2980 O   0  0  0  0  0  0  0  0  0  0  0  0
   24.3209   -8.2189  -17.3836 C   0  0  0  0  0  0  0  0  0  0  0  0
   23.1852   -9.1293  -17.6027 C   0  0  0  0  0  0  0  0  0  0  0  0
   22.1638   -9.2871  -16.5370 C   0  0  2  0  0  0  0  0  0  0  0  0
   21.0816  -10.1775  -17.0397 N   0  0  0  0  0  0  0  0  0  0  0  0
   21.4959   -8.0847  -16.0407 C   0  0  0  0  0  0  0  0  0  0  0  0
   20.6190   -7.4250  -16.6904 O   0  0  0  0  0  0  0  0  0  0  0  0
   21.7818   -7.5340  -14.7448 N   0  0  0  0  0  0  0  0  0  0  0  0
   21.1007   -6.3635  -14.2468 C   0  0  0  0  0  0  0  0  0  0  0  0
   22.0134   -5.1805  -14.1988 C   0  0  0  0  0  0  0  0  0  0  0  0
   21.6206   -3.9563  -13.7213 O   0  0  0  0  0  0  0  0  0  0  0  0
   23.1761   -5.3147  -14.6093 O   0  0  0  0  0  0  0  0  0  0  0  0
  1  2  1  0
  2  3  2  0
  4  5  1  0
  4  2  1  0
  6  8  1  0
  6  7  1  1
  6  5  1  0
  8  9  2  0
 10 11  1  0
 11 12  2  0
 13 11  1  0
 13 14  1  0
 15 14  1  6
 15 17  1  0
 16 15  1  0
 16  8  1  0
 17 18  2  0
 17 19  1  0
 19 20  1  0
 21 20  1  0
 21 22  1  0
 23 21  2  0
M  END
$$$$
