QQG.pdb
     RDKit          3D

 23 22  0  0  1  0  0  0  0  0999 V2000
   27.2433  -17.3657  -16.2866 N   0  0  0  0  0  0  0  0  0  0  0  0
   27.6913  -17.6715  -17.5893 C   0  0  0  0  0  0  0  0  0  0  0  0
   28.3290  -16.8123  -18.2353 O   0  0  0  0  0  0  0  0  0  0  0  0
   27.4266  -18.9857  -18.2148 C   0  0  0  0  0  0  0  0  0  0  0  0
   26.6639  -19.8991  -17.2565 C   0  0  0  0  0  0  0  0  0  0  0  0
   27.6439  -20.5350  -16.3055 C   0  0  2  0  0  0  0  0  0  0  0  0
   28.4776  -21.4813  -16.9887 N   0  0  0  0  0  0  0  0  0  0  0  0
   26.9023  -21.1384  -15.1766 C   0  0  0  0  0  0  0  0  0  0  0  0
   26.3520  -22.2720  -15.3275 O   0  0  0  0  0  0  0  0  0  0  0  0
   24.8466  -19.5221   -9.8050 N   0  0  0  0  0  0  0  0  0  0  0  0
   25.3575  -20.7827   -9.4149 C   0  0  0  0  0  0  0  0  0  0  0  0
   25.0421  -21.2685   -8.2941 O   0  0  0  0  0  0  0  0  0  0  0  0
   26.2524  -21.5654  -10.2852 C   0  0  0  0  0  0  0  0  0  0  0  0
   26.7199  -20.9176  -11.5215 C   0  0  0  0  0  0  0  0  0  0  0  0
   26.0339  -21.2170  -12.8034 C   0  0  2  0  0  0  0  0  0  0  0  0
   26.7580  -20.5268  -13.9061 N   0  0  0  0  0  0  0  0  0  0  0  0
   24.6308  -20.8285  -12.9400 C   0  0  0  0  0  0  0  0  0  0  0  0
   24.2334  -19.6872  -13.3471 O   0  0  0  0  0  0  0  0  0  0  0  0
   23.5565  -21.7265  -12.6173 N   0  0  0  0  0  0  0  0  0  0  0  0
   22.1777  -21.3014  -12.6302 C   0  0  0  0  0  0  0  0  0  0  0  0
   21.5165  -21.6337  -13.9291 C   0  0  0  0  0  0  0  0  0  0  0  0
   20.1697  -21.4827  -14.1387 O   0  0  0  0  0  0  0  0  0  0  0  0
   22.2190  -22.0647  -14.8559 O   0  0  0  0  0  0  0  0  0  0  0  0
  1  2  1  0
  2  3  2  0
  4  5  1  0
  4  2  1  0
  6  8  1  0
  6  7  1  6
  6  5  1  0
  8  9  2  0
 10 11  1  0
 11 12  2  0
 13 11  1  0
 13 14  1  0
 15 14  1  1
 15 17  1  0
 16 15  1  0
 16  8  1  0
 17 18  2  0
 17 19  1  0
 19 20  1  0
 21 20  1  0
 21 22  1  0
 23 21  2  0
M  END
$$$$
