QQG.pdb
     RDKit          3D

 23 22  0  0  1  0  0  0  0  0999 V2000
   13.2706  -16.8817    4.0747 N   0  0  0  0  0  0  0  0  0  0  0  0
   12.1833  -16.9169    3.1759 C   0  0  0  0  0  0  0  0  0  0  0  0
   11.6474  -15.8451    2.8202 O   0  0  0  0  0  0  0  0  0  0  0  0
   11.6573  -18.1917    2.6403 C   0  0  0  0  0  0  0  0  0  0  0  0
   12.3423  -19.3840    3.3063 C   0  0  0  0  0  0  0  0  0  0  0  0
   13.7404  -19.5105    2.7600 C   0  0  2  0  0  0  0  0  0  0  0  0
   13.7246  -20.0802    1.4437 N   0  0  0  0  0  0  0  0  0  0  0  0
   14.5634  -20.2909    3.7097 C   0  0  0  0  0  0  0  0  0  0  0  0
   14.6014  -19.9463    4.9305 O   0  0  0  0  0  0  0  0  0  0  0  0
   17.2168  -26.0578    2.5989 N   0  0  0  0  0  0  0  0  0  0  0  0
   16.4088  -25.1597    1.8623 C   0  0  0  0  0  0  0  0  0  0  0  0
   16.0389  -25.4610    0.6944 O   0  0  0  0  0  0  0  0  0  0  0  0
   15.9697  -23.8682    2.4193 C   0  0  0  0  0  0  0  0  0  0  0  0
   16.4177  -23.5394    3.7824 C   0  0  0  0  0  0  0  0  0  0  0  0
   16.0355  -22.2347    4.3784 C   0  0  2  0  0  0  0  0  0  0  0  0
   15.3324  -21.4247    3.3458 N   0  0  0  0  0  0  0  0  0  0  0  0
   17.0996  -21.3798    4.9029 C   0  0  0  0  0  0  0  0  0  0  0  0
   17.5842  -20.3715    4.2907 O   0  0  0  0  0  0  0  0  0  0  0  0
   17.7019  -21.6133    6.1864 N   0  0  0  0  0  0  0  0  0  0  0  0
   18.8397  -20.8531    6.6441 C   0  0  0  0  0  0  0  0  0  0  0  0
   19.3410  -21.3594    7.9583 C   0  0  0  0  0  0  0  0  0  0  0  0
   20.4298  -20.8227    8.5964 O   0  0  0  0  0  0  0  0  0  0  0  0
   18.7441  -22.3062    8.4928 O   0  0  0  0  0  0  0  0  0  0  0  0
  1  2  1  0
  2  3  2  0
  4  5  1  0
  4  2  1  0
  6  8  1  0
  6  7  1  6
  6  5  1  0
  8  9  2  0
 10 11  1  0
 11 12  2  0
 13 11  1  0
 13 14  1  0
 15 14  1  6
 15 17  1  0
 16 15  1  0
 16  8  1  0
 17 18  2  0
 17 19  1  0
 19 20  1  0
 21 20  1  0
 21 22  1  0
 23 21  2  0
M  END
$$$$
