QET.pdb
     RDKit          3D

 26 25  0  0  1  0  0  0  0  0999 V2000
   18.7749  -13.8168  -15.4298 N   0  0  0  0  0  0  0  0  0  0  0  0
   17.4126  -14.0189  -15.0663 C   0  0  0  0  0  0  0  0  0  0  0  0
   17.0794  -15.1490  -14.6746 O   0  0  0  0  0  0  0  0  0  0  0  0
   16.4640  -12.9079  -15.1637 C   0  0  0  0  0  0  0  0  0  0  0  0
   17.0653  -11.6143  -15.5865 C   0  0  0  0  0  0  0  0  0  0  0  0
   16.1134  -10.4654  -15.6551 C   0  0  2  0  0  0  0  0  0  0  0  0
   15.2041  -10.6989  -16.7734 N   0  0  0  0  0  0  0  0  0  0  0  0
   16.8808   -9.1943  -15.8799 C   0  0  0  0  0  0  0  0  0  0  0  0
   17.4524   -9.0539  -16.9933 O   0  0  0  0  0  0  0  0  0  0  0  0
   16.9576   -8.1951  -14.8795 N   0  0  0  0  0  0  0  0  0  0  0  0
   17.6947   -6.9668  -15.2106 C   0  0  1  0  0  0  0  0  0  0  0  0
   16.7948   -5.8002  -14.9002 C   0  0  0  0  0  0  0  0  0  0  0  0
   15.6920   -5.5853  -15.8693 C   0  0  0  0  0  0  0  0  0  0  0  0
   14.8213   -4.4479  -15.5440 C   0  0  0  0  0  0  0  0  0  0  0  0
   13.8762   -4.5156  -14.7416 O   0  0  0  0  0  0  0  0  0  0  0  0
   18.9654   -6.9181  -14.4521 C   0  0  0  0  0  0  0  0  0  0  0  0
   18.9906   -7.1481  -13.2248 O   0  0  0  0  0  0  0  0  0  0  0  0
   15.0780   -3.2302  -16.1758 O   0  0  0  0  0  0  0  0  0  0  0  0
   22.8966   -6.4849  -16.4502 C   0  0  0  0  0  0  0  0  0  0  0  0
   22.5577   -7.3099  -15.2330 C   0  0  1  0  0  0  0  0  0  0  0  0
   23.7000   -7.3777  -14.4382 O   0  0  0  0  0  0  0  0  0  0  0  0
   21.4784   -6.6555  -14.3997 C   0  0  2  0  0  0  0  0  0  0  0  0
   20.2034   -6.6085  -15.0885 N   0  0  0  0  0  0  0  0  0  0  0  0
   21.8561   -5.2912  -13.9740 C   0  0  0  0  0  0  0  0  0  0  0  0
   22.8292   -5.0604  -13.0161 O   0  0  0  0  0  0  0  0  0  0  0  0
   21.2942   -4.2852  -14.4790 O   0  0  0  0  0  0  0  0  0  0  0  0
  1  2  1  0
  2  4  1  0
  3  2  2  0
  4  5  1  0
  5  6  1  0
  6  7  1  6
  6  8  1  0
  8 10  1  0
  8  9  2  0
 10 11  1  0
 11 16  1  0
 11 12  1  1
 13 12  1  0
 13 14  1  0
 14 15  2  0
 16 17  2  0
 18 14  1  0
 20 19  1  6
 20 21  1  0
 20 22  1  0
 22 24  1  0
 22 23  1  6
 23 16  1  0
 24 25  1  0
 26 24  2  0
M  END
$$$$
