QET.pdb
     RDKit          3D

 26 25  0  0  1  0  0  0  0  0999 V2000
   14.9476  -12.7173  -14.7396 N   0  0  0  0  0  0  0  0  0  0  0  0
   14.3698  -11.4218  -14.8686 C   0  0  0  0  0  0  0  0  0  0  0  0
   13.8839  -10.9006  -13.8517 O   0  0  0  0  0  0  0  0  0  0  0  0
   14.3666  -10.7561  -16.1727 C   0  0  0  0  0  0  0  0  0  0  0  0
   15.3372   -9.6356  -16.2992 C   0  0  0  0  0  0  0  0  0  0  0  0
   16.4834   -9.8913  -17.2221 C   0  0  2  0  0  0  0  0  0  0  0  0
   17.0230  -11.2130  -16.9161 N   0  0  0  0  0  0  0  0  0  0  0  0
   17.5408   -8.8473  -17.0057 C   0  0  0  0  0  0  0  0  0  0  0  0
   18.7035   -9.1099  -17.4122 O   0  0  0  0  0  0  0  0  0  0  0  0
   17.2413   -7.6179  -16.3701 N   0  0  0  0  0  0  0  0  0  0  0  0
   18.2927   -6.5903  -16.3631 C   0  0  1  0  0  0  0  0  0  0  0  0
   17.6142   -5.2474  -16.3048 C   0  0  0  0  0  0  0  0  0  0  0  0
   17.1085   -4.7447  -17.6060 C   0  0  0  0  0  0  0  0  0  0  0  0
   16.3231   -3.5074  -17.5063 C   0  0  0  0  0  0  0  0  0  0  0  0
   16.4142   -2.7121  -16.5571 O   0  0  0  0  0  0  0  0  0  0  0  0
   19.2093   -6.8105  -15.2214 C   0  0  0  0  0  0  0  0  0  0  0  0
   18.7875   -7.2633  -14.1365 O   0  0  0  0  0  0  0  0  0  0  0  0
   15.4293   -3.2190  -18.5386 O   0  0  0  0  0  0  0  0  0  0  0  0
   23.4543   -8.1954  -13.4639 C   0  0  0  0  0  0  0  0  0  0  0  0
   22.5443   -7.8576  -14.6192 C   0  0  1  0  0  0  0  0  0  0  0  0
   21.8202   -9.0053  -14.9351 O   0  0  0  0  0  0  0  0  0  0  0  0
   21.5395   -6.7915  -14.2431 C   0  0  2  0  0  0  0  0  0  0  0  0
   20.6016   -6.5164  -15.3141 N   0  0  0  0  0  0  0  0  0  0  0  0
   22.1943   -5.5324  -13.8296 C   0  0  0  0  0  0  0  0  0  0  0  0
   22.5793   -5.2967  -12.5204 O   0  0  0  0  0  0  0  0  0  0  0  0
   22.4237   -4.6249  -14.6702 O   0  0  0  0  0  0  0  0  0  0  0  0
  1  2  1  0
  2  4  1  0
  3  2  2  0
  4  5  1  0
  5  6  1  0
  6  7  1  1
  6  8  1  0
  8 10  1  0
  8  9  2  0
 10 11  1  0
 11 16  1  0
 11 12  1  1
 13 12  1  0
 13 14  1  0
 14 15  2  0
 16 17  2  0
 18 14  1  0
 20 19  1  1
 20 21  1  0
 20 22  1  0
 22 24  1  0
 22 23  1  6
 23 16  1  0
 24 25  1  0
 26 24  2  0
M  END
$$$$
