QET.pdb
     RDKit          3D

 26 25  0  0  1  0  0  0  0  0999 V2000
   28.2621  -19.4529  -12.9417 N   0  0  0  0  0  0  0  0  0  0  0  0
   28.7532  -20.4939  -12.1027 C   0  0  0  0  0  0  0  0  0  0  0  0
   29.9252  -20.8683  -12.2702 O   0  0  0  0  0  0  0  0  0  0  0  0
   27.8770  -21.0801  -11.0866 C   0  0  0  0  0  0  0  0  0  0  0  0
   26.5634  -20.3984  -10.9327 C   0  0  0  0  0  0  0  0  0  0  0  0
   25.3919  -21.1509  -11.4731 C   0  0  2  0  0  0  0  0  0  0  0  0
   25.8943  -22.1726  -12.3872 N   0  0  0  0  0  0  0  0  0  0  0  0
   24.4897  -20.2054  -12.2129 C   0  0  0  0  0  0  0  0  0  0  0  0
   23.9460  -19.2854  -11.5465 O   0  0  0  0  0  0  0  0  0  0  0  0
   24.2604  -20.3441  -13.6033 N   0  0  0  0  0  0  0  0  0  0  0  0
   23.3049  -19.4148  -14.2237 C   0  0  1  0  0  0  0  0  0  0  0  0
   23.9857  -18.7909  -15.4129 C   0  0  0  0  0  0  0  0  0  0  0  0
   24.8489  -19.7111  -16.1939 C   0  0  0  0  0  0  0  0  0  0  0  0
   25.4738  -19.0927  -17.3706 C   0  0  0  0  0  0  0  0  0  0  0  0
   26.2347  -19.6999  -18.1414 O   0  0  0  0  0  0  0  0  0  0  0  0
   22.0657  -20.1350  -14.5953 C   0  0  0  0  0  0  0  0  0  0  0  0
   22.0993  -21.3331  -14.9465 O   0  0  0  0  0  0  0  0  0  0  0  0
   25.1911  -17.7504  -17.6277 O   0  0  0  0  0  0  0  0  0  0  0  0
   17.1636  -20.5231  -14.1674 C   0  0  0  0  0  0  0  0  0  0  0  0
   18.4556  -19.8059  -13.8617 C   0  0  1  0  0  0  0  0  0  0  0  0
   18.8725  -20.2096  -12.5951 O   0  0  0  0  0  0  0  0  0  0  0  0
   19.5501  -20.1934  -14.8309 C   0  0  2  0  0  0  0  0  0  0  0  0
   20.7924  -19.4937  -14.5672 N   0  0  0  0  0  0  0  0  0  0  0  0
   19.1513  -19.9711  -16.2369 C   0  0  0  0  0  0  0  0  0  0  0  0
   18.5001  -20.9407  -16.9809 O   0  0  0  0  0  0  0  0  0  0  0  0
   19.3968  -18.8762  -16.8057 O   0  0  0  0  0  0  0  0  0  0  0  0
  1  2  1  0
  2  4  1  0
  3  2  2  0
  4  5  1  0
  5  6  1  0
  6  7  1  6
  6  8  1  0
  8 10  1  0
  8  9  2  0
 10 11  1  0
 11 16  1  0
 11 12  1  6
 13 12  1  0
 13 14  1  0
 14 15  2  0
 16 17  2  0
 18 14  1  0
 20 19  1  6
 20 21  1  0
 20 22  1  0
 22 24  1  0
 22 23  1  1
 23 16  1  0
 24 25  1  0
 26 24  2  0
M  END
$$$$
