QET.pdb
     RDKit          3D

 26 25  0  0  1  0  0  0  0  0999 V2000
   15.0444   -7.6927   -8.0303 N   0  0  0  0  0  0  0  0  0  0  0  0
   13.8035   -7.9989   -8.6589 C   0  0  0  0  0  0  0  0  0  0  0  0
   12.7624   -7.8026   -8.0114 O   0  0  0  0  0  0  0  0  0  0  0  0
   13.7935   -8.5261  -10.0248 C   0  0  0  0  0  0  0  0  0  0  0  0
   15.1368   -8.8608  -10.5701 C   0  0  0  0  0  0  0  0  0  0  0  0
   15.1509   -9.2913  -12.0002 C   0  0  2  0  0  0  0  0  0  0  0  0
   15.4677  -10.7160  -12.0396 N   0  0  0  0  0  0  0  0  0  0  0  0
   16.1996   -8.5159  -12.7445 C   0  0  0  0  0  0  0  0  0  0  0  0
   17.0862   -9.1760  -13.3482 O   0  0  0  0  0  0  0  0  0  0  0  0
   16.1909   -7.1001  -12.7657 N   0  0  0  0  0  0  0  0  0  0  0  0
   17.1675   -6.4342  -13.6398 C   0  0  1  0  0  0  0  0  0  0  0  0
   16.6243   -5.0692  -13.9698 C   0  0  0  0  0  0  0  0  0  0  0  0
   17.5105   -4.2304  -14.8142 C   0  0  0  0  0  0  0  0  0  0  0  0
   16.9555   -2.9094  -15.1376 C   0  0  0  0  0  0  0  0  0  0  0  0
   15.8439   -2.5183  -14.7465 O   0  0  0  0  0  0  0  0  0  0  0  0
   18.4867   -6.3709  -12.9705 C   0  0  0  0  0  0  0  0  0  0  0  0
   18.5745   -6.1731  -11.7404 O   0  0  0  0  0  0  0  0  0  0  0  0
   17.7265   -2.0553  -15.9275 O   0  0  0  0  0  0  0  0  0  0  0  0
   21.2665   -8.9977  -13.0129 C   0  0  0  0  0  0  0  0  0  0  0  0
   21.8615   -7.6920  -13.4800 C   0  0  1  0  0  0  0  0  0  0  0  0
   21.8827   -7.7128  -14.8730 O   0  0  0  0  0  0  0  0  0  0  0  0
   21.0081   -6.5128  -13.0692 C   0  0  2  0  0  0  0  0  0  0  0  0
   19.7020   -6.5323  -13.6988 N   0  0  0  0  0  0  0  0  0  0  0  0
   21.6701   -5.2222  -13.3539 C   0  0  0  0  0  0  0  0  0  0  0  0
   22.8099   -4.8138  -12.6815 O   0  0  0  0  0  0  0  0  0  0  0  0
   21.2084   -4.4461  -14.2298 O   0  0  0  0  0  0  0  0  0  0  0  0
  1  2  1  0
  2  4  1  0
  3  2  2  0
  4  5  1  0
  5  6  1  0
  6  7  1  1
  6  8  1  0
  8 10  1  0
  8  9  2  0
 10 11  1  0
 11 16  1  0
 11 12  1  1
 13 12  1  0
 13 14  1  0
 14 15  2  0
 16 17  2  0
 18 14  1  0
 20 19  1  6
 20 21  1  0
 20 22  1  0
 22 24  1  0
 22 23  1  6
 23 16  1  0
 24 25  1  0
 26 24  2  0
M  END
$$$$
