QET.pdb
     RDKit          3D

 26 25  0  0  1  0  0  0  0  0999 V2000
   24.8565  -15.8038  -22.2115 N   0  0  0  0  0  0  0  0  0  0  0  0
   26.2607  -15.9888  -22.0610 C   0  0  0  0  0  0  0  0  0  0  0  0
   27.0151  -15.2711  -22.7375 O   0  0  0  0  0  0  0  0  0  0  0  0
   26.7629  -17.0012  -21.1301 C   0  0  0  0  0  0  0  0  0  0  0  0
   25.7056  -17.7999  -20.4533 C   0  0  0  0  0  0  0  0  0  0  0  0
   25.2720  -17.2787  -19.1225 C   0  0  2  0  0  0  0  0  0  0  0  0
   26.4105  -16.5989  -18.5113 N   0  0  0  0  0  0  0  0  0  0  0  0
   24.8380  -18.4249  -18.2549 C   0  0  0  0  0  0  0  0  0  0  0  0
   23.9157  -19.1630  -18.6917 O   0  0  0  0  0  0  0  0  0  0  0  0
   25.4420  -18.6648  -16.9969 N   0  0  0  0  0  0  0  0  0  0  0  0
   24.8825  -19.7500  -16.1778 C   0  0  1  0  0  0  0  0  0  0  0  0
   25.9937  -20.2861  -15.3147 C   0  0  0  0  0  0  0  0  0  0  0  0
   26.0643  -21.7660  -15.2331 C   0  0  0  0  0  0  0  0  0  0  0  0
   27.0810  -22.3667  -16.1066 C   0  0  0  0  0  0  0  0  0  0  0  0
   27.8665  -21.7025  -16.8020 O   0  0  0  0  0  0  0  0  0  0  0  0
   23.7406  -19.2467  -15.3810 C   0  0  0  0  0  0  0  0  0  0  0  0
   23.7873  -18.1290  -14.8256 O   0  0  0  0  0  0  0  0  0  0  0  0
   27.1605  -23.7594  -16.1507 O   0  0  0  0  0  0  0  0  0  0  0  0
   20.4154  -18.4848  -16.6140 C   0  0  0  0  0  0  0  0  0  0  0  0
   20.8393  -18.2436  -15.1860 C   0  0  1  0  0  0  0  0  0  0  0  0
   19.7065  -17.8667  -14.4678 O   0  0  0  0  0  0  0  0  0  0  0  0
   21.3705  -19.5050  -14.5424 C   0  0  2  0  0  0  0  0  0  0  0  0
   22.5493  -20.0131  -15.2167 N   0  0  0  0  0  0  0  0  0  0  0  0
   20.3464  -20.5689  -14.4772 C   0  0  0  0  0  0  0  0  0  0  0  0
   19.1982  -20.4417  -13.7134 O   0  0  0  0  0  0  0  0  0  0  0  0
   20.4922  -21.6375  -15.1250 O   0  0  0  0  0  0  0  0  0  0  0  0
  1  2  1  0
  2  4  1  0
  3  2  2  0
  4  5  1  0
  5  6  1  0
  6  7  1  1
  6  8  1  0
  8 10  1  0
  8  9  2  0
 10 11  1  0
 11 16  1  0
 11 12  1  1
 13 12  1  0
 13 14  1  0
 14 15  2  0
 16 17  2  0
 18 14  1  0
 20 19  1  6
 20 21  1  0
 20 22  1  0
 22 24  1  0
 22 23  1  6
 23 16  1  0
 24 25  1  0
 26 24  2  0
M  END
$$$$
