QET.pdb
     RDKit          3D

 26 25  0  0  1  0  0  0  0  0999 V2000
   19.9365  -13.4805  -18.4473 N   0  0  0  0  0  0  0  0  0  0  0  0
   18.6481  -13.8716  -17.9830 C   0  0  0  0  0  0  0  0  0  0  0  0
   18.0187  -14.7048  -18.6550 O   0  0  0  0  0  0  0  0  0  0  0  0
   18.1146  -13.2900  -16.7497 C   0  0  0  0  0  0  0  0  0  0  0  0
   19.0139  -12.3061  -16.0886 C   0  0  0  0  0  0  0  0  0  0  0  0
   18.3698  -11.0124  -15.7116 C   0  0  2  0  0  0  0  0  0  0  0  0
   17.2943  -10.7495  -16.6634 N   0  0  0  0  0  0  0  0  0  0  0  0
   19.3878   -9.9104  -15.7768 C   0  0  0  0  0  0  0  0  0  0  0  0
   20.4088  -10.0234  -15.0481 O   0  0  0  0  0  0  0  0  0  0  0  0
   19.2058   -8.7903  -16.6236 N   0  0  0  0  0  0  0  0  0  0  0  0
   20.2949   -7.8043  -16.6788 C   0  0  1  0  0  0  0  0  0  0  0  0
   20.2359   -7.1380  -18.0277 C   0  0  0  0  0  0  0  0  0  0  0  0
   21.2704   -6.0996  -18.2586 C   0  0  0  0  0  0  0  0  0  0  0  0
   21.2169   -5.4862  -19.5922 C   0  0  0  0  0  0  0  0  0  0  0  0
   20.3698   -5.7835  -20.4500 O   0  0  0  0  0  0  0  0  0  0  0  0
   20.1611   -6.8382  -15.5647 C   0  0  0  0  0  0  0  0  0  0  0  0
   19.0855   -6.2368  -15.3612 O   0  0  0  0  0  0  0  0  0  0  0  0
   22.1736   -4.5186  -19.9023 O   0  0  0  0  0  0  0  0  0  0  0  0
   20.1015   -7.3992  -12.0938 C   0  0  0  0  0  0  0  0  0  0  0  0
   21.2085   -6.3829  -12.2308 C   0  0  1  0  0  0  0  0  0  0  0  0
   22.4189   -7.0727  -12.2113 O   0  0  0  0  0  0  0  0  0  0  0  0
   21.1361   -5.6559  -13.5551 C   0  0  2  0  0  0  0  0  0  0  0  0
   21.2478   -6.5575  -14.6851 N   0  0  0  0  0  0  0  0  0  0  0  0
   22.1654   -4.6008  -13.6664 C   0  0  0  0  0  0  0  0  0  0  0  0
   22.2234   -3.5315  -12.7882 O   0  0  0  0  0  0  0  0  0  0  0  0
   23.0317   -4.6460  -14.5775 O   0  0  0  0  0  0  0  0  0  0  0  0
  1  2  1  0
  2  4  1  0
  3  2  2  0
  4  5  1  0
  5  6  1  0
  6  7  1  6
  6  8  1  0
  8 10  1  0
  8  9  2  0
 10 11  1  0
 11 16  1  0
 11 12  1  6
 13 12  1  0
 13 14  1  0
 14 15  2  0
 16 17  2  0
 18 14  1  0
 20 19  1  6
 20 21  1  0
 20 22  1  0
 22 24  1  0
 22 23  1  6
 23 16  1  0
 24 25  1  0
 26 24  2  0
M  END
$$$$
