QET.pdb
     RDKit          3D

 26 25  0  0  1  0  0  0  0  0999 V2000
   26.6770  -21.7917  -16.1698 N   0  0  0  0  0  0  0  0  0  0  0  0
   27.8391  -21.0481  -15.8157 C   0  0  0  0  0  0  0  0  0  0  0  0
   28.8833  -21.6798  -15.5870 O   0  0  0  0  0  0  0  0  0  0  0  0
   27.7683  -19.5880  -15.7339 C   0  0  0  0  0  0  0  0  0  0  0  0
   26.4455  -19.0102  -16.0945 C   0  0  0  0  0  0  0  0  0  0  0  0
   26.1385  -18.9936  -17.5561 C   0  0  2  0  0  0  0  0  0  0  0  0
   26.9535  -17.9531  -18.1767 N   0  0  0  0  0  0  0  0  0  0  0  0
   24.6823  -18.6867  -17.7567 C   0  0  0  0  0  0  0  0  0  0  0  0
   24.3358  -17.4767  -17.7143 O   0  0  0  0  0  0  0  0  0  0  0  0
   23.7382  -19.7172  -17.9842 N   0  0  0  0  0  0  0  0  0  0  0  0
   22.3489  -19.3119  -18.2434 C   0  0  1  0  0  0  0  0  0  0  0  0
   21.8199  -20.1863  -19.3490 C   0  0  0  0  0  0  0  0  0  0  0  0
   20.4520  -19.8483  -19.8141 C   0  0  0  0  0  0  0  0  0  0  0  0
   19.9610  -20.7028  -20.9033 C   0  0  0  0  0  0  0  0  0  0  0  0
   19.8296  -20.3126  -22.0748 O   0  0  0  0  0  0  0  0  0  0  0  0
   21.5485  -19.4230  -17.0027 C   0  0  0  0  0  0  0  0  0  0  0  0
   21.8469  -20.2519  -16.1174 O   0  0  0  0  0  0  0  0  0  0  0  0
   19.6268  -22.0223  -20.5951 O   0  0  0  0  0  0  0  0  0  0  0  0
   20.7260  -16.5423  -14.5971 C   0  0  0  0  0  0  0  0  0  0  0  0
   19.4313  -17.2139  -14.9841 C   0  0  1  0  0  0  0  0  0  0  0  0
   18.8603  -16.4677  -16.0129 O   0  0  0  0  0  0  0  0  0  0  0  0
   19.6667  -18.6059  -15.5268 C   0  0  2  0  0  0  0  0  0  0  0  0
   20.4121  -18.5934  -16.7704 N   0  0  0  0  0  0  0  0  0  0  0  0
   18.4027  -19.3475  -15.7205 C   0  0  0  0  0  0  0  0  0  0  0  0
   17.9441  -19.7078  -16.9765 O   0  0  0  0  0  0  0  0  0  0  0  0
   17.6970  -19.6774  -14.7326 O   0  0  0  0  0  0  0  0  0  0  0  0
  1  2  1  0
  2  4  1  0
  3  2  2  0
  4  5  1  0
  5  6  1  0
  6  7  1  6
  6  8  1  0
  8 10  1  0
  8  9  2  0
 10 11  1  0
 11 16  1  0
 11 12  1  6
 13 12  1  0
 13 14  1  0
 14 15  2  0
 16 17  2  0
 18 14  1  0
 20 19  1  6
 20 21  1  0
 20 22  1  0
 22 24  1  0
 22 23  1  6
 23 16  1  0
 24 25  1  0
 26 24  2  0
M  END
$$$$
