QET.pdb
     RDKit          3D

 26 25  0  0  1  0  0  0  0  0999 V2000
   18.2838  -15.8286  -14.8578 N   0  0  0  0  0  0  0  0  0  0  0  0
   16.9002  -15.8035  -15.1951 C   0  0  0  0  0  0  0  0  0  0  0  0
   16.2032  -16.7726  -14.8533 O   0  0  0  0  0  0  0  0  0  0  0  0
   16.3519  -14.6563  -15.9211 C   0  0  0  0  0  0  0  0  0  0  0  0
   17.3450  -13.5983  -16.2499 C   0  0  0  0  0  0  0  0  0  0  0  0
   17.3195  -12.4045  -15.3527 C   0  0  2  0  0  0  0  0  0  0  0  0
   15.9250  -12.1014  -15.0441 N   0  0  0  0  0  0  0  0  0  0  0  0
   17.9502  -11.2376  -16.0567 C   0  0  0  0  0  0  0  0  0  0  0  0
   18.2748  -11.3975  -17.2630 O   0  0  0  0  0  0  0  0  0  0  0  0
   18.1704  -10.0080  -15.3899 N   0  0  0  0  0  0  0  0  0  0  0  0
   18.6712   -8.8854  -16.1964 C   0  0  1  0  0  0  0  0  0  0  0  0
   17.6142   -8.5519  -17.2156 C   0  0  0  0  0  0  0  0  0  0  0  0
   17.8959   -7.3501  -18.0391 C   0  0  0  0  0  0  0  0  0  0  0  0
   16.8492   -7.0376  -19.0210 C   0  0  0  0  0  0  0  0  0  0  0  0
   16.9810   -7.2136  -20.2431 O   0  0  0  0  0  0  0  0  0  0  0  0
   18.9945   -7.7363  -15.3205 C   0  0  0  0  0  0  0  0  0  0  0  0
   18.1842   -7.3380  -14.4575 O   0  0  0  0  0  0  0  0  0  0  0  0
   15.6457   -6.5151  -18.5453 O   0  0  0  0  0  0  0  0  0  0  0  0
   22.4662   -5.0415  -13.1054 C   0  0  0  0  0  0  0  0  0  0  0  0
   22.1033   -6.0471  -14.1703 C   0  0  1  0  0  0  0  0  0  0  0  0
   22.3496   -7.3169  -13.6526 O   0  0  0  0  0  0  0  0  0  0  0  0
   20.6313   -5.9882  -14.5131 C   0  0  2  0  0  0  0  0  0  0  0  0
   20.2359   -7.0428  -15.4263 N   0  0  0  0  0  0  0  0  0  0  0  0
   20.2451   -4.6787  -15.0800 C   0  0  0  0  0  0  0  0  0  0  0  0
   19.7212   -3.6625  -14.2986 O   0  0  0  0  0  0  0  0  0  0  0  0
   20.3842   -4.4477  -16.3088 O   0  0  0  0  0  0  0  0  0  0  0  0
  1  2  1  0
  2  4  1  0
  3  2  2  0
  4  5  1  0
  5  6  1  0
  6  7  1  6
  6  8  1  0
  8 10  1  0
  8  9  2  0
 10 11  1  0
 11 16  1  0
 11 12  1  6
 13 12  1  0
 13 14  1  0
 14 15  2  0
 16 17  2  0
 18 14  1  0
 20 19  1  1
 20 21  1  0
 20 22  1  0
 22 24  1  0
 22 23  1  6
 23 16  1  0
 24 25  1  0
 26 24  2  0
M  END
$$$$
