DWL.pdb
     RDKit          3D

 31 32  0  0  1  0  0  0  0  0999 V2000
    9.9206  -19.7798   20.4778 N   0  0  0  0  0  0  0  0  0  0  0  0
    9.4027  -19.8332   21.8099 C   0  0  1  0  0  0  0  0  0  0  0  0
   10.2626  -20.7433   22.7031 C   0  0  0  0  0  0  0  0  0  0  0  0
   11.2352  -21.5294   21.9131 C   0  0  0  0  0  0  0  0  0  0  0  0
   11.3498  -21.3895   20.6732 O   0  0  0  0  0  0  0  0  0  0  0  0
    9.4790  -18.4769   22.4128 C   0  0  0  0  0  0  0  0  0  0  0  0
   10.5212  -17.7886   22.1686 O   0  0  0  0  0  0  0  0  0  0  0  0
   12.0728  -22.4695   22.5364 O   0  0  0  0  0  0  0  0  0  0  0  0
    8.4465  -17.9487   23.2313 N   0  0  0  0  0  0  0  0  0  0  0  0
    8.5294  -16.6253   23.7855 C   0  0  1  0  0  0  0  0  0  0  0  0
    7.1783  -16.0468   24.1694 C   0  0  0  0  0  0  0  0  0  0  0  0
    7.2665  -14.5714   24.2388 C   0  0  0  0  0  0  0  0  0  0  0  0
    7.9912  -13.8123   23.3250 C   0  0  0  0  0  0  0  0  0  0  0  0
    7.8466  -12.5331   23.6441 N   0  0  0  0  0  0  0  0  0  0  0  0
    7.0618  -12.4017   24.7262 C   0  0  0  0  0  0  0  0  0  0  0  0
    6.6587  -11.2741   25.3922 C   0  0  0  0  0  0  0  0  0  0  0  0
    5.8446  -11.4274   26.4976 C   0  0  0  0  0  0  0  0  0  0  0  0
    5.4800  -12.7008   26.8746 C   0  0  0  0  0  0  0  0  0  0  0  0
    5.8984  -13.8410   26.1863 C   0  0  0  0  0  0  0  0  0  0  0  0
    6.7045  -13.6767   25.0912 C   0  0  0  0  0  0  0  0  0  0  0  0
    9.4831  -16.5977   24.8978 C   0  0  0  0  0  0  0  0  0  0  0  0
   10.5186  -15.8575   24.7661 O   0  0  0  0  0  0  0  0  0  0  0  0
   11.6465  -14.4967   27.6538 C   0  0  0  0  0  0  0  0  0  0  0  0
   10.1144  -14.5938   27.6493 C   0  0  2  0  0  0  0  0  0  0  0  0
    9.5476  -13.5173   28.5157 C   0  0  0  0  0  0  0  0  0  0  0  0
    9.7279  -15.9796   28.0512 C   0  0  0  0  0  0  0  0  0  0  0  0
   10.3177  -17.0790   27.2175 C   0  0  2  0  0  0  0  0  0  0  0  0
    9.3742  -17.3128   26.1153 N   0  0  0  0  0  0  0  0  0  0  0  0
   10.7089  -18.2900   27.9192 C   0  0  0  0  0  0  0  0  0  0  0  0
   11.9149  -18.2807   28.6186 O   0  0  0  0  0  0  0  0  0  0  0  0
   10.0662  -19.3613   27.9617 O   0  0  0  0  0  0  0  0  0  0  0  0
  2  1  1  6
  2  3  1  0
  3  4  1  0
  4  8  1  0
  5  4  2  0
  6  7  2  0
  6  2  1  0
  9  6  1  0
 10  9  1  0
 10 11  1  1
 11 12  1  0
 12 13  2  0
 12 20  1  0
 13 14  1  0
 14 15  1  0
 15 16  2  0
 16 17  1  0
 18 17  2  0
 19 18  1  0
 20 19  2  0
 20 15  1  0
 21 10  1  0
 22 21  2  0
 24 23  1  1
 24 26  1  0
 25 24  1  0
 27 26  1  1
 27 28  1  0
 28 21  1  0
 29 30  1  0
 29 27  1  0
 31 29  2  0
M  END
$$$$
