DWL.pdb
     RDKit          3D

 31 32  0  0  1  0  0  0  0  0999 V2000
   10.5385  -19.4497   19.7685 N   0  0  0  0  0  0  0  0  0  0  0  0
   10.6575  -19.5456   21.1905 C   0  0  1  0  0  0  0  0  0  0  0  0
   12.0612  -20.0236   21.5986 C   0  0  0  0  0  0  0  0  0  0  0  0
   12.1066  -21.4883   21.8001 C   0  0  0  0  0  0  0  0  0  0  0  0
   11.1538  -22.2328   21.4717 O   0  0  0  0  0  0  0  0  0  0  0  0
   10.4978  -18.1913   21.7815 C   0  0  0  0  0  0  0  0  0  0  0  0
   11.4591  -17.3716   21.6274 O   0  0  0  0  0  0  0  0  0  0  0  0
   13.2347  -22.0990   22.3730 O   0  0  0  0  0  0  0  0  0  0  0  0
    9.3325  -17.8041   22.4934 N   0  0  0  0  0  0  0  0  0  0  0  0
    9.1796  -16.4754   23.0192 C   0  0  1  0  0  0  0  0  0  0  0  0
    7.7304  -16.0784   23.2425 C   0  0  0  0  0  0  0  0  0  0  0  0
    7.6337  -14.6122   23.4162 C   0  0  0  0  0  0  0  0  0  0  0  0
    8.1347  -13.7049   22.4876 C   0  0  0  0  0  0  0  0  0  0  0  0
    7.8654  -12.4803   22.9200 N   0  0  0  0  0  0  0  0  0  0  0  0
    7.2103  -12.5261   24.0916 C   0  0  0  0  0  0  0  0  0  0  0  0
    6.7493  -11.5087   24.8852 C   0  0  0  0  0  0  0  0  0  0  0  0
    6.1053  -11.8413   26.0611 C   0  0  0  0  0  0  0  0  0  0  0  0
    5.9590  -13.1739   26.3768 C   0  0  0  0  0  0  0  0  0  0  0  0
    6.4339  -14.2003   25.5583 C   0  0  0  0  0  0  0  0  0  0  0  0
    7.0699  -13.8585   24.3944 C   0  0  0  0  0  0  0  0  0  0  0  0
    9.9947  -16.3081   24.2255 C   0  0  0  0  0  0  0  0  0  0  0  0
   10.8270  -15.3362   24.2426 O   0  0  0  0  0  0  0  0  0  0  0  0
   10.6738  -13.4489   27.8189 C   0  0  0  0  0  0  0  0  0  0  0  0
    9.8145  -14.6562   28.2198 C   0  0  2  0  0  0  0  0  0  0  0  0
   10.5282  -15.4457   29.2676 C   0  0  0  0  0  0  0  0  0  0  0  0
    9.4784  -15.4272   26.9854 C   0  0  0  0  0  0  0  0  0  0  0  0
   10.3750  -16.5941   26.6919 C   0  0  2  0  0  0  0  0  0  0  0  0
    9.9545  -17.1195   25.3855 N   0  0  0  0  0  0  0  0  0  0  0  0
   10.4799  -17.6109   27.7250 C   0  0  0  0  0  0  0  0  0  0  0  0
   11.7279  -17.8255   28.3079 O   0  0  0  0  0  0  0  0  0  0  0  0
    9.5508  -18.3289   28.1539 O   0  0  0  0  0  0  0  0  0  0  0  0
  2  1  1  6
  2  3  1  0
  3  4  1  0
  4  8  1  0
  5  4  2  0
  6  7  2  0
  6  2  1  0
  9  6  1  0
 10  9  1  0
 10 11  1  1
 11 12  1  0
 12 13  2  0
 12 20  1  0
 13 14  1  0
 14 15  1  0
 15 16  2  0
 16 17  1  0
 18 17  2  0
 19 18  1  0
 20 19  2  0
 20 15  1  0
 21 10  1  0
 22 21  2  0
 24 23  1  6
 24 26  1  0
 25 24  1  0
 27 26  1  1
 27 28  1  0
 28 21  1  0
 29 30  1  0
 29 27  1  0
 31 29  2  0
M  END
$$$$
