DWL.pdb
     RDKit          3D

 31 32  0  0  1  0  0  0  0  0999 V2000
    8.9295  -20.5947   21.1191 N   0  0  0  0  0  0  0  0  0  0  0  0
    8.9360  -20.3730   22.5320 C   0  0  1  0  0  0  0  0  0  0  0  0
   10.1188  -21.0934   23.2010 C   0  0  0  0  0  0  0  0  0  0  0  0
   10.0644  -22.5560   22.9868 C   0  0  0  0  0  0  0  0  0  0  0  0
    9.0653  -23.2375   23.3145 O   0  0  0  0  0  0  0  0  0  0  0  0
    9.1381  -18.9238   22.7929 C   0  0  0  0  0  0  0  0  0  0  0  0
   10.2196  -18.4015   22.3718 O   0  0  0  0  0  0  0  0  0  0  0  0
   11.1452  -23.2359   22.4010 O   0  0  0  0  0  0  0  0  0  0  0  0
    8.1810  -18.1338   23.4817 N   0  0  0  0  0  0  0  0  0  0  0  0
    8.3974  -16.7342   23.7260 C   0  0  1  0  0  0  0  0  0  0  0  0
    7.1632  -16.0144   24.2419 C   0  0  0  0  0  0  0  0  0  0  0  0
    7.3902  -14.5525   24.2204 C   0  0  0  0  0  0  0  0  0  0  0  0
    8.1834  -13.9233   23.2657 C   0  0  0  0  0  0  0  0  0  0  0  0
    8.1601  -12.6187   23.5042 N   0  0  0  0  0  0  0  0  0  0  0  0
    7.3911  -12.3470   24.5714 C   0  0  0  0  0  0  0  0  0  0  0  0
    7.0961  -11.1473   25.1639 C   0  0  0  0  0  0  0  0  0  0  0  0
    6.2711  -11.1541   26.2718 C   0  0  0  0  0  0  0  0  0  0  0  0
    5.7878  -12.3616   26.7247 C   0  0  0  0  0  0  0  0  0  0  0  0
    6.0969  -13.5767   26.1108 C   0  0  0  0  0  0  0  0  0  0  0  0
    6.9150  -13.5575   25.0125 C   0  0  0  0  0  0  0  0  0  0  0  0
    9.5588  -16.5431   24.5989 C   0  0  0  0  0  0  0  0  0  0  0  0
   10.4602  -15.7235   24.2073 O   0  0  0  0  0  0  0  0  0  0  0  0
    9.6687  -13.4170   27.8472 C   0  0  0  0  0  0  0  0  0  0  0  0
    9.8558  -14.9378   27.9415 C   0  0  2  0  0  0  0  0  0  0  0  0
   10.2071  -15.3072   29.3454 C   0  0  0  0  0  0  0  0  0  0  0  0
   10.8642  -15.3537   26.9212 C   0  0  0  0  0  0  0  0  0  0  0  0
   10.9526  -16.8302   26.6689 C   0  0  2  0  0  0  0  0  0  0  0  0
    9.7874  -17.1784   25.8438 N   0  0  0  0  0  0  0  0  0  0  0  0
   11.1188  -17.6814   27.8350 C   0  0  0  0  0  0  0  0  0  0  0  0
   10.1081  -18.5962   28.1271 O   0  0  0  0  0  0  0  0  0  0  0  0
   12.0912  -17.6791   28.6206 O   0  0  0  0  0  0  0  0  0  0  0  0
  2  1  1  6
  2  3  1  0
  3  4  1  0
  4  8  1  0
  5  4  2  0
  6  7  2  0
  6  2  1  0
  9  6  1  0
 10  9  1  0
 10 11  1  1
 11 12  1  0
 12 13  2  0
 12 20  1  0
 13 14  1  0
 14 15  1  0
 15 16  2  0
 16 17  1  0
 18 17  2  0
 19 18  1  0
 20 19  2  0
 20 15  1  0
 21 10  1  0
 22 21  2  0
 24 23  1  1
 24 26  1  0
 25 24  1  0
 27 26  1  1
 27 28  1  0
 28 21  1  0
 29 30  1  0
 29 27  1  0
 31 29  2  0
M  END
$$$$
