DWL.pdb
     RDKit          3D

 31 32  0  0  1  0  0  0  0  0999 V2000
   11.0248  -18.6262   20.8066 N   0  0  0  0  0  0  0  0  0  0  0  0
   11.9223  -17.5715   21.1638 C   0  0  1  0  0  0  0  0  0  0  0  0
   12.3146  -16.7366   19.9332 C   0  0  0  0  0  0  0  0  0  0  0  0
   13.2002  -17.4888   19.0177 C   0  0  0  0  0  0  0  0  0  0  0  0
   12.7536  -18.3379   18.2117 O   0  0  0  0  0  0  0  0  0  0  0  0
   11.2274  -16.6377   22.0880 C   0  0  0  0  0  0  0  0  0  0  0  0
   11.8635  -15.5971   22.4514 O   0  0  0  0  0  0  0  0  0  0  0  0
   14.5882  -17.2715   19.0227 O   0  0  0  0  0  0  0  0  0  0  0  0
    9.9101  -16.8745   22.5607 N   0  0  0  0  0  0  0  0  0  0  0  0
    9.2440  -15.9425   23.4285 C   0  0  1  0  0  0  0  0  0  0  0  0
    7.7332  -16.1002   23.4366 C   0  0  0  0  0  0  0  0  0  0  0  0
    7.1386  -15.1780   24.4292 C   0  0  0  0  0  0  0  0  0  0  0  0
    6.3850  -15.6163   25.5138 C   0  0  0  0  0  0  0  0  0  0  0  0
    6.0245  -14.5546   26.2223 N   0  0  0  0  0  0  0  0  0  0  0  0
    6.4998  -13.4296   25.6631 C   0  0  0  0  0  0  0  0  0  0  0  0
    6.3639  -12.1238   26.0552 C   0  0  0  0  0  0  0  0  0  0  0  0
    6.9584  -11.1466   25.2806 C   0  0  0  0  0  0  0  0  0  0  0  0
    7.6555  -11.5315   24.1569 C   0  0  0  0  0  0  0  0  0  0  0  0
    7.7859  -12.8663   23.7695 C   0  0  0  0  0  0  0  0  0  0  0  0
    7.1930  -13.8265   24.5457 C   0  0  0  0  0  0  0  0  0  0  0  0
    9.8171  -16.0022   24.7759 C   0  0  0  0  0  0  0  0  0  0  0  0
   10.2841  -14.9157   25.2648 O   0  0  0  0  0  0  0  0  0  0  0  0
   10.8628  -14.3976   28.4600 C   0  0  0  0  0  0  0  0  0  0  0  0
    9.6063  -14.7313   27.6435 C   0  0  2  0  0  0  0  0  0  0  0  0
    8.4645  -13.9007   28.1303 C   0  0  0  0  0  0  0  0  0  0  0  0
    9.3743  -16.2051   27.7152 C   0  0  0  0  0  0  0  0  0  0  0  0
   10.3788  -17.0503   26.9885 C   0  0  2  0  0  0  0  0  0  0  0  0
    9.9072  -17.1502   25.6003 N   0  0  0  0  0  0  0  0  0  0  0  0
   10.7067  -18.3328   27.5884 C   0  0  0  0  0  0  0  0  0  0  0  0
   11.3623  -18.3314   28.8188 O   0  0  0  0  0  0  0  0  0  0  0  0
   10.4592  -19.4598   27.1076 O   0  0  0  0  0  0  0  0  0  0  0  0
  2  1  1  6
  2  3  1  0
  3  4  1  0
  4  8  1  0
  5  4  2  0
  6  7  2  0
  6  2  1  0
  9  6  1  0
 10  9  1  0
 10 11  1  1
 11 12  1  0
 12 13  2  0
 12 20  1  0
 13 14  1  0
 14 15  1  0
 15 16  2  0
 16 17  1  0
 18 17  2  0
 19 18  1  0
 20 19  2  0
 20 15  1  0
 21 10  1  0
 22 21  2  0
 24 23  1  1
 24 26  1  0
 25 24  1  0
 27 26  1  1
 27 28  1  0
 28 21  1  0
 29 30  1  0
 29 27  1  0
 31 29  2  0
M  END
$$$$
