DWL.pdb
     RDKit          3D

 31 32  0  0  1  0  0  0  0  0999 V2000
   11.1711  -16.7403   19.1214 N   0  0  0  0  0  0  0  0  0  0  0  0
   11.6103  -17.2977   20.3631 C   0  0  1  0  0  0  0  0  0  0  0  0
   13.1196  -17.0817   20.5650 C   0  0  0  0  0  0  0  0  0  0  0  0
   13.9133  -17.6939   19.4771 C   0  0  0  0  0  0  0  0  0  0  0  0
   13.7168  -18.8707   19.0941 O   0  0  0  0  0  0  0  0  0  0  0  0
   10.9407  -16.5798   21.4789 C   0  0  0  0  0  0  0  0  0  0  0  0
   11.1647  -15.3316   21.5861 O   0  0  0  0  0  0  0  0  0  0  0  0
   14.9253  -16.9654   18.8300 O   0  0  0  0  0  0  0  0  0  0  0  0
   10.0837  -17.2362   22.4006 N   0  0  0  0  0  0  0  0  0  0  0  0
    9.3800  -16.5095   23.4214 C   0  0  1  0  0  0  0  0  0  0  0  0
    7.8691  -16.6036   23.2957 C   0  0  0  0  0  0  0  0  0  0  0  0
    7.2268  -15.8171   24.3719 C   0  0  0  0  0  0  0  0  0  0  0  0
    6.4918  -16.3996   25.4000 C   0  0  0  0  0  0  0  0  0  0  0  0
    6.0776  -15.4341   26.2097 N   0  0  0  0  0  0  0  0  0  0  0  0
    6.4994  -14.2365   25.7718 C   0  0  0  0  0  0  0  0  0  0  0  0
    6.2987  -12.9855   26.2934 C   0  0  0  0  0  0  0  0  0  0  0  0
    6.8474  -11.9070   25.6272 C   0  0  0  0  0  0  0  0  0  0  0  0
    7.5662  -12.1412   24.4761 C   0  0  0  0  0  0  0  0  0  0  0  0
    7.7628  -13.4218   23.9561 C   0  0  0  0  0  0  0  0  0  0  0  0
    7.2149  -14.4836   24.6256 C   0  0  0  0  0  0  0  0  0  0  0  0
    9.8540  -16.9086   24.7494 C   0  0  0  0  0  0  0  0  0  0  0  0
   10.4265  -18.0486   24.8512 O   0  0  0  0  0  0  0  0  0  0  0  0
   11.5285  -13.9633   27.4517 C   0  0  0  0  0  0  0  0  0  0  0  0
   10.0562  -14.2270   27.7973 C   0  0  2  0  0  0  0  0  0  0  0  0
    9.5899  -13.2096   28.7862 C   0  0  0  0  0  0  0  0  0  0  0  0
    9.9252  -15.6423   28.2567 C   0  0  0  0  0  0  0  0  0  0  0  0
   10.2323  -16.6852   27.2225 C   0  0  2  0  0  0  0  0  0  0  0  0
    9.7427  -16.1542   25.9427 N   0  0  0  0  0  0  0  0  0  0  0  0
    9.7799  -18.0368   27.5063 C   0  0  0  0  0  0  0  0  0  0  0  0
   10.4718  -18.7700   28.4693 O   0  0  0  0  0  0  0  0  0  0  0  0
    8.8175  -18.6240   26.9663 O   0  0  0  0  0  0  0  0  0  0  0  0
  2  1  1  6
  2  3  1  0
  3  4  1  0
  4  8  1  0
  5  4  2  0
  6  7  2  0
  6  2  1  0
  9  6  1  0
 10  9  1  0
 10 11  1  1
 11 12  1  0
 12 13  2  0
 12 20  1  0
 13 14  1  0
 14 15  1  0
 15 16  2  0
 16 17  1  0
 18 17  2  0
 19 18  1  0
 20 19  2  0
 20 15  1  0
 21 10  1  0
 22 21  2  0
 24 23  1  1
 24 26  1  0
 25 24  1  0
 27 26  1  1
 27 28  1  0
 28 21  1  0
 29 30  1  0
 29 27  1  0
 31 29  2  0
M  END
$$$$
