DWL.pdb
     RDKit          3D

 31 32  0  0  1  0  0  0  0  0999 V2000
   10.5687  -18.6998   20.7368 N   0  0  0  0  0  0  0  0  0  0  0  0
   11.5375  -17.6863   21.0190 C   0  0  1  0  0  0  0  0  0  0  0  0
   11.8535  -16.8562   19.7634 C   0  0  0  0  0  0  0  0  0  0  0  0
   12.4660  -17.6804   18.6988 C   0  0  0  0  0  0  0  0  0  0  0  0
   12.6599  -18.9102   18.8409 O   0  0  0  0  0  0  0  0  0  0  0  0
   10.9670  -16.7339   22.0071 C   0  0  0  0  0  0  0  0  0  0  0  0
   11.6414  -15.6850   22.2616 O   0  0  0  0  0  0  0  0  0  0  0  0
   12.8542  -17.1029   17.4783 O   0  0  0  0  0  0  0  0  0  0  0  0
    9.7246  -16.9621   22.6545 N   0  0  0  0  0  0  0  0  0  0  0  0
    9.1226  -15.9666   23.4982 C   0  0  1  0  0  0  0  0  0  0  0  0
    7.6046  -16.0240   23.5097 C   0  0  0  0  0  0  0  0  0  0  0  0
    7.0790  -15.1647   24.5934 C   0  0  0  0  0  0  0  0  0  0  0  0
    6.4546  -15.6739   25.7281 C   0  0  0  0  0  0  0  0  0  0  0  0
    6.1281  -14.6550   26.5120 N   0  0  0  0  0  0  0  0  0  0  0  0
    6.5032  -13.4914   25.9557 C   0  0  0  0  0  0  0  0  0  0  0  0
    6.3592  -12.2079   26.4130 C   0  0  0  0  0  0  0  0  0  0  0  0
    6.8365  -11.1789   25.6246 C   0  0  0  0  0  0  0  0  0  0  0  0
    7.4311  -11.4925   24.4226 C   0  0  0  0  0  0  0  0  0  0  0  0
    7.5710  -12.8054   23.9693 C   0  0  0  0  0  0  0  0  0  0  0  0
    7.0949  -13.8175   24.7598 C   0  0  0  0  0  0  0  0  0  0  0  0
    9.6922  -16.0299   24.8469 C   0  0  0  0  0  0  0  0  0  0  0  0
    9.9029  -14.9204   25.4487 O   0  0  0  0  0  0  0  0  0  0  0  0
   11.4469  -14.4490   28.0907 C   0  0  0  0  0  0  0  0  0  0  0  0
   10.0343  -14.8309   27.6266 C   0  0  2  0  0  0  0  0  0  0  0  0
    9.0295  -14.0337   28.3916 C   0  0  0  0  0  0  0  0  0  0  0  0
    9.8788  -16.3109   27.7561 C   0  0  0  0  0  0  0  0  0  0  0  0
   10.7441  -17.1306   26.8447 C   0  0  2  0  0  0  0  0  0  0  0  0
   10.0359  -17.2047   25.5592 N   0  0  0  0  0  0  0  0  0  0  0  0
   11.1793  -18.4227   27.3478 C   0  0  0  0  0  0  0  0  0  0  0  0
   11.9680  -18.4458   28.4972 O   0  0  0  0  0  0  0  0  0  0  0  0
   10.9172  -19.5382   26.8481 O   0  0  0  0  0  0  0  0  0  0  0  0
  2  1  1  6
  2  3  1  0
  3  4  1  0
  4  8  1  0
  5  4  2  0
  6  7  2  0
  6  2  1  0
  9  6  1  0
 10  9  1  0
 10 11  1  1
 11 12  1  0
 12 13  2  0
 12 20  1  0
 13 14  1  0
 14 15  1  0
 15 16  2  0
 16 17  1  0
 18 17  2  0
 19 18  1  0
 20 19  2  0
 20 15  1  0
 21 10  1  0
 22 21  2  0
 24 23  1  1
 24 26  1  0
 25 24  1  0
 27 26  1  1
 27 28  1  0
 28 21  1  0
 29 30  1  0
 29 27  1  0
 31 29  2  0
M  END
$$$$
