IQP.pdb
     RDKit          3D

 25 25  0  0  1  0  0  0  0  0999 V2000
   27.1246  -15.8395  -15.3166 C   0  0  0  0  0  0  0  0  0  0  0  0
   25.5954  -16.0025  -15.1681 C   0  0  0  0  0  0  0  0  0  0  0  0
   25.0023  -14.7316  -15.6643 C   0  0  2  0  0  0  0  0  0  0  0  0
   25.5722  -13.5063  -14.9831 C   0  0  0  0  0  0  0  0  0  0  0  0
   23.5167  -14.7697  -15.6881 C   0  0  2  0  0  0  0  0  0  0  0  0
   23.1470  -16.0182  -16.3964 N   0  0  0  0  0  0  0  0  0  0  0  0
   22.8910  -13.6182  -16.4447 C   0  0  0  0  0  0  0  0  0  0  0  0
   23.2350  -13.4861  -17.6402 O   0  0  0  0  0  0  0  0  0  0  0  0
   17.6326  -13.4455  -15.6912 N   0  0  0  0  0  0  0  0  0  0  0  0
   18.2820  -13.7910  -16.8983 C   0  0  0  0  0  0  0  0  0  0  0  0
   17.9189  -14.7543  -17.6140 O   0  0  0  0  0  0  0  0  0  0  0  0
   19.4584  -12.9781  -17.3547 C   0  0  0  0  0  0  0  0  0  0  0  0
   19.7844  -11.8986  -16.3559 C   0  0  0  0  0  0  0  0  0  0  0  0
   21.2728  -11.6328  -16.4036 C   0  0  2  0  0  0  0  0  0  0  0  0
   21.9732  -12.7559  -15.8366 N   0  0  0  0  0  0  0  0  0  0  0  0
   21.6656  -10.3953  -15.7345 C   0  0  0  0  0  0  0  0  0  0  0  0
   22.0633  -10.5091  -14.5199 O   0  0  0  0  0  0  0  0  0  0  0  0
   21.6409   -9.0845  -16.3199 N   0  0  0  0  0  0  0  0  0  0  0  0
   21.2426   -8.7727  -17.6516 C   0  0  0  0  0  0  0  0  0  0  0  0
   22.1249   -7.5697  -17.9847 C   0  0  0  0  0  0  0  0  0  0  0  0
   22.3890   -6.8967  -16.6811 C   0  0  0  0  0  0  0  0  0  0  0  0
   21.9895   -7.8864  -15.6346 C   0  0  1  0  0  0  0  0  0  0  0  0
   20.8349   -7.3736  -14.8088 C   0  0  0  0  0  0  0  0  0  0  0  0
   19.6837   -7.8131  -15.0552 O   0  0  0  0  0  0  0  0  0  0  0  0
   21.0341   -6.4503  -13.8126 O   0  0  0  0  0  0  0  0  0  0  0  0
  1  2  1  0
  3  2  1  0
  3  5  1  0
  3  4  1  1
  5  7  1  0
  5  6  1  6
  7  8  2  0
  9 10  1  0
 10 12  1  0
 11 10  2  0
 12 13  1  0
 14 13  1  1
 14 16  1  0
 15 14  1  0
 15  7  1  0
 16 18  1  0
 17 16  2  0
 18 19  1  0
 18 22  1  0
 20 21  1  0
 20 19  1  0
 21 22  1  0
 22 23  1  6
 23 25  1  0
 24 23  2  0
M  END
$$$$
