IQP.pdb
     RDKit          3D

 25 25  0  0  1  0  0  0  0  0999 V2000
   26.6417  -21.2654   -7.2316 C   0  0  0  0  0  0  0  0  0  0  0  0
   25.6199  -21.2246   -8.3897 C   0  0  0  0  0  0  0  0  0  0  0  0
   26.2960  -20.5036   -9.5015 C   0  0  2  0  0  0  0  0  0  0  0  0
   26.9608  -19.2188   -9.0567 C   0  0  0  0  0  0  0  0  0  0  0  0
   25.4198  -20.3461  -10.6917 C   0  0  2  0  0  0  0  0  0  0  0  0
   24.9741  -21.7109  -11.0598 N   0  0  0  0  0  0  0  0  0  0  0  0
   26.1277  -19.7616  -11.8947 C   0  0  0  0  0  0  0  0  0  0  0  0
   26.8245  -18.7431  -11.6893 O   0  0  0  0  0  0  0  0  0  0  0  0
   30.1597  -22.8336  -15.7379 N   0  0  0  0  0  0  0  0  0  0  0  0
   28.8105  -22.8534  -15.3167 C   0  0  0  0  0  0  0  0  0  0  0  0
   28.0334  -23.8046  -15.5688 O   0  0  0  0  0  0  0  0  0  0  0  0
   28.2717  -21.6921  -14.5330 C   0  0  0  0  0  0  0  0  0  0  0  0
   27.0414  -21.1250  -15.1917 C   0  0  0  0  0  0  0  0  0  0  0  0
   26.5934  -19.9104  -14.4093 C   0  0  2  0  0  0  0  0  0  0  0  0
   26.0106  -20.3375  -13.1638 N   0  0  0  0  0  0  0  0  0  0  0  0
   25.6628  -19.0558  -15.1420 C   0  0  0  0  0  0  0  0  0  0  0  0
   24.4154  -19.3160  -14.9914 O   0  0  0  0  0  0  0  0  0  0  0  0
   26.0291  -17.9668  -16.0032 N   0  0  0  0  0  0  0  0  0  0  0  0
   27.3576  -17.5906  -16.3537 C   0  0  0  0  0  0  0  0  0  0  0  0
   27.2358  -16.0764  -16.5228 C   0  0  0  0  0  0  0  0  0  0  0  0
   25.8275  -15.8352  -16.9476 C   0  0  0  0  0  0  0  0  0  0  0  0
   25.1024  -17.1109  -16.6628 C   0  0  1  0  0  0  0  0  0  0  0  0
   24.5845  -17.7413  -17.9326 C   0  0  0  0  0  0  0  0  0  0  0  0
   25.1537  -18.7771  -18.3594 O   0  0  0  0  0  0  0  0  0  0  0  0
   23.5186  -17.1992  -18.6067 O   0  0  0  0  0  0  0  0  0  0  0  0
  1  2  1  0
  3  2  1  0
  3  5  1  0
  3  4  1  1
  5  7  1  0
  5  6  1  6
  7  8  2  0
  9 10  1  0
 10 12  1  0
 11 10  2  0
 12 13  1  0
 14 13  1  6
 14 16  1  0
 15 14  1  0
 15  7  1  0
 16 18  1  0
 17 16  2  0
 18 19  1  0
 18 22  1  0
 20 21  1  0
 20 19  1  0
 21 22  1  0
 22 23  1  6
 23 25  1  0
 24 23  2  0
M  END
$$$$
