IQP.pdb
     RDKit          3D

 25 25  0  0  1  0  0  0  0  0999 V2000
   14.5036  -26.5207    4.2889 C   0  0  0  0  0  0  0  0  0  0  0  0
   15.9270  -26.6206    3.6964 C   0  0  0  0  0  0  0  0  0  0  0  0
   16.6676  -25.4415    4.2199 C   0  0  2  0  0  0  0  0  0  0  0  0
   16.5920  -25.3155    5.7262 C   0  0  0  0  0  0  0  0  0  0  0  0
   16.3278  -24.1897    3.4943 C   0  0  2  0  0  0  0  0  0  0  0  0
   16.4898  -24.4914    2.0522 N   0  0  0  0  0  0  0  0  0  0  0  0
   17.2444  -23.0304    3.8196 C   0  0  0  0  0  0  0  0  0  0  0  0
   18.4668  -23.2184    3.6319 O   0  0  0  0  0  0  0  0  0  0  0  0
   16.7146  -20.0113    1.9111 N   0  0  0  0  0  0  0  0  0  0  0  0
   17.1357  -18.7170    2.2927 C   0  0  0  0  0  0  0  0  0  0  0  0
   17.5205  -17.8561    1.4663 O   0  0  0  0  0  0  0  0  0  0  0  0
   17.1269  -18.3438    3.7466 C   0  0  0  0  0  0  0  0  0  0  0  0
   16.5044  -19.4357    4.5769 C   0  0  0  0  0  0  0  0  0  0  0  0
   17.4594  -20.6079    4.6241 C   0  0  2  0  0  0  0  0  0  0  0  0
   16.7450  -21.8147    4.2976 N   0  0  0  0  0  0  0  0  0  0  0  0
   18.1438  -20.7507    5.9065 C   0  0  0  0  0  0  0  0  0  0  0  0
   17.5988  -21.5443    6.7547 O   0  0  0  0  0  0  0  0  0  0  0  0
   19.3574  -20.0832    6.2851 N   0  0  0  0  0  0  0  0  0  0  0  0
   20.1919  -19.3161    5.4223 C   0  0  0  0  0  0  0  0  0  0  0  0
   21.5816  -19.5554    6.0122 C   0  0  0  0  0  0  0  0  0  0  0  0
   21.3595  -19.8069    7.4646 C   0  0  0  0  0  0  0  0  0  0  0  0
   19.8944  -20.0683    7.6033 C   0  0  1  0  0  0  0  0  0  0  0  0
   19.2283  -19.0137    8.4529 C   0  0  0  0  0  0  0  0  0  0  0  0
   18.5935  -18.0958    7.8754 O   0  0  0  0  0  0  0  0  0  0  0  0
   19.3118  -19.0533    9.8226 O   0  0  0  0  0  0  0  0  0  0  0  0
  1  2  1  0
  3  2  1  0
  3  5  1  0
  3  4  1  1
  5  7  1  0
  5  6  1  6
  7  8  2  0
  9 10  1  0
 10 12  1  0
 11 10  2  0
 12 13  1  0
 14 13  1  1
 14 16  1  0
 15 14  1  0
 15  7  1  0
 16 18  1  0
 17 16  2  0
 18 19  1  0
 18 22  1  0
 20 21  1  0
 20 19  1  0
 21 22  1  0
 22 23  1  1
 23 25  1  0
 24 23  2  0
M  END
$$$$
