IQP.pdb
     RDKit          3D

 25 25  0  0  1  0  0  0  0  0999 V2000
   28.4252  -17.8191  -20.1957 C   0  0  0  0  0  0  0  0  0  0  0  0
   28.2415  -19.3096  -20.5586 C   0  0  0  0  0  0  0  0  0  0  0  0
   27.3897  -19.8864  -19.4840 C   0  0  2  0  0  0  0  0  0  0  0  0
   26.0460  -19.2009  -19.3614 C   0  0  0  0  0  0  0  0  0  0  0  0
   28.1160  -20.0203  -18.1942 C   0  0  2  0  0  0  0  0  0  0  0  0
   29.2435  -20.9479  -18.4497 N   0  0  0  0  0  0  0  0  0  0  0  0
   27.2795  -20.6198  -17.0848 C   0  0  0  0  0  0  0  0  0  0  0  0
   26.6853  -21.6878  -17.3516 O   0  0  0  0  0  0  0  0  0  0  0  0
   25.6390  -22.2760  -11.4198 N   0  0  0  0  0  0  0  0  0  0  0  0
   26.4340  -21.1145  -11.5508 C   0  0  0  0  0  0  0  0  0  0  0  0
   27.5729  -21.0087  -11.0371 O   0  0  0  0  0  0  0  0  0  0  0  0
   25.9042  -19.9502  -12.3361 C   0  0  0  0  0  0  0  0  0  0  0  0
   26.8216  -19.6145  -13.4827 C   0  0  0  0  0  0  0  0  0  0  0  0
   26.3602  -20.3747  -14.7064 C   0  0  2  0  0  0  0  0  0  0  0  0
   27.1854  -20.0114  -15.8291 N   0  0  0  0  0  0  0  0  0  0  0  0
   24.9490  -20.1694  -15.0223 C   0  0  0  0  0  0  0  0  0  0  0  0
   24.6582  -19.0817  -15.6376 O   0  0  0  0  0  0  0  0  0  0  0  0
   23.8808  -21.0741  -14.7028 N   0  0  0  0  0  0  0  0  0  0  0  0
   24.0120  -22.3033  -13.9949 C   0  0  0  0  0  0  0  0  0  0  0  0
   22.9129  -23.1614  -14.6213 C   0  0  0  0  0  0  0  0  0  0  0  0
   21.8621  -22.2012  -15.0640 C   0  0  0  0  0  0  0  0  0  0  0  0
   22.5121  -20.8558  -15.0277 C   0  0  1  0  0  0  0  0  0  0  0  0
   21.8475  -19.9539  -14.0164 C   0  0  0  0  0  0  0  0  0  0  0  0
   22.4581  -19.7053  -12.9467 O   0  0  0  0  0  0  0  0  0  0  0  0
   20.6070  -19.4169  -14.2563 O   0  0  0  0  0  0  0  0  0  0  0  0
  1  2  1  0
  3  2  1  0
  3  5  1  0
  3  4  1  1
  5  7  1  0
  5  6  1  6
  7  8  2  0
  9 10  1  0
 10 12  1  0
 11 10  2  0
 12 13  1  0
 14 13  1  1
 14 16  1  0
 15 14  1  0
 15  7  1  0
 16 18  1  0
 17 16  2  0
 18 19  1  0
 18 22  1  0
 20 21  1  0
 20 19  1  0
 21 22  1  0
 22 23  1  1
 23 25  1  0
 24 23  2  0
M  END
$$$$
