IQP.pdb
     RDKit          3D

 25 25  0  0  1  0  0  0  0  0999 V2000
   26.0424  -20.5021   -8.1768 C   0  0  0  0  0  0  0  0  0  0  0  0
   24.7951  -20.5120   -9.0886 C   0  0  0  0  0  0  0  0  0  0  0  0
   25.3110  -20.6164  -10.4800 C   0  0  2  0  0  0  0  0  0  0  0  0
   26.4755  -19.6885  -10.7511 C   0  0  0  0  0  0  0  0  0  0  0  0
   24.2281  -20.5341  -11.4946 C   0  0  2  0  0  0  0  0  0  0  0  0
   23.2979  -21.6490  -11.1969 N   0  0  0  0  0  0  0  0  0  0  0  0
   24.7122  -20.7164  -12.9167 C   0  0  0  0  0  0  0  0  0  0  0  0
   25.4021  -21.7351  -13.1429 O   0  0  0  0  0  0  0  0  0  0  0  0
   21.1995  -20.2896  -14.6283 N   0  0  0  0  0  0  0  0  0  0  0  0
   21.7219  -21.4689  -15.2065 C   0  0  0  0  0  0  0  0  0  0  0  0
   21.1861  -22.5930  -15.0599 O   0  0  0  0  0  0  0  0  0  0  0  0
   22.9715  -21.3864  -16.0340 C   0  0  0  0  0  0  0  0  0  0  0  0
   23.4576  -19.9639  -16.1312 C   0  0  0  0  0  0  0  0  0  0  0  0
   24.7286  -19.8335  -15.3213 C   0  0  2  0  0  0  0  0  0  0  0  0
   24.3963  -19.7957  -13.9208 N   0  0  0  0  0  0  0  0  0  0  0  0
   25.5356  -18.6722  -15.6862 C   0  0  0  0  0  0  0  0  0  0  0  0
   25.1786  -17.5506  -15.1755 O   0  0  0  0  0  0  0  0  0  0  0  0
   26.6769  -18.6879  -16.5573 N   0  0  0  0  0  0  0  0  0  0  0  0
   27.1833  -19.8257  -17.2488 C   0  0  0  0  0  0  0  0  0  0  0  0
   28.6840  -19.5393  -17.2969 C   0  0  0  0  0  0  0  0  0  0  0  0
   28.8059  -18.0536  -17.2930 C   0  0  0  0  0  0  0  0  0  0  0  0
   27.4616  -17.5455  -16.8823 C   0  0  1  0  0  0  0  0  0  0  0  0
   26.8212  -16.7384  -17.9852 C   0  0  0  0  0  0  0  0  0  0  0  0
   25.8444  -17.2366  -18.5989 O   0  0  0  0  0  0  0  0  0  0  0  0
   27.2918  -15.4908  -18.3121 O   0  0  0  0  0  0  0  0  0  0  0  0
  1  2  1  0
  3  2  1  0
  3  5  1  0
  3  4  1  6
  5  7  1  0
  5  6  1  1
  7  8  2  0
  9 10  1  0
 10 12  1  0
 11 10  2  0
 12 13  1  0
 14 13  1  6
 14 16  1  0
 15 14  1  0
 15  7  1  0
 16 18  1  0
 17 16  2  0
 18 19  1  0
 18 22  1  0
 20 21  1  0
 20 19  1  0
 21 22  1  0
 22 23  1  6
 23 25  1  0
 24 23  2  0
M  END
$$$$
