IQP.pdb
     RDKit          3D

 25 25  0  0  1  0  0  0  0  0999 V2000
   32.2059  -22.8597  -20.0284 C   0  0  0  0  0  0  0  0  0  0  0  0
   31.1292  -22.1080  -19.2143 C   0  0  0  0  0  0  0  0  0  0  0  0
   30.2818  -23.1612  -18.5934 C   0  0  2  0  0  0  0  0  0  0  0  0
   29.8978  -24.2594  -19.5614 C   0  0  0  0  0  0  0  0  0  0  0  0
   29.1323  -22.5943  -17.8408 C   0  0  2  0  0  0  0  0  0  0  0  0
   29.7135  -21.7025  -16.8095 N   0  0  0  0  0  0  0  0  0  0  0  0
   28.3027  -23.6363  -17.1224 C   0  0  0  0  0  0  0  0  0  0  0  0
   28.8604  -24.2354  -16.1763 O   0  0  0  0  0  0  0  0  0  0  0  0
   24.2210  -25.2346  -14.2399 N   0  0  0  0  0  0  0  0  0  0  0  0
   24.5607  -23.8625  -14.2503 C   0  0  0  0  0  0  0  0  0  0  0  0
   24.6153  -23.1678  -13.2080 O   0  0  0  0  0  0  0  0  0  0  0  0
   24.8717  -23.1958  -15.5587 C   0  0  0  0  0  0  0  0  0  0  0  0
   24.7243  -24.1646  -16.7027 C   0  0  0  0  0  0  0  0  0  0  0  0
   26.0546  -24.8487  -16.9280 C   0  0  2  0  0  0  0  0  0  0  0  0
   26.9823  -23.9055  -17.4964 N   0  0  0  0  0  0  0  0  0  0  0  0
   25.9619  -26.0417  -17.7656 C   0  0  0  0  0  0  0  0  0  0  0  0
   25.9466  -25.8447  -19.0333 O   0  0  0  0  0  0  0  0  0  0  0  0
   25.8872  -27.3940  -17.2886 N   0  0  0  0  0  0  0  0  0  0  0  0
   25.8623  -27.7968  -15.9224 C   0  0  0  0  0  0  0  0  0  0  0  0
   26.5801  -29.1456  -15.9651 C   0  0  0  0  0  0  0  0  0  0  0  0
   26.3160  -29.6942  -17.3257 C   0  0  0  0  0  0  0  0  0  0  0  0
   25.7977  -28.5424  -18.1250 C   0  0  1  0  0  0  0  0  0  0  0  0
   24.3766  -28.7826  -18.5731 C   0  0  0  0  0  0  0  0  0  0  0  0
   23.4611  -28.1054  -18.0417 O   0  0  0  0  0  0  0  0  0  0  0  0
   24.0881  -29.7167  -19.5368 O   0  0  0  0  0  0  0  0  0  0  0  0
  1  2  1  0
  3  2  1  0
  3  5  1  0
  3  4  1  6
  5  7  1  0
  5  6  1  1
  7  8  2  0
  9 10  1  0
 10 12  1  0
 11 10  2  0
 12 13  1  0
 14 13  1  6
 14 16  1  0
 15 14  1  0
 15  7  1  0
 16 18  1  0
 17 16  2  0
 18 19  1  0
 18 22  1  0
 20 21  1  0
 20 19  1  0
 21 22  1  0
 22 23  1  1
 23 25  1  0
 24 23  2  0
M  END
$$$$
