IQP.pdb
     RDKit          3D

 25 25  0  0  1  0  0  0  0  0999 V2000
   27.3438  -16.4681  -15.5658 C   0  0  0  0  0  0  0  0  0  0  0  0
   25.8223  -16.6095  -15.3378 C   0  0  0  0  0  0  0  0  0  0  0  0
   25.2168  -15.3514  -15.8513 C   0  0  2  0  0  0  0  0  0  0  0  0
   25.8151  -14.1088  -15.2280 C   0  0  0  0  0  0  0  0  0  0  0  0
   23.7312  -15.3830  -15.8216 C   0  0  2  0  0  0  0  0  0  0  0  0
   23.3327  -16.6627  -16.4543 N   0  0  0  0  0  0  0  0  0  0  0  0
   23.0834  -14.2667  -16.6116 C   0  0  0  0  0  0  0  0  0  0  0  0
   23.1799  -14.3384  -17.8569 O   0  0  0  0  0  0  0  0  0  0  0  0
   17.7095  -12.8599  -17.3684 N   0  0  0  0  0  0  0  0  0  0  0  0
   18.2176  -13.2570  -16.1105 C   0  0  0  0  0  0  0  0  0  0  0  0
   17.5071  -13.7975  -15.2301 O   0  0  0  0  0  0  0  0  0  0  0  0
   19.6686  -13.0277  -15.8021 C   0  0  0  0  0  0  0  0  0  0  0  0
   20.3752  -12.4059  -16.9783 C   0  0  0  0  0  0  0  0  0  0  0  0
   21.7873  -12.0578  -16.5620 C   0  0  2  0  0  0  0  0  0  0  0  0
   22.4089  -13.2180  -15.9783 N   0  0  0  0  0  0  0  0  0  0  0  0
   21.8616  -10.9231  -15.6453 C   0  0  0  0  0  0  0  0  0  0  0  0
   21.9571  -11.2074  -14.3978 O   0  0  0  0  0  0  0  0  0  0  0  0
   21.8360   -9.5387  -16.0252 N   0  0  0  0  0  0  0  0  0  0  0  0
   21.5850   -9.0372  -17.3347 C   0  0  0  0  0  0  0  0  0  0  0  0
   22.4337   -7.7664  -17.3675 C   0  0  0  0  0  0  0  0  0  0  0  0
   22.5010   -7.2961  -15.9546 C   0  0  0  0  0  0  0  0  0  0  0  0
   22.0329   -8.4506  -15.1287 C   0  0  1  0  0  0  0  0  0  0  0  0
   20.7606   -8.1144  -14.3895 C   0  0  0  0  0  0  0  0  0  0  0  0
   19.6743   -8.5571  -14.8401 O   0  0  0  0  0  0  0  0  0  0  0  0
   20.7861   -7.3446  -13.2531 O   0  0  0  0  0  0  0  0  0  0  0  0
  1  2  1  0
  3  2  1  0
  3  5  1  0
  3  4  1  1
  5  7  1  0
  5  6  1  6
  7  8  2  0
  9 10  1  0
 10 12  1  0
 11 10  2  0
 12 13  1  0
 14 13  1  1
 14 16  1  0
 15 14  1  0
 15  7  1  0
 16 18  1  0
 17 16  2  0
 18 19  1  0
 18 22  1  0
 20 21  1  0
 20 19  1  0
 21 22  1  0
 22 23  1  6
 23 25  1  0
 24 23  2  0
M  END
$$$$
