IQP.pdb
     RDKit          3D

 25 25  0  0  1  0  0  0  0  0999 V2000
   18.1333  -17.9516  -12.1753 C   0  0  0  0  0  0  0  0  0  0  0  0
   18.8201  -18.8136  -13.2579 C   0  0  0  0  0  0  0  0  0  0  0  0
   20.0779  -18.0999  -13.6068 C   0  0  2  0  0  0  0  0  0  0  0  0
   19.8570  -16.6411  -13.9440 C   0  0  0  0  0  0  0  0  0  0  0  0
   20.8864  -18.8341  -14.6149 C   0  0  2  0  0  0  0  0  0  0  0  0
   21.0759  -20.2016  -14.0755 N   0  0  0  0  0  0  0  0  0  0  0  0
   22.2607  -18.2422  -14.8402 C   0  0  0  0  0  0  0  0  0  0  0  0
   23.0535  -18.2937  -13.8738 O   0  0  0  0  0  0  0  0  0  0  0  0
   26.4914  -20.0644  -15.9212 N   0  0  0  0  0  0  0  0  0  0  0  0
   26.1685  -19.1866  -16.9810 C   0  0  0  0  0  0  0  0  0  0  0  0
   27.0162  -18.4450  -17.5318 O   0  0  0  0  0  0  0  0  0  0  0  0
   24.7534  -19.1298  -17.4783 C   0  0  0  0  0  0  0  0  0  0  0  0
   24.3383  -17.7082  -17.7540 C   0  0  0  0  0  0  0  0  0  0  0  0
   23.8739  -17.0827  -16.4573 C   0  0  2  0  0  0  0  0  0  0  0  0
   22.6212  -17.6757  -16.0669 N   0  0  0  0  0  0  0  0  0  0  0  0
   23.7522  -15.6286  -16.5224 C   0  0  0  0  0  0  0  0  0  0  0  0
   22.5999  -15.1703  -16.8516 O   0  0  0  0  0  0  0  0  0  0  0  0
   24.8037  -14.6890  -16.2520 N   0  0  0  0  0  0  0  0  0  0  0  0
   26.1641  -15.0139  -15.9818 C   0  0  0  0  0  0  0  0  0  0  0  0
   26.5847  -13.8968  -15.0270 C   0  0  0  0  0  0  0  0  0  0  0  0
   25.7371  -12.7248  -15.3876 C   0  0  0  0  0  0  0  0  0  0  0  0
   24.6414  -13.2747  -16.2427 C   0  0  1  0  0  0  0  0  0  0  0  0
   24.7015  -12.7086  -17.6405 C   0  0  0  0  0  0  0  0  0  0  0  0
   25.1431  -13.4401  -18.5619 O   0  0  0  0  0  0  0  0  0  0  0  0
   24.2848  -11.4270  -17.9021 O   0  0  0  0  0  0  0  0  0  0  0  0
  1  2  1  0
  3  2  1  0
  3  5  1  0
  3  4  1  6
  5  7  1  0
  5  6  1  1
  7  8  2  0
  9 10  1  0
 10 12  1  0
 11 10  2  0
 12 13  1  0
 14 13  1  6
 14 16  1  0
 15 14  1  0
 15  7  1  0
 16 18  1  0
 17 16  2  0
 18 19  1  0
 18 22  1  0
 20 21  1  0
 20 19  1  0
 21 22  1  0
 22 23  1  6
 23 25  1  0
 24 23  2  0
M  END
$$$$
