QMW.pdb
     RDKit          3D

 32 33  0  0  1  0  0  0  0  0999 V2000
    7.4132  -12.2240   17.3450 N   0  0  0  0  0  0  0  0  0  0  0  0
    6.9593  -13.4479   16.7649 C   0  0  0  0  0  0  0  0  0  0  0  0
    6.3247  -13.5339   15.7082 O   0  0  0  0  0  0  0  0  0  0  0  0
    7.2950  -14.6982   17.5203 C   0  0  0  0  0  0  0  0  0  0  0  0
    8.6203  -14.5612   18.1903 C   0  0  0  0  0  0  0  0  0  0  0  0
    9.0207  -15.7283   19.0431 C   0  0  2  0  0  0  0  0  0  0  0  0
    8.1567  -16.8799   18.7758 N   0  0  0  0  0  0  0  0  0  0  0  0
    9.0398  -15.4036   20.4815 C   0  0  0  0  0  0  0  0  0  0  0  0
    9.8252  -14.5174   20.8939 O   0  0  0  0  0  0  0  0  0  0  0  0
    6.3063  -13.4962   27.3095 C   0  0  0  0  0  0  0  0  0  0  0  0
    6.1965  -13.7845   25.5348 S   0  0  0  0  0  0  0  0  0  0  0  0
    7.1198  -15.2081   24.9978 C   0  0  0  0  0  0  0  0  0  0  0  0
    7.1739  -15.4857   23.5438 C   0  0  0  0  0  0  0  0  0  0  0  0
    8.4654  -15.7747   22.8804 C   0  0  2  0  0  0  0  0  0  0  0  0
    8.2142  -16.0412   21.4355 N   0  0  0  0  0  0  0  0  0  0  0  0
    9.1869  -16.9050   23.4640 C   0  0  0  0  0  0  0  0  0  0  0  0
    8.9657  -18.0741   23.1409 O   0  0  0  0  0  0  0  0  0  0  0  0
   10.2052  -16.6767   24.4617 N   0  0  0  0  0  0  0  0  0  0  0  0
   10.8925  -17.7963   25.1191 C   0  0  1  0  0  0  0  0  0  0  0  0
   11.9379  -17.1549   25.9813 C   0  0  0  0  0  0  0  0  0  0  0  0
   11.4765  -16.6464   27.2604 C   0  0  0  0  0  0  0  0  0  0  0  0
   11.2232  -17.4629   28.3636 C   0  0  0  0  0  0  0  0  0  0  0  0
   10.7864  -16.6786   29.3483 N   0  0  0  0  0  0  0  0  0  0  0  0
   10.7457  -15.3948   28.9360 C   0  0  0  0  0  0  0  0  0  0  0  0
   10.3934  -14.2100   29.5461 C   0  0  0  0  0  0  0  0  0  0  0  0
   10.4687  -13.0184   28.8716 C   0  0  0  0  0  0  0  0  0  0  0  0
   10.8967  -12.9830   27.5754 C   0  0  0  0  0  0  0  0  0  0  0  0
   11.2473  -14.1561   26.9640 C   0  0  0  0  0  0  0  0  0  0  0  0
   11.1827  -15.3610   27.6091 C   0  0  0  0  0  0  0  0  0  0  0  0
    9.9490  -18.6548   25.8223 C   0  0  0  0  0  0  0  0  0  0  0  0
    8.7750  -18.2074   26.0292 O   0  0  0  0  0  0  0  0  0  0  0  0
   10.1883  -19.9241   26.2938 O   0  0  0  0  0  0  0  0  0  0  0  0
  2  1  1  0
  3  2  2  0
  4  2  1  0
  5  4  1  0
  6  5  1  0
  6  7  1  1
  8  9  2  0
  8  6  1  0
 10 11  1  0
 12 11  1  0
 12 13  1  0
 14 13  1  1
 14 16  1  0
 14 15  1  0
 15  8  1  0
 16 18  1  0
 17 16  2  0
 18 19  1  0
 19 30  1  0
 20 21  1  0
 19 20  1  1
 21 29  1  0
 22 23  1  0
 22 21  2  0
 23 24  1  0
 24 29  2  0
 24 25  1  0
 25 26  2  0
 26 27  1  0
 28 27  2  0
 29 28  1  0
 30 31  2  0
 30 32  1  0
M  END
$$$$
