QMW.pdb
     RDKit          3D

 32 33  0  0  1  0  0  0  0  0999 V2000
   11.1645  -19.0607   16.1168 N   0  0  0  0  0  0  0  0  0  0  0  0
   12.4423  -18.4231   16.1469 C   0  0  0  0  0  0  0  0  0  0  0  0
   13.4104  -18.7521   15.4531 O   0  0  0  0  0  0  0  0  0  0  0  0
   12.5826  -17.2759   17.1013 C   0  0  0  0  0  0  0  0  0  0  0  0
   11.3563  -17.1436   17.9396 C   0  0  0  0  0  0  0  0  0  0  0  0
   11.4364  -17.8029   19.2844 C   0  0  2  0  0  0  0  0  0  0  0  0
   10.5900  -18.9972   19.3221 N   0  0  0  0  0  0  0  0  0  0  0  0
   11.1057  -16.8849   20.3903 C   0  0  0  0  0  0  0  0  0  0  0  0
   11.8693  -15.9188   20.6267 O   0  0  0  0  0  0  0  0  0  0  0  0
    6.8144  -12.5760   18.9626 C   0  0  0  0  0  0  0  0  0  0  0  0
    6.7782  -13.6522   20.4067 S   0  0  0  0  0  0  0  0  0  0  0  0
    8.3590  -14.3814   20.7769 C   0  0  0  0  0  0  0  0  0  0  0  0
    8.4381  -15.3039   21.9330 C   0  0  0  0  0  0  0  0  0  0  0  0
    9.7042  -16.0005   22.2546 C   0  0  2  0  0  0  0  0  0  0  0  0
    9.9637  -17.0320   21.2103 N   0  0  0  0  0  0  0  0  0  0  0  0
    9.7094  -16.6331   23.5732 C   0  0  0  0  0  0  0  0  0  0  0  0
    9.2803  -17.7727   23.7664 O   0  0  0  0  0  0  0  0  0  0  0  0
   10.2310  -15.9212   24.7158 N   0  0  0  0  0  0  0  0  0  0  0  0
   10.1582  -16.4918   26.0675 C   0  0  1  0  0  0  0  0  0  0  0  0
    9.6921  -15.3638   26.9382 C   0  0  0  0  0  0  0  0  0  0  0  0
    8.3922  -14.8074   26.6089 C   0  0  0  0  0  0  0  0  0  0  0  0
    7.2844  -15.5901   26.2805 C   0  0  0  0  0  0  0  0  0  0  0  0
    6.2781  -14.7612   26.0050 N   0  0  0  0  0  0  0  0  0  0  0  0
    6.6809  -13.4809   26.1399 C   0  0  0  0  0  0  0  0  0  0  0  0
    6.0501  -12.2642   25.9928 C   0  0  0  0  0  0  0  0  0  0  0  0
    6.7202  -11.0891   26.2183 C   0  0  0  0  0  0  0  0  0  0  0  0
    8.0327  -11.1025   26.5950 C   0  0  0  0  0  0  0  0  0  0  0  0
    8.6647  -12.3074   26.7422 C   0  0  0  0  0  0  0  0  0  0  0  0
    8.0244  -13.4969   26.5241 C   0  0  0  0  0  0  0  0  0  0  0  0
    9.3201  -17.6828   26.0929 C   0  0  0  0  0  0  0  0  0  0  0  0
    8.5654  -17.9027   25.0912 O   0  0  0  0  0  0  0  0  0  0  0  0
    9.2548  -18.6193   27.0977 O   0  0  0  0  0  0  0  0  0  0  0  0
  2  1  1  0
  3  2  2  0
  4  2  1  0
  5  4  1  0
  6  5  1  0
  6  7  1  6
  8  9  2  0
  8  6  1  0
 10 11  1  0
 12 11  1  0
 12 13  1  0
 14 13  1  6
 14 16  1  0
 14 15  1  0
 15  8  1  0
 16 18  1  0
 17 16  2  0
 18 19  1  0
 19 30  1  0
 20 21  1  0
 19 20  1  1
 21 29  1  0
 22 23  1  0
 22 21  2  0
 23 24  1  0
 24 29  2  0
 24 25  1  0
 25 26  2  0
 26 27  1  0
 28 27  2  0
 29 28  1  0
 30 31  2  0
 30 32  1  0
M  END
$$$$
