QMW.pdb
     RDKit          3D

 32 33  0  0  1  0  0  0  0  0999 V2000
    4.0637  -22.0201   24.7058 N   0  0  0  0  0  0  0  0  0  0  0  0
    5.4134  -21.6567   25.0002 C   0  0  0  0  0  0  0  0  0  0  0  0
    5.9143  -21.6631   26.1296 O   0  0  0  0  0  0  0  0  0  0  0  0
    6.2534  -21.2430   23.8298 C   0  0  0  0  0  0  0  0  0  0  0  0
    5.9891  -19.8181   23.4776 C   0  0  0  0  0  0  0  0  0  0  0  0
    6.2660  -19.4590   22.0478 C   0  0  2  0  0  0  0  0  0  0  0  0
    6.7198  -20.6344   21.3017 N   0  0  0  0  0  0  0  0  0  0  0  0
    7.2237  -18.3454   21.9146 C   0  0  0  0  0  0  0  0  0  0  0  0
    8.4515  -18.5876   21.9920 O   0  0  0  0  0  0  0  0  0  0  0  0
    6.1628  -12.9087   18.6150 C   0  0  0  0  0  0  0  0  0  0  0  0
    7.6405  -12.3921   19.5063 S   0  0  0  0  0  0  0  0  0  0  0  0
    8.2649  -13.6404   20.6107 C   0  0  0  0  0  0  0  0  0  0  0  0
    7.3711  -14.7729   20.9459 C   0  0  0  0  0  0  0  0  0  0  0  0
    7.8930  -15.9552   21.6682 C   0  0  2  0  0  0  0  0  0  0  0  0
    6.8337  -17.0034   21.7024 N   0  0  0  0  0  0  0  0  0  0  0  0
    8.3324  -15.6647   23.0325 C   0  0  0  0  0  0  0  0  0  0  0  0
    7.6199  -15.0792   23.8507 O   0  0  0  0  0  0  0  0  0  0  0  0
    9.6483  -16.0661   23.4703 N   0  0  0  0  0  0  0  0  0  0  0  0
   10.2033  -15.5956   24.7464 C   0  0  1  0  0  0  0  0  0  0  0  0
    9.2412  -16.0817   25.7885 C   0  0  0  0  0  0  0  0  0  0  0  0
    8.0371  -15.2880   25.9554 C   0  0  0  0  0  0  0  0  0  0  0  0
    6.7520  -15.7925   25.7504 C   0  0  0  0  0  0  0  0  0  0  0  0
    5.8941  -14.7939   25.9562 N   0  0  0  0  0  0  0  0  0  0  0  0
    6.5615  -13.6687   26.2850 C   0  0  0  0  0  0  0  0  0  0  0  0
    6.1670  -12.3875   26.6058 C   0  0  0  0  0  0  0  0  0  0  0  0
    7.0887  -11.4233   26.9238 C   0  0  0  0  0  0  0  0  0  0  0  0
    8.4225  -11.7159   26.9287 C   0  0  0  0  0  0  0  0  0  0  0  0
    8.8205  -12.9861   26.6105 C   0  0  0  0  0  0  0  0  0  0  0  0
    7.9260  -13.9701   26.2881 C   0  0  0  0  0  0  0  0  0  0  0  0
   11.5804  -16.0384   24.9180 C   0  0  0  0  0  0  0  0  0  0  0  0
   12.0863  -16.7780   24.0135 O   0  0  0  0  0  0  0  0  0  0  0  0
   12.4147  -15.7364   25.9685 O   0  0  0  0  0  0  0  0  0  0  0  0
  2  1  1  0
  3  2  2  0
  4  2  1  0
  5  4  1  0
  6  5  1  0
  6  7  1  6
  8  9  2  0
  8  6  1  0
 10 11  1  0
 12 11  1  0
 12 13  1  0
 14 13  1  1
 14 16  1  0
 14 15  1  0
 15  8  1  0
 16 18  1  0
 17 16  2  0
 18 19  1  0
 19 30  1  0
 20 21  1  0
 19 20  1  1
 21 29  1  0
 22 23  1  0
 22 21  2  0
 23 24  1  0
 24 29  2  0
 24 25  1  0
 25 26  2  0
 26 27  1  0
 28 27  2  0
 29 28  1  0
 30 31  2  0
 30 32  1  0
M  END
$$$$
