QMW.pdb
     RDKit          3D

 32 33  0  0  1  0  0  0  0  0999 V2000
    9.8468  -13.2367   19.1551 N   0  0  0  0  0  0  0  0  0  0  0  0
    8.8154  -12.8352   18.2520 C   0  0  0  0  0  0  0  0  0  0  0  0
    8.9982  -12.1815   17.2196 O   0  0  0  0  0  0  0  0  0  0  0  0
    7.4231  -13.2549   18.6152 C   0  0  0  0  0  0  0  0  0  0  0  0
    7.4327  -14.0567   19.8727 C   0  0  0  0  0  0  0  0  0  0  0  0
    7.6468  -15.5290   19.6814 C   0  0  2  0  0  0  0  0  0  0  0  0
    6.6538  -16.0763   18.7549 N   0  0  0  0  0  0  0  0  0  0  0  0
    7.6510  -16.2746   20.9538 C   0  0  0  0  0  0  0  0  0  0  0  0
    6.5579  -16.5257   21.5144 O   0  0  0  0  0  0  0  0  0  0  0  0
    8.0941  -22.1851   19.8855 C   0  0  0  0  0  0  0  0  0  0  0  0
    8.9953  -21.3565   21.2068 S   0  0  0  0  0  0  0  0  0  0  0  0
    8.3751  -19.7268   21.5631 C   0  0  0  0  0  0  0  0  0  0  0  0
    9.1006  -18.9187   22.5704 C   0  0  0  0  0  0  0  0  0  0  0  0
    8.6998  -17.5200   22.8436 C   0  0  2  0  0  0  0  0  0  0  0  0
    8.8304  -16.7287   21.5872 N   0  0  0  0  0  0  0  0  0  0  0  0
    9.4793  -16.8806   23.9029 C   0  0  0  0  0  0  0  0  0  0  0  0
   10.5397  -16.2904   23.6852 O   0  0  0  0  0  0  0  0  0  0  0  0
    9.0163  -16.9244   25.2697 N   0  0  0  0  0  0  0  0  0  0  0  0
    9.8326  -16.3909   26.3683 C   0  0  1  0  0  0  0  0  0  0  0  0
    8.8433  -15.8594   27.3616 C   0  0  0  0  0  0  0  0  0  0  0  0
    7.8454  -14.9472   26.8327 C   0  0  0  0  0  0  0  0  0  0  0  0
    6.7000  -15.3717   26.1576 C   0  0  0  0  0  0  0  0  0  0  0  0
    6.0300  -14.2818   25.7848 N   0  0  0  0  0  0  0  0  0  0  0  0
    6.6858  -13.1736   26.1864 C   0  0  0  0  0  0  0  0  0  0  0  0
    6.4296  -11.8237   26.0762 C   0  0  0  0  0  0  0  0  0  0  0  0
    7.2869  -10.8960   26.6099 C   0  0  0  0  0  0  0  0  0  0  0  0
    8.4172  -11.2944   27.2644 C   0  0  0  0  0  0  0  0  0  0  0  0
    8.6774  -12.6333   27.3765 C   0  0  0  0  0  0  0  0  0  0  0  0
    7.8426  -13.5835   26.8546 C   0  0  0  0  0  0  0  0  0  0  0  0
   10.7485  -17.3997   26.8833 C   0  0  0  0  0  0  0  0  0  0  0  0
   11.5249  -17.0695   27.8369 O   0  0  0  0  0  0  0  0  0  0  0  0
   10.8675  -18.6987   26.4483 O   0  0  0  0  0  0  0  0  0  0  0  0
  2  1  1  0
  3  2  2  0
  4  2  1  0
  5  4  1  0
  6  5  1  0
  6  7  1  6
  8  9  2  0
  8  6  1  0
 10 11  1  0
 12 11  1  0
 12 13  1  0
 14 13  1  6
 14 16  1  0
 14 15  1  0
 15  8  1  0
 16 18  1  0
 17 16  2  0
 18 19  1  0
 19 30  1  0
 20 21  1  0
 19 20  1  1
 21 29  1  0
 22 23  1  0
 22 21  2  0
 23 24  1  0
 24 29  2  0
 24 25  1  0
 25 26  2  0
 26 27  1  0
 28 27  2  0
 29 28  1  0
 30 31  2  0
 30 32  1  0
M  END
$$$$
