QMW.pdb
     RDKit          3D

 32 33  0  0  1  0  0  0  0  0999 V2000
    9.5592  -16.6937   16.0314 N   0  0  0  0  0  0  0  0  0  0  0  0
   10.8967  -17.0633   16.3704 C   0  0  0  0  0  0  0  0  0  0  0  0
   11.9026  -16.7274   15.7363 O   0  0  0  0  0  0  0  0  0  0  0  0
   11.0532  -17.9211   17.5895 C   0  0  0  0  0  0  0  0  0  0  0  0
    9.7204  -18.2281   18.1841 C   0  0  0  0  0  0  0  0  0  0  0  0
    9.7177  -18.3984   19.6744 C   0  0  2  0  0  0  0  0  0  0  0  0
    8.6703  -19.3369   20.0822 N   0  0  0  0  0  0  0  0  0  0  0  0
    9.5904  -17.1177   20.3945 C   0  0  0  0  0  0  0  0  0  0  0  0
   10.5769  -16.3449   20.4387 O   0  0  0  0  0  0  0  0  0  0  0  0
    8.1863  -11.6168   19.9775 C   0  0  0  0  0  0  0  0  0  0  0  0
    8.0283  -13.1859   19.1072 S   0  0  0  0  0  0  0  0  0  0  0  0
    6.9520  -14.3391   19.9315 C   0  0  0  0  0  0  0  0  0  0  0  0
    7.2153  -14.6264   21.3605 C   0  0  0  0  0  0  0  0  0  0  0  0
    8.4120  -15.3985   21.7648 C   0  0  2  0  0  0  0  0  0  0  0  0
    8.4062  -16.7046   21.0467 N   0  0  0  0  0  0  0  0  0  0  0  0
    8.4996  -15.6370   23.2050 C   0  0  0  0  0  0  0  0  0  0  0  0
    7.6033  -15.3162   23.9885 O   0  0  0  0  0  0  0  0  0  0  0  0
    9.6698  -16.2715   23.7640 N   0  0  0  0  0  0  0  0  0  0  0  0
   10.2042  -15.8679   25.0715 C   0  0  1  0  0  0  0  0  0  0  0  0
    9.1249  -16.2134   26.0531 C   0  0  0  0  0  0  0  0  0  0  0  0
    7.9242  -15.4002   25.9836 C   0  0  0  0  0  0  0  0  0  0  0  0
    6.6627  -15.9195   25.6889 C   0  0  0  0  0  0  0  0  0  0  0  0
    5.8052  -14.8998   25.6746 N   0  0  0  0  0  0  0  0  0  0  0  0
    6.4503  -13.7467   25.9466 C   0  0  0  0  0  0  0  0  0  0  0  0
    6.0446  -12.4349   26.0674 C   0  0  0  0  0  0  0  0  0  0  0  0
    6.9406  -11.4441   26.3773 C   0  0  0  0  0  0  0  0  0  0  0  0
    8.2592  -11.7402   26.5732 C   0  0  0  0  0  0  0  0  0  0  0  0
    8.6682  -13.0407   26.4540 C   0  0  0  0  0  0  0  0  0  0  0  0
    7.7994  -14.0518   26.1453 C   0  0  0  0  0  0  0  0  0  0  0  0
   11.4974  -16.4877   25.3270 C   0  0  0  0  0  0  0  0  0  0  0  0
   12.0777  -16.2244   26.4294 O   0  0  0  0  0  0  0  0  0  0  0  0
   12.1741  -17.3480   24.4947 O   0  0  0  0  0  0  0  0  0  0  0  0
  2  1  1  0
  3  2  2  0
  4  2  1  0
  5  4  1  0
  6  5  1  0
  6  7  1  6
  8  9  2  0
  8  6  1  0
 10 11  1  0
 12 11  1  0
 12 13  1  0
 14 13  1  1
 14 16  1  0
 14 15  1  0
 15  8  1  0
 16 18  1  0
 17 16  2  0
 18 19  1  0
 19 30  1  0
 20 21  1  0
 19 20  1  1
 21 29  1  0
 22 23  1  0
 22 21  2  0
 23 24  1  0
 24 29  2  0
 24 25  1  0
 25 26  2  0
 26 27  1  0
 28 27  2  0
 29 28  1  0
 30 31  2  0
 30 32  1  0
M  END
$$$$
