HCE.pdb
     RDKit          3D

 26 26  0  0  1  0  0  0  0  0999 V2000
   19.1357  -16.5668  -18.0016 N   0  0  0  0  0  0  0  0  0  0  0  0
   20.2471  -15.6385  -18.0456 C   0  0  1  0  0  0  0  0  0  0  0  0
   20.8440  -15.7271  -19.4464 C   0  0  0  0  0  0  0  0  0  0  0  0
   21.5121  -17.0452  -19.5857 C   0  0  0  0  0  0  0  0  0  0  0  0
   22.6145  -17.5001  -18.8881 C   0  0  0  0  0  0  0  0  0  0  0  0
   22.9380  -18.7458  -19.2814 N   0  0  0  0  0  0  0  0  0  0  0  0
   22.0486  -19.0827  -20.2228 C   0  0  0  0  0  0  0  0  0  0  0  0
   21.1871  -18.0779  -20.4188 N   0  0  0  0  0  0  0  0  0  0  0  0
   19.7167  -14.2698  -17.8373 C   0  0  0  0  0  0  0  0  0  0  0  0
   18.9582  -13.7620  -18.6822 O   0  0  0  0  0  0  0  0  0  0  0  0
   20.0320  -13.4779  -16.6967 N   0  0  0  0  0  0  0  0  0  0  0  0
   19.4141  -12.1979  -16.4827 C   0  0  1  0  0  0  0  0  0  0  0  0
   18.0117  -12.3360  -15.9648 C   0  0  0  0  0  0  0  0  0  0  0  0
   18.0230  -13.6963  -14.7440 S   0  0  0  0  0  0  0  0  0  0  0  0
   20.1952  -11.3376  -15.5600 C   0  0  0  0  0  0  0  0  0  0  0  0
   20.7626  -11.7608  -14.5203 O   0  0  0  0  0  0  0  0  0  0  0  0
   20.2932   -9.9590  -15.8930 N   0  0  0  0  0  0  0  0  0  0  0  0
   21.0709   -9.0061  -15.1560 C   0  0  1  0  0  0  0  0  0  0  0  0
   22.0009   -8.2645  -16.0381 C   0  0  0  0  0  0  0  0  0  0  0  0
   21.4572   -7.0834  -16.7571 C   0  0  0  0  0  0  0  0  0  0  0  0
   22.5102   -6.4593  -17.5849 C   0  0  0  0  0  0  0  0  0  0  0  0
   23.6667   -6.9213  -17.6368 O   0  0  0  0  0  0  0  0  0  0  0  0
   20.2825   -8.1933  -14.2148 C   0  0  0  0  0  0  0  0  0  0  0  0
   20.9308   -7.5936  -13.1468 O   0  0  0  0  0  0  0  0  0  0  0  0
   22.1362   -5.3135  -18.3129 O   0  0  0  0  0  0  0  0  0  0  0  0
   19.0474   -8.0090  -14.3255 O   0  0  0  0  0  0  0  0  0  0  0  0
  2  1  1  6
  2  3  1  0
  3  4  1  0
  4  8  1  0
  4  5  2  0
  5  6  1  0
  7  6  1  0
  8  7  2  0
  9  2  1  0
  9 10  2  0
 11  9  1  0
 12 11  1  0
 12 13  1  1
 13 14  1  0
 15 12  1  0
 16 15  2  0
 17 15  1  0
 18 17  1  0
 18 23  1  0
 18 19  1  6
 20 19  1  0
 21 22  2  0
 21 20  1  0
 23 24  1  0
 25 21  1  0
 26 23  2  0
M  END
$$$$
