HCE.pdb
     RDKit          3D

 26 26  0  0  1  0  0  0  0  0999 V2000
   21.6128  -13.8439  -18.3955 N   0  0  0  0  0  0  0  0  0  0  0  0
   21.6629  -12.4745  -18.8659 C   0  0  1  0  0  0  0  0  0  0  0  0
   20.2366  -12.0797  -19.2350 C   0  0  0  0  0  0  0  0  0  0  0  0
   19.8465  -12.8293  -20.4552 C   0  0  0  0  0  0  0  0  0  0  0  0
   20.4222  -12.7420  -21.7082 C   0  0  0  0  0  0  0  0  0  0  0  0
   19.8043  -13.5729  -22.5678 N   0  0  0  0  0  0  0  0  0  0  0  0
   18.8419  -14.1853  -21.8684 C   0  0  0  0  0  0  0  0  0  0  0  0
   18.8514  -13.7535  -20.6020 N   0  0  0  0  0  0  0  0  0  0  0  0
   22.1226  -11.6166  -17.7476 C   0  0  0  0  0  0  0  0  0  0  0  0
   21.5350  -11.6558  -16.6521 O   0  0  0  0  0  0  0  0  0  0  0  0
   23.2271  -10.7243  -17.8541 N   0  0  0  0  0  0  0  0  0  0  0  0
   23.6412   -9.9129  -16.7423 C   0  0  1  0  0  0  0  0  0  0  0  0
   25.1367   -9.8210  -16.6462 C   0  0  0  0  0  0  0  0  0  0  0  0
   25.5177   -8.8171  -15.1670 S   0  0  0  0  0  0  0  0  0  0  0  0
   23.0681   -8.5452  -16.7928 C   0  0  0  0  0  0  0  0  0  0  0  0
   23.0260   -7.8421  -17.8350 O   0  0  0  0  0  0  0  0  0  0  0  0
   22.5421   -8.0222  -15.5800 N   0  0  0  0  0  0  0  0  0  0  0  0
   22.0206   -6.6945  -15.4351 C   0  0  1  0  0  0  0  0  0  0  0  0
   20.5721   -6.6430  -15.7385 C   0  0  0  0  0  0  0  0  0  0  0  0
   19.8919   -5.3316  -15.5796 C   0  0  0  0  0  0  0  0  0  0  0  0
   18.4719   -5.4411  -15.9735 C   0  0  0  0  0  0  0  0  0  0  0  0
   17.9813   -6.5140  -16.3754 O   0  0  0  0  0  0  0  0  0  0  0  0
   22.4492   -6.0170  -14.2000 C   0  0  0  0  0  0  0  0  0  0  0  0
   22.6707   -6.7792  -13.0640 O   0  0  0  0  0  0  0  0  0  0  0  0
   17.7020   -4.2665  -15.8699 O   0  0  0  0  0  0  0  0  0  0  0  0
   22.6289   -4.7791  -14.1161 O   0  0  0  0  0  0  0  0  0  0  0  0
  2  1  1  1
  2  3  1  0
  3  4  1  0
  4  8  1  0
  4  5  2  0
  5  6  1  0
  7  6  1  0
  8  7  2  0
  9  2  1  0
  9 10  2  0
 11  9  1  0
 12 11  1  0
 12 13  1  6
 13 14  1  0
 15 12  1  0
 16 15  2  0
 17 15  1  0
 18 17  1  0
 18 23  1  0
 18 19  1  1
 20 19  1  0
 21 22  2  0
 21 20  1  0
 23 24  1  0
 25 21  1  0
 26 23  2  0
M  END
$$$$
