HCE.pdb
     RDKit          3D

 26 26  0  0  1  0  0  0  0  0999 V2000
   18.0609  -13.5897  -15.6259 N   0  0  0  0  0  0  0  0  0  0  0  0
   17.1868  -12.4353  -15.6728 C   0  0  1  0  0  0  0  0  0  0  0  0
   16.0794  -12.6756  -14.6519 C   0  0  0  0  0  0  0  0  0  0  0  0
   15.2035  -13.7604  -15.1609 C   0  0  0  0  0  0  0  0  0  0  0  0
   15.0818  -15.0408  -14.6563 C   0  0  0  0  0  0  0  0  0  0  0  0
   14.1898  -15.7463  -15.3760 N   0  0  0  0  0  0  0  0  0  0  0  0
   13.7461  -14.9220  -16.3321 C   0  0  0  0  0  0  0  0  0  0  0  0
   14.3412  -13.7288  -16.2198 N   0  0  0  0  0  0  0  0  0  0  0  0
   17.9680  -11.2449  -15.2600 C   0  0  0  0  0  0  0  0  0  0  0  0
   18.7627  -11.3232  -14.3064 O   0  0  0  0  0  0  0  0  0  0  0  0
   17.8609   -9.9808  -15.9065 N   0  0  0  0  0  0  0  0  0  0  0  0
   18.6417   -8.8535  -15.4759 C   0  0  1  0  0  0  0  0  0  0  0  0
   20.1116   -9.0852  -15.6749 C   0  0  0  0  0  0  0  0  0  0  0  0
   20.2804  -10.4630  -16.8642 S   0  0  0  0  0  0  0  0  0  0  0  0
   18.2468   -7.5958  -16.1570 C   0  0  0  0  0  0  0  0  0  0  0  0
   18.1092   -7.4880  -17.4027 O   0  0  0  0  0  0  0  0  0  0  0  0
   18.0160   -6.4615  -15.3317 N   0  0  0  0  0  0  0  0  0  0  0  0
   17.6150   -5.1760  -15.8239 C   0  0  1  0  0  0  0  0  0  0  0  0
   17.0172   -4.3459  -14.7532 C   0  0  0  0  0  0  0  0  0  0  0  0
   16.6633   -2.9448  -15.0988 C   0  0  0  0  0  0  0  0  0  0  0  0
   16.0765   -2.2618  -13.9271 C   0  0  0  0  0  0  0  0  0  0  0  0
   15.9996   -2.8153  -12.8130 O   0  0  0  0  0  0  0  0  0  0  0  0
   18.6275   -4.5175  -16.6663 C   0  0  0  0  0  0  0  0  0  0  0  0
   19.9672   -4.6920  -16.3576 O   0  0  0  0  0  0  0  0  0  0  0  0
   15.6087   -0.9504  -14.1374 O   0  0  0  0  0  0  0  0  0  0  0  0
   18.3454   -3.8030  -17.6570 O   0  0  0  0  0  0  0  0  0  0  0  0
  2  1  1  1
  2  3  1  0
  3  4  1  0
  4  8  1  0
  4  5  2  0
  5  6  1  0
  7  6  1  0
  8  7  2  0
  9  2  1  0
  9 10  2  0
 11  9  1  0
 12 11  1  0
 12 13  1  6
 13 14  1  0
 15 12  1  0
 16 15  2  0
 17 15  1  0
 18 17  1  0
 18 23  1  0
 18 19  1  1
 20 19  1  0
 21 22  2  0
 21 20  1  0
 23 24  1  0
 25 21  1  0
 26 23  2  0
M  END
$$$$
