HCE.pdb
     RDKit          3D

 26 26  0  0  1  0  0  0  0  0999 V2000
   21.3910  -12.1064  -18.5851 N   0  0  0  0  0  0  0  0  0  0  0  0
   22.1951  -11.0137  -18.0768 C   0  0  1  0  0  0  0  0  0  0  0  0
   22.6392  -10.1915  -19.2822 C   0  0  0  0  0  0  0  0  0  0  0  0
   23.6609  -10.9696  -20.0264 C   0  0  0  0  0  0  0  0  0  0  0  0
   24.7534  -11.6311  -19.4994 C   0  0  0  0  0  0  0  0  0  0  0  0
   25.4575  -12.2289  -20.4782 N   0  0  0  0  0  0  0  0  0  0  0  0
   24.8188  -11.9507  -21.6207 C   0  0  0  0  0  0  0  0  0  0  0  0
   23.7411  -11.1980  -21.3707 N   0  0  0  0  0  0  0  0  0  0  0  0
   21.3367  -10.1694  -17.2119 C   0  0  0  0  0  0  0  0  0  0  0  0
   20.1864   -9.8712  -17.5794 O   0  0  0  0  0  0  0  0  0  0  0  0
   21.7606   -9.6640  -15.9500 N   0  0  0  0  0  0  0  0  0  0  0  0
   20.8954   -8.8464  -15.1444 C   0  0  1  0  0  0  0  0  0  0  0  0
   21.0313   -9.1632  -13.6831 C   0  0  0  0  0  0  0  0  0  0  0  0
   19.6306   -8.3581  -12.8281 S   0  0  0  0  0  0  0  0  0  0  0  0
   21.1264   -7.3959  -15.3554 C   0  0  0  0  0  0  0  0  0  0  0  0
   22.2664   -6.8649  -15.3783 O   0  0  0  0  0  0  0  0  0  0  0  0
   19.9763   -6.5810  -15.5401 N   0  0  0  0  0  0  0  0  0  0  0  0
   20.0199   -5.1645  -15.7579 C   0  0  1  0  0  0  0  0  0  0  0  0
   19.4345   -4.7973  -17.0676 C   0  0  0  0  0  0  0  0  0  0  0  0
   19.4538   -3.3591  -17.4401 C   0  0  0  0  0  0  0  0  0  0  0  0
   18.8725   -3.1715  -18.7856 C   0  0  0  0  0  0  0  0  0  0  0  0
   18.4749   -4.1338  -19.4707 O   0  0  0  0  0  0  0  0  0  0  0  0
   19.5732   -4.3693  -14.6019 C   0  0  0  0  0  0  0  0  0  0  0  0
   20.2862   -3.2312  -14.2602 O   0  0  0  0  0  0  0  0  0  0  0  0
   18.7915   -1.8454  -19.2524 O   0  0  0  0  0  0  0  0  0  0  0  0
   18.5748   -4.6640  -13.9033 O   0  0  0  0  0  0  0  0  0  0  0  0
  2  1  1  6
  2  3  1  0
  3  4  1  0
  4  8  1  0
  4  5  2  0
  5  6  1  0
  7  6  1  0
  8  7  2  0
  9  2  1  0
  9 10  2  0
 11  9  1  0
 12 11  1  0
 12 13  1  1
 13 14  1  0
 15 12  1  0
 16 15  2  0
 17 15  1  0
 18 17  1  0
 18 23  1  0
 18 19  1  6
 20 19  1  0
 21 22  2  0
 21 20  1  0
 23 24  1  0
 25 21  1  0
 26 23  2  0
M  END
$$$$
