HCE.pdb
     RDKit          3D

 26 26  0  0  1  0  0  0  0  0999 V2000
   16.6798  -12.1598    4.1472 N   0  0  0  0  0  0  0  0  0  0  0  0
   16.9103  -13.1696    5.1602 C   0  0  1  0  0  0  0  0  0  0  0  0
   16.6967  -14.5244    4.4929 C   0  0  0  0  0  0  0  0  0  0  0  0
   15.2361  -14.7579    4.3692 C   0  0  0  0  0  0  0  0  0  0  0  0
   14.4419  -15.5320    5.1931 C   0  0  0  0  0  0  0  0  0  0  0  0
   13.1640  -15.5074    4.7719 N   0  0  0  0  0  0  0  0  0  0  0  0
   13.1435  -14.7235    3.6876 C   0  0  0  0  0  0  0  0  0  0  0  0
   14.3742  -14.2655    3.4308 N   0  0  0  0  0  0  0  0  0  0  0  0
   18.3224  -13.0707    5.6007 C   0  0  0  0  0  0  0  0  0  0  0  0
   19.2334  -13.0026    4.7567 O   0  0  0  0  0  0  0  0  0  0  0  0
   18.7110  -13.0488    6.9704 N   0  0  0  0  0  0  0  0  0  0  0  0
   20.0865  -12.8841    7.3537 C   0  0  1  0  0  0  0  0  0  0  0  0
   20.5281  -11.4534    7.2429 C   0  0  0  0  0  0  0  0  0  0  0  0
   19.0700  -10.4130    7.6067 S   0  0  0  0  0  0  0  0  0  0  0  0
   20.3559  -13.3756    8.7275 C   0  0  0  0  0  0  0  0  0  0  0  0
   19.4567  -13.7254    9.5345 O   0  0  0  0  0  0  0  0  0  0  0  0
   21.7173  -13.4463    9.1307 N   0  0  0  0  0  0  0  0  0  0  0  0
   22.2088  -14.3192   10.1565 C   0  0  1  0  0  0  0  0  0  0  0  0
   21.6969  -15.6985    9.9883 C   0  0  0  0  0  0  0  0  0  0  0  0
   22.0541  -16.6874   11.0381 C   0  0  0  0  0  0  0  0  0  0  0  0
   21.2292  -17.9050   10.8955 C   0  0  0  0  0  0  0  0  0  0  0  0
   21.0977  -18.4864    9.8009 O   0  0  0  0  0  0  0  0  0  0  0  0
   23.6539  -14.1897   10.4079 C   0  0  0  0  0  0  0  0  0  0  0  0
   24.0897  -13.9989   11.7094 O   0  0  0  0  0  0  0  0  0  0  0  0
   20.5991  -18.3738   12.0644 O   0  0  0  0  0  0  0  0  0  0  0  0
   24.5213  -14.2443    9.5043 O   0  0  0  0  0  0  0  0  0  0  0  0
  2  1  1  6
  2  3  1  0
  3  4  1  0
  4  8  1  0
  4  5  2  0
  5  6  1  0
  7  6  1  0
  8  7  2  0
  9  2  1  0
  9 10  2  0
 11  9  1  0
 12 11  1  0
 12 13  1  1
 13 14  1  0
 15 12  1  0
 16 15  2  0
 17 15  1  0
 18 17  1  0
 18 23  1  0
 18 19  1  6
 20 19  1  0
 21 22  2  0
 21 20  1  0
 23 24  1  0
 25 21  1  0
 26 23  2  0
M  END
$$$$
