HCE.pdb
     RDKit          3D

 26 26  0  0  1  0  0  0  0  0999 V2000
   18.8439  -13.7245  -14.9428 N   0  0  0  0  0  0  0  0  0  0  0  0
   17.9238  -12.6066  -14.9939 C   0  0  1  0  0  0  0  0  0  0  0  0
   16.8266  -12.8879  -13.9725 C   0  0  0  0  0  0  0  0  0  0  0  0
   16.0359  -14.0512  -14.4463 C   0  0  0  0  0  0  0  0  0  0  0  0
   15.3365  -14.1573  -15.6331 C   0  0  0  0  0  0  0  0  0  0  0  0
   14.7406  -15.3608  -15.7210 N   0  0  0  0  0  0  0  0  0  0  0  0
   15.0577  -16.0171  -14.5989 C   0  0  0  0  0  0  0  0  0  0  0  0
   15.8323  -15.2497  -13.8234 N   0  0  0  0  0  0  0  0  0  0  0  0
   18.6562  -11.3842  -14.5849 C   0  0  0  0  0  0  0  0  0  0  0  0
   19.1022  -11.2847  -13.4281 O   0  0  0  0  0  0  0  0  0  0  0  0
   18.8865  -10.2850  -15.4603 N   0  0  0  0  0  0  0  0  0  0  0  0
   19.6794   -9.1581  -15.0511 C   0  0  1  0  0  0  0  0  0  0  0  0
   21.1431   -9.3904  -15.2912 C   0  0  0  0  0  0  0  0  0  0  0  0
   21.3263   -9.8913  -17.0394 S   0  0  0  0  0  0  0  0  0  0  0  0
   19.2662   -7.9000  -15.7205 C   0  0  0  0  0  0  0  0  0  0  0  0
   18.8573   -7.8411  -16.9086 O   0  0  0  0  0  0  0  0  0  0  0  0
   19.3459   -6.7061  -14.9530 N   0  0  0  0  0  0  0  0  0  0  0  0
   19.0336   -5.4014  -15.4591 C   0  0  1  0  0  0  0  0  0  0  0  0
   17.7726   -4.8818  -14.8824 C   0  0  0  0  0  0  0  0  0  0  0  0
   17.3083   -3.5516  -15.3543 C   0  0  0  0  0  0  0  0  0  0  0  0
   15.9973   -3.2256  -14.7554 C   0  0  0  0  0  0  0  0  0  0  0  0
   15.4374   -3.9870  -13.9428 O   0  0  0  0  0  0  0  0  0  0  0  0
   20.1768   -4.4733  -15.4613 C   0  0  0  0  0  0  0  0  0  0  0  0
   20.0978   -3.3201  -16.2256 O   0  0  0  0  0  0  0  0  0  0  0  0
   15.4142   -2.0069  -15.1526 O   0  0  0  0  0  0  0  0  0  0  0  0
   21.2268   -4.6668  -14.8042 O   0  0  0  0  0  0  0  0  0  0  0  0
  2  1  1  1
  2  3  1  0
  3  4  1  0
  4  8  1  0
  4  5  2  0
  5  6  1  0
  7  6  1  0
  8  7  2  0
  9  2  1  0
  9 10  2  0
 11  9  1  0
 12 11  1  0
 12 13  1  6
 13 14  1  0
 15 12  1  0
 16 15  2  0
 17 15  1  0
 18 17  1  0
 18 23  1  0
 18 19  1  1
 20 19  1  0
 21 22  2  0
 21 20  1  0
 23 24  1  0
 25 21  1  0
 26 23  2  0
M  END
$$$$
