HCE.pdb
     RDKit          3D

 26 26  0  0  1  0  0  0  0  0999 V2000
   23.8957  -14.6480  -19.0981 N   0  0  0  0  0  0  0  0  0  0  0  0
   24.7027  -13.5258  -19.5321 C   0  0  1  0  0  0  0  0  0  0  0  0
   24.0006  -12.9154  -20.7407 C   0  0  0  0  0  0  0  0  0  0  0  0
   24.1676  -13.8377  -21.8917 C   0  0  0  0  0  0  0  0  0  0  0  0
   25.0424  -14.9027  -21.9877 C   0  0  0  0  0  0  0  0  0  0  0  0
   24.9115  -15.5118  -23.1806 N   0  0  0  0  0  0  0  0  0  0  0  0
   23.9606  -14.8402  -23.8403 C   0  0  0  0  0  0  0  0  0  0  0  0
   23.5032  -13.8347  -23.0852 N   0  0  0  0  0  0  0  0  0  0  0  0
   24.7308  -12.5246  -18.4391 C   0  0  0  0  0  0  0  0  0  0  0  0
   23.6765  -12.2051  -17.8617 O   0  0  0  0  0  0  0  0  0  0  0  0
   25.9251  -11.8875  -17.9973 N   0  0  0  0  0  0  0  0  0  0  0  0
   25.8983  -10.8775  -16.9750 C   0  0  1  0  0  0  0  0  0  0  0  0
   27.2661  -10.6166  -16.4136 C   0  0  0  0  0  0  0  0  0  0  0  0
   27.8320  -12.1717  -15.6374 S   0  0  0  0  0  0  0  0  0  0  0  0
   25.3128   -9.6007  -17.4533 C   0  0  0  0  0  0  0  0  0  0  0  0
   25.3875   -9.1989  -18.6429 O   0  0  0  0  0  0  0  0  0  0  0  0
   24.6329   -8.8041  -16.4921 N   0  0  0  0  0  0  0  0  0  0  0  0
   23.8060   -7.6792  -16.8187 C   0  0  1  0  0  0  0  0  0  0  0  0
   22.8867   -7.9868  -17.9382 C   0  0  0  0  0  0  0  0  0  0  0  0
   21.9368   -6.9205  -18.3485 C   0  0  0  0  0  0  0  0  0  0  0  0
   20.9436   -7.4593  -19.3007 C   0  0  0  0  0  0  0  0  0  0  0  0
   20.9675   -8.6482  -19.6742 O   0  0  0  0  0  0  0  0  0  0  0  0
   23.2038   -7.0214  -15.6469 C   0  0  0  0  0  0  0  0  0  0  0  0
   22.8179   -5.6947  -15.7523 O   0  0  0  0  0  0  0  0  0  0  0  0
   19.9673   -6.5562  -19.7636 O   0  0  0  0  0  0  0  0  0  0  0  0
   23.0166   -7.5981  -14.5496 O   0  0  0  0  0  0  0  0  0  0  0  0
  2  1  1  1
  2  3  1  0
  3  4  1  0
  4  8  1  0
  4  5  2  0
  5  6  1  0
  7  6  1  0
  8  7  2  0
  9  2  1  0
  9 10  2  0
 11  9  1  0
 12 11  1  0
 12 13  1  6
 13 14  1  0
 15 12  1  0
 16 15  2  0
 17 15  1  0
 18 17  1  0
 18 23  1  0
 18 19  1  6
 20 19  1  0
 21 22  2  0
 21 20  1  0
 23 24  1  0
 25 21  1  0
 26 23  2  0
M  END
$$$$
