HCE.pdb
     RDKit          3D

 26 26  0  0  1  0  0  0  0  0999 V2000
   27.3163  -18.0818  -17.4688 N   0  0  0  0  0  0  0  0  0  0  0  0
   26.4616  -17.1617  -18.1913 C   0  0  1  0  0  0  0  0  0  0  0  0
   25.7695  -17.9663  -19.2867 C   0  0  0  0  0  0  0  0  0  0  0  0
   26.4147  -17.6400  -20.5830 C   0  0  0  0  0  0  0  0  0  0  0  0
   27.5058  -16.8178  -20.7887 C   0  0  0  0  0  0  0  0  0  0  0  0
   27.8104  -16.7604  -22.0983 N   0  0  0  0  0  0  0  0  0  0  0  0
   26.9202  -17.5402  -22.7230 C   0  0  0  0  0  0  0  0  0  0  0  0
   26.0766  -18.0754  -21.8329 N   0  0  0  0  0  0  0  0  0  0  0  0
   25.4347  -16.6486  -17.2532 C   0  0  0  0  0  0  0  0  0  0  0  0
   24.7116  -17.4440  -16.6276 O   0  0  0  0  0  0  0  0  0  0  0  0
   25.2189  -15.2609  -17.0181 N   0  0  0  0  0  0  0  0  0  0  0  0
   24.2796  -14.8086  -16.0285 C   0  0  1  0  0  0  0  0  0  0  0  0
   24.7143  -13.5179  -15.3968 C   0  0  0  0  0  0  0  0  0  0  0  0
   26.2219  -13.8769  -14.4277 S   0  0  0  0  0  0  0  0  0  0  0  0
   22.9099  -14.6497  -16.5765 C   0  0  0  0  0  0  0  0  0  0  0  0
   22.6645  -14.2250  -17.7348 O   0  0  0  0  0  0  0  0  0  0  0  0
   21.8298  -15.0051  -15.7233 N   0  0  0  0  0  0  0  0  0  0  0  0
   20.4576  -15.0476  -16.1369 C   0  0  1  0  0  0  0  0  0  0  0  0
   19.6552  -15.9391  -15.2685 C   0  0  0  0  0  0  0  0  0  0  0  0
   18.2117  -16.0807  -15.5908 C   0  0  0  0  0  0  0  0  0  0  0  0
   17.5864  -17.0858  -14.7064 C   0  0  0  0  0  0  0  0  0  0  0  0
   16.7442  -16.7702  -13.8436 O   0  0  0  0  0  0  0  0  0  0  0  0
   19.8784  -13.7234  -16.4189 C   0  0  0  0  0  0  0  0  0  0  0  0
   20.2828  -12.6421  -15.6523 O   0  0  0  0  0  0  0  0  0  0  0  0
   17.9938  -18.4211  -14.8914 O   0  0  0  0  0  0  0  0  0  0  0  0
   19.0342  -13.5152  -17.3220 O   0  0  0  0  0  0  0  0  0  0  0  0
  2  1  1  1
  2  3  1  0
  3  4  1  0
  4  8  1  0
  4  5  2  0
  5  6  1  0
  7  6  1  0
  8  7  2  0
  9  2  1  0
  9 10  2  0
 11  9  1  0
 12 11  1  0
 12 13  1  6
 13 14  1  0
 15 12  1  0
 16 15  2  0
 17 15  1  0
 18 17  1  0
 18 23  1  0
 18 19  1  1
 20 19  1  0
 21 22  2  0
 21 20  1  0
 23 24  1  0
 25 21  1  0
 26 23  2  0
M  END
$$$$
