HCE.pdb
     RDKit          3D

 26 26  0  0  1  0  0  0  0  0999 V2000
   22.2987  -12.0745  -18.2636 N   0  0  0  0  0  0  0  0  0  0  0  0
   23.0330  -10.9060  -17.8227 C   0  0  1  0  0  0  0  0  0  0  0  0
   23.4455  -10.1419  -19.0766 C   0  0  0  0  0  0  0  0  0  0  0  0
   24.5067  -10.9170  -19.7667 C   0  0  0  0  0  0  0  0  0  0  0  0
   25.8517  -10.6095  -19.8390 C   0  0  0  0  0  0  0  0  0  0  0  0
   26.5098  -11.5449  -20.5483 N   0  0  0  0  0  0  0  0  0  0  0  0
   25.5914  -12.4421  -20.9254 C   0  0  0  0  0  0  0  0  0  0  0  0
   24.3865  -12.0836  -20.4671 N   0  0  0  0  0  0  0  0  0  0  0  0
   22.1169  -10.0565  -17.0245 C   0  0  0  0  0  0  0  0  0  0  0  0
   20.9797   -9.7941  -17.4547 O   0  0  0  0  0  0  0  0  0  0  0  0
   22.4693   -9.5063  -15.7594 N   0  0  0  0  0  0  0  0  0  0  0  0
   21.5375   -8.7144  -15.0040 C   0  0  1  0  0  0  0  0  0  0  0  0
   21.7930   -8.8111  -13.5277 C   0  0  0  0  0  0  0  0  0  0  0  0
   21.5477  -10.5596  -13.0551 S   0  0  0  0  0  0  0  0  0  0  0  0
   21.5447   -7.2874  -15.4105 C   0  0  0  0  0  0  0  0  0  0  0  0
   22.4034   -6.7829  -16.1789 O   0  0  0  0  0  0  0  0  0  0  0  0
   20.5104   -6.4638  -14.8882 N   0  0  0  0  0  0  0  0  0  0  0  0
   20.1301   -5.1985  -15.4451 C   0  0  1  0  0  0  0  0  0  0  0  0
   19.9590   -5.2801  -16.9138 C   0  0  0  0  0  0  0  0  0  0  0  0
   19.5968   -4.0269  -17.6252 C   0  0  0  0  0  0  0  0  0  0  0  0
   19.8216   -4.1803  -19.0776 C   0  0  0  0  0  0  0  0  0  0  0  0
   18.9661   -4.6923  -19.8255 O   0  0  0  0  0  0  0  0  0  0  0  0
   19.0545   -4.5194  -14.7034 C   0  0  0  0  0  0  0  0  0  0  0  0
   18.0384   -5.2844  -14.1532 O   0  0  0  0  0  0  0  0  0  0  0  0
   21.0558   -3.7158  -19.5717 O   0  0  0  0  0  0  0  0  0  0  0  0
   19.0051   -3.2778  -14.5375 O   0  0  0  0  0  0  0  0  0  0  0  0
  2  1  1  6
  2  3  1  0
  3  4  1  0
  4  8  1  0
  4  5  2  0
  5  6  1  0
  7  6  1  0
  8  7  2  0
  9  2  1  0
  9 10  2  0
 11  9  1  0
 12 11  1  0
 12 13  1  1
 13 14  1  0
 15 12  1  0
 16 15  2  0
 17 15  1  0
 18 17  1  0
 18 23  1  0
 18 19  1  6
 20 19  1  0
 21 22  2  0
 21 20  1  0
 23 24  1  0
 25 21  1  0
 26 23  2  0
M  END
$$$$
