HCE.pdb
     RDKit          3D

 26 26  0  0  1  0  0  0  0  0999 V2000
   21.3724  -14.8111  -18.4697 N   0  0  0  0  0  0  0  0  0  0  0  0
   20.7235  -14.2186  -17.3178 C   0  0  1  0  0  0  0  0  0  0  0  0
   21.5578  -14.5932  -16.0972 C   0  0  0  0  0  0  0  0  0  0  0  0
   21.3518  -16.0361  -15.8168 C   0  0  0  0  0  0  0  0  0  0  0  0
   22.3034  -17.0372  -15.8512 C   0  0  0  0  0  0  0  0  0  0  0  0
   21.7489  -18.2231  -15.5389 N   0  0  0  0  0  0  0  0  0  0  0  0
   20.4536  -17.9800  -15.3073 C   0  0  0  0  0  0  0  0  0  0  0  0
   20.1967  -16.6768  -15.4686 N   0  0  0  0  0  0  0  0  0  0  0  0
   20.7470  -12.7451  -17.4794 C   0  0  0  0  0  0  0  0  0  0  0  0
   21.8004  -12.1728  -17.8106 O   0  0  0  0  0  0  0  0  0  0  0  0
   19.6045  -11.9209  -17.2722 N   0  0  0  0  0  0  0  0  0  0  0  0
   19.6546  -10.5032  -17.5041 C   0  0  1  0  0  0  0  0  0  0  0  0
   18.8810  -10.1116  -18.7298 C   0  0  0  0  0  0  0  0  0  0  0  0
   19.0911   -8.3084  -18.9423 S   0  0  0  0  0  0  0  0  0  0  0  0
   19.1637   -9.7202  -16.3433 C   0  0  0  0  0  0  0  0  0  0  0  0
   18.1444  -10.0268  -15.6730 O   0  0  0  0  0  0  0  0  0  0  0  0
   19.9061   -8.5611  -15.9881 N   0  0  0  0  0  0  0  0  0  0  0  0
   19.6182   -7.7381  -14.8499 C   0  0  1  0  0  0  0  0  0  0  0  0
   20.8418   -7.0922  -14.3222 C   0  0  0  0  0  0  0  0  0  0  0  0
   20.9605   -5.6212  -14.4942 C   0  0  0  0  0  0  0  0  0  0  0  0
   22.2089   -5.1328  -13.8726 C   0  0  0  0  0  0  0  0  0  0  0  0
   23.0059   -5.9036  -13.3032 O   0  0  0  0  0  0  0  0  0  0  0  0
   18.4477   -6.8625  -15.0279 C   0  0  0  0  0  0  0  0  0  0  0  0
   17.6680   -6.5593  -13.9231 O   0  0  0  0  0  0  0  0  0  0  0  0
   22.4500   -3.7480  -13.9584 O   0  0  0  0  0  0  0  0  0  0  0  0
   18.1135   -6.3693  -16.1309 O   0  0  0  0  0  0  0  0  0  0  0  0
  2  1  1  6
  2  3  1  0
  3  4  1  0
  4  8  1  0
  4  5  2  0
  5  6  1  0
  7  6  1  0
  8  7  2  0
  9  2  1  0
  9 10  2  0
 11  9  1  0
 12 11  1  0
 12 13  1  6
 13 14  1  0
 15 12  1  0
 16 15  2  0
 17 15  1  0
 18 17  1  0
 18 23  1  0
 18 19  1  6
 20 19  1  0
 21 22  2  0
 21 20  1  0
 23 24  1  0
 25 21  1  0
 26 23  2  0
M  END
$$$$
