HCE.pdb
     RDKit          3D

 26 26  0  0  1  0  0  0  0  0999 V2000
   24.0885  -11.2022  -16.4648 N   0  0  0  0  0  0  0  0  0  0  0  0
   24.1671   -9.7983  -16.1154 C   0  0  1  0  0  0  0  0  0  0  0  0
   24.9385   -9.1053  -17.2338 C   0  0  0  0  0  0  0  0  0  0  0  0
   26.3475   -9.5696  -17.1852 C   0  0  0  0  0  0  0  0  0  0  0  0
   27.0320  -10.2633  -18.1646 C   0  0  0  0  0  0  0  0  0  0  0  0
   28.2937  -10.5130  -17.7684 N   0  0  0  0  0  0  0  0  0  0  0  0
   28.4129   -9.9825  -16.5457 C   0  0  0  0  0  0  0  0  0  0  0  0
   27.2586   -9.4134  -16.1795 N   0  0  0  0  0  0  0  0  0  0  0  0
   22.7892   -9.2526  -16.0753 C   0  0  0  0  0  0  0  0  0  0  0  0
   21.9405   -9.6470  -16.8945 O   0  0  0  0  0  0  0  0  0  0  0  0
   22.3658   -8.2761  -15.1294 N   0  0  0  0  0  0  0  0  0  0  0  0
   20.9924   -7.8598  -15.0502 C   0  0  1  0  0  0  0  0  0  0  0  0
   20.3767   -8.2191  -13.7289 C   0  0  0  0  0  0  0  0  0  0  0  0
   20.2933  -10.0435  -13.6552 S   0  0  0  0  0  0  0  0  0  0  0  0
   20.8253   -6.4050  -15.2897 C   0  0  0  0  0  0  0  0  0  0  0  0
   21.5049   -5.5181  -14.7121 O   0  0  0  0  0  0  0  0  0  0  0  0
   19.8335   -6.0172  -16.2315 N   0  0  0  0  0  0  0  0  0  0  0  0
   19.6069   -4.6651  -16.6513 C   0  0  1  0  0  0  0  0  0  0  0  0
   19.5143   -4.5616  -18.1256 C   0  0  0  0  0  0  0  0  0  0  0  0
   20.7192   -4.9387  -18.9091 C   0  0  0  0  0  0  0  0  0  0  0  0
   20.4689   -4.7520  -20.3534 C   0  0  0  0  0  0  0  0  0  0  0  0
   19.3625   -4.3753  -20.7863 O   0  0  0  0  0  0  0  0  0  0  0  0
   18.5586   -3.9705  -15.8851 C   0  0  0  0  0  0  0  0  0  0  0  0
   17.7163   -4.7186  -15.0783 O   0  0  0  0  0  0  0  0  0  0  0  0
   21.5493   -5.0226  -21.2152 O   0  0  0  0  0  0  0  0  0  0  0  0
   18.3835   -2.7296  -15.9194 O   0  0  0  0  0  0  0  0  0  0  0  0
  2  1  1  6
  2  3  1  0
  3  4  1  0
  4  8  1  0
  4  5  2  0
  5  6  1  0
  7  6  1  0
  8  7  2  0
  9  2  1  0
  9 10  2  0
 11  9  1  0
 12 11  1  0
 12 13  1  1
 13 14  1  0
 15 12  1  0
 16 15  2  0
 17 15  1  0
 18 17  1  0
 18 23  1  0
 18 19  1  6
 20 19  1  0
 21 22  2  0
 21 20  1  0
 23 24  1  0
 25 21  1  0
 26 23  2  0
M  END
$$$$
