HCE.pdb
     RDKit          3D

 26 26  0  0  1  0  0  0  0  0999 V2000
   19.5563  -13.6108  -16.3821 N   0  0  0  0  0  0  0  0  0  0  0  0
   19.1483  -12.2506  -16.6692 C   0  0  1  0  0  0  0  0  0  0  0  0
   17.7398  -12.0822  -16.1088 C   0  0  0  0  0  0  0  0  0  0  0  0
   16.8163  -12.9258  -16.9079 C   0  0  0  0  0  0  0  0  0  0  0  0
   16.6474  -12.9106  -18.2790 C   0  0  0  0  0  0  0  0  0  0  0  0
   15.7231  -13.8164  -18.6483 N   0  0  0  0  0  0  0  0  0  0  0  0
   15.3058  -14.4047  -17.5213 C   0  0  0  0  0  0  0  0  0  0  0  0
   15.9485  -13.8851  -16.4690 N   0  0  0  0  0  0  0  0  0  0  0  0
   20.0623  -11.3308  -15.9505 C   0  0  0  0  0  0  0  0  0  0  0  0
   19.8739  -11.0828  -14.7463 O   0  0  0  0  0  0  0  0  0  0  0  0
   21.1744  -10.6951  -16.5723 N   0  0  0  0  0  0  0  0  0  0  0  0
   22.0249   -9.7959  -15.8415 C   0  0  1  0  0  0  0  0  0  0  0  0
   23.4759  -10.0270  -16.1502 C   0  0  0  0  0  0  0  0  0  0  0  0
   24.4342   -8.8497  -15.1321 S   0  0  0  0  0  0  0  0  0  0  0  0
   21.6916   -8.3715  -16.0893 C   0  0  0  0  0  0  0  0  0  0  0  0
   21.5770   -7.8690  -17.2367 O   0  0  0  0  0  0  0  0  0  0  0  0
   21.4947   -7.5481  -14.9473 N   0  0  0  0  0  0  0  0  0  0  0  0
   21.2355   -6.1391  -15.0057 C   0  0  1  0  0  0  0  0  0  0  0  0
   19.7825   -5.8536  -15.0207 C   0  0  0  0  0  0  0  0  0  0  0  0
   19.3721   -4.4279  -15.1020 C   0  0  0  0  0  0  0  0  0  0  0  0
   17.8984   -4.3198  -15.1117 C   0  0  0  0  0  0  0  0  0  0  0  0
   17.1646   -5.3271  -15.0987 O   0  0  0  0  0  0  0  0  0  0  0  0
   22.0431   -5.3447  -14.0650 C   0  0  0  0  0  0  0  0  0  0  0  0
   22.2210   -3.9934  -14.3155 O   0  0  0  0  0  0  0  0  0  0  0  0
   17.3674   -3.0158  -15.1360 O   0  0  0  0  0  0  0  0  0  0  0  0
   22.5826   -5.8240  -13.0399 O   0  0  0  0  0  0  0  0  0  0  0  0
  2  1  1  1
  2  3  1  0
  3  4  1  0
  4  8  1  0
  4  5  2  0
  5  6  1  0
  7  6  1  0
  8  7  2  0
  9  2  1  0
  9 10  2  0
 11  9  1  0
 12 11  1  0
 12 13  1  6
 13 14  1  0
 15 12  1  0
 16 15  2  0
 17 15  1  0
 18 17  1  0
 18 23  1  0
 18 19  1  1
 20 19  1  0
 21 22  2  0
 21 20  1  0
 23 24  1  0
 25 21  1  0
 26 23  2  0
M  END
$$$$
