HCE.pdb
     RDKit          3D

 26 26  0  0  1  0  0  0  0  0999 V2000
   19.4218  -14.0492  -18.3325 N   0  0  0  0  0  0  0  0  0  0  0  0
   19.6945  -13.5586  -16.9969 C   0  0  1  0  0  0  0  0  0  0  0  0
   21.2102  -13.5535  -16.8269 C   0  0  0  0  0  0  0  0  0  0  0  0
   21.6610  -14.9527  -16.6223 C   0  0  0  0  0  0  0  0  0  0  0  0
   20.8702  -16.0841  -16.5623 C   0  0  0  0  0  0  0  0  0  0  0  0
   21.6295  -17.1779  -16.3665 N   0  0  0  0  0  0  0  0  0  0  0  0
   22.8948  -16.7473  -16.3021 C   0  0  0  0  0  0  0  0  0  0  0  0
   22.9340  -15.4184  -16.4530 N   0  0  0  0  0  0  0  0  0  0  0  0
   19.1980  -12.1648  -16.9044 C   0  0  0  0  0  0  0  0  0  0  0  0
   19.6073  -11.3049  -17.7045 O   0  0  0  0  0  0  0  0  0  0  0  0
   18.2543  -11.7376  -15.9274 N   0  0  0  0  0  0  0  0  0  0  0  0
   17.7337  -10.3978  -15.9279 C   0  0  1  0  0  0  0  0  0  0  0  0
   16.2390  -10.3810  -15.7875 C   0  0  0  0  0  0  0  0  0  0  0  0
   15.5596  -11.3570  -17.1755 S   0  0  0  0  0  0  0  0  0  0  0  0
   18.3357   -9.5543  -14.8660 C   0  0  0  0  0  0  0  0  0  0  0  0
   18.5370   -9.9490  -13.6888 O   0  0  0  0  0  0  0  0  0  0  0  0
   18.6975   -8.2273  -15.2255 N   0  0  0  0  0  0  0  0  0  0  0  0
   19.3724   -7.3122  -14.3520 C   0  0  1  0  0  0  0  0  0  0  0  0
   20.4445   -6.5755  -15.0595 C   0  0  0  0  0  0  0  0  0  0  0  0
   21.2204   -5.5837  -14.2708 C   0  0  0  0  0  0  0  0  0  0  0  0
   22.2140   -4.9098  -15.1323 C   0  0  0  0  0  0  0  0  0  0  0  0
   22.3938   -5.2482  -16.3183 O   0  0  0  0  0  0  0  0  0  0  0  0
   18.4657   -6.5005  -13.5229 C   0  0  0  0  0  0  0  0  0  0  0  0
   17.2455   -6.1127  -14.0531 O   0  0  0  0  0  0  0  0  0  0  0  0
   22.9472   -3.8634  -14.5405 O   0  0  0  0  0  0  0  0  0  0  0  0
   18.7353   -6.1380  -12.3535 O   0  0  0  0  0  0  0  0  0  0  0  0
  2  1  1  6
  2  3  1  0
  3  4  1  0
  4  8  1  0
  4  5  2  0
  5  6  1  0
  7  6  1  0
  8  7  2  0
  9  2  1  0
  9 10  2  0
 11  9  1  0
 12 11  1  0
 12 13  1  1
 13 14  1  0
 15 12  1  0
 16 15  2  0
 17 15  1  0
 18 17  1  0
 18 23  1  0
 18 19  1  6
 20 19  1  0
 21 22  2  0
 21 20  1  0
 23 24  1  0
 25 21  1  0
 26 23  2  0
M  END
$$$$
