HCE.pdb
     RDKit          3D

 26 26  0  0  1  0  0  0  0  0999 V2000
   16.2532  -24.9676   -4.2413 N   0  0  0  0  0  0  0  0  0  0  0  0
   15.7670  -25.7662   -3.1346 C   0  0  1  0  0  0  0  0  0  0  0  0
   16.2868  -27.1840   -3.3485 C   0  0  0  0  0  0  0  0  0  0  0  0
   15.5892  -27.7639   -4.5233 C   0  0  0  0  0  0  0  0  0  0  0  0
   16.1451  -28.0968   -5.7436 C   0  0  0  0  0  0  0  0  0  0  0  0
   15.2057  -28.5990   -6.5662 N   0  0  0  0  0  0  0  0  0  0  0  0
   14.0596  -28.5864   -5.8757 C   0  0  0  0  0  0  0  0  0  0  0  0
   14.2689  -28.0901   -4.6509 N   0  0  0  0  0  0  0  0  0  0  0  0
   16.3495  -25.2269   -1.8824 C   0  0  0  0  0  0  0  0  0  0  0  0
   17.5745  -25.3058   -1.6826 O   0  0  0  0  0  0  0  0  0  0  0  0
   15.5699  -24.6068   -0.8650 N   0  0  0  0  0  0  0  0  0  0  0  0
   16.1740  -24.1149    0.3429 C   0  0  1  0  0  0  0  0  0  0  0  0
   15.4853  -22.8798    0.8472 C   0  0  0  0  0  0  0  0  0  0  0  0
   16.0185  -21.4954   -0.2206 S   0  0  0  0  0  0  0  0  0  0  0  0
   16.2023  -25.1351    1.4199 C   0  0  0  0  0  0  0  0  0  0  0  0
   15.2039  -25.8196    1.7618 O   0  0  0  0  0  0  0  0  0  0  0  0
   17.4415  -25.3317    2.0883 N   0  0  0  0  0  0  0  0  0  0  0  0
   17.6466  -26.2843    3.1401 C   0  0  1  0  0  0  0  0  0  0  0  0
   18.5048  -27.4069    2.6973 C   0  0  0  0  0  0  0  0  0  0  0  0
   18.7675  -28.4890    3.6810 C   0  0  0  0  0  0  0  0  0  0  0  0
   19.7354  -29.4589    3.1279 C   0  0  0  0  0  0  0  0  0  0  0  0
   19.3718  -30.4308    2.4375 O   0  0  0  0  0  0  0  0  0  0  0  0
   17.9910  -25.6766    4.4364 C   0  0  0  0  0  0  0  0  0  0  0  0
   18.5181  -24.3951    4.4527 O   0  0  0  0  0  0  0  0  0  0  0  0
   21.0924  -29.2255    3.4230 O   0  0  0  0  0  0  0  0  0  0  0  0
   17.8318  -26.2561    5.5366 O   0  0  0  0  0  0  0  0  0  0  0  0
  2  1  1  6
  2  3  1  0
  3  4  1  0
  4  8  1  0
  4  5  2  0
  5  6  1  0
  7  6  1  0
  8  7  2  0
  9  2  1  0
  9 10  2  0
 11  9  1  0
 12 11  1  0
 12 13  1  1
 13 14  1  0
 15 12  1  0
 16 15  2  0
 17 15  1  0
 18 17  1  0
 18 23  1  0
 18 19  1  6
 20 19  1  0
 21 22  2  0
 21 20  1  0
 23 24  1  0
 25 21  1  0
 26 23  2  0
M  END
$$$$
