NPE.pdb
     RDKit          3D

 25 25  0  0  1  0  0  0  0  0999 V2000
    7.4421  -17.3350   16.1058 N   0  0  0  0  0  0  0  0  0  0  0  0
    8.3275  -16.2368   16.0044 C   0  0  0  0  0  0  0  0  0  0  0  0
    8.4852  -15.6436   14.9213 O   0  0  0  0  0  0  0  0  0  0  0  0
    9.0580  -15.8171   17.2231 C   0  0  0  0  0  0  0  0  0  0  0  0
    8.3802  -14.5779   17.7949 C   0  0  2  0  0  0  0  0  0  0  0  0
    8.4601  -13.5063   16.8513 N   0  0  0  0  0  0  0  0  0  0  0  0
    9.0180  -14.2888   19.0826 C   0  0  0  0  0  0  0  0  0  0  0  0
   10.2051  -13.8477   19.0382 O   0  0  0  0  0  0  0  0  0  0  0  0
    8.4048  -14.4673   20.3569 N   0  0  0  0  0  0  0  0  0  0  0  0
    7.0365  -14.9567   20.4625 C   0  0  0  0  0  0  0  0  0  0  0  0
    6.6189  -14.7245   21.8750 C   0  0  0  0  0  0  0  0  0  0  0  0
    7.6771  -13.7847   22.4494 C   0  0  0  0  0  0  0  0  0  0  0  0
    8.9053  -14.2529   21.6674 C   0  0  1  0  0  0  0  0  0  0  0  0
    9.4781  -15.4780   22.2639 C   0  0  0  0  0  0  0  0  0  0  0  0
    9.0596  -16.6299   21.9270 O   0  0  0  0  0  0  0  0  0  0  0  0
   10.4947  -15.4126   23.2145 N   0  0  0  0  0  0  0  0  0  0  0  0
   11.4171  -16.5428   23.4158 C   0  0  1  0  0  0  0  0  0  0  0  0
   12.8291  -16.0964   23.2271 C   0  0  0  0  0  0  0  0  0  0  0  0
   13.8218  -17.1669   23.5144 C   0  0  0  0  0  0  0  0  0  0  0  0
   15.2260  -16.6595   23.2725 C   0  0  0  0  0  0  0  0  0  0  0  0
   15.3379  -15.5115   22.8122 O   0  0  0  0  0  0  0  0  0  0  0  0
   11.2063  -17.1535   24.7382 C   0  0  0  0  0  0  0  0  0  0  0  0
   11.7688  -18.2646   24.9734 O   0  0  0  0  0  0  0  0  0  0  0  0
   16.3295  -17.4418   23.5522 O   0  0  0  0  0  0  0  0  0  0  0  0
   10.4433  -16.5897   25.7235 O   0  0  0  0  0  0  0  0  0  0  0  0
  1  2  1  0
  2  3  2  0
  4  2  1  0
  5  4  1  0
  5  6  1  6
  7  5  1  0
  8  7  2  0
  9  7  1  0
  9 13  1  0
 10  9  1  0
 11 12  1  0
 11 10  1  0
 12 13  1  0
 13 14  1  1
 14 15  2  0
 16 14  1  0
 16 17  1  0
 17 22  1  0
 17 18  1  1
 19 18  1  0
 20 21  2  0
 20 19  1  0
 22 23  2  0
 22 25  1  0
 24 20  1  0
M  END
$$$$
