NPE.pdb
     RDKit          3D

 25 25  0  0  1  0  0  0  0  0999 V2000
    8.0297  -18.3472   14.1569 N   0  0  0  0  0  0  0  0  0  0  0  0
    7.6082  -17.0969   14.6661 C   0  0  0  0  0  0  0  0  0  0  0  0
    6.6638  -16.4803   14.1392 O   0  0  0  0  0  0  0  0  0  0  0  0
    8.3235  -16.5472   15.8413 C   0  0  0  0  0  0  0  0  0  0  0  0
    8.6594  -15.0862   15.5677 C   0  0  2  0  0  0  0  0  0  0  0  0
    9.3531  -14.9765   14.3219 N   0  0  0  0  0  0  0  0  0  0  0  0
    9.4187  -14.5917   16.7198 C   0  0  0  0  0  0  0  0  0  0  0  0
   10.6803  -14.5791   16.6012 O   0  0  0  0  0  0  0  0  0  0  0  0
    8.8448  -14.1332   17.9412 N   0  0  0  0  0  0  0  0  0  0  0  0
    7.4042  -14.1874   18.1532 C   0  0  0  0  0  0  0  0  0  0  0  0
    7.1298  -13.3599   19.3630 C   0  0  0  0  0  0  0  0  0  0  0  0
    8.4183  -12.5762   19.6049 C   0  0  0  0  0  0  0  0  0  0  0  0
    9.4479  -13.5910   19.1058 C   0  0  1  0  0  0  0  0  0  0  0  0
    9.7218  -14.6173   20.1335 C   0  0  0  0  0  0  0  0  0  0  0  0
    8.9350  -15.6006   20.3057 O   0  0  0  0  0  0  0  0  0  0  0  0
   10.8500  -14.5426   20.9479 N   0  0  0  0  0  0  0  0  0  0  0  0
   11.4709  -15.7605   21.4954 C   0  0  1  0  0  0  0  0  0  0  0  0
   12.8919  -15.8608   21.0491 C   0  0  0  0  0  0  0  0  0  0  0  0
   13.6953  -14.6551   21.3879 C   0  0  0  0  0  0  0  0  0  0  0  0
   15.1248  -14.8297   20.9256 C   0  0  0  0  0  0  0  0  0  0  0  0
   15.8868  -13.8606   21.0751 O   0  0  0  0  0  0  0  0  0  0  0  0
   11.3528  -15.7868   22.9622 C   0  0  0  0  0  0  0  0  0  0  0  0
   10.8891  -14.7569   23.5372 O   0  0  0  0  0  0  0  0  0  0  0  0
   15.5570  -16.0150   20.3631 O   0  0  0  0  0  0  0  0  0  0  0  0
   11.7112  -16.8568   23.7352 O   0  0  0  0  0  0  0  0  0  0  0  0
  1  2  1  0
  2  3  2  0
  4  2  1  0
  5  4  1  0
  5  6  1  6
  7  5  1  0
  8  7  2  0
  9  7  1  0
  9 13  1  0
 10  9  1  0
 11 12  1  0
 11 10  1  0
 12 13  1  0
 13 14  1  1
 14 15  2  0
 16 14  1  0
 16 17  1  0
 17 22  1  0
 17 18  1  1
 19 18  1  0
 20 21  2  0
 20 19  1  0
 22 23  2  0
 22 25  1  0
 24 20  1  0
M  END
$$$$
