NPE.pdb
     RDKit          3D

 25 25  0  0  1  0  0  0  0  0999 V2000
    8.5388  -18.6053   17.6814 N   0  0  0  0  0  0  0  0  0  0  0  0
    7.1961  -18.3796   18.0639 C   0  0  0  0  0  0  0  0  0  0  0  0
    6.5262  -19.2818   18.5997 O   0  0  0  0  0  0  0  0  0  0  0  0
    6.6151  -17.0411   17.8075 C   0  0  0  0  0  0  0  0  0  0  0  0
    7.6884  -16.1547   17.1875 C   0  0  2  0  0  0  0  0  0  0  0  0
    8.3419  -16.8587   16.1280 N   0  0  0  0  0  0  0  0  0  0  0  0
    8.5851  -15.7368   18.2691 C   0  0  0  0  0  0  0  0  0  0  0  0
    9.7408  -16.2566   18.2769 O   0  0  0  0  0  0  0  0  0  0  0  0
    8.2511  -14.8035   19.2933 N   0  0  0  0  0  0  0  0  0  0  0  0
    6.8893  -14.3035   19.4293 C   0  0  0  0  0  0  0  0  0  0  0  0
    6.9629  -13.1430   20.3629 C   0  0  0  0  0  0  0  0  0  0  0  0
    8.4508  -12.8131   20.4647 C   0  0  0  0  0  0  0  0  0  0  0  0
    9.0478  -14.2125   20.3081 C   0  0  1  0  0  0  0  0  0  0  0  0
    8.9898  -14.9591   21.5824 C   0  0  0  0  0  0  0  0  0  0  0  0
    7.9088  -15.4965   21.9800 O   0  0  0  0  0  0  0  0  0  0  0  0
   10.1162  -15.0995   22.3905 N   0  0  0  0  0  0  0  0  0  0  0  0
   10.2698  -16.2628   23.2802 C   0  0  1  0  0  0  0  0  0  0  0  0
   11.6408  -16.8380   23.1457 C   0  0  0  0  0  0  0  0  0  0  0  0
   12.7159  -15.8176   23.2756 C   0  0  0  0  0  0  0  0  0  0  0  0
   14.0754  -16.4683   23.1500 C   0  0  0  0  0  0  0  0  0  0  0  0
   14.7781  -16.5055   24.1733 O   0  0  0  0  0  0  0  0  0  0  0  0
    9.9631  -15.8940   24.6717 C   0  0  0  0  0  0  0  0  0  0  0  0
    9.7520  -14.6707   24.9269 O   0  0  0  0  0  0  0  0  0  0  0  0
   14.5104  -16.9951   21.9494 O   0  0  0  0  0  0  0  0  0  0  0  0
    9.8907  -16.7942   25.6989 O   0  0  0  0  0  0  0  0  0  0  0  0
  1  2  1  0
  2  3  2  0
  4  2  1  0
  5  4  1  0
  5  6  1  6
  7  5  1  0
  8  7  2  0
  9  7  1  0
  9 13  1  0
 10  9  1  0
 11 12  1  0
 11 10  1  0
 12 13  1  0
 13 14  1  1
 14 15  2  0
 16 14  1  0
 16 17  1  0
 17 22  1  0
 17 18  1  1
 19 18  1  0
 20 21  2  0
 20 19  1  0
 22 23  2  0
 22 25  1  0
 24 20  1  0
M  END
$$$$
