NPE.pdb
     RDKit          3D

 25 25  0  0  1  0  0  0  0  0999 V2000
    8.0943  -17.5844   21.7800 N   0  0  0  0  0  0  0  0  0  0  0  0
    6.9587  -16.7850   21.5121 C   0  0  0  0  0  0  0  0  0  0  0  0
    6.3491  -16.8864   20.4315 O   0  0  0  0  0  0  0  0  0  0  0  0
    6.5203  -15.8276   22.5542 C   0  0  0  0  0  0  0  0  0  0  0  0
    7.0919  -14.4538   22.2252 C   0  0  2  0  0  0  0  0  0  0  0  0
    7.5675  -14.4402   20.8766 N   0  0  0  0  0  0  0  0  0  0  0  0
    8.1228  -14.1612   23.2252 C   0  0  0  0  0  0  0  0  0  0  0  0
    9.3234  -14.1792   22.8202 O   0  0  0  0  0  0  0  0  0  0  0  0
    7.8708  -13.8639   24.5963 N   0  0  0  0  0  0  0  0  0  0  0  0
    6.5172  -13.9172   25.1328 C   0  0  0  0  0  0  0  0  0  0  0  0
    6.5728  -13.2591   26.4697 C   0  0  0  0  0  0  0  0  0  0  0  0
    7.9215  -12.5428   26.5005 C   0  0  0  0  0  0  0  0  0  0  0  0
    8.7538  -13.5000   25.6459 C   0  0  1  0  0  0  0  0  0  0  0  0
    9.2033  -14.6637   26.4386 C   0  0  0  0  0  0  0  0  0  0  0  0
    8.3996  -15.5992   26.7456 O   0  0  0  0  0  0  0  0  0  0  0  0
   10.5215  -14.7752   26.8763 N   0  0  0  0  0  0  0  0  0  0  0  0
   11.0562  -16.0633   27.3490 C   0  0  1  0  0  0  0  0  0  0  0  0
   12.4664  -16.2361   26.8909 C   0  0  0  0  0  0  0  0  0  0  0  0
   12.6106  -16.1695   25.4114 C   0  0  0  0  0  0  0  0  0  0  0  0
   14.0689  -16.2621   25.0212 C   0  0  0  0  0  0  0  0  0  0  0  0
   14.8968  -16.3100   25.9457 O   0  0  0  0  0  0  0  0  0  0  0  0
   10.9376  -16.1670   28.8124 C   0  0  0  0  0  0  0  0  0  0  0  0
   10.5728  -15.1349   29.4512 O   0  0  0  0  0  0  0  0  0  0  0  0
   14.4563  -16.2914   23.6957 O   0  0  0  0  0  0  0  0  0  0  0  0
   11.1950  -17.3106   29.5172 O   0  0  0  0  0  0  0  0  0  0  0  0
  1  2  1  0
  2  3  2  0
  4  2  1  0
  5  4  1  0
  5  6  1  6
  7  5  1  0
  8  7  2  0
  9  7  1  0
  9 13  1  0
 10  9  1  0
 11 12  1  0
 11 10  1  0
 12 13  1  0
 13 14  1  1
 14 15  2  0
 16 14  1  0
 16 17  1  0
 17 22  1  0
 17 18  1  1
 19 18  1  0
 20 21  2  0
 20 19  1  0
 22 23  2  0
 22 25  1  0
 24 20  1  0
M  END
$$$$
