NPE.pdb
     RDKit          3D

 25 25  0  0  1  0  0  0  0  0999 V2000
    8.0705  -14.4668   15.2195 N   0  0  0  0  0  0  0  0  0  0  0  0
    8.2888  -15.7067   15.8637 C   0  0  0  0  0  0  0  0  0  0  0  0
    8.4303  -16.7519   15.2024 O   0  0  0  0  0  0  0  0  0  0  0  0
    8.3435  -15.7216   17.3442 C   0  0  0  0  0  0  0  0  0  0  0  0
    8.1107  -14.3047   17.8545 C   0  0  2  0  0  0  0  0  0  0  0  0
    8.4919  -13.3617   16.8492 N   0  0  0  0  0  0  0  0  0  0  0  0
    8.8508  -14.1687   19.1124 C   0  0  0  0  0  0  0  0  0  0  0  0
   10.0298  -13.7121   19.0271 O   0  0  0  0  0  0  0  0  0  0  0  0
    8.3437  -14.5093   20.4002 N   0  0  0  0  0  0  0  0  0  0  0  0
    7.0439  -15.1523   20.5420 C   0  0  0  0  0  0  0  0  0  0  0  0
    6.6967  -15.0750   21.9902 C   0  0  0  0  0  0  0  0  0  0  0  0
    7.6857  -14.0710   22.5793 C   0  0  0  0  0  0  0  0  0  0  0  0
    8.9029  -14.3412   21.6936 C   0  0  1  0  0  0  0  0  0  0  0  0
    9.6383  -15.5379   22.1540 C   0  0  0  0  0  0  0  0  0  0  0  0
    9.2874  -16.7043   21.7910 O   0  0  0  0  0  0  0  0  0  0  0  0
   10.7396  -15.4288   23.0006 N   0  0  0  0  0  0  0  0  0  0  0  0
   11.6801  -16.5496   23.1679 C   0  0  1  0  0  0  0  0  0  0  0  0
   13.0815  -16.0844   22.9488 C   0  0  0  0  0  0  0  0  0  0  0  0
   14.0926  -17.1507   23.1824 C   0  0  0  0  0  0  0  0  0  0  0  0
   15.4763  -16.6471   22.8371 C   0  0  0  0  0  0  0  0  0  0  0  0
   15.8084  -15.5470   23.3079 O   0  0  0  0  0  0  0  0  0  0  0  0
   11.5095  -17.1753   24.4891 C   0  0  0  0  0  0  0  0  0  0  0  0
   12.1492  -18.2437   24.7251 O   0  0  0  0  0  0  0  0  0  0  0  0
   16.3272  -17.3815   22.0342 O   0  0  0  0  0  0  0  0  0  0  0  0
   10.7051  -16.6686   25.4726 O   0  0  0  0  0  0  0  0  0  0  0  0
  1  2  1  0
  2  3  2  0
  4  2  1  0
  5  4  1  0
  5  6  1  6
  7  5  1  0
  8  7  2  0
  9  7  1  0
  9 13  1  0
 10  9  1  0
 11 12  1  0
 11 10  1  0
 12 13  1  0
 13 14  1  1
 14 15  2  0
 16 14  1  0
 16 17  1  0
 17 22  1  0
 17 18  1  1
 19 18  1  0
 20 21  2  0
 20 19  1  0
 22 23  2  0
 22 25  1  0
 24 20  1  0
M  END
$$$$
