NPE.pdb
     RDKit          3D

 25 25  0  0  1  0  0  0  0  0999 V2000
    6.7248  -17.0449   20.2615 N   0  0  0  0  0  0  0  0  0  0  0  0
    6.2498  -16.4240   21.4401 C   0  0  0  0  0  0  0  0  0  0  0  0
    5.0414  -16.1579   21.5772 O   0  0  0  0  0  0  0  0  0  0  0  0
    7.2321  -16.1020   22.5014 C   0  0  0  0  0  0  0  0  0  0  0  0
    7.6220  -14.6343   22.3752 C   0  0  2  0  0  0  0  0  0  0  0  0
    8.1553  -14.3877   21.0714 N   0  0  0  0  0  0  0  0  0  0  0  0
    8.5530  -14.3364   23.4675 C   0  0  0  0  0  0  0  0  0  0  0  0
    9.7856  -14.4887   23.2160 O   0  0  0  0  0  0  0  0  0  0  0  0
    8.1726  -13.8960   24.7686 N   0  0  0  0  0  0  0  0  0  0  0  0
    6.7790  -13.6038   25.0776 C   0  0  0  0  0  0  0  0  0  0  0  0
    6.7838  -12.8849   26.3841 C   0  0  0  0  0  0  0  0  0  0  0  0
    8.2422  -12.4928   26.6126 C   0  0  0  0  0  0  0  0  0  0  0  0
    8.9463  -13.6704   25.9367 C   0  0  1  0  0  0  0  0  0  0  0  0
    8.9841  -14.8482   26.8288 C   0  0  0  0  0  0  0  0  0  0  0  0
    7.9276  -15.5006   27.1003 O   0  0  0  0  0  0  0  0  0  0  0  0
   10.1772  -15.2834   27.4023 N   0  0  0  0  0  0  0  0  0  0  0  0
   10.2557  -16.5808   28.0946 C   0  0  1  0  0  0  0  0  0  0  0  0
   11.4251  -17.3625   27.5948 C   0  0  0  0  0  0  0  0  0  0  0  0
   11.3272  -17.6964   26.1481 C   0  0  0  0  0  0  0  0  0  0  0  0
   12.5517  -18.4643   25.7024 C   0  0  0  0  0  0  0  0  0  0  0  0
   13.4293  -18.6690   26.5569 O   0  0  0  0  0  0  0  0  0  0  0  0
   10.3075  -16.3868   29.5526 C   0  0  0  0  0  0  0  0  0  0  0  0
   10.4187  -15.2019   29.9885 O   0  0  0  0  0  0  0  0  0  0  0  0
   12.6823  -18.9146   24.4031 O   0  0  0  0  0  0  0  0  0  0  0  0
   10.2395  -17.4090   30.4589 O   0  0  0  0  0  0  0  0  0  0  0  0
  1  2  1  0
  2  3  2  0
  4  2  1  0
  5  4  1  0
  5  6  1  6
  7  5  1  0
  8  7  2  0
  9  7  1  0
  9 13  1  0
 10  9  1  0
 11 12  1  0
 11 10  1  0
 12 13  1  0
 13 14  1  1
 14 15  2  0
 16 14  1  0
 16 17  1  0
 17 22  1  0
 17 18  1  6
 19 18  1  0
 20 21  2  0
 20 19  1  0
 22 23  2  0
 22 25  1  0
 24 20  1  0
M  END
$$$$
