NPE.pdb
     RDKit          3D

 25 25  0  0  1  0  0  0  0  0999 V2000
    9.9041  -17.2882   15.5100 N   0  0  0  0  0  0  0  0  0  0  0  0
    8.6909  -17.4982   16.2059 C   0  0  0  0  0  0  0  0  0  0  0  0
    8.4026  -18.6213   16.6589 O   0  0  0  0  0  0  0  0  0  0  0  0
    7.7785  -16.3436   16.3777 C   0  0  0  0  0  0  0  0  0  0  0  0
    8.4850  -15.0867   15.8844 C   0  0  2  0  0  0  0  0  0  0  0  0
    9.1079  -15.3474   14.6237 N   0  0  0  0  0  0  0  0  0  0  0  0
    9.4169  -14.6707   16.9365 C   0  0  0  0  0  0  0  0  0  0  0  0
   10.6509  -14.8167   16.6877 O   0  0  0  0  0  0  0  0  0  0  0  0
    9.0361  -14.1240   18.1965 N   0  0  0  0  0  0  0  0  0  0  0  0
    7.6335  -14.0558   18.5850 C   0  0  0  0  0  0  0  0  0  0  0  0
    7.5749  -13.1657   19.7799 C   0  0  0  0  0  0  0  0  0  0  0  0
    8.9383  -12.4786   19.8266 C   0  0  0  0  0  0  0  0  0  0  0  0
    9.8190  -13.5896   19.2526 C   0  0  1  0  0  0  0  0  0  0  0  0
   10.1423  -14.5964   20.2853 C   0  0  0  0  0  0  0  0  0  0  0  0
    9.2951  -15.4790   20.6300 O   0  0  0  0  0  0  0  0  0  0  0  0
   11.3849  -14.6128   20.9157 N   0  0  0  0  0  0  0  0  0  0  0  0
   11.9607  -15.8701   21.4219 C   0  0  1  0  0  0  0  0  0  0  0  0
   13.3873  -15.9914   20.9993 C   0  0  0  0  0  0  0  0  0  0  0  0
   14.2392  -14.8780   21.4978 C   0  0  0  0  0  0  0  0  0  0  0  0
   15.6616  -15.0471   21.0122 C   0  0  0  0  0  0  0  0  0  0  0  0
   15.9336  -16.1077   20.4261 O   0  0  0  0  0  0  0  0  0  0  0  0
   11.8118  -15.9557   22.8837 C   0  0  0  0  0  0  0  0  0  0  0  0
   12.1516  -17.0370   23.4509 O   0  0  0  0  0  0  0  0  0  0  0  0
   16.6103  -14.0638   21.2145 O   0  0  0  0  0  0  0  0  0  0  0  0
   11.3325  -14.9370   23.6604 O   0  0  0  0  0  0  0  0  0  0  0  0
  1  2  1  0
  2  3  2  0
  4  2  1  0
  5  4  1  0
  5  6  1  6
  7  5  1  0
  8  7  2  0
  9  7  1  0
  9 13  1  0
 10  9  1  0
 11 12  1  0
 11 10  1  0
 12 13  1  0
 13 14  1  1
 14 15  2  0
 16 14  1  0
 16 17  1  0
 17 22  1  0
 17 18  1  1
 19 18  1  0
 20 21  2  0
 20 19  1  0
 22 23  2  0
 22 25  1  0
 24 20  1  0
M  END
$$$$
