NPE.pdb
     RDKit          3D

 25 25  0  0  1  0  0  0  0  0999 V2000
    7.2420  -18.8571   14.9505 N   0  0  0  0  0  0  0  0  0  0  0  0
    6.8964  -17.6987   15.6846 C   0  0  0  0  0  0  0  0  0  0  0  0
    5.8409  -17.0838   15.4444 O   0  0  0  0  0  0  0  0  0  0  0  0
    7.8267  -17.2426   16.7436 C   0  0  0  0  0  0  0  0  0  0  0  0
    8.4271  -15.9069   16.3225 C   0  0  2  0  0  0  0  0  0  0  0  0
    9.1259  -16.0616   15.0843 N   0  0  0  0  0  0  0  0  0  0  0  0
    9.2681  -15.4403   17.4286 C   0  0  0  0  0  0  0  0  0  0  0  0
   10.4892  -15.7766   17.3902 O   0  0  0  0  0  0  0  0  0  0  0  0
    8.8135  -14.6493   18.5238 N   0  0  0  0  0  0  0  0  0  0  0  0
    7.3994  -14.3333   18.6773 C   0  0  0  0  0  0  0  0  0  0  0  0
    7.3221  -13.2601   19.7097 C   0  0  0  0  0  0  0  0  0  0  0  0
    8.7571  -12.7613   19.8678 C   0  0  0  0  0  0  0  0  0  0  0  0
    9.5232  -14.0579   19.6010 C   0  0  1  0  0  0  0  0  0  0  0  0
    9.5477  -14.9162   20.8040 C   0  0  0  0  0  0  0  0  0  0  0  0
    8.4822  -15.4376   21.2605 O   0  0  0  0  0  0  0  0  0  0  0  0
   10.7376  -15.1829   21.4783 N   0  0  0  0  0  0  0  0  0  0  0  0
   10.8468  -16.3282   22.3975 C   0  0  1  0  0  0  0  0  0  0  0  0
   11.3827  -17.5200   21.6757 C   0  0  0  0  0  0  0  0  0  0  0  0
   12.6696  -17.2493   20.9795 C   0  0  0  0  0  0  0  0  0  0  0  0
   13.1689  -18.5013   20.2933 C   0  0  0  0  0  0  0  0  0  0  0  0
   12.4831  -19.5279   20.4274 O   0  0  0  0  0  0  0  0  0  0  0  0
   11.6706  -15.9774   23.5656 C   0  0  0  0  0  0  0  0  0  0  0  0
   12.2871  -14.8702   23.5440 O   0  0  0  0  0  0  0  0  0  0  0  0
   14.3350  -18.4970   19.5530 O   0  0  0  0  0  0  0  0  0  0  0  0
   11.8048  -16.7746   24.6689 O   0  0  0  0  0  0  0  0  0  0  0  0
  1  2  1  0
  2  3  2  0
  4  2  1  0
  5  4  1  0
  5  6  1  6
  7  5  1  0
  8  7  2  0
  9  7  1  0
  9 13  1  0
 10  9  1  0
 11 12  1  0
 11 10  1  0
 12 13  1  0
 13 14  1  1
 14 15  2  0
 16 14  1  0
 16 17  1  0
 17 22  1  0
 17 18  1  6
 19 18  1  0
 20 21  2  0
 20 19  1  0
 22 23  2  0
 22 25  1  0
 24 20  1  0
M  END
$$$$
