NPE.pdb
     RDKit          3D

 25 25  0  0  1  0  0  0  0  0999 V2000
    6.9855  -13.4473   18.2547 N   0  0  0  0  0  0  0  0  0  0  0  0
    7.2514  -14.5924   19.0410 C   0  0  0  0  0  0  0  0  0  0  0  0
    7.6166  -15.6581   18.5112 O   0  0  0  0  0  0  0  0  0  0  0  0
    7.0820  -14.4833   20.5088 C   0  0  0  0  0  0  0  0  0  0  0  0
    7.8374  -13.2528   20.9962 C   0  0  2  0  0  0  0  0  0  0  0  0
    8.7394  -12.8072   19.9799 N   0  0  0  0  0  0  0  0  0  0  0  0
    8.4905  -13.6151   22.2575 C   0  0  0  0  0  0  0  0  0  0  0  0
    9.7386  -13.8277   22.2062 O   0  0  0  0  0  0  0  0  0  0  0  0
    7.8289  -13.7423   23.5136 N   0  0  0  0  0  0  0  0  0  0  0  0
    6.3806  -13.6136   23.6083 C   0  0  0  0  0  0  0  0  0  0  0  0
    6.0680  -13.4846   25.0606 C   0  0  0  0  0  0  0  0  0  0  0  0
    7.4122  -13.2043   25.7296 C   0  0  0  0  0  0  0  0  0  0  0  0
    8.3406  -14.0009   24.8116 C   0  0  1  0  0  0  0  0  0  0  0  0
    8.3189  -15.4386   25.1543 C   0  0  0  0  0  0  0  0  0  0  0  0
    7.2894  -16.1507   24.9341 O   0  0  0  0  0  0  0  0  0  0  0  0
    9.4244  -16.0618   25.7297 N   0  0  0  0  0  0  0  0  0  0  0  0
    9.4637  -17.5234   25.9050 C   0  0  1  0  0  0  0  0  0  0  0  0
   10.3036  -18.1484   24.8409 C   0  0  0  0  0  0  0  0  0  0  0  0
   11.6633  -17.5517   24.7465 C   0  0  0  0  0  0  0  0  0  0  0  0
   12.4568  -18.2241   23.6484 C   0  0  0  0  0  0  0  0  0  0  0  0
   11.9205  -19.1865   23.0752 O   0  0  0  0  0  0  0  0  0  0  0  0
    9.9390  -17.8701   27.2542 C   0  0  0  0  0  0  0  0  0  0  0  0
   10.3488  -16.9288   27.9973 O   0  0  0  0  0  0  0  0  0  0  0  0
   13.7198  -17.7839   23.3034 O   0  0  0  0  0  0  0  0  0  0  0  0
    9.9600  -19.1451   27.7490 O   0  0  0  0  0  0  0  0  0  0  0  0
  1  2  1  0
  2  3  2  0
  4  2  1  0
  5  4  1  0
  5  6  1  6
  7  5  1  0
  8  7  2  0
  9  7  1  0
  9 13  1  0
 10  9  1  0
 11 12  1  0
 11 10  1  0
 12 13  1  0
 13 14  1  1
 14 15  2  0
 16 14  1  0
 16 17  1  0
 17 22  1  0
 17 18  1  6
 19 18  1  0
 20 21  2  0
 20 19  1  0
 22 23  2  0
 22 25  1  0
 24 20  1  0
M  END
$$$$
