QFS.pdb
     RDKit          3D

 27 27  0  0  1  0  0  0  0  0999 V2000
    8.7648  -18.8491   16.4119 N   0  0  0  0  0  0  0  0  0  0  0  0
    8.9869  -17.4739   16.7643 C   0  0  0  0  0  0  0  0  0  0  0  0
    8.0868  -16.6824   16.4556 O   0  0  0  0  0  0  0  0  0  0  0  0
   10.2525  -17.1768   17.4504 C   0  0  0  0  0  0  0  0  0  0  0  0
   10.1260  -16.3391   18.6713 C   0  0  0  0  0  0  0  0  0  0  0  0
    9.5110  -16.9980   19.8507 C   0  0  2  0  0  0  0  0  0  0  0  0
    8.1672  -17.4755   19.6986 N   0  0  0  0  0  0  0  0  0  0  0  0
    9.5957  -16.1528   21.0761 C   0  0  0  0  0  0  0  0  0  0  0  0
   10.6489  -15.5275   21.3840 O   0  0  0  0  0  0  0  0  0  0  0  0
    8.5087  -16.0118   21.9467 N   0  0  0  0  0  0  0  0  0  0  0  0
    8.5033  -15.1514   23.1286 C   0  0  1  0  0  0  0  0  0  0  0  0
    7.1828  -14.5675   23.3923 C   0  0  0  0  0  0  0  0  0  0  0  0
    7.0668  -13.7756   24.6147 C   0  0  0  0  0  0  0  0  0  0  0  0
    7.3848  -12.4075   24.5640 C   0  0  0  0  0  0  0  0  0  0  0  0
    7.2573  -11.5833   25.6668 C   0  0  0  0  0  0  0  0  0  0  0  0
    6.8137  -12.0754   26.8541 C   0  0  0  0  0  0  0  0  0  0  0  0
    6.4941  -13.3984   26.9457 C   0  0  0  0  0  0  0  0  0  0  0  0
    6.6249  -14.2048   25.8448 C   0  0  0  0  0  0  0  0  0  0  0  0
    9.0131  -15.9980   24.2089 C   0  0  0  0  0  0  0  0  0  0  0  0
    8.4347  -17.1355   24.4192 O   0  0  0  0  0  0  0  0  0  0  0  0
   12.4712  -17.6320   27.0386 O   0  0  0  0  0  0  0  0  0  0  0  0
   12.1132  -16.5552   26.1959 C   0  0  0  0  0  0  0  0  0  0  0  0
   10.6035  -16.7131   25.9997 C   0  0  2  0  0  0  0  0  0  0  0  0
   10.0986  -15.7282   25.0794 N   0  0  0  0  0  0  0  0  0  0  0  0
    9.9949  -16.6507   27.3221 C   0  0  0  0  0  0  0  0  0  0  0  0
   10.2374  -17.6031   28.2739 O   0  0  0  0  0  0  0  0  0  0  0  0
    9.2277  -15.6968   27.5920 O   0  0  0  0  0  0  0  0  0  0  0  0
  2  1  1  0
  3  2  2  0
  4  2  1  0
  5  4  1  0
  6  8  1  0
  6  5  1  0
  6  7  1  6
  8 10  1  0
  9  8  2  0
 10 11  1  0
 11 12  1  1
 12 13  1  0
 13 18  2  0
 14 15  2  0
 14 13  1  0
 15 16  1  0
 16 17  2  0
 18 17  1  0
 19 20  2  0
 19 11  1  0
 21 22  1  0
 23 22  1  1
 23 25  1  0
 23 24  1  0
 24 19  1  0
 25 26  1  0
 27 25  2  0
M  END
$$$$
