QFS.pdb
     RDKit          3D

 27 27  0  0  1  0  0  0  0  0999 V2000
   10.4192  -21.3366   21.6003 N   0  0  0  0  0  0  0  0  0  0  0  0
   11.2224  -20.4183   20.8412 C   0  0  0  0  0  0  0  0  0  0  0  0
   12.3398  -20.8276   20.5010 O   0  0  0  0  0  0  0  0  0  0  0  0
   10.6180  -19.1084   20.5591 C   0  0  0  0  0  0  0  0  0  0  0  0
    9.2147  -18.9491   21.0213 C   0  0  0  0  0  0  0  0  0  0  0  0
    8.5637  -17.6570   20.6894 C   0  0  2  0  0  0  0  0  0  0  0  0
    8.7790  -17.1439   19.3676 N   0  0  0  0  0  0  0  0  0  0  0  0
    8.8805  -16.5942   21.6860 C   0  0  0  0  0  0  0  0  0  0  0  0
    9.9027  -15.8604   21.5770 O   0  0  0  0  0  0  0  0  0  0  0  0
    8.0578  -16.3584   22.7937 N   0  0  0  0  0  0  0  0  0  0  0  0
    8.3085  -15.3333   23.8054 C   0  0  1  0  0  0  0  0  0  0  0  0
    7.0786  -14.6612   24.2409 C   0  0  0  0  0  0  0  0  0  0  0  0
    7.2233  -13.7176   25.3469 C   0  0  0  0  0  0  0  0  0  0  0  0
    7.6754  -12.4164   25.0679 C   0  0  0  0  0  0  0  0  0  0  0  0
    7.7952  -11.4542   26.0535 C   0  0  0  0  0  0  0  0  0  0  0  0
    7.4750  -11.7383   27.3441 C   0  0  0  0  0  0  0  0  0  0  0  0
    7.0319  -12.9898   27.6573 C   0  0  0  0  0  0  0  0  0  0  0  0
    6.9176  -13.9347   26.6706 C   0  0  0  0  0  0  0  0  0  0  0  0
    9.0234  -16.0318   24.8754 C   0  0  0  0  0  0  0  0  0  0  0  0
    8.4879  -17.0986   25.3734 O   0  0  0  0  0  0  0  0  0  0  0  0
   12.7647  -15.2872   25.7508 O   0  0  0  0  0  0  0  0  0  0  0  0
   12.4195  -16.5797   26.2066 C   0  0  0  0  0  0  0  0  0  0  0  0
   10.9094  -16.5067   26.4454 C   0  0  2  0  0  0  0  0  0  0  0  0
   10.2706  -15.6842   25.4516 N   0  0  0  0  0  0  0  0  0  0  0  0
   10.7180  -16.0366   27.8111 C   0  0  0  0  0  0  0  0  0  0  0  0
   11.2692  -16.6860   28.8818 O   0  0  0  0  0  0  0  0  0  0  0  0
   10.0281  -15.0086   28.0074 O   0  0  0  0  0  0  0  0  0  0  0  0
  2  1  1  0
  3  2  2  0
  4  2  1  0
  5  4  1  0
  6  8  1  0
  6  5  1  0
  6  7  1  6
  8 10  1  0
  9  8  2  0
 10 11  1  0
 11 12  1  1
 12 13  1  0
 13 18  2  0
 14 15  2  0
 14 13  1  0
 15 16  1  0
 16 17  2  0
 18 17  1  0
 19 20  2  0
 19 11  1  0
 21 22  1  0
 23 22  1  6
 23 25  1  0
 23 24  1  0
 24 19  1  0
 25 26  1  0
 27 25  2  0
M  END
$$$$
