QFS.pdb
     RDKit          3D

 27 27  0  0  1  0  0  0  0  0999 V2000
    7.2124  -20.6371   19.9600 N   0  0  0  0  0  0  0  0  0  0  0  0
    8.3671  -20.8271   20.7936 C   0  0  0  0  0  0  0  0  0  0  0  0
    8.2071  -21.5493   21.7860 O   0  0  0  0  0  0  0  0  0  0  0  0
    9.5961  -20.1443   20.3644 C   0  0  0  0  0  0  0  0  0  0  0  0
    9.9706  -18.9542   21.1716 C   0  0  0  0  0  0  0  0  0  0  0  0
    9.1488  -17.7371   20.9552 C   0  0  2  0  0  0  0  0  0  0  0  0
    9.2313  -17.1213   19.6626 N   0  0  0  0  0  0  0  0  0  0  0  0
    9.3821  -16.7056   22.0061 C   0  0  0  0  0  0  0  0  0  0  0  0
   10.4190  -15.9845   22.0149 O   0  0  0  0  0  0  0  0  0  0  0  0
    8.4605  -16.4866   23.0366 N   0  0  0  0  0  0  0  0  0  0  0  0
    8.5786  -15.4295   24.0395 C   0  0  1  0  0  0  0  0  0  0  0  0
    7.2726  -14.9395   24.4957 C   0  0  0  0  0  0  0  0  0  0  0  0
    7.3027  -13.9096   25.5316 C   0  0  0  0  0  0  0  0  0  0  0  0
    7.0162  -12.5819   25.1704 C   0  0  0  0  0  0  0  0  0  0  0  0
    6.9809  -11.5597   26.1008 C   0  0  0  0  0  0  0  0  0  0  0  0
    7.2255  -11.8080   27.4151 C   0  0  0  0  0  0  0  0  0  0  0  0
    7.5075  -13.0836   27.8076 C   0  0  0  0  0  0  0  0  0  0  0  0
    7.5393  -14.0881   26.8751 C   0  0  0  0  0  0  0  0  0  0  0  0
    9.4063  -16.0105   25.0984 C   0  0  0  0  0  0  0  0  0  0  0  0
    9.0200  -17.1214   25.6364 O   0  0  0  0  0  0  0  0  0  0  0  0
   13.0572  -14.6647   26.0528 O   0  0  0  0  0  0  0  0  0  0  0  0
   12.9213  -16.0587   26.2427 C   0  0  0  0  0  0  0  0  0  0  0  0
   11.4331  -16.2575   26.5401 C   0  0  2  0  0  0  0  0  0  0  0  0
   10.6200  -15.5013   25.6242 N   0  0  0  0  0  0  0  0  0  0  0  0
   11.2292  -15.9042   27.9389 C   0  0  0  0  0  0  0  0  0  0  0  0
   10.3221  -14.9528   28.3181 O   0  0  0  0  0  0  0  0  0  0  0  0
   11.9056  -16.4897   28.8169 O   0  0  0  0  0  0  0  0  0  0  0  0
  2  1  1  0
  3  2  2  0
  4  2  1  0
  5  4  1  0
  6  8  1  0
  6  5  1  0
  6  7  1  6
  8 10  1  0
  9  8  2  0
 10 11  1  0
 11 12  1  1
 12 13  1  0
 13 18  2  0
 14 15  2  0
 14 13  1  0
 15 16  1  0
 16 17  2  0
 18 17  1  0
 19 20  2  0
 19 11  1  0
 21 22  1  0
 23 22  1  6
 23 25  1  0
 23 24  1  0
 24 19  1  0
 25 26  1  0
 27 25  2  0
M  END
$$$$
