QFS.pdb
     RDKit          3D

 27 27  0  0  1  0  0  0  0  0999 V2000
    7.9087  -12.5034   17.4373 N   0  0  0  0  0  0  0  0  0  0  0  0
    8.4508  -13.7972   17.1262 C   0  0  0  0  0  0  0  0  0  0  0  0
    8.4942  -14.0929   15.9252 O   0  0  0  0  0  0  0  0  0  0  0  0
    8.8900  -14.6083   18.2708 C   0  0  0  0  0  0  0  0  0  0  0  0
    7.9224  -15.6439   18.7176 C   0  0  0  0  0  0  0  0  0  0  0  0
    8.3678  -16.5090   19.8386 C   0  0  2  0  0  0  0  0  0  0  0  0
    7.5467  -17.6436   20.1470 N   0  0  0  0  0  0  0  0  0  0  0  0
    8.6182  -15.7308   21.0856 C   0  0  0  0  0  0  0  0  0  0  0  0
    9.4597  -14.7900   21.1274 O   0  0  0  0  0  0  0  0  0  0  0  0
    7.9306  -16.0069   22.2731 N   0  0  0  0  0  0  0  0  0  0  0  0
    8.0700  -15.2350   23.5067 C   0  0  1  0  0  0  0  0  0  0  0  0
    6.7857  -14.7180   23.9940 C   0  0  0  0  0  0  0  0  0  0  0  0
    6.8471  -13.8736   25.1848 C   0  0  0  0  0  0  0  0  0  0  0  0
    7.1920  -12.5195   25.0336 C   0  0  0  0  0  0  0  0  0  0  0  0
    7.2277  -11.6473   26.1059 C   0  0  0  0  0  0  0  0  0  0  0  0
    6.9258  -12.0762   27.3604 C   0  0  0  0  0  0  0  0  0  0  0  0
    6.5856  -13.3835   27.5503 C   0  0  0  0  0  0  0  0  0  0  0  0
    6.5540  -14.2379   26.4786 C   0  0  0  0  0  0  0  0  0  0  0  0
    8.7467  -16.1392   24.4385 C   0  0  0  0  0  0  0  0  0  0  0  0
    8.2100  -17.2931   24.6694 O   0  0  0  0  0  0  0  0  0  0  0  0
   12.2106  -16.9166   24.3825 O   0  0  0  0  0  0  0  0  0  0  0  0
   12.0527  -16.9981   25.7847 C   0  0  0  0  0  0  0  0  0  0  0  0
   10.5405  -16.9044   26.0019 C   0  0  2  0  0  0  0  0  0  0  0  0
    9.9574  -15.9108   25.1389 N   0  0  0  0  0  0  0  0  0  0  0  0
   10.3308  -16.6487   27.4209 C   0  0  0  0  0  0  0  0  0  0  0  0
   10.7895  -17.5052   28.3841 O   0  0  0  0  0  0  0  0  0  0  0  0
    9.7119  -15.6145   27.7657 O   0  0  0  0  0  0  0  0  0  0  0  0
  2  1  1  0
  3  2  2  0
  4  2  1  0
  5  4  1  0
  6  8  1  0
  6  5  1  0
  6  7  1  1
  8 10  1  0
  9  8  2  0
 10 11  1  0
 11 12  1  1
 12 13  1  0
 13 18  2  0
 14 15  2  0
 14 13  1  0
 15 16  1  0
 16 17  2  0
 18 17  1  0
 19 20  2  0
 19 11  1  0
 21 22  1  0
 23 22  1  1
 23 25  1  0
 23 24  1  0
 24 19  1  0
 25 26  1  0
 27 25  2  0
M  END
$$$$
