QFS.pdb
     RDKit          3D

 27 27  0  0  1  0  0  0  0  0999 V2000
    6.8118  -20.7034   20.3050 N   0  0  0  0  0  0  0  0  0  0  0  0
    6.9549  -19.6578   19.3300 C   0  0  0  0  0  0  0  0  0  0  0  0
    5.9261  -19.3406   18.7194 O   0  0  0  0  0  0  0  0  0  0  0  0
    8.3030  -19.0913   19.1799 C   0  0  0  0  0  0  0  0  0  0  0  0
    8.7418  -18.2060   20.2899 C   0  0  0  0  0  0  0  0  0  0  0  0
    8.6192  -16.7471   20.0449 C   0  0  2  0  0  0  0  0  0  0  0  0
    9.3474  -16.2140   18.9304 N   0  0  0  0  0  0  0  0  0  0  0  0
    8.9279  -15.9436   21.2624 C   0  0  0  0  0  0  0  0  0  0  0  0
   10.0779  -15.4659   21.4728 O   0  0  0  0  0  0  0  0  0  0  0  0
    7.9549  -15.6798   22.2334 N   0  0  0  0  0  0  0  0  0  0  0  0
    8.1939  -14.9135   23.4552 C   0  0  1  0  0  0  0  0  0  0  0  0
    6.9711  -14.2905   23.9758 C   0  0  0  0  0  0  0  0  0  0  0  0
    7.1067  -13.5794   25.2449 C   0  0  0  0  0  0  0  0  0  0  0  0
    7.2028  -12.1773   25.2248 C   0  0  0  0  0  0  0  0  0  0  0  0
    7.2882  -11.4310   26.3856 C   0  0  0  0  0  0  0  0  0  0  0  0
    7.2818  -12.0369   27.6029 C   0  0  0  0  0  0  0  0  0  0  0  0
    7.1897  -13.3963   27.6664 C   0  0  0  0  0  0  0  0  0  0  0  0
    7.1056  -14.1246   26.5080 C   0  0  0  0  0  0  0  0  0  0  0  0
    8.8231  -15.8634   24.3747 C   0  0  0  0  0  0  0  0  0  0  0  0
    8.2731  -17.0242   24.5255 O   0  0  0  0  0  0  0  0  0  0  0  0
   12.5995  -15.6754   25.4321 O   0  0  0  0  0  0  0  0  0  0  0  0
   12.0419  -16.9719   25.5076 C   0  0  0  0  0  0  0  0  0  0  0  0
   10.5862  -16.7352   25.9171 C   0  0  2  0  0  0  0  0  0  0  0  0
    9.9997  -15.6738   25.1416 N   0  0  0  0  0  0  0  0  0  0  0  0
   10.5844  -16.4865   27.3528 C   0  0  0  0  0  0  0  0  0  0  0  0
   11.1680  -17.3532   28.2361 O   0  0  0  0  0  0  0  0  0  0  0  0
   10.0314  -15.4491   27.7877 O   0  0  0  0  0  0  0  0  0  0  0  0
  2  1  1  0
  3  2  2  0
  4  2  1  0
  5  4  1  0
  6  8  1  0
  6  5  1  0
  6  7  1  6
  8 10  1  0
  9  8  2  0
 10 11  1  0
 11 12  1  1
 12 13  1  0
 13 18  2  0
 14 15  2  0
 14 13  1  0
 15 16  1  0
 16 17  2  0
 18 17  1  0
 19 20  2  0
 19 11  1  0
 21 22  1  0
 23 22  1  6
 23 25  1  0
 23 24  1  0
 24 19  1  0
 25 26  1  0
 27 25  2  0
M  END
$$$$
