QFS.pdb
     RDKit          3D

 27 27  0  0  1  0  0  0  0  0999 V2000
   10.0051  -15.7675   16.0299 N   0  0  0  0  0  0  0  0  0  0  0  0
    8.6011  -15.7797   16.3353 C   0  0  0  0  0  0  0  0  0  0  0  0
    7.8342  -15.7523   15.3642 O   0  0  0  0  0  0  0  0  0  0  0  0
    8.2483  -15.8266   17.7615 C   0  0  0  0  0  0  0  0  0  0  0  0
    9.3990  -15.9689   18.6911 C   0  0  0  0  0  0  0  0  0  0  0  0
    9.1273  -16.6991   19.9546 C   0  0  2  0  0  0  0  0  0  0  0  0
    7.9138  -17.4609   20.0144 N   0  0  0  0  0  0  0  0  0  0  0  0
    9.2074  -15.8090   21.1481 C   0  0  0  0  0  0  0  0  0  0  0  0
   10.1548  -14.9890   21.3066 O   0  0  0  0  0  0  0  0  0  0  0  0
    8.2336  -15.8400   22.1531 N   0  0  0  0  0  0  0  0  0  0  0  0
    8.3150  -15.0901   23.4053 C   0  0  1  0  0  0  0  0  0  0  0  0
    7.0359  -14.4720   23.7741 C   0  0  0  0  0  0  0  0  0  0  0  0
    7.0267  -13.7212   25.0274 C   0  0  0  0  0  0  0  0  0  0  0  0
    7.6402  -12.4571   25.0603 C   0  0  0  0  0  0  0  0  0  0  0  0
    7.6338  -11.6677   26.1954 C   0  0  0  0  0  0  0  0  0  0  0  0
    7.0252  -12.0937   27.3342 C   0  0  0  0  0  0  0  0  0  0  0  0
    6.4177  -13.3150   27.3444 C   0  0  0  0  0  0  0  0  0  0  0  0
    6.4312  -14.0879   26.2122 C   0  0  0  0  0  0  0  0  0  0  0  0
    8.8221  -16.0530   24.3848 C   0  0  0  0  0  0  0  0  0  0  0  0
    8.1600  -17.1496   24.5636 O   0  0  0  0  0  0  0  0  0  0  0  0
   12.4970  -15.8696   26.0314 O   0  0  0  0  0  0  0  0  0  0  0  0
   12.0053  -17.1757   25.8075 C   0  0  0  0  0  0  0  0  0  0  0  0
   10.4886  -17.0417   25.9637 C   0  0  2  0  0  0  0  0  0  0  0  0
    9.9866  -15.9403   25.1847 N   0  0  0  0  0  0  0  0  0  0  0  0
   10.2176  -16.9263   27.3906 C   0  0  0  0  0  0  0  0  0  0  0  0
   10.6096  -17.8893   28.2799 O   0  0  0  0  0  0  0  0  0  0  0  0
    9.6074  -15.9157   27.8120 O   0  0  0  0  0  0  0  0  0  0  0  0
  2  1  1  0
  3  2  2  0
  4  2  1  0
  5  4  1  0
  6  8  1  0
  6  5  1  0
  6  7  1  6
  8 10  1  0
  9  8  2  0
 10 11  1  0
 11 12  1  1
 12 13  1  0
 13 18  2  0
 14 15  2  0
 14 13  1  0
 15 16  1  0
 16 17  2  0
 18 17  1  0
 19 20  2  0
 19 11  1  0
 21 22  1  0
 23 22  1  1
 23 25  1  0
 23 24  1  0
 24 19  1  0
 25 26  1  0
 27 25  2  0
M  END
$$$$
