QFS.pdb
     RDKit          3D

 27 27  0  0  1  0  0  0  0  0999 V2000
    7.7265  -12.5505   17.2692 N   0  0  0  0  0  0  0  0  0  0  0  0
    7.8055  -13.8535   16.6687 C   0  0  0  0  0  0  0  0  0  0  0  0
    7.4860  -13.9211   15.4749 O   0  0  0  0  0  0  0  0  0  0  0  0
    8.2589  -14.9442   17.5437 C   0  0  0  0  0  0  0  0  0  0  0  0
    8.6934  -14.5239   18.9013 C   0  0  0  0  0  0  0  0  0  0  0  0
    8.9911  -15.6202   19.8568 C   0  0  2  0  0  0  0  0  0  0  0  0
    8.0513  -16.7019   19.9149 N   0  0  0  0  0  0  0  0  0  0  0  0
    9.2411  -15.1126   21.2363 C   0  0  0  0  0  0  0  0  0  0  0  0
   10.2134  -14.3514   21.5013 O   0  0  0  0  0  0  0  0  0  0  0  0
    8.4077  -15.4569   22.3069 N   0  0  0  0  0  0  0  0  0  0  0  0
    8.4879  -14.8627   23.6402 C   0  0  1  0  0  0  0  0  0  0  0  0
    7.2382  -14.2036   24.0376 C   0  0  0  0  0  0  0  0  0  0  0  0
    7.2518  -13.5393   25.3388 C   0  0  0  0  0  0  0  0  0  0  0  0
    6.4800  -14.0821   26.3806 C   0  0  0  0  0  0  0  0  0  0  0  0
    6.4757  -13.5371   27.6513 C   0  0  0  0  0  0  0  0  0  0  0  0
    7.2288  -12.4424   27.9401 C   0  0  0  0  0  0  0  0  0  0  0  0
    7.9925  -11.8848   26.9569 C   0  0  0  0  0  0  0  0  0  0  0  0
    7.9878  -12.4349   25.7012 C   0  0  0  0  0  0  0  0  0  0  0  0
    8.8918  -15.9642   24.5162 C   0  0  0  0  0  0  0  0  0  0  0  0
    8.1933  -17.0524   24.4918 O   0  0  0  0  0  0  0  0  0  0  0  0
   12.4949  -16.7511   25.5657 O   0  0  0  0  0  0  0  0  0  0  0  0
   11.5884  -17.8243   25.7217 C   0  0  0  0  0  0  0  0  0  0  0  0
   10.2954  -17.1614   26.2026 C   0  0  2  0  0  0  0  0  0  0  0  0
    9.9891  -15.9979   25.4125 N   0  0  0  0  0  0  0  0  0  0  0  0
   10.4646  -16.8817   27.6225 C   0  0  0  0  0  0  0  0  0  0  0  0
   10.7684  -17.8677   28.5211 O   0  0  0  0  0  0  0  0  0  0  0  0
   10.3268  -15.7041   28.0291 O   0  0  0  0  0  0  0  0  0  0  0  0
  2  1  1  0
  3  2  2  0
  4  2  1  0
  5  4  1  0
  6  8  1  0
  6  5  1  0
  6  7  1  1
  8 10  1  0
  9  8  2  0
 10 11  1  0
 11 12  1  1
 12 13  1  0
 13 18  2  0
 14 15  2  0
 14 13  1  0
 15 16  1  0
 16 17  2  0
 18 17  1  0
 19 20  2  0
 19 11  1  0
 21 22  1  0
 23 22  1  6
 23 25  1  0
 23 24  1  0
 24 19  1  0
 25 26  1  0
 27 25  2  0
M  END
$$$$
