QFS.pdb
     RDKit          3D

 27 27  0  0  1  0  0  0  0  0999 V2000
    9.8920  -21.0188   20.8842 N   0  0  0  0  0  0  0  0  0  0  0  0
   11.0223  -20.1695   20.6283 C   0  0  0  0  0  0  0  0  0  0  0  0
   12.1314  -20.7181   20.6592 O   0  0  0  0  0  0  0  0  0  0  0  0
   10.7231  -18.7559   20.3581 C   0  0  0  0  0  0  0  0  0  0  0  0
    9.2807  -18.3998   20.3894 C   0  0  0  0  0  0  0  0  0  0  0  0
    8.9518  -16.9908   20.0578 C   0  0  2  0  0  0  0  0  0  0  0  0
    9.5929  -16.4302   18.9039 N   0  0  0  0  0  0  0  0  0  0  0  0
    9.1480  -16.0779   21.2203 C   0  0  0  0  0  0  0  0  0  0  0  0
   10.2357  -15.4652   21.4114 O   0  0  0  0  0  0  0  0  0  0  0  0
    8.1330  -15.8559   22.1583 N   0  0  0  0  0  0  0  0  0  0  0  0
    8.2598  -14.9776   23.3200 C   0  0  1  0  0  0  0  0  0  0  0  0
    6.9905  -14.3338   23.6786 C   0  0  0  0  0  0  0  0  0  0  0  0
    7.0093  -13.5130   24.8872 C   0  0  0  0  0  0  0  0  0  0  0  0
    6.3376  -13.9805   26.0298 C   0  0  0  0  0  0  0  0  0  0  0  0
    6.3474  -13.2829   27.2235 C   0  0  0  0  0  0  0  0  0  0  0  0
    7.0168  -12.1045   27.3338 C   0  0  0  0  0  0  0  0  0  0  0  0
    7.6821  -11.6157   26.2479 C   0  0  0  0  0  0  0  0  0  0  0  0
    7.6645  -12.3172   25.0702 C   0  0  0  0  0  0  0  0  0  0  0  0
    8.8209  -15.8280   24.3715 C   0  0  0  0  0  0  0  0  0  0  0  0
    8.1693  -16.8930   24.7094 O   0  0  0  0  0  0  0  0  0  0  0  0
   12.3724  -16.5648   24.6311 O   0  0  0  0  0  0  0  0  0  0  0  0
   12.0469  -16.6731   26.0022 C   0  0  0  0  0  0  0  0  0  0  0  0
   10.5185  -16.5996   26.0360 C   0  0  2  0  0  0  0  0  0  0  0  0
   10.0288  -15.6343   25.0870 N   0  0  0  0  0  0  0  0  0  0  0  0
   10.1376  -16.3172   27.4137 C   0  0  0  0  0  0  0  0  0  0  0  0
   10.5257  -17.1226   28.4494 O   0  0  0  0  0  0  0  0  0  0  0  0
    9.4342  -15.3078   27.6535 O   0  0  0  0  0  0  0  0  0  0  0  0
  2  1  1  0
  3  2  2  0
  4  2  1  0
  5  4  1  0
  6  8  1  0
  6  5  1  0
  6  7  1  6
  8 10  1  0
  9  8  2  0
 10 11  1  0
 11 12  1  1
 12 13  1  0
 13 18  2  0
 14 15  2  0
 14 13  1  0
 15 16  1  0
 16 17  2  0
 18 17  1  0
 19 20  2  0
 19 11  1  0
 21 22  1  0
 23 22  1  1
 23 25  1  0
 23 24  1  0
 24 19  1  0
 25 26  1  0
 27 25  2  0
M  END
$$$$
