QFS.pdb
     RDKit          3D

 27 27  0  0  1  0  0  0  0  0999 V2000
   10.3859  -16.4532   16.1489 N   0  0  0  0  0  0  0  0  0  0  0  0
    9.3359  -17.2589   16.7082 C   0  0  0  0  0  0  0  0  0  0  0  0
    8.2786  -17.2949   16.0657 O   0  0  0  0  0  0  0  0  0  0  0  0
    9.6468  -17.9434   17.9713 C   0  0  0  0  0  0  0  0  0  0  0  0
    9.8787  -17.0470   19.1336 C   0  0  0  0  0  0  0  0  0  0  0  0
    9.3763  -17.5359   20.4420 C   0  0  2  0  0  0  0  0  0  0  0  0
    8.0806  -18.1505   20.4496 N   0  0  0  0  0  0  0  0  0  0  0  0
    9.4252  -16.4807   21.4942 C   0  0  0  0  0  0  0  0  0  0  0  0
   10.4463  -15.7580   21.6676 O   0  0  0  0  0  0  0  0  0  0  0  0
    8.3385  -16.2401   22.3430 N   0  0  0  0  0  0  0  0  0  0  0  0
    8.3578  -15.3017   23.4638 C   0  0  1  0  0  0  0  0  0  0  0  0
    7.0709  -14.6205   23.6483 C   0  0  0  0  0  0  0  0  0  0  0  0
    6.9761  -13.7369   24.8080 C   0  0  0  0  0  0  0  0  0  0  0  0
    7.6820  -12.5217   24.7888 C   0  0  0  0  0  0  0  0  0  0  0  0
    7.6070  -11.6130   25.8283 C   0  0  0  0  0  0  0  0  0  0  0  0
    6.8367  -11.8680   26.9194 C   0  0  0  0  0  0  0  0  0  0  0  0
    6.1351  -13.0364   26.9774 C   0  0  0  0  0  0  0  0  0  0  0  0
    6.2182  -13.9288   25.9401 C   0  0  0  0  0  0  0  0  0  0  0  0
    8.7850  -16.1017   24.6132 C   0  0  0  0  0  0  0  0  0  0  0  0
    8.1087  -17.1654   24.9031 O   0  0  0  0  0  0  0  0  0  0  0  0
   12.4572  -16.0609   25.9342 O   0  0  0  0  0  0  0  0  0  0  0  0
   11.7602  -17.2675   26.1709 C   0  0  0  0  0  0  0  0  0  0  0  0
   10.3210  -16.8259   26.4472 C   0  0  2  0  0  0  0  0  0  0  0  0
    9.8838  -15.8590   25.4747 N   0  0  0  0  0  0  0  0  0  0  0  0
   10.2826  -16.3396   27.8202 C   0  0  0  0  0  0  0  0  0  0  0  0
    9.8313  -15.0856   28.1293 O   0  0  0  0  0  0  0  0  0  0  0  0
   10.6753  -17.0934   28.7416 O   0  0  0  0  0  0  0  0  0  0  0  0
  2  1  1  0
  3  2  2  0
  4  2  1  0
  5  4  1  0
  6  8  1  0
  6  5  1  0
  6  7  1  6
  8 10  1  0
  9  8  2  0
 10 11  1  0
 11 12  1  1
 12 13  1  0
 13 18  2  0
 14 15  2  0
 14 13  1  0
 15 16  1  0
 16 17  2  0
 18 17  1  0
 19 20  2  0
 19 11  1  0
 21 22  1  0
 23 22  1  6
 23 25  1  0
 23 24  1  0
 24 19  1  0
 25 26  1  0
 27 25  2  0
M  END
$$$$
