QFS.pdb
     RDKit          3D

 27 27  0  0  1  0  0  0  0  0999 V2000
   10.0578  -21.5593   20.5021 N   0  0  0  0  0  0  0  0  0  0  0  0
   10.3466  -20.5063   19.5681 C   0  0  0  0  0  0  0  0  0  0  0  0
   11.5114  -20.4535   19.1530 O   0  0  0  0  0  0  0  0  0  0  0  0
    9.2240  -19.6244   19.2179 C   0  0  0  0  0  0  0  0  0  0  0  0
    8.6821  -18.8174   20.3419 C   0  0  0  0  0  0  0  0  0  0  0  0
    8.3114  -17.4172   20.0172 C   0  0  2  0  0  0  0  0  0  0  0  0
    8.7797  -16.8968   18.7656 N   0  0  0  0  0  0  0  0  0  0  0  0
    8.6758  -16.4702   21.1097 C   0  0  0  0  0  0  0  0  0  0  0  0
    9.7277  -15.7726   21.0649 O   0  0  0  0  0  0  0  0  0  0  0  0
    7.8672  -16.3088   22.2408 N   0  0  0  0  0  0  0  0  0  0  0  0
    8.1150  -15.3330   23.3008 C   0  0  1  0  0  0  0  0  0  0  0  0
    6.8993  -14.6118   23.6958 C   0  0  0  0  0  0  0  0  0  0  0  0
    7.0236  -13.7403   24.8618 C   0  0  0  0  0  0  0  0  0  0  0  0
    7.6140  -12.4754   24.6977 C   0  0  0  0  0  0  0  0  0  0  0  0
    7.7267  -11.5771   25.7428 C   0  0  0  0  0  0  0  0  0  0  0  0
    7.2633  -11.8916   26.9819 C   0  0  0  0  0  0  0  0  0  0  0  0
    6.6831  -13.1095   27.1835 C   0  0  0  0  0  0  0  0  0  0  0  0
    6.5776  -13.9910   26.1389 C   0  0  0  0  0  0  0  0  0  0  0  0
    8.7345  -16.1039   24.3805 C   0  0  0  0  0  0  0  0  0  0  0  0
    8.1430  -17.1830   24.7787 O   0  0  0  0  0  0  0  0  0  0  0  0
   12.2052  -16.9659   24.4331 O   0  0  0  0  0  0  0  0  0  0  0  0
   12.0329  -16.8324   25.8296 C   0  0  0  0  0  0  0  0  0  0  0  0
   10.5172  -16.7305   26.0166 C   0  0  2  0  0  0  0  0  0  0  0  0
    9.9418  -15.8166   25.0649 N   0  0  0  0  0  0  0  0  0  0  0  0
   10.2852  -16.3579   27.4059 C   0  0  0  0  0  0  0  0  0  0  0  0
   10.7756  -17.1019   28.4442 O   0  0  0  0  0  0  0  0  0  0  0  0
    9.6169  -15.3269   27.6537 O   0  0  0  0  0  0  0  0  0  0  0  0
  2  1  1  0
  3  2  2  0
  4  2  1  0
  5  4  1  0
  6  8  1  0
  6  5  1  0
  6  7  1  6
  8 10  1  0
  9  8  2  0
 10 11  1  0
 11 12  1  1
 12 13  1  0
 13 18  2  0
 14 15  2  0
 14 13  1  0
 15 16  1  0
 16 17  2  0
 18 17  1  0
 19 20  2  0
 19 11  1  0
 21 22  1  0
 23 22  1  6
 23 25  1  0
 23 24  1  0
 24 19  1  0
 25 26  1  0
 27 25  2  0
M  END
$$$$
