QFS.pdb
     RDKit          3D

 27 27  0  0  1  0  0  0  0  0999 V2000
    9.9195  -21.5319   21.9047 N   0  0  0  0  0  0  0  0  0  0  0  0
   10.0400  -21.2986   20.4920 C   0  0  0  0  0  0  0  0  0  0  0  0
   10.4727  -22.2441   19.8208 O   0  0  0  0  0  0  0  0  0  0  0  0
    9.6319  -19.9685   20.0175 C   0  0  0  0  0  0  0  0  0  0  0  0
    9.1936  -19.0271   21.0805 C   0  0  0  0  0  0  0  0  0  0  0  0
    8.7848  -17.6753   20.6234 C   0  0  2  0  0  0  0  0  0  0  0  0
    9.3191  -17.2261   19.3706 N   0  0  0  0  0  0  0  0  0  0  0  0
    9.0255  -16.6328   21.6618 C   0  0  0  0  0  0  0  0  0  0  0  0
   10.0923  -15.9576   21.6947 O   0  0  0  0  0  0  0  0  0  0  0  0
    8.0778  -16.3520   22.6529 N   0  0  0  0  0  0  0  0  0  0  0  0
    8.2707  -15.3809   23.7286 C   0  0  1  0  0  0  0  0  0  0  0  0
    7.0670  -14.5816   23.9863 C   0  0  0  0  0  0  0  0  0  0  0  0
    7.1337  -13.6771   25.1317 C   0  0  0  0  0  0  0  0  0  0  0  0
    7.7183  -12.4109   24.9573 C   0  0  0  0  0  0  0  0  0  0  0  0
    7.7781  -11.4831   25.9806 C   0  0  0  0  0  0  0  0  0  0  0  0
    7.2660  -11.7683   27.2075 C   0  0  0  0  0  0  0  0  0  0  0  0
    6.6895  -12.9864   27.4186 C   0  0  0  0  0  0  0  0  0  0  0  0
    6.6366  -13.8974   26.3954 C   0  0  0  0  0  0  0  0  0  0  0  0
    8.7211  -16.1758   24.8727 C   0  0  0  0  0  0  0  0  0  0  0  0
    7.9346  -17.0979   25.3242 O   0  0  0  0  0  0  0  0  0  0  0  0
   12.4491  -16.3497   25.8713 O   0  0  0  0  0  0  0  0  0  0  0  0
   11.7755  -17.4846   26.3773 C   0  0  0  0  0  0  0  0  0  0  0  0
   10.3364  -17.0082   26.5890 C   0  0  2  0  0  0  0  0  0  0  0  0
    9.9506  -16.0681   25.5695 N   0  0  0  0  0  0  0  0  0  0  0  0
   10.2611  -16.4737   27.9424 C   0  0  0  0  0  0  0  0  0  0  0  0
   10.5785  -17.2316   29.0363 O   0  0  0  0  0  0  0  0  0  0  0  0
    9.8945  -15.2862   28.1058 O   0  0  0  0  0  0  0  0  0  0  0  0
  2  1  1  0
  3  2  2  0
  4  2  1  0
  5  4  1  0
  6  8  1  0
  6  5  1  0
  6  7  1  6
  8 10  1  0
  9  8  2  0
 10 11  1  0
 11 12  1  1
 12 13  1  0
 13 18  2  0
 14 15  2  0
 14 13  1  0
 15 16  1  0
 16 17  2  0
 18 17  1  0
 19 20  2  0
 19 11  1  0
 21 22  1  0
 23 22  1  6
 23 25  1  0
 23 24  1  0
 24 19  1  0
 25 26  1  0
 27 25  2  0
M  END
$$$$
