WLN.pdb
     RDKit          3D

 31 32  0  0  1  0  0  0  0  0999 V2000
   28.0141  -20.7593  -15.5973 N   0  0  0  0  0  0  0  0  0  0  0  0
   27.1316  -20.0465  -14.6926 C   0  0  1  0  0  0  0  0  0  0  0  0
   25.9037  -19.6808  -15.4992 C   0  0  0  0  0  0  0  0  0  0  0  0
   26.3193  -18.6510  -16.4992 C   0  0  0  0  0  0  0  0  0  0  0  0
   26.3603  -18.7737  -17.8855 C   0  0  0  0  0  0  0  0  0  0  0  0
   26.7911  -17.6164  -18.4014 N   0  0  0  0  0  0  0  0  0  0  0  0
   27.0386  -16.7301  -17.4242 C   0  0  0  0  0  0  0  0  0  0  0  0
   27.4886  -15.4219  -17.3921 C   0  0  0  0  0  0  0  0  0  0  0  0
   27.6639  -14.7103  -16.2241 C   0  0  0  0  0  0  0  0  0  0  0  0
   27.3697  -15.3544  -15.0350 C   0  0  0  0  0  0  0  0  0  0  0  0
   26.9167  -16.6690  -15.0501 C   0  0  0  0  0  0  0  0  0  0  0  0
   26.7462  -17.3691  -16.2334 C   0  0  0  0  0  0  0  0  0  0  0  0
   26.7813  -20.9272  -13.5434 C   0  0  0  0  0  0  0  0  0  0  0  0
   26.5653  -22.1591  -13.7490 O   0  0  0  0  0  0  0  0  0  0  0  0
   28.5864  -20.1293   -8.4348 C   0  0  0  0  0  0  0  0  0  0  0  0
   28.2810  -20.5150   -9.9195 C   0  0  1  0  0  0  0  0  0  0  0  0
   29.2660  -21.6713  -10.1483 C   0  0  0  0  0  0  0  0  0  0  0  0
   26.8704  -20.9350   -9.8994 C   0  0  0  0  0  0  0  0  0  0  0  0
   26.1570  -21.3224  -11.1205 C   0  0  2  0  0  0  0  0  0  0  0  0
   26.6760  -20.4513  -12.2148 N   0  0  0  0  0  0  0  0  0  0  0  0
   24.7108  -21.3680  -11.1487 C   0  0  0  0  0  0  0  0  0  0  0  0
   24.0688  -21.9758  -10.2713 O   0  0  0  0  0  0  0  0  0  0  0  0
   19.7367  -20.3534  -11.3083 N   0  0  0  0  0  0  0  0  0  0  0  0
   20.4281  -19.4604  -12.1545 C   0  0  0  0  0  0  0  0  0  0  0  0
   19.7775  -18.7151  -12.9158 O   0  0  0  0  0  0  0  0  0  0  0  0
   21.8875  -19.4090  -12.1391 C   0  0  0  0  0  0  0  0  0  0  0  0
   22.5303  -20.7783  -12.1406 C   0  0  2  0  0  0  0  0  0  0  0  0
   23.9534  -20.7288  -12.1673 N   0  0  0  0  0  0  0  0  0  0  0  0
   21.9731  -21.5343  -13.2915 C   0  0  0  0  0  0  0  0  0  0  0  0
   20.6545  -21.9609  -13.3329 O   0  0  0  0  0  0  0  0  0  0  0  0
   22.6982  -21.8136  -14.2804 O   0  0  0  0  0  0  0  0  0  0  0  0
  2 13  1  0
  2  1  1  6
  2  3  1  0
  3  4  1  0
  4 12  1  0
  4  5  2  0
  5  6  1  0
  6  7  1  0
  7  8  2  0
  9  8  1  0
 10  9  2  0
 11 12  2  0
 11 10  1  0
 12  7  1  0
 13 20  1  0
 14 13  2  0
 16 15  1  1
 17 16  1  0
 18 16  1  0
 19 18  1  1
 20 19  1  0
 21 19  1  0
 22 21  2  0
 23 24  1  0
 24 25  2  0
 24 26  1  0
 27 26  1  6
 27 29  1  0
 27 28  1  0
 28 21  1  0
 29 30  1  0
 31 29  2  0
M  END
$$$$
