WLN.pdb
     RDKit          3D

 31 32  0  0  1  0  0  0  0  0999 V2000
   26.0287  -19.3637   -9.7254 N   0  0  0  0  0  0  0  0  0  0  0  0
   26.5551  -20.5629  -10.3499 C   0  0  1  0  0  0  0  0  0  0  0  0
   27.4070  -21.2471   -9.3019 C   0  0  0  0  0  0  0  0  0  0  0  0
   27.4822  -20.3317   -8.1232 C   0  0  0  0  0  0  0  0  0  0  0  0
   26.9255  -19.0624   -7.9901 C   0  0  0  0  0  0  0  0  0  0  0  0
   27.2315  -18.5900   -6.7759 N   0  0  0  0  0  0  0  0  0  0  0  0
   27.9653  -19.4845   -6.0954 C   0  0  0  0  0  0  0  0  0  0  0  0
   28.5351  -19.5138   -4.8347 C   0  0  0  0  0  0  0  0  0  0  0  0
   29.2634  -20.5832   -4.3580 C   0  0  0  0  0  0  0  0  0  0  0  0
   29.4212  -21.6720   -5.1976 C   0  0  0  0  0  0  0  0  0  0  0  0
   28.8549  -21.6582   -6.4676 C   0  0  0  0  0  0  0  0  0  0  0  0
   28.1259  -20.5748   -6.9304 C   0  0  0  0  0  0  0  0  0  0  0  0
   25.4269  -21.4339  -10.7829 C   0  0  0  0  0  0  0  0  0  0  0  0
   25.2367  -22.5409  -10.1955 O   0  0  0  0  0  0  0  0  0  0  0  0
   21.0388  -19.3182  -10.7594 C   0  0  0  0  0  0  0  0  0  0  0  0
   22.3832  -19.6962  -10.0549 C   0  0  1  0  0  0  0  0  0  0  0  0
   22.0154  -19.5252   -8.5733 C   0  0  0  0  0  0  0  0  0  0  0  0
   22.6150  -21.0952  -10.4490 C   0  0  0  0  0  0  0  0  0  0  0  0
   23.1004  -21.4565  -11.7847 C   0  0  2  0  0  0  0  0  0  0  0  0
   24.5440  -21.0829  -11.8317 N   0  0  0  0  0  0  0  0  0  0  0  0
   22.4151  -20.9908  -12.9712 C   0  0  0  0  0  0  0  0  0  0  0  0
   21.2328  -21.3099  -13.1986 O   0  0  0  0  0  0  0  0  0  0  0  0
   23.3639  -17.1854  -15.5147 N   0  0  0  0  0  0  0  0  0  0  0  0
   24.2002  -18.3084  -15.6908 C   0  0  0  0  0  0  0  0  0  0  0  0
   25.4069  -18.2238  -15.3823 O   0  0  0  0  0  0  0  0  0  0  0  0
   23.6599  -19.5546  -16.2271 C   0  0  0  0  0  0  0  0  0  0  0  0
   22.6652  -20.2182  -15.3008 C   0  0  2  0  0  0  0  0  0  0  0  0
   23.0468  -20.1534  -13.9302 N   0  0  0  0  0  0  0  0  0  0  0  0
   22.4817  -21.6167  -15.7669 C   0  0  0  0  0  0  0  0  0  0  0  0
   23.3899  -22.6230  -15.4755 O   0  0  0  0  0  0  0  0  0  0  0  0
   21.4759  -21.9320  -16.4529 O   0  0  0  0  0  0  0  0  0  0  0  0
  2 13  1  0
  2  1  1  1
  2  3  1  0
  3  4  1  0
  4 12  1  0
  4  5  2  0
  5  6  1  0
  6  7  1  0
  7  8  2  0
  9  8  1  0
 10  9  2  0
 11 12  2  0
 11 10  1  0
 12  7  1  0
 13 20  1  0
 14 13  2  0
 16 15  1  6
 17 16  1  0
 18 16  1  0
 19 18  1  1
 20 19  1  0
 21 19  1  0
 22 21  2  0
 23 24  1  0
 24 25  2  0
 24 26  1  0
 27 26  1  6
 27 29  1  0
 27 28  1  0
 28 21  1  0
 29 30  1  0
 31 29  2  0
M  END
$$$$
