WLN.pdb
     RDKit          3D

 31 32  0  0  1  0  0  0  0  0999 V2000
   16.2235  -20.4370    0.2209 N   0  0  0  0  0  0  0  0  0  0  0  0
   16.2783  -20.9812    1.5649 C   0  0  1  0  0  0  0  0  0  0  0  0
   16.8878  -22.3613    1.4385 C   0  0  0  0  0  0  0  0  0  0  0  0
   15.9741  -23.1738    0.5796 C   0  0  0  0  0  0  0  0  0  0  0  0
   14.6177  -23.4227    0.7713 C   0  0  0  0  0  0  0  0  0  0  0  0
   14.1825  -24.1967   -0.2302 N   0  0  0  0  0  0  0  0  0  0  0  0
   15.1849  -24.4743   -1.0785 C   0  0  0  0  0  0  0  0  0  0  0  0
   15.2919  -25.2078   -2.2470 C   0  0  0  0  0  0  0  0  0  0  0  0
   16.4699  -25.3424   -2.9510 C   0  0  0  0  0  0  0  0  0  0  0  0
   17.5899  -24.7044   -2.4473 C   0  0  0  0  0  0  0  0  0  0  0  0
   17.4992  -23.9635   -1.2740 C   0  0  0  0  0  0  0  0  0  0  0  0
   16.3070  -23.8389   -0.5794 C   0  0  0  0  0  0  0  0  0  0  0  0
   17.1138  -20.0976    2.4251 C   0  0  0  0  0  0  0  0  0  0  0  0
   17.5936  -20.5562    3.5049 O   0  0  0  0  0  0  0  0  0  0  0  0
   20.4917  -16.2250    0.4754 C   0  0  0  0  0  0  0  0  0  0  0  0
   19.9444  -17.5068    1.1853 C   0  0  1  0  0  0  0  0  0  0  0  0
   21.2240  -18.0875    1.8060 C   0  0  0  0  0  0  0  0  0  0  0  0
   18.9886  -16.9884    2.1772 C   0  0  0  0  0  0  0  0  0  0  0  0
   18.1813  -17.8782    3.0179 C   0  0  2  0  0  0  0  0  0  0  0  0
   17.4032  -18.7527    2.0929 N   0  0  0  0  0  0  0  0  0  0  0  0
   17.3236  -17.3407    4.0524 C   0  0  0  0  0  0  0  0  0  0  0  0
   17.7418  -16.4850    4.8550 O   0  0  0  0  0  0  0  0  0  0  0  0
   11.8847  -17.4956    6.7032 N   0  0  0  0  0  0  0  0  0  0  0  0
   12.9401  -16.7359    6.1550 C   0  0  0  0  0  0  0  0  0  0  0  0
   13.1985  -15.6143    6.6384 O   0  0  0  0  0  0  0  0  0  0  0  0
   13.7205  -17.2562    5.0357 C   0  0  0  0  0  0  0  0  0  0  0  0
   15.2059  -17.3017    5.3174 C   0  0  2  0  0  0  0  0  0  0  0  0
   15.9730  -17.7554    4.2065 N   0  0  0  0  0  0  0  0  0  0  0  0
   15.4086  -18.1468    6.5222 C   0  0  0  0  0  0  0  0  0  0  0  0
   15.2623  -17.6536    7.8097 O   0  0  0  0  0  0  0  0  0  0  0  0
   15.7249  -19.3583    6.4039 O   0  0  0  0  0  0  0  0  0  0  0  0
  2 13  1  0
  2  1  1  6
  2  3  1  0
  3  4  1  0
  4 12  1  0
  4  5  2  0
  5  6  1  0
  6  7  1  0
  7  8  2  0
  9  8  1  0
 10  9  2  0
 11 12  2  0
 11 10  1  0
 12  7  1  0
 13 20  1  0
 14 13  2  0
 16 15  1  6
 17 16  1  0
 18 16  1  0
 19 18  1  6
 20 19  1  0
 21 19  1  0
 22 21  2  0
 23 24  1  0
 24 25  2  0
 24 26  1  0
 27 26  1  6
 27 29  1  0
 27 28  1  0
 28 21  1  0
 29 30  1  0
 31 29  2  0
M  END
$$$$
