WLN.pdb
     RDKit          3D

 31 32  0  0  1  0  0  0  0  0999 V2000
   27.8462  -21.0623  -15.4030 N   0  0  0  0  0  0  0  0  0  0  0  0
   26.8529  -20.1754  -14.8266 C   0  0  1  0  0  0  0  0  0  0  0  0
   26.0083  -19.6784  -15.9806 C   0  0  0  0  0  0  0  0  0  0  0  0
   26.7849  -18.6032  -16.6690 C   0  0  0  0  0  0  0  0  0  0  0  0
   27.4419  -18.6746  -17.8945 C   0  0  0  0  0  0  0  0  0  0  0  0
   28.0123  -17.4891  -18.1400 N   0  0  0  0  0  0  0  0  0  0  0  0
   27.7661  -16.6328  -17.1361 C   0  0  0  0  0  0  0  0  0  0  0  0
   28.1045  -15.3159  -16.8792 C   0  0  0  0  0  0  0  0  0  0  0  0
   27.7157  -14.6428  -15.7404 C   0  0  0  0  0  0  0  0  0  0  0  0
   26.9490  -15.3365  -14.8204 C   0  0  0  0  0  0  0  0  0  0  0  0
   26.6004  -16.6605  -15.0636 C   0  0  0  0  0  0  0  0  0  0  0  0
   27.0000  -17.3215  -16.2138 C   0  0  0  0  0  0  0  0  0  0  0  0
   26.0298  -20.9267  -13.8382 C   0  0  0  0  0  0  0  0  0  0  0  0
   25.5673  -22.0641  -14.1526 O   0  0  0  0  0  0  0  0  0  0  0  0
   26.3549  -20.6250   -8.3484 C   0  0  0  0  0  0  0  0  0  0  0  0
   26.4238  -20.8645   -9.8926 C   0  0  1  0  0  0  0  0  0  0  0  0
   27.0684  -22.2571   -9.9617 C   0  0  0  0  0  0  0  0  0  0  0  0
   25.0165  -20.8422  -10.3233 C   0  0  0  0  0  0  0  0  0  0  0  0
   24.6306  -21.0084  -11.7281 C   0  0  2  0  0  0  0  0  0  0  0  0
   25.7340  -20.4276  -12.5473 N   0  0  0  0  0  0  0  0  0  0  0  0
   23.3451  -20.5419  -12.2017 C   0  0  0  0  0  0  0  0  0  0  0  0
   23.1465  -19.3359  -12.4416 O   0  0  0  0  0  0  0  0  0  0  0  0
   21.4834  -23.1714  -14.5297 N   0  0  0  0  0  0  0  0  0  0  0  0
   21.3349  -21.9400  -15.2029 C   0  0  0  0  0  0  0  0  0  0  0  0
   21.4200  -21.9122  -16.4480 O   0  0  0  0  0  0  0  0  0  0  0  0
   21.0843  -20.7132  -14.4514 C   0  0  0  0  0  0  0  0  0  0  0  0
   21.0290  -20.9334  -12.9559 C   0  0  2  0  0  0  0  0  0  0  0  0
   22.2522  -21.4246  -12.4165 N   0  0  0  0  0  0  0  0  0  0  0  0
   19.8876  -21.8426  -12.6781 C   0  0  0  0  0  0  0  0  0  0  0  0
   18.5672  -21.4391  -12.8049 O   0  0  0  0  0  0  0  0  0  0  0  0
   20.0930  -23.0284  -12.3127 O   0  0  0  0  0  0  0  0  0  0  0  0
  2 13  1  0
  2  1  1  6
  2  3  1  0
  3  4  1  0
  4 12  1  0
  4  5  2  0
  5  6  1  0
  6  7  1  0
  7  8  2  0
  9  8  1  0
 10  9  2  0
 11 12  2  0
 11 10  1  0
 12  7  1  0
 13 20  1  0
 14 13  2  0
 16 15  1  1
 17 16  1  0
 18 16  1  0
 19 18  1  1
 20 19  1  0
 21 19  1  0
 22 21  2  0
 23 24  1  0
 24 25  2  0
 24 26  1  0
 27 26  1  6
 27 29  1  0
 27 28  1  0
 28 21  1  0
 29 30  1  0
 31 29  2  0
M  END
$$$$
