WLN.pdb
     RDKit          3D

 31 32  0  0  1  0  0  0  0  0999 V2000
   19.9886  -23.8638  -14.0305 N   0  0  0  0  0  0  0  0  0  0  0  0
   19.6338  -23.6752  -12.6363 C   0  0  1  0  0  0  0  0  0  0  0  0
   18.6578  -22.5183  -12.6004 C   0  0  0  0  0  0  0  0  0  0  0  0
   19.4537  -21.2719  -12.3857 C   0  0  0  0  0  0  0  0  0  0  0  0
   19.9200  -20.3795  -13.3474 C   0  0  0  0  0  0  0  0  0  0  0  0
   20.5882  -19.3991  -12.7281 N   0  0  0  0  0  0  0  0  0  0  0  0
   20.5885  -19.5972  -11.4005 C   0  0  0  0  0  0  0  0  0  0  0  0
   21.1144  -18.9144  -10.3179 C   0  0  0  0  0  0  0  0  0  0  0  0
   20.9715  -19.3384   -9.0137 C   0  0  0  0  0  0  0  0  0  0  0  0
   20.2633  -20.5076   -8.7975 C   0  0  0  0  0  0  0  0  0  0  0  0
   19.7285  -21.2057   -9.8747 C   0  0  0  0  0  0  0  0  0  0  0  0
   19.8818  -20.7649  -11.1792 C   0  0  0  0  0  0  0  0  0  0  0  0
   19.0138  -24.9224  -12.1082 C   0  0  0  0  0  0  0  0  0  0  0  0
   17.9627  -25.3726  -12.6550 O   0  0  0  0  0  0  0  0  0  0  0  0
   21.6418  -29.4328  -11.1095 C   0  0  0  0  0  0  0  0  0  0  0  0
   20.6510  -28.3457  -11.6414 C   0  0  1  0  0  0  0  0  0  0  0  0
   19.8030  -29.1575  -12.6322 C   0  0  0  0  0  0  0  0  0  0  0  0
   19.9114  -27.9160  -10.4436 C   0  0  0  0  0  0  0  0  0  0  0  0
   18.8817  -26.8735  -10.4980 C   0  0  2  0  0  0  0  0  0  0  0  0
   19.5466  -25.6405  -11.0112 N   0  0  0  0  0  0  0  0  0  0  0  0
   18.0745  -26.5704   -9.3356 C   0  0  0  0  0  0  0  0  0  0  0  0
   17.2379  -27.3852   -8.9027 O   0  0  0  0  0  0  0  0  0  0  0  0
   17.4588  -26.4279   -5.0382 N   0  0  0  0  0  0  0  0  0  0  0  0
   18.3124  -25.3275   -5.2659 C   0  0  0  0  0  0  0  0  0  0  0  0
   19.2919  -25.1500   -4.5126 O   0  0  0  0  0  0  0  0  0  0  0  0
   18.0526  -24.4076   -6.3700 C   0  0  0  0  0  0  0  0  0  0  0  0
   17.3347  -25.0601   -7.5305 C   0  0  2  0  0  0  0  0  0  0  0  0
   18.1917  -25.3406   -8.6330 N   0  0  0  0  0  0  0  0  0  0  0  0
   16.2016  -24.1780   -7.9105 C   0  0  0  0  0  0  0  0  0  0  0  0
   15.0112  -24.1486   -7.2002 O   0  0  0  0  0  0  0  0  0  0  0  0
   16.2938  -23.4176   -8.9081 O   0  0  0  0  0  0  0  0  0  0  0  0
  2 13  1  0
  2  1  1  6
  2  3  1  0
  3  4  1  0
  4 12  1  0
  4  5  2  0
  5  6  1  0
  6  7  1  0
  7  8  2  0
  9  8  1  0
 10  9  2  0
 11 12  2  0
 11 10  1  0
 12  7  1  0
 13 20  1  0
 14 13  2  0
 16 15  1  1
 17 16  1  0
 18 16  1  0
 19 18  1  1
 20 19  1  0
 21 19  1  0
 22 21  2  0
 23 24  1  0
 24 25  2  0
 24 26  1  0
 27 26  1  1
 27 29  1  0
 27 28  1  0
 28 21  1  0
 29 30  1  0
 31 29  2  0
M  END
$$$$
