WLN.pdb
     RDKit          3D

 31 32  0  0  1  0  0  0  0  0999 V2000
   27.6952  -19.9841  -15.0878 N   0  0  0  0  0  0  0  0  0  0  0  0
   26.6979  -19.2681  -14.3145 C   0  0  1  0  0  0  0  0  0  0  0  0
   25.8176  -18.5529  -15.3173 C   0  0  0  0  0  0  0  0  0  0  0  0
   26.5350  -17.3091  -15.7310 C   0  0  0  0  0  0  0  0  0  0  0  0
   26.8240  -16.1906  -14.9537 C   0  0  0  0  0  0  0  0  0  0  0  0
   27.4789  -15.3039  -15.7128 N   0  0  0  0  0  0  0  0  0  0  0  0
   27.6390  -15.7795  -16.9578 C   0  0  0  0  0  0  0  0  0  0  0  0
   28.2262  -15.2950  -18.1133 C   0  0  0  0  0  0  0  0  0  0  0  0
   28.2596  -15.9996  -19.2981 C   0  0  0  0  0  0  0  0  0  0  0  0
   27.6709  -17.2520  -19.3117 C   0  0  0  0  0  0  0  0  0  0  0  0
   27.0765  -17.7533  -18.1589 C   0  0  0  0  0  0  0  0  0  0  0  0
   27.0521  -17.0313  -16.9767 C   0  0  0  0  0  0  0  0  0  0  0  0
   25.9125  -20.2361  -13.4989 C   0  0  0  0  0  0  0  0  0  0  0  0
   25.5632  -21.3408  -14.0129 O   0  0  0  0  0  0  0  0  0  0  0  0
   25.9903  -20.4017   -7.9148 C   0  0  0  0  0  0  0  0  0  0  0  0
   26.2053  -20.7309   -9.4287 C   0  0  1  0  0  0  0  0  0  0  0  0
   26.8061  -22.1428   -9.3565 C   0  0  0  0  0  0  0  0  0  0  0  0
   24.8498  -20.6936  -10.0011 C   0  0  0  0  0  0  0  0  0  0  0  0
   24.6044  -20.8961  -11.4325 C   0  0  2  0  0  0  0  0  0  0  0  0
   25.5313  -19.9811  -12.1601 N   0  0  0  0  0  0  0  0  0  0  0  0
   23.2656  -20.8004  -11.9738 C   0  0  0  0  0  0  0  0  0  0  0  0
   22.6958  -19.6990  -12.0905 O   0  0  0  0  0  0  0  0  0  0  0  0
   18.6058  -23.7987  -14.4168 N   0  0  0  0  0  0  0  0  0  0  0  0
   19.4630  -22.6777  -14.4097 C   0  0  0  0  0  0  0  0  0  0  0  0
   19.0288  -21.5762  -14.8054 O   0  0  0  0  0  0  0  0  0  0  0  0
   20.8414  -22.8052  -13.9446 C   0  0  0  0  0  0  0  0  0  0  0  0
   21.1975  -21.8107  -12.8620 C   0  0  2  0  0  0  0  0  0  0  0  0
   22.5370  -21.9449  -12.3968 N   0  0  0  0  0  0  0  0  0  0  0  0
   20.2051  -21.9642  -11.7675 C   0  0  0  0  0  0  0  0  0  0  0  0
   20.5526  -22.4285  -10.5081 O   0  0  0  0  0  0  0  0  0  0  0  0
   18.9971  -21.6705  -11.9579 O   0  0  0  0  0  0  0  0  0  0  0  0
  2 13  1  0
  2  1  1  6
  2  3  1  0
  3  4  1  0
  4 12  1  0
  4  5  2  0
  5  6  1  0
  6  7  1  0
  7  8  2  0
  9  8  1  0
 10  9  2  0
 11 12  2  0
 11 10  1  0
 12  7  1  0
 13 20  1  0
 14 13  2  0
 16 15  1  1
 17 16  1  0
 18 16  1  0
 19 18  1  1
 20 19  1  0
 21 19  1  0
 22 21  2  0
 23 24  1  0
 24 25  2  0
 24 26  1  0
 27 26  1  6
 27 29  1  0
 27 28  1  0
 28 21  1  0
 29 30  1  0
 31 29  2  0
M  END
$$$$
