WLN.pdb
     RDKit          3D

 31 32  0  0  1  0  0  0  0  0999 V2000
   27.6820  -21.0903  -17.1969 N   0  0  0  0  0  0  0  0  0  0  0  0
   26.6117  -20.5181  -16.4018 C   0  0  1  0  0  0  0  0  0  0  0  0
   25.3877  -20.4959  -17.2924 C   0  0  0  0  0  0  0  0  0  0  0  0
   25.4843  -19.2763  -18.1504 C   0  0  0  0  0  0  0  0  0  0  0  0
   26.1173  -19.1471  -19.3838 C   0  0  0  0  0  0  0  0  0  0  0  0
   25.9659  -17.8871  -19.8087 N   0  0  0  0  0  0  0  0  0  0  0  0
   25.2625  -17.1722  -18.9165 C   0  0  0  0  0  0  0  0  0  0  0  0
   24.8279  -15.8601  -18.8509 C   0  0  0  0  0  0  0  0  0  0  0  0
   24.0988  -15.3563  -17.7946 C   0  0  0  0  0  0  0  0  0  0  0  0
   23.7968  -16.2220  -16.7580 C   0  0  0  0  0  0  0  0  0  0  0  0
   24.2262  -17.5437  -16.8087 C   0  0  0  0  0  0  0  0  0  0  0  0
   24.9582  -18.0332  -17.8782 C   0  0  0  0  0  0  0  0  0  0  0  0
   26.3862  -21.3594  -15.1933 C   0  0  0  0  0  0  0  0  0  0  0  0
   26.4133  -22.6219  -15.3022 O   0  0  0  0  0  0  0  0  0  0  0  0
   27.1660  -19.2885  -11.1710 C   0  0  0  0  0  0  0  0  0  0  0  0
   27.9804  -20.3913  -11.9241 C   0  0  1  0  0  0  0  0  0  0  0  0
   29.2289  -20.5142  -11.0375 C   0  0  0  0  0  0  0  0  0  0  0  0
   27.1068  -21.5751  -11.8827 C   0  0  0  0  0  0  0  0  0  0  0  0
   25.9134  -21.6907  -12.7269 C   0  0  2  0  0  0  0  0  0  0  0  0
   26.1397  -20.8125  -13.9115 N   0  0  0  0  0  0  0  0  0  0  0  0
   24.5936  -21.4712  -12.1751 C   0  0  0  0  0  0  0  0  0  0  0  0
   24.2251  -22.0527  -11.1371 O   0  0  0  0  0  0  0  0  0  0  0  0
   21.2950  -20.5699  -10.2447 N   0  0  0  0  0  0  0  0  0  0  0  0
   20.8703  -19.6447  -11.2221 C   0  0  0  0  0  0  0  0  0  0  0  0
   20.0664  -18.7452  -10.9011 O   0  0  0  0  0  0  0  0  0  0  0  0
   21.3660  -19.7386  -12.5925 C   0  0  0  0  0  0  0  0  0  0  0  0
   22.2740  -20.9276  -12.8157 C   0  0  2  0  0  0  0  0  0  0  0  0
   23.6573  -20.5902  -12.7808 N   0  0  0  0  0  0  0  0  0  0  0  0
   21.8819  -21.5564  -14.1031 C   0  0  0  0  0  0  0  0  0  0  0  0
   22.7345  -21.6092  -15.1952 O   0  0  0  0  0  0  0  0  0  0  0  0
   20.7415  -22.0688  -14.2397 O   0  0  0  0  0  0  0  0  0  0  0  0
  2 13  1  0
  2  1  1  6
  2  3  1  0
  3  4  1  0
  4 12  1  0
  4  5  2  0
  5  6  1  0
  6  7  1  0
  7  8  2  0
  9  8  1  0
 10  9  2  0
 11 12  2  0
 11 10  1  0
 12  7  1  0
 13 20  1  0
 14 13  2  0
 16 15  1  1
 17 16  1  0
 18 16  1  0
 19 18  1  1
 20 19  1  0
 21 19  1  0
 22 21  2  0
 23 24  1  0
 24 25  2  0
 24 26  1  0
 27 26  1  6
 27 29  1  0
 27 28  1  0
 28 21  1  0
 29 30  1  0
 31 29  2  0
M  END
$$$$
