WVG.pdb
     RDKit          3D

 26 27  0  0  1  0  0  0  0  0999 V2000
    6.1885  -18.3876   24.6765 N   0  0  0  0  0  0  0  0  0  0  0  0
    6.5065  -16.9887   24.4828 C   0  0  1  0  0  0  0  0  0  0  0  0
    7.1686  -16.5041   25.7528 C   0  0  0  0  0  0  0  0  0  0  0  0
    6.5655  -15.2318   26.2174 C   0  0  0  0  0  0  0  0  0  0  0  0
    5.2539  -15.0850   26.6435 C   0  0  0  0  0  0  0  0  0  0  0  0
    5.0420  -13.7946   26.9945 N   0  0  0  0  0  0  0  0  0  0  0  0
    6.1674  -13.0846   26.8152 C   0  0  0  0  0  0  0  0  0  0  0  0
    6.4907  -11.7464   27.0163 C   0  0  0  0  0  0  0  0  0  0  0  0
    7.7551  -11.3357   26.7286 C   0  0  0  0  0  0  0  0  0  0  0  0
    8.7221  -12.2046   26.2450 C   0  0  0  0  0  0  0  0  0  0  0  0
    8.3846  -13.5239   26.0523 C   0  0  0  0  0  0  0  0  0  0  0  0
    7.1274  -13.9787   26.3281 C   0  0  0  0  0  0  0  0  0  0  0  0
    7.3884  -16.8547   23.3050 C   0  0  0  0  0  0  0  0  0  0  0  0
    8.0144  -17.8433   22.9140 O   0  0  0  0  0  0  0  0  0  0  0  0
    6.6021  -13.9216   20.5531 C   0  0  0  0  0  0  0  0  0  0  0  0
    8.0983  -14.1345   20.7251 C   0  0  2  0  0  0  0  0  0  0  0  0
    8.6691  -14.1050   19.3248 C   0  0  0  0  0  0  0  0  0  0  0  0
    8.2801  -15.4376   21.4103 C   0  0  2  0  0  0  0  0  0  0  0  0
    7.5429  -15.6419   22.6102 N   0  0  0  0  0  0  0  0  0  0  0  0
    9.7257  -15.6100   21.7270 C   0  0  0  0  0  0  0  0  0  0  0  0
   10.3473  -14.8174   22.5069 O   0  0  0  0  0  0  0  0  0  0  0  0
   10.4906  -16.6690   21.1758 N   0  0  0  0  0  0  0  0  0  0  0  0
   11.8588  -16.8780   21.5850 C   0  0  0  0  0  0  0  0  0  0  0  0
   12.8226  -16.2652   20.6683 C   0  0  0  0  0  0  0  0  0  0  0  0
   14.1703  -16.1980   20.9772 O   0  0  0  0  0  0  0  0  0  0  0  0
   12.4473  -15.7826   19.5721 O   0  0  0  0  0  0  0  0  0  0  0  0
  2 13  1  0
  2  1  1  1
  3  2  1  0
  4  3  1  0
  5  4  2  0
  6  7  1  0
  6  5  1  0
  7 12  2  0
  8  9  2  0
  8  7  1  0
  9 10  1  0
 10 11  2  0
 12  4  1  0
 12 11  1  0
 13 14  2  0
 16 15  1  6
 17 16  1  0
 18 16  1  0
 18 19  1  1
 19 13  1  0
 20 21  2  0
 20 18  1  0
 22 20  1  0
 23 22  1  0
 24 23  1  0
 25 24  1  0
 26 24  2  0
M  END
$$$$
