WVG.pdb
     RDKit          3D

 26 27  0  0  1  0  0  0  0  0999 V2000
    6.6587  -17.3649   25.3196 N   0  0  0  0  0  0  0  0  0  0  0  0
    7.1958  -16.1701   24.7033 C   0  0  1  0  0  0  0  0  0  0  0  0
    8.4371  -15.7905   25.4786 C   0  0  0  0  0  0  0  0  0  0  0  0
    8.1143  -14.8445   26.5736 C   0  0  0  0  0  0  0  0  0  0  0  0
    8.4796  -15.0133   27.9009 C   0  0  0  0  0  0  0  0  0  0  0  0
    8.0223  -13.9646   28.6249 N   0  0  0  0  0  0  0  0  0  0  0  0
    7.3682  -13.1096   27.8225 C   0  0  0  0  0  0  0  0  0  0  0  0
    6.7180  -11.9005   28.0484 C   0  0  0  0  0  0  0  0  0  0  0  0
    6.1407  -11.2686   26.9911 C   0  0  0  0  0  0  0  0  0  0  0  0
    6.1814  -11.7904   25.7065 C   0  0  0  0  0  0  0  0  0  0  0  0
    6.8285  -12.9866   25.5020 C   0  0  0  0  0  0  0  0  0  0  0  0
    7.4214  -13.6543   26.5346 C   0  0  0  0  0  0  0  0  0  0  0  0
    7.4869  -16.4514   23.2824 C   0  0  0  0  0  0  0  0  0  0  0  0
    7.2310  -17.5712   22.8322 O   0  0  0  0  0  0  0  0  0  0  0  0
    8.4620  -13.1149   20.9360 C   0  0  0  0  0  0  0  0  0  0  0  0
    7.5827  -14.2099   20.3520 C   0  0  2  0  0  0  0  0  0  0  0  0
    6.1635  -13.7919   20.6659 C   0  0  0  0  0  0  0  0  0  0  0  0
    7.9806  -15.4840   20.9990 C   0  0  2  0  0  0  0  0  0  0  0  0
    8.0456  -15.4909   22.4205 N   0  0  0  0  0  0  0  0  0  0  0  0
    9.3182  -15.8836   20.4784 C   0  0  0  0  0  0  0  0  0  0  0  0
    9.5511  -16.0050   19.2319 O   0  0  0  0  0  0  0  0  0  0  0  0
   10.4082  -16.1513   21.3449 N   0  0  0  0  0  0  0  0  0  0  0  0
   11.6840  -16.5681   20.8141 C   0  0  0  0  0  0  0  0  0  0  0  0
   12.6869  -16.7855   21.8589 C   0  0  0  0  0  0  0  0  0  0  0  0
   13.6048  -17.8182   21.7746 O   0  0  0  0  0  0  0  0  0  0  0  0
   12.7388  -16.0351   22.8638 O   0  0  0  0  0  0  0  0  0  0  0  0
  2 13  1  0
  2  1  1  1
  3  2  1  0
  4  3  1  0
  5  4  2  0
  6  7  1  0
  6  5  1  0
  7 12  2  0
  8  9  2  0
  8  7  1  0
  9 10  1  0
 10 11  2  0
 12  4  1  0
 12 11  1  0
 13 14  2  0
 16 15  1  1
 17 16  1  0
 18 16  1  0
 18 19  1  1
 19 13  1  0
 20 21  2  0
 20 18  1  0
 22 20  1  0
 23 22  1  0
 24 23  1  0
 25 24  1  0
 26 24  2  0
M  END
$$$$
