WVG.pdb
     RDKit          3D

 26 27  0  0  1  0  0  0  0  0999 V2000
    5.7649  -16.8616   22.8830 N   0  0  0  0  0  0  0  0  0  0  0  0
    7.1359  -16.5099   23.1872 C   0  0  1  0  0  0  0  0  0  0  0  0
    7.2116  -15.0000   23.2120 C   0  0  0  0  0  0  0  0  0  0  0  0
    7.1140  -14.4380   21.8435 C   0  0  0  0  0  0  0  0  0  0  0  0
    5.9265  -14.1548   21.1853 C   0  0  0  0  0  0  0  0  0  0  0  0
    6.2062  -13.6553   19.9583 N   0  0  0  0  0  0  0  0  0  0  0  0
    7.5363  -13.5988   19.7835 C   0  0  0  0  0  0  0  0  0  0  0  0
    8.3406  -13.1762   18.7297 C   0  0  0  0  0  0  0  0  0  0  0  0
    9.6909  -13.2514   18.8757 C   0  0  0  0  0  0  0  0  0  0  0  0
   10.2832  -13.7326   20.0340 C   0  0  0  0  0  0  0  0  0  0  0  0
    9.4725  -14.1459   21.0653 C   0  0  0  0  0  0  0  0  0  0  0  0
    8.1126  -14.0878   20.9612 C   0  0  0  0  0  0  0  0  0  0  0  0
    7.5100  -17.1110   24.4839 C   0  0  0  0  0  0  0  0  0  0  0  0
    6.8045  -16.8858   25.4707 O   0  0  0  0  0  0  0  0  0  0  0  0
    9.6530  -20.6536   24.8513 C   0  0  0  0  0  0  0  0  0  0  0  0
    8.9160  -19.9824   26.0000 C   0  0  2  0  0  0  0  0  0  0  0  0
    7.4752  -20.4203   25.8598 C   0  0  0  0  0  0  0  0  0  0  0  0
    9.1066  -18.5192   25.8482 C   0  0  2  0  0  0  0  0  0  0  0  0
    8.6413  -17.9317   24.6385 N   0  0  0  0  0  0  0  0  0  0  0  0
   10.5593  -18.2138   25.9755 C   0  0  0  0  0  0  0  0  0  0  0  0
   11.2190  -18.4878   27.0302 O   0  0  0  0  0  0  0  0  0  0  0  0
   11.2888  -17.5994   24.9263 N   0  0  0  0  0  0  0  0  0  0  0  0
   12.7094  -17.3771   25.0507 C   0  0  0  0  0  0  0  0  0  0  0  0
   13.2826  -16.7143   23.8774 C   0  0  0  0  0  0  0  0  0  0  0  0
   14.6314  -16.4113   23.8067 O   0  0  0  0  0  0  0  0  0  0  0  0
   12.5593  -16.4025   22.9000 O   0  0  0  0  0  0  0  0  0  0  0  0
  2 13  1  0
  2  1  1  1
  3  2  1  0
  4  3  1  0
  5  4  2  0
  6  7  1  0
  6  5  1  0
  7 12  2  0
  8  9  2  0
  8  7  1  0
  9 10  1  0
 10 11  2  0
 12  4  1  0
 12 11  1  0
 13 14  2  0
 16 15  1  6
 17 16  1  0
 18 16  1  0
 18 19  1  6
 19 13  1  0
 20 21  2  0
 20 18  1  0
 22 20  1  0
 23 22  1  0
 24 23  1  0
 25 24  1  0
 26 24  2  0
M  END
$$$$
