WVG.pdb
     RDKit          3D

 26 27  0  0  1  0  0  0  0  0999 V2000
    6.3736  -18.1690   24.2888 N   0  0  0  0  0  0  0  0  0  0  0  0
    6.8563  -16.8174   24.0991 C   0  0  1  0  0  0  0  0  0  0  0  0
    7.8215  -16.5286   25.2266 C   0  0  0  0  0  0  0  0  0  0  0  0
    7.3087  -15.4502   26.1054 C   0  0  0  0  0  0  0  0  0  0  0  0
    6.4743  -15.6454   27.1959 C   0  0  0  0  0  0  0  0  0  0  0  0
    6.2035  -14.4488   27.7687 N   0  0  0  0  0  0  0  0  0  0  0  0
    6.8297  -13.4707   27.0948 C   0  0  0  0  0  0  0  0  0  0  0  0
    6.8878  -12.0901   27.2563 C   0  0  0  0  0  0  0  0  0  0  0  0
    7.6329  -11.3664   26.3779 C   0  0  0  0  0  0  0  0  0  0  0  0
    8.3297  -11.9601   25.3358 C   0  0  0  0  0  0  0  0  0  0  0  0
    8.2607  -13.3261   25.1915 C   0  0  0  0  0  0  0  0  0  0  0  0
    7.5249  -14.0906   26.0503 C   0  0  0  0  0  0  0  0  0  0  0  0
    7.4988  -16.7181   22.7724 C   0  0  0  0  0  0  0  0  0  0  0  0
    7.8386  -17.7545   22.1959 O   0  0  0  0  0  0  0  0  0  0  0  0
    8.2508  -12.8768   20.9717 C   0  0  0  0  0  0  0  0  0  0  0  0
    7.8118  -14.0564   20.1176 C   0  0  2  0  0  0  0  0  0  0  0  0
    6.3105  -13.9224   19.9934 C   0  0  0  0  0  0  0  0  0  0  0  0
    8.2390  -15.2905   20.8211 C   0  0  2  0  0  0  0  0  0  0  0  0
    7.7389  -15.4857   22.1390 N   0  0  0  0  0  0  0  0  0  0  0  0
    9.7272  -15.3070   20.8900 C   0  0  0  0  0  0  0  0  0  0  0  0
   10.4547  -15.1711   19.8530 O   0  0  0  0  0  0  0  0  0  0  0  0
   10.4171  -15.4754   22.1173 N   0  0  0  0  0  0  0  0  0  0  0  0
   11.8566  -15.3861   22.1697 C   0  0  0  0  0  0  0  0  0  0  0  0
   12.5097  -16.6869   22.0084 C   0  0  0  0  0  0  0  0  0  0  0  0
   13.8795  -16.8291   22.1482 O   0  0  0  0  0  0  0  0  0  0  0  0
   11.8382  -17.7122   21.7373 O   0  0  0  0  0  0  0  0  0  0  0  0
  2 13  1  0
  2  1  1  1
  3  2  1  0
  4  3  1  0
  5  4  2  0
  6  7  1  0
  6  5  1  0
  7 12  2  0
  8  9  2  0
  8  7  1  0
  9 10  1  0
 10 11  2  0
 12  4  1  0
 12 11  1  0
 13 14  2  0
 16 15  1  1
 17 16  1  0
 18 16  1  0
 18 19  1  1
 19 13  1  0
 20 21  2  0
 20 18  1  0
 22 20  1  0
 23 22  1  0
 24 23  1  0
 25 24  1  0
 26 24  2  0
M  END
$$$$
