WVG.pdb
     RDKit          3D

 26 27  0  0  1  0  0  0  0  0999 V2000
    9.1884  -17.9266   21.5338 N   0  0  0  0  0  0  0  0  0  0  0  0
   10.4046  -17.1736   21.3109 C   0  0  1  0  0  0  0  0  0  0  0  0
   10.3362  -15.9485   22.1944 C   0  0  0  0  0  0  0  0  0  0  0  0
    9.1693  -15.1031   21.8454 C   0  0  0  0  0  0  0  0  0  0  0  0
    8.0114  -14.9982   22.6018 C   0  0  0  0  0  0  0  0  0  0  0  0
    7.1572  -14.1434   21.9913 N   0  0  0  0  0  0  0  0  0  0  0  0
    7.7103  -13.6802   20.8589 C   0  0  0  0  0  0  0  0  0  0  0  0
    7.2717  -12.7968   19.8775 C   0  0  0  0  0  0  0  0  0  0  0  0
    8.0970  -12.5325   18.8290 C   0  0  0  0  0  0  0  0  0  0  0  0
    9.3513  -13.1130   18.7114 C   0  0  0  0  0  0  0  0  0  0  0  0
    9.7682  -13.9838   19.6909 C   0  0  0  0  0  0  0  0  0  0  0  0
    8.9721  -14.2773   20.7603 C   0  0  0  0  0  0  0  0  0  0  0  0
   11.5655  -18.0300   21.6296 C   0  0  0  0  0  0  0  0  0  0  0  0
   11.5978  -18.6088   22.7186 O   0  0  0  0  0  0  0  0  0  0  0  0
   14.2836  -19.2183   18.5400 C   0  0  0  0  0  0  0  0  0  0  0  0
   13.9784  -20.0568   19.7717 C   0  0  2  0  0  0  0  0  0  0  0  0
   12.7713  -20.8885   19.3992 C   0  0  0  0  0  0  0  0  0  0  0  0
   13.7259  -19.1166   20.8910 C   0  0  2  0  0  0  0  0  0  0  0  0
   12.6381  -18.2120   20.7385 N   0  0  0  0  0  0  0  0  0  0  0  0
   14.9590  -18.3135   21.1239 C   0  0  0  0  0  0  0  0  0  0  0  0
   16.0654  -18.8517   21.4542 O   0  0  0  0  0  0  0  0  0  0  0  0
   14.9681  -16.9019   20.9903 N   0  0  0  0  0  0  0  0  0  0  0  0
   16.1677  -16.1458   21.2592 C   0  0  0  0  0  0  0  0  0  0  0  0
   15.9841  -14.7062   21.0632 C   0  0  0  0  0  0  0  0  0  0  0  0
   16.9968  -13.8048   21.3427 O   0  0  0  0  0  0  0  0  0  0  0  0
   14.8959  -14.2512   20.6339 O   0  0  0  0  0  0  0  0  0  0  0  0
  2 13  1  0
  2  1  1  1
  3  2  1  0
  4  3  1  0
  5  4  2  0
  6  7  1  0
  6  5  1  0
  7 12  2  0
  8  9  2  0
  8  7  1  0
  9 10  1  0
 10 11  2  0
 12  4  1  0
 12 11  1  0
 13 14  2  0
 16 15  1  6
 17 16  1  0
 18 16  1  0
 18 19  1  6
 19 13  1  0
 20 21  2  0
 20 18  1  0
 22 20  1  0
 23 22  1  0
 24 23  1  0
 25 24  1  0
 26 24  2  0
M  END
$$$$
