WVG.pdb
     RDKit          3D

 26 27  0  0  1  0  0  0  0  0999 V2000
    7.1535  -18.2326   24.3154 N   0  0  0  0  0  0  0  0  0  0  0  0
    7.1204  -16.8067   24.0673 C   0  0  1  0  0  0  0  0  0  0  0  0
    7.9048  -16.1448   25.1776 C   0  0  0  0  0  0  0  0  0  0  0  0
    7.1239  -15.0515   25.8047 C   0  0  0  0  0  0  0  0  0  0  0  0
    5.7969  -15.1485   26.1961 C   0  0  0  0  0  0  0  0  0  0  0  0
    5.4029  -13.9678   26.7290 N   0  0  0  0  0  0  0  0  0  0  0  0
    6.4230  -13.0951   26.7033 C   0  0  0  0  0  0  0  0  0  0  0  0
    6.5552  -11.7732   27.1165 C   0  0  0  0  0  0  0  0  0  0  0  0
    7.7562  -11.1582   26.9439 C   0  0  0  0  0  0  0  0  0  0  0  0
    8.8423  -11.8051   26.3733 C   0  0  0  0  0  0  0  0  0  0  0  0
    8.6933  -13.1118   25.9707 C   0  0  0  0  0  0  0  0  0  0  0  0
    7.5057  -13.7671   26.1250 C   0  0  0  0  0  0  0  0  0  0  0  0
    7.6990  -16.5370   22.7350 C   0  0  0  0  0  0  0  0  0  0  0  0
    8.4686  -17.3651   22.2409 O   0  0  0  0  0  0  0  0  0  0  0  0
    8.1465  -13.5657   18.8060 C   0  0  0  0  0  0  0  0  0  0  0  0
    7.4955  -13.7067   20.1733 C   0  0  2  0  0  0  0  0  0  0  0  0
    7.9565  -12.5008   20.9611 C   0  0  0  0  0  0  0  0  0  0  0  0
    7.9522  -14.9968   20.7457 C   0  0  2  0  0  0  0  0  0  0  0  0
    7.4066  -15.3708   22.0056 N   0  0  0  0  0  0  0  0  0  0  0  0
    9.4352  -14.9567   20.8836 C   0  0  0  0  0  0  0  0  0  0  0  0
   10.0077  -14.4181   21.8861 O   0  0  0  0  0  0  0  0  0  0  0  0
   10.2926  -15.5175   19.9034 N   0  0  0  0  0  0  0  0  0  0  0  0
   11.7254  -15.4820   20.0731 C   0  0  0  0  0  0  0  0  0  0  0  0
   12.4401  -16.1524   18.9847 C   0  0  0  0  0  0  0  0  0  0  0  0
   13.8209  -16.1133   18.8962 O   0  0  0  0  0  0  0  0  0  0  0  0
   11.8131  -16.7833   18.0990 O   0  0  0  0  0  0  0  0  0  0  0  0
  2 13  1  0
  2  1  1  1
  3  2  1  0
  4  3  1  0
  5  4  2  0
  6  7  1  0
  6  5  1  0
  7 12  2  0
  8  9  2  0
  8  7  1  0
  9 10  1  0
 10 11  2  0
 12  4  1  0
 12 11  1  0
 13 14  2  0
 16 15  1  6
 17 16  1  0
 18 16  1  0
 18 19  1  1
 19 13  1  0
 20 21  2  0
 20 18  1  0
 22 20  1  0
 23 22  1  0
 24 23  1  0
 25 24  1  0
 26 24  2  0
M  END
$$$$
