WVG.pdb
     RDKit          3D

 26 27  0  0  1  0  0  0  0  0999 V2000
    6.3814  -18.0195   23.8832 N   0  0  0  0  0  0  0  0  0  0  0  0
    6.6872  -16.6283   23.6246 C   0  0  1  0  0  0  0  0  0  0  0  0
    7.6170  -16.1667   24.7239 C   0  0  0  0  0  0  0  0  0  0  0  0
    6.9696  -15.1389   25.5742 C   0  0  0  0  0  0  0  0  0  0  0  0
    5.7658  -15.3060   26.2424 C   0  0  0  0  0  0  0  0  0  0  0  0
    5.4725  -14.1717   26.9210 N   0  0  0  0  0  0  0  0  0  0  0  0
    6.4401  -13.2618   26.7242 C   0  0  0  0  0  0  0  0  0  0  0  0
    6.6296  -11.9605   27.1786 C   0  0  0  0  0  0  0  0  0  0  0  0
    7.7470  -11.2931   26.7832 C   0  0  0  0  0  0  0  0  0  0  0  0
    8.6938  -11.8674   25.9478 C   0  0  0  0  0  0  0  0  0  0  0  0
    8.4899  -13.1546   25.5084 C   0  0  0  0  0  0  0  0  0  0  0  0
    7.3826  -13.8608   25.8807 C   0  0  0  0  0  0  0  0  0  0  0  0
    7.3012  -16.5119   22.2859 C   0  0  0  0  0  0  0  0  0  0  0  0
    7.8406  -17.5042   21.7894 O   0  0  0  0  0  0  0  0  0  0  0  0
    8.1901  -13.8262   18.2304 C   0  0  0  0  0  0  0  0  0  0  0  0
    7.4948  -13.8238   19.5831 C   0  0  2  0  0  0  0  0  0  0  0  0
    8.0443  -12.6180   20.3121 C   0  0  0  0  0  0  0  0  0  0  0  0
    7.8170  -15.1119   20.2444 C   0  0  2  0  0  0  0  0  0  0  0  0
    7.2952  -15.3116   21.5531 N   0  0  0  0  0  0  0  0  0  0  0  0
    9.2987  -15.2509   20.3171 C   0  0  0  0  0  0  0  0  0  0  0  0
   10.0208  -14.4545   21.0005 O   0  0  0  0  0  0  0  0  0  0  0  0
    9.9877  -16.2803   19.6271 N   0  0  0  0  0  0  0  0  0  0  0  0
   11.4249  -16.3855   19.7086 C   0  0  0  0  0  0  0  0  0  0  0  0
   12.0802  -16.1880   18.4139 C   0  0  0  0  0  0  0  0  0  0  0  0
   13.4547  -16.0585   18.3130 O   0  0  0  0  0  0  0  0  0  0  0  0
   11.4065  -16.1311   17.3564 O   0  0  0  0  0  0  0  0  0  0  0  0
  2 13  1  0
  2  1  1  1
  3  2  1  0
  4  3  1  0
  5  4  2  0
  6  7  1  0
  6  5  1  0
  7 12  2  0
  8  9  2  0
  8  7  1  0
  9 10  1  0
 10 11  2  0
 12  4  1  0
 12 11  1  0
 13 14  2  0
 16 15  1  6
 17 16  1  0
 18 16  1  0
 18 19  1  1
 19 13  1  0
 20 21  2  0
 20 18  1  0
 22 20  1  0
 23 22  1  0
 24 23  1  0
 25 24  1  0
 26 24  2  0
M  END
$$$$
