WVG.pdb
     RDKit          3D

 26 27  0  0  1  0  0  0  0  0999 V2000
    6.4520  -17.1772   24.9292 N   0  0  0  0  0  0  0  0  0  0  0  0
    7.1174  -16.0025   24.4065 C   0  0  1  0  0  0  0  0  0  0  0  0
    8.3649  -15.7937   25.2350 C   0  0  0  0  0  0  0  0  0  0  0  0
    8.1249  -14.8177   26.3249 C   0  0  0  0  0  0  0  0  0  0  0  0
    8.5008  -14.9978   27.6477 C   0  0  0  0  0  0  0  0  0  0  0  0
    8.1272  -13.9138   28.3678 N   0  0  0  0  0  0  0  0  0  0  0  0
    7.5181  -13.0246   27.5671 C   0  0  0  0  0  0  0  0  0  0  0  0
    6.9543  -11.7724   27.7905 C   0  0  0  0  0  0  0  0  0  0  0  0
    6.4027  -11.1135   26.7361 C   0  0  0  0  0  0  0  0  0  0  0  0
    6.3864  -11.6492   25.4567 C   0  0  0  0  0  0  0  0  0  0  0  0
    6.9483  -12.8881   25.2545 C   0  0  0  0  0  0  0  0  0  0  0  0
    7.5127  -13.5840   26.2844 C   0  0  0  0  0  0  0  0  0  0  0  0
    7.4237  -16.2194   22.9776 C   0  0  0  0  0  0  0  0  0  0  0  0
    7.2612  -17.3442   22.4974 O   0  0  0  0  0  0  0  0  0  0  0  0
    8.4328  -12.8569   20.5569 C   0  0  0  0  0  0  0  0  0  0  0  0
    7.6040  -13.9992   19.9896 C   0  0  2  0  0  0  0  0  0  0  0  0
    6.1634  -13.5956   20.2119 C   0  0  0  0  0  0  0  0  0  0  0  0
    7.9930  -15.2293   20.7217 C   0  0  2  0  0  0  0  0  0  0  0  0
    7.8943  -15.1919   22.1408 N   0  0  0  0  0  0  0  0  0  0  0  0
    9.4012  -15.5658   20.3702 C   0  0  0  0  0  0  0  0  0  0  0  0
    9.7822  -15.7085   19.1630 O   0  0  0  0  0  0  0  0  0  0  0  0
   10.3970  -15.7463   21.3633 N   0  0  0  0  0  0  0  0  0  0  0  0
   11.7687  -15.9981   20.9917 C   0  0  0  0  0  0  0  0  0  0  0  0
   12.0446  -17.4206   20.7795 C   0  0  0  0  0  0  0  0  0  0  0  0
   13.3191  -17.8722   20.4831 O   0  0  0  0  0  0  0  0  0  0  0  0
   11.1252  -18.2712   20.8617 O   0  0  0  0  0  0  0  0  0  0  0  0
  2 13  1  0
  2  1  1  1
  3  2  1  0
  4  3  1  0
  5  4  2  0
  6  7  1  0
  6  5  1  0
  7 12  2  0
  8  9  2  0
  8  7  1  0
  9 10  1  0
 10 11  2  0
 12  4  1  0
 12 11  1  0
 13 14  2  0
 16 15  1  1
 17 16  1  0
 18 16  1  0
 18 19  1  1
 19 13  1  0
 20 21  2  0
 20 18  1  0
 22 20  1  0
 23 22  1  0
 24 23  1  0
 25 24  1  0
 26 24  2  0
M  END
$$$$
