WVG.pdb
     RDKit          3D

 26 27  0  0  1  0  0  0  0  0999 V2000
    6.8795  -17.3896   25.1372 N   0  0  0  0  0  0  0  0  0  0  0  0
    7.2789  -16.1137   24.5819 C   0  0  1  0  0  0  0  0  0  0  0  0
    8.4853  -15.6471   25.3649 C   0  0  0  0  0  0  0  0  0  0  0  0
    8.0886  -14.7312   26.4613 C   0  0  0  0  0  0  0  0  0  0  0  0
    8.2473  -14.9972   27.8132 C   0  0  0  0  0  0  0  0  0  0  0  0
    7.7790  -13.9488   28.5307 N   0  0  0  0  0  0  0  0  0  0  0  0
    7.3169  -13.0003   27.7002 C   0  0  0  0  0  0  0  0  0  0  0  0
    6.7419  -11.7507   27.9086 C   0  0  0  0  0  0  0  0  0  0  0  0
    6.3737  -11.0185   26.8229 C   0  0  0  0  0  0  0  0  0  0  0  0
    6.5534  -11.4778   25.5265 C   0  0  0  0  0  0  0  0  0  0  0  0
    7.1234  -12.7155   25.3396 C   0  0  0  0  0  0  0  0  0  0  0  0
    7.5076  -13.4835   26.4007 C   0  0  0  0  0  0  0  0  0  0  0  0
    7.5762  -16.2866   23.1451 C   0  0  0  0  0  0  0  0  0  0  0  0
    7.5820  -17.4255   22.6707 O   0  0  0  0  0  0  0  0  0  0  0  0
    8.3902  -12.8701   20.6632 C   0  0  0  0  0  0  0  0  0  0  0  0
    7.6152  -14.0567   20.1112 C   0  0  2  0  0  0  0  0  0  0  0  0
    6.1567  -13.7009   20.2946 C   0  0  0  0  0  0  0  0  0  0  0  0
    8.0338  -15.2518   20.8838 C   0  0  2  0  0  0  0  0  0  0  0  0
    7.8535  -15.2017   22.2945 N   0  0  0  0  0  0  0  0  0  0  0  0
    9.4768  -15.5088   20.6163 C   0  0  0  0  0  0  0  0  0  0  0  0
    9.9301  -15.6607   19.4355 O   0  0  0  0  0  0  0  0  0  0  0  0
   10.4271  -15.5986   21.6649 N   0  0  0  0  0  0  0  0  0  0  0  0
   11.8238  -15.8178   21.3744 C   0  0  0  0  0  0  0  0  0  0  0  0
   12.1909  -17.2353   21.4017 C   0  0  0  0  0  0  0  0  0  0  0  0
   13.5149  -17.6373   21.4388 O   0  0  0  0  0  0  0  0  0  0  0  0
   11.3072  -18.1267   21.3920 O   0  0  0  0  0  0  0  0  0  0  0  0
  2 13  1  0
  2  1  1  1
  3  2  1  0
  4  3  1  0
  5  4  2  0
  6  7  1  0
  6  5  1  0
  7 12  2  0
  8  9  2  0
  8  7  1  0
  9 10  1  0
 10 11  2  0
 12  4  1  0
 12 11  1  0
 13 14  2  0
 16 15  1  1
 17 16  1  0
 18 16  1  0
 18 19  1  1
 19 13  1  0
 20 21  2  0
 20 18  1  0
 22 20  1  0
 23 22  1  0
 24 23  1  0
 25 24  1  0
 26 24  2  0
M  END
$$$$
