FNR.pdb
     RDKit          3D

 31 31  0  0  1  0  0  0  0  0999 V2000
    5.6426  -17.8390   24.3710 N   0  0  0  0  0  0  0  0  0  0  0  0
    6.1916  -16.4758   24.4374 C   0  0  1  0  0  0  0  0  0  0  0  0
    6.4489  -16.1941   25.8811 C   0  0  0  0  0  0  0  0  0  0  0  0
    6.8815  -14.8191   26.1793 C   0  0  0  0  0  0  0  0  0  0  0  0
    8.2306  -14.5240   26.2146 C   0  0  0  0  0  0  0  0  0  0  0  0
    8.5892  -13.2226   26.4951 C   0  0  0  0  0  0  0  0  0  0  0  0
    7.6253  -12.2617   26.7296 C   0  0  0  0  0  0  0  0  0  0  0  0
    6.2795  -12.5516   26.6953 C   0  0  0  0  0  0  0  0  0  0  0  0
    5.9228  -13.8544   26.4144 C   0  0  0  0  0  0  0  0  0  0  0  0
    7.3910  -16.3669   23.5712 C   0  0  0  0  0  0  0  0  0  0  0  0
    8.1335  -17.3928   23.4867 O   0  0  0  0  0  0  0  0  0  0  0  0
    6.5637  -13.1823   19.8654 N   0  0  0  0  0  0  0  0  0  0  0  0
    7.6214  -14.1018   20.0411 C   0  0  0  0  0  0  0  0  0  0  0  0
    7.6031  -15.1173   19.2733 O   0  0  0  0  0  0  0  0  0  0  0  0
    8.6938  -13.9481   21.0242 C   0  0  0  0  0  0  0  0  0  0  0  0
    8.7842  -15.0219   22.0530 C   0  0  2  0  0  0  0  0  0  0  0  0
    7.6486  -15.1664   22.8985 N   0  0  0  0  0  0  0  0  0  0  0  0
   10.0556  -14.8585   22.8065 C   0  0  0  0  0  0  0  0  0  0  0  0
    9.9651  -14.2420   23.9148 O   0  0  0  0  0  0  0  0  0  0  0  0
    8.8183  -18.8075   27.9026 N   0  0  0  0  0  0  0  0  0  0  0  0
   10.2328  -18.7973   28.1854 C   0  0  0  0  0  0  0  0  0  0  0  0
   10.6546  -18.6632   29.4147 N   0  0  0  0  0  0  0  0  0  0  0  0
   11.1952  -18.9304   27.1575 N   0  0  0  0  0  0  0  0  0  0  0  0
   10.8758  -18.7066   25.7682 C   0  0  0  0  0  0  0  0  0  0  0  0
   11.7330  -17.5590   25.2009 C   0  0  0  0  0  0  0  0  0  0  0  0
   11.4136  -17.3082   23.7699 C   0  0  0  0  0  0  0  0  0  0  0  0
   12.1707  -16.1261   23.2141 C   0  0  2  0  0  0  0  0  0  0  0  0
   11.2875  -15.3425   22.3470 N   0  0  0  0  0  0  0  0  0  0  0  0
   13.4160  -16.4742   22.5163 C   0  0  0  0  0  0  0  0  0  0  0  0
   14.6782  -16.0678   23.0038 O   0  0  0  0  0  0  0  0  0  0  0  0
   13.4669  -17.1421   21.4589 O   0  0  0  0  0  0  0  0  0  0  0  0
  2  1  1  1
  3  2  1  0
  4  3  1  0
  4  5  2  0
  6  5  1  0
  7  6  2  0
  8  9  2  0
  8  7  1  0
  9  4  1  0
 10  2  1  0
 11 10  2  0
 13 12  1  0
 14 13  2  0
 15 13  1  0
 16 17  1  0
 16 15  1  6
 17 10  1  0
 18 16  1  0
 19 18  2  0
 20 21  1  0
 21 22  2  0
 21 23  1  0
 23 24  1  0
 25 26  1  0
 25 24  1  0
 27 26  1  6
 27 28  1  0
 28 18  1  0
 29 30  1  0
 29 27  1  0
 31 29  2  0
M  END
$$$$
