FNR.pdb
     RDKit          3D

 31 31  0  0  1  0  0  0  0  0999 V2000
    6.3904  -18.2639   27.0409 N   0  0  0  0  0  0  0  0  0  0  0  0
    6.9963  -17.0532   26.4655 C   0  0  1  0  0  0  0  0  0  0  0  0
    6.7364  -15.9488   27.4364 C   0  0  0  0  0  0  0  0  0  0  0  0
    7.1632  -14.6132   26.9883 C   0  0  0  0  0  0  0  0  0  0  0  0
    6.5543  -14.0386   25.8896 C   0  0  0  0  0  0  0  0  0  0  0  0
    6.9844  -12.7855   25.5077 C   0  0  0  0  0  0  0  0  0  0  0  0
    7.9866  -12.1418   26.2067 C   0  0  0  0  0  0  0  0  0  0  0  0
    8.5963  -12.7111   27.3025 C   0  0  0  0  0  0  0  0  0  0  0  0
    8.1644  -13.9650   27.6830 C   0  0  0  0  0  0  0  0  0  0  0  0
    8.4327  -17.2890   26.1795 C   0  0  0  0  0  0  0  0  0  0  0  0
    9.2505  -17.0667   27.1244 O   0  0  0  0  0  0  0  0  0  0  0  0
    9.0520  -21.0580   24.6781 N   0  0  0  0  0  0  0  0  0  0  0  0
    9.8349  -20.2234   25.5061 C   0  0  0  0  0  0  0  0  0  0  0  0
    9.6746  -20.3821   26.7592 O   0  0  0  0  0  0  0  0  0  0  0  0
   10.7834  -19.2254   25.0113 C   0  0  0  0  0  0  0  0  0  0  0  0
   10.1889  -17.9295   24.5793 C   0  0  2  0  0  0  0  0  0  0  0  0
    8.8183  -17.7361   24.9101 N   0  0  0  0  0  0  0  0  0  0  0  0
   10.4742  -17.7290   23.1338 C   0  0  0  0  0  0  0  0  0  0  0  0
    9.6622  -18.2850   22.3287 O   0  0  0  0  0  0  0  0  0  0  0  0
    8.3020  -14.7509   16.9495 N   0  0  0  0  0  0  0  0  0  0  0  0
    8.2366  -13.5363   17.7250 C   0  0  0  0  0  0  0  0  0  0  0  0
    7.4533  -12.5602   17.3496 N   0  0  0  0  0  0  0  0  0  0  0  0
    9.0059  -13.3643   18.8993 N   0  0  0  0  0  0  0  0  0  0  0  0
    9.1327  -14.3992   19.8968 C   0  0  0  0  0  0  0  0  0  0  0  0
   10.0649  -13.9357   21.0325 C   0  0  0  0  0  0  0  0  0  0  0  0
   10.2745  -15.0191   22.0299 C   0  0  0  0  0  0  0  0  0  0  0  0
   11.3909  -15.9543   21.6317 C   0  0  2  0  0  0  0  0  0  0  0  0
   11.5610  -16.9809   22.6627 N   0  0  0  0  0  0  0  0  0  0  0  0
   12.6677  -15.2885   21.3395 C   0  0  0  0  0  0  0  0  0  0  0  0
   13.7274  -15.2732   22.2739 O   0  0  0  0  0  0  0  0  0  0  0  0
   12.9219  -14.6934   20.2681 O   0  0  0  0  0  0  0  0  0  0  0  0
  2  1  1  1
  3  2  1  0
  4  3  1  0
  4  5  2  0
  6  5  1  0
  7  6  2  0
  8  9  2  0
  8  7  1  0
  9  4  1  0
 10  2  1  0
 11 10  2  0
 13 12  1  0
 14 13  2  0
 15 13  1  0
 16 17  1  0
 16 15  1  6
 17 10  1  0
 18 16  1  0
 19 18  2  0
 20 21  1  0
 21 22  2  0
 21 23  1  0
 23 24  1  0
 25 26  1  0
 25 24  1  0
 27 26  1  1
 27 28  1  0
 28 18  1  0
 29 30  1  0
 29 27  1  0
 31 29  2  0
M  END
$$$$
