FNR.pdb
     RDKit          3D

 31 31  0  0  1  0  0  0  0  0999 V2000
    6.4096  -16.2282   26.1906 N   0  0  0  0  0  0  0  0  0  0  0  0
    7.6617  -16.0970   25.4296 C   0  0  1  0  0  0  0  0  0  0  0  0
    8.4300  -14.9878   26.0692 C   0  0  0  0  0  0  0  0  0  0  0  0
    7.7578  -13.6782   26.0581 C   0  0  0  0  0  0  0  0  0  0  0  0
    7.5174  -13.0280   27.2529 C   0  0  0  0  0  0  0  0  0  0  0  0
    6.8879  -11.8027   27.1940 C   0  0  0  0  0  0  0  0  0  0  0  0
    6.5178  -11.2590   25.9796 C   0  0  0  0  0  0  0  0  0  0  0  0
    6.7556  -11.9039   24.7862 C   0  0  0  0  0  0  0  0  0  0  0  0
    7.3857  -13.1298   24.8474 C   0  0  0  0  0  0  0  0  0  0  0  0
    8.3772  -17.3961   25.3981 C   0  0  0  0  0  0  0  0  0  0  0  0
    8.9787  -17.7464   26.4595 O   0  0  0  0  0  0  0  0  0  0  0  0
    6.5143  -20.9711   22.3505 N   0  0  0  0  0  0  0  0  0  0  0  0
    6.9951  -20.5115   23.5966 C   0  0  0  0  0  0  0  0  0  0  0  0
    6.1289  -19.9701   24.3566 O   0  0  0  0  0  0  0  0  0  0  0  0
    8.3856  -20.6242   24.0372 C   0  0  0  0  0  0  0  0  0  0  0  0
    9.1456  -19.3447   24.1068 C   0  0  2  0  0  0  0  0  0  0  0  0
    8.3604  -18.1640   24.2276 N   0  0  0  0  0  0  0  0  0  0  0  0
   10.1046  -19.2941   22.9715 C   0  0  0  0  0  0  0  0  0  0  0  0
    9.6356  -18.8614   21.8718 O   0  0  0  0  0  0  0  0  0  0  0  0
   12.7325  -14.4246   17.8914 N   0  0  0  0  0  0  0  0  0  0  0  0
   13.8037  -14.2747   18.8459 C   0  0  0  0  0  0  0  0  0  0  0  0
   14.8000  -13.4684   18.5920 N   0  0  0  0  0  0  0  0  0  0  0  0
   13.8108  -14.9842   20.0695 N   0  0  0  0  0  0  0  0  0  0  0  0
   12.6744  -15.7479   20.5248 C   0  0  0  0  0  0  0  0  0  0  0  0
   13.0326  -16.5280   21.8042 C   0  0  0  0  0  0  0  0  0  0  0  0
   11.9700  -17.5103   22.1483 C   0  0  0  0  0  0  0  0  0  0  0  0
   12.5381  -18.8021   22.6849 C   0  0  2  0  0  0  0  0  0  0  0  0
   11.4435  -19.6919   23.0798 N   0  0  0  0  0  0  0  0  0  0  0  0
   13.4994  -18.6346   23.7835 C   0  0  0  0  0  0  0  0  0  0  0  0
   13.0960  -18.1827   25.0599 O   0  0  0  0  0  0  0  0  0  0  0  0
   14.7249  -18.8706   23.6882 O   0  0  0  0  0  0  0  0  0  0  0  0
  2  1  1  1
  3  2  1  0
  4  3  1  0
  4  5  2  0
  6  5  1  0
  7  6  2  0
  8  9  2  0
  8  7  1  0
  9  4  1  0
 10  2  1  0
 11 10  2  0
 13 12  1  0
 14 13  2  0
 15 13  1  0
 16 17  1  0
 16 15  1  6
 17 10  1  0
 18 16  1  0
 19 18  2  0
 20 21  1  0
 21 22  2  0
 21 23  1  0
 23 24  1  0
 25 26  1  0
 25 24  1  0
 27 26  1  1
 27 28  1  0
 28 18  1  0
 29 30  1  0
 29 27  1  0
 31 29  2  0
M  END
$$$$
