FNR.pdb
     RDKit          3D

 31 31  0  0  1  0  0  0  0  0999 V2000
    6.7034  -13.8437   24.2754 N   0  0  0  0  0  0  0  0  0  0  0  0
    7.1984  -14.8089   23.2817 C   0  0  1  0  0  0  0  0  0  0  0  0
    8.2706  -14.1103   22.5123 C   0  0  0  0  0  0  0  0  0  0  0  0
    7.8240  -13.4690   21.2648 C   0  0  0  0  0  0  0  0  0  0  0  0
    8.0335  -12.1156   21.0840 C   0  0  0  0  0  0  0  0  0  0  0  0
    7.6012  -11.5585   19.8993 C   0  0  0  0  0  0  0  0  0  0  0  0
    6.9840  -12.3363   18.9394 C   0  0  0  0  0  0  0  0  0  0  0  0
    6.7732  -13.6858   19.1157 C   0  0  0  0  0  0  0  0  0  0  0  0
    7.2066  -14.2413   20.3018 C   0  0  0  0  0  0  0  0  0  0  0  0
    7.6435  -16.0525   23.9572 C   0  0  0  0  0  0  0  0  0  0  0  0
    8.1830  -15.9244   25.0989 O   0  0  0  0  0  0  0  0  0  0  0  0
    7.1035  -21.8242   24.9241 N   0  0  0  0  0  0  0  0  0  0  0  0
    7.8355  -20.9713   24.0686 C   0  0  0  0  0  0  0  0  0  0  0  0
    9.0326  -21.3296   23.8244 O   0  0  0  0  0  0  0  0  0  0  0  0
    7.3039  -19.7450   23.4737 C   0  0  0  0  0  0  0  0  0  0  0  0
    7.9978  -18.4857   23.8638 C   0  0  2  0  0  0  0  0  0  0  0  0
    7.4548  -17.2865   23.3233 N   0  0  0  0  0  0  0  0  0  0  0  0
    9.4531  -18.6383   23.5993 C   0  0  0  0  0  0  0  0  0  0  0  0
    9.7642  -19.0160   22.4258 O   0  0  0  0  0  0  0  0  0  0  0  0
   13.1076  -17.0820   19.2437 N   0  0  0  0  0  0  0  0  0  0  0  0
   13.0625  -15.6913   19.6246 C   0  0  0  0  0  0  0  0  0  0  0  0
   14.0146  -14.8781   19.2512 N   0  0  0  0  0  0  0  0  0  0  0  0
   12.0026  -15.1699   20.4025 N   0  0  0  0  0  0  0  0  0  0  0  0
   11.3473  -15.9426   21.4300 C   0  0  0  0  0  0  0  0  0  0  0  0
   12.3838  -16.7508   22.2338 C   0  0  0  0  0  0  0  0  0  0  0  0
   12.0340  -16.7839   23.6791 C   0  0  0  0  0  0  0  0  0  0  0  0
   11.8407  -18.1921   24.1881 C   0  0  2  0  0  0  0  0  0  0  0  0
   10.4385  -18.3891   24.5635 N   0  0  0  0  0  0  0  0  0  0  0  0
   12.7362  -18.5694   25.2903 C   0  0  0  0  0  0  0  0  0  0  0  0
   14.1142  -18.8002   25.0808 O   0  0  0  0  0  0  0  0  0  0  0  0
   12.3678  -18.7154   26.4776 O   0  0  0  0  0  0  0  0  0  0  0  0
  2  1  1  1
  3  2  1  0
  4  3  1  0
  4  5  2  0
  6  5  1  0
  7  6  2  0
  8  9  2  0
  8  7  1  0
  9  4  1  0
 10  2  1  0
 11 10  2  0
 13 12  1  0
 14 13  2  0
 15 13  1  0
 16 17  1  0
 16 15  1  6
 17 10  1  0
 18 16  1  0
 19 18  2  0
 20 21  1  0
 21 22  2  0
 21 23  1  0
 23 24  1  0
 25 26  1  0
 25 24  1  0
 27 26  1  1
 27 28  1  0
 28 18  1  0
 29 30  1  0
 29 27  1  0
 31 29  2  0
M  END
$$$$
