FNR.pdb
     RDKit          3D

 31 31  0  0  1  0  0  0  0  0999 V2000
    7.9091  -16.3675   24.4831 N   0  0  0  0  0  0  0  0  0  0  0  0
    7.1889  -16.1610   23.2171 C   0  0  1  0  0  0  0  0  0  0  0  0
    6.2481  -15.0245   23.4472 C   0  0  0  0  0  0  0  0  0  0  0  0
    6.7427  -13.9828   24.3622 C   0  0  0  0  0  0  0  0  0  0  0  0
    7.2877  -12.8249   23.8421 C   0  0  0  0  0  0  0  0  0  0  0  0
    7.7354  -11.8759   24.7365 C   0  0  0  0  0  0  0  0  0  0  0  0
    7.6361  -12.0889   26.0975 C   0  0  0  0  0  0  0  0  0  0  0  0
    7.0936  -13.2418   26.6200 C   0  0  0  0  0  0  0  0  0  0  0  0
    6.6461  -14.1900   25.7233 C   0  0  0  0  0  0  0  0  0  0  0  0
    8.1540  -15.9403   22.1122 C   0  0  0  0  0  0  0  0  0  0  0  0
    7.6850  -15.9335   20.9328 O   0  0  0  0  0  0  0  0  0  0  0  0
   12.2378  -15.5965   18.6592 N   0  0  0  0  0  0  0  0  0  0  0  0
   11.8297  -14.6834   19.6566 C   0  0  0  0  0  0  0  0  0  0  0  0
   12.6337  -13.7238   19.8887 O   0  0  0  0  0  0  0  0  0  0  0  0
   10.5768  -14.7844   20.4052 C   0  0  0  0  0  0  0  0  0  0  0  0
   10.5103  -15.8865   21.4053 C   0  0  2  0  0  0  0  0  0  0  0  0
    9.5095  -15.7531   22.4082 N   0  0  0  0  0  0  0  0  0  0  0  0
   11.8701  -16.1098   21.9641 C   0  0  0  0  0  0  0  0  0  0  0  0
   12.6984  -16.6830   21.1883 O   0  0  0  0  0  0  0  0  0  0  0  0
    9.2246  -14.8723   28.5916 N   0  0  0  0  0  0  0  0  0  0  0  0
   10.2477  -15.6150   29.2863 C   0  0  0  0  0  0  0  0  0  0  0  0
   10.7751  -15.1370   30.3820 N   0  0  0  0  0  0  0  0  0  0  0  0
   10.7067  -16.8660   28.8121 N   0  0  0  0  0  0  0  0  0  0  0  0
   10.5149  -17.2907   27.4464 C   0  0  0  0  0  0  0  0  0  0  0  0
   11.0115  -16.2038   26.4740 C   0  0  0  0  0  0  0  0  0  0  0  0
   10.9071  -16.6596   25.0619 C   0  0  0  0  0  0  0  0  0  0  0  0
   12.2477  -16.6809   24.3678 C   0  0  2  0  0  0  0  0  0  0  0  0
   12.2404  -15.7237   23.2590 N   0  0  0  0  0  0  0  0  0  0  0  0
   12.6750  -18.0100   23.9097 C   0  0  0  0  0  0  0  0  0  0  0  0
   13.7741  -18.6783   24.4940 O   0  0  0  0  0  0  0  0  0  0  0  0
   12.1190  -18.6490   22.9881 O   0  0  0  0  0  0  0  0  0  0  0  0
  2  1  1  1
  3  2  1  0
  4  3  1  0
  4  5  2  0
  6  5  1  0
  7  6  2  0
  8  9  2  0
  8  7  1  0
  9  4  1  0
 10  2  1  0
 11 10  2  0
 13 12  1  0
 14 13  2  0
 15 13  1  0
 16 17  1  0
 16 15  1  1
 17 10  1  0
 18 16  1  0
 19 18  2  0
 20 21  1  0
 21 22  2  0
 21 23  1  0
 23 24  1  0
 25 26  1  0
 25 24  1  0
 27 26  1  6
 27 28  1  0
 28 18  1  0
 29 30  1  0
 29 27  1  0
 31 29  2  0
M  END
$$$$
