FNR.pdb
     RDKit          3D

 31 31  0  0  1  0  0  0  0  0999 V2000
    8.5537  -15.6892   16.2487 N   0  0  0  0  0  0  0  0  0  0  0  0
    8.8699  -14.7178   17.3073 C   0  0  1  0  0  0  0  0  0  0  0  0
    7.5789  -14.3979   17.9860 C   0  0  0  0  0  0  0  0  0  0  0  0
    7.7078  -13.6512   19.2481 C   0  0  0  0  0  0  0  0  0  0  0  0
    7.3057  -14.2413   20.4305 C   0  0  0  0  0  0  0  0  0  0  0  0
    7.4475  -13.5057   21.5880 C   0  0  0  0  0  0  0  0  0  0  0  0
    7.9731  -12.2290   21.5510 C   0  0  0  0  0  0  0  0  0  0  0  0
    8.3751  -11.6371   20.3743 C   0  0  0  0  0  0  0  0  0  0  0  0
    8.2324  -12.3749   19.2173 C   0  0  0  0  0  0  0  0  0  0  0  0
    9.9131  -15.2670   18.2077 C   0  0  0  0  0  0  0  0  0  0  0  0
    9.6878  -16.4062   18.7200 O   0  0  0  0  0  0  0  0  0  0  0  0
   15.6615  -14.2267   20.3944 N   0  0  0  0  0  0  0  0  0  0  0  0
   14.5386  -14.9226   19.8944 C   0  0  0  0  0  0  0  0  0  0  0  0
   14.5494  -16.1840   20.0669 O   0  0  0  0  0  0  0  0  0  0  0  0
   13.4091  -14.2874   19.2153 C   0  0  0  0  0  0  0  0  0  0  0  0
   12.1220  -15.0358   19.2671 C   0  0  2  0  0  0  0  0  0  0  0  0
   11.0752  -14.5246   18.4497 N   0  0  0  0  0  0  0  0  0  0  0  0
   11.7222  -15.2045   20.6894 C   0  0  0  0  0  0  0  0  0  0  0  0
   11.3320  -14.1493   21.2819 O   0  0  0  0  0  0  0  0  0  0  0  0
    5.9011  -20.5019   23.7239 N   0  0  0  0  0  0  0  0  0  0  0  0
    6.5862  -19.8274   24.7994 C   0  0  0  0  0  0  0  0  0  0  0  0
    6.8381  -20.4597   25.9148 N   0  0  0  0  0  0  0  0  0  0  0  0
    7.0018  -18.4804   24.6841 N   0  0  0  0  0  0  0  0  0  0  0  0
    7.5879  -17.9549   23.4748 C   0  0  0  0  0  0  0  0  0  0  0  0
    9.1012  -17.7373   23.6651 C   0  0  0  0  0  0  0  0  0  0  0  0
    9.7417  -17.2895   22.3995 C   0  0  0  0  0  0  0  0  0  0  0  0
   11.0797  -16.6319   22.6377 C   0  0  2  0  0  0  0  0  0  0  0  0
   11.7638  -16.4353   21.3574 N   0  0  0  0  0  0  0  0  0  0  0  0
   11.9451  -17.3403   23.5907 C   0  0  0  0  0  0  0  0  0  0  0  0
   13.2470  -17.7618   23.2391 O   0  0  0  0  0  0  0  0  0  0  0  0
   11.6149  -17.6246   24.7641 O   0  0  0  0  0  0  0  0  0  0  0  0
  2  1  1  6
  3  2  1  0
  4  3  1  0
  4  5  2  0
  6  5  1  0
  7  6  2  0
  8  9  2  0
  8  7  1  0
  9  4  1  0
 10  2  1  0
 11 10  2  0
 13 12  1  0
 14 13  2  0
 15 13  1  0
 16 17  1  0
 16 15  1  1
 17 10  1  0
 18 16  1  0
 19 18  2  0
 20 21  1  0
 21 22  2  0
 21 23  1  0
 23 24  1  0
 25 26  1  0
 25 24  1  0
 27 26  1  6
 27 28  1  0
 28 18  1  0
 29 30  1  0
 29 27  1  0
 31 29  2  0
M  END
$$$$
