FNR.pdb
     RDKit          3D

 31 31  0  0  1  0  0  0  0  0999 V2000
    8.1087  -15.8761   25.7402 N   0  0  0  0  0  0  0  0  0  0  0  0
    6.8124  -15.9445   25.0479 C   0  0  1  0  0  0  0  0  0  0  0  0
    5.9446  -14.9023   25.6728 C   0  0  0  0  0  0  0  0  0  0  0  0
    6.6288  -13.6432   26.0098 C   0  0  0  0  0  0  0  0  0  0  0  0
    5.9157  -12.6209   26.6052 C   0  0  0  0  0  0  0  0  0  0  0  0
    6.5982  -11.4612   26.9054 C   0  0  0  0  0  0  0  0  0  0  0  0
    7.9433  -11.3409   26.6161 C   0  0  0  0  0  0  0  0  0  0  0  0
    8.6579  -12.3576   26.0226 C   0  0  0  0  0  0  0  0  0  0  0  0
    7.9731  -13.5172   25.7231 C   0  0  0  0  0  0  0  0  0  0  0  0
    7.0062  -15.7812   23.5862 C   0  0  0  0  0  0  0  0  0  0  0  0
    6.0680  -16.1865   22.8336 O   0  0  0  0  0  0  0  0  0  0  0  0
    8.4638  -12.7918   18.8199 N   0  0  0  0  0  0  0  0  0  0  0  0
    8.0894  -13.9437   19.5467 C   0  0  0  0  0  0  0  0  0  0  0  0
    7.9460  -15.0067   18.8607 O   0  0  0  0  0  0  0  0  0  0  0  0
    7.8677  -13.9714   20.9925 C   0  0  0  0  0  0  0  0  0  0  0  0
    8.4644  -15.1301   21.7141 C   0  0  2  0  0  0  0  0  0  0  0  0
    8.1872  -15.2007   23.1082 N   0  0  0  0  0  0  0  0  0  0  0  0
    9.9175  -15.1914   21.4044 C   0  0  0  0  0  0  0  0  0  0  0  0
   10.2139  -15.3839   20.1831 O   0  0  0  0  0  0  0  0  0  0  0  0
   10.4268  -20.3061   27.7214 N   0  0  0  0  0  0  0  0  0  0  0  0
   11.2330  -20.8143   26.6385 C   0  0  0  0  0  0  0  0  0  0  0  0
   11.3551  -22.1030   26.4609 N   0  0  0  0  0  0  0  0  0  0  0  0
   11.9073  -19.9481   25.7466 N   0  0  0  0  0  0  0  0  0  0  0  0
   11.4313  -18.6172   25.4562 C   0  0  0  0  0  0  0  0  0  0  0  0
   11.2113  -18.4472   23.9408 C   0  0  0  0  0  0  0  0  0  0  0  0
   10.6328  -17.1126   23.6296 C   0  0  0  0  0  0  0  0  0  0  0  0
   11.6187  -16.2130   22.9238 C   0  0  2  0  0  0  0  0  0  0  0  0
   10.9160  -15.0498   22.3769 N   0  0  0  0  0  0  0  0  0  0  0  0
   12.4156  -16.8798   21.8849 C   0  0  0  0  0  0  0  0  0  0  0  0
   11.8752  -17.9085   21.0812 O   0  0  0  0  0  0  0  0  0  0  0  0
   13.6090  -16.6033   21.6276 O   0  0  0  0  0  0  0  0  0  0  0  0
  2  1  1  1
  3  2  1  0
  4  3  1  0
  4  5  2  0
  6  5  1  0
  7  6  2  0
  8  9  2  0
  8  7  1  0
  9  4  1  0
 10  2  1  0
 11 10  2  0
 13 12  1  0
 14 13  2  0
 15 13  1  0
 16 17  1  0
 16 15  1  1
 17 10  1  0
 18 16  1  0
 19 18  2  0
 20 21  1  0
 21 22  2  0
 21 23  1  0
 23 24  1  0
 25 26  1  0
 25 24  1  0
 27 26  1  6
 27 28  1  0
 28 18  1  0
 29 30  1  0
 29 27  1  0
 31 29  2  0
M  END
$$$$
