FNR.pdb
     RDKit          3D

 31 31  0  0  1  0  0  0  0  0999 V2000
    7.5533  -15.6733   25.8697 N   0  0  0  0  0  0  0  0  0  0  0  0
    7.9091  -15.0354   24.5928 C   0  0  1  0  0  0  0  0  0  0  0  0
    8.4230  -13.6744   24.9296 C   0  0  0  0  0  0  0  0  0  0  0  0
    7.5832  -12.9057   25.8628 C   0  0  0  0  0  0  0  0  0  0  0  0
    6.2980  -12.5597   25.4928 C   0  0  0  0  0  0  0  0  0  0  0  0
    5.5473  -11.8422   26.3997 C   0  0  0  0  0  0  0  0  0  0  0  0
    6.0734  -11.4900   27.6271 C   0  0  0  0  0  0  0  0  0  0  0  0
    7.3541  -11.8328   27.9997 C   0  0  0  0  0  0  0  0  0  0  0  0
    8.1037  -12.5509   27.0909 C   0  0  0  0  0  0  0  0  0  0  0  0
    8.8722  -15.8847   23.8499 C   0  0  0  0  0  0  0  0  0  0  0  0
    9.4166  -15.3731   22.8238 O   0  0  0  0  0  0  0  0  0  0  0  0
   10.0695  -19.7770   26.9156 N   0  0  0  0  0  0  0  0  0  0  0  0
   10.8241  -19.1655   25.8900 C   0  0  0  0  0  0  0  0  0  0  0  0
   11.8522  -18.5189   26.2718 O   0  0  0  0  0  0  0  0  0  0  0  0
   10.4930  -19.2378   24.4668 C   0  0  0  0  0  0  0  0  0  0  0  0
   10.2366  -17.9318   23.7974 C   0  0  2  0  0  0  0  0  0  0  0  0
    9.1348  -17.1842   24.2999 N   0  0  0  0  0  0  0  0  0  0  0  0
   10.1716  -18.1506   22.3280 C   0  0  0  0  0  0  0  0  0  0  0  0
    9.3284  -19.0177   21.9359 O   0  0  0  0  0  0  0  0  0  0  0  0
    8.0283  -14.8347   15.8963 N   0  0  0  0  0  0  0  0  0  0  0  0
    8.0953  -13.9951   17.0675 C   0  0  0  0  0  0  0  0  0  0  0  0
    8.2165  -12.7005   16.9400 N   0  0  0  0  0  0  0  0  0  0  0  0
    8.0325  -14.5370   18.3724 N   0  0  0  0  0  0  0  0  0  0  0  0
    8.2709  -15.9349   18.6394 C   0  0  0  0  0  0  0  0  0  0  0  0
    9.6853  -16.3338   18.1766 C   0  0  0  0  0  0  0  0  0  0  0  0
   10.6510  -16.2918   19.3072 C   0  0  0  0  0  0  0  0  0  0  0  0
   10.8161  -17.6391   19.9681 C   0  0  2  0  0  0  0  0  0  0  0  0
   10.9766  -17.4596   21.4130 N   0  0  0  0  0  0  0  0  0  0  0  0
   11.9049  -18.4579   19.4177 C   0  0  0  0  0  0  0  0  0  0  0  0
   13.2506  -18.2551   19.7974 O   0  0  0  0  0  0  0  0  0  0  0  0
   11.7412  -19.3805   18.5878 O   0  0  0  0  0  0  0  0  0  0  0  0
  2  1  1  1
  3  2  1  0
  4  3  1  0
  4  5  2  0
  6  5  1  0
  7  6  2  0
  8  9  2  0
  8  7  1  0
  9  4  1  0
 10  2  1  0
 11 10  2  0
 13 12  1  0
 14 13  2  0
 15 13  1  0
 16 17  1  0
 16 15  1  1
 17 10  1  0
 18 16  1  0
 19 18  2  0
 20 21  1  0
 21 22  2  0
 21 23  1  0
 23 24  1  0
 25 26  1  0
 25 24  1  0
 27 26  1  6
 27 28  1  0
 28 18  1  0
 29 30  1  0
 29 27  1  0
 31 29  2  0
M  END
$$$$
