MYN.pdb
     RDKit          3D

 29 29  0  0  1  0  0  0  0  0999 V2000
   27.4510  -15.7390  -21.1623 C   0  0  0  0  0  0  0  0  0  0  0  0
   27.5410  -15.2929  -19.4293 S   0  0  0  0  0  0  0  0  0  0  0  0
   26.0136  -15.1083  -18.5678 C   0  0  0  0  0  0  0  0  0  0  0  0
   25.2941  -16.3174  -18.0918 C   0  0  0  0  0  0  0  0  0  0  0  0
   26.0462  -17.3549  -17.3523 C   0  0  2  0  0  0  0  0  0  0  0  0
   27.1343  -17.9590  -18.0582 N   0  0  0  0  0  0  0  0  0  0  0  0
   25.1828  -18.4484  -16.8359 C   0  0  0  0  0  0  0  0  0  0  0  0
   25.0967  -19.5530  -17.4032 O   0  0  0  0  0  0  0  0  0  0  0  0
   28.9896  -22.1390  -13.3016 O   0  0  0  0  0  0  0  0  0  0  0  0
   27.7516  -21.5046  -13.3747 C   0  0  0  0  0  0  0  0  0  0  0  0
   27.6414  -20.1433  -13.2227 C   0  0  0  0  0  0  0  0  0  0  0  0
   26.4040  -19.4872  -13.2931 C   0  0  0  0  0  0  0  0  0  0  0  0
   25.2436  -20.1800  -13.5184 C   0  0  0  0  0  0  0  0  0  0  0  0
   23.8846  -19.5702  -13.6221 C   0  0  0  0  0  0  0  0  0  0  0  0
   23.5437  -19.1728  -15.0505 C   0  0  2  0  0  0  0  0  0  0  0  0
   24.4248  -18.2345  -15.6523 N   0  0  0  0  0  0  0  0  0  0  0  0
   22.1121  -18.8307  -15.0929 C   0  0  0  0  0  0  0  0  0  0  0  0
   21.7668  -17.6285  -14.9818 O   0  0  0  0  0  0  0  0  0  0  0  0
   25.3710  -21.5732  -13.6719 C   0  0  0  0  0  0  0  0  0  0  0  0
   26.5876  -22.2072  -13.6012 C   0  0  0  0  0  0  0  0  0  0  0  0
   18.0986  -17.3215  -17.9153 N   0  0  0  0  0  0  0  0  0  0  0  0
   18.6025  -18.6614  -17.8911 C   0  0  0  0  0  0  0  0  0  0  0  0
   17.9623  -19.6007  -18.3845 O   0  0  0  0  0  0  0  0  0  0  0  0
   19.9256  -18.9161  -17.2558 C   0  0  0  0  0  0  0  0  0  0  0  0
   19.8255  -19.5229  -15.9003 C   0  0  2  0  0  0  0  0  0  0  0  0
   21.0728  -19.7972  -15.2552 N   0  0  0  0  0  0  0  0  0  0  0  0
   19.0800  -20.8143  -16.0299 C   0  0  0  0  0  0  0  0  0  0  0  0
   17.8358  -20.8347  -16.2352 O   0  0  0  0  0  0  0  0  0  0  0  0
   19.7232  -22.0464  -15.9303 O   0  0  0  0  0  0  0  0  0  0  0  0
  2  1  1  0
  3  2  1  0
  4  3  1  0
  5  4  1  0
  5  6  1  6
  7 16  1  0
  7  5  1  0
  8  7  2  0
  9 10  1  0
 10 11  2  0
 11 12  1  0
 13 12  2  0
 13 14  1  0
 15 14  1  1
 15 16  1  0
 17 15  1  0
 17 26  1  0
 18 17  2  0
 19 13  1  0
 20 10  1  0
 20 19  2  0
 21 22  1  0
 22 24  1  0
 23 22  2  0
 25 24  1  6
 25 26  1  0
 25 27  1  0
 27 28  2  0
 27 29  1  0
M  END
$$$$
