MYN.pdb
     RDKit          3D

 29 29  0  0  1  0  0  0  0  0999 V2000
   30.3537  -26.6424  -17.2288 C   0  0  0  0  0  0  0  0  0  0  0  0
   30.5079  -25.4157  -18.5256 S   0  0  0  0  0  0  0  0  0  0  0  0
   29.5242  -23.9601  -18.3745 C   0  0  0  0  0  0  0  0  0  0  0  0
   28.3928  -23.9412  -17.4122 C   0  0  0  0  0  0  0  0  0  0  0  0
   27.5994  -22.7014  -17.2622 C   0  0  2  0  0  0  0  0  0  0  0  0
   28.3398  -21.4778  -17.3049 N   0  0  0  0  0  0  0  0  0  0  0  0
   26.7697  -22.6822  -16.0298 C   0  0  0  0  0  0  0  0  0  0  0  0
   26.0636  -23.6484  -15.6875 O   0  0  0  0  0  0  0  0  0  0  0  0
   23.8365  -20.5716   -7.9847 O   0  0  0  0  0  0  0  0  0  0  0  0
   24.4940  -20.5199   -9.2117 C   0  0  0  0  0  0  0  0  0  0  0  0
   23.9868  -19.7885  -10.2587 C   0  0  0  0  0  0  0  0  0  0  0  0
   24.6344  -19.7246  -11.5009 C   0  0  0  0  0  0  0  0  0  0  0  0
   25.8092  -20.3931  -11.7256 C   0  0  0  0  0  0  0  0  0  0  0  0
   26.5769  -20.3756  -13.0061 C   0  0  0  0  0  0  0  0  0  0  0  0
   25.9950  -21.3336  -14.0348 C   0  0  2  0  0  0  0  0  0  0  0  0
   26.7763  -21.5233  -15.2062 N   0  0  0  0  0  0  0  0  0  0  0  0
   24.5877  -20.9590  -14.2530 C   0  0  0  0  0  0  0  0  0  0  0  0
   24.3258  -19.9150  -14.8998 O   0  0  0  0  0  0  0  0  0  0  0  0
   26.3171  -21.1383  -10.6451 C   0  0  0  0  0  0  0  0  0  0  0  0
   25.6754  -21.1950   -9.4317 C   0  0  0  0  0  0  0  0  0  0  0  0
   19.4549  -20.8229  -14.5713 N   0  0  0  0  0  0  0  0  0  0  0  0
   19.8084  -22.2100  -14.5447 C   0  0  0  0  0  0  0  0  0  0  0  0
   18.9730  -23.0937  -14.7836 O   0  0  0  0  0  0  0  0  0  0  0  0
   21.2138  -22.5836  -14.2215 C   0  0  0  0  0  0  0  0  0  0  0  0
   22.1148  -21.4110  -14.0521 C   0  0  2  0  0  0  0  0  0  0  0  0
   23.4820  -21.7217  -13.7668 N   0  0  0  0  0  0  0  0  0  0  0  0
   21.5847  -20.5848  -12.9222 C   0  0  0  0  0  0  0  0  0  0  0  0
   20.6395  -19.7679  -13.0952 O   0  0  0  0  0  0  0  0  0  0  0  0
   22.1085  -20.6799  -11.6345 O   0  0  0  0  0  0  0  0  0  0  0  0
  2  1  1  0
  3  2  1  0
  4  3  1  0
  5  4  1  0
  5  6  1  1
  7 16  1  0
  7  5  1  0
  8  7  2  0
  9 10  1  0
 10 11  2  0
 11 12  1  0
 13 12  2  0
 13 14  1  0
 15 14  1  1
 15 16  1  0
 17 15  1  0
 17 26  1  0
 18 17  2  0
 19 13  1  0
 20 10  1  0
 20 19  2  0
 21 22  1  0
 22 24  1  0
 23 22  2  0
 25 24  1  1
 25 26  1  0
 25 27  1  0
 27 28  2  0
 27 29  1  0
M  END
$$$$
