MYN.pdb
     RDKit          3D

 29 29  0  0  1  0  0  0  0  0999 V2000
   12.9289  -21.6651    5.2798 C   0  0  0  0  0  0  0  0  0  0  0  0
   14.6180  -21.0712    5.3465 S   0  0  0  0  0  0  0  0  0  0  0  0
   14.9481  -19.5055    4.6054 C   0  0  0  0  0  0  0  0  0  0  0  0
   16.2454  -18.8324    4.8702 C   0  0  0  0  0  0  0  0  0  0  0  0
   16.5269  -17.5352    4.2166 C   0  0  2  0  0  0  0  0  0  0  0  0
   16.3125  -17.4893    2.8026 N   0  0  0  0  0  0  0  0  0  0  0  0
   17.8999  -17.0321    4.4797 C   0  0  0  0  0  0  0  0  0  0  0  0
   18.7295  -16.8534    3.5691 O   0  0  0  0  0  0  0  0  0  0  0  0
   21.1765   -9.6086    7.5051 O   0  0  0  0  0  0  0  0  0  0  0  0
   20.4732  -10.7409    7.1005 C   0  0  0  0  0  0  0  0  0  0  0  0
   21.0570  -11.6891    6.2952 C   0  0  0  0  0  0  0  0  0  0  0  0
   20.3648  -12.8351    5.8778 C   0  0  0  0  0  0  0  0  0  0  0  0
   19.0679  -13.0604    6.2578 C   0  0  0  0  0  0  0  0  0  0  0  0
   18.2550  -14.2533    5.8759 C   0  0  0  0  0  0  0  0  0  0  0  0
   18.9424  -15.5576    6.2512 C   0  0  2  0  0  0  0  0  0  0  0  0
   18.2889  -16.7418    5.8161 N   0  0  0  0  0  0  0  0  0  0  0  0
   19.2746  -15.4950    7.6844 C   0  0  0  0  0  0  0  0  0  0  0  0
   19.7585  -14.4359    8.1545 O   0  0  0  0  0  0  0  0  0  0  0  0
   18.4824  -12.0813    7.0821 C   0  0  0  0  0  0  0  0  0  0  0  0
   19.1684  -10.9617    7.4858 C   0  0  0  0  0  0  0  0  0  0  0  0
   21.6705  -19.1617   10.5587 N   0  0  0  0  0  0  0  0  0  0  0  0
   21.9696  -18.8962    9.1840 C   0  0  0  0  0  0  0  0  0  0  0  0
   22.8437  -19.5330    8.5790 O   0  0  0  0  0  0  0  0  0  0  0  0
   21.2057  -17.8288    8.4795 C   0  0  0  0  0  0  0  0  0  0  0  0
   20.1366  -17.2156    9.3142 C   0  0  2  0  0  0  0  0  0  0  0  0
   19.0777  -16.5822    8.5899 N   0  0  0  0  0  0  0  0  0  0  0  0
   20.7749  -16.1852   10.1923 C   0  0  0  0  0  0  0  0  0  0  0  0
   21.5418  -16.5145   11.1379 O   0  0  0  0  0  0  0  0  0  0  0  0
   20.5520  -14.8223   10.0062 O   0  0  0  0  0  0  0  0  0  0  0  0
  2  1  1  0
  3  2  1  0
  4  3  1  0
  5  4  1  0
  5  6  1  6
  7 16  1  0
  7  5  1  0
  8  7  2  0
  9 10  1  0
 10 11  2  0
 11 12  1  0
 13 12  2  0
 13 14  1  0
 15 14  1  1
 15 16  1  0
 17 15  1  0
 17 26  1  0
 18 17  2  0
 19 13  1  0
 20 10  1  0
 20 19  2  0
 21 22  1  0
 22 24  1  0
 23 22  2  0
 25 24  1  6
 25 26  1  0
 25 27  1  0
 27 28  2  0
 27 29  1  0
M  END
$$$$
