MYN.pdb
     RDKit          3D

 29 29  0  0  1  0  0  0  0  0999 V2000
   31.0142  -40.3406   -2.0401 C   0  0  0  0  0  0  0  0  0  0  0  0
   30.1200  -38.9978   -2.8196 S   0  0  0  0  0  0  0  0  0  0  0  0
   29.0876  -38.0129   -1.7835 C   0  0  0  0  0  0  0  0  0  0  0  0
   28.2547  -36.9429   -2.3897 C   0  0  0  0  0  0  0  0  0  0  0  0
   28.8990  -35.6726   -2.7900 C   0  0  2  0  0  0  0  0  0  0  0  0
   29.5535  -34.9481   -1.7441 N   0  0  0  0  0  0  0  0  0  0  0  0
   27.9711  -34.7349   -3.4739 C   0  0  0  0  0  0  0  0  0  0  0  0
   27.4083  -33.8001   -2.8751 O   0  0  0  0  0  0  0  0  0  0  0  0
   23.5745  -30.8230  -10.1670 O   0  0  0  0  0  0  0  0  0  0  0  0
   24.4941  -31.5463   -9.4110 C   0  0  0  0  0  0  0  0  0  0  0  0
   25.1554  -30.9682   -8.3541 C   0  0  0  0  0  0  0  0  0  0  0  0
   26.0843  -31.6804   -7.5818 C   0  0  0  0  0  0  0  0  0  0  0  0
   26.3744  -32.9924   -7.8494 C   0  0  0  0  0  0  0  0  0  0  0  0
   27.3362  -33.8348   -7.0782 C   0  0  0  0  0  0  0  0  0  0  0  0
   26.8648  -34.0817   -5.6529 C   0  0  2  0  0  0  0  0  0  0  0  0
   27.7110  -34.9039   -4.8614 N   0  0  0  0  0  0  0  0  0  0  0  0
   25.4487  -34.4818   -5.7103 C   0  0  0  0  0  0  0  0  0  0  0  0
   25.1609  -35.6797   -5.9530 O   0  0  0  0  0  0  0  0  0  0  0  0
   25.6903  -33.5718   -8.9345 C   0  0  0  0  0  0  0  0  0  0  0  0
   24.7820  -32.8660   -9.6855 C   0  0  0  0  0  0  0  0  0  0  0  0
   22.4230  -35.1423   -2.9461 N   0  0  0  0  0  0  0  0  0  0  0  0
   21.9128  -33.8225   -3.1642 C   0  0  0  0  0  0  0  0  0  0  0  0
   21.2836  -33.2198   -2.2830 O   0  0  0  0  0  0  0  0  0  0  0  0
   22.1512  -33.1730   -4.4835 C   0  0  0  0  0  0  0  0  0  0  0  0
   22.9955  -33.9863   -5.4008 C   0  0  2  0  0  0  0  0  0  0  0  0
   24.3626  -33.5771   -5.5037 N   0  0  0  0  0  0  0  0  0  0  0  0
   22.3888  -33.9143   -6.7672 C   0  0  0  0  0  0  0  0  0  0  0  0
   22.6655  -34.7688   -7.6526 O   0  0  0  0  0  0  0  0  0  0  0  0
   21.4955  -32.9053   -7.1214 O   0  0  0  0  0  0  0  0  0  0  0  0
  2  1  1  0
  3  2  1  0
  4  3  1  0
  5  4  1  0
  5  6  1  1
  7 16  1  0
  7  5  1  0
  8  7  2  0
  9 10  1  0
 10 11  2  0
 11 12  1  0
 13 12  2  0
 13 14  1  0
 15 14  1  6
 15 16  1  0
 17 15  1  0
 17 26  1  0
 18 17  2  0
 19 13  1  0
 20 10  1  0
 20 19  2  0
 21 22  1  0
 22 24  1  0
 23 22  2  0
 25 24  1  1
 25 26  1  0
 25 27  1  0
 27 28  2  0
 27 29  1  0
M  END
$$$$
