MYN.pdb
     RDKit          3D

 29 29  0  0  1  0  0  0  0  0999 V2000
   28.1009  -18.3152   -5.1808 C   0  0  0  0  0  0  0  0  0  0  0  0
   27.7309  -20.0636   -5.0531 S   0  0  0  0  0  0  0  0  0  0  0  0
   27.7484  -20.9989   -6.5478 C   0  0  0  0  0  0  0  0  0  0  0  0
   26.8935  -20.5722   -7.6851 C   0  0  0  0  0  0  0  0  0  0  0  0
   26.9934  -21.2994   -8.9698 C   0  0  2  0  0  0  0  0  0  0  0  0
   28.3190  -21.5152   -9.4632 N   0  0  0  0  0  0  0  0  0  0  0  0
   26.2039  -20.6722  -10.0611 C   0  0  0  0  0  0  0  0  0  0  0  0
   26.5462  -19.6045  -10.6015 O   0  0  0  0  0  0  0  0  0  0  0  0
   28.9121  -20.3290  -16.1955 O   0  0  0  0  0  0  0  0  0  0  0  0
   27.8636  -20.7482  -15.3797 C   0  0  0  0  0  0  0  0  0  0  0  0
   28.0671  -21.6665  -14.3778 C   0  0  0  0  0  0  0  0  0  0  0  0
   27.0241  -22.1003  -13.5468 C   0  0  0  0  0  0  0  0  0  0  0  0
   25.7486  -21.6236  -13.6988 C   0  0  0  0  0  0  0  0  0  0  0  0
   24.5787  -22.0147  -12.8574 C   0  0  0  0  0  0  0  0  0  0  0  0
   24.3328  -21.0280  -11.7259 C   0  0  2  0  0  0  0  0  0  0  0  0
   25.0139  -21.3072  -10.5106 N   0  0  0  0  0  0  0  0  0  0  0  0
   22.8788  -20.8220  -11.6165 C   0  0  0  0  0  0  0  0  0  0  0  0
   22.2259  -21.4992  -10.7847 O   0  0  0  0  0  0  0  0  0  0  0  0
   25.5544  -20.6841  -14.7286 C   0  0  0  0  0  0  0  0  0  0  0  0
   26.5824  -20.2652  -15.5379 C   0  0  0  0  0  0  0  0  0  0  0  0
   18.3833  -17.2894  -11.9512 N   0  0  0  0  0  0  0  0  0  0  0  0
   18.7510  -18.2918  -12.9050 C   0  0  0  0  0  0  0  0  0  0  0  0
   17.8946  -18.9311  -13.5322 O   0  0  0  0  0  0  0  0  0  0  0  0
   20.1977  -18.5609  -13.1374 C   0  0  0  0  0  0  0  0  0  0  0  0
   20.7627  -19.5928  -12.2255 C   0  0  2  0  0  0  0  0  0  0  0  0
   22.1513  -19.8839  -12.4110 N   0  0  0  0  0  0  0  0  0  0  0  0
   19.9943  -20.8600  -12.4349 C   0  0  0  0  0  0  0  0  0  0  0  0
   19.0327  -21.1750  -11.6820 O   0  0  0  0  0  0  0  0  0  0  0  0
   20.3046  -21.7449  -13.4656 O   0  0  0  0  0  0  0  0  0  0  0  0
  2  1  1  0
  3  2  1  0
  4  3  1  0
  5  4  1  0
  5  6  1  6
  7 16  1  0
  7  5  1  0
  8  7  2  0
  9 10  1  0
 10 11  2  0
 11 12  1  0
 13 12  2  0
 13 14  1  0
 15 14  1  6
 15 16  1  0
 17 15  1  0
 17 26  1  0
 18 17  2  0
 19 13  1  0
 20 10  1  0
 20 19  2  0
 21 22  1  0
 22 24  1  0
 23 22  2  0
 25 24  1  6
 25 26  1  0
 25 27  1  0
 27 28  2  0
 27 29  1  0
M  END
$$$$
