MYN.pdb
     RDKit          3D

 29 29  0  0  1  0  0  0  0  0999 V2000
   30.6269  -25.6798  -17.8339 C   0  0  0  0  0  0  0  0  0  0  0  0
   30.8498  -24.1070  -18.6627 S   0  0  0  0  0  0  0  0  0  0  0  0
   29.6266  -22.8693  -18.3779 C   0  0  0  0  0  0  0  0  0  0  0  0
   28.3431  -23.2474  -17.7329 C   0  0  0  0  0  0  0  0  0  0  0  0
   27.3376  -22.1954  -17.4654 C   0  0  2  0  0  0  0  0  0  0  0  0
   27.7966  -20.8463  -17.5940 N   0  0  0  0  0  0  0  0  0  0  0  0
   26.6933  -22.3259  -16.1329 C   0  0  0  0  0  0  0  0  0  0  0  0
   26.1606  -23.3844  -15.7518 O   0  0  0  0  0  0  0  0  0  0  0  0
   23.8240  -20.6757   -7.9969 O   0  0  0  0  0  0  0  0  0  0  0  0
   24.5639  -20.6376   -9.1766 C   0  0  0  0  0  0  0  0  0  0  0  0
   25.8724  -21.0560   -9.2077 C   0  0  0  0  0  0  0  0  0  0  0  0
   26.6329  -21.0251  -10.3855 C   0  0  0  0  0  0  0  0  0  0  0  0
   26.1001  -20.5736  -11.5643 C   0  0  0  0  0  0  0  0  0  0  0  0
   26.8246  -20.5148  -12.8686 C   0  0  0  0  0  0  0  0  0  0  0  0
   26.0240  -21.1484  -13.9965 C   0  0  2  0  0  0  0  0  0  0  0  0
   26.6800  -21.2074  -15.2554 N   0  0  0  0  0  0  0  0  0  0  0  0
   24.6846  -20.5364  -13.9963 C   0  0  0  0  0  0  0  0  0  0  0  0
   24.5629  -19.3306  -14.3251 O   0  0  0  0  0  0  0  0  0  0  0  0
   24.7593  -20.1480  -11.5181 C   0  0  0  0  0  0  0  0  0  0  0  0
   24.0223  -20.1818  -10.3593 C   0  0  0  0  0  0  0  0  0  0  0  0
   19.7382  -20.6392  -16.6604 N   0  0  0  0  0  0  0  0  0  0  0  0
   20.5279  -20.0091  -15.6459 C   0  0  0  0  0  0  0  0  0  0  0  0
   20.0922  -19.0521  -14.9903 O   0  0  0  0  0  0  0  0  0  0  0  0
   21.9003  -20.5260  -15.3844 C   0  0  0  0  0  0  0  0  0  0  0  0
   22.1748  -20.7766  -13.9431 C   0  0  2  0  0  0  0  0  0  0  0  0
   23.4939  -21.2403  -13.6394 N   0  0  0  0  0  0  0  0  0  0  0  0
   21.2020  -21.8082  -13.4636 C   0  0  0  0  0  0  0  0  0  0  0  0
   20.1030  -21.4789  -12.9398 O   0  0  0  0  0  0  0  0  0  0  0  0
   21.4649  -23.1722  -13.5736 O   0  0  0  0  0  0  0  0  0  0  0  0
  2  1  1  0
  3  2  1  0
  4  3  1  0
  5  4  1  0
  5  6  1  1
  7 16  1  0
  7  5  1  0
  8  7  2  0
  9 10  1  0
 10 11  2  0
 11 12  1  0
 13 12  2  0
 13 14  1  0
 15 14  1  1
 15 16  1  0
 17 15  1  0
 17 26  1  0
 18 17  2  0
 19 13  1  0
 20 10  1  0
 20 19  2  0
 21 22  1  0
 22 24  1  0
 23 22  2  0
 25 24  1  6
 25 26  1  0
 25 27  1  0
 27 28  2  0
 27 29  1  0
M  END
$$$$
