MYN.pdb
     RDKit          3D

 29 29  0  0  1  0  0  0  0  0999 V2000
   26.1398  -18.6883  -20.2192 C   0  0  0  0  0  0  0  0  0  0  0  0
   27.7744  -19.3111  -20.6071 S   0  0  0  0  0  0  0  0  0  0  0  0
   28.4978  -20.4367  -19.4586 C   0  0  0  0  0  0  0  0  0  0  0  0
   27.6947  -20.9192  -18.3061 C   0  0  0  0  0  0  0  0  0  0  0  0
   28.3301  -21.8136  -17.3134 C   0  0  2  0  0  0  0  0  0  0  0  0
   28.6869  -23.1164  -17.7855 N   0  0  0  0  0  0  0  0  0  0  0  0
   27.5210  -21.9885  -16.0795 C   0  0  0  0  0  0  0  0  0  0  0  0
   26.6956  -22.9111  -15.9498 O   0  0  0  0  0  0  0  0  0  0  0  0
   24.0738  -20.3335   -8.0791 O   0  0  0  0  0  0  0  0  0  0  0  0
   24.9356  -20.3714   -9.1728 C   0  0  0  0  0  0  0  0  0  0  0  0
   25.7971  -21.4252   -9.3617 C   0  0  0  0  0  0  0  0  0  0  0  0
   26.6717  -21.4808  -10.4565 C   0  0  0  0  0  0  0  0  0  0  0  0
   26.7049  -20.4800  -11.3916 C   0  0  0  0  0  0  0  0  0  0  0  0
   27.5896  -20.4561  -12.5942 C   0  0  0  0  0  0  0  0  0  0  0  0
   26.8994  -21.0284  -13.8233 C   0  0  2  0  0  0  0  0  0  0  0  0
   27.6889  -21.0744  -15.0036 N   0  0  0  0  0  0  0  0  0  0  0  0
   25.5885  -20.3697  -13.9507 C   0  0  0  0  0  0  0  0  0  0  0  0
   25.5410  -19.1631  -14.2952 O   0  0  0  0  0  0  0  0  0  0  0  0
   25.8177  -19.4069  -11.1858 C   0  0  0  0  0  0  0  0  0  0  0  0
   24.9646  -19.3611  -10.1101 C   0  0  0  0  0  0  0  0  0  0  0  0
   22.9811  -22.9615  -14.8365 N   0  0  0  0  0  0  0  0  0  0  0  0
   22.3797  -21.9365  -15.6349 C   0  0  0  0  0  0  0  0  0  0  0  0
   21.8574  -22.1935  -16.7289 O   0  0  0  0  0  0  0  0  0  0  0  0
   22.3896  -20.5363  -15.1265 C   0  0  0  0  0  0  0  0  0  0  0  0
   23.0705  -20.3879  -13.8113 C   0  0  2  0  0  0  0  0  0  0  0  0
   24.3454  -21.0284  -13.7027 N   0  0  0  0  0  0  0  0  0  0  0  0
   22.1732  -20.9667  -12.7624 C   0  0  0  0  0  0  0  0  0  0  0  0
   22.5232  -21.9687  -12.0812 O   0  0  0  0  0  0  0  0  0  0  0  0
   20.9170  -20.4277  -12.4922 O   0  0  0  0  0  0  0  0  0  0  0  0
  2  1  1  0
  3  2  1  0
  4  3  1  0
  5  4  1  0
  5  6  1  6
  7 16  1  0
  7  5  1  0
  8  7  2  0
  9 10  1  0
 10 11  2  0
 11 12  1  0
 13 12  2  0
 13 14  1  0
 15 14  1  1
 15 16  1  0
 17 15  1  0
 17 26  1  0
 18 17  2  0
 19 13  1  0
 20 10  1  0
 20 19  2  0
 21 22  1  0
 22 24  1  0
 23 22  2  0
 25 24  1  6
 25 26  1  0
 25 27  1  0
 27 28  2  0
 27 29  1  0
M  END
$$$$
