MYN.pdb
     RDKit          3D

 29 29  0  0  1  0  0  0  0  0999 V2000
   23.0808  -16.7623   15.1192 C   0  0  0  0  0  0  0  0  0  0  0  0
   21.4756  -16.4443   14.3893 S   0  0  0  0  0  0  0  0  0  0  0  0
   21.2321  -14.8656   13.6426 C   0  0  0  0  0  0  0  0  0  0  0  0
   19.9174  -14.5432   13.0311 C   0  0  0  0  0  0  0  0  0  0  0  0
   19.7095  -13.2013   12.4436 C   0  0  2  0  0  0  0  0  0  0  0  0
   19.1824  -12.2076   13.3280 N   0  0  0  0  0  0  0  0  0  0  0  0
   18.8553  -13.2197   11.2279 C   0  0  0  0  0  0  0  0  0  0  0  0
   17.6927  -12.7753   11.2243 O   0  0  0  0  0  0  0  0  0  0  0  0
   15.6927  -13.0937    3.1186 O   0  0  0  0  0  0  0  0  0  0  0  0
   16.5599  -13.1290    4.2083 C   0  0  0  0  0  0  0  0  0  0  0  0
   17.3759  -14.2119    4.4315 C   0  0  0  0  0  0  0  0  0  0  0  0
   18.2550  -14.2653    5.5228 C   0  0  0  0  0  0  0  0  0  0  0  0
   18.3390  -13.2328    6.4195 C   0  0  0  0  0  0  0  0  0  0  0  0
   19.2506  -13.1925    7.6013 C   0  0  0  0  0  0  0  0  0  0  0  0
   18.6607  -13.9146    8.8034 C   0  0  2  0  0  0  0  0  0  0  0  0
   19.3762  -13.7623   10.0214 N   0  0  0  0  0  0  0  0  0  0  0  0
   18.3680  -15.2995    8.3974 C   0  0  0  0  0  0  0  0  0  0  0  0
   19.3072  -16.1309    8.3378 O   0  0  0  0  0  0  0  0  0  0  0  0
   17.4976  -12.1304    6.1791 C   0  0  0  0  0  0  0  0  0  0  0  0
   16.6394  -12.0872    5.1073 C   0  0  0  0  0  0  0  0  0  0  0  0
   16.1258  -19.7916    7.2922 N   0  0  0  0  0  0  0  0  0  0  0  0
   15.0212  -18.8881    7.4075 C   0  0  0  0  0  0  0  0  0  0  0  0
   13.8504  -19.2869    7.3312 O   0  0  0  0  0  0  0  0  0  0  0  0
   15.3009  -17.4409    7.6235 C   0  0  0  0  0  0  0  0  0  0  0  0
   16.7474  -17.1362    7.7975 C   0  0  2  0  0  0  0  0  0  0  0  0
   17.0601  -15.7651    8.0609 N   0  0  0  0  0  0  0  0  0  0  0  0
   17.4548  -17.5368    6.5408 C   0  0  0  0  0  0  0  0  0  0  0  0
   17.3476  -16.8574    5.4836 O   0  0  0  0  0  0  0  0  0  0  0  0
   18.2599  -18.6727    6.4818 O   0  0  0  0  0  0  0  0  0  0  0  0
  2  1  1  0
  3  2  1  0
  4  3  1  0
  5  4  1  0
  5  6  1  1
  7 16  1  0
  7  5  1  0
  8  7  2  0
  9 10  1  0
 10 11  2  0
 11 12  1  0
 13 12  2  0
 13 14  1  0
 15 14  1  6
 15 16  1  0
 17 15  1  0
 17 26  1  0
 18 17  2  0
 19 13  1  0
 20 10  1  0
 20 19  2  0
 21 22  1  0
 22 24  1  0
 23 22  2  0
 25 24  1  6
 25 26  1  0
 25 27  1  0
 27 28  2  0
 27 29  1  0
M  END
$$$$
