MYN.pdb
     RDKit          3D

 29 29  0  0  1  0  0  0  0  0999 V2000
   33.1953  -23.5710  -11.9403 C   0  0  0  0  0  0  0  0  0  0  0  0
   33.5767  -23.6794  -13.6877 S   0  0  0  0  0  0  0  0  0  0  0  0
   32.2776  -23.2991  -14.8177 C   0  0  0  0  0  0  0  0  0  0  0  0
   30.8895  -23.1519  -14.3102 C   0  0  0  0  0  0  0  0  0  0  0  0
   29.8587  -22.5715  -15.1989 C   0  0  2  0  0  0  0  0  0  0  0  0
   30.1605  -21.2850  -15.7477 N   0  0  0  0  0  0  0  0  0  0  0  0
   28.5181  -22.4862  -14.5639 C   0  0  0  0  0  0  0  0  0  0  0  0
   27.7506  -23.4638  -14.4949 O   0  0  0  0  0  0  0  0  0  0  0  0
   22.1579  -20.4697   -8.9338 O   0  0  0  0  0  0  0  0  0  0  0  0
   23.2950  -20.3785   -9.7332 C   0  0  0  0  0  0  0  0  0  0  0  0
   23.2141  -19.9505  -11.0365 C   0  0  0  0  0  0  0  0  0  0  0  0
   24.3477  -19.8523  -11.8564 C   0  0  0  0  0  0  0  0  0  0  0  0
   25.5933  -20.1808  -11.3898 C   0  0  0  0  0  0  0  0  0  0  0  0
   26.8571  -20.0972  -12.1805 C   0  0  0  0  0  0  0  0  0  0  0  0
   26.8291  -21.0050  -13.4010 C   0  0  2  0  0  0  0  0  0  0  0  0
   28.0882  -21.2481  -14.0128 N   0  0  0  0  0  0  0  0  0  0  0  0
   25.7612  -20.5251  -14.2942 C   0  0  0  0  0  0  0  0  0  0  0  0
   26.0670  -19.8344  -15.2973 O   0  0  0  0  0  0  0  0  0  0  0  0
   25.6616  -20.6178  -10.0536 C   0  0  0  0  0  0  0  0  0  0  0  0
   24.5455  -20.7109   -9.2581 C   0  0  0  0  0  0  0  0  0  0  0  0
   24.5130  -21.6618  -18.6568 N   0  0  0  0  0  0  0  0  0  0  0  0
   24.0501  -20.9154  -17.5262 C   0  0  0  0  0  0  0  0  0  0  0  0
   23.9682  -19.6793  -17.5584 O   0  0  0  0  0  0  0  0  0  0  0  0
   23.6622  -21.6542  -16.2921 C   0  0  0  0  0  0  0  0  0  0  0  0
   23.3936  -20.7653  -15.1288 C   0  0  2  0  0  0  0  0  0  0  0  0
   24.3748  -20.8006  -14.0880 N   0  0  0  0  0  0  0  0  0  0  0  0
   22.0794  -21.1690  -14.5370 C   0  0  0  0  0  0  0  0  0  0  0  0
   21.9188  -22.3042  -14.0113 O   0  0  0  0  0  0  0  0  0  0  0  0
   20.9793  -20.3138  -14.5398 O   0  0  0  0  0  0  0  0  0  0  0  0
  2  1  1  0
  3  2  1  0
  4  3  1  0
  5  4  1  0
  5  6  1  1
  7 16  1  0
  7  5  1  0
  8  7  2  0
  9 10  1  0
 10 11  2  0
 11 12  1  0
 13 12  2  0
 13 14  1  0
 15 14  1  1
 15 16  1  0
 17 15  1  0
 17 26  1  0
 18 17  2  0
 19 13  1  0
 20 10  1  0
 20 19  2  0
 21 22  1  0
 22 24  1  0
 23 22  2  0
 25 24  1  6
 25 26  1  0
 25 27  1  0
 27 28  2  0
 27 29  1  0
M  END
$$$$
