LCV.pdb
     RDKit          3D

 22 21  0  0  1  0  0  0  0  0999 V2000
   26.5967  -18.3162   -6.9824 C   0  0  0  0  0  0  0  0  0  0  0  0
   27.1410  -19.7454   -6.9357 C   0  0  2  0  0  0  0  0  0  0  0  0
   28.4487  -19.6695   -6.2067 C   0  0  0  0  0  0  0  0  0  0  0  0
   27.2526  -20.3191   -8.3272 C   0  0  0  0  0  0  0  0  0  0  0  0
   25.9048  -20.3438   -8.9687 C   0  0  2  0  0  0  0  0  0  0  0  0
   25.0450  -21.2458   -8.2312 N   0  0  0  0  0  0  0  0  0  0  0  0
   25.9366  -20.7542  -10.3818 C   0  0  0  0  0  0  0  0  0  0  0  0
   26.3338  -21.9085  -10.6727 O   0  0  0  0  0  0  0  0  0  0  0  0
   25.5410  -19.9168  -11.4546 N   0  0  0  0  0  0  0  0  0  0  0  0
   25.2734  -20.4899  -12.7878 C   0  0  1  0  0  0  0  0  0  0  0  0
   24.1058  -21.4419  -12.6243 C   0  0  0  0  0  0  0  0  0  0  0  0
   23.6071  -22.1301  -14.1840 S   0  0  0  0  0  0  0  0  0  0  0  0
   25.0754  -19.4355  -13.7737 C   0  0  0  0  0  0  0  0  0  0  0  0
   24.1616  -18.5643  -13.5631 O   0  0  0  0  0  0  0  0  0  0  0  0
   27.8874  -18.6630  -16.8247 C   0  0  0  0  0  0  0  0  0  0  0  0
   27.0627  -17.5805  -16.1617 C   0  0  2  0  0  0  0  0  0  0  0  0
   27.8240  -17.1317  -14.9360 C   0  0  0  0  0  0  0  0  0  0  0  0
   25.7204  -18.1637  -15.8165 C   0  0  2  0  0  0  0  0  0  0  0  0
   25.8309  -19.3160  -14.9435 N   0  0  0  0  0  0  0  0  0  0  0  0
   25.0450  -18.5367  -17.0818 C   0  0  0  0  0  0  0  0  0  0  0  0
   24.6576  -17.6874  -17.9151 O   0  0  0  0  0  0  0  0  0  0  0  0
   24.8413  -19.8831  -17.3385 O   0  0  0  0  0  0  0  0  0  0  0  0
  2  1  1  6
  2  4  1  0
  3  2  1  0
  4  5  1  0
  5  6  1  1
  5  7  1  0
  7  9  1  0
  7  8  2  0
  9 10  1  0
 10 13  1  0
 10 11  1  1
 11 12  1  0
 13 14  2  0
 16 17  1  1
 16 18  1  0
 16 15  1  0
 18 19  1  1
 19 13  1  0
 20 22  1  0
 20 18  1  0
 21 20  2  0
M  END
$$$$
