LCV.pdb
     RDKit          3D

 22 21  0  0  1  0  0  0  0  0999 V2000
   18.8549  -10.1560  -18.3810 C   0  0  0  0  0  0  0  0  0  0  0  0
   18.5044  -11.0354  -17.1789 C   0  0  2  0  0  0  0  0  0  0  0  0
   17.0984  -11.5048  -17.4021 C   0  0  0  0  0  0  0  0  0  0  0  0
   18.6945  -10.2753  -15.8890 C   0  0  0  0  0  0  0  0  0  0  0  0
   20.1078   -9.8051  -15.7880 C   0  0  2  0  0  0  0  0  0  0  0  0
   20.9255  -10.8725  -15.2504 N   0  0  0  0  0  0  0  0  0  0  0  0
   20.2672   -8.6058  -14.9498 C   0  0  0  0  0  0  0  0  0  0  0  0
   19.9559   -8.6647  -13.7356 O   0  0  0  0  0  0  0  0  0  0  0  0
   20.7579   -7.3668  -15.4323 N   0  0  0  0  0  0  0  0  0  0  0  0
   20.7090   -6.1631  -14.5802 C   0  0  1  0  0  0  0  0  0  0  0  0
   22.1355   -5.8701  -14.1612 C   0  0  0  0  0  0  0  0  0  0  0  0
   22.2682   -4.2806  -13.3797 S   0  0  0  0  0  0  0  0  0  0  0  0
   20.0316   -5.0707  -15.2664 C   0  0  0  0  0  0  0  0  0  0  0  0
   20.4044   -4.7685  -16.4530 O   0  0  0  0  0  0  0  0  0  0  0  0
   16.1753   -3.8691  -14.5362 C   0  0  0  0  0  0  0  0  0  0  0  0
   16.9445   -3.5292  -15.7949 C   0  0  2  0  0  0  0  0  0  0  0  0
   16.8470   -4.7270  -16.7107 C   0  0  0  0  0  0  0  0  0  0  0  0
   18.3643   -3.2247  -15.4046 C   0  0  2  0  0  0  0  0  0  0  0  0
   18.9895   -4.3291  -14.7032 N   0  0  0  0  0  0  0  0  0  0  0  0
   18.3545   -2.0113  -14.5539 C   0  0  0  0  0  0  0  0  0  0  0  0
   18.6566   -2.0366  -13.3398 O   0  0  0  0  0  0  0  0  0  0  0  0
   17.9945   -0.8084  -15.1399 O   0  0  0  0  0  0  0  0  0  0  0  0
  2  1  1  6
  2  4  1  0
  3  2  1  0
  4  5  1  0
  5  6  1  1
  5  7  1  0
  7  9  1  0
  7  8  2  0
  9 10  1  0
 10 13  1  0
 10 11  1  6
 11 12  1  0
 13 14  2  0
 16 17  1  6
 16 18  1  0
 16 15  1  0
 18 19  1  1
 19 13  1  0
 20 22  1  0
 20 18  1  0
 21 20  2  0
M  END
$$$$
