LCV.pdb
     RDKit          3D

 22 21  0  0  1  0  0  0  0  0999 V2000
   19.4443  -13.2553  -20.5204 C   0  0  0  0  0  0  0  0  0  0  0  0
   18.4415  -13.6824  -19.4466 C   0  0  2  0  0  0  0  0  0  0  0  0
   17.3344  -14.3899  -20.1685 C   0  0  0  0  0  0  0  0  0  0  0  0
   17.9801  -12.4906  -18.6438 C   0  0  0  0  0  0  0  0  0  0  0  0
   19.1489  -11.8676  -17.9549 C   0  0  2  0  0  0  0  0  0  0  0  0
   19.6805  -12.8016  -16.9843 N   0  0  0  0  0  0  0  0  0  0  0  0
   18.8231  -10.6016  -17.2786 C   0  0  0  0  0  0  0  0  0  0  0  0
   17.6185  -10.2873  -17.1203 O   0  0  0  0  0  0  0  0  0  0  0  0
   19.7975   -9.6982  -16.7856 N   0  0  0  0  0  0  0  0  0  0  0  0
   19.3882   -8.5080  -16.0152 C   0  0  1  0  0  0  0  0  0  0  0  0
   18.5130   -9.0045  -14.8823 C   0  0  0  0  0  0  0  0  0  0  0  0
   19.4442   -9.9724  -13.7199 S   0  0  0  0  0  0  0  0  0  0  0  0
   20.5517   -7.7344  -15.6016 C   0  0  0  0  0  0  0  0  0  0  0  0
   21.6614   -8.3465  -15.4219 O   0  0  0  0  0  0  0  0  0  0  0  0
   21.9335   -4.8743  -17.4753 C   0  0  0  0  0  0  0  0  0  0  0  0
   21.8411   -4.3878  -16.0448 C   0  0  2  0  0  0  0  0  0  0  0  0
   23.0856   -3.5754  -15.7720 C   0  0  0  0  0  0  0  0  0  0  0  0
   21.7390   -5.5914  -15.1495 C   0  0  2  0  0  0  0  0  0  0  0  0
   20.5289   -6.3531  -15.3899 N   0  0  0  0  0  0  0  0  0  0  0  0
   21.7834   -5.1215  -13.7447 C   0  0  0  0  0  0  0  0  0  0  0  0
   22.8295   -4.6891  -13.2112 O   0  0  0  0  0  0  0  0  0  0  0  0
   20.6125   -5.1686  -13.0053 O   0  0  0  0  0  0  0  0  0  0  0  0
  2  1  1  6
  2  4  1  0
  3  2  1  0
  4  5  1  0
  5  6  1  1
  5  7  1  0
  7  9  1  0
  7  8  2  0
  9 10  1  0
 10 13  1  0
 10 11  1  1
 11 12  1  0
 13 14  2  0
 16 17  1  1
 16 18  1  0
 16 15  1  0
 18 19  1  1
 19 13  1  0
 20 22  1  0
 20 18  1  0
 21 20  2  0
M  END
$$$$
