LCV.pdb
     RDKit          3D

 22 21  0  0  1  0  0  0  0  0999 V2000
   18.7202   -8.3816  -15.7586 C   0  0  0  0  0  0  0  0  0  0  0  0
   19.5106   -9.4274  -14.9695 C   0  0  2  0  0  0  0  0  0  0  0  0
   19.0358  -10.7632  -15.4568 C   0  0  0  0  0  0  0  0  0  0  0  0
   19.3315   -9.2226  -13.4850 C   0  0  0  0  0  0  0  0  0  0  0  0
   19.8041   -7.8579  -13.1068 C   0  0  2  0  0  0  0  0  0  0  0  0
   21.2472   -7.8716  -12.9884 N   0  0  0  0  0  0  0  0  0  0  0  0
   19.2210   -7.3643  -11.8488 C   0  0  0  0  0  0  0  0  0  0  0  0
   19.9803   -7.1150  -10.8813 O   0  0  0  0  0  0  0  0  0  0  0  0
   17.8338   -7.1481  -11.6547 N   0  0  0  0  0  0  0  0  0  0  0  0
   17.3533   -6.4076  -10.4723 C   0  0  1  0  0  0  0  0  0  0  0  0
   17.8832   -4.9938  -10.6010 C   0  0  0  0  0  0  0  0  0  0  0  0
   17.0531   -3.8864   -9.4877 S   0  0  0  0  0  0  0  0  0  0  0  0
   15.9053   -6.5140  -10.3487 C   0  0  0  0  0  0  0  0  0  0  0  0
   15.1772   -6.1257  -11.3272 O   0  0  0  0  0  0  0  0  0  0  0  0
   11.9686   -8.3137   -8.0089 C   0  0  0  0  0  0  0  0  0  0  0  0
   13.4630   -8.3758   -8.2421 C   0  0  2  0  0  0  0  0  0  0  0  0
   14.1286   -8.2132   -6.8953 C   0  0  0  0  0  0  0  0  0  0  0  0
   13.8313   -7.2736   -9.1962 C   0  0  2  0  0  0  0  0  0  0  0  0
   15.2589   -7.0209   -9.2179 N   0  0  0  0  0  0  0  0  0  0  0  0
   13.0965   -6.0525   -8.7898 C   0  0  0  0  0  0  0  0  0  0  0  0
   11.8586   -5.9332   -8.9282 O   0  0  0  0  0  0  0  0  0  0  0  0
   13.8222   -5.0100   -8.2361 O   0  0  0  0  0  0  0  0  0  0  0  0
  2  1  1  6
  2  4  1  0
  3  2  1  0
  4  5  1  0
  5  6  1  1
  5  7  1  0
  7  9  1  0
  7  8  2  0
  9 10  1  0
 10 13  1  0
 10 11  1  6
 11 12  1  0
 13 14  2  0
 16 17  1  1
 16 18  1  0
 16 15  1  0
 18 19  1  1
 19 13  1  0
 20 22  1  0
 20 18  1  0
 21 20  2  0
M  END
$$$$
