LCV.pdb
     RDKit          3D

 22 21  0  0  1  0  0  0  0  0999 V2000
   16.4633  -12.9023  -18.7398 C   0  0  0  0  0  0  0  0  0  0  0  0
   17.6113  -13.7418  -18.1755 C   0  0  2  0  0  0  0  0  0  0  0  0
   16.9986  -15.0308  -17.7172 C   0  0  0  0  0  0  0  0  0  0  0  0
   18.3351  -12.9905  -17.0849 C   0  0  0  0  0  0  0  0  0  0  0  0
   18.8707  -11.7081  -17.6302 C   0  0  2  0  0  0  0  0  0  0  0  0
   19.7061  -11.9930  -18.7782 N   0  0  0  0  0  0  0  0  0  0  0  0
   19.6469  -10.9334  -16.6485 C   0  0  0  0  0  0  0  0  0  0  0  0
   19.0922  -10.5686  -15.5836 O   0  0  0  0  0  0  0  0  0  0  0  0
   21.0035  -10.5658  -16.8299 N   0  0  0  0  0  0  0  0  0  0  0  0
   21.7541   -9.9221  -15.7346 C   0  0  1  0  0  0  0  0  0  0  0  0
   23.1053  -10.6053  -15.6747 C   0  0  0  0  0  0  0  0  0  0  0  0
   24.2343   -9.7187  -14.6286 S   0  0  0  0  0  0  0  0  0  0  0  0
   21.8017   -8.4775  -15.9194 C   0  0  0  0  0  0  0  0  0  0  0  0
   22.1216   -8.0178  -17.0703 O   0  0  0  0  0  0  0  0  0  0  0  0
   20.6577   -3.9591  -15.5422 C   0  0  0  0  0  0  0  0  0  0  0  0
   20.4004   -5.4498  -15.4854 C   0  0  2  0  0  0  0  0  0  0  0  0
   19.3045   -5.6718  -14.4691 C   0  0  0  0  0  0  0  0  0  0  0  0
   21.6842   -6.1291  -15.0962 C   0  0  2  0  0  0  0  0  0  0  0  0
   21.5144   -7.5567  -14.9080 N   0  0  0  0  0  0  0  0  0  0  0  0
   22.1754   -5.4980  -13.8485 C   0  0  0  0  0  0  0  0  0  0  0  0
   22.0597   -6.0415  -12.7273 O   0  0  0  0  0  0  0  0  0  0  0  0
   22.7847   -4.2571  -13.9429 O   0  0  0  0  0  0  0  0  0  0  0  0
  2  1  1  1
  2  4  1  0
  3  2  1  0
  4  5  1  0
  5  6  1  6
  5  7  1  0
  7  9  1  0
  7  8  2  0
  9 10  1  0
 10 13  1  0
 10 11  1  6
 11 12  1  0
 13 14  2  0
 16 17  1  1
 16 18  1  0
 16 15  1  0
 18 19  1  1
 19 13  1  0
 20 22  1  0
 20 18  1  0
 21 20  2  0
M  END
$$$$
