LCV.pdb
     RDKit          3D

 22 21  0  0  1  0  0  0  0  0999 V2000
   18.8266  -14.4370  -20.7867 C   0  0  0  0  0  0  0  0  0  0  0  0
   19.5887  -15.0762  -19.6240 C   0  0  2  0  0  0  0  0  0  0  0  0
   18.6059  -15.9613  -18.9184 C   0  0  0  0  0  0  0  0  0  0  0  0
   20.1976  -14.0163  -18.7389 C   0  0  0  0  0  0  0  0  0  0  0  0
   21.1482  -13.1843  -19.5345 C   0  0  2  0  0  0  0  0  0  0  0  0
   22.2809  -13.9987  -19.9227 N   0  0  0  0  0  0  0  0  0  0  0  0
   21.6322  -11.9966  -18.8126 C   0  0  0  0  0  0  0  0  0  0  0  0
   22.6538  -12.0961  -18.0906 O   0  0  0  0  0  0  0  0  0  0  0  0
   21.0094  -10.7253  -18.8803 N   0  0  0  0  0  0  0  0  0  0  0  0
   21.5778   -9.5771  -18.1481 C   0  0  1  0  0  0  0  0  0  0  0  0
   21.1620   -8.3316  -18.9044 C   0  0  0  0  0  0  0  0  0  0  0  0
   19.4191   -8.0280  -18.7454 S   0  0  0  0  0  0  0  0  0  0  0  0
   21.1795   -9.6089  -16.7468 C   0  0  0  0  0  0  0  0  0  0  0  0
   20.0887  -10.2009  -16.4338 O   0  0  0  0  0  0  0  0  0  0  0  0
   22.8493  -11.0499  -13.8454 C   0  0  0  0  0  0  0  0  0  0  0  0
   22.5580   -9.6256  -13.4233 C   0  0  2  0  0  0  0  0  0  0  0  0
   22.1102   -9.6738  -11.9810 C   0  0  0  0  0  0  0  0  0  0  0  0
   21.4923   -9.0795  -14.3327 C   0  0  2  0  0  0  0  0  0  0  0  0
   21.9241   -9.0292  -15.7159 N   0  0  0  0  0  0  0  0  0  0  0  0
   21.1333   -7.7237  -13.8537 C   0  0  0  0  0  0  0  0  0  0  0  0
   20.5001   -7.5295  -12.7920 O   0  0  0  0  0  0  0  0  0  0  0  0
   21.5209   -6.6380  -14.6224 O   0  0  0  0  0  0  0  0  0  0  0  0
  2  1  1  6
  2  4  1  0
  3  2  1  0
  4  5  1  0
  5  6  1  1
  5  7  1  0
  7  9  1  0
  7  8  2  0
  9 10  1  0
 10 13  1  0
 10 11  1  6
 11 12  1  0
 13 14  2  0
 16 17  1  1
 16 18  1  0
 16 15  1  0
 18 19  1  6
 19 13  1  0
 20 22  1  0
 20 18  1  0
 21 20  2  0
M  END
$$$$
