TRC.pdb
     RDKit          3D

 25 24  0  0  1  0  0  0  0  0999 V2000
    7.7671  -21.4078   20.7907 C   0  0  0  0  0  0  0  0  0  0  0  0
    8.6236  -20.1649   20.9798 C   0  0  1  0  0  0  0  0  0  0  0  0
    9.9033  -20.4582   21.3877 O   0  0  0  0  0  0  0  0  0  0  0  0
    8.5103  -19.1986   19.8447 C   0  0  2  0  0  0  0  0  0  0  0  0
    8.9572  -19.8818   18.6471 N   0  0  0  0  0  0  0  0  0  0  0  0
    9.1680  -17.8928   20.0590 C   0  0  0  0  0  0  0  0  0  0  0  0
   10.3567  -17.7966   19.6564 O   0  0  0  0  0  0  0  0  0  0  0  0
    8.2305  -15.3004   16.8827 N   0  0  0  0  0  0  0  0  0  0  0  0
    8.0939  -13.8877   16.7980 C   0  0  0  0  0  0  0  0  0  0  0  0
    7.9008  -13.3142   15.6302 N   0  0  0  0  0  0  0  0  0  0  0  0
    8.1769  -13.0368   17.9198 N   0  0  0  0  0  0  0  0  0  0  0  0
    7.2943  -13.0847   19.0504 C   0  0  0  0  0  0  0  0  0  0  0  0
    7.2205  -14.4408   19.7278 C   0  0  0  0  0  0  0  0  0  0  0  0
    8.1243  -14.3911   20.9294 C   0  0  0  0  0  0  0  0  0  0  0  0
    9.1816  -15.4844   20.9304 C   0  0  2  0  0  0  0  0  0  0  0  0
    8.6113  -16.7761   20.6608 N   0  0  0  0  0  0  0  0  0  0  0  0
    9.7545  -15.4806   22.2880 C   0  0  0  0  0  0  0  0  0  0  0  0
    9.0610  -15.2280   23.2796 O   0  0  0  0  0  0  0  0  0  0  0  0
    7.8521  -12.2578   15.6053 N   0  0  0  0  0  0  0  0  0  0  0  0
   11.1258  -15.7756   22.4540 C   0  0  1  0  0  0  0  0  0  0  0  0
   11.7482  -16.0692   23.7257 C   0  0  0  0  0  0  0  0  0  0  0  0
   11.0823  -17.2796   24.3936 S   0  0  0  0  0  0  0  0  0  0  0  0
   11.0937  -17.0203   26.2151 C   0  0  0  0  0  0  0  0  0  0  0  0
   13.1603  -16.3968   23.5192 O   0  0  0  0  0  0  0  0  0  0  0  0
   13.9891  -16.4885   24.6185 O   0  0  0  0  0  0  0  0  0  0  0  0
  2  4  1  0
  2  1  1  6
  3  2  1  0
  4  6  1  0
  4  5  1  6
  6 16  1  0
  7  6  2  0
  9  8  1  0
 10  9  2  0
 11  9  1  0
 12 11  1  0
 13 12  1  0
 14 13  1  0
 15 17  1  0
 15 14  1  1
 16 15  1  0
 17 19  1  0
 18 17  2  0
 19 20  1  0
 20 23  1  0
 21 22  1  0
 20 21  1  1
 23 25  2  0
 23 24  1  0
M  END
$$$$
