TRC.pdb
     RDKit          3D

 25 24  0  0  1  0  0  0  0  0999 V2000
    7.1383  -12.0385   19.2030 C   0  0  0  0  0  0  0  0  0  0  0  0
    8.0777  -13.2171   19.4096 C   0  0  1  0  0  0  0  0  0  0  0  0
    7.4953  -14.2439   20.1142 O   0  0  0  0  0  0  0  0  0  0  0  0
    8.8002  -13.6144   18.1625 C   0  0  2  0  0  0  0  0  0  0  0  0
    7.7994  -13.9671   17.1752 N   0  0  0  0  0  0  0  0  0  0  0  0
    9.8439  -14.6455   18.3388 C   0  0  0  0  0  0  0  0  0  0  0  0
    9.9036  -15.5336   17.4488 O   0  0  0  0  0  0  0  0  0  0  0  0
   15.7739  -13.4522   16.5365 N   0  0  0  0  0  0  0  0  0  0  0  0
   16.6330  -14.5116   16.9380 C   0  0  0  0  0  0  0  0  0  0  0  0
   17.9219  -14.2941   17.0836 N   0  0  0  0  0  0  0  0  0  0  0  0
   16.1775  -15.8251   17.1755 N   0  0  0  0  0  0  0  0  0  0  0  0
   14.8151  -16.1817   17.4512 C   0  0  0  0  0  0  0  0  0  0  0  0
   14.3455  -15.8198   18.8484 C   0  0  0  0  0  0  0  0  0  0  0  0
   13.0871  -15.0085   18.7018 C   0  0  0  0  0  0  0  0  0  0  0  0
   11.9271  -15.5469   19.5252 C   0  0  2  0  0  0  0  0  0  0  0  0
   10.7506  -14.7334   19.3824 N   0  0  0  0  0  0  0  0  0  0  0  0
   12.3811  -15.5020   20.9263 C   0  0  0  0  0  0  0  0  0  0  0  0
   13.1955  -14.6565   21.3133 O   0  0  0  0  0  0  0  0  0  0  0  0
   18.5226  -15.1047   17.4016 N   0  0  0  0  0  0  0  0  0  0  0  0
   11.8689  -16.4464   21.8432 C   0  0  1  0  0  0  0  0  0  0  0  0
   12.1529  -16.4429   23.2610 C   0  0  0  0  0  0  0  0  0  0  0  0
   10.9282  -16.8994   24.0649 S   0  0  0  0  0  0  0  0  0  0  0  0
    9.5254  -15.7725   23.6812 C   0  0  0  0  0  0  0  0  0  0  0  0
   13.2449  -17.3756   23.5471 O   0  0  0  0  0  0  0  0  0  0  0  0
   13.8025  -17.3794   24.8091 O   0  0  0  0  0  0  0  0  0  0  0  0
  2  4  1  0
  2  1  1  6
  3  2  1  0
  4  6  1  0
  4  5  1  6
  6 16  1  0
  7  6  2  0
  9  8  1  0
 10  9  2  0
 11  9  1  0
 12 11  1  0
 13 12  1  0
 14 13  1  0
 15 17  1  0
 15 14  1  6
 16 15  1  0
 17 19  1  0
 18 17  2  0
 19 20  1  0
 20 23  1  0
 21 22  1  0
 20 21  1  1
 23 25  2  0
 23 24  1  0
M  END
$$$$
