TRC.pdb
     RDKit          3D

 25 24  0  0  1  0  0  0  0  0999 V2000
    6.5336  -20.0951   28.1583 C   0  0  0  0  0  0  0  0  0  0  0  0
    7.3738  -19.1862   27.2740 C   0  0  1  0  0  0  0  0  0  0  0  0
    8.6192  -18.9361   27.7999 O   0  0  0  0  0  0  0  0  0  0  0  0
    7.3464  -19.5843   25.8332 C   0  0  2  0  0  0  0  0  0  0  0  0
    7.8239  -20.9503   25.7514 N   0  0  0  0  0  0  0  0  0  0  0  0
    8.0385  -18.6612   24.9098 C   0  0  0  0  0  0  0  0  0  0  0  0
    9.2692  -18.8637   24.7405 O   0  0  0  0  0  0  0  0  0  0  0  0
    7.5040  -11.9557   20.0116 N   0  0  0  0  0  0  0  0  0  0  0  0
    8.2451  -12.9593   19.3294 C   0  0  0  0  0  0  0  0  0  0  0  0
    9.3853  -12.6547   18.7489 N   0  0  0  0  0  0  0  0  0  0  0  0
    7.8089  -14.2956   19.2154 N   0  0  0  0  0  0  0  0  0  0  0  0
    7.1386  -15.0290   20.2509 C   0  0  0  0  0  0  0  0  0  0  0  0
    7.7357  -14.8437   21.6338 C   0  0  0  0  0  0  0  0  0  0  0  0
    7.0977  -15.8634   22.5375 C   0  0  0  0  0  0  0  0  0  0  0  0
    8.0901  -16.5465   23.4658 C   0  0  2  0  0  0  0  0  0  0  0  0
    7.4715  -17.5997   24.2237 N   0  0  0  0  0  0  0  0  0  0  0  0
    8.5587  -15.4964   24.3871 C   0  0  0  0  0  0  0  0  0  0  0  0
    8.2077  -14.3186   24.2541 O   0  0  0  0  0  0  0  0  0  0  0  0
    9.9229  -13.4383   18.2841 N   0  0  0  0  0  0  0  0  0  0  0  0
    9.4253  -15.8496   25.4451 C   0  0  1  0  0  0  0  0  0  0  0  0
    9.9089  -14.9247   26.4459 C   0  0  0  0  0  0  0  0  0  0  0  0
    8.7414  -14.2088   27.1381 S   0  0  0  0  0  0  0  0  0  0  0  0
    9.4299  -12.9890   28.3311 C   0  0  0  0  0  0  0  0  0  0  0  0
   10.6537  -15.6554   27.4731 O   0  0  0  0  0  0  0  0  0  0  0  0
   10.6948  -17.0332   27.4108 O   0  0  0  0  0  0  0  0  0  0  0  0
  2  4  1  0
  2  1  1  1
  3  2  1  0
  4  6  1  0
  4  5  1  1
  6 16  1  0
  7  6  2  0
  9  8  1  0
 10  9  2  0
 11  9  1  0
 12 11  1  0
 13 12  1  0
 14 13  1  0
 15 17  1  0
 15 14  1  6
 16 15  1  0
 17 19  1  0
 18 17  2  0
 19 20  1  0
 20 23  1  0
 21 22  1  0
 20 21  1  1
 23 25  2  0
 23 24  1  0
M  END
$$$$
