TRC.pdb
     RDKit          3D

 25 24  0  0  1  0  0  0  0  0999 V2000
   10.5639  -13.9893   19.9950 C   0  0  0  0  0  0  0  0  0  0  0  0
    9.3864  -13.2700   19.3544 C   0  0  1  0  0  0  0  0  0  0  0  0
    9.6605  -12.8316   18.0805 O   0  0  0  0  0  0  0  0  0  0  0  0
    8.0928  -13.9997   19.5248 C   0  0  2  0  0  0  0  0  0  0  0  0
    7.0706  -13.2371   18.8361 N   0  0  0  0  0  0  0  0  0  0  0  0
    7.7375  -14.3380   20.9188 C   0  0  0  0  0  0  0  0  0  0  0  0
    7.2805  -13.3977   21.6196 O   0  0  0  0  0  0  0  0  0  0  0  0
    5.7255  -18.9820   25.2215 N   0  0  0  0  0  0  0  0  0  0  0  0
    5.8988  -20.2379   24.5780 C   0  0  0  0  0  0  0  0  0  0  0  0
    5.3612  -21.3216   25.0946 N   0  0  0  0  0  0  0  0  0  0  0  0
    6.6521  -20.4012   23.3969 N   0  0  0  0  0  0  0  0  0  0  0  0
    6.4752  -19.6293   22.2001 C   0  0  0  0  0  0  0  0  0  0  0  0
    6.1884  -18.1588   22.4424 C   0  0  0  0  0  0  0  0  0  0  0  0
    7.4599  -17.5313   22.9453 C   0  0  0  0  0  0  0  0  0  0  0  0
    7.4642  -16.0143   22.8358 C   0  0  2  0  0  0  0  0  0  0  0  0
    7.8638  -15.5766   21.5262 N   0  0  0  0  0  0  0  0  0  0  0  0
    8.4515  -15.5483   23.8255 C   0  0  0  0  0  0  0  0  0  0  0  0
    9.6649  -15.5863   23.5927 O   0  0  0  0  0  0  0  0  0  0  0  0
    5.5516  -22.2419   24.6092 N   0  0  0  0  0  0  0  0  0  0  0  0
    7.9954  -15.0456   25.0641 C   0  0  2  0  0  0  0  0  0  0  0  0
    8.8624  -14.5868   26.1265 C   0  0  0  0  0  0  0  0  0  0  0  0
    8.2066  -13.4429   26.9115 S   0  0  0  0  0  0  0  0  0  0  0  0
    7.7181  -12.1254   25.7238 C   0  0  0  0  0  0  0  0  0  0  0  0
    9.1140  -15.6823   27.0649 O   0  0  0  0  0  0  0  0  0  0  0  0
    9.9879  -15.4733   28.1120 O   0  0  0  0  0  0  0  0  0  0  0  0
  2  4  1  0
  2  1  1  6
  3  2  1  0
  4  6  1  0
  4  5  1  1
  6 16  1  0
  7  6  2  0
  9  8  1  0
 10  9  2  0
 11  9  1  0
 12 11  1  0
 13 12  1  0
 14 13  1  0
 15 17  1  0
 15 14  1  6
 16 15  1  0
 17 19  1  0
 18 17  2  0
 19 20  1  0
 20 23  1  0
 21 22  1  0
 20 21  1  6
 23 25  2  0
 23 24  1  0
M  END
$$$$
