TRC.pdb
     RDKit          3D

 25 24  0  0  1  0  0  0  0  0999 V2000
    8.3885  -12.3297   19.5593 C   0  0  0  0  0  0  0  0  0  0  0  0
    7.8845  -13.3089   18.5098 C   0  0  1  0  0  0  0  0  0  0  0  0
    7.5990  -12.7017   17.3099 O   0  0  0  0  0  0  0  0  0  0  0  0
    8.7094  -14.5530   18.4270 C   0  0  2  0  0  0  0  0  0  0  0  0
    8.1373  -15.3843   17.3866 N   0  0  0  0  0  0  0  0  0  0  0  0
    8.9097  -15.2641   19.7068 C   0  0  0  0  0  0  0  0  0  0  0  0
    7.9521  -15.9800   20.1004 O   0  0  0  0  0  0  0  0  0  0  0  0
   16.1471  -14.5260   21.4064 N   0  0  0  0  0  0  0  0  0  0  0  0
   15.2196  -14.9600   20.4200 C   0  0  0  0  0  0  0  0  0  0  0  0
   14.7255  -14.0987   19.5574 N   0  0  0  0  0  0  0  0  0  0  0  0
   14.7672  -16.2922   20.3207 N   0  0  0  0  0  0  0  0  0  0  0  0
   13.9574  -16.9568   21.3014 C   0  0  0  0  0  0  0  0  0  0  0  0
   12.4714  -16.9492   20.9930 C   0  0  0  0  0  0  0  0  0  0  0  0
   11.8124  -16.0316   21.9866 C   0  0  0  0  0  0  0  0  0  0  0  0
   10.3170  -15.8745   21.7578 C   0  0  2  0  0  0  0  0  0  0  0  0
   10.0358  -15.2148   20.5119 N   0  0  0  0  0  0  0  0  0  0  0  0
    9.8315  -15.0385   22.8699 C   0  0  0  0  0  0  0  0  0  0  0  0
   10.0829  -13.8295   22.9249 O   0  0  0  0  0  0  0  0  0  0  0  0
   14.0872  -14.4737   18.8018 N   0  0  0  0  0  0  0  0  0  0  0  0
    9.0601  -15.6366   23.8908 C   0  0  1  0  0  0  0  0  0  0  0  0
    8.9524  -15.1228   25.2381 C   0  0  0  0  0  0  0  0  0  0  0  0
    7.5221  -14.6499   25.5299 S   0  0  0  0  0  0  0  0  0  0  0  0
    6.5021  -14.9105   24.0209 C   0  0  0  0  0  0  0  0  0  0  0  0
    9.2743  -16.1819   26.1965 O   0  0  0  0  0  0  0  0  0  0  0  0
    9.3798  -15.8588   27.5338 O   0  0  0  0  0  0  0  0  0  0  0  0
  2  4  1  0
  2  1  1  1
  3  2  1  0
  4  6  1  0
  4  5  1  6
  6 16  1  0
  7  6  2  0
  9  8  1  0
 10  9  2  0
 11  9  1  0
 12 11  1  0
 13 12  1  0
 14 13  1  0
 15 17  1  0
 15 14  1  1
 16 15  1  0
 17 19  1  0
 18 17  2  0
 19 20  1  0
 20 23  1  0
 21 22  1  0
 20 21  1  1
 23 25  2  0
 23 24  1  0
M  END
$$$$
