TRC.pdb
     RDKit          3D

 25 24  0  0  1  0  0  0  0  0999 V2000
    7.9800  -11.3304   25.3781 C   0  0  0  0  0  0  0  0  0  0  0  0
    6.8674  -11.6872   26.3522 C   0  0  1  0  0  0  0  0  0  0  0  0
    6.2533  -10.5794   26.8868 O   0  0  0  0  0  0  0  0  0  0  0  0
    5.9517  -12.7478   25.8307 C   0  0  2  0  0  0  0  0  0  0  0  0
    4.8463  -12.8624   26.7610 N   0  0  0  0  0  0  0  0  0  0  0  0
    6.5961  -14.0404   25.5182 C   0  0  0  0  0  0  0  0  0  0  0  0
    6.9379  -14.7437   26.5045 O   0  0  0  0  0  0  0  0  0  0  0  0
    7.9199  -12.0933   18.6615 N   0  0  0  0  0  0  0  0  0  0  0  0
    8.4865  -13.3510   18.3167 C   0  0  0  0  0  0  0  0  0  0  0  0
    8.6040  -13.6953   17.0527 N   0  0  0  0  0  0  0  0  0  0  0  0
    8.9230  -14.2885   19.2757 N   0  0  0  0  0  0  0  0  0  0  0  0
    8.0561  -15.0562   20.1234 C   0  0  0  0  0  0  0  0  0  0  0  0
    8.2181  -14.7700   21.6051 C   0  0  0  0  0  0  0  0  0  0  0  0
    7.5826  -15.9099   22.3535 C   0  0  0  0  0  0  0  0  0  0  0  0
    7.5966  -15.7187   23.8623 C   0  0  2  0  0  0  0  0  0  0  0  0
    6.8645  -14.5463   24.2568 N   0  0  0  0  0  0  0  0  0  0  0  0
    9.0143  -15.5513   24.2275 C   0  0  0  0  0  0  0  0  0  0  0  0
    9.5303  -14.4311   24.3121 O   0  0  0  0  0  0  0  0  0  0  0  0
    8.9967  -14.6544   16.8408 N   0  0  0  0  0  0  0  0  0  0  0  0
    9.7951  -16.6991   24.4882 C   0  0  1  0  0  0  0  0  0  0  0  0
   10.8267  -16.7708   25.4988 C   0  0  0  0  0  0  0  0  0  0  0  0
   10.2477  -16.4897   26.8917 S   0  0  0  0  0  0  0  0  0  0  0  0
   11.5903  -16.6918   28.1334 C   0  0  0  0  0  0  0  0  0  0  0  0
   11.4025  -18.1169   25.5205 O   0  0  0  0  0  0  0  0  0  0  0  0
   12.5925  -18.3203   26.1887 O   0  0  0  0  0  0  0  0  0  0  0  0
  2  4  1  0
  2  1  1  6
  3  2  1  0
  4  6  1  0
  4  5  1  1
  6 16  1  0
  7  6  2  0
  9  8  1  0
 10  9  2  0
 11  9  1  0
 12 11  1  0
 13 12  1  0
 14 13  1  0
 15 17  1  0
 15 14  1  6
 16 15  1  0
 17 19  1  0
 18 17  2  0
 19 20  1  0
 20 23  1  0
 21 22  1  0
 20 21  1  6
 23 25  2  0
 23 24  1  0
M  END
$$$$
