TRC.pdb
     RDKit          3D

 25 24  0  0  1  0  0  0  0  0999 V2000
    8.6421  -12.2321   19.8079 C   0  0  0  0  0  0  0  0  0  0  0  0
    8.0481  -13.1866   18.7830 C   0  0  1  0  0  0  0  0  0  0  0  0
    8.1488  -12.7143   17.4958 O   0  0  0  0  0  0  0  0  0  0  0  0
    8.4746  -14.6046   18.9886 C   0  0  2  0  0  0  0  0  0  0  0  0
    7.8905  -15.3924   17.9213 N   0  0  0  0  0  0  0  0  0  0  0  0
    8.2152  -15.1528   20.3362 C   0  0  0  0  0  0  0  0  0  0  0  0
    7.0104  -15.3790   20.6217 O   0  0  0  0  0  0  0  0  0  0  0  0
   10.0531  -21.6624   25.1745 N   0  0  0  0  0  0  0  0  0  0  0  0
    9.8424  -20.6553   26.1558 C   0  0  0  0  0  0  0  0  0  0  0  0
    9.5072  -20.9918   27.3824 N   0  0  0  0  0  0  0  0  0  0  0  0
    9.9529  -19.2764   25.8810 N   0  0  0  0  0  0  0  0  0  0  0  0
   10.0647  -18.7101   24.5671 C   0  0  0  0  0  0  0  0  0  0  0  0
   10.0791  -17.1927   24.5405 C   0  0  0  0  0  0  0  0  0  0  0  0
   10.1639  -16.7709   23.0989 C   0  0  0  0  0  0  0  0  0  0  0  0
    8.9934  -15.9061   22.6571 C   0  0  2  0  0  0  0  0  0  0  0  0
    9.1598  -15.4333   21.3099 N   0  0  0  0  0  0  0  0  0  0  0  0
    8.9813  -14.7553   23.5773 C   0  0  0  0  0  0  0  0  0  0  0  0
    9.8663  -13.8930   23.5428 O   0  0  0  0  0  0  0  0  0  0  0  0
    9.4062  -20.2150   28.0931 N   0  0  0  0  0  0  0  0  0  0  0  0
    7.9316  -14.6386   24.5151 C   0  0  2  0  0  0  0  0  0  0  0  0
    7.8195  -13.5716   25.4846 C   0  0  0  0  0  0  0  0  0  0  0  0
    6.3748  -13.0623   25.5721 S   0  0  0  0  0  0  0  0  0  0  0  0
    6.2253  -11.9838   27.0553 C   0  0  0  0  0  0  0  0  0  0  0  0
    8.1966  -14.0682   26.8094 O   0  0  0  0  0  0  0  0  0  0  0  0
    8.0485  -15.4126   27.0825 O   0  0  0  0  0  0  0  0  0  0  0  0
  2  4  1  0
  2  1  1  1
  3  2  1  0
  4  6  1  0
  4  5  1  6
  6 16  1  0
  7  6  2  0
  9  8  1  0
 10  9  2  0
 11  9  1  0
 12 11  1  0
 13 12  1  0
 14 13  1  0
 15 17  1  0
 15 14  1  1
 16 15  1  0
 17 19  1  0
 18 17  2  0
 19 20  1  0
 20 23  1  0
 21 22  1  0
 20 21  1  6
 23 25  2  0
 23 24  1  0
M  END
$$$$
