TRC.pdb
     RDKit          3D

 25 24  0  0  1  0  0  0  0  0999 V2000
    9.3517  -12.1313   20.6548 C   0  0  0  0  0  0  0  0  0  0  0  0
    8.5831  -12.5774   19.4201 C   0  0  1  0  0  0  0  0  0  0  0  0
    9.0731  -12.0248   18.2605 O   0  0  0  0  0  0  0  0  0  0  0  0
    8.3404  -14.0521   19.3836 C   0  0  2  0  0  0  0  0  0  0  0  0
    7.5923  -14.3389   18.1758 N   0  0  0  0  0  0  0  0  0  0  0  0
    7.7320  -14.6222   20.6037 C   0  0  0  0  0  0  0  0  0  0  0  0
    6.5130  -14.3680   20.7876 O   0  0  0  0  0  0  0  0  0  0  0  0
    5.6983  -21.3420   24.0134 N   0  0  0  0  0  0  0  0  0  0  0  0
    6.4969  -21.1692   25.1770 C   0  0  0  0  0  0  0  0  0  0  0  0
    6.1815  -21.7946   26.2903 N   0  0  0  0  0  0  0  0  0  0  0  0
    7.6272  -20.3266   25.2177 N   0  0  0  0  0  0  0  0  0  0  0  0
    8.1088  -19.5493   24.1116 C   0  0  0  0  0  0  0  0  0  0  0  0
    7.6667  -18.0976   24.1292 C   0  0  0  0  0  0  0  0  0  0  0  0
    8.1652  -17.4621   22.8600 C   0  0  0  0  0  0  0  0  0  0  0  0
    7.8623  -15.9740   22.7751 C   0  0  2  0  0  0  0  0  0  0  0  0
    8.3683  -15.3966   21.5599 N   0  0  0  0  0  0  0  0  0  0  0  0
    8.5503  -15.3631   23.9261 C   0  0  0  0  0  0  0  0  0  0  0  0
    9.7786  -15.2256   23.9441 O   0  0  0  0  0  0  0  0  0  0  0  0
    6.8471  -21.7055   27.1076 N   0  0  0  0  0  0  0  0  0  0  0  0
    7.7842  -14.9244   25.0286 C   0  0  2  0  0  0  0  0  0  0  0  0
    8.3307  -14.2451   26.1821 C   0  0  0  0  0  0  0  0  0  0  0  0
    7.2281  -13.5129   26.9584 S   0  0  0  0  0  0  0  0  0  0  0  0
    6.4607  -12.2652   25.8450 C   0  0  0  0  0  0  0  0  0  0  0  0
    8.9375  -15.2225   27.0879 O   0  0  0  0  0  0  0  0  0  0  0  0
    9.6575  -14.7661   28.1729 O   0  0  0  0  0  0  0  0  0  0  0  0
  2  4  1  0
  2  1  1  1
  3  2  1  0
  4  6  1  0
  4  5  1  6
  6 16  1  0
  7  6  2  0
  9  8  1  0
 10  9  2  0
 11  9  1  0
 12 11  1  0
 13 12  1  0
 14 13  1  0
 15 17  1  0
 15 14  1  6
 16 15  1  0
 17 19  1  0
 18 17  2  0
 19 20  1  0
 20 23  1  0
 21 22  1  0
 20 21  1  6
 23 25  2  0
 23 24  1  0
M  END
$$$$
