TRC.pdb
     RDKit          3D

 25 24  0  0  1  0  0  0  0  0999 V2000
    6.2683  -23.1354   20.5957 C   0  0  0  0  0  0  0  0  0  0  0  0
    7.2748  -22.2161   21.2710 C   0  0  1  0  0  0  0  0  0  0  0  0
    8.0159  -22.8566   22.2357 O   0  0  0  0  0  0  0  0  0  0  0  0
    8.0524  -21.3868   20.3001 C   0  0  2  0  0  0  0  0  0  0  0  0
    8.7811  -22.2967   19.4387 N   0  0  0  0  0  0  0  0  0  0  0  0
    8.9013  -20.3384   20.9033 C   0  0  0  0  0  0  0  0  0  0  0  0
    9.9801  -20.7273   21.4224 O   0  0  0  0  0  0  0  0  0  0  0  0
    7.7525  -11.5678   20.3776 N   0  0  0  0  0  0  0  0  0  0  0  0
    8.4595  -12.5703   19.6588 C   0  0  0  0  0  0  0  0  0  0  0  0
    8.6741  -12.4272   18.3690 N   0  0  0  0  0  0  0  0  0  0  0  0
    8.9400  -13.7535   20.2573 N   0  0  0  0  0  0  0  0  0  0  0  0
    8.6877  -14.1449   21.6147 C   0  0  0  0  0  0  0  0  0  0  0  0
    9.3854  -15.4254   22.0353 C   0  0  0  0  0  0  0  0  0  0  0  0
    8.6901  -16.5637   21.3393 C   0  0  0  0  0  0  0  0  0  0  0  0
    9.3437  -17.9128   21.5963 C   0  0  2  0  0  0  0  0  0  0  0  0
    8.6250  -18.9821   20.9589 N   0  0  0  0  0  0  0  0  0  0  0  0
    9.3008  -18.1022   23.0569 C   0  0  0  0  0  0  0  0  0  0  0  0
    8.2299  -18.1153   23.6741 O   0  0  0  0  0  0  0  0  0  0  0  0
    9.2015  -13.1977   17.8718 N   0  0  0  0  0  0  0  0  0  0  0  0
   10.5127  -18.2751   23.7615 C   0  0  2  0  0  0  0  0  0  0  0  0
   10.6019  -18.4997   25.1871 C   0  0  0  0  0  0  0  0  0  0  0  0
   11.5374  -19.6756   25.4976 S   0  0  0  0  0  0  0  0  0  0  0  0
   11.8267  -19.7271   27.3139 C   0  0  0  0  0  0  0  0  0  0  0  0
   11.1520  -17.3100   25.8398 O   0  0  0  0  0  0  0  0  0  0  0  0
   11.1419  -17.2433   27.2180 O   0  0  0  0  0  0  0  0  0  0  0  0
  2  4  1  0
  2  1  1  6
  3  2  1  0
  4  6  1  0
  4  5  1  1
  6 16  1  0
  7  6  2  0
  9  8  1  0
 10  9  2  0
 11  9  1  0
 12 11  1  0
 13 12  1  0
 14 13  1  0
 15 17  1  0
 15 14  1  1
 16 15  1  0
 17 19  1  0
 18 17  2  0
 19 20  1  0
 20 23  1  0
 21 22  1  0
 20 21  1  6
 23 25  2  0
 23 24  1  0
M  END
$$$$
