NQC.pdb
     RDKit          3D

 24 23  0  0  1  0  0  0  0  0999 V2000
    7.6322  -12.8781   16.4335 N   0  0  0  0  0  0  0  0  0  0  0  0
    7.7799  -14.0052   15.5844 C   0  0  0  0  0  0  0  0  0  0  0  0
    7.6468  -13.9317   14.3525 O   0  0  0  0  0  0  0  0  0  0  0  0
    8.1048  -15.3004   16.2282 C   0  0  0  0  0  0  0  0  0  0  0  0
    8.6803  -16.2786   15.1954 C   0  0  2  0  0  0  0  0  0  0  0  0
    7.5515  -16.8349   14.4907 N   0  0  0  0  0  0  0  0  0  0  0  0
    9.3677  -17.3770   15.9238 C   0  0  0  0  0  0  0  0  0  0  0  0
    8.7978  -18.4829   16.1105 O   0  0  0  0  0  0  0  0  0  0  0  0
   15.2636  -19.2287   16.8556 N   0  0  0  0  0  0  0  0  0  0  0  0
   14.7131  -18.8621   15.6138 C   0  0  0  0  0  0  0  0  0  0  0  0
   15.2562  -18.9787   14.5066 O   0  0  0  0  0  0  0  0  0  0  0  0
   13.3132  -18.2659   15.6556 C   0  0  0  0  0  0  0  0  0  0  0  0
   12.8327  -18.2064   17.0704 C   0  0  0  0  0  0  0  0  0  0  0  0
   11.3597  -18.3389   17.1549 C   0  0  2  0  0  0  0  0  0  0  0  0
   10.6811  -17.2524   16.4437 N   0  0  0  0  0  0  0  0  0  0  0  0
   10.9217  -18.2403   18.5632 C   0  0  0  0  0  0  0  0  0  0  0  0
   11.6476  -17.7969   19.4892 O   0  0  0  0  0  0  0  0  0  0  0  0
    9.6135  -18.6556   18.9597 N   0  0  0  0  0  0  0  0  0  0  0  0
    9.1530  -18.6936   20.3131 C   0  0  1  0  0  0  0  0  0  0  0  0
    7.7272  -19.1185   20.4644 C   0  0  0  0  0  0  0  0  0  0  0  0
    7.2750  -19.0427   22.2348 S   0  0  0  0  0  0  0  0  0  0  0  0
   10.0201  -19.6434   21.0639 C   0  0  0  0  0  0  0  0  0  0  0  0
   10.6282  -19.3353   22.1202 O   0  0  0  0  0  0  0  0  0  0  0  0
   10.1602  -20.9260   20.5712 O   0  0  0  0  0  0  0  0  0  0  0  0
  2  1  1  0
  2  3  2  0
  4  2  1  0
  5  4  1  0
  5  6  1  1
  7  5  1  0
  8  7  2  0
 10 12  1  0
 10  9  1  0
 11 10  2  0
 13 12  1  0
 14 13  1  1
 14 15  1  0
 15  7  1  0
 16 14  1  0
 16 17  2  0
 18 16  1  0
 19 18  1  0
 19 20  1  6
 20 21  1  0
 22 19  1  0
 23 22  2  0
 24 22  1  0
M  END
$$$$
