NQC.pdb
     RDKit          3D

 24 23  0  0  1  0  0  0  0  0999 V2000
    7.0256  -13.0008   16.4258 N   0  0  0  0  0  0  0  0  0  0  0  0
    8.1497  -13.4799   17.1470 C   0  0  0  0  0  0  0  0  0  0  0  0
    9.3077  -13.3919   16.7089 O   0  0  0  0  0  0  0  0  0  0  0  0
    7.8922  -14.1018   18.4678 C   0  0  0  0  0  0  0  0  0  0  0  0
    8.6509  -15.4303   18.5876 C   0  0  2  0  0  0  0  0  0  0  0  0
    8.0448  -16.3306   17.6378 N   0  0  0  0  0  0  0  0  0  0  0  0
    8.4324  -15.9720   19.9545 C   0  0  0  0  0  0  0  0  0  0  0  0
    7.2834  -15.9864   20.4667 O   0  0  0  0  0  0  0  0  0  0  0  0
    9.1928  -20.7547   21.7373 N   0  0  0  0  0  0  0  0  0  0  0  0
    9.3129  -20.4562   23.1070 C   0  0  0  0  0  0  0  0  0  0  0  0
    8.9824  -21.1884   24.0499 O   0  0  0  0  0  0  0  0  0  0  0  0
    9.9093  -19.0967   23.4428 C   0  0  0  0  0  0  0  0  0  0  0  0
   10.1801  -18.3397   22.1820 C   0  0  0  0  0  0  0  0  0  0  0  0
    9.2425  -17.2057   22.0114 C   0  0  2  0  0  0  0  0  0  0  0  0
    9.4813  -16.4962   20.7519 N   0  0  0  0  0  0  0  0  0  0  0  0
    9.4492  -16.2109   23.0851 C   0  0  0  0  0  0  0  0  0  0  0  0
   10.5234  -15.5793   23.2522 O   0  0  0  0  0  0  0  0  0  0  0  0
    8.4106  -15.9050   24.0173 N   0  0  0  0  0  0  0  0  0  0  0  0
    8.5517  -15.0015   25.1167 C   0  0  1  0  0  0  0  0  0  0  0  0
    7.2582  -14.5999   25.7508 C   0  0  0  0  0  0  0  0  0  0  0  0
    6.5755  -13.1684   24.8402 S   0  0  0  0  0  0  0  0  0  0  0  0
    9.4060  -15.6610   26.1430 C   0  0  0  0  0  0  0  0  0  0  0  0
    9.8240  -16.8419   26.0375 O   0  0  0  0  0  0  0  0  0  0  0  0
    9.7538  -14.9349   27.2650 O   0  0  0  0  0  0  0  0  0  0  0  0
  2  1  1  0
  2  3  2  0
  4  2  1  0
  5  4  1  0
  5  6  1  6
  7  5  1  0
  8  7  2  0
 10 12  1  0
 10  9  1  0
 11 10  2  0
 13 12  1  0
 14 13  1  1
 14 15  1  0
 15  7  1  0
 16 14  1  0
 16 17  2  0
 18 16  1  0
 19 18  1  0
 19 20  1  1
 20 21  1  0
 22 19  1  0
 23 22  2  0
 24 22  1  0
M  END
$$$$
