NQC.pdb
     RDKit          3D

 24 23  0  0  1  0  0  0  0  0999 V2000
    7.8147  -12.0247   18.7643 N   0  0  0  0  0  0  0  0  0  0  0  0
    8.0274  -13.3852   19.1063 C   0  0  0  0  0  0  0  0  0  0  0  0
    8.3398  -14.2417   18.2639 O   0  0  0  0  0  0  0  0  0  0  0  0
    7.8615  -13.7594   20.5311 C   0  0  0  0  0  0  0  0  0  0  0  0
    7.7447  -15.2831   20.6711 C   0  0  2  0  0  0  0  0  0  0  0  0
    6.4551  -15.6421   20.1344 N   0  0  0  0  0  0  0  0  0  0  0  0
    7.7629  -15.6226   22.1182 C   0  0  0  0  0  0  0  0  0  0  0  0
    6.7385  -15.4637   22.8310 O   0  0  0  0  0  0  0  0  0  0  0  0
   12.3605  -19.2412   24.4903 N   0  0  0  0  0  0  0  0  0  0  0  0
   12.1244  -18.1525   23.6309 C   0  0  0  0  0  0  0  0  0  0  0  0
   12.9672  -17.3390   23.2278 O   0  0  0  0  0  0  0  0  0  0  0  0
   10.6876  -17.9734   23.1617 C   0  0  0  0  0  0  0  0  0  0  0  0
    9.7922  -17.7772   24.3432 C   0  0  0  0  0  0  0  0  0  0  0  0
    8.8833  -16.6225   24.1563 C   0  0  2  0  0  0  0  0  0  0  0  0
    8.9102  -16.1361   22.7744 N   0  0  0  0  0  0  0  0  0  0  0  0
    9.3243  -15.4889   24.9961 C   0  0  0  0  0  0  0  0  0  0  0  0
   10.3115  -14.7605   24.7207 O   0  0  0  0  0  0  0  0  0  0  0  0
    8.6337  -15.1502   26.2000 N   0  0  0  0  0  0  0  0  0  0  0  0
    8.9758  -14.0487   27.0455 C   0  0  1  0  0  0  0  0  0  0  0  0
    7.8002  -13.2746   27.5505 C   0  0  0  0  0  0  0  0  0  0  0  0
    6.6866  -12.9120   26.1459 S   0  0  0  0  0  0  0  0  0  0  0  0
    9.7344  -14.5850   28.2095 C   0  0  0  0  0  0  0  0  0  0  0  0
   10.1613  -13.8638   29.1465 O   0  0  0  0  0  0  0  0  0  0  0  0
    9.9787  -15.9434   28.2576 O   0  0  0  0  0  0  0  0  0  0  0  0
  2  1  1  0
  2  3  2  0
  4  2  1  0
  5  4  1  0
  5  6  1  1
  7  5  1  0
  8  7  2  0
 10 12  1  0
 10  9  1  0
 11 10  2  0
 13 12  1  0
 14 13  1  6
 14 15  1  0
 15  7  1  0
 16 14  1  0
 16 17  2  0
 18 16  1  0
 19 18  1  0
 19 20  1  1
 20 21  1  0
 22 19  1  0
 23 22  2  0
 24 22  1  0
M  END
$$$$
