NQC.pdb
     RDKit          3D

 24 23  0  0  1  0  0  0  0  0999 V2000
    8.4813  -12.4980   17.7321 N   0  0  0  0  0  0  0  0  0  0  0  0
    7.8636  -13.7278   18.0774 C   0  0  0  0  0  0  0  0  0  0  0  0
    7.7713  -14.6730   17.2782 O   0  0  0  0  0  0  0  0  0  0  0  0
    7.3207  -13.8508   19.4513 C   0  0  0  0  0  0  0  0  0  0  0  0
    8.3960  -14.3938   20.4019 C   0  0  2  0  0  0  0  0  0  0  0  0
    8.7115  -15.7233   19.9404 N   0  0  0  0  0  0  0  0  0  0  0  0
    7.8083  -14.4958   21.7634 C   0  0  0  0  0  0  0  0  0  0  0  0
    7.3107  -13.4879   22.3284 O   0  0  0  0  0  0  0  0  0  0  0  0
    6.2435  -19.7923   24.5720 N   0  0  0  0  0  0  0  0  0  0  0  0
    7.5878  -19.4568   24.8168 C   0  0  0  0  0  0  0  0  0  0  0  0
    8.4714  -20.2197   25.2309 O   0  0  0  0  0  0  0  0  0  0  0  0
    7.9746  -18.0109   24.5398 C   0  0  0  0  0  0  0  0  0  0  0  0
    6.7692  -17.2413   24.1032 C   0  0  0  0  0  0  0  0  0  0  0  0
    7.1014  -15.8311   23.7948 C   0  0  2  0  0  0  0  0  0  0  0  0
    7.7710  -15.7086   22.4973 N   0  0  0  0  0  0  0  0  0  0  0  0
    8.0526  -15.3036   24.7958 C   0  0  0  0  0  0  0  0  0  0  0  0
    9.3020  -15.3840   24.6797 O   0  0  0  0  0  0  0  0  0  0  0  0
    7.5909  -14.6561   25.9827 N   0  0  0  0  0  0  0  0  0  0  0  0
    8.4335  -13.9541   26.9004 C   0  0  1  0  0  0  0  0  0  0  0  0
    7.7688  -12.8039   27.5872 C   0  0  0  0  0  0  0  0  0  0  0  0
    6.8607  -11.8197   26.3418 S   0  0  0  0  0  0  0  0  0  0  0  0
    8.8972  -14.9258   27.9294 C   0  0  0  0  0  0  0  0  0  0  0  0
    8.4920  -16.1143   27.9883 O   0  0  0  0  0  0  0  0  0  0  0  0
    9.8186  -14.4950   28.8635 O   0  0  0  0  0  0  0  0  0  0  0  0
  2  1  1  0
  2  3  2  0
  4  2  1  0
  5  4  1  0
  5  6  1  6
  7  5  1  0
  8  7  2  0
 10 12  1  0
 10  9  1  0
 11 10  2  0
 13 12  1  0
 14 13  1  1
 14 15  1  0
 15  7  1  0
 16 14  1  0
 16 17  2  0
 18 16  1  0
 19 18  1  0
 19 20  1  1
 20 21  1  0
 22 19  1  0
 23 22  2  0
 24 22  1  0
M  END
$$$$
