NQC.pdb
     RDKit          3D

 24 23  0  0  1  0  0  0  0  0999 V2000
    7.1544  -14.3019   18.2698 N   0  0  0  0  0  0  0  0  0  0  0  0
    8.2625  -13.4190   18.1937 C   0  0  0  0  0  0  0  0  0  0  0  0
    8.1592  -12.2016   18.4128 O   0  0  0  0  0  0  0  0  0  0  0  0
    9.5750  -14.0086   17.8368 C   0  0  0  0  0  0  0  0  0  0  0  0
    9.4314  -15.5159   17.5874 C   0  0  2  0  0  0  0  0  0  0  0  0
    8.1947  -15.6917   16.8664 N   0  0  0  0  0  0  0  0  0  0  0  0
    9.3101  -16.1981   18.9025 C   0  0  0  0  0  0  0  0  0  0  0  0
    8.1811  -16.4375   19.4034 O   0  0  0  0  0  0  0  0  0  0  0  0
   13.6513  -20.0226   19.9823 N   0  0  0  0  0  0  0  0  0  0  0  0
   12.4220  -19.8161   19.3298 C   0  0  0  0  0  0  0  0  0  0  0  0
   12.2328  -19.8073   18.1056 O   0  0  0  0  0  0  0  0  0  0  0  0
   11.2193  -19.5827   20.2329 C   0  0  0  0  0  0  0  0  0  0  0  0
   11.4335  -18.3480   21.0487 C   0  0  0  0  0  0  0  0  0  0  0  0
   10.3135  -17.3903   20.8977 C   0  0  2  0  0  0  0  0  0  0  0  0
   10.4338  -16.6141   19.6607 N   0  0  0  0  0  0  0  0  0  0  0  0
   10.3358  -16.4060   22.0003 C   0  0  0  0  0  0  0  0  0  0  0  0
   11.2756  -15.5922   22.1888 O   0  0  0  0  0  0  0  0  0  0  0  0
    9.2610  -16.3241   22.9379 N   0  0  0  0  0  0  0  0  0  0  0  0
    9.2206  -15.4187   24.0441 C   0  0  1  0  0  0  0  0  0  0  0  0
    7.8664  -14.8480   24.3210 C   0  0  0  0  0  0  0  0  0  0  0  0
    7.2559  -14.0204   22.8088 S   0  0  0  0  0  0  0  0  0  0  0  0
    9.6893  -16.1528   25.2522 C   0  0  0  0  0  0  0  0  0  0  0  0
    9.7843  -15.6226   26.3881 O   0  0  0  0  0  0  0  0  0  0  0  0
   10.0357  -17.4823   25.1127 O   0  0  0  0  0  0  0  0  0  0  0  0
  2  1  1  0
  2  3  2  0
  4  2  1  0
  5  4  1  0
  5  6  1  6
  7  5  1  0
  8  7  2  0
 10 12  1  0
 10  9  1  0
 11 10  2  0
 13 12  1  0
 14 13  1  1
 14 15  1  0
 15  7  1  0
 16 14  1  0
 16 17  2  0
 18 16  1  0
 19 18  1  0
 19 20  1  1
 20 21  1  0
 22 19  1  0
 23 22  2  0
 24 22  1  0
M  END
$$$$
