NQC.pdb
     RDKit          3D

 24 23  0  0  1  0  0  0  0  0999 V2000
    8.7524  -13.0998   16.7841 N   0  0  0  0  0  0  0  0  0  0  0  0
    7.6704  -14.0083   16.9146 C   0  0  0  0  0  0  0  0  0  0  0  0
    6.9692  -14.3505   15.9492 O   0  0  0  0  0  0  0  0  0  0  0  0
    7.3980  -14.5473   18.2684 C   0  0  0  0  0  0  0  0  0  0  0  0
    8.2722  -13.8363   19.3102 C   0  0  2  0  0  0  0  0  0  0  0  0
    9.6408  -14.0972   18.9372 N   0  0  0  0  0  0  0  0  0  0  0  0
    8.0194  -14.4588   20.6362 C   0  0  0  0  0  0  0  0  0  0  0  0
    6.8768  -14.4175   21.1609 O   0  0  0  0  0  0  0  0  0  0  0  0
   10.3640  -19.4381   25.4246 N   0  0  0  0  0  0  0  0  0  0  0  0
   10.7321  -18.2717   24.7293 C   0  0  0  0  0  0  0  0  0  0  0  0
   11.8766  -17.9598   24.3724 O   0  0  0  0  0  0  0  0  0  0  0  0
    9.5999  -17.3120   24.3917 C   0  0  0  0  0  0  0  0  0  0  0  0
    9.8570  -16.6767   23.0627 C   0  0  0  0  0  0  0  0  0  0  0  0
    8.7764  -15.7357   22.6869 C   0  0  2  0  0  0  0  0  0  0  0  0
    9.0271  -15.1248   21.3789 N   0  0  0  0  0  0  0  0  0  0  0  0
    8.7172  -14.6192   23.6537 C   0  0  0  0  0  0  0  0  0  0  0  0
    9.4875  -13.6260   23.6189 O   0  0  0  0  0  0  0  0  0  0  0  0
    7.7550  -14.6079   24.7097 N   0  0  0  0  0  0  0  0  0  0  0  0
    7.5826  -13.5310   25.6347 C   0  0  1  0  0  0  0  0  0  0  0  0
    6.2043  -12.9512   25.6515 C   0  0  0  0  0  0  0  0  0  0  0  0
    6.0965  -11.7282   27.0069 S   0  0  0  0  0  0  0  0  0  0  0  0
    7.9061  -14.0419   26.9957 C   0  0  0  0  0  0  0  0  0  0  0  0
    7.8554  -15.2591   27.3059 O   0  0  0  0  0  0  0  0  0  0  0  0
    8.2799  -13.1290   27.9621 O   0  0  0  0  0  0  0  0  0  0  0  0
  2  1  1  0
  2  3  2  0
  4  2  1  0
  5  4  1  0
  5  6  1  6
  7  5  1  0
  8  7  2  0
 10 12  1  0
 10  9  1  0
 11 10  2  0
 13 12  1  0
 14 13  1  1
 14 15  1  0
 15  7  1  0
 16 14  1  0
 16 17  2  0
 18 16  1  0
 19 18  1  0
 19 20  1  1
 20 21  1  0
 22 19  1  0
 23 22  2  0
 24 22  1  0
M  END
$$$$
