QQN.pdb
     RDKit          3D

 27 26  0  0  1  0  0  0  0  0999 V2000
    7.8389  -16.9269   13.8293 N   0  0  0  0  0  0  0  0  0  0  0  0
    8.6820  -17.7304   12.9874 C   0  0  0  0  0  0  0  0  0  0  0  0
    8.1608  -18.2151   11.9769 O   0  0  0  0  0  0  0  0  0  0  0  0
   10.0919  -17.9408   13.3556 C   0  0  0  0  0  0  0  0  0  0  0  0
   10.5030  -17.2868   14.6290 C   0  0  0  0  0  0  0  0  0  0  0  0
   10.8874  -15.8529   14.4429 C   0  0  2  0  0  0  0  0  0  0  0  0
   12.0521  -15.6365   13.6491 N   0  0  0  0  0  0  0  0  0  0  0  0
   11.1227  -15.2357   15.7961 C   0  0  0  0  0  0  0  0  0  0  0  0
   12.2918  -15.1178   16.2235 O   0  0  0  0  0  0  0  0  0  0  0  0
    6.5104  -13.1434   19.6947 N   0  0  0  0  0  0  0  0  0  0  0  0
    7.6907  -12.9986   20.4675 C   0  0  0  0  0  0  0  0  0  0  0  0
    7.6218  -12.4688   21.5927 O   0  0  0  0  0  0  0  0  0  0  0  0
    9.0211  -13.4634   19.9729 C   0  0  0  0  0  0  0  0  0  0  0  0
    8.9019  -13.9672   18.5634 C   0  0  0  0  0  0  0  0  0  0  0  0
   10.2265  -14.3982   17.9861 C   0  0  2  0  0  0  0  0  0  0  0  0
   10.0289  -14.7882   16.5871 N   0  0  0  0  0  0  0  0  0  0  0  0
   10.9053  -15.4552   18.7442 C   0  0  0  0  0  0  0  0  0  0  0  0
   11.1998  -16.5865   18.3038 O   0  0  0  0  0  0  0  0  0  0  0  0
   15.7559  -16.2208   20.2370 N   0  0  0  0  0  0  0  0  0  0  0  0
   15.0380  -15.0201   20.4916 C   0  0  0  0  0  0  0  0  0  0  0  0
   15.6345  -14.1832   21.2390 O   0  0  0  0  0  0  0  0  0  0  0  0
   13.6902  -14.7143   19.9510 C   0  0  0  0  0  0  0  0  0  0  0  0
   12.5955  -15.4700   20.6099 C   0  0  2  0  0  0  0  0  0  0  0  0
   11.2867  -15.2313   20.1045 N   0  0  0  0  0  0  0  0  0  0  0  0
   12.6872  -15.3167   22.0849 C   0  0  0  0  0  0  0  0  0  0  0  0
   13.7319  -15.6295   22.7069 O   0  0  0  0  0  0  0  0  0  0  0  0
   11.6171  -14.8233   22.8074 O   0  0  0  0  0  0  0  0  0  0  0  0
  2  1  1  0
  2  4  1  0
  3  2  2  0
  5  6  1  0
  5  4  1  0
  6  8  1  0
  6  7  1  6
  8  9  2  0
  8 16  1  0
 10 11  1  0
 11 12  2  0
 13 14  1  0
 13 11  1  0
 15 14  1  1
 15 17  1  0
 16 15  1  0
 17 18  2  0
 20 19  1  0
 21 20  2  0
 22 20  1  0
 23 22  1  6
 24 23  1  0
 24 17  1  0
 25 27  1  0
 25 23  1  0
 26 25  2  0
M  END
$$$$
