QQN.pdb
     RDKit          3D

 27 26  0  0  1  0  0  0  0  0999 V2000
    8.5174  -13.4097   15.5490 N   0  0  0  0  0  0  0  0  0  0  0  0
    7.6086  -14.0343   16.4703 C   0  0  0  0  0  0  0  0  0  0  0  0
    7.2962  -15.2071   16.2364 O   0  0  0  0  0  0  0  0  0  0  0  0
    7.0976  -13.2709   17.6209 C   0  0  0  0  0  0  0  0  0  0  0  0
    8.0454  -13.1681   18.7652 C   0  0  0  0  0  0  0  0  0  0  0  0
    8.3172  -14.4908   19.4095 C   0  0  2  0  0  0  0  0  0  0  0  0
    7.1901  -15.3585   19.5094 N   0  0  0  0  0  0  0  0  0  0  0  0
    8.8481  -14.2523   20.7983 C   0  0  0  0  0  0  0  0  0  0  0  0
    9.7681  -13.4234   20.9713 O   0  0  0  0  0  0  0  0  0  0  0  0
    5.6860  -13.6199   25.9176 N   0  0  0  0  0  0  0  0  0  0  0  0
    7.0201  -13.5651   26.3956 C   0  0  0  0  0  0  0  0  0  0  0  0
    7.2360  -13.1707   27.5573 O   0  0  0  0  0  0  0  0  0  0  0  0
    8.1810  -13.9674   25.5465 C   0  0  0  0  0  0  0  0  0  0  0  0
    7.7163  -14.2963   24.1570 C   0  0  0  0  0  0  0  0  0  0  0  0
    8.8408  -14.7467   23.2593 C   0  0  2  0  0  0  0  0  0  0  0  0
    8.3122  -14.9605   21.9090 N   0  0  0  0  0  0  0  0  0  0  0  0
    9.5682  -15.9265   23.7408 C   0  0  0  0  0  0  0  0  0  0  0  0
    9.1944  -17.1111   23.6081 O   0  0  0  0  0  0  0  0  0  0  0  0
   13.9075  -15.1395   22.8265 N   0  0  0  0  0  0  0  0  0  0  0  0
   13.3775  -16.3984   23.2218 C   0  0  0  0  0  0  0  0  0  0  0  0
   13.1843  -17.2235   22.2749 O   0  0  0  0  0  0  0  0  0  0  0  0
   13.0557  -16.7746   24.6208 C   0  0  0  0  0  0  0  0  0  0  0  0
   11.5997  -16.8605   24.8976 C   0  0  2  0  0  0  0  0  0  0  0  0
   10.8143  -15.7715   24.4259 N   0  0  0  0  0  0  0  0  0  0  0  0
   11.3717  -17.1639   26.3340 C   0  0  0  0  0  0  0  0  0  0  0  0
   10.5635  -16.4913   27.0199 O   0  0  0  0  0  0  0  0  0  0  0  0
   12.0495  -18.1997   26.9491 O   0  0  0  0  0  0  0  0  0  0  0  0
  2  1  1  0
  2  4  1  0
  3  2  2  0
  5  6  1  0
  5  4  1  0
  6  8  1  0
  6  7  1  1
  8  9  2  0
  8 16  1  0
 10 11  1  0
 11 12  2  0
 13 14  1  0
 13 11  1  0
 15 14  1  1
 15 17  1  0
 16 15  1  0
 17 18  2  0
 20 19  1  0
 21 20  2  0
 22 20  1  0
 23 22  1  1
 24 23  1  0
 24 17  1  0
 25 27  1  0
 25 23  1  0
 26 25  2  0
M  END
$$$$
