QQN.pdb
     RDKit          3D

 27 26  0  0  1  0  0  0  0  0999 V2000
   13.1916  -20.2993   16.5777 N   0  0  0  0  0  0  0  0  0  0  0  0
   12.2121  -19.6678   15.7369 C   0  0  0  0  0  0  0  0  0  0  0  0
   11.7293  -20.3555   14.8303 O   0  0  0  0  0  0  0  0  0  0  0  0
   11.8376  -18.2650   15.9806 C   0  0  0  0  0  0  0  0  0  0  0  0
   12.6355  -17.5867   17.0398 C   0  0  0  0  0  0  0  0  0  0  0  0
   12.1594  -17.9150   18.4196 C   0  0  2  0  0  0  0  0  0  0  0  0
   11.1899  -18.9582   18.4933 N   0  0  0  0  0  0  0  0  0  0  0  0
   11.5608  -16.6765   19.0322 C   0  0  0  0  0  0  0  0  0  0  0  0
   12.2812  -15.6712   19.2157 O   0  0  0  0  0  0  0  0  0  0  0  0
    8.0957  -13.1069   18.6137 N   0  0  0  0  0  0  0  0  0  0  0  0
    7.4344  -13.1614   19.8670 C   0  0  0  0  0  0  0  0  0  0  0  0
    6.7971  -12.1675   20.2640 O   0  0  0  0  0  0  0  0  0  0  0  0
    7.4775  -14.3788   20.7311 C   0  0  0  0  0  0  0  0  0  0  0  0
    8.1349  -15.5116   19.9967 C   0  0  0  0  0  0  0  0  0  0  0  0
    9.6365  -15.4989   20.1328 C   0  0  2  0  0  0  0  0  0  0  0  0
   10.1878  -16.6433   19.4014 N   0  0  0  0  0  0  0  0  0  0  0  0
   10.1215  -15.4663   21.5171 C   0  0  0  0  0  0  0  0  0  0  0  0
    9.5871  -14.8400   22.4567 O   0  0  0  0  0  0  0  0  0  0  0  0
   12.5339  -16.8671   25.9648 N   0  0  0  0  0  0  0  0  0  0  0  0
   11.2548  -17.2791   25.4998 C   0  0  0  0  0  0  0  0  0  0  0  0
   10.5281  -17.8606   26.3650 O   0  0  0  0  0  0  0  0  0  0  0  0
   10.7541  -17.0712   24.1184 C   0  0  0  0  0  0  0  0  0  0  0  0
   11.7238  -16.3866   23.2269 C   0  0  2  0  0  0  0  0  0  0  0  0
   11.2988  -16.1919   21.8828 N   0  0  0  0  0  0  0  0  0  0  0  0
   13.0556  -17.0375   23.3281 C   0  0  0  0  0  0  0  0  0  0  0  0
   13.3480  -18.0325   22.6206 O   0  0  0  0  0  0  0  0  0  0  0  0
   14.0063  -16.5580   24.2095 O   0  0  0  0  0  0  0  0  0  0  0  0
  2  1  1  0
  2  4  1  0
  3  2  2  0
  5  6  1  0
  5  4  1  0
  6  8  1  0
  6  7  1  6
  8  9  2  0
  8 16  1  0
 10 11  1  0
 11 12  2  0
 13 14  1  0
 13 11  1  0
 15 14  1  1
 15 17  1  0
 16 15  1  0
 17 18  2  0
 20 19  1  0
 21 20  2  0
 22 20  1  0
 23 22  1  1
 24 23  1  0
 24 17  1  0
 25 27  1  0
 25 23  1  0
 26 25  2  0
M  END
$$$$
