QQN.pdb
     RDKit          3D

 27 26  0  0  1  0  0  0  0  0999 V2000
    6.7180  -12.4278   17.1715 N   0  0  0  0  0  0  0  0  0  0  0  0
    7.7805  -13.3835   17.3227 C   0  0  0  0  0  0  0  0  0  0  0  0
    8.1694  -13.9516   16.2960 O   0  0  0  0  0  0  0  0  0  0  0  0
    8.3435  -13.6429   18.6581 C   0  0  0  0  0  0  0  0  0  0  0  0
    7.6473  -14.7125   19.4259 C   0  0  0  0  0  0  0  0  0  0  0  0
    8.2800  -14.9722   20.7565 C   0  0  2  0  0  0  0  0  0  0  0  0
    8.3145  -13.8528   21.6393 N   0  0  0  0  0  0  0  0  0  0  0  0
    9.6951  -15.4379   20.5366 C   0  0  0  0  0  0  0  0  0  0  0  0
    9.9051  -16.4714   19.8650 O   0  0  0  0  0  0  0  0  0  0  0  0
   13.6447  -13.8791   17.3516 N   0  0  0  0  0  0  0  0  0  0  0  0
   14.6171  -14.3349   18.2778 C   0  0  0  0  0  0  0  0  0  0  0  0
   15.7679  -14.5922   17.8767 O   0  0  0  0  0  0  0  0  0  0  0  0
   14.3041  -14.5173   19.7267 C   0  0  0  0  0  0  0  0  0  0  0  0
   12.8738  -14.1487   19.9975 C   0  0  0  0  0  0  0  0  0  0  0  0
   12.1677  -15.1586   20.8664 C   0  0  2  0  0  0  0  0  0  0  0  0
   10.7886  -14.7130   21.0852 N   0  0  0  0  0  0  0  0  0  0  0  0
   12.8436  -15.4465   22.1364 C   0  0  0  0  0  0  0  0  0  0  0  0
   12.7990  -14.7298   23.1587 O   0  0  0  0  0  0  0  0  0  0  0  0
   11.8379  -19.3901   23.9882 N   0  0  0  0  0  0  0  0  0  0  0  0
   12.8118  -18.5216   24.5532 C   0  0  0  0  0  0  0  0  0  0  0  0
   12.4435  -17.9093   25.6040 O   0  0  0  0  0  0  0  0  0  0  0  0
   14.1718  -18.3078   23.9992 C   0  0  0  0  0  0  0  0  0  0  0  0
   14.3848  -16.9479   23.4433 C   0  0  2  0  0  0  0  0  0  0  0  0
   13.6333  -16.6308   22.2772 N   0  0  0  0  0  0  0  0  0  0  0  0
   15.8386  -16.6830   23.2893 C   0  0  0  0  0  0  0  0  0  0  0  0
   16.4906  -17.1722   22.3344 O   0  0  0  0  0  0  0  0  0  0  0  0
   16.5078  -15.8873   24.2001 O   0  0  0  0  0  0  0  0  0  0  0  0
  2  1  1  0
  2  4  1  0
  3  2  2  0
  5  6  1  0
  5  4  1  0
  6  8  1  0
  6  7  1  1
  8  9  2  0
  8 16  1  0
 10 11  1  0
 11 12  2  0
 13 14  1  0
 13 11  1  0
 15 14  1  1
 15 17  1  0
 16 15  1  0
 17 18  2  0
 20 19  1  0
 21 20  2  0
 22 20  1  0
 23 22  1  6
 24 23  1  0
 24 17  1  0
 25 27  1  0
 25 23  1  0
 26 25  2  0
M  END
$$$$
