QQN.pdb
     RDKit          3D

 27 26  0  0  1  0  0  0  0  0999 V2000
    8.4718  -12.8302   15.6257 N   0  0  0  0  0  0  0  0  0  0  0  0
    7.9378  -14.0014   16.2645 C   0  0  0  0  0  0  0  0  0  0  0  0
    8.0187  -15.0639   15.6380 O   0  0  0  0  0  0  0  0  0  0  0  0
    7.3289  -13.8898   17.6004 C   0  0  0  0  0  0  0  0  0  0  0  0
    8.3032  -13.6953   18.7100 C   0  0  0  0  0  0  0  0  0  0  0  0
    8.5147  -14.9378   19.5162 C   0  0  2  0  0  0  0  0  0  0  0  0
    7.3721  -15.7823   19.6378 N   0  0  0  0  0  0  0  0  0  0  0  0
    8.9561  -14.5462   20.9016 C   0  0  0  0  0  0  0  0  0  0  0  0
    9.9525  -13.8043   21.0430 O   0  0  0  0  0  0  0  0  0  0  0  0
    5.3308  -14.3017   26.3075 N   0  0  0  0  0  0  0  0  0  0  0  0
    6.4097  -13.3833   26.2480 C   0  0  0  0  0  0  0  0  0  0  0  0
    6.2981  -12.2743   26.8041 O   0  0  0  0  0  0  0  0  0  0  0  0
    7.6827  -13.7046   25.5360 C   0  0  0  0  0  0  0  0  0  0  0  0
    7.3865  -14.2872   24.1841 C   0  0  0  0  0  0  0  0  0  0  0  0
    8.6351  -14.5795   23.3909 C   0  0  2  0  0  0  0  0  0  0  0  0
    8.2501  -15.0127   22.0446 N   0  0  0  0  0  0  0  0  0  0  0  0
    9.5449  -15.5424   24.0217 C   0  0  0  0  0  0  0  0  0  0  0  0
    9.9314  -15.5023   25.2089 O   0  0  0  0  0  0  0  0  0  0  0  0
    8.9479  -19.7842   21.8636 N   0  0  0  0  0  0  0  0  0  0  0  0
    9.5505  -19.4282   23.1014 C   0  0  0  0  0  0  0  0  0  0  0  0
    8.8027  -19.5537   24.1210 O   0  0  0  0  0  0  0  0  0  0  0  0
   10.9443  -18.9408   23.2499 C   0  0  0  0  0  0  0  0  0  0  0  0
   11.0409  -17.5502   23.7605 C   0  0  2  0  0  0  0  0  0  0  0  0
   10.0655  -16.6396   23.2659 N   0  0  0  0  0  0  0  0  0  0  0  0
   12.4322  -17.0498   23.6140 C   0  0  0  0  0  0  0  0  0  0  0  0
   12.6735  -15.9598   23.0398 O   0  0  0  0  0  0  0  0  0  0  0  0
   13.4965  -17.7789   24.1101 O   0  0  0  0  0  0  0  0  0  0  0  0
  2  1  1  0
  2  4  1  0
  3  2  2  0
  5  6  1  0
  5  4  1  0
  6  8  1  0
  6  7  1  1
  8  9  2  0
  8 16  1  0
 10 11  1  0
 11 12  2  0
 13 14  1  0
 13 11  1  0
 15 14  1  1
 15 17  1  0
 16 15  1  0
 17 18  2  0
 20 19  1  0
 21 20  2  0
 22 20  1  0
 23 22  1  6
 24 23  1  0
 24 17  1  0
 25 27  1  0
 25 23  1  0
 26 25  2  0
M  END
$$$$
