QQN.pdb
     RDKit          3D

 27 26  0  0  1  0  0  0  0  0999 V2000
    8.2853  -18.4451   12.9078 N   0  0  0  0  0  0  0  0  0  0  0  0
    7.5119  -17.3828   13.4893 C   0  0  0  0  0  0  0  0  0  0  0  0
    6.8735  -16.6669   12.7096 O   0  0  0  0  0  0  0  0  0  0  0  0
    7.5151  -17.1934   14.9493 C   0  0  0  0  0  0  0  0  0  0  0  0
    8.8121  -16.7212   15.5090 C   0  0  0  0  0  0  0  0  0  0  0  0
    9.1802  -17.4196   16.7799 C   0  0  2  0  0  0  0  0  0  0  0  0
    8.1477  -18.2198   17.3518 N   0  0  0  0  0  0  0  0  0  0  0  0
    9.5899  -16.3880   17.7975 C   0  0  0  0  0  0  0  0  0  0  0  0
   10.4765  -15.5556   17.5070 O   0  0  0  0  0  0  0  0  0  0  0  0
    6.0798  -12.9785   21.0240 N   0  0  0  0  0  0  0  0  0  0  0  0
    6.7557  -12.7637   19.7960 C   0  0  0  0  0  0  0  0  0  0  0  0
    6.3081  -11.9238   18.9923 O   0  0  0  0  0  0  0  0  0  0  0  0
    7.9937  -13.5161   19.4331 C   0  0  0  0  0  0  0  0  0  0  0  0
    8.3270  -14.5123   20.5060 C   0  0  0  0  0  0  0  0  0  0  0  0
    9.4555  -15.4325   20.1148 C   0  0  2  0  0  0  0  0  0  0  0  0
    8.9776  -16.3547   19.0806 N   0  0  0  0  0  0  0  0  0  0  0  0
   10.0660  -16.1568   21.2352 C   0  0  0  0  0  0  0  0  0  0  0  0
    9.4900  -17.0059   21.9479 O   0  0  0  0  0  0  0  0  0  0  0  0
   12.8861  -20.1539   22.9083 N   0  0  0  0  0  0  0  0  0  0  0  0
   13.2703  -19.1950   21.9311 C   0  0  0  0  0  0  0  0  0  0  0  0
   14.4874  -19.2508   21.5701 O   0  0  0  0  0  0  0  0  0  0  0  0
   12.3598  -18.1817   21.3423 C   0  0  0  0  0  0  0  0  0  0  0  0
   12.3041  -16.9107   22.1072 C   0  0  2  0  0  0  0  0  0  0  0  0
   11.4305  -15.9138   21.5890 N   0  0  0  0  0  0  0  0  0  0  0  0
   13.6792  -16.4068   22.3578 C   0  0  0  0  0  0  0  0  0  0  0  0
   14.2040  -15.5491   21.6062 O   0  0  0  0  0  0  0  0  0  0  0  0
   14.4139  -16.8754   23.4308 O   0  0  0  0  0  0  0  0  0  0  0  0
  2  1  1  0
  2  4  1  0
  3  2  2  0
  5  6  1  0
  5  4  1  0
  6  8  1  0
  6  7  1  1
  8  9  2  0
  8 16  1  0
 10 11  1  0
 11 12  2  0
 13 14  1  0
 13 11  1  0
 15 14  1  1
 15 17  1  0
 16 15  1  0
 17 18  2  0
 20 19  1  0
 21 20  2  0
 22 20  1  0
 23 22  1  6
 24 23  1  0
 24 17  1  0
 25 27  1  0
 25 23  1  0
 26 25  2  0
M  END
$$$$
