QQN.pdb
     RDKit          3D

 27 26  0  0  1  0  0  0  0  0999 V2000
    9.6938  -14.0063   15.6052 N   0  0  0  0  0  0  0  0  0  0  0  0
    8.2608  -13.9002   15.5943 C   0  0  0  0  0  0  0  0  0  0  0  0
    7.6860  -14.2223   14.5484 O   0  0  0  0  0  0  0  0  0  0  0  0
    7.5559  -13.4212   16.7948 C   0  0  0  0  0  0  0  0  0  0  0  0
    8.4004  -13.3465   18.0194 C   0  0  0  0  0  0  0  0  0  0  0  0
    8.4255  -14.6334   18.7820 C   0  0  2  0  0  0  0  0  0  0  0  0
    7.2174  -15.3896   18.7335 N   0  0  0  0  0  0  0  0  0  0  0  0
    8.7320  -14.3344   20.2257 C   0  0  0  0  0  0  0  0  0  0  0  0
    9.7432  -13.6570   20.5122 O   0  0  0  0  0  0  0  0  0  0  0  0
    5.9410  -16.1923   25.2144 N   0  0  0  0  0  0  0  0  0  0  0  0
    6.6441  -15.0939   25.7714 C   0  0  0  0  0  0  0  0  0  0  0  0
    6.7017  -14.9714   27.0097 O   0  0  0  0  0  0  0  0  0  0  0  0
    7.3213  -14.0735   24.9166 C   0  0  0  0  0  0  0  0  0  0  0  0
    7.0220  -14.3312   23.4679 C   0  0  0  0  0  0  0  0  0  0  0  0
    8.2573  -14.6610   22.6687 C   0  0  2  0  0  0  0  0  0  0  0  0
    7.8828  -14.8151   21.2601 N   0  0  0  0  0  0  0  0  0  0  0  0
    9.0018  -15.8285   23.1539 C   0  0  0  0  0  0  0  0  0  0  0  0
    8.7375  -17.0191   22.8833 O   0  0  0  0  0  0  0  0  0  0  0  0
   11.7974  -17.7199   21.7875 N   0  0  0  0  0  0  0  0  0  0  0  0
   12.7324  -17.0460   22.6203 C   0  0  0  0  0  0  0  0  0  0  0  0
   13.8901  -16.8946   22.1189 O   0  0  0  0  0  0  0  0  0  0  0  0
   12.4329  -16.5364   23.9816 C   0  0  0  0  0  0  0  0  0  0  0  0
   11.0145  -16.7060   24.3855 C   0  0  2  0  0  0  0  0  0  0  0  0
   10.1337  -15.6529   24.0108 N   0  0  0  0  0  0  0  0  0  0  0  0
   10.9338  -17.0468   25.8294 C   0  0  0  0  0  0  0  0  0  0  0  0
   10.5288  -18.1726   26.2097 O   0  0  0  0  0  0  0  0  0  0  0  0
   11.3054  -16.1251   26.7902 O   0  0  0  0  0  0  0  0  0  0  0  0
  2  1  1  0
  2  4  1  0
  3  2  2  0
  5  6  1  0
  5  4  1  0
  6  8  1  0
  6  7  1  1
  8  9  2  0
  8 16  1  0
 10 11  1  0
 11 12  2  0
 13 14  1  0
 13 11  1  0
 15 14  1  1
 15 17  1  0
 16 15  1  0
 17 18  2  0
 20 19  1  0
 21 20  2  0
 22 20  1  0
 23 22  1  1
 24 23  1  0
 24 17  1  0
 25 27  1  0
 25 23  1  0
 26 25  2  0
M  END
$$$$
