QQN.pdb
     RDKit          3D

 27 26  0  0  1  0  0  0  0  0999 V2000
    7.1295  -12.3715   19.3314 N   0  0  0  0  0  0  0  0  0  0  0  0
    7.0335  -13.7329   18.8816 C   0  0  0  0  0  0  0  0  0  0  0  0
    5.9815  -14.3306   19.1347 O   0  0  0  0  0  0  0  0  0  0  0  0
    8.1628  -14.3443   18.1615 C   0  0  0  0  0  0  0  0  0  0  0  0
    9.2727  -13.4047   17.8396 C   0  0  0  0  0  0  0  0  0  0  0  0
   10.4025  -14.0715   17.1204 C   0  0  2  0  0  0  0  0  0  0  0  0
   10.0376  -14.7595   15.9258 N   0  0  0  0  0  0  0  0  0  0  0  0
   11.0506  -15.0622   18.0510 C   0  0  0  0  0  0  0  0  0  0  0  0
   11.2765  -16.2251   17.6510 O   0  0  0  0  0  0  0  0  0  0  0  0
   16.3640  -16.0010   19.5392 N   0  0  0  0  0  0  0  0  0  0  0  0
   15.5522  -14.8412   19.6232 C   0  0  0  0  0  0  0  0  0  0  0  0
   16.0309  -13.7949   20.1003 O   0  0  0  0  0  0  0  0  0  0  0  0
   14.1338  -14.8338   19.1556 C   0  0  0  0  0  0  0  0  0  0  0  0
   13.3969  -16.0144   19.7197 C   0  0  0  0  0  0  0  0  0  0  0  0
   12.0472  -15.6435   20.2803 C   0  0  2  0  0  0  0  0  0  0  0  0
   11.4057  -14.6853   19.3755 N   0  0  0  0  0  0  0  0  0  0  0  0
   12.0786  -15.1385   21.6575 C   0  0  0  0  0  0  0  0  0  0  0  0
   12.0938  -13.9334   21.9864 O   0  0  0  0  0  0  0  0  0  0  0  0
    7.7423  -14.9996   22.1119 N   0  0  0  0  0  0  0  0  0  0  0  0
    8.7385  -15.3519   23.0634 C   0  0  0  0  0  0  0  0  0  0  0  0
    8.7893  -14.6073   24.0919 O   0  0  0  0  0  0  0  0  0  0  0  0
    9.6756  -16.4933   22.9178 C   0  0  0  0  0  0  0  0  0  0  0  0
   10.9760  -16.2915   23.6050 C   0  0  2  0  0  0  0  0  0  0  0  0
   12.0940  -16.0530   22.7573 N   0  0  0  0  0  0  0  0  0  0  0  0
   11.2096  -17.3850   24.5833 C   0  0  0  0  0  0  0  0  0  0  0  0
   10.9086  -18.5736   24.3135 O   0  0  0  0  0  0  0  0  0  0  0  0
   11.7669  -17.1145   25.8190 O   0  0  0  0  0  0  0  0  0  0  0  0
  2  1  1  0
  2  4  1  0
  3  2  2  0
  5  6  1  0
  5  4  1  0
  6  8  1  0
  6  7  1  6
  8  9  2  0
  8 16  1  0
 10 11  1  0
 11 12  2  0
 13 14  1  0
 13 11  1  0
 15 14  1  6
 15 17  1  0
 16 15  1  0
 17 18  2  0
 20 19  1  0
 21 20  2  0
 22 20  1  0
 23 22  1  6
 24 23  1  0
 24 17  1  0
 25 27  1  0
 25 23  1  0
 26 25  2  0
M  END
$$$$
