QQN.pdb
     RDKit          3D

 27 26  0  0  1  0  0  0  0  0999 V2000
    5.9331  -19.8730   19.9497 N   0  0  0  0  0  0  0  0  0  0  0  0
    6.0650  -18.4422   19.9327 C   0  0  0  0  0  0  0  0  0  0  0  0
    5.3466  -17.8070   20.7126 O   0  0  0  0  0  0  0  0  0  0  0  0
    7.0210  -17.8090   19.0093 C   0  0  0  0  0  0  0  0  0  0  0  0
    8.1066  -17.0375   19.6759 C   0  0  0  0  0  0  0  0  0  0  0  0
    7.8306  -15.5675   19.7128 C   0  0  2  0  0  0  0  0  0  0  0  0
    8.3096  -14.8332   18.5881 N   0  0  0  0  0  0  0  0  0  0  0  0
    8.4600  -14.9880   20.9519 C   0  0  0  0  0  0  0  0  0  0  0  0
    9.7017  -14.8513   21.0047 O   0  0  0  0  0  0  0  0  0  0  0  0
    5.3232  -12.7744   26.0580 N   0  0  0  0  0  0  0  0  0  0  0  0
    6.6800  -12.7744   26.4703 C   0  0  0  0  0  0  0  0  0  0  0  0
    6.9789  -12.3044   27.5844 O   0  0  0  0  0  0  0  0  0  0  0  0
    7.7683  -13.3229   25.6070 C   0  0  0  0  0  0  0  0  0  0  0  0
    7.2211  -13.6969   24.2596 C   0  0  0  0  0  0  0  0  0  0  0  0
    8.2589  -14.3261   23.3648 C   0  0  2  0  0  0  0  0  0  0  0  0
    7.6550  -14.5972   22.0571 N   0  0  0  0  0  0  0  0  0  0  0  0
    8.8925  -15.5275   23.9196 C   0  0  0  0  0  0  0  0  0  0  0  0
    8.5336  -16.7033   23.6974 O   0  0  0  0  0  0  0  0  0  0  0  0
   12.9788  -18.4518   25.5808 N   0  0  0  0  0  0  0  0  0  0  0  0
   13.2830  -17.3072   24.7938 C   0  0  0  0  0  0  0  0  0  0  0  0
   14.4627  -17.2746   24.3228 O   0  0  0  0  0  0  0  0  0  0  0  0
   12.3325  -16.2032   24.5110 C   0  0  0  0  0  0  0  0  0  0  0  0
   10.9601  -16.4496   25.0206 C   0  0  2  0  0  0  0  0  0  0  0  0
   10.0186  -15.4070   24.7934 N   0  0  0  0  0  0  0  0  0  0  0  0
   11.0149  -16.8858   26.4398 C   0  0  0  0  0  0  0  0  0  0  0  0
   10.6909  -16.1090   27.3713 O   0  0  0  0  0  0  0  0  0  0  0  0
   11.4266  -18.1643   26.7660 O   0  0  0  0  0  0  0  0  0  0  0  0
  2  1  1  0
  2  4  1  0
  3  2  2  0
  5  6  1  0
  5  4  1  0
  6  8  1  0
  6  7  1  6
  8  9  2  0
  8 16  1  0
 10 11  1  0
 11 12  2  0
 13 14  1  0
 13 11  1  0
 15 14  1  1
 15 17  1  0
 16 15  1  0
 17 18  2  0
 20 19  1  0
 21 20  2  0
 22 20  1  0
 23 22  1  1
 24 23  1  0
 24 17  1  0
 25 27  1  0
 25 23  1  0
 26 25  2  0
M  END
$$$$
