FST.pdb
     RDKit          3D

 25 25  0  0  1  0  0  0  0  0999 V2000
    6.6335  -17.9850   19.6367 N   0  0  0  0  0  0  0  0  0  0  0  0
    7.1646  -16.7716   20.2056 C   0  0  1  0  0  0  0  0  0  0  0  0
    6.2749  -15.6282   19.7786 C   0  0  0  0  0  0  0  0  0  0  0  0
    6.8917  -14.3811   20.2499 C   0  0  0  0  0  0  0  0  0  0  0  0
    7.7419  -13.6869   19.4304 C   0  0  0  0  0  0  0  0  0  0  0  0
    8.3396  -12.5087   19.8459 C   0  0  0  0  0  0  0  0  0  0  0  0
    8.0646  -12.0348   21.1143 C   0  0  0  0  0  0  0  0  0  0  0  0
    7.2245  -12.7043   21.9473 C   0  0  0  0  0  0  0  0  0  0  0  0
    6.6423  -13.8776   21.5060 C   0  0  0  0  0  0  0  0  0  0  0  0
    7.3732  -16.8467   21.6543 C   0  0  0  0  0  0  0  0  0  0  0  0
    6.3929  -17.1717   22.3797 O   0  0  0  0  0  0  0  0  0  0  0  0
   11.1032  -17.3130   23.5938 O   0  0  0  0  0  0  0  0  0  0  0  0
    9.8843  -17.7845   24.0150 C   0  0  0  0  0  0  0  0  0  0  0  0
    8.7732  -16.7919   23.7506 C   0  0  2  0  0  0  0  0  0  0  0  0
    8.5944  -16.5833   22.3230 N   0  0  0  0  0  0  0  0  0  0  0  0
    9.0023  -15.5124   24.4584 C   0  0  0  0  0  0  0  0  0  0  0  0
    9.8165  -14.6961   23.9470 O   0  0  0  0  0  0  0  0  0  0  0  0
    6.9831  -12.3942   25.6830 C   0  0  0  0  0  0  0  0  0  0  0  0
    7.5516  -13.2119   26.8164 C   0  0  1  0  0  0  0  0  0  0  0  0
    6.5505  -14.0759   27.2590 O   0  0  0  0  0  0  0  0  0  0  0  0
    8.7946  -13.9610   26.4319 C   0  0  2  0  0  0  0  0  0  0  0  0
    8.3807  -15.1283   25.6642 N   0  0  0  0  0  0  0  0  0  0  0  0
    9.5434  -14.3290   27.6399 C   0  0  0  0  0  0  0  0  0  0  0  0
    9.7667  -15.5146   27.9967 O   0  0  0  0  0  0  0  0  0  0  0  0
   10.0357  -13.3126   28.4379 O   0  0  0  0  0  0  0  0  0  0  0  0
  2  1  1  1
  2 10  1  0
  3  2  1  0
  4  9  2  0
  4  3  1  0
  5  4  1  0
  6  7  1  0
  6  5  2  0
  7  8  2  0
  8  9  1  0
 10 11  2  0
 12 13  1  0
 14 13  1  6
 14 16  1  0
 15 10  1  0
 15 14  1  0
 16 17  2  0
 19 18  1  6
 19 21  1  0
 20 19  1  0
 21 23  1  0
 22 16  1  0
 21 22  1  1
 23 24  2  0
 23 25  1  0
M  END
$$$$
