FST.pdb
     RDKit          3D

 25 25  0  0  1  0  0  0  0  0999 V2000
    5.9928  -16.3285   25.7215 N   0  0  0  0  0  0  0  0  0  0  0  0
    6.5582  -16.2092   24.4009 C   0  0  1  0  0  0  0  0  0  0  0  0
    6.2587  -14.8201   23.8893 C   0  0  0  0  0  0  0  0  0  0  0  0
    6.6801  -13.8627   24.9206 C   0  0  0  0  0  0  0  0  0  0  0  0
    5.8298  -13.5452   25.9466 C   0  0  0  0  0  0  0  0  0  0  0  0
    6.1975  -12.6459   26.9336 C   0  0  0  0  0  0  0  0  0  0  0  0
    7.4493  -12.0645   26.8707 C   0  0  0  0  0  0  0  0  0  0  0  0
    8.3121  -12.3623   25.8634 C   0  0  0  0  0  0  0  0  0  0  0  0
    7.9184  -13.2633   24.8920 C   0  0  0  0  0  0  0  0  0  0  0  0
    7.9779  -16.5672   24.3375 C   0  0  0  0  0  0  0  0  0  0  0  0
    8.5306  -16.9940   25.3889 O   0  0  0  0  0  0  0  0  0  0  0  0
   10.5767  -15.5146   21.3127 O   0  0  0  0  0  0  0  0  0  0  0  0
   10.7598  -16.7978   21.7657 C   0  0  0  0  0  0  0  0  0  0  0  0
   10.1504  -17.0053   23.1351 C   0  0  2  0  0  0  0  0  0  0  0  0
    8.7974  -16.4758   23.1851 N   0  0  0  0  0  0  0  0  0  0  0  0
   10.9959  -16.4274   24.2037 C   0  0  0  0  0  0  0  0  0  0  0  0
   11.3006  -15.2066   24.1158 O   0  0  0  0  0  0  0  0  0  0  0  0
   10.3657  -15.4705   27.5540 C   0  0  0  0  0  0  0  0  0  0  0  0
   11.4905  -16.4744   27.6111 C   0  0  1  0  0  0  0  0  0  0  0  0
   10.9321  -17.7206   27.8935 O   0  0  0  0  0  0  0  0  0  0  0  0
   12.3079  -16.5102   26.3523 C   0  0  2  0  0  0  0  0  0  0  0  0
   11.4909  -17.1335   25.3192 N   0  0  0  0  0  0  0  0  0  0  0  0
   13.5544  -17.2474   26.5931 C   0  0  0  0  0  0  0  0  0  0  0  0
   14.4435  -16.8821   27.4049 O   0  0  0  0  0  0  0  0  0  0  0  0
   13.7688  -18.4163   25.8861 O   0  0  0  0  0  0  0  0  0  0  0  0
  2  1  1  1
  2 10  1  0
  3  2  1  0
  4  9  2  0
  4  3  1  0
  5  4  1  0
  6  7  1  0
  6  5  2  0
  7  8  2  0
  8  9  1  0
 10 11  2  0
 12 13  1  0
 14 13  1  6
 14 16  1  0
 15 10  1  0
 15 14  1  0
 16 17  2  0
 19 18  1  6
 19 21  1  0
 20 19  1  0
 21 23  1  0
 22 16  1  0
 21 22  1  6
 23 24  2  0
 23 25  1  0
M  END
$$$$
