FST.pdb
     RDKit          3D

 25 25  0  0  1  0  0  0  0  0999 V2000
    5.8175  -16.8778   25.7583 N   0  0  0  0  0  0  0  0  0  0  0  0
    6.6503  -15.8837   25.1290 C   0  0  1  0  0  0  0  0  0  0  0  0
    7.4955  -15.2372   26.2009 C   0  0  0  0  0  0  0  0  0  0  0  0
    7.0836  -13.8313   26.3083 C   0  0  0  0  0  0  0  0  0  0  0  0
    7.9031  -12.8410   25.8350 C   0  0  0  0  0  0  0  0  0  0  0  0
    7.5434  -11.5064   25.9223 C   0  0  0  0  0  0  0  0  0  0  0  0
    6.3315  -11.1807   26.5004 C   0  0  0  0  0  0  0  0  0  0  0  0
    5.4998  -12.1441   26.9780 C   0  0  0  0  0  0  0  0  0  0  0  0
    5.8846  -13.4678   26.8774 C   0  0  0  0  0  0  0  0  0  0  0  0
    7.4265  -16.4008   23.9985 C   0  0  0  0  0  0  0  0  0  0  0  0
    8.0600  -17.4809   24.1572 O   0  0  0  0  0  0  0  0  0  0  0  0
    8.3288  -14.2792   20.4026 O   0  0  0  0  0  0  0  0  0  0  0  0
    8.0759  -15.6277   20.3488 C   0  0  0  0  0  0  0  0  0  0  0  0
    8.3767  -16.3114   21.6647 C   0  0  2  0  0  0  0  0  0  0  0  0
    7.5310  -15.7881   22.7251 N   0  0  0  0  0  0  0  0  0  0  0  0
    9.8104  -16.2106   22.0187 C   0  0  0  0  0  0  0  0  0  0  0  0
   10.2148  -15.1302   22.5284 O   0  0  0  0  0  0  0  0  0  0  0  0
   12.1289  -18.5058   24.2841 C   0  0  0  0  0  0  0  0  0  0  0  0
   12.5927  -18.3739   22.8545 C   0  0  1  0  0  0  0  0  0  0  0  0
   12.1117  -19.4768   22.1496 O   0  0  0  0  0  0  0  0  0  0  0  0
   12.1647  -17.0839   22.2167 C   0  0  2  0  0  0  0  0  0  0  0  0
   10.7667  -17.2299   21.8326 N   0  0  0  0  0  0  0  0  0  0  0  0
   13.0280  -16.7911   21.0660 C   0  0  0  0  0  0  0  0  0  0  0  0
   12.6359  -16.7997   19.8705 O   0  0  0  0  0  0  0  0  0  0  0  0
   14.3553  -16.4866   21.3062 O   0  0  0  0  0  0  0  0  0  0  0  0
  2  1  1  1
  2 10  1  0
  3  2  1  0
  4  9  2  0
  4  3  1  0
  5  4  1  0
  6  7  1  0
  6  5  2  0
  7  8  2  0
  8  9  1  0
 10 11  2  0
 12 13  1  0
 14 13  1  6
 14 16  1  0
 15 10  1  0
 15 14  1  0
 16 17  2  0
 19 18  1  1
 19 21  1  0
 20 19  1  0
 21 23  1  0
 22 16  1  0
 21 22  1  6
 23 24  2  0
 23 25  1  0
M  END
$$$$
