FST.pdb
     RDKit          3D

 25 25  0  0  1  0  0  0  0  0999 V2000
    6.3853  -16.4204   25.8905 N   0  0  0  0  0  0  0  0  0  0  0  0
    7.0751  -15.5228   24.9982 C   0  0  1  0  0  0  0  0  0  0  0  0
    8.0413  -14.7013   25.8185 C   0  0  0  0  0  0  0  0  0  0  0  0
    7.3027  -13.5548   26.3641 C   0  0  0  0  0  0  0  0  0  0  0  0
    7.8123  -12.8568   27.4269 C   0  0  0  0  0  0  0  0  0  0  0  0
    7.1396  -11.7719   27.9643 C   0  0  0  0  0  0  0  0  0  0  0  0
    5.9317  -11.3965   27.4084 C   0  0  0  0  0  0  0  0  0  0  0  0
    5.4040  -12.0721   26.3534 C   0  0  0  0  0  0  0  0  0  0  0  0
    6.0973  -13.1508   25.8376 C   0  0  0  0  0  0  0  0  0  0  0  0
    7.6974  -16.1971   23.8555 C   0  0  0  0  0  0  0  0  0  0  0  0
    7.9983  -17.4169   23.9770 O   0  0  0  0  0  0  0  0  0  0  0  0
    8.3338  -14.2164   20.4123 O   0  0  0  0  0  0  0  0  0  0  0  0
    8.7206  -15.5269   20.2762 C   0  0  0  0  0  0  0  0  0  0  0  0
    8.8553  -16.2177   21.6157 C   0  0  2  0  0  0  0  0  0  0  0  0
    7.9959  -15.5938   22.6086 N   0  0  0  0  0  0  0  0  0  0  0  0
   10.2631  -16.2599   22.0707 C   0  0  0  0  0  0  0  0  0  0  0  0
   10.7706  -15.1919   22.5096 O   0  0  0  0  0  0  0  0  0  0  0  0
   12.0952  -18.7418   24.6418 C   0  0  0  0  0  0  0  0  0  0  0  0
   12.6848  -18.7073   23.2535 C   0  0  1  0  0  0  0  0  0  0  0  0
   12.1414  -19.7723   22.5358 O   0  0  0  0  0  0  0  0  0  0  0  0
   12.4573  -17.3988   22.5532 C   0  0  2  0  0  0  0  0  0  0  0  0
   11.0882  -17.4031   22.0546 N   0  0  0  0  0  0  0  0  0  0  0  0
   13.4397  -17.2384   21.4741 C   0  0  0  0  0  0  0  0  0  0  0  0
   13.1461  -17.2196   20.2509 O   0  0  0  0  0  0  0  0  0  0  0  0
   14.7716  -17.0991   21.8190 O   0  0  0  0  0  0  0  0  0  0  0  0
  2  1  1  1
  2 10  1  0
  3  2  1  0
  4  9  2  0
  4  3  1  0
  5  4  1  0
  6  7  1  0
  6  5  2  0
  7  8  2  0
  8  9  1  0
 10 11  2  0
 12 13  1  0
 14 13  1  6
 14 16  1  0
 15 10  1  0
 15 14  1  0
 16 17  2  0
 19 18  1  1
 19 21  1  0
 20 19  1  0
 21 23  1  0
 22 16  1  0
 21 22  1  6
 23 24  2  0
 23 25  1  0
M  END
$$$$
