FST.pdb
     RDKit          3D

 25 25  0  0  1  0  0  0  0  0999 V2000
    5.8525  -17.9451   25.3591 N   0  0  0  0  0  0  0  0  0  0  0  0
    6.4330  -16.6314   25.2363 C   0  0  1  0  0  0  0  0  0  0  0  0
    6.8033  -16.1541   26.6206 C   0  0  0  0  0  0  0  0  0  0  0  0
    6.9945  -14.6992   26.5561 C   0  0  0  0  0  0  0  0  0  0  0  0
    5.9101  -13.8641   26.6136 C   0  0  0  0  0  0  0  0  0  0  0  0
    6.0576  -12.4883   26.5545 C   0  0  0  0  0  0  0  0  0  0  0  0
    7.3287  -11.9602   26.4352 C   0  0  0  0  0  0  0  0  0  0  0  0
    8.4215  -12.7665   26.3761 C   0  0  0  0  0  0  0  0  0  0  0  0
    8.2444  -14.1360   26.4373 C   0  0  0  0  0  0  0  0  0  0  0  0
    7.5378  -16.5671   24.2756 C   0  0  0  0  0  0  0  0  0  0  0  0
    8.4376  -17.4495   24.3449 O   0  0  0  0  0  0  0  0  0  0  0  0
    7.3496  -14.7774   20.5156 O   0  0  0  0  0  0  0  0  0  0  0  0
    8.5284  -14.5922   21.1949 C   0  0  0  0  0  0  0  0  0  0  0  0
    8.7390  -15.6481   22.2581 C   0  0  2  0  0  0  0  0  0  0  0  0
    7.6886  -15.5890   23.2614 N   0  0  0  0  0  0  0  0  0  0  0  0
   10.0805  -15.5442   22.8746 C   0  0  0  0  0  0  0  0  0  0  0  0
   10.3401  -14.5076   23.5447 O   0  0  0  0  0  0  0  0  0  0  0  0
   11.8053  -17.5021   25.5899 C   0  0  0  0  0  0  0  0  0  0  0  0
   12.5889  -17.5780   24.3028 C   0  0  1  0  0  0  0  0  0  0  0  0
   12.2167  -18.7521   23.6489 O   0  0  0  0  0  0  0  0  0  0  0  0
   12.3936  -16.3745   23.4265 C   0  0  2  0  0  0  0  0  0  0  0  0
   11.0980  -16.5151   22.7747 N   0  0  0  0  0  0  0  0  0  0  0  0
   13.4940  -16.2838   22.4590 C   0  0  0  0  0  0  0  0  0  0  0  0
   13.3595  -16.4585   21.2204 O   0  0  0  0  0  0  0  0  0  0  0  0
   14.7586  -15.9883   22.9342 O   0  0  0  0  0  0  0  0  0  0  0  0
  2  1  1  1
  2 10  1  0
  3  2  1  0
  4  9  2  0
  4  3  1  0
  5  4  1  0
  6  7  1  0
  6  5  2  0
  7  8  2  0
  8  9  1  0
 10 11  2  0
 12 13  1  0
 14 13  1  6
 14 16  1  0
 15 10  1  0
 15 14  1  0
 16 17  2  0
 19 18  1  1
 19 21  1  0
 20 19  1  0
 21 23  1  0
 22 16  1  0
 21 22  1  6
 23 24  2  0
 23 25  1  0
M  END
$$$$
