FST.pdb
     RDKit          3D

 25 25  0  0  1  0  0  0  0  0999 V2000
    5.8054  -17.3121   22.2578 N   0  0  0  0  0  0  0  0  0  0  0  0
    6.9107  -16.3933   22.3672 C   0  0  1  0  0  0  0  0  0  0  0  0
    6.3461  -15.0006   22.5183 C   0  0  0  0  0  0  0  0  0  0  0  0
    6.9363  -14.1619   21.4667 C   0  0  0  0  0  0  0  0  0  0  0  0
    7.6900  -13.0696   21.8062 C   0  0  0  0  0  0  0  0  0  0  0  0
    8.2591  -12.2591   20.8381 C   0  0  0  0  0  0  0  0  0  0  0  0
    8.0550  -12.5690   19.5072 C   0  0  0  0  0  0  0  0  0  0  0  0
    7.3113  -13.6471   19.1433 C   0  0  0  0  0  0  0  0  0  0  0  0
    6.7554  -14.4384   20.1309 C   0  0  0  0  0  0  0  0  0  0  0  0
    7.8721  -16.7560   23.4122 C   0  0  0  0  0  0  0  0  0  0  0  0
    7.4266  -17.0246   24.5622 O   0  0  0  0  0  0  0  0  0  0  0  0
   12.0708  -17.0661   22.8534 O   0  0  0  0  0  0  0  0  0  0  0  0
   11.4116  -17.9379   23.6844 C   0  0  0  0  0  0  0  0  0  0  0  0
   10.1704  -17.3151   24.2856 C   0  0  2  0  0  0  0  0  0  0  0  0
    9.2771  -16.8332   23.2448 N   0  0  0  0  0  0  0  0  0  0  0  0
   10.5075  -16.2416   25.2471 C   0  0  0  0  0  0  0  0  0  0  0  0
   11.2658  -15.3150   24.8506 O   0  0  0  0  0  0  0  0  0  0  0  0
    9.2266  -13.2859   26.9211 C   0  0  0  0  0  0  0  0  0  0  0  0
    9.5466  -14.3083   27.9835 C   0  0  1  0  0  0  0  0  0  0  0  0
    8.3633  -14.9745   28.3005 O   0  0  0  0  0  0  0  0  0  0  0  0
   10.6238  -15.2678   27.5672 C   0  0  2  0  0  0  0  0  0  0  0  0
   10.0470  -16.1686   26.5777 N   0  0  0  0  0  0  0  0  0  0  0  0
   11.1274  -15.9864   28.7441 C   0  0  0  0  0  0  0  0  0  0  0  0
   11.0215  -17.2291   28.9097 O   0  0  0  0  0  0  0  0  0  0  0  0
   11.7581  -15.2561   29.7346 O   0  0  0  0  0  0  0  0  0  0  0  0
  2  1  1  1
  2 10  1  0
  3  2  1  0
  4  9  2  0
  4  3  1  0
  5  4  1  0
  6  7  1  0
  6  5  2  0
  7  8  2  0
  8  9  1  0
 10 11  2  0
 12 13  1  0
 14 13  1  6
 14 16  1  0
 15 10  1  0
 15 14  1  0
 16 17  2  0
 19 18  1  6
 19 21  1  0
 20 19  1  0
 21 23  1  0
 22 16  1  0
 21 22  1  6
 23 24  2  0
 23 25  1  0
M  END
$$$$
