FST.pdb
     RDKit          3D

 25 25  0  0  1  0  0  0  0  0999 V2000
    6.5730  -16.3960   26.0417 N   0  0  0  0  0  0  0  0  0  0  0  0
    7.1086  -15.5310   25.0207 C   0  0  1  0  0  0  0  0  0  0  0  0
    8.1307  -14.6253   25.6659 C   0  0  0  0  0  0  0  0  0  0  0  0
    7.4118  -13.4893   26.2578 C   0  0  0  0  0  0  0  0  0  0  0  0
    6.3187  -12.9651   25.6201 C   0  0  0  0  0  0  0  0  0  0  0  0
    5.6203  -11.8940   26.1522 C   0  0  0  0  0  0  0  0  0  0  0  0
    6.0447  -11.3526   27.3504 C   0  0  0  0  0  0  0  0  0  0  0  0
    7.1263  -11.8539   28.0036 C   0  0  0  0  0  0  0  0  0  0  0  0
    7.8041  -12.9234   27.4492 C   0  0  0  0  0  0  0  0  0  0  0  0
    7.6156  -16.2517   23.8496 C   0  0  0  0  0  0  0  0  0  0  0  0
    8.0015  -17.4432   24.0064 O   0  0  0  0  0  0  0  0  0  0  0  0
    8.4146  -14.4034   20.1492 O   0  0  0  0  0  0  0  0  0  0  0  0
    8.1315  -15.7468   20.1315 C   0  0  0  0  0  0  0  0  0  0  0  0
    8.4197  -16.4021   21.4646 C   0  0  2  0  0  0  0  0  0  0  0  0
    7.7130  -15.7232   22.5385 N   0  0  0  0  0  0  0  0  0  0  0  0
    9.8729  -16.4744   21.7362 C   0  0  0  0  0  0  0  0  0  0  0  0
   10.4614  -15.4104   22.0713 O   0  0  0  0  0  0  0  0  0  0  0  0
   12.0162  -18.5678   24.2633 C   0  0  0  0  0  0  0  0  0  0  0  0
   12.3635  -18.8321   22.8191 C   0  0  1  0  0  0  0  0  0  0  0  0
   11.6522  -19.9603   22.4119 O   0  0  0  0  0  0  0  0  0  0  0  0
   12.0889  -17.6567   21.9263 C   0  0  2  0  0  0  0  0  0  0  0  0
   10.6580  -17.6425   21.6514 N   0  0  0  0  0  0  0  0  0  0  0  0
   12.8879  -17.7702   20.6999 C   0  0  0  0  0  0  0  0  0  0  0  0
   12.3997  -17.9574   19.5556 O   0  0  0  0  0  0  0  0  0  0  0  0
   14.2628  -17.6655   20.8043 O   0  0  0  0  0  0  0  0  0  0  0  0
  2  1  1  1
  2 10  1  0
  3  2  1  0
  4  9  2  0
  4  3  1  0
  5  4  1  0
  6  7  1  0
  6  5  2  0
  7  8  2  0
  8  9  1  0
 10 11  2  0
 12 13  1  0
 14 13  1  6
 14 16  1  0
 15 10  1  0
 15 14  1  0
 16 17  2  0
 19 18  1  1
 19 21  1  0
 20 19  1  0
 21 23  1  0
 22 16  1  0
 21 22  1  6
 23 24  2  0
 23 25  1  0
M  END
$$$$
