NRP.pdb
     RDKit          3D

 27 27  0  0  1  0  0  0  0  0999 V2000
   29.8394  -10.9251  -18.3443 N   0  0  0  0  0  0  0  0  0  0  0  0
   29.6278   -9.5985  -17.8655 C   0  0  0  0  0  0  0  0  0  0  0  0
   30.5522   -8.9953  -17.2940 O   0  0  0  0  0  0  0  0  0  0  0  0
   28.3152   -8.9770  -18.0619 C   0  0  0  0  0  0  0  0  0  0  0  0
   27.2783   -9.9615  -18.6072 C   0  0  2  0  0  0  0  0  0  0  0  0
   27.6365  -10.2435  -19.9711 N   0  0  0  0  0  0  0  0  0  0  0  0
   25.9629   -9.2827  -18.4776 C   0  0  0  0  0  0  0  0  0  0  0  0
   25.7104   -8.3557  -19.2665 O   0  0  0  0  0  0  0  0  0  0  0  0
   22.0677  -14.5330  -16.7402 N   0  0  0  0  0  0  0  0  0  0  0  0
   22.4741  -14.2213  -15.4175 C   0  0  0  0  0  0  0  0  0  0  0  0
   22.9800  -15.0935  -14.6350 N   0  0  0  0  0  0  0  0  0  0  0  0
   22.3088  -12.8763  -14.9458 N   0  0  0  0  0  0  0  0  0  0  0  0
   21.7817  -11.8385  -15.8047 C   0  0  0  0  0  0  0  0  0  0  0  0
   22.8632  -10.7603  -15.9145 C   0  0  0  0  0  0  0  0  0  0  0  0
   22.7126  -10.1311  -17.2492 C   0  0  0  0  0  0  0  0  0  0  0  0
   23.6889   -9.0459  -17.5570 C   0  0  2  0  0  0  0  0  0  0  0  0
   25.0049   -9.6615  -17.4917 N   0  0  0  0  0  0  0  0  0  0  0  0
   23.5256   -7.8490  -16.7360 C   0  0  0  0  0  0  0  0  0  0  0  0
   24.1896   -7.8755  -15.6215 O   0  0  0  0  0  0  0  0  0  0  0  0
   23.1995  -14.8731  -13.6536 N   0  0  0  0  0  0  0  0  0  0  0  0
   22.7378   -6.7108  -17.0379 C   0  0  0  0  0  0  0  0  0  0  0  0
   21.9393   -6.4844  -18.1966 C   0  0  0  0  0  0  0  0  0  0  0  0
   21.2119   -5.1428  -17.9375 C   0  0  0  0  0  0  0  0  0  0  0  0
   22.2575   -4.4464  -17.0716 C   0  0  1  0  0  0  0  0  0  0  0  0
   22.6240   -5.5816  -16.1566 C   0  0  0  0  0  0  0  0  0  0  0  0
   21.6349   -5.7824  -15.0758 O   0  0  0  0  0  0  0  0  0  0  0  0
   20.8571   -6.7665  -15.1561 O   0  0  0  0  0  0  0  0  0  0  0  0
  2  1  1  0
  2  3  2  0
  4  5  1  0
  4  2  1  0
  5  6  1  6
  7  8  2  0
  7  5  1  0
  9 10  1  0
 10 11  2  0
 12 13  1  0
 12 10  1  0
 13 14  1  0
 14 15  1  0
 16 15  1  1
 16 17  1  0
 17  7  1  0
 18 16  1  0
 19 18  2  0
 20 18  1  0
 21 20  1  0
 22 21  1  0
 23 24  1  0
 23 22  1  0
 24 20  1  0
 25 27  1  0
 24 25  1  1
 26 25  2  0
M  END
$$$$
