NRP.pdb
     RDKit          3D

 27 27  0  0  1  0  0  0  0  0999 V2000
   26.4772  -14.1729  -21.0992 N   0  0  0  0  0  0  0  0  0  0  0  0
   26.4906  -14.5959  -19.7373 C   0  0  0  0  0  0  0  0  0  0  0  0
   26.6960  -13.7646  -18.8363 O   0  0  0  0  0  0  0  0  0  0  0  0
   26.2599  -16.0110  -19.4342 C   0  0  0  0  0  0  0  0  0  0  0  0
   27.3738  -16.6137  -18.5753 C   0  0  2  0  0  0  0  0  0  0  0  0
   28.4797  -16.8951  -19.4504 N   0  0  0  0  0  0  0  0  0  0  0  0
   26.7960  -17.8335  -17.9541 C   0  0  0  0  0  0  0  0  0  0  0  0
   26.6358  -18.8310  -18.6786 O   0  0  0  0  0  0  0  0  0  0  0  0
   25.2198  -20.5537  -10.2917 N   0  0  0  0  0  0  0  0  0  0  0  0
   25.9908  -21.0570  -11.3708 C   0  0  0  0  0  0  0  0  0  0  0  0
   26.3853  -22.2698  -11.4209 N   0  0  0  0  0  0  0  0  0  0  0  0
   26.3377  -20.1679  -12.4421 N   0  0  0  0  0  0  0  0  0  0  0  0
   25.9402  -18.7771  -12.4228 C   0  0  0  0  0  0  0  0  0  0  0  0
   26.3205  -18.1870  -13.7834 C   0  0  0  0  0  0  0  0  0  0  0  0
   26.4846  -19.3266  -14.7185 C   0  0  0  0  0  0  0  0  0  0  0  0
   25.8835  -19.1347  -16.0702 C   0  0  2  0  0  0  0  0  0  0  0  0
   26.4293  -17.8856  -16.5771 N   0  0  0  0  0  0  0  0  0  0  0  0
   24.4258  -19.2250  -16.0907 C   0  0  0  0  0  0  0  0  0  0  0  0
   23.8215  -18.0880  -15.9307 O   0  0  0  0  0  0  0  0  0  0  0  0
   26.9508  -22.6196  -12.2068 N   0  0  0  0  0  0  0  0  0  0  0  0
   23.6480  -20.3969  -16.2618 C   0  0  0  0  0  0  0  0  0  0  0  0
   24.1106  -21.7290  -16.4689 C   0  0  0  0  0  0  0  0  0  0  0  0
   22.8380  -22.6102  -16.4658 C   0  0  0  0  0  0  0  0  0  0  0  0
   21.8318  -21.6105  -17.0283 C   0  0  2  0  0  0  0  0  0  0  0  0
   22.2115  -20.3942  -16.2304 C   0  0  0  0  0  0  0  0  0  0  0  0
   21.6579  -20.4184  -14.8594 O   0  0  0  0  0  0  0  0  0  0  0  0
   20.4359  -20.1673  -14.7063 O   0  0  0  0  0  0  0  0  0  0  0  0
  2  1  1  0
  2  3  2  0
  4  5  1  0
  4  2  1  0
  5  6  1  6
  7  8  2  0
  7  5  1  0
  9 10  1  0
 10 11  2  0
 12 13  1  0
 12 10  1  0
 13 14  1  0
 14 15  1  0
 16 15  1  1
 16 17  1  0
 17  7  1  0
 18 16  1  0
 19 18  2  0
 20 18  1  0
 21 20  1  0
 22 21  1  0
 23 24  1  0
 23 22  1  0
 24 20  1  0
 25 27  1  0
 24 25  1  1
 26 25  2  0
M  END
$$$$
