NRP.pdb
     RDKit          3D

 27 27  0  0  1  0  0  0  0  0999 V2000
   29.2694  -18.9461  -22.4044 N   0  0  0  0  0  0  0  0  0  0  0  0
   29.0121  -18.5903  -21.0475 C   0  0  0  0  0  0  0  0  0  0  0  0
   29.5477  -17.5782  -20.5641 O   0  0  0  0  0  0  0  0  0  0  0  0
   28.1156  -19.4346  -20.2530 C   0  0  0  0  0  0  0  0  0  0  0  0
   28.8165  -20.0528  -19.0413 C   0  0  2  0  0  0  0  0  0  0  0  0
   29.5429  -21.2015  -19.5113 N   0  0  0  0  0  0  0  0  0  0  0  0
   27.7391  -20.3975  -18.0780 C   0  0  0  0  0  0  0  0  0  0  0  0
   27.1213  -21.4613  -18.2577 O   0  0  0  0  0  0  0  0  0  0  0  0
   24.9964  -20.8113  -10.5699 N   0  0  0  0  0  0  0  0  0  0  0  0
   26.3894  -20.9661  -10.7878 C   0  0  0  0  0  0  0  0  0  0  0  0
   27.0833  -21.8436  -10.1734 N   0  0  0  0  0  0  0  0  0  0  0  0
   27.0380  -20.1035  -11.7332 N   0  0  0  0  0  0  0  0  0  0  0  0
   26.3208  -19.0303  -12.3862 C   0  0  0  0  0  0  0  0  0  0  0  0
   25.7219  -19.6120  -13.6696 C   0  0  0  0  0  0  0  0  0  0  0  0
   26.7767  -19.5413  -14.7098 C   0  0  0  0  0  0  0  0  0  0  0  0
   26.3700  -20.0158  -16.0644 C   0  0  2  0  0  0  0  0  0  0  0  0
   27.4047  -19.5555  -16.9768 N   0  0  0  0  0  0  0  0  0  0  0  0
   25.0074  -19.6468  -16.4392 C   0  0  0  0  0  0  0  0  0  0  0  0
   24.8708  -18.4041  -16.7867 O   0  0  0  0  0  0  0  0  0  0  0  0
   28.1024  -21.9113  -10.3033 N   0  0  0  0  0  0  0  0  0  0  0  0
   23.8704  -20.4920  -16.4543 C   0  0  0  0  0  0  0  0  0  0  0  0
   23.8003  -21.8675  -16.0874 C   0  0  0  0  0  0  0  0  0  0  0  0
   22.3011  -22.2412  -16.1819 C   0  0  0  0  0  0  0  0  0  0  0  0
   21.8703  -21.2955  -17.2991 C   0  0  1  0  0  0  0  0  0  0  0  0
   22.5646  -20.0403  -16.8488 C   0  0  0  0  0  0  0  0  0  0  0  0
   21.8360  -19.3451  -15.7659 O   0  0  0  0  0  0  0  0  0  0  0  0
   22.3495  -19.3276  -14.6188 O   0  0  0  0  0  0  0  0  0  0  0  0
  2  1  1  0
  2  3  2  0
  4  5  1  0
  4  2  1  0
  5  6  1  6
  7  8  2  0
  7  5  1  0
  9 10  1  0
 10 11  2  0
 12 13  1  0
 12 10  1  0
 13 14  1  0
 14 15  1  0
 16 15  1  1
 16 17  1  0
 17  7  1  0
 18 16  1  0
 19 18  2  0
 20 18  1  0
 21 20  1  0
 22 21  1  0
 23 24  1  0
 23 22  1  0
 24 20  1  0
 25 27  1  0
 24 25  1  1
 26 25  2  0
M  END
$$$$
