NRP.pdb
     RDKit          3D

 27 27  0  0  1  0  0  0  0  0999 V2000
   18.5443  -38.6153   -5.2926 N   0  0  0  0  0  0  0  0  0  0  0  0
   19.0509  -38.0781   -4.0725 C   0  0  0  0  0  0  0  0  0  0  0  0
   18.2684  -37.8177   -3.1425 O   0  0  0  0  0  0  0  0  0  0  0  0
   20.4923  -37.8455   -3.9469 C   0  0  0  0  0  0  0  0  0  0  0  0
   21.2610  -38.2474   -5.2077 C   0  0  2  0  0  0  0  0  0  0  0  0
   21.3315  -39.6837   -5.2224 N   0  0  0  0  0  0  0  0  0  0  0  0
   22.5932  -37.5987   -5.0981 C   0  0  0  0  0  0  0  0  0  0  0  0
   23.5189  -38.2600   -4.5967 O   0  0  0  0  0  0  0  0  0  0  0  0
   25.2653  -31.7491  -10.3354 N   0  0  0  0  0  0  0  0  0  0  0  0
   25.6345  -33.1144  -10.2276 C   0  0  0  0  0  0  0  0  0  0  0  0
   25.9434  -33.8207  -11.2448 N   0  0  0  0  0  0  0  0  0  0  0  0
   25.6602  -33.7197   -8.9269 N   0  0  0  0  0  0  0  0  0  0  0  0
   25.4350  -32.9386   -7.7303 C   0  0  0  0  0  0  0  0  0  0  0  0
   25.5210  -33.9049   -6.5458 C   0  0  0  0  0  0  0  0  0  0  0  0
   24.2834  -34.7220   -6.5636 C   0  0  0  0  0  0  0  0  0  0  0  0
   24.1975  -35.7732   -5.5086 C   0  0  2  0  0  0  0  0  0  0  0  0
   22.8294  -36.2652   -5.5445 N   0  0  0  0  0  0  0  0  0  0  0  0
   24.6622  -35.3361   -4.1947 C   0  0  0  0  0  0  0  0  0  0  0  0
   23.8492  -34.5283   -3.5862 O   0  0  0  0  0  0  0  0  0  0  0  0
   26.2056  -34.8119  -11.1521 N   0  0  0  0  0  0  0  0  0  0  0  0
   25.8726  -35.7013   -3.5551 C   0  0  0  0  0  0  0  0  0  0  0  0
   26.9630  -36.4363   -4.1048 C   0  0  0  0  0  0  0  0  0  0  0  0
   28.0546  -36.4328   -3.0073 C   0  0  0  0  0  0  0  0  0  0  0  0
   27.1699  -36.3879   -1.7649 C   0  0  1  0  0  0  0  0  0  0  0  0
   26.1798  -35.3427   -2.1980 C   0  0  0  0  0  0  0  0  0  0  0  0
   26.7085  -33.9683   -2.0630 O   0  0  0  0  0  0  0  0  0  0  0  0
   27.0069  -33.5555   -0.9140 O   0  0  0  0  0  0  0  0  0  0  0  0
  2  1  1  0
  2  3  2  0
  4  5  1  0
  4  2  1  0
  5  6  1  1
  7  8  2  0
  7  5  1  0
  9 10  1  0
 10 11  2  0
 12 13  1  0
 12 10  1  0
 13 14  1  0
 14 15  1  0
 16 15  1  6
 16 17  1  0
 17  7  1  0
 18 16  1  0
 19 18  2  0
 20 18  1  0
 21 20  1  0
 22 21  1  0
 23 24  1  0
 23 22  1  0
 24 20  1  0
 25 27  1  0
 24 25  1  1
 26 25  2  0
M  END
$$$$
