NRP.pdb
     RDKit          3D

 27 27  0  0  1  0  0  0  0  0999 V2000
   28.5543  -20.5155  -18.0379 N   0  0  0  0  0  0  0  0  0  0  0  0
   27.3393  -20.7232  -18.7552 C   0  0  0  0  0  0  0  0  0  0  0  0
   27.2487  -20.3446  -19.9357 O   0  0  0  0  0  0  0  0  0  0  0  0
   26.2209  -21.3827  -18.0755 C   0  0  0  0  0  0  0  0  0  0  0  0
   26.5628  -21.7788  -16.6375 C   0  0  2  0  0  0  0  0  0  0  0  0
   27.2674  -23.0310  -16.6981 N   0  0  0  0  0  0  0  0  0  0  0  0
   25.2650  -21.8735  -15.9203 C   0  0  0  0  0  0  0  0  0  0  0  0
   24.6032  -22.9169  -16.0577 O   0  0  0  0  0  0  0  0  0  0  0  0
   25.9358  -21.8586  -11.0016 N   0  0  0  0  0  0  0  0  0  0  0  0
   25.2817  -20.9675  -10.1129 C   0  0  0  0  0  0  0  0  0  0  0  0
   25.9225  -20.1530   -9.3679 N   0  0  0  0  0  0  0  0  0  0  0  0
   23.8483  -20.9854  -10.0517 N   0  0  0  0  0  0  0  0  0  0  0  0
   23.0547  -19.9885  -10.7366 C   0  0  0  0  0  0  0  0  0  0  0  0
   22.6146  -20.6070  -12.0663 C   0  0  0  0  0  0  0  0  0  0  0  0
   23.7471  -20.4516  -13.0113 C   0  0  0  0  0  0  0  0  0  0  0  0
   23.5414  -21.0571  -14.3590 C   0  0  2  0  0  0  0  0  0  0  0  0
   24.7719  -20.8190  -15.0966 N   0  0  0  0  0  0  0  0  0  0  0  0
   22.3229  -20.6126  -15.0307 C   0  0  0  0  0  0  0  0  0  0  0  0
   22.3599  -19.3805  -15.4358 O   0  0  0  0  0  0  0  0  0  0  0  0
   25.4366  -19.4334   -8.8148 N   0  0  0  0  0  0  0  0  0  0  0  0
   21.1539  -21.3774  -15.2670 C   0  0  0  0  0  0  0  0  0  0  0  0
   20.8778  -22.7065  -14.8326 C   0  0  0  0  0  0  0  0  0  0  0  0
   19.4189  -22.9856  -15.2685 C   0  0  0  0  0  0  0  0  0  0  0  0
   19.3544  -22.1173  -16.5215 C   0  0  1  0  0  0  0  0  0  0  0  0
   20.0263  -20.8763  -16.0033 C   0  0  0  0  0  0  0  0  0  0  0  0
   19.1216  -20.0391  -15.1864 O   0  0  0  0  0  0  0  0  0  0  0  0
   19.3714  -19.9133  -13.9610 O   0  0  0  0  0  0  0  0  0  0  0  0
  2  1  1  0
  2  3  2  0
  4  5  1  0
  4  2  1  0
  5  6  1  6
  7  8  2  0
  7  5  1  0
  9 10  1  0
 10 11  2  0
 12 13  1  0
 12 10  1  0
 13 14  1  0
 14 15  1  0
 16 15  1  1
 16 17  1  0
 17  7  1  0
 18 16  1  0
 19 18  2  0
 20 18  1  0
 21 20  1  0
 22 21  1  0
 23 24  1  0
 23 22  1  0
 24 20  1  0
 25 27  1  0
 24 25  1  1
 26 25  2  0
M  END
$$$$
