VDW.pdb
     RDKit          3D

 30 31  0  0  1  0  0  0  0  0999 V2000
   15.5663  -22.9991    2.8105 C   0  0  0  0  0  0  0  0  0  0  0  0
   15.4222  -21.7509    1.9916 C   0  0  1  0  0  0  0  0  0  0  0  0
   14.4044  -21.9491    0.8950 C   0  0  0  0  0  0  0  0  0  0  0  0
   15.0154  -20.5572    2.8096 C   0  0  2  0  0  0  0  0  0  0  0  0
   14.6790  -19.4728    1.9089 N   0  0  0  0  0  0  0  0  0  0  0  0
   16.0024  -20.1460    3.8165 C   0  0  0  0  0  0  0  0  0  0  0  0
   17.0670  -19.5735    3.4513 O   0  0  0  0  0  0  0  0  0  0  0  0
   15.8606  -20.3436    5.2253 N   0  0  0  0  0  0  0  0  0  0  0  0
   16.8526  -19.9391    6.1884 C   0  0  1  0  0  0  0  0  0  0  0  0
   16.2449  -19.1580    7.3173 C   0  0  0  0  0  0  0  0  0  0  0  0
   16.1817  -17.7203    7.0426 C   0  0  0  0  0  0  0  0  0  0  0  0
   16.6184  -17.1788    5.9813 O   0  0  0  0  0  0  0  0  0  0  0  0
   17.6544  -21.0697    6.6901 C   0  0  0  0  0  0  0  0  0  0  0  0
   18.6252  -20.8618    7.4510 O   0  0  0  0  0  0  0  0  0  0  0  0
   15.6204  -16.8164    7.9547 O   0  0  0  0  0  0  0  0  0  0  0  0
   17.3118  -22.3879    6.3010 N   0  0  0  0  0  0  0  0  0  0  0  0
   18.1148  -23.5268    6.7049 C   0  0  1  0  0  0  0  0  0  0  0  0
   17.2938  -24.4540    7.5464 C   0  0  0  0  0  0  0  0  0  0  0  0
   17.7447  -24.5406    8.9483 C   0  0  0  0  0  0  0  0  0  0  0  0
   18.6735  -23.7148    9.5333 C   0  0  0  0  0  0  0  0  0  0  0  0
   18.8392  -24.0766   10.8117 N   0  0  0  0  0  0  0  0  0  0  0  0
   18.0281  -25.1343   11.0767 C   0  0  0  0  0  0  0  0  0  0  0  0
   17.8440  -25.8561   12.2488 C   0  0  0  0  0  0  0  0  0  0  0  0
   16.9484  -26.9011   12.2572 C   0  0  0  0  0  0  0  0  0  0  0  0
   16.2688  -27.1856   11.0907 C   0  0  0  0  0  0  0  0  0  0  0  0
   16.4385  -26.4837    9.9264 C   0  0  0  0  0  0  0  0  0  0  0  0
   17.3452  -25.4258    9.9176 C   0  0  0  0  0  0  0  0  0  0  0  0
   18.6076  -24.2692    5.4865 C   0  0  0  0  0  0  0  0  0  0  0  0
   18.4134  -23.8088    4.3386 O   0  0  0  0  0  0  0  0  0  0  0  0
   19.2792  -25.4669    5.6245 O   0  0  0  0  0  0  0  0  0  0  0  0
  2  1  1  1
  3  2  1  0
  4  5  1  6
  4  2  1  0
  6  4  1  0
  7  6  2  0
  8  6  1  0
  9 10  1  1
  9  8  1  0
 10 11  1  0
 11 12  2  0
 13  9  1  0
 14 13  2  0
 15 11  1  0
 16 13  1  0
 17 18  1  1
 17 16  1  0
 18 19  1  0
 19 20  2  0
 19 27  1  0
 20 21  1  0
 21 22  1  0
 22 23  2  0
 24 23  1  0
 25 24  2  0
 26 27  2  0
 26 25  1  0
 27 22  1  0
 28 30  1  0
 28 17  1  0
 29 28  2  0
M  END
$$$$
