VDW.pdb
     RDKit          3D

 30 31  0  0  1  0  0  0  0  0999 V2000
   18.8346  -15.9081  -17.2741 C   0  0  0  0  0  0  0  0  0  0  0  0
   18.5195  -14.4687  -17.5536 C   0  0  1  0  0  0  0  0  0  0  0  0
   17.0270  -14.2454  -17.5730 C   0  0  0  0  0  0  0  0  0  0  0  0
   19.1290  -13.5300  -16.5502 C   0  0  2  0  0  0  0  0  0  0  0  0
   18.8715  -14.0447  -15.2201 N   0  0  0  0  0  0  0  0  0  0  0  0
   18.7009  -12.1319  -16.6883 C   0  0  0  0  0  0  0  0  0  0  0  0
   19.0995  -11.4501  -17.6735 O   0  0  0  0  0  0  0  0  0  0  0  0
   17.8416  -11.4483  -15.7728 N   0  0  0  0  0  0  0  0  0  0  0  0
   17.5108  -10.0507  -15.8856 C   0  0  1  0  0  0  0  0  0  0  0  0
   16.0743   -9.7898  -15.5358 C   0  0  0  0  0  0  0  0  0  0  0  0
   15.1398  -10.3958  -16.4877 C   0  0  0  0  0  0  0  0  0  0  0  0
   15.2970  -10.3806  -17.7468 O   0  0  0  0  0  0  0  0  0  0  0  0
   18.4168   -9.1859  -15.1085 C   0  0  0  0  0  0  0  0  0  0  0  0
   18.4793   -9.2997  -13.8643 O   0  0  0  0  0  0  0  0  0  0  0  0
   13.9758  -11.0525  -16.0662 O   0  0  0  0  0  0  0  0  0  0  0  0
   19.2120   -8.2297  -15.7865 N   0  0  0  0  0  0  0  0  0  0  0  0
   20.0925   -7.3313  -15.0636 C   0  0  1  0  0  0  0  0  0  0  0  0
   21.5120   -7.7844  -15.2104 C   0  0  0  0  0  0  0  0  0  0  0  0
   22.4941   -6.6845  -15.1688 C   0  0  0  0  0  0  0  0  0  0  0  0
   22.5684   -5.7265  -14.1873 C   0  0  0  0  0  0  0  0  0  0  0  0
   23.5753   -4.8893  -14.4662 N   0  0  0  0  0  0  0  0  0  0  0  0
   24.1671   -5.2855  -15.6235 C   0  0  0  0  0  0  0  0  0  0  0  0
   25.2426   -4.7443  -16.3159 C   0  0  0  0  0  0  0  0  0  0  0  0
   25.6555   -5.3430  -17.4843 C   0  0  0  0  0  0  0  0  0  0  0  0
   24.9762   -6.4630  -17.9175 C   0  0  0  0  0  0  0  0  0  0  0  0
   23.9138   -7.0095  -17.2467 C   0  0  0  0  0  0  0  0  0  0  0  0
   23.4955   -6.4034  -16.0638 C   0  0  0  0  0  0  0  0  0  0  0  0
   19.9611   -5.9299  -15.6090 C   0  0  0  0  0  0  0  0  0  0  0  0
   19.9039   -5.7300  -16.8436 O   0  0  0  0  0  0  0  0  0  0  0  0
   19.9024   -4.8507  -14.7509 O   0  0  0  0  0  0  0  0  0  0  0  0
  2  1  1  1
  3  2  1  0
  4  5  1  1
  4  2  1  0
  6  4  1  0
  7  6  2  0
  8  6  1  0
  9 10  1  1
  9  8  1  0
 10 11  1  0
 11 12  2  0
 13  9  1  0
 14 13  2  0
 15 11  1  0
 16 13  1  0
 17 18  1  6
 17 16  1  0
 18 19  1  0
 19 20  2  0
 19 27  1  0
 20 21  1  0
 21 22  1  0
 22 23  2  0
 24 23  1  0
 25 24  2  0
 26 27  2  0
 26 25  1  0
 27 22  1  0
 28 30  1  0
 28 17  1  0
 29 28  2  0
M  END
$$$$
