VDW.pdb
     RDKit          3D

 30 31  0  0  1  0  0  0  0  0999 V2000
   28.8497  -18.9974  -14.8626 C   0  0  0  0  0  0  0  0  0  0  0  0
   28.0755  -17.9932  -15.6635 C   0  0  1  0  0  0  0  0  0  0  0  0
   28.7617  -17.7199  -16.9796 C   0  0  0  0  0  0  0  0  0  0  0  0
   26.6643  -18.4290  -15.9430 C   0  0  2  0  0  0  0  0  0  0  0  0
   26.0491  -17.4615  -16.8295 N   0  0  0  0  0  0  0  0  0  0  0  0
   25.8523  -18.6647  -14.7421 C   0  0  0  0  0  0  0  0  0  0  0  0
   25.4879  -17.6864  -14.0316 O   0  0  0  0  0  0  0  0  0  0  0  0
   25.4218  -19.9503  -14.2886 N   0  0  0  0  0  0  0  0  0  0  0  0
   24.6752  -20.1555  -13.0737 C   0  0  1  0  0  0  0  0  0  0  0  0
   23.4341  -20.9653  -13.3145 C   0  0  0  0  0  0  0  0  0  0  0  0
   22.6305  -21.1454  -12.1028 C   0  0  0  0  0  0  0  0  0  0  0  0
   22.8887  -21.9965  -11.1978 O   0  0  0  0  0  0  0  0  0  0  0  0
   25.4926  -20.7365  -11.9935 C   0  0  0  0  0  0  0  0  0  0  0  0
   26.2209  -21.7277  -12.2213 O   0  0  0  0  0  0  0  0  0  0  0  0
   21.4901  -20.3713  -11.8491 O   0  0  0  0  0  0  0  0  0  0  0  0
   25.4426  -20.1596  -10.7007 N   0  0  0  0  0  0  0  0  0  0  0  0
   26.2088  -20.7101   -9.5985 C   0  0  1  0  0  0  0  0  0  0  0  0
   27.2575  -19.7310   -9.1702 C   0  0  0  0  0  0  0  0  0  0  0  0
   28.1416  -20.2363   -8.1028 C   0  0  0  0  0  0  0  0  0  0  0  0
   28.9753  -21.3223   -8.2136 C   0  0  0  0  0  0  0  0  0  0  0  0
   29.6293  -21.4934   -7.0580 N   0  0  0  0  0  0  0  0  0  0  0  0
   29.2351  -20.5301   -6.1843 C   0  0  0  0  0  0  0  0  0  0  0  0
   29.6245  -20.2901   -4.8729 C   0  0  0  0  0  0  0  0  0  0  0  0
   29.0667  -19.2318   -4.1925 C   0  0  0  0  0  0  0  0  0  0  0  0
   28.1385  -18.4513   -4.8503 C   0  0  0  0  0  0  0  0  0  0  0  0
   27.7435  -18.6741   -6.1432 C   0  0  0  0  0  0  0  0  0  0  0  0
   28.3081  -19.7455   -6.8323 C   0  0  0  0  0  0  0  0  0  0  0  0
   25.2973  -21.0018   -8.4311 C   0  0  0  0  0  0  0  0  0  0  0  0
   25.6845  -21.7266   -7.4866 O   0  0  0  0  0  0  0  0  0  0  0  0
   24.0239  -20.4714   -8.3917 O   0  0  0  0  0  0  0  0  0  0  0  0
  2  1  1  6
  3  2  1  0
  4  5  1  6
  4  2  1  0
  6  4  1  0
  7  6  2  0
  8  6  1  0
  9 10  1  6
  9  8  1  0
 10 11  1  0
 11 12  2  0
 13  9  1  0
 14 13  2  0
 15 11  1  0
 16 13  1  0
 17 18  1  1
 17 16  1  0
 18 19  1  0
 19 20  2  0
 19 27  1  0
 20 21  1  0
 21 22  1  0
 22 23  2  0
 24 23  1  0
 25 24  2  0
 26 27  2  0
 26 25  1  0
 27 22  1  0
 28 30  1  0
 28 17  1  0
 29 28  2  0
M  END
$$$$
