VDW.pdb
     RDKit          3D

 30 31  0  0  1  0  0  0  0  0999 V2000
   28.6539  -22.3726  -17.6103 C   0  0  0  0  0  0  0  0  0  0  0  0
   27.8985  -21.9807  -16.3754 C   0  0  1  0  0  0  0  0  0  0  0  0
   28.8195  -21.3280  -15.3736 C   0  0  0  0  0  0  0  0  0  0  0  0
   26.7595  -21.0415  -16.6585 C   0  0  2  0  0  0  0  0  0  0  0  0
   27.2445  -19.9690  -17.5040 N   0  0  0  0  0  0  0  0  0  0  0  0
   26.0820  -20.5298  -15.4601 C   0  0  0  0  0  0  0  0  0  0  0  0
   26.0162  -19.2844  -15.2625 O   0  0  0  0  0  0  0  0  0  0  0  0
   25.4677  -21.3460  -14.4599 N   0  0  0  0  0  0  0  0  0  0  0  0
   24.8775  -20.8188  -13.2561 C   0  0  1  0  0  0  0  0  0  0  0  0
   23.3829  -20.9595  -13.2624 C   0  0  0  0  0  0  0  0  0  0  0  0
   22.7686  -20.5420  -11.9995 C   0  0  0  0  0  0  0  0  0  0  0  0
   22.4326  -21.3415  -11.0732 O   0  0  0  0  0  0  0  0  0  0  0  0
   25.4647  -21.3958  -12.0334 C   0  0  0  0  0  0  0  0  0  0  0  0
   25.5035  -22.6368  -11.8810 O   0  0  0  0  0  0  0  0  0  0  0  0
   22.5012  -19.1959  -11.7159 O   0  0  0  0  0  0  0  0  0  0  0  0
   25.9822  -20.5301  -11.0388 N   0  0  0  0  0  0  0  0  0  0  0  0
   26.5771  -21.0493   -9.8216 C   0  0  1  0  0  0  0  0  0  0  0  0
   27.8178  -20.2779   -9.4939 C   0  0  0  0  0  0  0  0  0  0  0  0
   27.8163  -19.6985   -8.1372 C   0  0  0  0  0  0  0  0  0  0  0  0
   27.1759  -18.5394   -7.7724 C   0  0  0  0  0  0  0  0  0  0  0  0
   27.3839  -18.3145   -6.4691 N   0  0  0  0  0  0  0  0  0  0  0  0
   28.1563  -19.3147   -5.9693 C   0  0  0  0  0  0  0  0  0  0  0  0
   28.6364  -19.5244   -4.6831 C   0  0  0  0  0  0  0  0  0  0  0  0
   29.4116  -20.6333   -4.4309 C   0  0  0  0  0  0  0  0  0  0  0  0
   29.6781  -21.4929   -5.4767 C   0  0  0  0  0  0  0  0  0  0  0  0
   29.2123  -21.3010   -6.7508 C   0  0  0  0  0  0  0  0  0  0  0  0
   28.4275  -20.1783   -7.0063 C   0  0  0  0  0  0  0  0  0  0  0  0
   25.6009  -20.9266   -8.6767 C   0  0  0  0  0  0  0  0  0  0  0  0
   24.6946  -20.0633   -8.7025 O   0  0  0  0  0  0  0  0  0  0  0  0
   25.6968  -21.7668   -7.5862 O   0  0  0  0  0  0  0  0  0  0  0  0
  2  1  1  6
  3  2  1  0
  4  5  1  1
  4  2  1  0
  6  4  1  0
  7  6  2  0
  8  6  1  0
  9 10  1  6
  9  8  1  0
 10 11  1  0
 11 12  2  0
 13  9  1  0
 14 13  2  0
 15 11  1  0
 16 13  1  0
 17 18  1  1
 17 16  1  0
 18 19  1  0
 19 20  2  0
 19 27  1  0
 20 21  1  0
 21 22  1  0
 22 23  2  0
 24 23  1  0
 25 24  2  0
 26 27  2  0
 26 25  1  0
 27 22  1  0
 28 30  1  0
 28 17  1  0
 29 28  2  0
M  END
$$$$
