VDW.pdb
     RDKit          3D

 30 31  0  0  1  0  0  0  0  0999 V2000
   29.1225  -17.1166  -16.9226 C   0  0  0  0  0  0  0  0  0  0  0  0
   28.1037  -17.3001  -15.8375 C   0  0  1  0  0  0  0  0  0  0  0  0
   26.7096  -17.3211  -16.4153 C   0  0  0  0  0  0  0  0  0  0  0  0
   28.3109  -18.5614  -15.0464 C   0  0  2  0  0  0  0  0  0  0  0  0
   28.3572  -19.6809  -15.9657 N   0  0  0  0  0  0  0  0  0  0  0  0
   27.3299  -18.7740  -13.9743 C   0  0  0  0  0  0  0  0  0  0  0  0
   27.2342  -17.9320  -13.0381 O   0  0  0  0  0  0  0  0  0  0  0  0
   26.4408  -19.8905  -13.8926 N   0  0  0  0  0  0  0  0  0  0  0  0
   25.4815  -20.0667  -12.8324 C   0  0  1  0  0  0  0  0  0  0  0  0
   24.1728  -20.5907  -13.3488 C   0  0  0  0  0  0  0  0  0  0  0  0
   23.1741  -20.7638  -12.2909 C   0  0  0  0  0  0  0  0  0  0  0  0
   22.5850  -21.8595  -12.0409 O   0  0  0  0  0  0  0  0  0  0  0  0
   25.9955  -20.9009  -11.7312 C   0  0  0  0  0  0  0  0  0  0  0  0
   26.5675  -21.9853  -11.9796 O   0  0  0  0  0  0  0  0  0  0  0  0
   22.7876  -19.7053  -11.4575 O   0  0  0  0  0  0  0  0  0  0  0  0
   25.8341  -20.4597  -10.3949 N   0  0  0  0  0  0  0  0  0  0  0  0
   26.2224  -21.2934   -9.2728 C   0  0  1  0  0  0  0  0  0  0  0  0
   27.6159  -20.9516   -8.8447 C   0  0  0  0  0  0  0  0  0  0  0  0
   27.6751  -20.0651   -7.6671 C   0  0  0  0  0  0  0  0  0  0  0  0
   27.0613  -18.8404   -7.5668 C   0  0  0  0  0  0  0  0  0  0  0  0
   27.3243  -18.3147   -6.3639 N   0  0  0  0  0  0  0  0  0  0  0  0
   28.1066  -19.1811   -5.6683 C   0  0  0  0  0  0  0  0  0  0  0  0
   28.6366  -19.0867   -4.3880 C   0  0  0  0  0  0  0  0  0  0  0  0
   29.4107  -20.1179   -3.9068 C   0  0  0  0  0  0  0  0  0  0  0  0
   29.6261  -21.2073   -4.7254 C   0  0  0  0  0  0  0  0  0  0  0  0
   29.1108  -21.3163   -5.9902 C   0  0  0  0  0  0  0  0  0  0  0  0
   28.3271  -20.2724   -6.4777 C   0  0  0  0  0  0  0  0  0  0  0  0
   25.2802  -21.0717   -8.1145 C   0  0  0  0  0  0  0  0  0  0  0  0
   24.5361  -20.0654   -8.0826 O   0  0  0  0  0  0  0  0  0  0  0  0
   25.2283  -21.9780   -7.0750 O   0  0  0  0  0  0  0  0  0  0  0  0
  2  1  1  6
  3  2  1  0
  4  5  1  6
  4  2  1  0
  6  4  1  0
  7  6  2  0
  8  6  1  0
  9 10  1  6
  9  8  1  0
 10 11  1  0
 11 12  2  0
 13  9  1  0
 14 13  2  0
 15 11  1  0
 16 13  1  0
 17 18  1  1
 17 16  1  0
 18 19  1  0
 19 20  2  0
 19 27  1  0
 20 21  1  0
 21 22  1  0
 22 23  2  0
 24 23  1  0
 25 24  2  0
 26 27  2  0
 26 25  1  0
 27 22  1  0
 28 30  1  0
 28 17  1  0
 29 28  2  0
M  END
$$$$
