MDH.pdb
     RDKit          3D

 27 27  0  0  1  0  0  0  0  0999 V2000
   28.8135  -14.8208  -16.1032 C   0  0  0  0  0  0  0  0  0  0  0  0
   28.4690  -13.0936  -16.5228 S   0  0  0  0  0  0  0  0  0  0  0  0
   27.9123  -12.2008  -15.0620 C   0  0  0  0  0  0  0  0  0  0  0  0
   27.6099  -10.7401  -15.4110 C   0  0  0  0  0  0  0  0  0  0  0  0
   26.1564  -10.6863  -15.7843 C   0  0  2  0  0  0  0  0  0  0  0  0
   25.9924  -11.4195  -17.0241 N   0  0  0  0  0  0  0  0  0  0  0  0
   25.7038   -9.2730  -15.9670 C   0  0  0  0  0  0  0  0  0  0  0  0
   25.8520   -8.4200  -15.0600 O   0  0  0  0  0  0  0  0  0  0  0  0
   25.1065   -8.8973  -17.1676 N   0  0  0  0  0  0  0  0  0  0  0  0
   24.6558   -7.4609  -17.3033 C   0  0  1  0  0  0  0  0  0  0  0  0
   25.0554   -7.1470  -18.7103 C   0  0  0  0  0  0  0  0  0  0  0  0
   25.7103   -5.8922  -19.0035 C   0  0  0  0  0  0  0  0  0  0  0  0
   26.0260   -4.9521  -18.2651 O   0  0  0  0  0  0  0  0  0  0  0  0
   23.2014   -7.5620  -17.1071 C   0  0  0  0  0  0  0  0  0  0  0  0
   22.5135   -8.2719  -17.8751 O   0  0  0  0  0  0  0  0  0  0  0  0
   26.0500   -5.7099  -20.3807 O   0  0  0  0  0  0  0  0  0  0  0  0
   22.5349   -6.8883  -16.0725 N   0  0  0  0  0  0  0  0  0  0  0  0
   21.0836   -7.0361  -15.9084 C   0  0  1  0  0  0  0  0  0  0  0  0
   20.7127   -7.7169  -14.6290 C   0  0  0  0  0  0  0  0  0  0  0  0
   20.8567   -9.1814  -14.7668 C   0  0  0  0  0  0  0  0  0  0  0  0
   21.2852   -9.8982  -15.8721 C   0  0  0  0  0  0  0  0  0  0  0  0
   21.2715  -11.2034  -15.5865 N   0  0  0  0  0  0  0  0  0  0  0  0
   20.8407  -11.3079  -14.3193 C   0  0  0  0  0  0  0  0  0  0  0  0
   20.5924  -10.0921  -13.8298 N   0  0  0  0  0  0  0  0  0  0  0  0
   20.4986   -5.6750  -16.0070 C   0  0  0  0  0  0  0  0  0  0  0  0
   21.2971   -4.7020  -16.1016 O   0  0  0  0  0  0  0  0  0  0  0  0
   19.1270   -5.5157  -15.9927 O   0  0  0  0  0  0  0  0  0  0  0  0
  2  1  1  0
  3  2  1  0
  4  3  1  0
  4  5  1  0
  5  7  1  0
  5  6  1  6
  7  8  2  0
  9 10  1  0
  9  7  1  0
 10 11  1  6
 12 11  1  0
 13 12  2  0
 14 17  1  0
 14 10  1  0
 15 14  2  0
 16 12  1  0
 18 17  1  0
 18 19  1  1
 20 19  1  0
 21 20  2  0
 22 21  1  0
 22 23  1  0
 23 24  2  0
 24 20  1  0
 25 18  1  0
 26 25  2  0
 27 25  1  0
M  END
$$$$
