MDH.pdb
     RDKit          3D

 27 27  0  0  1  0  0  0  0  0999 V2000
   30.1616  -12.5683  -16.0352 C   0  0  0  0  0  0  0  0  0  0  0  0
   28.5559  -11.8790  -16.5089 S   0  0  0  0  0  0  0  0  0  0  0  0
   27.2512  -12.5967  -15.4972 C   0  0  0  0  0  0  0  0  0  0  0  0
   25.9457  -11.8150  -15.6746 C   0  0  0  0  0  0  0  0  0  0  0  0
   25.0259  -12.7007  -16.4648 C   0  0  2  0  0  0  0  0  0  0  0  0
   25.6768  -12.9994  -17.7252 N   0  0  0  0  0  0  0  0  0  0  0  0
   23.7178  -12.0222  -16.7177 C   0  0  0  0  0  0  0  0  0  0  0  0
   23.4866  -11.4386  -17.8032 O   0  0  0  0  0  0  0  0  0  0  0  0
   22.7377  -12.0388  -15.7285 N   0  0  0  0  0  0  0  0  0  0  0  0
   21.4233  -11.3589  -16.0368 C   0  0  1  0  0  0  0  0  0  0  0  0
   20.4401  -12.2968  -15.4111 C   0  0  0  0  0  0  0  0  0  0  0  0
   20.2000  -13.5875  -16.0160 C   0  0  0  0  0  0  0  0  0  0  0  0
   19.9748  -13.9014  -17.1905 O   0  0  0  0  0  0  0  0  0  0  0  0
   21.5533  -10.0756  -15.3295 C   0  0  0  0  0  0  0  0  0  0  0  0
   22.6030   -9.8099  -14.7015 O   0  0  0  0  0  0  0  0  0  0  0  0
   20.2286  -14.6849  -15.0995 O   0  0  0  0  0  0  0  0  0  0  0  0
   20.5341   -9.1114  -15.3306 N   0  0  0  0  0  0  0  0  0  0  0  0
   20.8282   -7.7240  -14.9516 C   0  0  1  0  0  0  0  0  0  0  0  0
   21.9199   -7.1185  -15.7760 C   0  0  0  0  0  0  0  0  0  0  0  0
   22.2128   -5.7464  -15.3110 C   0  0  0  0  0  0  0  0  0  0  0  0
   21.6702   -5.0772  -14.2262 C   0  0  0  0  0  0  0  0  0  0  0  0
   22.2007   -3.8532  -14.1501 N   0  0  0  0  0  0  0  0  0  0  0  0
   23.0652   -3.7523  -15.1722 C   0  0  0  0  0  0  0  0  0  0  0  0
   23.0703   -4.8907  -15.8675 N   0  0  0  0  0  0  0  0  0  0  0  0
   19.5558   -6.9675  -15.0670 C   0  0  0  0  0  0  0  0  0  0  0  0
   18.9484   -7.0122  -16.1725 O   0  0  0  0  0  0  0  0  0  0  0  0
   19.0834   -6.2517  -13.9846 O   0  0  0  0  0  0  0  0  0  0  0  0
  2  1  1  0
  3  2  1  0
  4  3  1  0
  4  5  1  0
  5  7  1  0
  5  6  1  6
  7  8  2  0
  9 10  1  0
  9  7  1  0
 10 11  1  1
 12 11  1  0
 13 12  2  0
 14 17  1  0
 14 10  1  0
 15 14  2  0
 16 12  1  0
 18 17  1  0
 18 19  1  6
 20 19  1  0
 21 20  2  0
 22 21  1  0
 22 23  1  0
 23 24  2  0
 24 20  1  0
 25 18  1  0
 26 25  2  0
 27 25  1  0
M  END
$$$$
