MDH.pdb
     RDKit          3D

 27 27  0  0  1  0  0  0  0  0999 V2000
   18.1228  -16.6992  -19.9808 C   0  0  0  0  0  0  0  0  0  0  0  0
   19.8526  -16.6750  -19.4467 S   0  0  0  0  0  0  0  0  0  0  0  0
   20.0201  -15.7127  -17.9344 C   0  0  0  0  0  0  0  0  0  0  0  0
   19.6586  -14.2463  -18.1908 C   0  0  0  0  0  0  0  0  0  0  0  0
   20.4027  -13.4412  -17.1645 C   0  0  2  0  0  0  0  0  0  0  0  0
   20.1384  -14.0298  -15.8664 N   0  0  0  0  0  0  0  0  0  0  0  0
   19.9534  -12.0152  -17.1760 C   0  0  0  0  0  0  0  0  0  0  0  0
   20.0710  -11.3041  -18.2021 O   0  0  0  0  0  0  0  0  0  0  0  0
   19.3937  -11.4666  -16.0249 N   0  0  0  0  0  0  0  0  0  0  0  0
   18.8281  -10.0681  -16.1221 C   0  0  1  0  0  0  0  0  0  0  0  0
   17.8126  -10.0724  -15.0236 C   0  0  0  0  0  0  0  0  0  0  0  0
   16.5066  -10.6446  -15.2607 C   0  0  0  0  0  0  0  0  0  0  0  0
   15.7688  -10.5943  -16.2517 O   0  0  0  0  0  0  0  0  0  0  0  0
   20.0027   -9.2278  -15.8423 C   0  0  0  0  0  0  0  0  0  0  0  0
   20.7475   -9.4951  -14.8724 O   0  0  0  0  0  0  0  0  0  0  0  0
   15.9815  -11.3955  -14.1628 O   0  0  0  0  0  0  0  0  0  0  0  0
   20.3373   -8.1182  -16.6332 N   0  0  0  0  0  0  0  0  0  0  0  0
   21.5187   -7.3091  -16.3100 C   0  0  1  0  0  0  0  0  0  0  0  0
   22.0914   -6.6183  -17.5069 C   0  0  0  0  0  0  0  0  0  0  0  0
   23.2440   -5.7809  -17.1132 C   0  0  0  0  0  0  0  0  0  0  0  0
   24.5593   -6.1717  -16.9229 C   0  0  0  0  0  0  0  0  0  0  0  0
   25.2904   -5.1103  -16.5701 N   0  0  0  0  0  0  0  0  0  0  0  0
   24.4479   -4.0655  -16.5385 C   0  0  0  0  0  0  0  0  0  0  0  0
   23.2199   -4.4713  -16.8651 N   0  0  0  0  0  0  0  0  0  0  0  0
   21.1073   -6.3493  -15.2545 C   0  0  0  0  0  0  0  0  0  0  0  0
   19.9313   -5.8939  -15.3061 O   0  0  0  0  0  0  0  0  0  0  0  0
   22.0039   -5.9898  -14.2677 O   0  0  0  0  0  0  0  0  0  0  0  0
  2  1  1  0
  3  2  1  0
  4  3  1  0
  4  5  1  0
  5  7  1  0
  5  6  1  1
  7  8  2  0
  9 10  1  0
  9  7  1  0
 10 11  1  1
 12 11  1  0
 13 12  2  0
 14 17  1  0
 14 10  1  0
 15 14  2  0
 16 12  1  0
 18 17  1  0
 18 19  1  6
 20 19  1  0
 21 20  2  0
 22 21  1  0
 22 23  1  0
 23 24  2  0
 24 20  1  0
 25 18  1  0
 26 25  2  0
 27 25  1  0
M  END
$$$$
