MDH.pdb
     RDKit          3D

 27 27  0  0  1  0  0  0  0  0999 V2000
   31.0801  -20.6038  -10.7276 C   0  0  0  0  0  0  0  0  0  0  0  0
   30.1611  -21.8063   -9.7340 S   0  0  0  0  0  0  0  0  0  0  0  0
   28.4055  -21.4080   -9.7476 C   0  0  0  0  0  0  0  0  0  0  0  0
   27.9674  -20.9696  -11.1485 C   0  0  0  0  0  0  0  0  0  0  0  0
   26.5328  -20.5423  -11.0291 C   0  0  2  0  0  0  0  0  0  0  0  0
   25.8211  -21.5829  -10.3134 N   0  0  0  0  0  0  0  0  0  0  0  0
   25.9202  -20.3447  -12.3786 C   0  0  0  0  0  0  0  0  0  0  0  0
   26.3706  -19.4908  -13.1789 O   0  0  0  0  0  0  0  0  0  0  0  0
   24.8288  -21.1241  -12.7536 N   0  0  0  0  0  0  0  0  0  0  0  0
   24.2752  -20.9258  -14.1461 C   0  0  1  0  0  0  0  0  0  0  0  0
   24.2109  -22.3321  -14.6523 C   0  0  0  0  0  0  0  0  0  0  0  0
   25.3728  -22.9185  -15.2811 C   0  0  0  0  0  0  0  0  0  0  0  0
   25.7024  -24.1009  -15.4296 O   0  0  0  0  0  0  0  0  0  0  0  0
   22.9570  -20.3276  -13.8843 C   0  0  0  0  0  0  0  0  0  0  0  0
   22.2162  -20.8078  -12.9969 O   0  0  0  0  0  0  0  0  0  0  0  0
   26.2951  -21.9690  -15.8223 O   0  0  0  0  0  0  0  0  0  0  0  0
   22.4829  -19.2152  -14.5958 N   0  0  0  0  0  0  0  0  0  0  0  0
   21.1732  -18.6352  -14.2744 C   0  0  1  0  0  0  0  0  0  0  0  0
   21.0038  -17.2524  -14.8195 C   0  0  0  0  0  0  0  0  0  0  0  0
   19.7106  -16.6843  -14.3839 C   0  0  0  0  0  0  0  0  0  0  0  0
   18.7547  -17.2632  -13.5653 C   0  0  0  0  0  0  0  0  0  0  0  0
   17.7291  -16.4199  -13.4165 N   0  0  0  0  0  0  0  0  0  0  0  0
   18.0341  -15.3250  -14.1311 C   0  0  0  0  0  0  0  0  0  0  0  0
   19.2245  -15.4867  -14.7108 N   0  0  0  0  0  0  0  0  0  0  0  0
   20.1475  -19.5720  -14.7986 C   0  0  0  0  0  0  0  0  0  0  0  0
   20.3116  -20.0237  -15.9657 O   0  0  0  0  0  0  0  0  0  0  0  0
   19.0661  -19.9150  -14.0112 O   0  0  0  0  0  0  0  0  0  0  0  0
  2  1  1  0
  3  2  1  0
  4  3  1  0
  4  5  1  0
  5  7  1  0
  5  6  1  6
  7  8  2  0
  9 10  1  0
  9  7  1  0
 10 11  1  1
 12 11  1  0
 13 12  2  0
 14 17  1  0
 14 10  1  0
 15 14  2  0
 16 12  1  0
 18 17  1  0
 18 19  1  6
 20 19  1  0
 21 20  2  0
 22 21  1  0
 22 23  1  0
 23 24  2  0
 24 20  1  0
 25 18  1  0
 26 25  2  0
 27 25  1  0
M  END
$$$$
