MDH.pdb
     RDKit          3D

 27 27  0  0  1  0  0  0  0  0999 V2000
   18.4063  -11.3223    3.7227 C   0  0  0  0  0  0  0  0  0  0  0  0
   18.9286  -12.6591    4.8264 S   0  0  0  0  0  0  0  0  0  0  0  0
   18.0057  -14.1608    4.4600 C   0  0  0  0  0  0  0  0  0  0  0  0
   18.5006  -15.3188    5.3323 C   0  0  0  0  0  0  0  0  0  0  0  0
   17.6107  -16.4892    5.0267 C   0  0  2  0  0  0  0  0  0  0  0  0
   16.3031  -16.2061    5.5847 N   0  0  0  0  0  0  0  0  0  0  0  0
   18.1566  -17.7458    5.6254 C   0  0  0  0  0  0  0  0  0  0  0  0
   19.2918  -18.1763    5.3117 O   0  0  0  0  0  0  0  0  0  0  0  0
   17.3895  -18.4512    6.5491 N   0  0  0  0  0  0  0  0  0  0  0  0
   18.0197  -19.6606    7.2011 C   0  0  1  0  0  0  0  0  0  0  0  0
   17.6836  -19.4404    8.6422 C   0  0  0  0  0  0  0  0  0  0  0  0
   17.9661  -20.4782    9.6079 C   0  0  0  0  0  0  0  0  0  0  0  0
   18.5366  -21.5678    9.4814 O   0  0  0  0  0  0  0  0  0  0  0  0
   17.2860  -20.7760    6.5835 C   0  0  0  0  0  0  0  0  0  0  0  0
   16.0690  -20.6541    6.3170 O   0  0  0  0  0  0  0  0  0  0  0  0
   17.5078  -20.1943   10.9325 O   0  0  0  0  0  0  0  0  0  0  0  0
   17.9022  -21.9961    6.2673 N   0  0  0  0  0  0  0  0  0  0  0  0
   17.1220  -23.0846    5.6660 C   0  0  1  0  0  0  0  0  0  0  0  0
   17.2911  -23.1658    4.1819 C   0  0  0  0  0  0  0  0  0  0  0  0
   18.6773  -23.5518    3.8439 C   0  0  0  0  0  0  0  0  0  0  0  0
   19.8516  -23.1439    4.4552 C   0  0  0  0  0  0  0  0  0  0  0  0
   20.8916  -23.7221    3.8474 N   0  0  0  0  0  0  0  0  0  0  0  0
   20.3802  -24.4835    2.8671 C   0  0  0  0  0  0  0  0  0  0  0  0
   19.0504  -24.3792    2.8675 N   0  0  0  0  0  0  0  0  0  0  0  0
   17.5377  -24.3379    6.3451 C   0  0  0  0  0  0  0  0  0  0  0  0
   16.8629  -25.3790    6.1128 O   0  0  0  0  0  0  0  0  0  0  0  0
   18.6272  -24.3290    7.1935 O   0  0  0  0  0  0  0  0  0  0  0  0
  2  1  1  0
  3  2  1  0
  4  3  1  0
  4  5  1  0
  5  7  1  0
  5  6  1  1
  7  8  2  0
  9 10  1  0
  9  7  1  0
 10 11  1  1
 12 11  1  0
 13 12  2  0
 14 17  1  0
 14 10  1  0
 15 14  2  0
 16 12  1  0
 18 17  1  0
 18 19  1  6
 20 19  1  0
 21 20  2  0
 22 21  1  0
 22 23  1  0
 23 24  2  0
 24 20  1  0
 25 18  1  0
 26 25  2  0
 27 25  1  0
M  END
$$$$
