MDH.pdb
     RDKit          3D

 27 27  0  0  1  0  0  0  0  0999 V2000
   26.4909  -30.1274  -16.6482 C   0  0  0  0  0  0  0  0  0  0  0  0
   27.8930  -30.2183  -17.7900 S   0  0  0  0  0  0  0  0  0  0  0  0
   28.3773  -28.5639  -18.3087 C   0  0  0  0  0  0  0  0  0  0  0  0
   28.1468  -27.5591  -17.1754 C   0  0  0  0  0  0  0  0  0  0  0  0
   28.4501  -26.2028  -17.7440 C   0  0  2  0  0  0  0  0  0  0  0  0
   29.8704  -25.9635  -17.5793 N   0  0  0  0  0  0  0  0  0  0  0  0
   27.6712  -25.1407  -17.0363 C   0  0  0  0  0  0  0  0  0  0  0  0
   27.4028  -25.2353  -15.8151 O   0  0  0  0  0  0  0  0  0  0  0  0
   27.2359  -24.0252  -17.7473 N   0  0  0  0  0  0  0  0  0  0  0  0
   26.4424  -22.9829  -16.9931 C   0  0  1  0  0  0  0  0  0  0  0  0
   27.1290  -21.7193  -17.4051 C   0  0  0  0  0  0  0  0  0  0  0  0
   26.6517  -20.4507  -16.9028 C   0  0  0  0  0  0  0  0  0  0  0  0
   25.7043  -20.1810  -16.1555 O   0  0  0  0  0  0  0  0  0  0  0  0
   25.0929  -23.1374  -17.5579 C   0  0  0  0  0  0  0  0  0  0  0  0
   24.9457  -23.3233  -18.7869 O   0  0  0  0  0  0  0  0  0  0  0  0
   27.4041  -19.3181  -17.3456 O   0  0  0  0  0  0  0  0  0  0  0  0
   23.9371  -23.0900  -16.7640 N   0  0  0  0  0  0  0  0  0  0  0  0
   22.6091  -23.1254  -17.3885 C   0  0  1  0  0  0  0  0  0  0  0  0
   21.5323  -23.5362  -16.4348 C   0  0  0  0  0  0  0  0  0  0  0  0
   20.2256  -23.5797  -17.1242 C   0  0  0  0  0  0  0  0  0  0  0  0
   19.7942  -24.4821  -18.0827 C   0  0  0  0  0  0  0  0  0  0  0  0
   18.5482  -24.1732  -18.4532 N   0  0  0  0  0  0  0  0  0  0  0  0
   18.1991  -23.0917  -17.7386 C   0  0  0  0  0  0  0  0  0  0  0  0
   19.2084  -22.7376  -16.9415 N   0  0  0  0  0  0  0  0  0  0  0  0
   22.3656  -21.7761  -17.9586 C   0  0  0  0  0  0  0  0  0  0  0  0
   23.0096  -20.8092  -17.4652 O   0  0  0  0  0  0  0  0  0  0  0  0
   21.4609  -21.6209  -18.9903 O   0  0  0  0  0  0  0  0  0  0  0  0
  2  1  1  0
  3  2  1  0
  4  3  1  0
  4  5  1  0
  5  7  1  0
  5  6  1  1
  7  8  2  0
  9 10  1  0
  9  7  1  0
 10 11  1  6
 12 11  1  0
 13 12  2  0
 14 17  1  0
 14 10  1  0
 15 14  2  0
 16 12  1  0
 18 17  1  0
 18 19  1  1
 20 19  1  0
 21 20  2  0
 22 21  1  0
 22 23  1  0
 23 24  2  0
 24 20  1  0
 25 18  1  0
 26 25  2  0
 27 25  1  0
M  END
$$$$
