MDH.pdb
     RDKit          3D

 27 27  0  0  1  0  0  0  0  0999 V2000
   18.3830  -18.6033    1.3419 C   0  0  0  0  0  0  0  0  0  0  0  0
   18.4887  -16.8282    1.6822 S   0  0  0  0  0  0  0  0  0  0  0  0
   17.8706  -16.4769    3.3361 C   0  0  0  0  0  0  0  0  0  0  0  0
   18.1540  -15.0197    3.7146 C   0  0  0  0  0  0  0  0  0  0  0  0
   17.5045  -14.7952    5.0498 C   0  0  2  0  0  0  0  0  0  0  0  0
   17.1130  -13.4013    5.1206 N   0  0  0  0  0  0  0  0  0  0  0  0
   18.4496  -15.1140    6.1637 C   0  0  0  0  0  0  0  0  0  0  0  0
   19.2142  -14.2408    6.6382 O   0  0  0  0  0  0  0  0  0  0  0  0
   18.4809  -16.4054    6.6839 N   0  0  0  0  0  0  0  0  0  0  0  0
   19.4749  -16.6897    7.7866 C   0  0  1  0  0  0  0  0  0  0  0  0
   18.8455  -15.9940    8.9519 C   0  0  0  0  0  0  0  0  0  0  0  0
   19.5129  -16.0022   10.2341 C   0  0  0  0  0  0  0  0  0  0  0  0
   20.7121  -15.9159   10.5227 O   0  0  0  0  0  0  0  0  0  0  0  0
   19.4382  -18.1573    7.8801 C   0  0  0  0  0  0  0  0  0  0  0  0
   18.3410  -18.7593    7.8554 O   0  0  0  0  0  0  0  0  0  0  0  0
   18.6363  -16.1316   11.3565 O   0  0  0  0  0  0  0  0  0  0  0  0
   20.6028  -18.9316    7.9930 N   0  0  0  0  0  0  0  0  0  0  0  0
   20.5100  -20.3882    8.1495 C   0  0  1  0  0  0  0  0  0  0  0  0
   20.9210  -21.1295    6.9168 C   0  0  0  0  0  0  0  0  0  0  0  0
   19.9204  -20.9386    5.8459 C   0  0  0  0  0  0  0  0  0  0  0  0
   19.9182  -19.9891    4.8371 C   0  0  0  0  0  0  0  0  0  0  0  0
   18.8339  -20.1556    4.0743 N   0  0  0  0  0  0  0  0  0  0  0  0
   18.1623  -21.1951    4.5946 C   0  0  0  0  0  0  0  0  0  0  0  0
   18.8172  -21.6632    5.6583 N   0  0  0  0  0  0  0  0  0  0  0  0
   21.3450  -20.7490    9.3230 C   0  0  0  0  0  0  0  0  0  0  0  0
   22.2275  -19.9234    9.6873 O   0  0  0  0  0  0  0  0  0  0  0  0
   21.1368  -21.9519    9.9686 O   0  0  0  0  0  0  0  0  0  0  0  0
  2  1  1  0
  3  2  1  0
  4  3  1  0
  4  5  1  0
  5  7  1  0
  5  6  1  6
  7  8  2  0
  9 10  1  0
  9  7  1  0
 10 11  1  1
 12 11  1  0
 13 12  2  0
 14 17  1  0
 14 10  1  0
 15 14  2  0
 16 12  1  0
 18 17  1  0
 18 19  1  6
 20 19  1  0
 21 20  2  0
 22 21  1  0
 22 23  1  0
 23 24  2  0
 24 20  1  0
 25 18  1  0
 26 25  2  0
 27 25  1  0
M  END
$$$$
