MDH.pdb
     RDKit          3D

 27 27  0  0  1  0  0  0  0  0999 V2000
   27.0525  -19.2825   -5.6066 C   0  0  0  0  0  0  0  0  0  0  0  0
   28.7270  -19.4843   -6.2646 S   0  0  0  0  0  0  0  0  0  0  0  0
   28.6636  -20.2373   -7.8986 C   0  0  0  0  0  0  0  0  0  0  0  0
   27.2142  -20.5393   -8.2924 C   0  0  0  0  0  0  0  0  0  0  0  0
   27.2650  -21.1333   -9.6707 C   0  0  2  0  0  0  0  0  0  0  0  0
   27.8896  -20.1615  -10.5465 N   0  0  0  0  0  0  0  0  0  0  0  0
   25.8908  -21.4528  -10.1655 C   0  0  0  0  0  0  0  0  0  0  0  0
   25.1668  -22.2921   -9.5790 O   0  0  0  0  0  0  0  0  0  0  0  0
   25.4059  -20.8058  -11.2993 N   0  0  0  0  0  0  0  0  0  0  0  0
   24.0082  -21.1542  -11.7575 C   0  0  1  0  0  0  0  0  0  0  0  0
   23.4085  -19.7996  -11.9658 C   0  0  0  0  0  0  0  0  0  0  0  0
   22.0084  -19.6830  -12.3055 C   0  0  0  0  0  0  0  0  0  0  0  0
   21.1058  -19.0081  -11.7971 O   0  0  0  0  0  0  0  0  0  0  0  0
   24.2553  -21.8929  -13.0054 C   0  0  0  0  0  0  0  0  0  0  0  0
   25.0181  -21.4154  -13.8755 O   0  0  0  0  0  0  0  0  0  0  0  0
   21.6009  -20.4839  -13.4180 O   0  0  0  0  0  0  0  0  0  0  0  0
   23.6663  -23.1387  -13.2695 N   0  0  0  0  0  0  0  0  0  0  0  0
   23.9466  -23.8368  -14.5300 C   0  0  1  0  0  0  0  0  0  0  0  0
   24.2617  -25.2856  -14.3308 C   0  0  0  0  0  0  0  0  0  0  0  0
   24.4379  -25.9564  -15.6361 C   0  0  0  0  0  0  0  0  0  0  0  0
   25.2868  -25.6019  -16.6718 C   0  0  0  0  0  0  0  0  0  0  0  0
   25.1427  -26.4679  -17.6791 N   0  0  0  0  0  0  0  0  0  0  0  0
   24.2163  -27.3555  -17.2840 C   0  0  0  0  0  0  0  0  0  0  0  0
   23.7949  -27.0458  -16.0568 N   0  0  0  0  0  0  0  0  0  0  0  0
   22.7635  -23.6374  -15.4046 C   0  0  0  0  0  0  0  0  0  0  0  0
   21.6469  -23.4578  -14.8440 O   0  0  0  0  0  0  0  0  0  0  0  0
   22.9150  -23.6539  -16.7771 O   0  0  0  0  0  0  0  0  0  0  0  0
  2  1  1  0
  3  2  1  0
  4  3  1  0
  4  5  1  0
  5  7  1  0
  5  6  1  6
  7  8  2  0
  9 10  1  0
  9  7  1  0
 10 11  1  6
 12 11  1  0
 13 12  2  0
 14 17  1  0
 14 10  1  0
 15 14  2  0
 16 12  1  0
 18 17  1  0
 18 19  1  1
 20 19  1  0
 21 20  2  0
 22 21  1  0
 22 23  1  0
 23 24  2  0
 24 20  1  0
 25 18  1  0
 26 25  2  0
 27 25  1  0
M  END
$$$$
