KNH.pdb
     RDKit          3D

 28 28  0  0  1  0  0  0  0  0999 V2000
    9.5333  -15.0411   16.6352 N   0  0  0  0  0  0  0  0  0  0  0  0
   10.4622  -14.2300   17.4335 C   0  0  1  0  0  0  0  0  0  0  0  0
    9.6407  -13.4145   18.3962 C   0  0  0  0  0  0  0  0  0  0  0  0
    8.8562  -14.2265   19.3709 C   0  0  0  0  0  0  0  0  0  0  0  0
    8.1504  -13.3476   20.3785 C   0  0  0  0  0  0  0  0  0  0  0  0
    7.4116  -14.1731   21.3967 C   0  0  0  0  0  0  0  0  0  0  0  0
    6.7938  -13.2193   22.3314 N   0  0  0  0  0  0  0  0  0  0  0  0
   11.4725  -15.0770   18.0921 C   0  0  0  0  0  0  0  0  0  0  0  0
   11.2533  -16.3023   18.2220 O   0  0  0  0  0  0  0  0  0  0  0  0
   15.5785  -15.9871   17.1563 N   0  0  0  0  0  0  0  0  0  0  0  0
   15.5594  -14.7336   17.8409 C   0  0  0  0  0  0  0  0  0  0  0  0
   16.0576  -13.7441   17.2412 O   0  0  0  0  0  0  0  0  0  0  0  0
   14.9959  -14.5499   19.1871 C   0  0  0  0  0  0  0  0  0  0  0  0
   13.6660  -15.2613   19.2938 C   0  0  2  0  0  0  0  0  0  0  0  0
   12.6756  -14.5018   18.5700 N   0  0  0  0  0  0  0  0  0  0  0  0
   13.2928  -15.3251   20.7365 C   0  0  0  0  0  0  0  0  0  0  0  0
   13.5356  -14.3279   21.4676 O   0  0  0  0  0  0  0  0  0  0  0  0
   12.6790  -16.4971   21.2445 N   0  0  0  0  0  0  0  0  0  0  0  0
   12.3191  -16.6191   22.6553 C   0  0  1  0  0  0  0  0  0  0  0  0
   11.0008  -17.2817   22.8254 C   0  0  0  0  0  0  0  0  0  0  0  0
    9.9239  -16.4718   22.2271 C   0  0  0  0  0  0  0  0  0  0  0  0
    9.8513  -15.0770   22.2778 C   0  0  0  0  0  0  0  0  0  0  0  0
    8.7435  -14.7215   21.6298 N   0  0  0  0  0  0  0  0  0  0  0  0
    8.1162  -15.8082   21.1756 C   0  0  0  0  0  0  0  0  0  0  0  0
    8.8353  -16.8759   21.5393 N   0  0  0  0  0  0  0  0  0  0  0  0
   13.4242  -17.2028   23.4338 C   0  0  0  0  0  0  0  0  0  0  0  0
   14.6107  -17.6249   22.8547 O   0  0  0  0  0  0  0  0  0  0  0  0
   13.3402  -17.3484   24.6778 O   0  0  0  0  0  0  0  0  0  0  0  0
  2  1  1  1
  3  2  1  0
  3  4  1  0
  4  5  1  0
  5  6  1  0
  7  6  1  0
  8  9  2  0
  8  2  1  0
 10 11  1  0
 11 12  2  0
 11 13  1  0
 14 13  1  1
 14 15  1  0
 15  8  1  0
 16 17  2  0
 16 14  1  0
 18 16  1  0
 19 20  1  6
 19 18  1  0
 20 21  1  0
 21 25  1  0
 21 22  2  0
 22 23  1  0
 24 23  1  0
 25 24  2  0
 26 19  1  0
 27 26  1  0
 28 26  2  0
M  END
$$$$
