KNH.pdb
     RDKit          3D

 28 28  0  0  1  0  0  0  0  0999 V2000
   12.1787  -16.1501   14.9694 N   0  0  0  0  0  0  0  0  0  0  0  0
   11.5907  -15.7412   16.2520 C   0  0  1  0  0  0  0  0  0  0  0  0
   10.0982  -15.9045   16.1398 C   0  0  0  0  0  0  0  0  0  0  0  0
    9.6699  -17.1632   15.4637 C   0  0  0  0  0  0  0  0  0  0  0  0
    8.1767  -17.1812   15.2272 C   0  0  0  0  0  0  0  0  0  0  0  0
    7.7728  -18.3667   14.3932 C   0  0  0  0  0  0  0  0  0  0  0  0
    6.3059  -18.3167   14.2884 N   0  0  0  0  0  0  0  0  0  0  0  0
   12.1833  -16.4961   17.3703 C   0  0  0  0  0  0  0  0  0  0  0  0
   12.9583  -17.4473   17.1240 O   0  0  0  0  0  0  0  0  0  0  0  0
   15.3823  -14.0323   17.4022 N   0  0  0  0  0  0  0  0  0  0  0  0
   14.8209  -14.7447   18.5056 C   0  0  0  0  0  0  0  0  0  0  0  0
   15.5011  -15.6908   18.9842 O   0  0  0  0  0  0  0  0  0  0  0  0
   13.5112  -14.4298   19.0962 C   0  0  0  0  0  0  0  0  0  0  0  0
   12.8728  -15.6872   19.6418 C   0  0  2  0  0  0  0  0  0  0  0  0
   11.8730  -16.1420   18.7064 N   0  0  0  0  0  0  0  0  0  0  0  0
   12.2252  -15.3476   20.9419 C   0  0  0  0  0  0  0  0  0  0  0  0
   12.9452  -14.9105   21.8791 O   0  0  0  0  0  0  0  0  0  0  0  0
   10.8267  -15.5238   21.0888 N   0  0  0  0  0  0  0  0  0  0  0  0
   10.1456  -15.2061   22.3417 C   0  0  1  0  0  0  0  0  0  0  0  0
    8.7257  -14.8368   22.1108 C   0  0  0  0  0  0  0  0  0  0  0  0
    8.5805  -14.0555   20.8690 C   0  0  0  0  0  0  0  0  0  0  0  0
    9.6375  -13.6698   20.0399 C   0  0  0  0  0  0  0  0  0  0  0  0
    9.1079  -12.9849   19.0281 N   0  0  0  0  0  0  0  0  0  0  0  0
    7.7830  -12.9170   19.1715 C   0  0  0  0  0  0  0  0  0  0  0  0
    7.4605  -13.5696   20.2938 N   0  0  0  0  0  0  0  0  0  0  0  0
   10.3687  -16.2594   23.3460 C   0  0  0  0  0  0  0  0  0  0  0  0
    9.9365  -16.1502   24.6586 O   0  0  0  0  0  0  0  0  0  0  0  0
   10.9714  -17.3214   23.0549 O   0  0  0  0  0  0  0  0  0  0  0  0
  2  1  1  6
  3  2  1  0
  3  4  1  0
  4  5  1  0
  5  6  1  0
  7  6  1  0
  8  9  2  0
  8  2  1  0
 10 11  1  0
 11 12  2  0
 11 13  1  0
 14 13  1  6
 14 15  1  0
 15  8  1  0
 16 17  2  0
 16 14  1  0
 18 16  1  0
 19 20  1  6
 19 18  1  0
 20 21  1  0
 21 25  1  0
 21 22  2  0
 22 23  1  0
 24 23  1  0
 25 24  2  0
 26 19  1  0
 27 26  1  0
 28 26  2  0
M  END
$$$$
