KNH.pdb
     RDKit          3D

 28 28  0  0  1  0  0  0  0  0999 V2000
   11.1551  -16.7379   18.9794 N   0  0  0  0  0  0  0  0  0  0  0  0
   12.0659  -15.6894   19.4581 C   0  0  1  0  0  0  0  0  0  0  0  0
   12.8370  -15.1805   18.2693 C   0  0  0  0  0  0  0  0  0  0  0  0
   13.0613  -16.1999   17.2039 C   0  0  0  0  0  0  0  0  0  0  0  0
   13.8864  -15.6381   16.0684 C   0  0  0  0  0  0  0  0  0  0  0  0
   13.9607  -16.6068   14.9194 C   0  0  0  0  0  0  0  0  0  0  0  0
   14.8438  -15.9904   13.9166 N   0  0  0  0  0  0  0  0  0  0  0  0
   11.3280  -14.6353   20.1765 C   0  0  0  0  0  0  0  0  0  0  0  0
   11.9375  -13.6086   20.5516 O   0  0  0  0  0  0  0  0  0  0  0  0
    8.7698  -12.4164   18.5732 N   0  0  0  0  0  0  0  0  0  0  0  0
    7.8163  -13.3518   19.0794 C   0  0  0  0  0  0  0  0  0  0  0  0
    6.9823  -13.8216   18.2605 O   0  0  0  0  0  0  0  0  0  0  0  0
    7.7653  -13.7822   20.4849 C   0  0  0  0  0  0  0  0  0  0  0  0
    9.1547  -13.7706   21.0813 C   0  0  2  0  0  0  0  0  0  0  0  0
    9.9440  -14.7911   20.4354 N   0  0  0  0  0  0  0  0  0  0  0  0
    9.0335  -14.0766   22.5361 C   0  0  0  0  0  0  0  0  0  0  0  0
    8.4885  -13.2254   23.2887 O   0  0  0  0  0  0  0  0  0  0  0  0
    9.5306  -15.3078   23.0313 N   0  0  0  0  0  0  0  0  0  0  0  0
    9.5713  -15.5930   24.4637 C   0  0  1  0  0  0  0  0  0  0  0  0
    8.2326  -15.9759   24.9806 C   0  0  0  0  0  0  0  0  0  0  0  0
    7.4603  -14.7837   25.3752 C   0  0  0  0  0  0  0  0  0  0  0  0
    7.9975  -13.6547   25.9998 C   0  0  0  0  0  0  0  0  0  0  0  0
    6.9930  -12.8020   26.1925 N   0  0  0  0  0  0  0  0  0  0  0  0
    5.8579  -13.3268   25.7271 C   0  0  0  0  0  0  0  0  0  0  0  0
    6.1419  -14.5353   25.2286 N   0  0  0  0  0  0  0  0  0  0  0  0
   10.6631  -16.5269   24.7856 C   0  0  0  0  0  0  0  0  0  0  0  0
   10.9551  -16.9241   26.0812 O   0  0  0  0  0  0  0  0  0  0  0  0
   11.3922  -17.0131   23.8868 O   0  0  0  0  0  0  0  0  0  0  0  0
  2  1  1  6
  3  2  1  0
  3  4  1  0
  4  5  1  0
  5  6  1  0
  7  6  1  0
  8  9  2  0
  8  2  1  0
 10 11  1  0
 11 12  2  0
 11 13  1  0
 14 13  1  6
 14 15  1  0
 15  8  1  0
 16 17  2  0
 16 14  1  0
 18 16  1  0
 19 20  1  6
 19 18  1  0
 20 21  1  0
 21 25  1  0
 21 22  2  0
 22 23  1  0
 24 23  1  0
 25 24  2  0
 26 19  1  0
 27 26  1  0
 28 26  2  0
M  END
$$$$
