KNH.pdb
     RDKit          3D

 28 28  0  0  1  0  0  0  0  0999 V2000
   13.7486  -20.5214   15.1640 N   0  0  0  0  0  0  0  0  0  0  0  0
   13.7086  -19.7429   16.4092 C   0  0  1  0  0  0  0  0  0  0  0  0
   12.2728  -19.3691   16.6650 C   0  0  0  0  0  0  0  0  0  0  0  0
   11.4153  -20.5049   17.1114 C   0  0  0  0  0  0  0  0  0  0  0  0
    9.9878  -20.0618   17.3389 C   0  0  0  0  0  0  0  0  0  0  0  0
    9.1304  -21.2077   17.8031 C   0  0  0  0  0  0  0  0  0  0  0  0
    7.7656  -20.6739   17.9370 N   0  0  0  0  0  0  0  0  0  0  0  0
   14.3299  -20.4876   17.5188 C   0  0  0  0  0  0  0  0  0  0  0  0
   14.0577  -21.6997   17.6706 O   0  0  0  0  0  0  0  0  0  0  0  0
   18.6959  -19.9166   21.8492 N   0  0  0  0  0  0  0  0  0  0  0  0
   17.9367  -20.5384   20.8113 C   0  0  0  0  0  0  0  0  0  0  0  0
   17.9338  -21.7977   20.7776 O   0  0  0  0  0  0  0  0  0  0  0  0
   17.1737  -19.7900   19.8009 C   0  0  0  0  0  0  0  0  0  0  0  0
   15.8810  -20.5097   19.4894 C   0  0  2  0  0  0  0  0  0  0  0  0
   15.2241  -19.8304   18.3992 N   0  0  0  0  0  0  0  0  0  0  0  0
   15.0194  -20.4551   20.7058 C   0  0  0  0  0  0  0  0  0  0  0  0
   14.3775  -19.3973   20.9440 O   0  0  0  0  0  0  0  0  0  0  0  0
   14.9451  -21.5863   21.5563 N   0  0  0  0  0  0  0  0  0  0  0  0
   14.0666  -21.6062   22.7237 C   0  0  1  0  0  0  0  0  0  0  0  0
   13.2781  -22.8630   22.7900 C   0  0  0  0  0  0  0  0  0  0  0  0
   12.1107  -22.7997   21.8918 C   0  0  0  0  0  0  0  0  0  0  0  0
   11.4472  -21.6253   21.5259 C   0  0  0  0  0  0  0  0  0  0  0  0
   10.4548  -21.9773   20.7107 N   0  0  0  0  0  0  0  0  0  0  0  0
   10.4547  -23.3011   20.5427 C   0  0  0  0  0  0  0  0  0  0  0  0
   11.4641  -23.8034   21.2626 N   0  0  0  0  0  0  0  0  0  0  0  0
   14.8073  -21.2602   23.9482 C   0  0  0  0  0  0  0  0  0  0  0  0
   16.1826  -21.0879   23.9714 O   0  0  0  0  0  0  0  0  0  0  0  0
   14.2177  -21.1041   25.0453 O   0  0  0  0  0  0  0  0  0  0  0  0
  2  1  1  6
  3  2  1  0
  3  4  1  0
  4  5  1  0
  5  6  1  0
  7  6  1  0
  8  9  2  0
  8  2  1  0
 10 11  1  0
 11 12  2  0
 11 13  1  0
 14 13  1  1
 14 15  1  0
 15  8  1  0
 16 17  2  0
 16 14  1  0
 18 16  1  0
 19 20  1  1
 19 18  1  0
 20 21  1  0
 21 25  1  0
 21 22  2  0
 22 23  1  0
 24 23  1  0
 25 24  2  0
 26 19  1  0
 27 26  1  0
 28 26  2  0
M  END
$$$$
