KNH.pdb
     RDKit          3D

 28 28  0  0  1  0  0  0  0  0999 V2000
    8.7557  -17.4582   17.1766 N   0  0  0  0  0  0  0  0  0  0  0  0
   10.1526  -17.0034   17.1820 C   0  0  1  0  0  0  0  0  0  0  0  0
   10.4680  -16.4893   15.8025 C   0  0  0  0  0  0  0  0  0  0  0  0
    9.3388  -16.6027   14.8347 C   0  0  0  0  0  0  0  0  0  0  0  0
    9.6719  -15.9373   13.5186 C   0  0  0  0  0  0  0  0  0  0  0  0
    8.5014  -15.9839   12.5743 C   0  0  0  0  0  0  0  0  0  0  0  0
    8.8782  -15.1673   11.4096 N   0  0  0  0  0  0  0  0  0  0  0  0
   10.3816  -16.0108   18.2470 C   0  0  0  0  0  0  0  0  0  0  0  0
   11.4852  -15.4241   18.3097 O   0  0  0  0  0  0  0  0  0  0  0  0
    8.8579  -13.6662   17.9139 N   0  0  0  0  0  0  0  0  0  0  0  0
    8.0999  -13.3628   19.0859 C   0  0  0  0  0  0  0  0  0  0  0  0
    7.1141  -12.5908   18.9482 O   0  0  0  0  0  0  0  0  0  0  0  0
    8.4122  -13.9000   20.4190 C   0  0  0  0  0  0  0  0  0  0  0  0
    9.5646  -14.8746   20.3281 C   0  0  2  0  0  0  0  0  0  0  0  0
    9.3579  -15.7305   19.1852 N   0  0  0  0  0  0  0  0  0  0  0  0
    9.5727  -15.6951   21.5738 C   0  0  0  0  0  0  0  0  0  0  0  0
    8.6114  -16.4820   21.7845 O   0  0  0  0  0  0  0  0  0  0  0  0
   10.6534  -15.5696   22.4818 N   0  0  0  0  0  0  0  0  0  0  0  0
   11.1961  -16.7290   23.1861 C   0  0  1  0  0  0  0  0  0  0  0  0
   11.4886  -17.8456   22.2516 C   0  0  0  0  0  0  0  0  0  0  0  0
   11.9463  -19.0396   22.9855 C   0  0  0  0  0  0  0  0  0  0  0  0
   11.7986  -19.2370   24.3611 C   0  0  0  0  0  0  0  0  0  0  0  0
   12.3330  -20.4236   24.6433 N   0  0  0  0  0  0  0  0  0  0  0  0
   12.8074  -20.9831   23.5287 C   0  0  0  0  0  0  0  0  0  0  0  0
   12.5721  -20.1399   22.5172 N   0  0  0  0  0  0  0  0  0  0  0  0
   12.3070  -16.3379   24.0698 C   0  0  0  0  0  0  0  0  0  0  0  0
   12.4678  -16.8513   25.3473 O   0  0  0  0  0  0  0  0  0  0  0  0
   13.1728  -15.5071   23.7009 O   0  0  0  0  0  0  0  0  0  0  0  0
  2  1  1  6
  3  2  1  0
  3  4  1  0
  4  5  1  0
  5  6  1  0
  7  6  1  0
  8  9  2  0
  8  2  1  0
 10 11  1  0
 11 12  2  0
 11 13  1  0
 14 13  1  1
 14 15  1  0
 15  8  1  0
 16 17  2  0
 16 14  1  0
 18 16  1  0
 19 20  1  6
 19 18  1  0
 20 21  1  0
 21 25  1  0
 21 22  2  0
 22 23  1  0
 24 23  1  0
 25 24  2  0
 26 19  1  0
 27 26  1  0
 28 26  2  0
M  END
$$$$
