KNH.pdb
     RDKit          3D

 28 28  0  0  1  0  0  0  0  0999 V2000
    9.7021  -17.8208   16.2836 N   0  0  0  0  0  0  0  0  0  0  0  0
    8.4323  -17.4415   16.9175 C   0  0  1  0  0  0  0  0  0  0  0  0
    7.3181  -17.9612   16.0484 C   0  0  0  0  0  0  0  0  0  0  0  0
    7.5910  -17.8706   14.5849 C   0  0  0  0  0  0  0  0  0  0  0  0
    6.4303  -17.2448   13.8454 C   0  0  0  0  0  0  0  0  0  0  0  0
    6.7259  -17.1205   12.3753 C   0  0  0  0  0  0  0  0  0  0  0  0
    5.5946  -16.3854   11.7878 N   0  0  0  0  0  0  0  0  0  0  0  0
    8.3696  -17.9260   18.3078 C   0  0  0  0  0  0  0  0  0  0  0  0
    7.2536  -18.1477   18.8290 O   0  0  0  0  0  0  0  0  0  0  0  0
    9.3487  -21.2651   21.9721 N   0  0  0  0  0  0  0  0  0  0  0  0
   10.5395  -20.9303   21.2579 C   0  0  0  0  0  0  0  0  0  0  0  0
   11.6207  -21.4159   21.6847 O   0  0  0  0  0  0  0  0  0  0  0  0
   10.5600  -20.0620   20.0710 C   0  0  0  0  0  0  0  0  0  0  0  0
    9.6047  -18.9051   20.2586 C   0  0  2  0  0  0  0  0  0  0  0  0
    9.5648  -18.1355   19.0389 N   0  0  0  0  0  0  0  0  0  0  0  0
   10.1230  -18.0561   21.3701 C   0  0  0  0  0  0  0  0  0  0  0  0
   10.2820  -18.5789   22.5055 O   0  0  0  0  0  0  0  0  0  0  0  0
   10.4214  -16.6930   21.1226 N   0  0  0  0  0  0  0  0  0  0  0  0
   10.3562  -15.6929   22.1857 C   0  0  1  0  0  0  0  0  0  0  0  0
    8.9549  -15.2902   22.4689 C   0  0  0  0  0  0  0  0  0  0  0  0
    8.3720  -14.5711   21.3213 C   0  0  0  0  0  0  0  0  0  0  0  0
    9.0458  -14.2888   20.1299 C   0  0  0  0  0  0  0  0  0  0  0  0
    8.1920  -13.6326   19.3465 N   0  0  0  0  0  0  0  0  0  0  0  0
    7.0234  -13.4856   19.9736 C   0  0  0  0  0  0  0  0  0  0  0  0
    7.1323  -14.0576   21.1779 N   0  0  0  0  0  0  0  0  0  0  0  0
   11.1406  -16.1159   23.3578 C   0  0  0  0  0  0  0  0  0  0  0  0
   11.5233  -15.2402   24.3619 O   0  0  0  0  0  0  0  0  0  0  0  0
   11.5056  -17.3081   23.5029 O   0  0  0  0  0  0  0  0  0  0  0  0
  2  1  1  6
  3  2  1  0
  3  4  1  0
  4  5  1  0
  5  6  1  0
  7  6  1  0
  8  9  2  0
  8  2  1  0
 10 11  1  0
 11 12  2  0
 11 13  1  0
 14 13  1  6
 14 15  1  0
 15  8  1  0
 16 17  2  0
 16 14  1  0
 18 16  1  0
 19 20  1  1
 19 18  1  0
 20 21  1  0
 21 25  1  0
 21 22  2  0
 22 23  1  0
 24 23  1  0
 25 24  2  0
 26 19  1  0
 27 26  1  0
 28 26  2  0
M  END
$$$$
