KNH.pdb
     RDKit          3D

 28 28  0  0  1  0  0  0  0  0999 V2000
    8.4640  -16.9099   18.0162 N   0  0  0  0  0  0  0  0  0  0  0  0
    9.3008  -15.8470   18.5891 C   0  0  1  0  0  0  0  0  0  0  0  0
    8.9112  -14.5541   17.9233 C   0  0  0  0  0  0  0  0  0  0  0  0
    8.7131  -14.6609   16.4488 C   0  0  0  0  0  0  0  0  0  0  0  0
    8.3339  -13.3274   15.8455 C   0  0  0  0  0  0  0  0  0  0  0  0
    7.9696  -13.4720   14.3928 C   0  0  0  0  0  0  0  0  0  0  0  0
    7.6375  -12.1206   13.9144 N   0  0  0  0  0  0  0  0  0  0  0  0
    9.1807  -15.8128   20.0575 C   0  0  0  0  0  0  0  0  0  0  0  0
    9.9048  -15.0302   20.7127 O   0  0  0  0  0  0  0  0  0  0  0  0
    6.0809  -15.3483   21.2128 N   0  0  0  0  0  0  0  0  0  0  0  0
    5.8273  -16.5341   21.9677 C   0  0  0  0  0  0  0  0  0  0  0  0
    4.6228  -16.8672   22.1262 O   0  0  0  0  0  0  0  0  0  0  0  0
    6.8873  -17.3666   22.5563 C   0  0  0  0  0  0  0  0  0  0  0  0
    8.2452  -16.8461   22.1424 C   0  0  2  0  0  0  0  0  0  0  0  0
    8.2532  -16.6604   20.7116 N   0  0  0  0  0  0  0  0  0  0  0  0
    9.2644  -17.8672   22.5209 C   0  0  0  0  0  0  0  0  0  0  0  0
    9.7735  -18.5775   21.6131 O   0  0  0  0  0  0  0  0  0  0  0  0
    9.6318  -18.0114   23.8820 N   0  0  0  0  0  0  0  0  0  0  0  0
   11.0136  -18.2778   24.2748 C   0  0  1  0  0  0  0  0  0  0  0  0
   11.9477  -17.2840   23.6870 C   0  0  0  0  0  0  0  0  0  0  0  0
   12.6598  -17.8525   22.5279 C   0  0  0  0  0  0  0  0  0  0  0  0
   12.4556  -19.1371   22.0167 C   0  0  0  0  0  0  0  0  0  0  0  0
   13.2778  -19.2776   20.9787 N   0  0  0  0  0  0  0  0  0  0  0  0
   13.9858  -18.1596   20.8072 C   0  0  0  0  0  0  0  0  0  0  0  0
   13.6095  -17.2900   21.7515 N   0  0  0  0  0  0  0  0  0  0  0  0
   11.1225  -18.4622   25.7315 C   0  0  0  0  0  0  0  0  0  0  0  0
   10.5146  -17.6140   26.6441 O   0  0  0  0  0  0  0  0  0  0  0  0
   11.7828  -19.4107   26.2216 O   0  0  0  0  0  0  0  0  0  0  0  0
  2  1  1  6
  3  2  1  0
  3  4  1  0
  4  5  1  0
  5  6  1  0
  7  6  1  0
  8  9  2  0
  8  2  1  0
 10 11  1  0
 11 12  2  0
 11 13  1  0
 14 13  1  6
 14 15  1  0
 15  8  1  0
 16 17  2  0
 16 14  1  0
 18 16  1  0
 19 20  1  1
 19 18  1  0
 20 21  1  0
 21 25  1  0
 21 22  2  0
 22 23  1  0
 24 23  1  0
 25 24  2  0
 26 19  1  0
 27 26  1  0
 28 26  2  0
M  END
$$$$
