DNY.pdb
     RDKit          3D

 29 29  0  0  1  0  0  0  0  0999 V2000
    9.9261  -13.4661   19.1561 N   0  0  0  0  0  0  0  0  0  0  0  0
    8.4988  -13.6103   19.1994 C   0  0  1  0  0  0  0  0  0  0  0  0
    7.8370  -13.4768   17.8698 C   0  0  0  0  0  0  0  0  0  0  0  0
    8.5098  -14.2043   16.7856 C   0  0  0  0  0  0  0  0  0  0  0  0
    9.5402  -14.8685   16.9718 O   0  0  0  0  0  0  0  0  0  0  0  0
    8.0380  -14.8300   19.8776 C   0  0  0  0  0  0  0  0  0  0  0  0
    7.0999  -15.4964   19.3980 O   0  0  0  0  0  0  0  0  0  0  0  0
    8.0025  -14.1719   15.4877 O   0  0  0  0  0  0  0  0  0  0  0  0
    8.7310  -19.7500   20.6152 N   0  0  0  0  0  0  0  0  0  0  0  0
    9.7478  -18.7686   20.6776 C   0  0  0  0  0  0  0  0  0  0  0  0
   10.8861  -19.1025   21.0768 O   0  0  0  0  0  0  0  0  0  0  0  0
    9.4738  -17.3777   20.2793 C   0  0  0  0  0  0  0  0  0  0  0  0
    8.8347  -16.6416   21.4007 C   0  0  2  0  0  0  0  0  0  0  0  0
    8.6476  -15.2550   21.0784 N   0  0  0  0  0  0  0  0  0  0  0  0
    9.6579  -16.6885   22.6460 C   0  0  0  0  0  0  0  0  0  0  0  0
    9.9289  -17.7844   23.1868 O   0  0  0  0  0  0  0  0  0  0  0  0
    5.6440  -11.2527   27.9722 O   0  0  0  0  0  0  0  0  0  0  0  0
    6.2668  -12.0347   26.9813 C   0  0  0  0  0  0  0  0  0  0  0  0
    5.8060  -13.2932   26.6735 C   0  0  0  0  0  0  0  0  0  0  0  0
    6.4047  -14.0896   25.6956 C   0  0  0  0  0  0  0  0  0  0  0  0
    7.4961  -13.6012   25.0126 C   0  0  0  0  0  0  0  0  0  0  0  0
    8.1596  -14.4046   23.9742 C   0  0  0  0  0  0  0  0  0  0  0  0
    9.5469  -14.8637   24.3812 C   0  0  2  0  0  0  0  0  0  0  0  0
   10.1611  -15.5134   23.2614 N   0  0  0  0  0  0  0  0  0  0  0  0
    9.4372  -15.7131   25.5663 C   0  0  0  0  0  0  0  0  0  0  0  0
    9.3864  -17.0886   25.4093 O   0  0  0  0  0  0  0  0  0  0  0  0
    7.9523  -12.3307   25.3312 C   0  0  0  0  0  0  0  0  0  0  0  0
    7.3509  -11.5449   26.3053 C   0  0  0  0  0  0  0  0  0  0  0  0
    9.3867  -15.2417   26.7265 O   0  0  0  0  0  0  0  0  0  0  0  0
  2  1  1  6
  2  3  1  0
  4  8  1  0
  4  3  1  0
  5  4  2  0
  6  2  1  0
  7  6  2  0
  9 10  1  0
 10 12  1  0
 11 10  2  0
 13 12  1  6
 13 14  1  0
 14  6  1  0
 15 13  1  0
 15 16  2  0
 17 18  1  0
 18 28  2  0
 19 18  1  0
 19 20  2  0
 20 21  1  0
 21 27  2  0
 21 22  1  0
 23 24  1  0
 23 22  1  6
 23 25  1  0
 24 15  1  0
 25 26  1  0
 28 27  1  0
 29 25  2  0
M  END
$$$$
