DNY.pdb
     RDKit          3D

 29 29  0  0  1  0  0  0  0  0999 V2000
   10.6526  -19.7936   21.2062 N   0  0  0  0  0  0  0  0  0  0  0  0
   10.9504  -18.7033   20.3216 C   0  0  1  0  0  0  0  0  0  0  0  0
   10.5266  -18.9362   18.9110 C   0  0  0  0  0  0  0  0  0  0  0  0
   10.9734  -17.9020   17.9685 C   0  0  0  0  0  0  0  0  0  0  0  0
   12.1093  -17.4069   18.0164 O   0  0  0  0  0  0  0  0  0  0  0  0
   10.4637  -17.3984   20.7908 C   0  0  0  0  0  0  0  0  0  0  0  0
   11.1707  -16.3807   20.6542 O   0  0  0  0  0  0  0  0  0  0  0  0
   10.1200  -17.4352   16.9703 O   0  0  0  0  0  0  0  0  0  0  0  0
    7.5267  -15.5707   19.5577 N   0  0  0  0  0  0  0  0  0  0  0  0
    6.6722  -15.7343   20.6731 C   0  0  0  0  0  0  0  0  0  0  0  0
    5.4362  -15.6255   20.5085 O   0  0  0  0  0  0  0  0  0  0  0  0
    7.2255  -16.0285   22.0056 C   0  0  0  0  0  0  0  0  0  0  0  0
    8.7101  -16.0493   21.9491 C   0  0  2  0  0  0  0  0  0  0  0  0
    9.1967  -17.2854   21.4043 N   0  0  0  0  0  0  0  0  0  0  0  0
    9.3267  -15.9006   23.3012 C   0  0  0  0  0  0  0  0  0  0  0  0
   10.4856  -15.4436   23.4237 O   0  0  0  0  0  0  0  0  0  0  0  0
    6.0216  -10.5323   25.9212 O   0  0  0  0  0  0  0  0  0  0  0  0
    6.5257  -11.8300   26.1290 C   0  0  0  0  0  0  0  0  0  0  0  0
    7.7118  -12.0351   26.7939 C   0  0  0  0  0  0  0  0  0  0  0  0
    8.2342  -13.3109   27.0137 C   0  0  0  0  0  0  0  0  0  0  0  0
    7.5400  -14.4059   26.5496 C   0  0  0  0  0  0  0  0  0  0  0  0
    8.0519  -15.7692   26.7576 C   0  0  0  0  0  0  0  0  0  0  0  0
    9.1790  -16.1267   25.8073 C   0  0  2  0  0  0  0  0  0  0  0  0
    8.6386  -16.2646   24.4874 N   0  0  0  0  0  0  0  0  0  0  0  0
    9.8489  -17.3305   26.2972 C   0  0  0  0  0  0  0  0  0  0  0  0
   10.5231  -17.2839   27.5065 O   0  0  0  0  0  0  0  0  0  0  0  0
    6.3449  -14.1873   25.8806 C   0  0  0  0  0  0  0  0  0  0  0  0
    5.8321  -12.9148   25.6661 C   0  0  0  0  0  0  0  0  0  0  0  0
    9.8371  -18.4102   25.6608 O   0  0  0  0  0  0  0  0  0  0  0  0
  2  1  1  1
  2  3  1  0
  4  8  1  0
  4  3  1  0
  5  4  2  0
  6  2  1  0
  7  6  2  0
  9 10  1  0
 10 12  1  0
 11 10  2  0
 13 12  1  1
 13 14  1  0
 14  6  1  0
 15 13  1  0
 15 16  2  0
 17 18  1  0
 18 28  2  0
 19 18  1  0
 19 20  2  0
 20 21  1  0
 21 27  2  0
 21 22  1  0
 23 24  1  0
 23 22  1  1
 23 25  1  0
 24 15  1  0
 25 26  1  0
 28 27  1  0
 29 25  2  0
M  END
$$$$
