DNY.pdb
     RDKit          3D

 29 29  0  0  1  0  0  0  0  0999 V2000
    9.7168  -16.7775   17.8421 N   0  0  0  0  0  0  0  0  0  0  0  0
    8.6278  -17.1701   18.6905 C   0  0  1  0  0  0  0  0  0  0  0  0
    7.6889  -18.1412   18.0585 C   0  0  0  0  0  0  0  0  0  0  0  0
    7.9402  -18.3815   16.6315 C   0  0  0  0  0  0  0  0  0  0  0  0
    7.0635  -18.8102   15.8664 O   0  0  0  0  0  0  0  0  0  0  0  0
    9.0415  -17.6508   20.0162 C   0  0  0  0  0  0  0  0  0  0  0  0
    8.1882  -18.0585   20.8285 O   0  0  0  0  0  0  0  0  0  0  0  0
    9.1952  -18.1301   16.0798 O   0  0  0  0  0  0  0  0  0  0  0  0
   13.3926  -19.4050   19.6867 N   0  0  0  0  0  0  0  0  0  0  0  0
   12.5397  -19.5290   20.8084 C   0  0  0  0  0  0  0  0  0  0  0  0
   11.9959  -20.6335   21.0348 O   0  0  0  0  0  0  0  0  0  0  0  0
   12.2953  -18.3799   21.6962 C   0  0  0  0  0  0  0  0  0  0  0  0
   10.8510  -18.0314   21.6948 C   0  0  2  0  0  0  0  0  0  0  0  0
   10.4049  -17.6504   20.3843 N   0  0  0  0  0  0  0  0  0  0  0  0
   10.5477  -16.8862   22.6043 C   0  0  0  0  0  0  0  0  0  0  0  0
   11.2589  -15.8562   22.5870 O   0  0  0  0  0  0  0  0  0  0  0  0
    7.3286  -13.2436   18.8616 O   0  0  0  0  0  0  0  0  0  0  0  0
    7.4341  -13.7641   20.1652 C   0  0  0  0  0  0  0  0  0  0  0  0
    6.7808  -14.9192   20.5256 C   0  0  0  0  0  0  0  0  0  0  0  0
    6.8683  -15.4571   21.8109 C   0  0  0  0  0  0  0  0  0  0  0  0
    7.6352  -14.8108   22.7546 C   0  0  0  0  0  0  0  0  0  0  0  0
    7.7565  -15.3402   24.1216 C   0  0  0  0  0  0  0  0  0  0  0  0
    9.1482  -15.8584   24.4314 C   0  0  2  0  0  0  0  0  0  0  0  0
    9.4587  -16.9138   23.5134 N   0  0  0  0  0  0  0  0  0  0  0  0
    9.2017  -16.2651   25.8349 C   0  0  0  0  0  0  0  0  0  0  0  0
    9.4836  -17.5855   26.1454 O   0  0  0  0  0  0  0  0  0  0  0  0
    8.2896  -13.6467   22.3800 C   0  0  0  0  0  0  0  0  0  0  0  0
    8.1974  -13.1183   21.0992 C   0  0  0  0  0  0  0  0  0  0  0  0
    9.0007  -15.4601   26.7742 O   0  0  0  0  0  0  0  0  0  0  0  0
  2  1  1  6
  2  3  1  0
  4  8  1  0
  4  3  1  0
  5  4  2  0
  6  2  1  0
  7  6  2  0
  9 10  1  0
 10 12  1  0
 11 10  2  0
 13 12  1  6
 13 14  1  0
 14  6  1  0
 15 13  1  0
 15 16  2  0
 17 18  1  0
 18 28  2  0
 19 18  1  0
 19 20  2  0
 20 21  1  0
 21 27  2  0
 21 22  1  0
 23 24  1  0
 23 22  1  6
 23 25  1  0
 24 15  1  0
 25 26  1  0
 28 27  1  0
 29 25  2  0
M  END
$$$$
