DNY.pdb
     RDKit          3D

 29 29  0  0  1  0  0  0  0  0999 V2000
   11.5522  -18.2544   20.4081 N   0  0  0  0  0  0  0  0  0  0  0  0
   11.7302  -16.9440   19.8501 C   0  0  1  0  0  0  0  0  0  0  0  0
   11.8877  -16.9347   18.3672 C   0  0  0  0  0  0  0  0  0  0  0  0
   12.9688  -17.7959   17.8702 C   0  0  0  0  0  0  0  0  0  0  0  0
   14.0108  -17.9907   18.5134 O   0  0  0  0  0  0  0  0  0  0  0  0
   10.7068  -15.9721   20.2597 C   0  0  0  0  0  0  0  0  0  0  0  0
   10.4926  -14.9588   19.5657 O   0  0  0  0  0  0  0  0  0  0  0  0
   12.8565  -18.4352   16.6367 O   0  0  0  0  0  0  0  0  0  0  0  0
    7.4570  -17.5134   21.9684 N   0  0  0  0  0  0  0  0  0  0  0  0
    7.0151  -16.4854   21.1029 C   0  0  0  0  0  0  0  0  0  0  0  0
    5.9541  -16.6514   20.4599 O   0  0  0  0  0  0  0  0  0  0  0  0
    7.7883  -15.2404   20.9601 C   0  0  0  0  0  0  0  0  0  0  0  0
    8.9518  -15.2528   21.8842 C   0  0  2  0  0  0  0  0  0  0  0  0
    9.9621  -16.1726   21.4427 N   0  0  0  0  0  0  0  0  0  0  0  0
    8.5673  -15.6647   23.2673 C   0  0  0  0  0  0  0  0  0  0  0  0
    7.3642  -15.8374   23.5669 O   0  0  0  0  0  0  0  0  0  0  0  0
    6.1021  -10.5381   27.0955 O   0  0  0  0  0  0  0  0  0  0  0  0
    6.5042  -11.8516   26.7881 C   0  0  0  0  0  0  0  0  0  0  0  0
    7.8241  -12.1547   26.5496 C   0  0  0  0  0  0  0  0  0  0  0  0
    8.2500  -13.4483   26.2429 C   0  0  0  0  0  0  0  0  0  0  0  0
    7.3181  -14.4599   26.1756 C   0  0  0  0  0  0  0  0  0  0  0  0
    7.7203  -15.8381   25.8553 C   0  0  0  0  0  0  0  0  0  0  0  0
    9.2196  -15.9888   25.6804 C   0  0  2  0  0  0  0  0  0  0  0  0
    9.5316  -15.8751   24.2865 N   0  0  0  0  0  0  0  0  0  0  0  0
    9.6420  -17.2556   26.2761 C   0  0  0  0  0  0  0  0  0  0  0  0
   10.1950  -18.2327   25.4645 O   0  0  0  0  0  0  0  0  0  0  0  0
    5.9898  -14.1427   26.4179 C   0  0  0  0  0  0  0  0  0  0  0  0
    5.5745  -12.8532   26.7225 C   0  0  0  0  0  0  0  0  0  0  0  0
    9.5221  -17.4933   27.5008 O   0  0  0  0  0  0  0  0  0  0  0  0
  2  1  1  6
  2  3  1  0
  4  8  1  0
  4  3  1  0
  5  4  2  0
  6  2  1  0
  7  6  2  0
  9 10  1  0
 10 12  1  0
 11 10  2  0
 13 12  1  6
 13 14  1  0
 14  6  1  0
 15 13  1  0
 15 16  2  0
 17 18  1  0
 18 28  2  0
 19 18  1  0
 19 20  2  0
 20 21  1  0
 21 27  2  0
 21 22  1  0
 23 24  1  0
 23 22  1  6
 23 25  1  0
 24 15  1  0
 25 26  1  0
 28 27  1  0
 29 25  2  0
M  END
$$$$
