DNY.pdb
     RDKit          3D

 29 29  0  0  1  0  0  0  0  0999 V2000
    9.3144  -15.0676   21.0855 N   0  0  0  0  0  0  0  0  0  0  0  0
    8.4397  -15.9688   21.7803 C   0  0  1  0  0  0  0  0  0  0  0  0
    7.7864  -16.9778   20.8979 C   0  0  0  0  0  0  0  0  0  0  0  0
    7.4150  -16.4684   19.5713 C   0  0  0  0  0  0  0  0  0  0  0  0
    8.2018  -15.8200   18.8655 O   0  0  0  0  0  0  0  0  0  0  0  0
    9.0548  -16.6289   22.9404 C   0  0  0  0  0  0  0  0  0  0  0  0
    8.3726  -17.3736   23.6712 O   0  0  0  0  0  0  0  0  0  0  0  0
    6.1428  -16.7022   19.0520 O   0  0  0  0  0  0  0  0  0  0  0  0
   13.1073  -18.2488   21.7137 N   0  0  0  0  0  0  0  0  0  0  0  0
   12.4834  -18.4813   22.9618 C   0  0  0  0  0  0  0  0  0  0  0  0
   11.9406  -19.5900   23.1687 O   0  0  0  0  0  0  0  0  0  0  0  0
   12.4726  -17.4384   24.0013 C   0  0  0  0  0  0  0  0  0  0  0  0
   11.0737  -17.0714   24.3421 C   0  0  2  0  0  0  0  0  0  0  0  0
   10.4190  -16.4224   23.2413 N   0  0  0  0  0  0  0  0  0  0  0  0
   11.0051  -16.1314   25.5007 C   0  0  0  0  0  0  0  0  0  0  0  0
   11.7441  -15.1220   25.5438 O   0  0  0  0  0  0  0  0  0  0  0  0
    6.3302  -11.6415   24.3547 O   0  0  0  0  0  0  0  0  0  0  0  0
    6.9061  -12.5253   25.2868 C   0  0  0  0  0  0  0  0  0  0  0  0
    6.1851  -13.5689   25.8178 C   0  0  0  0  0  0  0  0  0  0  0  0
    6.7316  -14.4599   26.7434 C   0  0  0  0  0  0  0  0  0  0  0  0
    8.0390  -14.2909   27.1415 C   0  0  0  0  0  0  0  0  0  0  0  0
    8.6569  -15.2046   28.1147 C   0  0  0  0  0  0  0  0  0  0  0  0
   10.0973  -15.5395   27.7764 C   0  0  2  0  0  0  0  0  0  0  0  0
   10.1145  -16.3368   26.5859 N   0  0  0  0  0  0  0  0  0  0  0  0
   10.7165  -16.1911   28.9296 C   0  0  0  0  0  0  0  0  0  0  0  0
   11.1472  -17.5027   28.8138 O   0  0  0  0  0  0  0  0  0  0  0  0
    8.7566  -13.2350   26.5994 C   0  0  0  0  0  0  0  0  0  0  0  0
    8.2055  -12.3533   25.6791 C   0  0  0  0  0  0  0  0  0  0  0  0
   10.8735  -15.6051   30.0263 O   0  0  0  0  0  0  0  0  0  0  0  0
  2  1  1  6
  2  3  1  0
  4  8  1  0
  4  3  1  0
  5  4  2  0
  6  2  1  0
  7  6  2  0
  9 10  1  0
 10 12  1  0
 11 10  2  0
 13 12  1  6
 13 14  1  0
 14  6  1  0
 15 13  1  0
 15 16  2  0
 17 18  1  0
 18 28  2  0
 19 18  1  0
 19 20  2  0
 20 21  1  0
 21 27  2  0
 21 22  1  0
 23 24  1  0
 23 22  1  1
 23 25  1  0
 24 15  1  0
 25 26  1  0
 28 27  1  0
 29 25  2  0
M  END
$$$$
