DNY.pdb
     RDKit          3D

 29 29  0  0  1  0  0  0  0  0999 V2000
   12.2616  -17.9259   19.6620 N   0  0  0  0  0  0  0  0  0  0  0  0
   11.7367  -16.7966   18.9485 C   0  0  1  0  0  0  0  0  0  0  0  0
   11.4098  -17.0818   17.5217 C   0  0  0  0  0  0  0  0  0  0  0  0
   11.8469  -18.4043   17.0556 C   0  0  0  0  0  0  0  0  0  0  0  0
   12.4623  -19.1952   17.7859 O   0  0  0  0  0  0  0  0  0  0  0  0
   10.5993  -16.1428   19.6107 C   0  0  0  0  0  0  0  0  0  0  0  0
    9.8303  -15.4114   18.9567 O   0  0  0  0  0  0  0  0  0  0  0  0
   11.5788  -18.8218   15.7530 O   0  0  0  0  0  0  0  0  0  0  0  0
    6.4073  -14.2407   21.8373 N   0  0  0  0  0  0  0  0  0  0  0  0
    6.8591  -15.5806   21.8763 C   0  0  0  0  0  0  0  0  0  0  0  0
    6.2924  -16.3871   22.6477 O   0  0  0  0  0  0  0  0  0  0  0  0
    7.9763  -16.0210   21.0241 C   0  0  0  0  0  0  0  0  0  0  0  0
    9.2726  -15.7157   21.6830 C   0  0  2  0  0  0  0  0  0  0  0  0
   10.3700  -16.3314   20.9914 N   0  0  0  0  0  0  0  0  0  0  0  0
    9.3178  -16.2099   23.0916 C   0  0  0  0  0  0  0  0  0  0  0  0
    8.9034  -17.3564   23.3757 O   0  0  0  0  0  0  0  0  0  0  0  0
    6.4495  -10.2754   27.0106 O   0  0  0  0  0  0  0  0  0  0  0  0
    6.8531  -11.5896   26.7083 C   0  0  0  0  0  0  0  0  0  0  0  0
    5.9360  -12.6082   26.5972 C   0  0  0  0  0  0  0  0  0  0  0  0
    6.3090  -13.9200   26.2983 C   0  0  0  0  0  0  0  0  0  0  0  0
    7.6418  -14.2083   26.1073 C   0  0  0  0  0  0  0  0  0  0  0  0
    8.0816  -15.5759   25.7910 C   0  0  0  0  0  0  0  0  0  0  0  0
    9.5747  -15.6718   25.5407 C   0  0  2  0  0  0  0  0  0  0  0  0
    9.8237  -15.4158   24.1530 N   0  0  0  0  0  0  0  0  0  0  0  0
   10.0486  -16.9794   25.9917 C   0  0  0  0  0  0  0  0  0  0  0  0
    9.3784  -18.1198   25.5800 O   0  0  0  0  0  0  0  0  0  0  0  0
    8.5580  -13.1732   26.2216 C   0  0  0  0  0  0  0  0  0  0  0  0
    8.1787  -11.8710   26.5191 C   0  0  0  0  0  0  0  0  0  0  0  0
   11.0443  -17.1093   26.7417 O   0  0  0  0  0  0  0  0  0  0  0  0
  2  1  1  1
  2  3  1  0
  4  8  1  0
  4  3  1  0
  5  4  2  0
  6  2  1  0
  7  6  2  0
  9 10  1  0
 10 12  1  0
 11 10  2  0
 13 12  1  6
 13 14  1  0
 14  6  1  0
 15 13  1  0
 15 16  2  0
 17 18  1  0
 18 28  2  0
 19 18  1  0
 19 20  2  0
 20 21  1  0
 21 27  2  0
 21 22  1  0
 23 24  1  0
 23 22  1  6
 23 25  1  0
 24 15  1  0
 25 26  1  0
 28 27  1  0
 29 25  2  0
M  END
$$$$
