YWS.pdb
     RDKit          3D

 33 35  0  0  1  0  0  0  0  0999 V2000
   19.4143  -23.1812  -13.5800 O   0  0  0  0  0  0  0  0  0  0  0  0
   20.4512  -23.5574  -14.4186 C   0  0  0  0  0  0  0  0  0  0  0  0
   21.1507  -24.7317  -14.1475 C   0  0  0  0  0  0  0  0  0  0  0  0
   22.1912  -25.1729  -14.9311 C   0  0  0  0  0  0  0  0  0  0  0  0
   22.5639  -24.4184  -16.0414 C   0  0  0  0  0  0  0  0  0  0  0  0
   23.6877  -24.9270  -16.8598 C   0  0  0  0  0  0  0  0  0  0  0  0
   25.0110  -24.5173  -16.2177 C   0  0  2  0  0  0  0  0  0  0  0  0
   25.1943  -23.0840  -16.3122 N   0  0  0  0  0  0  0  0  0  0  0  0
   26.1374  -25.2279  -16.8719 C   0  0  0  0  0  0  0  0  0  0  0  0
   26.7069  -24.7465  -17.9011 O   0  0  0  0  0  0  0  0  0  0  0  0
   21.8674  -23.2565  -16.3046 C   0  0  0  0  0  0  0  0  0  0  0  0
   20.8273  -22.8258  -15.5119 C   0  0  0  0  0  0  0  0  0  0  0  0
   26.6538  -26.4685  -16.4120 N   0  0  0  0  0  0  0  0  0  0  0  0
   27.7878  -27.0957  -17.0453 C   0  0  1  0  0  0  0  0  0  0  0  0
   28.5687  -27.8438  -15.9975 C   0  0  0  0  0  0  0  0  0  0  0  0
   29.7706  -28.5013  -16.6117 C   0  0  0  0  0  0  0  0  0  0  0  0
   30.6538  -27.9494  -17.5297 C   0  0  0  0  0  0  0  0  0  0  0  0
   31.5892  -28.8692  -17.8229 N   0  0  0  0  0  0  0  0  0  0  0  0
   31.3757  -30.0101  -17.1464 C   0  0  0  0  0  0  0  0  0  0  0  0
   32.0304  -31.2334  -17.0895 C   0  0  0  0  0  0  0  0  0  0  0  0
   31.5149  -32.2145  -16.2560 C   0  0  0  0  0  0  0  0  0  0  0  0
   30.3881  -32.0101  -15.4950 C   0  0  0  0  0  0  0  0  0  0  0  0
   29.7687  -30.7805  -15.5811 C   0  0  0  0  0  0  0  0  0  0  0  0
   30.2406  -29.7816  -16.3899 C   0  0  0  0  0  0  0  0  0  0  0  0
   27.4073  -27.9361  -18.1949 C   0  0  0  0  0  0  0  0  0  0  0  0
   26.4098  -28.6917  -18.0700 O   0  0  0  0  0  0  0  0  0  0  0  0
   29.4617  -27.6322  -21.6419 O   0  0  0  0  0  0  0  0  0  0  0  0
   28.2125  -28.1990  -21.8141 C   0  0  0  0  0  0  0  0  0  0  0  0
   27.7117  -28.7907  -20.4953 C   0  0  2  0  0  0  0  0  0  0  0  0
   28.1344  -27.9100  -19.4250 N   0  0  0  0  0  0  0  0  0  0  0  0
   28.2751  -30.1352  -20.3633 C   0  0  0  0  0  0  0  0  0  0  0  0
   29.0147  -30.3701  -19.3695 O   0  0  0  0  0  0  0  0  0  0  0  0
   28.0466  -31.1571  -21.2565 O   0  0  0  0  0  0  0  0  0  0  0  0
  2  1  1  0
  3  2  2  0
  4  3  1  0
  5 11  1  0
  5  4  2  0
  6  5  1  0
  7  6  1  0
  7  8  1  6
  9 13  1  0
  9  7  1  0
 10  9  2  0
 11 12  2  0
 12  2  1  0
 14 13  1  0
 14 15  1  1
 15 16  1  0
 16 17  2  0
 17 18  1  0
 19 18  1  0
 20 19  2  0
 21 20  1  0
 22 23  1  0
 22 21  2  0
 23 24  2  0
 24 16  1  0
 24 19  1  0
 25 14  1  0
 26 25  2  0
 27 28  1  0
 29 28  1  6
 29 30  1  0
 30 25  1  0
 31 33  1  0
 31 29  1  0
 32 31  2  0
M  END
$$$$
