YWS.pdb
     RDKit          3D

 33 35  0  0  1  0  0  0  0  0999 V2000
   31.3854  -16.0174  -18.4289 O   0  0  0  0  0  0  0  0  0  0  0  0
   30.4146  -16.6862  -17.7007 C   0  0  0  0  0  0  0  0  0  0  0  0
   30.7693  -17.2999  -16.5010 C   0  0  0  0  0  0  0  0  0  0  0  0
   29.8651  -17.9823  -15.7212 C   0  0  0  0  0  0  0  0  0  0  0  0
   28.5402  -18.0655  -16.1442 C   0  0  0  0  0  0  0  0  0  0  0  0
   27.5977  -18.8077  -15.2770 C   0  0  0  0  0  0  0  0  0  0  0  0
   28.1188  -20.2256  -15.0555 C   0  0  2  0  0  0  0  0  0  0  0  0
   28.4318  -20.8511  -16.3235 N   0  0  0  0  0  0  0  0  0  0  0  0
   27.1144  -21.0289  -14.3155 C   0  0  0  0  0  0  0  0  0  0  0  0
   26.2710  -21.7528  -14.9317 O   0  0  0  0  0  0  0  0  0  0  0  0
   28.1952  -17.4557  -17.3331 C   0  0  0  0  0  0  0  0  0  0  0  0
   29.1104  -16.7754  -18.1046 C   0  0  0  0  0  0  0  0  0  0  0  0
   27.0189  -21.0512  -12.8985 N   0  0  0  0  0  0  0  0  0  0  0  0
   26.0127  -21.8321  -12.2218 C   0  0  1  0  0  0  0  0  0  0  0  0
   26.5270  -22.1940  -10.8535 C   0  0  0  0  0  0  0  0  0  0  0  0
   26.4934  -20.9962   -9.9490 C   0  0  0  0  0  0  0  0  0  0  0  0
   25.5427  -19.9846   -9.9281 C   0  0  0  0  0  0  0  0  0  0  0  0
   25.8818  -19.1049   -8.9699 N   0  0  0  0  0  0  0  0  0  0  0  0
   27.0129  -19.4775   -8.3482 C   0  0  0  0  0  0  0  0  0  0  0  0
   27.7687  -18.9361   -7.3167 C   0  0  0  0  0  0  0  0  0  0  0  0
   28.9131  -19.6106   -6.9187 C   0  0  0  0  0  0  0  0  0  0  0  0
   29.3130  -20.7854   -7.5108 C   0  0  0  0  0  0  0  0  0  0  0  0
   28.5335  -21.2887   -8.5315 C   0  0  0  0  0  0  0  0  0  0  0  0
   27.3957  -20.6581   -8.9586 C   0  0  0  0  0  0  0  0  0  0  0  0
   24.6985  -21.1656  -12.1896 C   0  0  0  0  0  0  0  0  0  0  0  0
   24.6559  -19.9599  -11.8343 O   0  0  0  0  0  0  0  0  0  0  0  0
   21.4980  -23.1920  -13.4346 O   0  0  0  0  0  0  0  0  0  0  0  0
   21.2754  -21.8283  -13.4806 C   0  0  0  0  0  0  0  0  0  0  0  0
   22.2543  -21.0992  -12.5585 C   0  0  2  0  0  0  0  0  0  0  0  0
   23.4948  -21.8480  -12.5473 N   0  0  0  0  0  0  0  0  0  0  0  0
   21.6438  -21.0160  -11.2308 C   0  0  0  0  0  0  0  0  0  0  0  0
   22.2171  -21.6124  -10.2792 O   0  0  0  0  0  0  0  0  0  0  0  0
   20.4838  -20.3272  -10.9582 O   0  0  0  0  0  0  0  0  0  0  0  0
  2  1  1  0
  3  2  2  0
  4  3  1  0
  5 11  1  0
  5  4  2  0
  6  5  1  0
  7  6  1  0
  7  8  1  6
  9 13  1  0
  9  7  1  0
 10  9  2  0
 11 12  2  0
 12  2  1  0
 14 13  1  0
 14 15  1  1
 15 16  1  0
 16 17  2  0
 17 18  1  0
 19 18  1  0
 20 19  2  0
 21 20  1  0
 22 23  1  0
 22 21  2  0
 23 24  2  0
 24 16  1  0
 24 19  1  0
 25 14  1  0
 26 25  2  0
 27 28  1  0
 29 28  1  6
 29 30  1  0
 30 25  1  0
 31 33  1  0
 31 29  1  0
 32 31  2  0
M  END
$$$$
