YWS.pdb
     RDKit          3D

 33 35  0  0  1  0  0  0  0  0999 V2000
   16.8771  -23.5512  -14.1796 O   0  0  0  0  0  0  0  0  0  0  0  0
   18.1007  -22.9474  -13.9385 C   0  0  0  0  0  0  0  0  0  0  0  0
   19.0055  -23.5677  -13.0792 C   0  0  0  0  0  0  0  0  0  0  0  0
   20.2388  -23.0328  -12.7890 C   0  0  0  0  0  0  0  0  0  0  0  0
   20.6020  -21.8225  -13.3759 C   0  0  0  0  0  0  0  0  0  0  0  0
   21.9375  -21.2802  -13.0391 C   0  0  0  0  0  0  0  0  0  0  0  0
   21.9608  -20.8601  -11.5714 C   0  0  2  0  0  0  0  0  0  0  0  0
   20.9841  -19.8185  -11.3300 N   0  0  0  0  0  0  0  0  0  0  0  0
   23.3185  -20.3943  -11.1952 C   0  0  0  0  0  0  0  0  0  0  0  0
   23.8327  -19.3664  -11.7378 O   0  0  0  0  0  0  0  0  0  0  0  0
   19.7016  -21.2132  -14.2259 C   0  0  0  0  0  0  0  0  0  0  0  0
   18.4696  -21.7593  -14.5080 C   0  0  0  0  0  0  0  0  0  0  0  0
   24.1285  -21.0429  -10.2255 N   0  0  0  0  0  0  0  0  0  0  0  0
   25.4822  -20.6180   -9.9660 C   0  0  1  0  0  0  0  0  0  0  0  0
   25.8722  -21.0767   -8.5858 C   0  0  0  0  0  0  0  0  0  0  0  0
   26.7395  -20.0485   -7.9189 C   0  0  0  0  0  0  0  0  0  0  0  0
   27.0637  -18.7853   -8.3951 C   0  0  0  0  0  0  0  0  0  0  0  0
   27.8616  -18.1855   -7.4948 N   0  0  0  0  0  0  0  0  0  0  0  0
   28.0877  -18.9850   -6.4391 C   0  0  0  0  0  0  0  0  0  0  0  0
   28.8209  -18.8497   -5.2675 C   0  0  0  0  0  0  0  0  0  0  0  0
   28.8306  -19.9102   -4.3742 C   0  0  0  0  0  0  0  0  0  0  0  0
   28.1425  -21.0761   -4.6151 C   0  0  0  0  0  0  0  0  0  0  0  0
   27.4269  -21.1688   -5.7908 C   0  0  0  0  0  0  0  0  0  0  0  0
   27.3877  -20.1484   -6.7028 C   0  0  0  0  0  0  0  0  0  0  0  0
   26.4273  -21.0528  -11.0101 C   0  0  0  0  0  0  0  0  0  0  0  0
   26.7237  -22.2737  -11.0676 O   0  0  0  0  0  0  0  0  0  0  0  0
   28.3718  -18.3611  -13.4213 O   0  0  0  0  0  0  0  0  0  0  0  0
   28.0390  -19.5542  -14.0354 C   0  0  0  0  0  0  0  0  0  0  0  0
   27.8543  -20.6558  -12.9903 C   0  0  2  0  0  0  0  0  0  0  0  0
   27.0026  -20.1334  -11.9407 N   0  0  0  0  0  0  0  0  0  0  0  0
   29.1793  -21.0317  -12.4945 C   0  0  0  0  0  0  0  0  0  0  0  0
   29.4485  -20.7882  -11.2870 O   0  0  0  0  0  0  0  0  0  0  0  0
   30.1475  -21.6340  -13.2652 O   0  0  0  0  0  0  0  0  0  0  0  0
  2  1  1  0
  3  2  2  0
  4  3  1  0
  5 11  1  0
  5  4  2  0
  6  5  1  0
  7  6  1  0
  7  8  1  6
  9 13  1  0
  9  7  1  0
 10  9  2  0
 11 12  2  0
 12  2  1  0
 14 13  1  0
 14 15  1  1
 15 16  1  0
 16 17  2  0
 17 18  1  0
 19 18  1  0
 20 19  2  0
 21 20  1  0
 22 23  1  0
 22 21  2  0
 23 24  2  0
 24 16  1  0
 24 19  1  0
 25 14  1  0
 26 25  2  0
 27 28  1  0
 29 28  1  6
 29 30  1  0
 30 25  1  0
 31 33  1  0
 31 29  1  0
 32 31  2  0
M  END
$$$$
