YWS.pdb
     RDKit          3D

 33 35  0  0  1  0  0  0  0  0999 V2000
   30.6570  -16.4675  -18.6955 O   0  0  0  0  0  0  0  0  0  0  0  0
   29.8133  -17.0347  -17.7540 C   0  0  0  0  0  0  0  0  0  0  0  0
   30.3572  -17.5522  -16.5801 C   0  0  0  0  0  0  0  0  0  0  0  0
   29.5876  -18.1308  -15.5981 C   0  0  0  0  0  0  0  0  0  0  0  0
   28.2083  -18.2041  -15.7805 C   0  0  0  0  0  0  0  0  0  0  0  0
   27.4148  -18.8332  -14.7007 C   0  0  0  0  0  0  0  0  0  0  0  0
   27.9620  -20.2295  -14.4145 C   0  0  2  0  0  0  0  0  0  0  0  0
   27.7300  -21.1031  -15.5458 N   0  0  0  0  0  0  0  0  0  0  0  0
   27.3293  -20.7851  -13.1926 C   0  0  0  0  0  0  0  0  0  0  0  0
   26.2466  -21.4474  -13.2583 O   0  0  0  0  0  0  0  0  0  0  0  0
   27.6757  -17.6898  -16.9451 C   0  0  0  0  0  0  0  0  0  0  0  0
   28.4575  -17.1131  -17.9206 C   0  0  0  0  0  0  0  0  0  0  0  0
   27.8693  -20.6248  -11.8888 N   0  0  0  0  0  0  0  0  0  0  0  0
   27.0975  -20.9298  -10.7091 C   0  0  1  0  0  0  0  0  0  0  0  0
   27.9371  -20.6282   -9.4960 C   0  0  0  0  0  0  0  0  0  0  0  0
   27.1029  -20.7079   -8.2502 C   0  0  0  0  0  0  0  0  0  0  0  0
   25.7819  -21.1225   -8.1479 C   0  0  0  0  0  0  0  0  0  0  0  0
   25.4126  -21.0445   -6.8577 N   0  0  0  0  0  0  0  0  0  0  0  0
   26.4214  -20.5979   -6.0910 C   0  0  0  0  0  0  0  0  0  0  0  0
   26.5600  -20.3443   -4.7328 C   0  0  0  0  0  0  0  0  0  0  0  0
   27.7822  -19.8759   -4.2749 C   0  0  0  0  0  0  0  0  0  0  0  0
   28.8456  -19.6592   -5.1192 C   0  0  0  0  0  0  0  0  0  0  0  0
   28.6653  -19.9240   -6.4610 C   0  0  0  0  0  0  0  0  0  0  0  0
   27.4772  -20.3873   -6.9593 C   0  0  0  0  0  0  0  0  0  0  0  0
   25.7889  -20.2517  -10.6917 C   0  0  0  0  0  0  0  0  0  0  0  0
   25.7622  -19.0260  -10.4114 O   0  0  0  0  0  0  0  0  0  0  0  0
   22.8492  -21.8183  -12.7679 O   0  0  0  0  0  0  0  0  0  0  0  0
   22.7491  -20.4699  -12.4795 C   0  0  0  0  0  0  0  0  0  0  0  0
   23.3521  -20.1748  -11.1050 C   0  0  2  0  0  0  0  0  0  0  0  0
   24.5733  -20.9450  -10.9816 N   0  0  0  0  0  0  0  0  0  0  0  0
   22.3608  -20.5396  -10.0916 C   0  0  0  0  0  0  0  0  0  0  0  0
   22.6630  -21.4473   -9.2703 O   0  0  0  0  0  0  0  0  0  0  0  0
   21.1208  -19.9527   -9.9809 O   0  0  0  0  0  0  0  0  0  0  0  0
  2  1  1  0
  3  2  2  0
  4  3  1  0
  5 11  1  0
  5  4  2  0
  6  5  1  0
  7  6  1  0
  7  8  1  6
  9 13  1  0
  9  7  1  0
 10  9  2  0
 11 12  2  0
 12  2  1  0
 14 13  1  0
 14 15  1  1
 15 16  1  0
 16 17  2  0
 17 18  1  0
 19 18  1  0
 20 19  2  0
 21 20  1  0
 22 23  1  0
 22 21  2  0
 23 24  2  0
 24 16  1  0
 24 19  1  0
 25 14  1  0
 26 25  2  0
 27 28  1  0
 29 28  1  6
 29 30  1  0
 30 25  1  0
 31 33  1  0
 31 29  1  0
 32 31  2  0
M  END
$$$$
