YWS.pdb
     RDKit          3D

 33 35  0  0  1  0  0  0  0  0999 V2000
   18.7347  -14.8545  -21.5764 O   0  0  0  0  0  0  0  0  0  0  0  0
   19.4910  -13.7790  -21.1390 C   0  0  0  0  0  0  0  0  0  0  0  0
   19.3014  -12.5315  -21.7301 C   0  0  0  0  0  0  0  0  0  0  0  0
   20.0119  -11.4161  -21.3525 C   0  0  0  0  0  0  0  0  0  0  0  0
   20.9601  -11.5342  -20.3385 C   0  0  0  0  0  0  0  0  0  0  0  0
   21.7032  -10.3111  -19.9603 C   0  0  0  0  0  0  0  0  0  0  0  0
   21.3191   -9.9007  -18.5408 C   0  0  2  0  0  0  0  0  0  0  0  0
   19.9267   -9.5058  -18.4899 N   0  0  0  0  0  0  0  0  0  0  0  0
   22.1892   -8.7920  -18.0767 C   0  0  0  0  0  0  0  0  0  0  0  0
   21.7840   -7.5876  -18.0982 O   0  0  0  0  0  0  0  0  0  0  0  0
   21.1431  -12.7722  -19.7570 C   0  0  0  0  0  0  0  0  0  0  0  0
   20.4251  -13.8812  -20.1445 C   0  0  0  0  0  0  0  0  0  0  0  0
   23.5079   -8.9842  -17.5853 N   0  0  0  0  0  0  0  0  0  0  0  0
   24.3342   -7.8719  -17.1851 C   0  0  1  0  0  0  0  0  0  0  0  0
   24.8655   -8.1428  -15.8024 C   0  0  0  0  0  0  0  0  0  0  0  0
   23.8009   -7.8892  -14.7746 C   0  0  0  0  0  0  0  0  0  0  0  0
   23.2060   -8.8193  -13.9329 C   0  0  0  0  0  0  0  0  0  0  0  0
   22.3042   -8.1812  -13.1670 N   0  0  0  0  0  0  0  0  0  0  0  0
   22.2659   -6.8694  -13.4545 C   0  0  0  0  0  0  0  0  0  0  0  0
   21.5304   -5.7973  -12.9667 C   0  0  0  0  0  0  0  0  0  0  0  0
   21.7588   -4.5433  -13.5128 C   0  0  0  0  0  0  0  0  0  0  0  0
   22.6818   -4.3370  -14.5109 C   0  0  0  0  0  0  0  0  0  0  0  0
   23.3909   -5.4291  -14.9664 C   0  0  0  0  0  0  0  0  0  0  0  0
   23.1998   -6.6860  -14.4580 C   0  0  0  0  0  0  0  0  0  0  0  0
   25.3933   -7.5661  -18.1636 C   0  0  0  0  0  0  0  0  0  0  0  0
   26.3271   -8.3970  -18.3026 O   0  0  0  0  0  0  0  0  0  0  0  0
   24.7149   -5.5722  -21.3830 O   0  0  0  0  0  0  0  0  0  0  0  0
   25.9214   -6.2403  -21.2856 C   0  0  0  0  0  0  0  0  0  0  0  0
   26.4747   -6.1324  -19.8635 C   0  0  2  0  0  0  0  0  0  0  0  0
   25.3809   -6.3682  -18.9427 N   0  0  0  0  0  0  0  0  0  0  0  0
   27.0544   -4.7975  -19.7070 C   0  0  0  0  0  0  0  0  0  0  0  0
   26.4603   -3.9810  -18.9519 O   0  0  0  0  0  0  0  0  0  0  0  0
   28.2070   -4.3802  -20.3329 O   0  0  0  0  0  0  0  0  0  0  0  0
  2  1  1  0
  3  2  2  0
  4  3  1  0
  5 11  1  0
  5  4  2  0
  6  5  1  0
  7  6  1  0
  7  8  1  6
  9 13  1  0
  9  7  1  0
 10  9  2  0
 11 12  2  0
 12  2  1  0
 14 13  1  0
 14 15  1  1
 15 16  1  0
 16 17  2  0
 17 18  1  0
 19 18  1  0
 20 19  2  0
 21 20  1  0
 22 23  1  0
 22 21  2  0
 23 24  2  0
 24 16  1  0
 24 19  1  0
 25 14  1  0
 26 25  2  0
 27 28  1  0
 29 28  1  6
 29 30  1  0
 30 25  1  0
 31 33  1  0
 31 29  1  0
 32 31  2  0
M  END
$$$$
