YWS.pdb
     RDKit          3D

 33 35  0  0  1  0  0  0  0  0999 V2000
   -4.9247    9.0955 -101.8451 O   0  0  0  0  0  0  0  0  0  0  0  0
   -5.7015    9.5986 -100.8139 C   0  0  0  0  0  0  0  0  0  0  0  0
   -5.5788    9.0460  -99.5406 C   0  0  0  0  0  0  0  0  0  0  0  0
   -6.3137    9.4891  -98.4658 C   0  0  0  0  0  0  0  0  0  0  0  0
   -7.2180   10.5322  -98.6536 C   0  0  0  0  0  0  0  0  0  0  0  0
   -7.9893   10.9808  -97.4725 C   0  0  0  0  0  0  0  0  0  0  0  0
   -7.7730   10.0012  -96.3214 C   0  0  2  0  0  0  0  0  0  0  0  0
   -9.0109    9.7904  -95.6001 N   0  0  0  0  0  0  0  0  0  0  0  0
   -6.7214   10.5117  -95.4074 C   0  0  0  0  0  0  0  0  0  0  0  0
   -6.7162   10.2003  -94.1753 O   0  0  0  0  0  0  0  0  0  0  0  0
   -7.3349   11.0752  -99.9169 C   0  0  0  0  0  0  0  0  0  0  0  0
   -6.5931   10.6222 -100.9847 C   0  0  0  0  0  0  0  0  0  0  0  0
   -5.6664   11.3654  -95.8263 N   0  0  0  0  0  0  0  0  0  0  0  0
   -5.8464   12.7925  -95.9314 C   0  0  1  0  0  0  0  0  0  0  0  0
   -4.5014   13.4563  -95.7977 C   0  0  0  0  0  0  0  0  0  0  0  0
   -4.5696   14.5799  -94.8043 C   0  0  0  0  0  0  0  0  0  0  0  0
   -4.8295   15.9185  -95.0652 C   0  0  0  0  0  0  0  0  0  0  0  0
   -4.8002   16.5901  -93.9012 N   0  0  0  0  0  0  0  0  0  0  0  0
   -4.5333   15.7670  -92.8734 C   0  0  0  0  0  0  0  0  0  0  0  0
   -4.3958   15.9493  -91.5037 C   0  0  0  0  0  0  0  0  0  0  0  0
   -4.1108   14.8411  -90.7204 C   0  0  0  0  0  0  0  0  0  0  0  0
   -3.9630   13.5840  -91.2575 C   0  0  0  0  0  0  0  0  0  0  0  0
   -4.1079   13.4471  -92.6224 C   0  0  0  0  0  0  0  0  0  0  0  0
   -4.3890   14.5118  -93.4361 C   0  0  0  0  0  0  0  0  0  0  0  0
   -6.5695   13.1885  -97.1532 C   0  0  0  0  0  0  0  0  0  0  0  0
   -6.2794   14.2932  -97.6797 O   0  0  0  0  0  0  0  0  0  0  0  0
   -7.8946   13.7654  -95.6539 O   0  0  0  0  0  0  0  0  0  0  0  0
   -9.0104   13.8136  -96.4688 C   0  0  0  0  0  0  0  0  0  0  0  0
   -8.9654   12.6829  -97.4981 C   0  0  2  0  0  0  0  0  0  0  0  0
   -7.5739   12.3588  -97.7406 N   0  0  0  0  0  0  0  0  0  0  0  0
   -9.6459   13.1488  -98.7074 C   0  0  0  0  0  0  0  0  0  0  0  0
   -8.9471   13.3497  -99.7376 O   0  0  0  0  0  0  0  0  0  0  0  0
  -11.0002   13.3803  -98.7883 O   0  0  0  0  0  0  0  0  0  0  0  0
  2  1  1  0
  3  2  2  0
  4  3  1  0
  5 11  1  0
  5  4  2  0
  6  5  1  0
  7  6  1  0
  7  8  1  1
  9 13  1  0
  9  7  1  0
 10  9  2  0
 11 12  2  0
 12  2  1  0
 14 13  1  0
 14 15  1  6
 15 16  1  0
 16 17  2  0
 17 18  1  0
 19 18  1  0
 20 19  2  0
 21 20  1  0
 22 23  1  0
 22 21  2  0
 23 24  2  0
 24 16  1  0
 24 19  1  0
 25 14  1  0
 26 25  2  0
 27 28  1  0
 29 28  1  1
 29 30  1  0
 30 25  1  0
 31 33  1  0
 31 29  1  0
 32 31  2  0
M  END
$$$$
