YWS.pdb
     RDKit          3D

 33 35  0  0  1  0  0  0  0  0999 V2000
   31.9708  -16.4709  -18.7774 O   0  0  0  0  0  0  0  0  0  0  0  0
   30.9369  -17.0707  -18.0765 C   0  0  0  0  0  0  0  0  0  0  0  0
   31.0042  -17.1285  -16.6859 C   0  0  0  0  0  0  0  0  0  0  0  0
   30.0197  -17.7064  -15.9190 C   0  0  0  0  0  0  0  0  0  0  0  0
   28.9087  -18.2572  -16.5544 C   0  0  0  0  0  0  0  0  0  0  0  0
   27.8708  -18.8690  -15.6944 C   0  0  0  0  0  0  0  0  0  0  0  0
   28.1926  -20.3462  -15.4812 C   0  0  2  0  0  0  0  0  0  0  0  0
   28.1797  -21.0521  -16.7455 N   0  0  0  0  0  0  0  0  0  0  0  0
   27.2170  -20.9506  -14.5405 C   0  0  0  0  0  0  0  0  0  0  0  0
   26.1464  -21.4896  -14.9631 O   0  0  0  0  0  0  0  0  0  0  0  0
   28.8479  -18.1967  -17.9317 C   0  0  0  0  0  0  0  0  0  0  0  0
   29.8407  -17.6152  -18.6879 C   0  0  0  0  0  0  0  0  0  0  0  0
   27.3978  -20.9736  -13.1320 N   0  0  0  0  0  0  0  0  0  0  0  0
   26.4598  -21.6382  -12.2610 C   0  0  1  0  0  0  0  0  0  0  0  0
   27.1459  -21.9324  -10.9532 C   0  0  0  0  0  0  0  0  0  0  0  0
   26.7015  -20.9595   -9.8995 C   0  0  0  0  0  0  0  0  0  0  0  0
   25.4824  -20.2996   -9.8248 C   0  0  0  0  0  0  0  0  0  0  0  0
   25.4889  -19.5214   -8.7288 N   0  0  0  0  0  0  0  0  0  0  0  0
   26.6525  -19.6277   -8.0658 C   0  0  0  0  0  0  0  0  0  0  0  0
   27.1570  -19.0530   -6.9067 C   0  0  0  0  0  0  0  0  0  0  0  0
   28.4370  -19.4038   -6.5047 C   0  0  0  0  0  0  0  0  0  0  0  0
   29.2086  -20.2935   -7.2143 C   0  0  0  0  0  0  0  0  0  0  0  0
   28.6692  -20.8412   -8.3597 C   0  0  0  0  0  0  0  0  0  0  0  0
   27.4104  -20.5253   -8.7958 C   0  0  0  0  0  0  0  0  0  0  0  0
   25.2008  -20.8891  -12.0995 C   0  0  0  0  0  0  0  0  0  0  0  0
   25.2481  -19.7701  -11.5274 O   0  0  0  0  0  0  0  0  0  0  0  0
   22.3891  -21.2288  -14.7496 O   0  0  0  0  0  0  0  0  0  0  0  0
   22.4131  -20.1255  -13.9168 C   0  0  0  0  0  0  0  0  0  0  0  0
   22.7840  -20.5432  -12.4928 C   0  0  2  0  0  0  0  0  0  0  0  0
   23.9514  -21.3982  -12.5710 N   0  0  0  0  0  0  0  0  0  0  0  0
   21.6301  -21.2309  -11.9112 C   0  0  0  0  0  0  0  0  0  0  0  0
   20.5713  -20.5674  -11.7424 O   0  0  0  0  0  0  0  0  0  0  0  0
   21.6306  -22.5557  -11.5383 O   0  0  0  0  0  0  0  0  0  0  0  0
  2  1  1  0
  3  2  2  0
  4  3  1  0
  5 11  1  0
  5  4  2  0
  6  5  1  0
  7  6  1  0
  7  8  1  6
  9 13  1  0
  9  7  1  0
 10  9  2  0
 11 12  2  0
 12  2  1  0
 14 13  1  0
 14 15  1  1
 15 16  1  0
 16 17  2  0
 17 18  1  0
 19 18  1  0
 20 19  2  0
 21 20  1  0
 22 23  1  0
 22 21  2  0
 23 24  2  0
 24 16  1  0
 24 19  1  0
 25 14  1  0
 26 25  2  0
 27 28  1  0
 29 28  1  6
 29 30  1  0
 30 25  1  0
 31 33  1  0
 31 29  1  0
 32 31  2  0
M  END
$$$$
