YWS.pdb
     RDKit          3D

 33 35  0  0  1  0  0  0  0  0999 V2000
   27.2694  -17.0308  -19.7214 O   0  0  0  0  0  0  0  0  0  0  0  0
   26.6808  -17.8702  -18.7892 C   0  0  0  0  0  0  0  0  0  0  0  0
   26.2571  -17.3407  -17.5718 C   0  0  0  0  0  0  0  0  0  0  0  0
   25.6646  -18.1072  -16.5957 C   0  0  0  0  0  0  0  0  0  0  0  0
   25.4786  -19.4680  -16.8296 C   0  0  0  0  0  0  0  0  0  0  0  0
   24.8368  -20.2584  -15.7551 C   0  0  0  0  0  0  0  0  0  0  0  0
   25.8730  -20.6014  -14.6875 C   0  0  2  0  0  0  0  0  0  0  0  0
   26.8382  -21.5473  -15.2079 N   0  0  0  0  0  0  0  0  0  0  0  0
   25.2028  -21.1541  -13.4845 C   0  0  0  0  0  0  0  0  0  0  0  0
   24.8038  -22.3603  -13.4524 O   0  0  0  0  0  0  0  0  0  0  0  0
   25.9002  -19.9863  -18.0371 C   0  0  0  0  0  0  0  0  0  0  0  0
   26.4922  -19.2078  -19.0062 C   0  0  0  0  0  0  0  0  0  0  0  0
   24.9609  -20.3990  -12.3062 N   0  0  0  0  0  0  0  0  0  0  0  0
   24.2709  -20.9666  -11.1740 C   0  0  1  0  0  0  0  0  0  0  0  0
   24.7753  -20.2996   -9.9217 C   0  0  0  0  0  0  0  0  0  0  0  0
   26.1928  -20.7104   -9.6455 C   0  0  0  0  0  0  0  0  0  0  0  0
   26.9980  -21.5297  -10.4252 C   0  0  0  0  0  0  0  0  0  0  0  0
   28.1941  -21.6445   -9.8227 N   0  0  0  0  0  0  0  0  0  0  0  0
   28.2296  -20.9424   -8.6779 C   0  0  0  0  0  0  0  0  0  0  0  0
   29.1990  -20.7323   -7.7061 C   0  0  0  0  0  0  0  0  0  0  0  0
   28.8795  -19.9240   -6.6256 C   0  0  0  0  0  0  0  0  0  0  0  0
   27.6448  -19.3335   -6.4934 C   0  0  0  0  0  0  0  0  0  0  0  0
   26.7111  -19.5683   -7.4813 C   0  0  0  0  0  0  0  0  0  0  0  0
   26.9806  -20.3588   -8.5662 C   0  0  0  0  0  0  0  0  0  0  0  0
   22.8044  -20.9088  -11.3112 C   0  0  0  0  0  0  0  0  0  0  0  0
   22.2864  -19.8182  -11.6631 O   0  0  0  0  0  0  0  0  0  0  0  0
   20.0894  -23.8695   -9.9631 O   0  0  0  0  0  0  0  0  0  0  0  0
   19.9397  -23.3202  -11.2229 C   0  0  0  0  0  0  0  0  0  0  0  0
   20.5469  -21.9168  -11.2658 C   0  0  2  0  0  0  0  0  0  0  0  0
   21.9752  -22.0449  -11.0578 N   0  0  0  0  0  0  0  0  0  0  0  0
   19.9033  -21.1167  -10.2226 C   0  0  0  0  0  0  0  0  0  0  0  0
   20.6224  -20.6883   -9.2796 O   0  0  0  0  0  0  0  0  0  0  0  0
   18.5631  -20.8039  -10.2087 O   0  0  0  0  0  0  0  0  0  0  0  0
  2  1  1  0
  3  2  2  0
  4  3  1  0
  5 11  1  0
  5  4  2  0
  6  5  1  0
  7  6  1  0
  7  8  1  6
  9 13  1  0
  9  7  1  0
 10  9  2  0
 11 12  2  0
 12  2  1  0
 14 13  1  0
 14 15  1  1
 15 16  1  0
 16 17  2  0
 17 18  1  0
 19 18  1  0
 20 19  2  0
 21 20  1  0
 22 23  1  0
 22 21  2  0
 23 24  2  0
 24 16  1  0
 24 19  1  0
 25 14  1  0
 26 25  2  0
 27 28  1  0
 29 28  1  1
 29 30  1  0
 30 25  1  0
 31 33  1  0
 31 29  1  0
 32 31  2  0
M  END
$$$$
