YWS.pdb
     RDKit          3D

 33 35  0  0  1  0  0  0  0  0999 V2000
   21.8461  -28.9405   -9.7714 O   0  0  0  0  0  0  0  0  0  0  0  0
   22.5711  -29.8801   -9.0562 C   0  0  0  0  0  0  0  0  0  0  0  0
   23.9029  -29.6147   -8.7437 C   0  0  0  0  0  0  0  0  0  0  0  0
   24.6888  -30.4954   -8.0379 C   0  0  0  0  0  0  0  0  0  0  0  0
   24.1348  -31.7023   -7.6165 C   0  0  0  0  0  0  0  0  0  0  0  0
   25.0126  -32.6226   -6.8590 C   0  0  0  0  0  0  0  0  0  0  0  0
   25.8352  -33.4601   -7.8353 C   0  0  2  0  0  0  0  0  0  0  0  0
   24.9895  -34.4232   -8.5094 N   0  0  0  0  0  0  0  0  0  0  0  0
   26.9344  -34.1499   -7.1158 C   0  0  0  0  0  0  0  0  0  0  0  0
   26.7863  -35.3308   -6.6699 O   0  0  0  0  0  0  0  0  0  0  0  0
   22.8155  -31.9592   -7.9290 C   0  0  0  0  0  0  0  0  0  0  0  0
   22.0394  -31.0688   -8.6365 C   0  0  0  0  0  0  0  0  0  0  0  0
   28.2041  -33.5608   -6.8752 N   0  0  0  0  0  0  0  0  0  0  0  0
   29.2415  -34.2667   -6.1641 C   0  0  1  0  0  0  0  0  0  0  0  0
   30.5366  -33.5186   -6.3389 C   0  0  0  0  0  0  0  0  0  0  0  0
   31.6998  -34.3954   -5.9751 C   0  0  0  0  0  0  0  0  0  0  0  0
   32.4098  -35.2422   -6.8156 C   0  0  0  0  0  0  0  0  0  0  0  0
   33.3721  -35.8440   -6.0955 N   0  0  0  0  0  0  0  0  0  0  0  0
   33.3415  -35.4419   -4.8139 C   0  0  0  0  0  0  0  0  0  0  0  0
   34.0962  -35.7490   -3.6895 C   0  0  0  0  0  0  0  0  0  0  0  0
   33.7742  -35.1254   -2.4936 C   0  0  0  0  0  0  0  0  0  0  0  0
   32.7412  -34.2233   -2.3939 C   0  0  0  0  0  0  0  0  0  0  0  0
   32.0171  -33.9467   -3.5349 C   0  0  0  0  0  0  0  0  0  0  0  0
   32.2978  -34.5376   -4.7377 C   0  0  0  0  0  0  0  0  0  0  0  0
   28.9000  -34.5123   -4.7514 C   0  0  0  0  0  0  0  0  0  0  0  0
   28.1604  -33.6785   -4.1687 O   0  0  0  0  0  0  0  0  0  0  0  0
   26.9223  -35.5813   -1.3757 O   0  0  0  0  0  0  0  0  0  0  0  0
   27.4650  -35.3361   -2.6234 C   0  0  0  0  0  0  0  0  0  0  0  0
   28.8843  -35.9008   -2.7053 C   0  0  2  0  0  0  0  0  0  0  0  0
   29.3824  -35.6565   -4.0440 N   0  0  0  0  0  0  0  0  0  0  0  0
   28.8188  -37.3286   -2.3893 C   0  0  0  0  0  0  0  0  0  0  0  0
   28.9690  -38.1497   -3.3343 O   0  0  0  0  0  0  0  0  0  0  0  0
   28.6037  -37.8284   -1.1251 O   0  0  0  0  0  0  0  0  0  0  0  0
  2  1  1  0
  3  2  2  0
  4  3  1  0
  5 11  1  0
  5  4  2  0
  6  5  1  0
  7  6  1  0
  7  8  1  1
  9 13  1  0
  9  7  1  0
 10  9  2  0
 11 12  2  0
 12  2  1  0
 14 13  1  0
 14 15  1  1
 15 16  1  0
 16 17  2  0
 17 18  1  0
 19 18  1  0
 20 19  2  0
 21 20  1  0
 22 23  1  0
 22 21  2  0
 23 24  2  0
 24 16  1  0
 24 19  1  0
 25 14  1  0
 26 25  2  0
 27 28  1  0
 29 28  1  6
 29 30  1  0
 30 25  1  0
 31 33  1  0
 31 29  1  0
 32 31  2  0
M  END
$$$$
