YWS.pdb
     RDKit          3D

 33 35  0  0  1  0  0  0  0  0999 V2000
   24.6288  -18.6683  -23.5255 O   0  0  0  0  0  0  0  0  0  0  0  0
   23.8348  -19.1051  -22.4773 C   0  0  0  0  0  0  0  0  0  0  0  0
   22.7540  -19.9419  -22.7482 C   0  0  0  0  0  0  0  0  0  0  0  0
   21.9195  -20.4177  -21.7640 C   0  0  0  0  0  0  0  0  0  0  0  0
   22.1611  -20.0506  -20.4419 C   0  0  0  0  0  0  0  0  0  0  0  0
   21.2412  -20.5839  -19.4120 C   0  0  0  0  0  0  0  0  0  0  0  0
   21.9630  -21.6457  -18.5857 C   0  0  2  0  0  0  0  0  0  0  0  0
   22.1828  -22.8375  -19.3785 N   0  0  0  0  0  0  0  0  0  0  0  0
   21.1753  -21.9698  -17.3707 C   0  0  0  0  0  0  0  0  0  0  0  0
   20.1255  -22.6828  -17.4408 O   0  0  0  0  0  0  0  0  0  0  0  0
   23.2330  -19.2218  -20.1801 C   0  0  0  0  0  0  0  0  0  0  0  0
   24.0610  -18.7522  -21.1749 C   0  0  0  0  0  0  0  0  0  0  0  0
   21.5229  -21.5207  -16.0689 N   0  0  0  0  0  0  0  0  0  0  0  0
   20.7047  -21.8264  -14.9211 C   0  0  1  0  0  0  0  0  0  0  0  0
   21.5441  -21.6749  -13.6802 C   0  0  0  0  0  0  0  0  0  0  0  0
   20.7425  -22.0276  -12.4607 C   0  0  0  0  0  0  0  0  0  0  0  0
   20.0074  -23.1852  -12.2435 C   0  0  0  0  0  0  0  0  0  0  0  0
   19.4418  -23.1052  -11.0266 N   0  0  0  0  0  0  0  0  0  0  0  0
   19.7619  -21.9509  -10.4183 C   0  0  0  0  0  0  0  0  0  0  0  0
   19.4486  -21.3918   -9.1864 C   0  0  0  0  0  0  0  0  0  0  0  0
   19.9711  -20.1442   -8.8809 C   0  0  0  0  0  0  0  0  0  0  0  0
   20.7802  -19.4561   -9.7541 C   0  0  0  0  0  0  0  0  0  0  0  0
   21.0667  -20.0476  -10.9669 C   0  0  0  0  0  0  0  0  0  0  0  0
   20.5739  -21.2774  -11.3127 C   0  0  0  0  0  0  0  0  0  0  0  0
   19.4609  -21.0365  -14.8798 C   0  0  0  0  0  0  0  0  0  0  0  0
   19.5512  -19.7863  -14.9820 O   0  0  0  0  0  0  0  0  0  0  0  0
   15.7210  -22.8109  -14.7514 O   0  0  0  0  0  0  0  0  0  0  0  0
   15.8441  -21.5514  -15.3080 C   0  0  0  0  0  0  0  0  0  0  0  0
   17.0091  -20.7979  -14.6637 C   0  0  2  0  0  0  0  0  0  0  0  0
   18.1792  -21.6503  -14.7290 N   0  0  0  0  0  0  0  0  0  0  0  0
   16.6309  -20.4786  -13.2862 C   0  0  0  0  0  0  0  0  0  0  0  0
   17.1494  -21.1583  -12.3593 O   0  0  0  0  0  0  0  0  0  0  0  0
   15.7453  -19.4830  -12.9418 O   0  0  0  0  0  0  0  0  0  0  0  0
  2  1  1  0
  3  2  2  0
  4  3  1  0
  5 11  1  0
  5  4  2  0
  6  5  1  0
  7  6  1  0
  7  8  1  6
  9 13  1  0
  9  7  1  0
 10  9  2  0
 11 12  2  0
 12  2  1  0
 14 13  1  0
 14 15  1  1
 15 16  1  0
 16 17  2  0
 17 18  1  0
 19 18  1  0
 20 19  2  0
 21 20  1  0
 22 23  1  0
 22 21  2  0
 23 24  2  0
 24 16  1  0
 24 19  1  0
 25 14  1  0
 26 25  2  0
 27 28  1  0
 29 28  1  1
 29 30  1  0
 30 25  1  0
 31 33  1  0
 31 29  1  0
 32 31  2  0
M  END
$$$$
