PLW.pdb
     RDKit          3D

 30 32  0  0  1  0  0  0  0  0999 V2000
    7.8216  -19.5908   19.1005 N   0  0  0  0  0  0  0  0  0  0  0  0
    8.5355  -20.6481   19.7361 C   0  0  0  0  0  0  0  0  0  0  0  0
    8.0490  -20.7069   21.1473 C   0  0  0  0  0  0  0  0  0  0  0  0
    7.1088  -19.5438   21.3153 C   0  0  0  0  0  0  0  0  0  0  0  0
    7.3412  -18.6647   20.0778 C   0  0  1  0  0  0  0  0  0  0  0  0
    8.3078  -17.6252   20.4864 C   0  0  0  0  0  0  0  0  0  0  0  0
    9.5341  -17.8706   20.2369 O   0  0  0  0  0  0  0  0  0  0  0  0
    8.7489  -13.5556   18.8776 C   0  0  0  0  0  0  0  0  0  0  0  0
    7.6464  -13.8631   19.9176 C   0  0  2  0  0  0  0  0  0  0  0  0
    6.7841  -12.6213   20.0422 C   0  0  0  0  0  0  0  0  0  0  0  0
    8.3336  -14.0863   21.2330 C   0  0  0  0  0  0  0  0  0  0  0  0
    9.0641  -15.3795   21.3813 C   0  0  2  0  0  0  0  0  0  0  0  0
    8.0267  -16.4126   21.1115 N   0  0  0  0  0  0  0  0  0  0  0  0
    9.6569  -15.6226   22.7066 C   0  0  0  0  0  0  0  0  0  0  0  0
   10.6469  -14.8927   23.0462 O   0  0  0  0  0  0  0  0  0  0  0  0
    9.2361  -16.5800   23.6368 N   0  0  0  0  0  0  0  0  0  0  0  0
    9.8358  -16.7097   24.9743 C   0  0  1  0  0  0  0  0  0  0  0  0
    9.6658  -15.3950   25.6509 C   0  0  0  0  0  0  0  0  0  0  0  0
    8.2952  -14.9126   25.8506 C   0  0  0  0  0  0  0  0  0  0  0  0
    7.1655  -15.7241   25.7078 C   0  0  0  0  0  0  0  0  0  0  0  0
    6.0896  -14.9727   25.9274 N   0  0  0  0  0  0  0  0  0  0  0  0
    6.4267  -13.7069   26.2095 C   0  0  0  0  0  0  0  0  0  0  0  0
    5.6719  -12.5821   26.5181 C   0  0  0  0  0  0  0  0  0  0  0  0
    6.3610  -11.4197   26.7773 C   0  0  0  0  0  0  0  0  0  0  0  0
    7.7386  -11.3470   26.7394 C   0  0  0  0  0  0  0  0  0  0  0  0
    8.4628  -12.4682   26.4326 C   0  0  0  0  0  0  0  0  0  0  0  0
    7.8043  -13.6572   26.1647 C   0  0  0  0  0  0  0  0  0  0  0  0
    9.2767  -17.8572   25.6936 C   0  0  0  0  0  0  0  0  0  0  0  0
    9.7486  -18.3329   26.9061 O   0  0  0  0  0  0  0  0  0  0  0  0
    8.2820  -18.5233   25.2293 O   0  0  0  0  0  0  0  0  0  0  0  0
  1  2  1  0
  3  2  1  0
  4  5  1  0
  4  3  1  0
  5  1  1  0
  5  6  1  1
  7  6  2  0
  9  8  1  6
  9 11  1  0
 10  9  1  0
 12 11  1  1
 12 14  1  0
 12 13  1  0
 13  6  1  0
 14 15  2  0
 16 14  1  0
 16 17  1  0
 17 18  1  1
 19 18  1  0
 20 19  2  0
 21 20  1  0
 22 21  1  0
 22 27  2  0
 23 22  1  0
 24 23  2  0
 24 25  1  0
 25 26  2  0
 26 27  1  0
 27 19  1  0
 28 29  1  0
 28 17  1  0
 30 28  2  0
M  END
$$$$
