PLW.pdb
     RDKit          3D

 30 32  0  0  1  0  0  0  0  0999 V2000
    8.2954  -19.3783   19.2089 N   0  0  0  0  0  0  0  0  0  0  0  0
    7.3111  -19.0354   18.2368 C   0  0  0  0  0  0  0  0  0  0  0  0
    8.0407  -18.7828   16.9579 C   0  0  0  0  0  0  0  0  0  0  0  0
    9.5064  -18.8789   17.2854 C   0  0  0  0  0  0  0  0  0  0  0  0
    9.5711  -18.8640   18.8197 C   0  0  1  0  0  0  0  0  0  0  0  0
    9.8280  -17.4620   19.2076 C   0  0  0  0  0  0  0  0  0  0  0  0
   10.9674  -16.9902   18.8833 O   0  0  0  0  0  0  0  0  0  0  0  0
    8.5783  -12.6593   19.5649 C   0  0  0  0  0  0  0  0  0  0  0  0
    7.5564  -13.7823   19.8585 C   0  0  2  0  0  0  0  0  0  0  0  0
    6.3166  -13.1254   20.4352 C   0  0  0  0  0  0  0  0  0  0  0  0
    8.1571  -14.6557   20.9209 C   0  0  0  0  0  0  0  0  0  0  0  0
    9.4237  -15.3565   20.5565 C   0  0  2  0  0  0  0  0  0  0  0  0
    8.9653  -16.6042   19.8859 N   0  0  0  0  0  0  0  0  0  0  0  0
   10.2998  -15.7074   21.6861 C   0  0  0  0  0  0  0  0  0  0  0  0
   11.4448  -15.1459   21.7333 O   0  0  0  0  0  0  0  0  0  0  0  0
    9.9965  -16.5998   22.7208 N   0  0  0  0  0  0  0  0  0  0  0  0
   10.5567  -16.4702   24.0753 C   0  0  1  0  0  0  0  0  0  0  0  0
    9.4057  -16.4760   25.0188 C   0  0  0  0  0  0  0  0  0  0  0  0
    9.7095  -16.4107   26.4521 C   0  0  0  0  0  0  0  0  0  0  0  0
   10.1462  -17.5106   27.1969 C   0  0  0  0  0  0  0  0  0  0  0  0
   10.2987  -17.1176   28.4590 N   0  0  0  0  0  0  0  0  0  0  0  0
    9.9922  -15.8217   28.6079 C   0  0  0  0  0  0  0  0  0  0  0  0
   10.0095  -14.9746   29.7089 C   0  0  0  0  0  0  0  0  0  0  0  0
    9.6426  -13.6658   29.4955 C   0  0  0  0  0  0  0  0  0  0  0  0
    9.2702  -13.1902   28.2547 C   0  0  0  0  0  0  0  0  0  0  0  0
    9.2600  -14.0430   27.1831 C   0  0  0  0  0  0  0  0  0  0  0  0
    9.6224  -15.3685   27.3589 C   0  0  0  0  0  0  0  0  0  0  0  0
   11.5725  -17.4960   24.3260 C   0  0  0  0  0  0  0  0  0  0  0  0
   12.6080  -17.3729   25.2378 O   0  0  0  0  0  0  0  0  0  0  0  0
   11.5728  -18.6123   23.6916 O   0  0  0  0  0  0  0  0  0  0  0  0
  1  2  1  0
  3  2  1  0
  4  5  1  0
  4  3  1  0
  5  1  1  0
  5  6  1  1
  7  6  2  0
  9  8  1  1
  9 11  1  0
 10  9  1  0
 12 11  1  1
 12 14  1  0
 12 13  1  0
 13  6  1  0
 14 15  2  0
 16 14  1  0
 16 17  1  0
 17 18  1  1
 19 18  1  0
 20 19  2  0
 21 20  1  0
 22 21  1  0
 22 27  2  0
 23 22  1  0
 24 23  2  0
 24 25  1  0
 25 26  2  0
 26 27  1  0
 27 19  1  0
 28 29  1  0
 28 17  1  0
 30 28  2  0
M  END
$$$$
