PLW.pdb
     RDKit          3D

 30 32  0  0  1  0  0  0  0  0999 V2000
    7.7004  -18.8554   20.2600 N   0  0  0  0  0  0  0  0  0  0  0  0
    6.9386  -18.4017   19.1441 C   0  0  0  0  0  0  0  0  0  0  0  0
    7.9027  -18.1944   18.0219 C   0  0  0  0  0  0  0  0  0  0  0  0
    9.2726  -18.4355   18.5963 C   0  0  0  0  0  0  0  0  0  0  0  0
    9.0659  -18.4569   20.1179 C   0  0  1  0  0  0  0  0  0  0  0  0
    9.3750  -17.0934   20.5949 C   0  0  0  0  0  0  0  0  0  0  0  0
   10.5945  -16.7312   20.5059 O   0  0  0  0  0  0  0  0  0  0  0  0
    8.9922  -13.4618   19.2433 C   0  0  0  0  0  0  0  0  0  0  0  0
    7.6859  -13.8565   19.9708 C   0  0  2  0  0  0  0  0  0  0  0  0
    6.6796  -12.7481   19.7254 C   0  0  0  0  0  0  0  0  0  0  0  0
    7.9936  -13.8887   21.4393 C   0  0  0  0  0  0  0  0  0  0  0  0
    8.9231  -14.9653   21.8922 C   0  0  2  0  0  0  0  0  0  0  0  0
    8.4838  -16.1656   21.1287 N   0  0  0  0  0  0  0  0  0  0  0  0
    8.8871  -15.2673   23.3324 C   0  0  0  0  0  0  0  0  0  0  0  0
    8.1934  -14.4945   24.0739 O   0  0  0  0  0  0  0  0  0  0  0  0
    9.5411  -16.3273   23.9709 N   0  0  0  0  0  0  0  0  0  0  0  0
   10.1969  -16.1866   25.2806 C   0  0  1  0  0  0  0  0  0  0  0  0
    9.1332  -16.3305   26.3116 C   0  0  0  0  0  0  0  0  0  0  0  0
    7.9369  -15.4947   26.1662 C   0  0  0  0  0  0  0  0  0  0  0  0
    6.7451  -15.9501   25.5941 C   0  0  0  0  0  0  0  0  0  0  0  0
    5.8794  -14.9397   25.5891 N   0  0  0  0  0  0  0  0  0  0  0  0
    6.4157  -13.8339   26.1231 C   0  0  0  0  0  0  0  0  0  0  0  0
    5.9091  -12.5596   26.3457 C   0  0  0  0  0  0  0  0  0  0  0  0
    6.7488  -11.6502   26.9468 C   0  0  0  0  0  0  0  0  0  0  0  0
    8.0395  -11.9636   27.3214 C   0  0  0  0  0  0  0  0  0  0  0  0
    8.5184  -13.2260   27.0921 C   0  0  0  0  0  0  0  0  0  0  0  0
    7.7027  -14.1690   26.4882 C   0  0  0  0  0  0  0  0  0  0  0  0
   11.3201  -17.1186   25.4106 C   0  0  0  0  0  0  0  0  0  0  0  0
   12.1543  -17.1979   26.5137 O   0  0  0  0  0  0  0  0  0  0  0  0
   11.6186  -17.9476   24.4766 O   0  0  0  0  0  0  0  0  0  0  0  0
  1  2  1  0
  3  2  1  0
  4  5  1  0
  4  3  1  0
  5  1  1  0
  5  6  1  6
  7  6  2  0
  9  8  1  6
  9 11  1  0
 10  9  1  0
 12 11  1  1
 12 14  1  0
 12 13  1  0
 13  6  1  0
 14 15  2  0
 16 14  1  0
 16 17  1  0
 17 18  1  1
 19 18  1  0
 20 19  2  0
 21 20  1  0
 22 21  1  0
 22 27  2  0
 23 22  1  0
 24 23  2  0
 24 25  1  0
 25 26  2  0
 26 27  1  0
 27 19  1  0
 28 29  1  0
 28 17  1  0
 30 28  2  0
M  END
$$$$
