PLW.pdb
     RDKit          3D

 30 32  0  0  1  0  0  0  0  0999 V2000
    7.9304  -19.0801   20.2441 N   0  0  0  0  0  0  0  0  0  0  0  0
    7.3673  -18.6896   18.9944 C   0  0  0  0  0  0  0  0  0  0  0  0
    8.4932  -18.6369   18.0140 C   0  0  0  0  0  0  0  0  0  0  0  0
    9.7482  -18.8976   18.8026 C   0  0  0  0  0  0  0  0  0  0  0  0
    9.3255  -18.7696   20.2734 C   0  0  1  0  0  0  0  0  0  0  0  0
    9.6528  -17.3869   20.6773 C   0  0  0  0  0  0  0  0  0  0  0  0
   10.8332  -16.9880   20.4060 O   0  0  0  0  0  0  0  0  0  0  0  0
    8.5449  -13.5226   19.4039 C   0  0  0  0  0  0  0  0  0  0  0  0
    7.5133  -14.2057   20.3317 C   0  0  2  0  0  0  0  0  0  0  0  0
    6.2970  -13.3014   20.3979 C   0  0  0  0  0  0  0  0  0  0  0  0
    8.1250  -14.2636   21.7010 C   0  0  0  0  0  0  0  0  0  0  0  0
    9.2967  -15.1748   21.8588 C   0  0  2  0  0  0  0  0  0  0  0  0
    8.8164  -16.4765   21.3191 N   0  0  0  0  0  0  0  0  0  0  0  0
    9.7667  -15.3671   23.2405 C   0  0  0  0  0  0  0  0  0  0  0  0
   10.4633  -14.4304   23.7559 O   0  0  0  0  0  0  0  0  0  0  0  0
    9.5201  -16.4823   24.0495 N   0  0  0  0  0  0  0  0  0  0  0  0
   10.0698  -16.6194   25.4075 C   0  0  1  0  0  0  0  0  0  0  0  0
    8.9088  -16.6978   26.3353 C   0  0  0  0  0  0  0  0  0  0  0  0
    7.8165  -15.7409   26.1297 C   0  0  0  0  0  0  0  0  0  0  0  0
    6.5329  -16.1148   25.7203 C   0  0  0  0  0  0  0  0  0  0  0  0
    5.8012  -15.0098   25.6022 N   0  0  0  0  0  0  0  0  0  0  0  0
    6.5136  -13.9168   25.9077 C   0  0  0  0  0  0  0  0  0  0  0  0
    6.1891  -12.5665   25.9460 C   0  0  0  0  0  0  0  0  0  0  0  0
    7.1830  -11.6962   26.3306 C   0  0  0  0  0  0  0  0  0  0  0  0
    8.4526  -12.1188   26.6682 C   0  0  0  0  0  0  0  0  0  0  0  0
    8.7507  -13.4548   26.6230 C   0  0  0  0  0  0  0  0  0  0  0  0
    7.7762  -14.3617   26.2396 C   0  0  0  0  0  0  0  0  0  0  0  0
   11.0066  -17.7434   25.4860 C   0  0  0  0  0  0  0  0  0  0  0  0
   11.3018  -18.5975   24.4361 O   0  0  0  0  0  0  0  0  0  0  0  0
   11.6326  -18.0234   26.5715 O   0  0  0  0  0  0  0  0  0  0  0  0
  1  2  1  0
  3  2  1  0
  4  5  1  0
  4  3  1  0
  5  1  1  0
  5  6  1  6
  7  6  2  0
  9  8  1  6
  9 11  1  0
 10  9  1  0
 12 11  1  1
 12 14  1  0
 12 13  1  0
 13  6  1  0
 14 15  2  0
 16 14  1  0
 16 17  1  0
 17 18  1  1
 19 18  1  0
 20 19  2  0
 21 20  1  0
 22 21  1  0
 22 27  2  0
 23 22  1  0
 24 23  2  0
 24 25  1  0
 25 26  2  0
 26 27  1  0
 27 19  1  0
 28 29  1  0
 28 17  1  0
 30 28  2  0
M  END
$$$$
