PLW.pdb
     RDKit          3D

 30 32  0  0  1  0  0  0  0  0999 V2000
    8.3283  -18.9348   20.1423 N   0  0  0  0  0  0  0  0  0  0  0  0
    7.9311  -18.6021   18.8145 C   0  0  0  0  0  0  0  0  0  0  0  0
    9.1789  -18.5428   17.9953 C   0  0  0  0  0  0  0  0  0  0  0  0
   10.3208  -18.7374   18.9561 C   0  0  0  0  0  0  0  0  0  0  0  0
    9.6968  -18.5778   20.3502 C   0  0  1  0  0  0  0  0  0  0  0  0
    9.9263  -17.1732   20.7459 C   0  0  0  0  0  0  0  0  0  0  0  0
   11.0760  -16.6941   20.4723 O   0  0  0  0  0  0  0  0  0  0  0  0
    8.8784  -13.4247   19.4975 C   0  0  0  0  0  0  0  0  0  0  0  0
    7.7610  -14.0666   20.3524 C   0  0  2  0  0  0  0  0  0  0  0  0
    6.5718  -13.1252   20.3219 C   0  0  0  0  0  0  0  0  0  0  0  0
    8.2688  -14.1291   21.7633 C   0  0  0  0  0  0  0  0  0  0  0  0
    9.4354  -15.0292   22.0022 C   0  0  2  0  0  0  0  0  0  0  0  0
    9.0278  -16.3199   21.3822 N   0  0  0  0  0  0  0  0  0  0  0  0
    9.7790  -15.2576   23.4152 C   0  0  0  0  0  0  0  0  0  0  0  0
   10.2218  -14.2604   24.0770 O   0  0  0  0  0  0  0  0  0  0  0  0
    9.6640  -16.4682   24.1082 N   0  0  0  0  0  0  0  0  0  0  0  0
   10.0828  -16.6274   25.5098 C   0  0  1  0  0  0  0  0  0  0  0  0
    8.8428  -16.8211   26.3097 C   0  0  0  0  0  0  0  0  0  0  0  0
    7.7905  -15.8081   26.1768 C   0  0  0  0  0  0  0  0  0  0  0  0
    6.5373  -16.0698   25.6146 C   0  0  0  0  0  0  0  0  0  0  0  0
    5.8401  -14.9364   25.6195 N   0  0  0  0  0  0  0  0  0  0  0  0
    6.5473  -13.9299   26.1508 C   0  0  0  0  0  0  0  0  0  0  0  0
    6.2481  -12.5928   26.3805 C   0  0  0  0  0  0  0  0  0  0  0  0
    7.2249  -11.8279   26.9756 C   0  0  0  0  0  0  0  0  0  0  0  0
    8.4539  -12.3404   27.3379 C   0  0  0  0  0  0  0  0  0  0  0  0
    8.7275  -13.6613   27.1018 C   0  0  0  0  0  0  0  0  0  0  0  0
    7.7693  -14.4632   26.5035 C   0  0  0  0  0  0  0  0  0  0  0  0
   11.0824  -17.6904   25.6437 C   0  0  0  0  0  0  0  0  0  0  0  0
   11.7457  -18.0045   26.8186 O   0  0  0  0  0  0  0  0  0  0  0  0
   11.4250  -18.4220   24.6456 O   0  0  0  0  0  0  0  0  0  0  0  0
  1  2  1  0
  3  2  1  0
  4  5  1  0
  4  3  1  0
  5  1  1  0
  5  6  1  6
  7  6  2  0
  9  8  1  6
  9 11  1  0
 10  9  1  0
 12 11  1  1
 12 14  1  0
 12 13  1  0
 13  6  1  0
 14 15  2  0
 16 14  1  0
 16 17  1  0
 17 18  1  1
 19 18  1  0
 20 19  2  0
 21 20  1  0
 22 21  1  0
 22 27  2  0
 23 22  1  0
 24 23  2  0
 24 25  1  0
 25 26  2  0
 26 27  1  0
 27 19  1  0
 28 29  1  0
 28 17  1  0
 30 28  2  0
M  END
$$$$
