PLW.pdb
     RDKit          3D

 30 32  0  0  1  0  0  0  0  0999 V2000
    7.4196  -17.3583   19.6422 N   0  0  0  0  0  0  0  0  0  0  0  0
    8.6964  -17.7473   19.1423 C   0  0  0  0  0  0  0  0  0  0  0  0
    9.3332  -18.5888   20.1995 C   0  0  0  0  0  0  0  0  0  0  0  0
    8.4008  -18.5549   21.3804 C   0  0  0  0  0  0  0  0  0  0  0  0
    7.4100  -17.4233   21.0702 C   0  0  1  0  0  0  0  0  0  0  0  0
    7.9279  -16.2224   21.7570 C   0  0  0  0  0  0  0  0  0  0  0  0
    9.0765  -15.8140   21.3827 O   0  0  0  0  0  0  0  0  0  0  0  0
    6.1630  -12.3786   26.2025 C   0  0  0  0  0  0  0  0  0  0  0  0
    7.4187  -12.8711   25.4459 C   0  0  2  0  0  0  0  0  0  0  0  0
    7.9261  -11.7114   24.6100 C   0  0  0  0  0  0  0  0  0  0  0  0
    6.9706  -13.9569   24.5119 C   0  0  0  0  0  0  0  0  0  0  0  0
    8.0447  -14.6287   23.7223 C   0  0  2  0  0  0  0  0  0  0  0  0
    7.3012  -15.4919   22.7638 N   0  0  0  0  0  0  0  0  0  0  0  0
    8.9761  -15.4606   24.5015 C   0  0  0  0  0  0  0  0  0  0  0  0
    8.7038  -15.6435   25.7348 O   0  0  0  0  0  0  0  0  0  0  0  0
   10.1363  -16.0764   24.0181 N   0  0  0  0  0  0  0  0  0  0  0  0
   11.4627  -15.8600   24.6173 C   0  0  1  0  0  0  0  0  0  0  0  0
   11.6824  -16.9679   25.5865 C   0  0  0  0  0  0  0  0  0  0  0  0
   10.9260  -16.9241   26.8423 C   0  0  0  0  0  0  0  0  0  0  0  0
   10.2653  -18.0322   27.3815 C   0  0  0  0  0  0  0  0  0  0  0  0
    9.6581  -17.6441   28.5001 N   0  0  0  0  0  0  0  0  0  0  0  0
    9.8707  -16.3442   28.7459 C   0  0  0  0  0  0  0  0  0  0  0  0
    9.4651  -15.5065   29.7775 C   0  0  0  0  0  0  0  0  0  0  0  0
    9.8905  -14.1991   29.7238 C   0  0  0  0  0  0  0  0  0  0  0  0
   10.6844  -13.7161   28.7035 C   0  0  0  0  0  0  0  0  0  0  0  0
   11.0721  -14.5595   27.6966 C   0  0  0  0  0  0  0  0  0  0  0  0
   10.6629  -15.8829   27.7156 C   0  0  0  0  0  0  0  0  0  0  0  0
   12.4922  -15.7238   23.5836 C   0  0  0  0  0  0  0  0  0  0  0  0
   13.8255  -15.4418   23.8321 O   0  0  0  0  0  0  0  0  0  0  0  0
   12.2158  -15.8559   22.3367 O   0  0  0  0  0  0  0  0  0  0  0  0
  1  2  1  0
  3  2  1  0
  4  5  1  0
  4  3  1  0
  5  1  1  0
  5  6  1  1
  7  6  2  0
  9  8  1  6
  9 11  1  0
 10  9  1  0
 12 11  1  1
 12 14  1  0
 12 13  1  0
 13  6  1  0
 14 15  2  0
 16 14  1  0
 16 17  1  0
 17 18  1  1
 19 18  1  0
 20 19  2  0
 21 20  1  0
 22 21  1  0
 22 27  2  0
 23 22  1  0
 24 23  2  0
 24 25  1  0
 25 26  2  0
 26 27  1  0
 27 19  1  0
 28 29  1  0
 28 17  1  0
 30 28  2  0
M  END
$$$$
