PLW.pdb
     RDKit          3D

 30 32  0  0  1  0  0  0  0  0999 V2000
    7.2437  -17.9928   20.7326 N   0  0  0  0  0  0  0  0  0  0  0  0
    6.0626  -17.5223   20.0884 C   0  0  0  0  0  0  0  0  0  0  0  0
    6.5074  -16.7101   18.9162 C   0  0  0  0  0  0  0  0  0  0  0  0
    8.0084  -16.6403   19.0000 C   0  0  0  0  0  0  0  0  0  0  0  0
    8.3504  -17.1480   20.4084 C   0  0  1  0  0  0  0  0  0  0  0  0
    8.4930  -15.9467   21.2562 C   0  0  0  0  0  0  0  0  0  0  0  0
    9.4066  -15.1250   20.9153 O   0  0  0  0  0  0  0  0  0  0  0  0
    5.9260  -13.6752   26.3493 C   0  0  0  0  0  0  0  0  0  0  0  0
    7.1886  -13.5440   25.4661 C   0  0  2  0  0  0  0  0  0  0  0  0
    7.2025  -12.1348   24.9044 C   0  0  0  0  0  0  0  0  0  0  0  0
    7.0244  -14.4997   24.3207 C   0  0  0  0  0  0  0  0  0  0  0  0
    8.1752  -14.5953   23.3748 C   0  0  2  0  0  0  0  0  0  0  0  0
    7.7417  -15.6160   22.3815 N   0  0  0  0  0  0  0  0  0  0  0  0
    9.4530  -15.0141   23.9737 C   0  0  0  0  0  0  0  0  0  0  0  0
   10.0858  -14.1477   24.6646 O   0  0  0  0  0  0  0  0  0  0  0  0
   10.0434  -16.2781   23.8610 N   0  0  0  0  0  0  0  0  0  0  0  0
   10.9700  -16.8181   24.8684 C   0  0  1  0  0  0  0  0  0  0  0  0
   10.1342  -17.3707   25.9689 C   0  0  0  0  0  0  0  0  0  0  0  0
   10.4248  -16.9115   27.3311 C   0  0  0  0  0  0  0  0  0  0  0  0
   10.7962  -17.7708   28.3698 C   0  0  0  0  0  0  0  0  0  0  0  0
   10.9545  -17.0402   29.4706 N   0  0  0  0  0  0  0  0  0  0  0  0
   10.7131  -15.7433   29.2353 C   0  0  0  0  0  0  0  0  0  0  0  0
   10.7615  -14.6181   30.0488 C   0  0  0  0  0  0  0  0  0  0  0  0
   10.4646  -13.4098   29.4612 C   0  0  0  0  0  0  0  0  0  0  0  0
   10.1310  -13.2930   28.1272 C   0  0  0  0  0  0  0  0  0  0  0  0
   10.0891  -14.4157   27.3439 C   0  0  0  0  0  0  0  0  0  0  0  0
   10.3810  -15.6505   27.9000 C   0  0  0  0  0  0  0  0  0  0  0  0
   11.9108  -17.7656   24.2651 C   0  0  0  0  0  0  0  0  0  0  0  0
   11.7511  -18.3487   23.0187 O   0  0  0  0  0  0  0  0  0  0  0  0
   12.9788  -18.1346   24.8750 O   0  0  0  0  0  0  0  0  0  0  0  0
  1  2  1  0
  3  2  1  0
  4  5  1  0
  4  3  1  0
  5  1  1  0
  5  6  1  1
  7  6  2  0
  9  8  1  1
  9 11  1  0
 10  9  1  0
 12 11  1  1
 12 14  1  0
 12 13  1  0
 13  6  1  0
 14 15  2  0
 16 14  1  0
 16 17  1  0
 17 18  1  1
 19 18  1  0
 20 19  2  0
 21 20  1  0
 22 21  1  0
 22 27  2  0
 23 22  1  0
 24 23  2  0
 24 25  1  0
 25 26  2  0
 26 27  1  0
 27 19  1  0
 28 29  1  0
 28 17  1  0
 30 28  2  0
M  END
$$$$
