QNA.pdb
     RDKit          3D

 23 22  0  0  1  0  0  0  0  0999 V2000
    6.6419  -17.2099   16.9094 N   0  0  0  0  0  0  0  0  0  0  0  0
    7.3016  -15.9903   16.6049 C   0  0  0  0  0  0  0  0  0  0  0  0
    7.3814  -15.5889   15.4163 O   0  0  0  0  0  0  0  0  0  0  0  0
    7.9004  -15.1785   17.6658 C   0  0  0  0  0  0  0  0  0  0  0  0
    7.6356  -15.7377   19.0488 C   0  0  0  0  0  0  0  0  0  0  0  0
    8.2403  -14.7574   20.0269 C   0  0  2  0  0  0  0  0  0  0  0  0
    9.6748  -14.7905   19.8128 N   0  0  0  0  0  0  0  0  0  0  0  0
    7.9280  -15.0650   21.4245 C   0  0  0  0  0  0  0  0  0  0  0  0
    6.7634  -15.0532   21.9055 O   0  0  0  0  0  0  0  0  0  0  0  0
    8.8821  -19.0232   23.4041 N   0  0  0  0  0  0  0  0  0  0  0  0
    9.7670  -17.9038   23.3371 C   0  0  0  0  0  0  0  0  0  0  0  0
   10.6502  -17.9650   22.4550 O   0  0  0  0  0  0  0  0  0  0  0  0
    9.6569  -16.7485   24.2408 C   0  0  0  0  0  0  0  0  0  0  0  0
    8.7786  -15.6384   23.7494 C   0  0  2  0  0  0  0  0  0  0  0  0
    8.9811  -15.4006   22.3152 N   0  0  0  0  0  0  0  0  0  0  0  0
    8.8420  -14.3965   24.5190 C   0  0  0  0  0  0  0  0  0  0  0  0
    9.8418  -13.6619   24.6767 O   0  0  0  0  0  0  0  0  0  0  0  0
    6.2070  -12.2441   26.0336 C   0  0  0  0  0  0  0  0  0  0  0  0
    7.6126  -12.8164   26.0592 C   0  0  2  0  0  0  0  0  0  0  0  0
    7.6490  -13.9562   25.1668 N   0  0  0  0  0  0  0  0  0  0  0  0
    7.9939  -13.2794   27.4082 C   0  0  0  0  0  0  0  0  0  0  0  0
    8.2329  -12.4086   28.4598 O   0  0  0  0  0  0  0  0  0  0  0  0
    8.1120  -14.5025   27.6351 O   0  0  0  0  0  0  0  0  0  0  0  0
  2  1  1  0
  2  4  1  0
  3  2  2  0
  5  4  1  0
  6  5  1  0
  6  7  1  1
  8  6  1  0
  8  9  2  0
 10 11  1  0
 11 13  1  0
 11 12  2  0
 14 13  1  1
 14 16  1  0
 14 15  1  0
 15  8  1  0
 16 20  1  0
 17 16  2  0
 19 18  1  1
 19 21  1  0
 20 19  1  0
 21 23  2  0
 21 22  1  0
M  END
$$$$
