QNA.pdb
     RDKit          3D

 23 22  0  0  1  0  0  0  0  0999 V2000
    6.9608  -22.3751   24.1199 N   0  0  0  0  0  0  0  0  0  0  0  0
    5.6715  -21.8207   24.3333 C   0  0  0  0  0  0  0  0  0  0  0  0
    4.7285  -22.5420   24.7466 O   0  0  0  0  0  0  0  0  0  0  0  0
    5.4152  -20.4023   24.0772 C   0  0  0  0  0  0  0  0  0  0  0  0
    6.6320  -19.6770   23.5397 C   0  0  0  0  0  0  0  0  0  0  0  0
    6.9811  -18.6183   24.5599 C   0  0  2  0  0  0  0  0  0  0  0  0
    5.7316  -17.9956   24.9545 N   0  0  0  0  0  0  0  0  0  0  0  0
    7.9136  -17.6090   24.0526 C   0  0  0  0  0  0  0  0  0  0  0  0
    8.9629  -17.8790   23.4092 O   0  0  0  0  0  0  0  0  0  0  0  0
    7.4106  -14.5325   20.5720 N   0  0  0  0  0  0  0  0  0  0  0  0
    7.0266  -14.6719   21.9408 C   0  0  0  0  0  0  0  0  0  0  0  0
    5.9578  -15.2874   22.1423 O   0  0  0  0  0  0  0  0  0  0  0  0
    7.8273  -14.1312   23.0499 C   0  0  0  0  0  0  0  0  0  0  0  0
    8.5501  -15.1556   23.8704 C   0  0  2  0  0  0  0  0  0  0  0  0
    7.6453  -16.2345   24.2846 N   0  0  0  0  0  0  0  0  0  0  0  0
    9.3202  -14.6314   24.9977 C   0  0  0  0  0  0  0  0  0  0  0  0
   10.3451  -13.9171   24.9388 O   0  0  0  0  0  0  0  0  0  0  0  0
    8.8281  -13.5560   28.2635 C   0  0  0  0  0  0  0  0  0  0  0  0
    9.6181  -14.6076   27.5060 C   0  0  2  0  0  0  0  0  0  0  0  0
    8.8733  -14.9555   26.3139 N   0  0  0  0  0  0  0  0  0  0  0  0
    9.8051  -15.8360   28.3034 C   0  0  0  0  0  0  0  0  0  0  0  0
   10.5560  -15.8666   29.4679 O   0  0  0  0  0  0  0  0  0  0  0  0
    9.2735  -16.9043   27.9326 O   0  0  0  0  0  0  0  0  0  0  0  0
  2  1  1  0
  2  4  1  0
  3  2  2  0
  5  4  1  0
  6  5  1  0
  6  7  1  6
  8  6  1  0
  8  9  2  0
 10 11  1  0
 11 13  1  0
 11 12  2  0
 14 13  1  1
 14 16  1  0
 14 15  1  0
 15  8  1  0
 16 20  1  0
 17 16  2  0
 19 18  1  1
 19 21  1  0
 20 19  1  0
 21 23  2  0
 21 22  1  0
M  END
$$$$
