QNA.pdb
     RDKit          3D

 23 22  0  0  1  0  0  0  0  0999 V2000
    7.3235  -12.6313   17.7779 N   0  0  0  0  0  0  0  0  0  0  0  0
    7.9877  -13.8000   17.3215 C   0  0  0  0  0  0  0  0  0  0  0  0
    8.2380  -13.9539   16.0992 O   0  0  0  0  0  0  0  0  0  0  0  0
    8.3930  -14.8458   18.2622 C   0  0  0  0  0  0  0  0  0  0  0  0
    7.8909  -14.5923   19.6690 C   0  0  0  0  0  0  0  0  0  0  0  0
    9.0385  -14.9202   20.5957 C   0  0  2  0  0  0  0  0  0  0  0  0
    9.6981  -16.0872   20.0411 N   0  0  0  0  0  0  0  0  0  0  0  0
    8.6150  -15.1827   21.9731 C   0  0  0  0  0  0  0  0  0  0  0  0
    7.6473  -14.6036   22.5355 O   0  0  0  0  0  0  0  0  0  0  0  0
   10.3240  -19.5570   22.9955 N   0  0  0  0  0  0  0  0  0  0  0  0
    9.2989  -18.8373   23.6825 C   0  0  0  0  0  0  0  0  0  0  0  0
    8.1294  -19.2170   23.4589 O   0  0  0  0  0  0  0  0  0  0  0  0
    9.5872  -17.7209   24.5957 C   0  0  0  0  0  0  0  0  0  0  0  0
    9.0436  -16.3921   24.1665 C   0  0  2  0  0  0  0  0  0  0  0  0
    9.3185  -16.1429   22.7464 N   0  0  0  0  0  0  0  0  0  0  0  0
    9.4285  -15.2543   25.0008 C   0  0  0  0  0  0  0  0  0  0  0  0
   10.5679  -14.7483   25.1001 O   0  0  0  0  0  0  0  0  0  0  0  0
    7.3700  -12.7487   26.8410 C   0  0  0  0  0  0  0  0  0  0  0  0
    8.6697  -13.5126   26.6656 C   0  0  2  0  0  0  0  0  0  0  0  0
    8.4132  -14.6398   25.7936 N   0  0  0  0  0  0  0  0  0  0  0  0
    9.1794  -14.0341   27.9493 C   0  0  0  0  0  0  0  0  0  0  0  0
    9.7689  -13.2234   28.9066 O   0  0  0  0  0  0  0  0  0  0  0  0
    9.0860  -15.2535   28.2056 O   0  0  0  0  0  0  0  0  0  0  0  0
  2  1  1  0
  2  4  1  0
  3  2  2  0
  5  4  1  0
  6  5  1  0
  6  7  1  6
  8  6  1  0
  8  9  2  0
 10 11  1  0
 11 13  1  0
 11 12  2  0
 14 13  1  1
 14 16  1  0
 14 15  1  0
 15  8  1  0
 16 20  1  0
 17 16  2  0
 19 18  1  1
 19 21  1  0
 20 19  1  0
 21 23  2  0
 21 22  1  0
M  END
$$$$
