QNA.pdb
     RDKit          3D

 23 22  0  0  1  0  0  0  0  0999 V2000
   10.1642  -13.4149   20.0006 N   0  0  0  0  0  0  0  0  0  0  0  0
    9.1580  -13.0608   19.0638 C   0  0  0  0  0  0  0  0  0  0  0  0
    9.4599  -12.8088   17.8698 O   0  0  0  0  0  0  0  0  0  0  0  0
    7.7534  -12.9822   19.4684 C   0  0  0  0  0  0  0  0  0  0  0  0
    7.5548  -13.2579   20.9449 C   0  0  0  0  0  0  0  0  0  0  0  0
    7.7354  -14.7470   21.1275 C   0  0  2  0  0  0  0  0  0  0  0  0
    6.8823  -15.3910   20.1467 N   0  0  0  0  0  0  0  0  0  0  0  0
    7.3995  -15.2111   22.4756 C   0  0  0  0  0  0  0  0  0  0  0  0
    6.2763  -15.0396   23.0205 O   0  0  0  0  0  0  0  0  0  0  0  0
    6.4257  -18.2028   26.8605 N   0  0  0  0  0  0  0  0  0  0  0  0
    7.6839  -18.1701   26.1848 C   0  0  0  0  0  0  0  0  0  0  0  0
    8.6647  -18.5677   26.8493 O   0  0  0  0  0  0  0  0  0  0  0  0
    7.8294  -17.7014   24.7982 C   0  0  0  0  0  0  0  0  0  0  0  0
    8.1957  -16.2559   24.6508 C   0  0  2  0  0  0  0  0  0  0  0  0
    8.3788  -15.8990   23.2389 N   0  0  0  0  0  0  0  0  0  0  0  0
    9.3161  -15.8025   25.4741 C   0  0  0  0  0  0  0  0  0  0  0  0
   10.5178  -16.1258   25.3495 O   0  0  0  0  0  0  0  0  0  0  0  0
    9.5982  -13.0738   27.9965 C   0  0  0  0  0  0  0  0  0  0  0  0
   10.0436  -14.4222   27.4606 C   0  0  2  0  0  0  0  0  0  0  0  0
    9.0324  -14.8941   26.5378 N   0  0  0  0  0  0  0  0  0  0  0  0
   10.1837  -15.4232   28.5367 C   0  0  0  0  0  0  0  0  0  0  0  0
   11.2463  -15.4231   29.4267 O   0  0  0  0  0  0  0  0  0  0  0  0
    9.3207  -16.3169   28.6702 O   0  0  0  0  0  0  0  0  0  0  0  0
  2  1  1  0
  2  4  1  0
  3  2  2  0
  5  4  1  0
  6  5  1  0
  6  7  1  6
  8  6  1  0
  8  9  2  0
 10 11  1  0
 11 13  1  0
 11 12  2  0
 14 13  1  6
 14 16  1  0
 14 15  1  0
 15  8  1  0
 16 20  1  0
 17 16  2  0
 19 18  1  1
 19 21  1  0
 20 19  1  0
 21 23  2  0
 21 22  1  0
M  END
$$$$
