QNA.pdb
     RDKit          3D

 23 22  0  0  1  0  0  0  0  0999 V2000
   16.9284  -13.6093   16.8117 N   0  0  0  0  0  0  0  0  0  0  0  0
   16.0889  -14.7456   16.9509 C   0  0  0  0  0  0  0  0  0  0  0  0
   16.5157  -15.7882   17.5087 O   0  0  0  0  0  0  0  0  0  0  0  0
   14.7139  -14.7259   16.4491 C   0  0  0  0  0  0  0  0  0  0  0  0
   13.7667  -13.9847   17.3705 C   0  0  0  0  0  0  0  0  0  0  0  0
   13.2581  -15.0019   18.3654 C   0  0  2  0  0  0  0  0  0  0  0  0
   12.7860  -16.1359   17.5935 N   0  0  0  0  0  0  0  0  0  0  0  0
   12.1865  -14.4895   19.2226 C   0  0  0  0  0  0  0  0  0  0  0  0
   12.2972  -13.4712   19.9565 O   0  0  0  0  0  0  0  0  0  0  0  0
    8.7550  -14.4821   16.5815 N   0  0  0  0  0  0  0  0  0  0  0  0
    8.6744  -13.8707   17.8701 C   0  0  0  0  0  0  0  0  0  0  0  0
    8.7181  -12.6218   17.8794 O   0  0  0  0  0  0  0  0  0  0  0  0
    8.5480  -14.6483   19.1122 C   0  0  0  0  0  0  0  0  0  0  0  0
    9.7676  -14.6585   19.9827 C   0  0  2  0  0  0  0  0  0  0  0  0
   10.9357  -15.1601   19.2490 N   0  0  0  0  0  0  0  0  0  0  0  0
    9.6135  -15.3234   21.2760 C   0  0  0  0  0  0  0  0  0  0  0  0
    8.6814  -15.1649   22.0948 O   0  0  0  0  0  0  0  0  0  0  0  0
   10.9891  -18.4204   22.6374 C   0  0  0  0  0  0  0  0  0  0  0  0
   10.5754  -16.9868   22.9157 C   0  0  2  0  0  0  0  0  0  0  0  0
   10.6206  -16.2565   21.6661 N   0  0  0  0  0  0  0  0  0  0  0  0
   11.4906  -16.3243   23.8660 C   0  0  0  0  0  0  0  0  0  0  0  0
   11.5253  -16.6380   25.2157 O   0  0  0  0  0  0  0  0  0  0  0  0
   12.2758  -15.4413   23.4596 O   0  0  0  0  0  0  0  0  0  0  0  0
  2  1  1  0
  2  4  1  0
  3  2  2  0
  5  4  1  0
  6  5  1  0
  6  7  1  6
  8  6  1  0
  8  9  2  0
 10 11  1  0
 11 13  1  0
 11 12  2  0
 14 13  1  6
 14 16  1  0
 14 15  1  0
 15  8  1  0
 16 20  1  0
 17 16  2  0
 19 18  1  6
 19 21  1  0
 20 19  1  0
 21 23  2  0
 21 22  1  0
M  END
$$$$
