QNA.pdb
     RDKit          3D

 23 22  0  0  1  0  0  0  0  0999 V2000
    8.5299  -12.0483   19.7394 N   0  0  0  0  0  0  0  0  0  0  0  0
    8.1346  -12.9439   18.7113 C   0  0  0  0  0  0  0  0  0  0  0  0
    8.5505  -12.7872   17.5354 O   0  0  0  0  0  0  0  0  0  0  0  0
    7.2375  -14.0643   18.9991 C   0  0  0  0  0  0  0  0  0  0  0  0
    6.7767  -14.0874   20.4422 C   0  0  0  0  0  0  0  0  0  0  0  0
    7.9314  -14.6351   21.2486 C   0  0  2  0  0  0  0  0  0  0  0  0
    8.4007  -15.8168   20.5501 N   0  0  0  0  0  0  0  0  0  0  0  0
    7.5684  -14.9707   22.6275 C   0  0  0  0  0  0  0  0  0  0  0  0
    6.8655  -14.2345   23.3703 O   0  0  0  0  0  0  0  0  0  0  0  0
    6.4661  -18.8603   26.8665 N   0  0  0  0  0  0  0  0  0  0  0  0
    7.6607  -18.4627   26.1915 C   0  0  0  0  0  0  0  0  0  0  0  0
    8.7102  -18.5282   26.8666 O   0  0  0  0  0  0  0  0  0  0  0  0
    7.6687  -18.0043   24.7939 C   0  0  0  0  0  0  0  0  0  0  0  0
    7.8748  -16.5317   24.6091 C   0  0  2  0  0  0  0  0  0  0  0  0
    8.0217  -16.1934   23.1884 N   0  0  0  0  0  0  0  0  0  0  0  0
    8.9364  -15.9370   25.4203 C   0  0  0  0  0  0  0  0  0  0  0  0
   10.1675  -16.1179   25.2943 O   0  0  0  0  0  0  0  0  0  0  0  0
    8.8556  -13.0500   27.7596 C   0  0  0  0  0  0  0  0  0  0  0  0
    9.5081  -14.3374   27.2898 C   0  0  2  0  0  0  0  0  0  0  0  0
    8.5508  -15.0530   26.4724 N   0  0  0  0  0  0  0  0  0  0  0  0
    9.8851  -15.2081   28.4209 C   0  0  0  0  0  0  0  0  0  0  0  0
    9.3414  -16.4690   28.6097 O   0  0  0  0  0  0  0  0  0  0  0  0
   10.7274  -14.8132   29.2551 O   0  0  0  0  0  0  0  0  0  0  0  0
  2  1  1  0
  2  4  1  0
  3  2  2  0
  5  4  1  0
  6  5  1  0
  6  7  1  6
  8  6  1  0
  8  9  2  0
 10 11  1  0
 11 13  1  0
 11 12  2  0
 14 13  1  6
 14 16  1  0
 14 15  1  0
 15  8  1  0
 16 20  1  0
 17 16  2  0
 19 18  1  1
 19 21  1  0
 20 19  1  0
 21 23  2  0
 21 22  1  0
M  END
$$$$
