QNA.pdb
     RDKit          3D

 23 22  0  0  1  0  0  0  0  0999 V2000
   14.3798  -18.6937   16.7133 N   0  0  0  0  0  0  0  0  0  0  0  0
   14.7964  -17.5712   15.9506 C   0  0  0  0  0  0  0  0  0  0  0  0
   15.4383  -17.7304   14.8815 O   0  0  0  0  0  0  0  0  0  0  0  0
   14.4877  -16.2101   16.3924 C   0  0  0  0  0  0  0  0  0  0  0  0
   13.6310  -16.1821   17.6417 C   0  0  0  0  0  0  0  0  0  0  0  0
   13.2420  -14.7381   17.8583 C   0  0  2  0  0  0  0  0  0  0  0  0
   14.4790  -13.9887   17.9721 N   0  0  0  0  0  0  0  0  0  0  0  0
   12.4125  -14.5330   19.0481 C   0  0  0  0  0  0  0  0  0  0  0  0
   12.8681  -14.2100   20.1777 O   0  0  0  0  0  0  0  0  0  0  0  0
    8.6969  -12.6855   18.0720 N   0  0  0  0  0  0  0  0  0  0  0  0
    8.3881  -13.2085   19.3650 C   0  0  0  0  0  0  0  0  0  0  0  0
    7.8315  -12.4124   20.1512 O   0  0  0  0  0  0  0  0  0  0  0  0
    8.6992  -14.5914   19.7579 C   0  0  0  0  0  0  0  0  0  0  0  0
   10.1308  -14.8416   20.1231 C   0  0  2  0  0  0  0  0  0  0  0  0
   11.0062  -14.7012   18.9534 N   0  0  0  0  0  0  0  0  0  0  0  0
   10.3886  -16.0860   20.8467 C   0  0  0  0  0  0  0  0  0  0  0  0
   10.2515  -17.2500   20.4101 O   0  0  0  0  0  0  0  0  0  0  0  0
   12.5469  -17.1358   23.4395 C   0  0  0  0  0  0  0  0  0  0  0  0
   11.0847  -17.1433   23.0326 C   0  0  2  0  0  0  0  0  0  0  0  0
   10.8464  -15.9865   22.1948 N   0  0  0  0  0  0  0  0  0  0  0  0
   10.1874  -17.0540   24.2017 C   0  0  0  0  0  0  0  0  0  0  0  0
    9.2791  -16.0211   24.3722 O   0  0  0  0  0  0  0  0  0  0  0  0
   10.2307  -17.9349   25.0869 O   0  0  0  0  0  0  0  0  0  0  0  0
  2  1  1  0
  2  4  1  0
  3  2  2  0
  5  4  1  0
  6  5  1  0
  6  7  1  1
  8  6  1  0
  8  9  2  0
 10 11  1  0
 11 13  1  0
 11 12  2  0
 14 13  1  6
 14 16  1  0
 14 15  1  0
 15  8  1  0
 16 20  1  0
 17 16  2  0
 19 18  1  1
 19 21  1  0
 20 19  1  0
 21 23  2  0
 21 22  1  0
M  END
$$$$
