YPY.pdb
     RDKit          3D

 32 34  0  0  1  0  0  0  0  0999 V2000
   14.1285  -17.0024  -14.7777 O   0  0  0  0  0  0  0  0  0  0  0  0
   13.5085  -17.9653  -13.9701 C   0  0  0  0  0  0  0  0  0  0  0  0
   13.1088  -17.6638  -12.6868 C   0  0  0  0  0  0  0  0  0  0  0  0
   12.4980  -18.6129  -11.8923 C   0  0  0  0  0  0  0  0  0  0  0  0
   12.2563  -19.9107  -12.3402 C   0  0  0  0  0  0  0  0  0  0  0  0
   11.5900  -20.8832  -11.4374 C   0  0  0  0  0  0  0  0  0  0  0  0
   12.6462  -21.6141  -10.6891 C   0  0  2  0  0  0  0  0  0  0  0  0
   13.5470  -22.3264  -11.5527 N   0  0  0  0  0  0  0  0  0  0  0  0
   12.1877  -22.4903   -9.6132 C   0  0  0  0  0  0  0  0  0  0  0  0
   11.7079  -23.6020  -10.0458 O   0  0  0  0  0  0  0  0  0  0  0  0
   12.6595  -20.2013  -13.6234 C   0  0  0  0  0  0  0  0  0  0  0  0
   13.2773  -19.2428  -14.4290 C   0  0  0  0  0  0  0  0  0  0  0  0
   12.2022  -22.2829   -8.2323 N   0  0  0  0  0  0  0  0  0  0  0  0
   12.7505  -21.1520   -7.5092 C   0  0  0  0  0  0  0  0  0  0  0  0
   12.7017  -21.4957   -6.0495 C   0  0  0  0  0  0  0  0  0  0  0  0
   12.3438  -22.9640   -5.9700 C   0  0  0  0  0  0  0  0  0  0  0  0
   11.6384  -23.2278   -7.2726 C   0  0  1  0  0  0  0  0  0  0  0  0
   10.1727  -23.0163   -7.1230 C   0  0  0  0  0  0  0  0  0  0  0  0
    9.7257  -21.8467   -7.1881 O   0  0  0  0  0  0  0  0  0  0  0  0
    8.2448  -28.9399  -10.6757 O   0  0  0  0  0  0  0  0  0  0  0  0
    7.9966  -27.7119  -10.0795 C   0  0  0  0  0  0  0  0  0  0  0  0
    7.1148  -27.5973   -9.0218 C   0  0  0  0  0  0  0  0  0  0  0  0
    6.8431  -26.3955   -8.4041 C   0  0  0  0  0  0  0  0  0  0  0  0
    7.4793  -25.2635   -8.8640 C   0  0  0  0  0  0  0  0  0  0  0  0
    7.2076  -23.9607   -8.2239 C   0  0  0  0  0  0  0  0  0  0  0  0
    7.8092  -23.9220   -6.8602 C   0  0  2  0  0  0  0  0  0  0  0  0
    9.2607  -24.0617   -6.9124 N   0  0  0  0  0  0  0  0  0  0  0  0
    7.2994  -24.9552   -5.9371 C   0  0  0  0  0  0  0  0  0  0  0  0
    6.0880  -24.9399   -5.6073 O   0  0  0  0  0  0  0  0  0  0  0  0
    8.3698  -25.3853   -9.9333 C   0  0  0  0  0  0  0  0  0  0  0  0
    8.6400  -26.5786  -10.5467 C   0  0  0  0  0  0  0  0  0  0  0  0
    8.0602  -25.9754   -5.3838 O   0  0  0  0  0  0  0  0  0  0  0  0
  2  1  1  0
  3  2  2  0
  4  3  1  0
  5 11  1  0
  5  4  2  0
  6  5  1  0
  7  6  1  0
  7  8  1  6
  9  7  1  0
  9 13  1  0
 10  9  2  0
 11 12  2  0
 12  2  1  0
 13 17  1  0
 13 14  1  0
 14 15  1  0
 16 17  1  0
 16 15  1  0
 17 18  1  1
 19 18  2  0
 20 21  1  0
 21 22  2  0
 21 31  1  0
 22 23  1  0
 23 24  2  0
 24 25  1  0
 26 25  1  6
 26 28  1  0
 26 27  1  0
 27 18  1  0
 28 32  1  0
 29 28  2  0
 30 24  1  0
 31 30  2  0
M  END
$$$$
