YPY.pdb
     RDKit          3D

 32 34  0  0  1  0  0  0  0  0999 V2000
   24.7030  -21.2591   -7.7150 O   0  0  0  0  0  0  0  0  0  0  0  0
   24.7402  -21.1864   -9.1139 C   0  0  0  0  0  0  0  0  0  0  0  0
   25.9341  -21.0396   -9.7851 C   0  0  0  0  0  0  0  0  0  0  0  0
   25.9695  -20.9684  -11.1630 C   0  0  0  0  0  0  0  0  0  0  0  0
   24.8139  -21.0399  -11.9392 C   0  0  0  0  0  0  0  0  0  0  0  0
   24.9208  -20.9625  -13.4182 C   0  0  0  0  0  0  0  0  0  0  0  0
   24.6318  -19.5629  -13.8273 C   0  0  2  0  0  0  0  0  0  0  0  0
   23.2590  -19.1945  -13.6159 N   0  0  0  0  0  0  0  0  0  0  0  0
   25.0489  -19.1840  -15.1756 C   0  0  0  0  0  0  0  0  0  0  0  0
   24.0606  -19.0732  -15.9906 O   0  0  0  0  0  0  0  0  0  0  0  0
   23.6267  -21.1866  -11.2589 C   0  0  0  0  0  0  0  0  0  0  0  0
   23.5884  -21.2592   -9.8651 C   0  0  0  0  0  0  0  0  0  0  0  0
   26.3308  -18.9382  -15.6721 N   0  0  0  0  0  0  0  0  0  0  0  0
   27.5933  -19.0517  -14.9682 C   0  0  0  0  0  0  0  0  0  0  0  0
   28.6528  -18.4869  -15.8681 C   0  0  0  0  0  0  0  0  0  0  0  0
   27.9249  -17.8105  -17.0095 C   0  0  0  0  0  0  0  0  0  0  0  0
   26.5920  -18.5076  -17.0425 C   0  0  1  0  0  0  0  0  0  0  0  0
   26.6384  -19.6765  -17.9628 C   0  0  0  0  0  0  0  0  0  0  0  0
   27.2380  -20.7119  -17.5876 O   0  0  0  0  0  0  0  0  0  0  0  0
   20.3178  -24.5578  -21.1040 O   0  0  0  0  0  0  0  0  0  0  0  0
   21.2115  -23.6533  -20.5487 C   0  0  0  0  0  0  0  0  0  0  0  0
   22.3163  -24.0854  -19.8402 C   0  0  0  0  0  0  0  0  0  0  0  0
   23.2258  -23.2178  -19.2747 C   0  0  0  0  0  0  0  0  0  0  0  0
   23.0206  -21.8639  -19.4243 C   0  0  0  0  0  0  0  0  0  0  0  0
   23.9766  -20.9090  -18.8284 C   0  0  0  0  0  0  0  0  0  0  0  0
   25.1376  -20.7057  -19.7415 C   0  0  2  0  0  0  0  0  0  0  0  0
   26.0438  -19.6810  -19.2337 N   0  0  0  0  0  0  0  0  0  0  0  0
   24.7721  -20.3272  -21.1209 C   0  0  0  0  0  0  0  0  0  0  0  0
   24.7359  -19.1120  -21.4347 O   0  0  0  0  0  0  0  0  0  0  0  0
   21.9022  -21.4328  -20.1417 C   0  0  0  0  0  0  0  0  0  0  0  0
   20.9990  -22.2941  -20.7035 C   0  0  0  0  0  0  0  0  0  0  0  0
   24.4561  -21.2197  -22.1353 O   0  0  0  0  0  0  0  0  0  0  0  0
  2  1  1  0
  3  2  2  0
  4  3  1  0
  5 11  1  0
  5  4  2  0
  6  5  1  0
  7  6  1  0
  7  8  1  6
  9  7  1  0
  9 13  1  0
 10  9  2  0
 11 12  2  0
 12  2  1  0
 13 17  1  0
 13 14  1  0
 14 15  1  0
 16 17  1  0
 16 15  1  0
 17 18  1  6
 19 18  2  0
 20 21  1  0
 21 22  2  0
 21 31  1  0
 22 23  1  0
 23 24  2  0
 24 25  1  0
 26 25  1  1
 26 28  1  0
 26 27  1  0
 27 18  1  0
 28 32  1  0
 29 28  2  0
 30 24  1  0
 31 30  2  0
M  END
$$$$
