YPY.pdb
     RDKit          3D

 32 34  0  0  1  0  0  0  0  0999 V2000
   21.8562  -12.4692  -19.2574 O   0  0  0  0  0  0  0  0  0  0  0  0
   22.1972  -13.5455  -18.4275 C   0  0  0  0  0  0  0  0  0  0  0  0
   23.3201  -13.4990  -17.6310 C   0  0  0  0  0  0  0  0  0  0  0  0
   23.6549  -14.5597  -16.8137 C   0  0  0  0  0  0  0  0  0  0  0  0
   22.8847  -15.7199  -16.7516 C   0  0  0  0  0  0  0  0  0  0  0  0
   23.2968  -16.8232  -15.8473 C   0  0  0  0  0  0  0  0  0  0  0  0
   24.1289  -17.7735  -16.6310 C   0  0  2  0  0  0  0  0  0  0  0  0
   23.3790  -18.4639  -17.6438 N   0  0  0  0  0  0  0  0  0  0  0  0
   24.9219  -18.7275  -15.8588 C   0  0  0  0  0  0  0  0  0  0  0  0
   24.2813  -19.8109  -15.5958 O   0  0  0  0  0  0  0  0  0  0  0  0
   21.7652  -15.7560  -17.5510 C   0  0  0  0  0  0  0  0  0  0  0  0
   21.4244  -14.6842  -18.3783 C   0  0  0  0  0  0  0  0  0  0  0  0
   26.2321  -18.6173  -15.3883 N   0  0  0  0  0  0  0  0  0  0  0  0
   27.1807  -17.5504  -15.6419 C   0  0  0  0  0  0  0  0  0  0  0  0
   28.5027  -17.9942  -15.0880 C   0  0  0  0  0  0  0  0  0  0  0  0
   28.3461  -19.4573  -14.7345 C   0  0  0  0  0  0  0  0  0  0  0  0
   26.8638  -19.6160  -14.5307 C   0  0  1  0  0  0  0  0  0  0  0  0
   26.5071  -19.3875  -13.1039 C   0  0  0  0  0  0  0  0  0  0  0  0
   26.2581  -18.2176  -12.7278 O   0  0  0  0  0  0  0  0  0  0  0  0
   23.0869  -24.6991  -14.1891 O   0  0  0  0  0  0  0  0  0  0  0  0
   23.4430  -23.6851  -13.3116 C   0  0  0  0  0  0  0  0  0  0  0  0
   24.4257  -23.8778  -12.3594 C   0  0  0  0  0  0  0  0  0  0  0  0
   24.8067  -22.8951  -11.4713 C   0  0  0  0  0  0  0  0  0  0  0  0
   24.1785  -21.6710  -11.5390 C   0  0  0  0  0  0  0  0  0  0  0  0
   24.5635  -20.5984  -10.5997 C   0  0  0  0  0  0  0  0  0  0  0  0
   26.0062  -20.2613  -10.7670 C   0  0  2  0  0  0  0  0  0  0  0  0
   26.4341  -20.4170  -12.1532 N   0  0  0  0  0  0  0  0  0  0  0  0
   26.9224  -21.0610   -9.9300 C   0  0  0  0  0  0  0  0  0  0  0  0
   26.8463  -20.9728   -8.6798 O   0  0  0  0  0  0  0  0  0  0  0  0
   23.1860  -21.4817  -12.5036 C   0  0  0  0  0  0  0  0  0  0  0  0
   22.8077  -22.4573  -13.3858 C   0  0  0  0  0  0  0  0  0  0  0  0
   27.8899  -21.9303  -10.4134 O   0  0  0  0  0  0  0  0  0  0  0  0
  2  1  1  0
  3  2  2  0
  4  3  1  0
  5 11  1  0
  5  4  2  0
  6  5  1  0
  7  6  1  0
  7  8  1  6
  9  7  1  0
  9 13  1  0
 10  9  2  0
 11 12  2  0
 12  2  1  0
 13 17  1  0
 13 14  1  0
 14 15  1  0
 16 17  1  0
 16 15  1  0
 17 18  1  1
 19 18  2  0
 20 21  1  0
 21 22  2  0
 21 31  1  0
 22 23  1  0
 23 24  2  0
 24 25  1  0
 26 25  1  6
 26 28  1  0
 26 27  1  0
 27 18  1  0
 28 32  1  0
 29 28  2  0
 30 24  1  0
 31 30  2  0
M  END
$$$$
