YPY.pdb
     RDKit          3D

 32 34  0  0  1  0  0  0  0  0999 V2000
   15.5849  -14.5546  -16.5361 O   0  0  0  0  0  0  0  0  0  0  0  0
   16.2768  -13.3417  -16.4183 C   0  0  0  0  0  0  0  0  0  0  0  0
   16.9555  -13.0215  -15.2632 C   0  0  0  0  0  0  0  0  0  0  0  0
   17.6368  -11.8266  -15.1485 C   0  0  0  0  0  0  0  0  0  0  0  0
   17.6737  -10.8919  -16.1819 C   0  0  0  0  0  0  0  0  0  0  0  0
   18.4296   -9.6272  -15.9969 C   0  0  0  0  0  0  0  0  0  0  0  0
   19.5585   -9.6208  -16.9640 C   0  0  2  0  0  0  0  0  0  0  0  0
   20.5144  -10.6630  -16.7091 N   0  0  0  0  0  0  0  0  0  0  0  0
   20.2471   -8.3447  -17.1456 C   0  0  0  0  0  0  0  0  0  0  0  0
   21.3090   -8.2445  -16.4276 O   0  0  0  0  0  0  0  0  0  0  0  0
   16.9925  -11.2216  -17.3313 C   0  0  0  0  0  0  0  0  0  0  0  0
   16.3030  -12.4297  -17.4498 C   0  0  0  0  0  0  0  0  0  0  0  0
   19.9126   -7.2642  -17.9646 N   0  0  0  0  0  0  0  0  0  0  0  0
   18.8421   -7.1859  -18.9394 C   0  0  0  0  0  0  0  0  0  0  0  0
   19.0261   -5.9027  -19.6950 C   0  0  0  0  0  0  0  0  0  0  0  0
   20.3843   -5.3663  -19.2978 C   0  0  0  0  0  0  0  0  0  0  0  0
   20.6345   -5.9951  -17.9540 C   0  0  1  0  0  0  0  0  0  0  0  0
   20.1338   -5.1127  -16.8650 C   0  0  0  0  0  0  0  0  0  0  0  0
   18.9388   -5.2261  -16.5026 O   0  0  0  0  0  0  0  0  0  0  0  0
   19.5933   -8.6566  -11.6922 O   0  0  0  0  0  0  0  0  0  0  0  0
   20.0208   -7.4470  -12.2204 C   0  0  0  0  0  0  0  0  0  0  0  0
   21.2238   -7.3474  -12.8930 C   0  0  0  0  0  0  0  0  0  0  0  0
   21.6816   -6.1641  -13.4313 C   0  0  0  0  0  0  0  0  0  0  0  0
   20.9042   -5.0356  -13.2902 C   0  0  0  0  0  0  0  0  0  0  0  0
   21.3685   -3.7524  -13.8546 C   0  0  0  0  0  0  0  0  0  0  0  0
   20.5458   -3.3850  -15.0426 C   0  0  2  0  0  0  0  0  0  0  0  0
   20.9322   -4.1563  -16.2194 N   0  0  0  0  0  0  0  0  0  0  0  0
   20.6075   -1.9568  -15.4114 C   0  0  0  0  0  0  0  0  0  0  0  0
   21.2534   -1.6137  -16.4320 O   0  0  0  0  0  0  0  0  0  0  0  0
   19.6890   -5.1422  -12.6095 C   0  0  0  0  0  0  0  0  0  0  0  0
   19.2341   -6.3172  -12.0751 C   0  0  0  0  0  0  0  0  0  0  0  0
   19.9963   -0.9257  -14.7121 O   0  0  0  0  0  0  0  0  0  0  0  0
  2  1  1  0
  3  2  2  0
  4  3  1  0
  5 11  1  0
  5  4  2  0
  6  5  1  0
  7  6  1  0
  7  8  1  1
  9  7  1  0
  9 13  1  0
 10  9  2  0
 11 12  2  0
 12  2  1  0
 13 17  1  0
 13 14  1  0
 14 15  1  0
 16 17  1  0
 16 15  1  0
 17 18  1  1
 19 18  2  0
 20 21  1  0
 21 22  2  0
 21 31  1  0
 22 23  1  0
 23 24  2  0
 24 25  1  0
 26 25  1  1
 26 28  1  0
 26 27  1  0
 27 18  1  0
 28 32  1  0
 29 28  2  0
 30 24  1  0
 31 30  2  0
M  END
$$$$
