YPY.pdb
     RDKit          3D

 32 34  0  0  1  0  0  0  0  0999 V2000
   25.4892  -19.2846   -1.0519 O   0  0  0  0  0  0  0  0  0  0  0  0
   26.4969  -18.5658   -1.7090 C   0  0  0  0  0  0  0  0  0  0  0  0
   26.3813  -18.2400   -3.0425 C   0  0  0  0  0  0  0  0  0  0  0  0
   27.3743  -17.5319   -3.6886 C   0  0  0  0  0  0  0  0  0  0  0  0
   28.5324  -17.1141   -3.0349 C   0  0  0  0  0  0  0  0  0  0  0  0
   29.5607  -16.3505   -3.7862 C   0  0  0  0  0  0  0  0  0  0  0  0
   30.5549  -17.3191   -4.3185 C   0  0  2  0  0  0  0  0  0  0  0  0
   31.7808  -16.6897   -4.7255 N   0  0  0  0  0  0  0  0  0  0  0  0
   30.0827  -18.2192   -5.3684 C   0  0  0  0  0  0  0  0  0  0  0  0
   29.9686  -17.6378   -6.5096 O   0  0  0  0  0  0  0  0  0  0  0  0
   28.6378  -17.4447   -1.7033 C   0  0  0  0  0  0  0  0  0  0  0  0
   27.6345  -18.1607   -1.0475 C   0  0  0  0  0  0  0  0  0  0  0  0
   29.7520  -19.5739   -5.2939 N   0  0  0  0  0  0  0  0  0  0  0  0
   29.6891  -20.4095   -4.1106 C   0  0  0  0  0  0  0  0  0  0  0  0
   29.4909  -21.8216   -4.5774 C   0  0  0  0  0  0  0  0  0  0  0  0
   29.6973  -21.8069   -6.0766 C   0  0  0  0  0  0  0  0  0  0  0  0
   29.4067  -20.3813   -6.4603 C   0  0  1  0  0  0  0  0  0  0  0  0
   27.9686  -20.2185   -6.8075 C   0  0  0  0  0  0  0  0  0  0  0  0
   27.1659  -19.8924   -5.9011 O   0  0  0  0  0  0  0  0  0  0  0  0
   28.0213  -21.9156  -14.2945 O   0  0  0  0  0  0  0  0  0  0  0  0
   27.6197  -21.1991  -13.1763 C   0  0  0  0  0  0  0  0  0  0  0  0
   26.2816  -21.0577  -12.8620 C   0  0  0  0  0  0  0  0  0  0  0  0
   25.8444  -20.3543  -11.7604 C   0  0  0  0  0  0  0  0  0  0  0  0
   26.7844  -19.7687  -10.9412 C   0  0  0  0  0  0  0  0  0  0  0  0
   26.3470  -19.0068   -9.7541 C   0  0  0  0  0  0  0  0  0  0  0  0
   26.1763  -19.9220   -8.5895 C   0  0  2  0  0  0  0  0  0  0  0  0
   27.4614  -20.4114   -8.1015 N   0  0  0  0  0  0  0  0  0  0  0  0
   25.3280  -21.1004   -8.8567 C   0  0  0  0  0  0  0  0  0  0  0  0
   25.8596  -22.2356   -8.9290 O   0  0  0  0  0  0  0  0  0  0  0  0
   28.1357  -19.9150  -11.2636 C   0  0  0  0  0  0  0  0  0  0  0  0
   28.5701  -20.6137  -12.3573 C   0  0  0  0  0  0  0  0  0  0  0  0
   23.9529  -21.0678   -9.0398 O   0  0  0  0  0  0  0  0  0  0  0  0
  2  1  1  0
  3  2  2  0
  4  3  1  0
  5 11  1  0
  5  4  2  0
  6  5  1  0
  7  6  1  0
  7  8  1  6
  9  7  1  0
  9 13  1  0
 10  9  2  0
 11 12  2  0
 12  2  1  0
 13 17  1  0
 13 14  1  0
 14 15  1  0
 16 17  1  0
 16 15  1  0
 17 18  1  1
 19 18  2  0
 20 21  1  0
 21 22  2  0
 21 31  1  0
 22 23  1  0
 23 24  2  0
 24 25  1  0
 26 25  1  6
 26 28  1  0
 26 27  1  0
 27 18  1  0
 28 32  1  0
 29 28  2  0
 30 24  1  0
 31 30  2  0
M  END
$$$$
