YPY.pdb
     RDKit          3D

 32 34  0  0  1  0  0  0  0  0999 V2000
   19.3292  -17.9797  -17.2897 O   0  0  0  0  0  0  0  0  0  0  0  0
   20.2241  -18.6402  -16.4373 C   0  0  0  0  0  0  0  0  0  0  0  0
   21.3187  -17.9874  -15.9144 C   0  0  0  0  0  0  0  0  0  0  0  0
   22.1993  -18.6389  -15.0748 C   0  0  0  0  0  0  0  0  0  0  0  0
   22.0305  -19.9752  -14.7158 C   0  0  0  0  0  0  0  0  0  0  0  0
   23.0113  -20.6164  -13.8037 C   0  0  0  0  0  0  0  0  0  0  0  0
   24.1792  -21.0490  -14.6153 C   0  0  2  0  0  0  0  0  0  0  0  0
   23.8655  -22.1307  -15.5076 N   0  0  0  0  0  0  0  0  0  0  0  0
   25.4039  -21.3494  -13.8770 C   0  0  0  0  0  0  0  0  0  0  0  0
   25.4939  -22.5878  -13.5430 O   0  0  0  0  0  0  0  0  0  0  0  0
   20.9341  -20.6179  -15.2434 C   0  0  0  0  0  0  0  0  0  0  0  0
   20.0418  -19.9609  -16.0928 C   0  0  0  0  0  0  0  0  0  0  0  0
   26.4459  -20.4985  -13.5022 N   0  0  0  0  0  0  0  0  0  0  0  0
   26.7549  -19.1848  -14.0324 C   0  0  0  0  0  0  0  0  0  0  0  0
   28.0759  -18.7739  -13.4517 C   0  0  0  0  0  0  0  0  0  0  0  0
   28.6410  -20.0011  -12.7698 C   0  0  0  0  0  0  0  0  0  0  0  0
   27.4230  -20.8321  -12.4699 C   0  0  1  0  0  0  0  0  0  0  0  0
   26.8924  -20.5089  -11.1173 C   0  0  0  0  0  0  0  0  0  0  0  0
   25.9818  -19.6526  -11.0190 O   0  0  0  0  0  0  0  0  0  0  0  0
   29.5728  -18.2369   -4.1117 O   0  0  0  0  0  0  0  0  0  0  0  0
   29.0407  -19.1663   -4.9939 C   0  0  0  0  0  0  0  0  0  0  0  0
   27.7871  -19.7097   -4.7878 C   0  0  0  0  0  0  0  0  0  0  0  0
   27.2254  -20.6344   -5.6416 C   0  0  0  0  0  0  0  0  0  0  0  0
   27.9479  -21.0312   -6.7453 C   0  0  0  0  0  0  0  0  0  0  0  0
   27.3738  -22.0220   -7.6778 C   0  0  0  0  0  0  0  0  0  0  0  0
   26.5738  -21.3339   -8.7312 C   0  0  2  0  0  0  0  0  0  0  0  0
   27.3595  -21.1149   -9.9411 N   0  0  0  0  0  0  0  0  0  0  0  0
   26.0191  -20.0282   -8.3229 C   0  0  0  0  0  0  0  0  0  0  0  0
   24.9462  -19.9937   -7.6716 O   0  0  0  0  0  0  0  0  0  0  0  0
   29.2146  -20.4785   -6.9488 C   0  0  0  0  0  0  0  0  0  0  0  0
   29.7724  -19.5599   -6.1013 C   0  0  0  0  0  0  0  0  0  0  0  0
   26.5936  -18.7959   -8.6004 O   0  0  0  0  0  0  0  0  0  0  0  0
  2  1  1  0
  3  2  2  0
  4  3  1  0
  5 11  1  0
  5  4  2  0
  6  5  1  0
  7  6  1  0
  7  8  1  1
  9  7  1  0
  9 13  1  0
 10  9  2  0
 11 12  2  0
 12  2  1  0
 13 17  1  0
 13 14  1  0
 14 15  1  0
 16 17  1  0
 16 15  1  0
 17 18  1  1
 19 18  2  0
 20 21  1  0
 21 22  2  0
 21 31  1  0
 22 23  1  0
 23 24  2  0
 24 25  1  0
 26 25  1  1
 26 28  1  0
 26 27  1  0
 27 18  1  0
 28 32  1  0
 29 28  2  0
 30 24  1  0
 31 30  2  0
M  END
$$$$
