YPY.pdb
     RDKit          3D

 32 34  0  0  1  0  0  0  0  0999 V2000
   20.2184  -16.0898  -20.4461 O   0  0  0  0  0  0  0  0  0  0  0  0
   20.9160  -16.9883  -19.6276 C   0  0  0  0  0  0  0  0  0  0  0  0
   20.7732  -18.3492  -19.7855 C   0  0  0  0  0  0  0  0  0  0  0  0
   21.4609  -19.2332  -18.9789 C   0  0  0  0  0  0  0  0  0  0  0  0
   22.3254  -18.8017  -17.9742 C   0  0  0  0  0  0  0  0  0  0  0  0
   23.0399  -19.8045  -17.1442 C   0  0  0  0  0  0  0  0  0  0  0  0
   24.4928  -19.6935  -17.4384 C   0  0  2  0  0  0  0  0  0  0  0  0
   24.8950  -20.4942  -18.5618 N   0  0  0  0  0  0  0  0  0  0  0  0
   25.3992  -19.9184  -16.3145 C   0  0  0  0  0  0  0  0  0  0  0  0
   25.7858  -21.1412  -16.2225 O   0  0  0  0  0  0  0  0  0  0  0  0
   22.4609  -17.4404  -17.8250 C   0  0  0  0  0  0  0  0  0  0  0  0
   21.7665  -16.5443  -18.6399 C   0  0  0  0  0  0  0  0  0  0  0  0
   25.8787  -19.0127  -15.3657 N   0  0  0  0  0  0  0  0  0  0  0  0
   25.5833  -17.5971  -15.2597 C   0  0  0  0  0  0  0  0  0  0  0  0
   26.4949  -17.0335  -14.2096 C   0  0  0  0  0  0  0  0  0  0  0  0
   27.5024  -18.1179  -13.8944 C   0  0  0  0  0  0  0  0  0  0  0  0
   26.7950  -19.3850  -14.2917 C   0  0  1  0  0  0  0  0  0  0  0  0
   26.0491  -19.9498  -13.1342 C   0  0  0  0  0  0  0  0  0  0  0  0
   24.8145  -19.7447  -13.0583 O   0  0  0  0  0  0  0  0  0  0  0  0
   28.5445  -18.3785   -6.1826 O   0  0  0  0  0  0  0  0  0  0  0  0
   28.1332  -19.2832   -7.1508 C   0  0  0  0  0  0  0  0  0  0  0  0
   28.9654  -20.3009   -7.5760 C   0  0  0  0  0  0  0  0  0  0  0  0
   28.5923  -21.2182   -8.5347 C   0  0  0  0  0  0  0  0  0  0  0  0
   27.3362  -21.1118   -9.0900 C   0  0  0  0  0  0  0  0  0  0  0  0
   26.9079  -22.0786  -10.1209 C   0  0  0  0  0  0  0  0  0  0  0  0
   25.9549  -21.4325  -11.0681 C   0  0  2  0  0  0  0  0  0  0  0  0
   26.6575  -20.7033  -12.1187 N   0  0  0  0  0  0  0  0  0  0  0  0
   25.0074  -20.4927  -10.4367 C   0  0  0  0  0  0  0  0  0  0  0  0
   23.9512  -20.9377   -9.9241 O   0  0  0  0  0  0  0  0  0  0  0  0
   26.4989  -20.0811   -8.6562 C   0  0  0  0  0  0  0  0  0  0  0  0
   26.8691  -19.1703   -7.7040 C   0  0  0  0  0  0  0  0  0  0  0  0
   25.1833  -19.1187  -10.3536 O   0  0  0  0  0  0  0  0  0  0  0  0
  2  1  1  0
  3  2  2  0
  4  3  1  0
  5 11  1  0
  5  4  2  0
  6  5  1  0
  7  6  1  0
  7  8  1  6
  9  7  1  0
  9 13  1  0
 10  9  2  0
 11 12  2  0
 12  2  1  0
 13 17  1  0
 13 14  1  0
 14 15  1  0
 16 17  1  0
 16 15  1  0
 17 18  1  1
 19 18  2  0
 20 21  1  0
 21 22  2  0
 21 31  1  0
 22 23  1  0
 23 24  2  0
 24 25  1  0
 26 25  1  1
 26 28  1  0
 26 27  1  0
 27 18  1  0
 28 32  1  0
 29 28  2  0
 30 24  1  0
 31 30  2  0
M  END
$$$$
