YPY.pdb
     RDKit          3D

 32 34  0  0  1  0  0  0  0  0999 V2000
   14.9371  -29.9410  -13.9735 O   0  0  0  0  0  0  0  0  0  0  0  0
   15.0473  -29.7444  -12.5904 C   0  0  0  0  0  0  0  0  0  0  0  0
   13.9881  -30.0075  -11.7500 C   0  0  0  0  0  0  0  0  0  0  0  0
   14.0979  -29.8137  -10.3878 C   0  0  0  0  0  0  0  0  0  0  0  0
   15.2713  -29.3472   -9.7974 C   0  0  0  0  0  0  0  0  0  0  0  0
   15.3262  -29.1652   -8.3247 C   0  0  0  0  0  0  0  0  0  0  0  0
   16.7523  -29.2162   -7.9081 C   0  0  2  0  0  0  0  0  0  0  0  0
   17.1972  -30.5501   -7.6120 N   0  0  0  0  0  0  0  0  0  0  0  0
   17.1446  -28.3082   -6.8324 C   0  0  0  0  0  0  0  0  0  0  0  0
   17.1626  -28.8785   -5.6802 O   0  0  0  0  0  0  0  0  0  0  0  0
   16.3232  -29.0876  -10.6458 C   0  0  0  0  0  0  0  0  0  0  0  0
   16.2146  -29.2831  -12.0239 C   0  0  0  0  0  0  0  0  0  0  0  0
   17.4871  -26.9558   -6.8930 N   0  0  0  0  0  0  0  0  0  0  0  0
   17.5924  -26.1176   -8.0714 C   0  0  0  0  0  0  0  0  0  0  0  0
   18.1839  -24.8106   -7.6321 C   0  0  0  0  0  0  0  0  0  0  0  0
   18.6535  -25.0136   -6.2079 C   0  0  0  0  0  0  0  0  0  0  0  0
   17.8061  -26.1548   -5.7147 C   0  0  1  0  0  0  0  0  0  0  0  0
   16.5645  -25.6422   -5.0736 C   0  0  0  0  0  0  0  0  0  0  0  0
   15.5131  -25.5948   -5.7551 O   0  0  0  0  0  0  0  0  0  0  0  0
    9.9807  -25.6999    0.4150 O   0  0  0  0  0  0  0  0  0  0  0  0
   11.1422  -25.8681   -0.3252 C   0  0  0  0  0  0  0  0  0  0  0  0
   11.1010  -25.9817   -1.7017 C   0  0  0  0  0  0  0  0  0  0  0  0
   12.2325  -26.1492   -2.4705 C   0  0  0  0  0  0  0  0  0  0  0  0
   13.4538  -26.2057   -1.8358 C   0  0  0  0  0  0  0  0  0  0  0  0
   14.6843  -26.3863   -2.6322 C   0  0  0  0  0  0  0  0  0  0  0  0
   15.2922  -25.0619   -2.9475 C   0  0  2  0  0  0  0  0  0  0  0  0
   16.5082  -25.2074   -3.7407 N   0  0  0  0  0  0  0  0  0  0  0  0
   15.6321  -24.2475   -1.7640 C   0  0  0  0  0  0  0  0  0  0  0  0
   16.7046  -24.4729   -1.1512 O   0  0  0  0  0  0  0  0  0  0  0  0
   13.4895  -26.0901   -0.4441 C   0  0  0  0  0  0  0  0  0  0  0  0
   12.3660  -25.9234    0.3195 C   0  0  0  0  0  0  0  0  0  0  0  0
   14.8508  -23.2218   -1.2509 O   0  0  0  0  0  0  0  0  0  0  0  0
  2  1  1  0
  3  2  2  0
  4  3  1  0
  5 11  1  0
  5  4  2  0
  6  5  1  0
  7  6  1  0
  7  8  1  1
  9  7  1  0
  9 13  1  0
 10  9  2  0
 11 12  2  0
 12  2  1  0
 13 17  1  0
 13 14  1  0
 14 15  1  0
 16 17  1  0
 16 15  1  0
 17 18  1  6
 19 18  2  0
 20 21  1  0
 21 22  2  0
 21 31  1  0
 22 23  1  0
 23 24  2  0
 24 25  1  0
 26 25  1  1
 26 28  1  0
 26 27  1  0
 27 18  1  0
 28 32  1  0
 29 28  2  0
 30 24  1  0
 31 30  2  0
M  END
$$$$
