YPY.pdb
     RDKit          3D

 32 34  0  0  1  0  0  0  0  0999 V2000
   27.2437  -14.3501  -20.2240 O   0  0  0  0  0  0  0  0  0  0  0  0
   26.9521  -15.1303  -19.0970 C   0  0  0  0  0  0  0  0  0  0  0  0
   25.6536  -15.3036  -18.6710 C   0  0  0  0  0  0  0  0  0  0  0  0
   25.3675  -16.0724  -17.5610 C   0  0  0  0  0  0  0  0  0  0  0  0
   26.3644  -16.7062  -16.8210 C   0  0  0  0  0  0  0  0  0  0  0  0
   25.9895  -17.5240  -15.6397 C   0  0  0  0  0  0  0  0  0  0  0  0
   26.3682  -18.9343  -15.9181 C   0  0  2  0  0  0  0  0  0  0  0  0
   25.6159  -19.5085  -16.9993 N   0  0  0  0  0  0  0  0  0  0  0  0
   26.3691  -19.8418  -14.7727 C   0  0  0  0  0  0  0  0  0  0  0  0
   25.2506  -20.4583  -14.6241 O   0  0  0  0  0  0  0  0  0  0  0  0
   27.6579  -16.5266  -17.2550 C   0  0  0  0  0  0  0  0  0  0  0  0
   27.9497  -15.7496  -18.3777 C   0  0  0  0  0  0  0  0  0  0  0  0
   27.3870  -20.1132  -13.8559 N   0  0  0  0  0  0  0  0  0  0  0  0
   28.7445  -19.6038  -13.8587 C   0  0  0  0  0  0  0  0  0  0  0  0
   29.4963  -20.3451  -12.7926 C   0  0  0  0  0  0  0  0  0  0  0  0
   28.5970  -21.4780  -12.3475 C   0  0  0  0  0  0  0  0  0  0  0  0
   27.2172  -20.9968  -12.7061 C   0  0  1  0  0  0  0  0  0  0  0  0
   26.6081  -20.2635  -11.5630 C   0  0  0  0  0  0  0  0  0  0  0  0
   26.8645  -19.0437  -11.4277 O   0  0  0  0  0  0  0  0  0  0  0  0
   20.0649  -22.0365  -12.7890 O   0  0  0  0  0  0  0  0  0  0  0  0
   21.0535  -21.3515  -12.0973 C   0  0  0  0  0  0  0  0  0  0  0  0
   20.9479  -21.1261  -10.7381 C   0  0  0  0  0  0  0  0  0  0  0  0
   21.9088  -20.4505  -10.0171 C   0  0  0  0  0  0  0  0  0  0  0  0
   23.0194  -19.9816  -10.6837 C   0  0  0  0  0  0  0  0  0  0  0  0
   24.0656  -19.2523   -9.9390 C   0  0  0  0  0  0  0  0  0  0  0  0
   25.1308  -20.1949   -9.4921 C   0  0  2  0  0  0  0  0  0  0  0  0
   25.7581  -20.8682  -10.6244 N   0  0  0  0  0  0  0  0  0  0  0  0
   24.6697  -21.2404   -8.5573 C   0  0  0  0  0  0  0  0  0  0  0  0
   24.1964  -20.9032   -7.4443 O   0  0  0  0  0  0  0  0  0  0  0  0
   23.1210  -20.2124  -12.0577 C   0  0  0  0  0  0  0  0  0  0  0  0
   22.1671  -20.8835  -12.7738 C   0  0  0  0  0  0  0  0  0  0  0  0
   24.7113  -22.6053   -8.8042 O   0  0  0  0  0  0  0  0  0  0  0  0
  2  1  1  0
  3  2  2  0
  4  3  1  0
  5 11  1  0
  5  4  2  0
  6  5  1  0
  7  6  1  0
  7  8  1  6
  9  7  1  0
  9 13  1  0
 10  9  2  0
 11 12  2  0
 12  2  1  0
 13 17  1  0
 13 14  1  0
 14 15  1  0
 16 17  1  0
 16 15  1  0
 17 18  1  1
 19 18  2  0
 20 21  1  0
 21 22  2  0
 21 31  1  0
 22 23  1  0
 23 24  2  0
 24 25  1  0
 26 25  1  6
 26 28  1  0
 26 27  1  0
 27 18  1  0
 28 32  1  0
 29 28  2  0
 30 24  1  0
 31 30  2  0
M  END
$$$$
