YPY.pdb
     RDKit          3D

 32 34  0  0  1  0  0  0  0  0999 V2000
   19.5612  -24.0536  -12.3524 O   0  0  0  0  0  0  0  0  0  0  0  0
   20.7104  -24.5665  -12.9687 C   0  0  0  0  0  0  0  0  0  0  0  0
   21.6361  -23.7294  -13.5517 C   0  0  0  0  0  0  0  0  0  0  0  0
   22.7678  -24.2357  -14.1583 C   0  0  0  0  0  0  0  0  0  0  0  0
   23.0311  -25.6035  -14.2129 C   0  0  0  0  0  0  0  0  0  0  0  0
   24.2701  -26.0835  -14.8758 C   0  0  0  0  0  0  0  0  0  0  0  0
   24.0799  -25.9667  -16.3455 C   0  0  2  0  0  0  0  0  0  0  0  0
   23.0124  -26.7946  -16.8351 N   0  0  0  0  0  0  0  0  0  0  0  0
   25.2732  -26.1512  -17.1686 C   0  0  0  0  0  0  0  0  0  0  0  0
   25.3121  -27.3028  -17.7392 O   0  0  0  0  0  0  0  0  0  0  0  0
   22.1001  -26.4307  -13.6275 C   0  0  0  0  0  0  0  0  0  0  0  0
   20.9547  -25.9209  -13.0131 C   0  0  0  0  0  0  0  0  0  0  0  0
   26.3336  -25.2736  -17.4041 N   0  0  0  0  0  0  0  0  0  0  0  0
   26.5033  -23.9274  -16.8930 C   0  0  0  0  0  0  0  0  0  0  0  0
   27.6912  -23.3358  -17.5931 C   0  0  0  0  0  0  0  0  0  0  0  0
   28.0467  -24.2930  -18.7102 C   0  0  0  0  0  0  0  0  0  0  0  0
   27.4799  -25.6068  -18.2448 C   0  0  1  0  0  0  0  0  0  0  0  0
   28.4980  -26.3681  -17.4707 C   0  0  0  0  0  0  0  0  0  0  0  0
   28.6691  -26.0828  -16.2618 O   0  0  0  0  0  0  0  0  0  0  0  0
   27.9765  -33.8000  -20.0129 O   0  0  0  0  0  0  0  0  0  0  0  0
   28.2086  -32.7073  -19.1899 C   0  0  0  0  0  0  0  0  0  0  0  0
   29.1864  -32.7438  -18.2143 C   0  0  0  0  0  0  0  0  0  0  0  0
   29.4462  -31.6790  -17.3786 C   0  0  0  0  0  0  0  0  0  0  0  0
   28.6970  -30.5325  -17.5254 C   0  0  0  0  0  0  0  0  0  0  0  0
   28.9505  -29.3752  -16.6437 C   0  0  0  0  0  0  0  0  0  0  0  0
   29.9403  -28.4553  -17.2738 C   0  0  2  0  0  0  0  0  0  0  0  0
   29.2798  -27.3930  -18.0250 N   0  0  0  0  0  0  0  0  0  0  0  0
   30.8932  -29.1154  -18.1881 C   0  0  0  0  0  0  0  0  0  0  0  0
   31.6851  -29.9765  -17.7322 O   0  0  0  0  0  0  0  0  0  0  0  0
   27.7099  -30.5012  -18.5134 C   0  0  0  0  0  0  0  0  0  0  0  0
   27.4519  -31.5583  -19.3435 C   0  0  0  0  0  0  0  0  0  0  0  0
   30.9963  -28.8647  -19.5490 O   0  0  0  0  0  0  0  0  0  0  0  0
  2  1  1  0
  3  2  2  0
  4  3  1  0
  5 11  1  0
  5  4  2  0
  6  5  1  0
  7  6  1  0
  7  8  1  6
  9  7  1  0
  9 13  1  0
 10  9  2  0
 11 12  2  0
 12  2  1  0
 13 17  1  0
 13 14  1  0
 14 15  1  0
 16 17  1  0
 16 15  1  0
 17 18  1  1
 19 18  2  0
 20 21  1  0
 21 22  2  0
 21 31  1  0
 22 23  1  0
 23 24  2  0
 24 25  1  0
 26 25  1  6
 26 28  1  0
 26 27  1  0
 27 18  1  0
 28 32  1  0
 29 28  2  0
 30 24  1  0
 31 30  2  0
M  END
$$$$
