KSP.pdb
     RDKit          3D

 23 23  0  0  1  0  0  0  0  0999 V2000
   28.1948  -18.1090  -15.9622 N   0  0  0  0  0  0  0  0  0  0  0  0
   27.7728  -18.1206  -14.5782 C   0  0  1  0  0  0  0  0  0  0  0  0
   26.8870  -16.9558  -14.2726 C   0  0  0  0  0  0  0  0  0  0  0  0
   26.2755  -16.3839  -15.5145 C   0  0  0  0  0  0  0  0  0  0  0  0
   24.8434  -16.7971  -15.7137 C   0  0  0  0  0  0  0  0  0  0  0  0
   24.3068  -16.0198  -16.9201 C   0  0  0  0  0  0  0  0  0  0  0  0
   22.9776  -16.5097  -17.2077 N   0  0  0  0  0  0  0  0  0  0  0  0
   27.0910  -19.4217  -14.2653 C   0  0  0  0  0  0  0  0  0  0  0  0
   26.6530  -20.0892  -15.2205 O   0  0  0  0  0  0  0  0  0  0  0  0
   25.7421  -20.1473  -10.2569 O   0  0  0  0  0  0  0  0  0  0  0  0
   26.2048  -21.2036  -11.0411 C   0  0  0  0  0  0  0  0  0  0  0  0
   26.0547  -20.9501  -12.5295 C   0  0  2  0  0  0  0  0  0  0  0  0
   26.9486  -19.8779  -12.9380 N   0  0  0  0  0  0  0  0  0  0  0  0
   24.6601  -20.7514  -12.9598 C   0  0  0  0  0  0  0  0  0  0  0  0
   24.2026  -19.5672  -13.1862 O   0  0  0  0  0  0  0  0  0  0  0  0
   23.7468  -21.7841  -13.1566 N   0  0  0  0  0  0  0  0  0  0  0  0
   23.9506  -23.1806  -12.7265 C   0  0  0  0  0  0  0  0  0  0  0  0
   22.9810  -24.0026  -13.5462 C   0  0  0  0  0  0  0  0  0  0  0  0
   22.6433  -23.0249  -14.6777 C   0  0  0  0  0  0  0  0  0  0  0  0
   22.4712  -21.7584  -13.8119 C   0  0  1  0  0  0  0  0  0  0  0  0
   21.4507  -22.0769  -12.7379 C   0  0  0  0  0  0  0  0  0  0  0  0
   21.7816  -22.5233  -11.6153 O   0  0  0  0  0  0  0  0  0  0  0  0
   20.1054  -21.8738  -12.9891 O   0  0  0  0  0  0  0  0  0  0  0  0
  2  1  1  6
  3  2  1  0
  4  3  1  0
  5  4  1  0
  5  6  1  0
  7  6  1  0
  8 13  1  0
  8  2  1  0
  9  8  2  0
 11 10  1  0
 12 11  1  1
 12 14  1  0
 12 13  1  0
 14 15  2  0
 16 20  1  0
 16 14  1  0
 17 18  1  0
 17 16  1  0
 18 19  1  0
 20 19  1  0
 20 21  1  1
 22 21  2  0
 23 21  1  0
M  END
$$$$
