KSP.pdb
     RDKit          3D

 23 23  0  0  1  0  0  0  0  0999 V2000
   21.2170  -16.7561  -17.2143 N   0  0  0  0  0  0  0  0  0  0  0  0
   20.2211  -15.7118  -17.1075 C   0  0  1  0  0  0  0  0  0  0  0  0
   19.2205  -16.0250  -16.0420 C   0  0  0  0  0  0  0  0  0  0  0  0
   18.2002  -17.0149  -16.5137 C   0  0  0  0  0  0  0  0  0  0  0  0
   17.2483  -17.4450  -15.4319 C   0  0  0  0  0  0  0  0  0  0  0  0
   16.2496  -18.4205  -16.0630 C   0  0  0  0  0  0  0  0  0  0  0  0
   15.3724  -18.8957  -15.0169 N   0  0  0  0  0  0  0  0  0  0  0  0
   20.8929  -14.3926  -16.8547 C   0  0  0  0  0  0  0  0  0  0  0  0
   21.8156  -14.3642  -16.0195 O   0  0  0  0  0  0  0  0  0  0  0  0
   21.2158   -9.6922  -18.2960 O   0  0  0  0  0  0  0  0  0  0  0  0
   20.6387  -10.9569  -18.4064 C   0  0  0  0  0  0  0  0  0  0  0  0
   21.0614  -11.9029  -17.2980 C   0  0  2  0  0  0  0  0  0  0  0  0
   20.4976  -13.2223  -17.5363 N   0  0  0  0  0  0  0  0  0  0  0  0
   20.7994  -11.3853  -15.9441 C   0  0  0  0  0  0  0  0  0  0  0  0
   19.7258  -11.7133  -15.3094 O   0  0  0  0  0  0  0  0  0  0  0  0
   21.6555  -10.5314  -15.2531 N   0  0  0  0  0  0  0  0  0  0  0  0
   22.9243  -10.0000  -15.7864 C   0  0  0  0  0  0  0  0  0  0  0  0
   23.7150   -9.5505  -14.5780 C   0  0  0  0  0  0  0  0  0  0  0  0
   22.9846  -10.2903  -13.4514 C   0  0  0  0  0  0  0  0  0  0  0  0
   21.5412  -10.0097  -13.9219 C   0  0  1  0  0  0  0  0  0  0  0  0
   21.3976   -8.5094  -14.0791 C   0  0  0  0  0  0  0  0  0  0  0  0
   21.4831   -7.9448  -15.1940 O   0  0  0  0  0  0  0  0  0  0  0  0
   21.1641   -7.7230  -12.9651 O   0  0  0  0  0  0  0  0  0  0  0  0
  2  1  1  1
  3  2  1  0
  4  3  1  0
  5  4  1  0
  5  6  1  0
  7  6  1  0
  8 13  1  0
  8  2  1  0
  9  8  2  0
 11 10  1  0
 12 11  1  6
 12 14  1  0
 12 13  1  0
 14 15  2  0
 16 20  1  0
 16 14  1  0
 17 18  1  0
 17 16  1  0
 18 19  1  0
 20 19  1  0
 20 21  1  6
 22 21  2  0
 23 21  1  0
M  END
$$$$
