KSP.pdb
     RDKit          3D

 23 23  0  0  1  0  0  0  0  0999 V2000
   28.8356  -21.4142  -17.9623 N   0  0  0  0  0  0  0  0  0  0  0  0
   27.9966  -22.2498  -17.1307 C   0  0  1  0  0  0  0  0  0  0  0  0
   28.6734  -23.5423  -16.8048 C   0  0  0  0  0  0  0  0  0  0  0  0
   28.6740  -24.4778  -17.9744 C   0  0  0  0  0  0  0  0  0  0  0  0
   27.2940  -24.7885  -18.4847 C   0  0  0  0  0  0  0  0  0  0  0  0
   27.4498  -25.7470  -19.6699 C   0  0  0  0  0  0  0  0  0  0  0  0
   26.1393  -25.9639  -20.2400 N   0  0  0  0  0  0  0  0  0  0  0  0
   27.6132  -21.5049  -15.8842 C   0  0  0  0  0  0  0  0  0  0  0  0
   28.4580  -21.4291  -14.9730 O   0  0  0  0  0  0  0  0  0  0  0  0
   24.3447  -19.0427  -15.9948 O   0  0  0  0  0  0  0  0  0  0  0  0
   25.2059  -18.9314  -14.9036 C   0  0  0  0  0  0  0  0  0  0  0  0
   25.8760  -20.2427  -14.5381 C   0  0  2  0  0  0  0  0  0  0  0  0
   26.3421  -20.9092  -15.7439 N   0  0  0  0  0  0  0  0  0  0  0  0
   25.0585  -21.1039  -13.6665 C   0  0  0  0  0  0  0  0  0  0  0  0
   24.5937  -22.2267  -14.0981 O   0  0  0  0  0  0  0  0  0  0  0  0
   24.7299  -20.7971  -12.3485 N   0  0  0  0  0  0  0  0  0  0  0  0
   25.2073  -19.6079  -11.6175 C   0  0  0  0  0  0  0  0  0  0  0  0
   25.0163  -19.9294  -10.1519 C   0  0  0  0  0  0  0  0  0  0  0  0
   24.8623  -21.4539  -10.1986 C   0  0  0  0  0  0  0  0  0  0  0  0
   23.9193  -21.5290  -11.4186 C   0  0  1  0  0  0  0  0  0  0  0  0
   22.7259  -20.6420  -11.1264 C   0  0  0  0  0  0  0  0  0  0  0  0
   22.6952  -19.4349  -11.4595 O   0  0  0  0  0  0  0  0  0  0  0  0
   21.6262  -21.1667  -10.4712 O   0  0  0  0  0  0  0  0  0  0  0  0
  2  1  1  6
  3  2  1  0
  4  3  1  0
  5  4  1  0
  5  6  1  0
  7  6  1  0
  8 13  1  0
  8  2  1  0
  9  8  2  0
 11 10  1  0
 12 11  1  6
 12 14  1  0
 12 13  1  0
 14 15  2  0
 16 20  1  0
 16 14  1  0
 17 18  1  0
 17 16  1  0
 18 19  1  0
 20 19  1  0
 20 21  1  1
 22 21  2  0
 23 21  1  0
M  END
$$$$
