KSP.pdb
     RDKit          3D

 23 23  0  0  1  0  0  0  0  0999 V2000
   18.7799  -13.1176  -17.5925 N   0  0  0  0  0  0  0  0  0  0  0  0
   19.8906  -12.2340  -17.8745 C   0  0  1  0  0  0  0  0  0  0  0  0
   19.7720  -11.6338  -19.2385 C   0  0  0  0  0  0  0  0  0  0  0  0
   20.0494  -12.6399  -20.3127 C   0  0  0  0  0  0  0  0  0  0  0  0
   21.4568  -13.1686  -20.2797 C   0  0  0  0  0  0  0  0  0  0  0  0
   21.6227  -14.1030  -21.4824 C   0  0  0  0  0  0  0  0  0  0  0  0
   22.9700  -14.6260  -21.4553 N   0  0  0  0  0  0  0  0  0  0  0  0
   19.9767  -11.1718  -16.8163 C   0  0  0  0  0  0  0  0  0  0  0  0
   18.9306  -10.5666  -16.5181 O   0  0  0  0  0  0  0  0  0  0  0  0
   22.8083   -9.0699  -13.3998 O   0  0  0  0  0  0  0  0  0  0  0  0
   22.6440   -9.9971  -14.4284 C   0  0  0  0  0  0  0  0  0  0  0  0
   21.3794   -9.7722  -15.2361 C   0  0  2  0  0  0  0  0  0  0  0  0
   21.1971  -10.8653  -16.1781 N   0  0  0  0  0  0  0  0  0  0  0  0
   21.3016   -8.4390  -15.8575 C   0  0  0  0  0  0  0  0  0  0  0  0
   21.7360   -8.2440  -17.0559 O   0  0  0  0  0  0  0  0  0  0  0  0
   20.7695   -7.3138  -15.2327 N   0  0  0  0  0  0  0  0  0  0  0  0
   20.2080   -7.2959  -13.8685 C   0  0  0  0  0  0  0  0  0  0  0  0
   19.3438   -6.0562  -13.8024 C   0  0  0  0  0  0  0  0  0  0  0  0
   19.1570   -5.7430  -15.2914 C   0  0  0  0  0  0  0  0  0  0  0  0
   20.6161   -5.9799  -15.7369 C   0  0  1  0  0  0  0  0  0  0  0  0
   21.5032   -5.1084  -14.8710 C   0  0  0  0  0  0  0  0  0  0  0  0
   22.0097   -5.5252  -13.8039 O   0  0  0  0  0  0  0  0  0  0  0  0
   21.7727   -3.8075  -15.2572 O   0  0  0  0  0  0  0  0  0  0  0  0
  2  1  1  1
  3  2  1  0
  4  3  1  0
  5  4  1  0
  5  6  1  0
  7  6  1  0
  8 13  1  0
  8  2  1  0
  9  8  2  0
 11 10  1  0
 12 11  1  6
 12 14  1  0
 12 13  1  0
 14 15  2  0
 16 20  1  0
 16 14  1  0
 17 18  1  0
 17 16  1  0
 18 19  1  0
 20 19  1  0
 20 21  1  1
 22 21  2  0
 23 21  1  0
M  END
$$$$
