KSP.pdb
     RDKit          3D

 23 23  0  0  1  0  0  0  0  0999 V2000
   17.0006  -11.3932  -16.9467 N   0  0  0  0  0  0  0  0  0  0  0  0
   18.1695  -11.0980  -16.1464 C   0  0  1  0  0  0  0  0  0  0  0  0
   19.4245  -11.4977  -16.8534 C   0  0  0  0  0  0  0  0  0  0  0  0
   19.2728  -12.8151  -17.5496 C   0  0  0  0  0  0  0  0  0  0  0  0
   19.6476  -13.9878  -16.6860 C   0  0  0  0  0  0  0  0  0  0  0  0
   19.4598  -15.2541  -17.5278 C   0  0  0  0  0  0  0  0  0  0  0  0
   19.8442  -16.3870  -16.7164 N   0  0  0  0  0  0  0  0  0  0  0  0
   18.1854   -9.6395  -15.7884 C   0  0  0  0  0  0  0  0  0  0  0  0
   18.3498   -8.8196  -16.7106 O   0  0  0  0  0  0  0  0  0  0  0  0
   18.4619   -8.5036  -11.6719 O   0  0  0  0  0  0  0  0  0  0  0  0
   17.7665   -7.6943  -12.5698 C   0  0  0  0  0  0  0  0  0  0  0  0
   18.2472   -7.8437  -14.0012 C   0  0  2  0  0  0  0  0  0  0  0  0
   18.0204   -9.2065  -14.4559 N   0  0  0  0  0  0  0  0  0  0  0  0
   19.6257   -7.3717  -14.2164 C   0  0  0  0  0  0  0  0  0  0  0  0
   20.5971   -8.2103  -14.3436 O   0  0  0  0  0  0  0  0  0  0  0  0
   19.9896   -6.0302  -14.3022 N   0  0  0  0  0  0  0  0  0  0  0  0
   19.0504   -4.8963  -14.2090 C   0  0  0  0  0  0  0  0  0  0  0  0
   19.7746   -3.7188  -14.8227 C   0  0  0  0  0  0  0  0  0  0  0  0
   20.8868   -4.4272  -15.6046 C   0  0  0  0  0  0  0  0  0  0  0  0
   21.2835   -5.4502  -14.5186 C   0  0  1  0  0  0  0  0  0  0  0  0
   21.6022   -4.6736  -13.2569 C   0  0  0  0  0  0  0  0  0  0  0  0
   20.7280   -4.4045  -12.4011 O   0  0  0  0  0  0  0  0  0  0  0  0
   22.8958   -4.2404  -13.0274 O   0  0  0  0  0  0  0  0  0  0  0  0
  2  1  1  6
  3  2  1  0
  4  3  1  0
  5  4  1  0
  5  6  1  0
  7  6  1  0
  8 13  1  0
  8  2  1  0
  9  8  2  0
 11 10  1  0
 12 11  1  1
 12 14  1  0
 12 13  1  0
 14 15  2  0
 16 20  1  0
 16 14  1  0
 17 18  1  0
 17 16  1  0
 18 19  1  0
 20 19  1  0
 20 21  1  1
 22 21  2  0
 23 21  1  0
M  END
$$$$
