KSP.pdb
     RDKit          3D

 23 23  0  0  1  0  0  0  0  0999 V2000
   22.2442  -17.4822  -17.5279 N   0  0  0  0  0  0  0  0  0  0  0  0
   21.3861  -16.3171  -17.5411 C   0  0  1  0  0  0  0  0  0  0  0  0
   20.1383  -16.5550  -16.7531 C   0  0  0  0  0  0  0  0  0  0  0  0
   19.3256  -17.6747  -17.3267 C   0  0  0  0  0  0  0  0  0  0  0  0
   18.0363  -17.9089  -16.5890 C   0  0  0  0  0  0  0  0  0  0  0  0
   17.3427  -19.1051  -17.2488 C   0  0  0  0  0  0  0  0  0  0  0  0
   17.9469  -20.3107  -16.7282 N   0  0  0  0  0  0  0  0  0  0  0  0
   22.1392  -15.1250  -17.0242 C   0  0  0  0  0  0  0  0  0  0  0  0
   22.8635  -15.2875  -16.0248 O   0  0  0  0  0  0  0  0  0  0  0  0
   22.3463  -11.3702  -19.2190 O   0  0  0  0  0  0  0  0  0  0  0  0
   23.3207  -11.9438  -18.4027 C   0  0  0  0  0  0  0  0  0  0  0  0
   22.7403  -12.6694  -17.2032 C   0  0  2  0  0  0  0  0  0  0  0  0
   22.0346  -13.8622  -17.6445 N   0  0  0  0  0  0  0  0  0  0  0  0
   21.9418  -11.8057  -16.3167 C   0  0  0  0  0  0  0  0  0  0  0  0
   20.6536  -11.8649  -16.3243 O   0  0  0  0  0  0  0  0  0  0  0  0
   22.4846  -10.8861  -15.4228 N   0  0  0  0  0  0  0  0  0  0  0  0
   23.9269  -10.6213  -15.2606 C   0  0  0  0  0  0  0  0  0  0  0  0
   24.0672   -9.9557  -13.9097 C   0  0  0  0  0  0  0  0  0  0  0  0
   22.7290  -10.3208  -13.2568 C   0  0  0  0  0  0  0  0  0  0  0  0
   21.8218  -10.0391  -14.4738 C   0  0  1  0  0  0  0  0  0  0  0  0
   22.0968   -8.6195  -14.9272 C   0  0  0  0  0  0  0  0  0  0  0  0
   22.7955   -8.3652  -15.9352 O   0  0  0  0  0  0  0  0  0  0  0  0
   21.5663   -7.5581  -14.2159 O   0  0  0  0  0  0  0  0  0  0  0  0
  2  1  1  1
  3  2  1  0
  4  3  1  0
  5  4  1  0
  5  6  1  0
  7  6  1  0
  8 13  1  0
  8  2  1  0
  9  8  2  0
 11 10  1  0
 12 11  1  6
 12 14  1  0
 12 13  1  0
 14 15  2  0
 16 20  1  0
 16 14  1  0
 17 18  1  0
 17 16  1  0
 18 19  1  0
 20 19  1  0
 20 21  1  6
 22 21  2  0
 23 21  1  0
M  END
$$$$
