KSP.pdb
     RDKit          3D

 23 23  0  0  1  0  0  0  0  0999 V2000
   24.7691  -20.8196   -7.6214 N   0  0  0  0  0  0  0  0  0  0  0  0
   25.7735  -20.2718   -8.5073 C   0  0  1  0  0  0  0  0  0  0  0  0
   27.1231  -20.2769   -7.8644 C   0  0  0  0  0  0  0  0  0  0  0  0
   27.0930  -19.6432   -6.5076 C   0  0  0  0  0  0  0  0  0  0  0  0
   28.4309  -19.6499   -5.8212 C   0  0  0  0  0  0  0  0  0  0  0  0
   28.2926  -18.8185   -4.5417 C   0  0  0  0  0  0  0  0  0  0  0  0
   29.5661  -18.8413   -3.8582 N   0  0  0  0  0  0  0  0  0  0  0  0
   25.7821  -21.0354   -9.8005 C   0  0  0  0  0  0  0  0  0  0  0  0
   26.7680  -21.7568  -10.0394 O   0  0  0  0  0  0  0  0  0  0  0  0
   22.5127  -20.5918  -12.5323 O   0  0  0  0  0  0  0  0  0  0  0  0
   23.4567  -21.6062  -12.6894 C   0  0  0  0  0  0  0  0  0  0  0  0
   24.8215  -21.2399  -12.1369 C   0  0  2  0  0  0  0  0  0  0  0  0
   24.7135  -20.9435  -10.7170 N   0  0  0  0  0  0  0  0  0  0  0  0
   25.5116  -20.1914  -12.9075 C   0  0  0  0  0  0  0  0  0  0  0  0
   25.5687  -18.9803  -12.4681 O   0  0  0  0  0  0  0  0  0  0  0  0
   26.1428  -20.4056  -14.1302 N   0  0  0  0  0  0  0  0  0  0  0  0
   26.1526  -21.6887  -14.8584 C   0  0  0  0  0  0  0  0  0  0  0  0
   27.3100  -21.5956  -15.8276 C   0  0  0  0  0  0  0  0  0  0  0  0
   28.1092  -20.4333  -15.2273 C   0  0  0  0  0  0  0  0  0  0  0  0
   26.9185  -19.4982  -14.9253 C   0  0  1  0  0  0  0  0  0  0  0  0
   26.1442  -19.3167  -16.2153 C   0  0  0  0  0  0  0  0  0  0  0  0
   25.1152  -19.9822  -16.4743 O   0  0  0  0  0  0  0  0  0  0  0  0
   26.5743  -18.3898  -17.1479 O   0  0  0  0  0  0  0  0  0  0  0  0
  2  1  1  1
  3  2  1  0
  4  3  1  0
  5  4  1  0
  5  6  1  0
  7  6  1  0
  8 13  1  0
  8  2  1  0
  9  8  2  0
 11 10  1  0
 12 11  1  6
 12 14  1  0
 12 13  1  0
 14 15  2  0
 16 20  1  0
 16 14  1  0
 17 18  1  0
 17 16  1  0
 18 19  1  0
 20 19  1  0
 20 21  1  6
 22 21  2  0
 23 21  1  0
M  END
$$$$
