HVA.pdb
     RDKit          3D

 23 23  0  0  1  0  0  0  0  0999 V2000
    8.3126  -15.6423   20.7894 N   0  0  0  0  0  0  0  0  0  0  0  0
    8.5322  -16.2743   22.0516 C   0  0  1  0  0  0  0  0  0  0  0  0
    9.5981  -17.3334   22.0090 C   0  0  0  0  0  0  0  0  0  0  0  0
    9.1028  -18.4501   21.1632 C   0  0  0  0  0  0  0  0  0  0  0  0
    7.9526  -19.1718   21.2598 C   0  0  0  0  0  0  0  0  0  0  0  0
    7.8801  -20.1033   20.2924 N   0  0  0  0  0  0  0  0  0  0  0  0
    8.9971  -19.9715   19.5733 C   0  0  0  0  0  0  0  0  0  0  0  0
    9.7593  -18.9682   20.0861 N   0  0  0  0  0  0  0  0  0  0  0  0
    8.8071  -15.2459   23.0996 C   0  0  0  0  0  0  0  0  0  0  0  0
    9.7846  -14.4434   22.9886 O   0  0  0  0  0  0  0  0  0  0  0  0
    6.2646  -12.7532   24.6318 C   0  0  0  0  0  0  0  0  0  0  0  0
    6.9451  -13.5204   25.7759 C   0  0  2  0  0  0  0  0  0  0  0  0
    7.1915  -12.4822   26.8447 C   0  0  0  0  0  0  0  0  0  0  0  0
    8.2609  -14.0576   25.2533 C   0  0  2  0  0  0  0  0  0  0  0  0
    8.0119  -15.1028   24.2600 N   0  0  0  0  0  0  0  0  0  0  0  0
    9.0323  -14.6870   26.3449 C   0  0  0  0  0  0  0  0  0  0  0  0
    8.7915  -15.9174   26.6041 O   0  0  0  0  0  0  0  0  0  0  0  0
   11.3708  -13.7344   29.1072 C   0  0  0  0  0  0  0  0  0  0  0  0
   10.7259  -14.7820   28.2029 C   0  0  2  0  0  0  0  0  0  0  0  0
   10.0138  -14.0771   27.1376 N   0  0  0  0  0  0  0  0  0  0  0  0
    9.8412  -15.6819   28.9505 C   0  0  0  0  0  0  0  0  0  0  0  0
    8.7316  -15.2672   29.3560 O   0  0  0  0  0  0  0  0  0  0  0  0
   10.1910  -16.9904   29.2287 O   0  0  0  0  0  0  0  0  0  0  0  0
  2  1  1  6
  2  3  1  0
  4  3  1  0
  5  4  2  0
  6  7  1  0
  6  5  1  0
  7  8  2  0
  8  4  1  0
  9 15  1  0
  9  2  1  0
 10  9  2  0
 12 11  1  6
 12 14  1  0
 13 12  1  0
 14 15  1  6
 16 14  1  0
 17 16  2  0
 19 18  1  1
 19 21  1  0
 19 20  1  0
 20 16  1  0
 21 23  1  0
 22 21  2  0
M  END
$$$$
