HVA.pdb
     RDKit          3D

 23 23  0  0  1  0  0  0  0  0999 V2000
    7.6627  -17.0113   22.1292 N   0  0  0  0  0  0  0  0  0  0  0  0
    8.6912  -16.0672   21.8266 C   0  0  1  0  0  0  0  0  0  0  0  0
    8.4306  -15.2868   20.5685 C   0  0  0  0  0  0  0  0  0  0  0  0
    8.4781  -16.2320   19.4231 C   0  0  0  0  0  0  0  0  0  0  0  0
    9.2966  -17.2981   19.2072 C   0  0  0  0  0  0  0  0  0  0  0  0
    9.0145  -17.8988   18.0375 N   0  0  0  0  0  0  0  0  0  0  0  0
    8.0054  -17.2062   17.5045 C   0  0  0  0  0  0  0  0  0  0  0  0
    7.6607  -16.1836   18.3326 N   0  0  0  0  0  0  0  0  0  0  0  0
    8.9294  -15.1739   22.9998 C   0  0  0  0  0  0  0  0  0  0  0  0
    9.8847  -14.3376   23.0024 O   0  0  0  0  0  0  0  0  0  0  0  0
    6.7090  -12.7176   24.7808 C   0  0  0  0  0  0  0  0  0  0  0  0
    7.1641  -13.7259   25.8470 C   0  0  2  0  0  0  0  0  0  0  0  0
    7.4678  -12.8883   27.0665 C   0  0  0  0  0  0  0  0  0  0  0  0
    8.4258  -14.3941   25.3423 C   0  0  2  0  0  0  0  0  0  0  0  0
    8.1221  -15.2014   24.1604 N   0  0  0  0  0  0  0  0  0  0  0  0
    8.9629  -15.3203   26.3604 C   0  0  0  0  0  0  0  0  0  0  0  0
    8.1864  -16.2459   26.7840 O   0  0  0  0  0  0  0  0  0  0  0  0
   12.2032  -16.5222   27.6369 C   0  0  0  0  0  0  0  0  0  0  0  0
   10.7130  -16.2966   27.8812 C   0  0  2  0  0  0  0  0  0  0  0  0
   10.2474  -15.2978   26.9198 N   0  0  0  0  0  0  0  0  0  0  0  0
   10.4389  -15.8941   29.2649 C   0  0  0  0  0  0  0  0  0  0  0  0
   10.2111  -14.6916   29.5288 O   0  0  0  0  0  0  0  0  0  0  0  0
   10.4223  -16.8057   30.3044 O   0  0  0  0  0  0  0  0  0  0  0  0
  2  1  1  1
  2  3  1  0
  4  3  1  0
  5  4  2  0
  6  7  1  0
  6  5  1  0
  7  8  2  0
  8  4  1  0
  9 15  1  0
  9  2  1  0
 10  9  2  0
 12 11  1  6
 12 14  1  0
 13 12  1  0
 14 15  1  6
 16 14  1  0
 17 16  2  0
 19 18  1  1
 19 21  1  0
 19 20  1  0
 20 16  1  0
 21 23  1  0
 22 21  2  0
M  END
$$$$
