HVA.pdb
     RDKit          3D

 23 23  0  0  1  0  0  0  0  0999 V2000
    9.3889  -17.1414   15.9109 N   0  0  0  0  0  0  0  0  0  0  0  0
    8.7738  -17.4635   17.1593 C   0  0  1  0  0  0  0  0  0  0  0  0
    8.9825  -18.8934   17.5736 C   0  0  0  0  0  0  0  0  0  0  0  0
    7.9505  -19.7226   16.8991 C   0  0  0  0  0  0  0  0  0  0  0  0
    6.6512  -19.4336   16.6135 C   0  0  0  0  0  0  0  0  0  0  0  0
    6.0495  -20.4627   15.9910 N   0  0  0  0  0  0  0  0  0  0  0  0
    6.9772  -21.4162   15.8802 C   0  0  0  0  0  0  0  0  0  0  0  0
    8.1463  -20.9871   16.4276 N   0  0  0  0  0  0  0  0  0  0  0  0
    9.2202  -16.5047   18.2141 C   0  0  0  0  0  0  0  0  0  0  0  0
   10.4539  -16.3126   18.4441 O   0  0  0  0  0  0  0  0  0  0  0  0
    7.5303  -12.8455   19.3432 C   0  0  0  0  0  0  0  0  0  0  0  0
    7.6421  -13.9121   20.4434 C   0  0  2  0  0  0  0  0  0  0  0  0
    8.0049  -13.1433   21.6917 C   0  0  0  0  0  0  0  0  0  0  0  0
    8.7655  -14.8531   20.0619 C   0  0  2  0  0  0  0  0  0  0  0  0
    8.3153  -15.7638   19.0089 N   0  0  0  0  0  0  0  0  0  0  0  0
    9.1479  -15.6952   21.2141 C   0  0  0  0  0  0  0  0  0  0  0  0
    8.3155  -16.5918   21.5916 O   0  0  0  0  0  0  0  0  0  0  0  0
   12.1699  -16.5398   23.2297 C   0  0  0  0  0  0  0  0  0  0  0  0
   10.6541  -16.5335   23.0466 C   0  0  2  0  0  0  0  0  0  0  0  0
   10.3392  -15.6208   21.9482 N   0  0  0  0  0  0  0  0  0  0  0  0
    9.9540  -16.1655   24.2820 C   0  0  0  0  0  0  0  0  0  0  0  0
    9.4930  -15.0090   24.4142 O   0  0  0  0  0  0  0  0  0  0  0  0
    9.7811  -17.0606   25.3216 O   0  0  0  0  0  0  0  0  0  0  0  0
  2  1  1  6
  2  3  1  0
  4  3  1  0
  5  4  2  0
  6  7  1  0
  6  5  1  0
  7  8  2  0
  8  4  1  0
  9 15  1  0
  9  2  1  0
 10  9  2  0
 12 11  1  6
 12 14  1  0
 13 12  1  0
 14 15  1  6
 16 14  1  0
 17 16  2  0
 19 18  1  1
 19 21  1  0
 19 20  1  0
 20 16  1  0
 21 23  1  0
 22 21  2  0
M  END
$$$$
