HVA.pdb
     RDKit          3D

 23 23  0  0  1  0  0  0  0  0999 V2000
   10.2250  -16.6715   15.5255 N   0  0  0  0  0  0  0  0  0  0  0  0
    9.4615  -17.0628   16.6677 C   0  0  1  0  0  0  0  0  0  0  0  0
    9.6694  -18.4995   17.0582 C   0  0  0  0  0  0  0  0  0  0  0  0
    9.0944  -19.3546   15.9878 C   0  0  0  0  0  0  0  0  0  0  0  0
    8.3636  -19.0062   14.8934 C   0  0  0  0  0  0  0  0  0  0  0  0
    8.0303  -20.0877   14.1667 N   0  0  0  0  0  0  0  0  0  0  0  0
    8.5553  -21.1347   14.8071 C   0  0  0  0  0  0  0  0  0  0  0  0
    9.2098  -20.7118   15.9221 N   0  0  0  0  0  0  0  0  0  0  0  0
    9.7243  -16.1305   17.8048 C   0  0  0  0  0  0  0  0  0  0  0  0
   10.9044  -15.7538   18.0829 O   0  0  0  0  0  0  0  0  0  0  0  0
    7.4431  -12.9556   18.8685 C   0  0  0  0  0  0  0  0  0  0  0  0
    7.7172  -13.8974   20.0510 C   0  0  2  0  0  0  0  0  0  0  0  0
    7.9684  -12.9810   21.2249 C   0  0  0  0  0  0  0  0  0  0  0  0
    8.9655  -14.6918   19.7292 C   0  0  2  0  0  0  0  0  0  0  0  0
    8.6958  -15.6173   18.6285 N   0  0  0  0  0  0  0  0  0  0  0  0
    9.3657  -15.5173   20.8873 C   0  0  0  0  0  0  0  0  0  0  0  0
    8.6156  -16.5090   21.1922 O   0  0  0  0  0  0  0  0  0  0  0  0
   12.2567  -15.8631   23.2629 C   0  0  0  0  0  0  0  0  0  0  0  0
   10.8793  -16.2747   22.7486 C   0  0  2  0  0  0  0  0  0  0  0  0
   10.4930  -15.3326   21.6989 N   0  0  0  0  0  0  0  0  0  0  0  0
    9.8859  -16.3312   23.8263 C   0  0  0  0  0  0  0  0  0  0  0  0
    9.1721  -15.3311   24.0666 O   0  0  0  0  0  0  0  0  0  0  0  0
    9.7050  -17.4638   24.5986 O   0  0  0  0  0  0  0  0  0  0  0  0
  2  1  1  6
  2  3  1  0
  4  3  1  0
  5  4  2  0
  6  7  1  0
  6  5  1  0
  7  8  2  0
  8  4  1  0
  9 15  1  0
  9  2  1  0
 10  9  2  0
 12 11  1  6
 12 14  1  0
 13 12  1  0
 14 15  1  6
 16 14  1  0
 17 16  2  0
 19 18  1  1
 19 21  1  0
 19 20  1  0
 20 16  1  0
 21 23  1  0
 22 21  2  0
M  END
$$$$
