HVA.pdb
     RDKit          3D

 23 23  0  0  1  0  0  0  0  0999 V2000
   12.9611  -15.4624   17.3927 N   0  0  0  0  0  0  0  0  0  0  0  0
   11.8397  -16.1401   17.9620 C   0  0  1  0  0  0  0  0  0  0  0  0
   12.1424  -17.5565   18.3643 C   0  0  0  0  0  0  0  0  0  0  0  0
   12.3104  -18.3601   17.1259 C   0  0  0  0  0  0  0  0  0  0  0  0
   13.0660  -18.1101   16.0215 C   0  0  0  0  0  0  0  0  0  0  0  0
   12.9404  -19.0941   15.1133 N   0  0  0  0  0  0  0  0  0  0  0  0
   12.0953  -19.9790   15.6472 C   0  0  0  0  0  0  0  0  0  0  0  0
   11.6973  -19.5523   16.8760 N   0  0  0  0  0  0  0  0  0  0  0  0
   11.2801  -15.3441   19.0953 C   0  0  0  0  0  0  0  0  0  0  0  0
   12.0391  -14.8455   19.9825 O   0  0  0  0  0  0  0  0  0  0  0  0
    8.1580  -12.7596   18.8745 C   0  0  0  0  0  0  0  0  0  0  0  0
    7.9876  -13.7853   20.0056 C   0  0  2  0  0  0  0  0  0  0  0  0
    7.4143  -12.9970   21.1592 C   0  0  0  0  0  0  0  0  0  0  0  0
    9.3616  -14.3125   20.3619 C   0  0  2  0  0  0  0  0  0  0  0  0
    9.8960  -15.0994   19.2501 N   0  0  0  0  0  0  0  0  0  0  0  0
    9.2810  -15.2221   21.5234 C   0  0  0  0  0  0  0  0  0  0  0  0
    8.7698  -16.3801   21.3314 O   0  0  0  0  0  0  0  0  0  0  0  0
   10.2384  -15.3118   25.1604 C   0  0  0  0  0  0  0  0  0  0  0  0
    9.5776  -15.9156   23.9235 C   0  0  2  0  0  0  0  0  0  0  0  0
    9.7104  -14.9537   22.8300 N   0  0  0  0  0  0  0  0  0  0  0  0
    8.1770  -16.2745   24.1700 C   0  0  0  0  0  0  0  0  0  0  0  0
    7.2722  -15.4392   23.9435 O   0  0  0  0  0  0  0  0  0  0  0  0
    7.8121  -17.5188   24.6502 O   0  0  0  0  0  0  0  0  0  0  0  0
  2  1  1  1
  2  3  1  0
  4  3  1  0
  5  4  2  0
  6  7  1  0
  6  5  1  0
  7  8  2  0
  8  4  1  0
  9 15  1  0
  9  2  1  0
 10  9  2  0
 12 11  1  6
 12 14  1  0
 13 12  1  0
 14 15  1  6
 16 14  1  0
 17 16  2  0
 19 18  1  1
 19 21  1  0
 19 20  1  0
 20 16  1  0
 21 23  1  0
 22 21  2  0
M  END
$$$$
