HVA.pdb
     RDKit          3D

 23 23  0  0  1  0  0  0  0  0999 V2000
    9.3493  -17.6270   16.9234 N   0  0  0  0  0  0  0  0  0  0  0  0
    8.5595  -17.6999   18.1116 C   0  0  1  0  0  0  0  0  0  0  0  0
    8.4730  -19.0873   18.6838 C   0  0  0  0  0  0  0  0  0  0  0  0
    7.5641  -19.8847   17.8204 C   0  0  0  0  0  0  0  0  0  0  0  0
    6.3899  -19.5298   17.2302 C   0  0  0  0  0  0  0  0  0  0  0  0
    5.8718  -20.5509   16.5248 N   0  0  0  0  0  0  0  0  0  0  0  0
    6.7269  -21.5660   16.6689 C   0  0  0  0  0  0  0  0  0  0  0  0
    7.7681  -21.1829   17.4559 N   0  0  0  0  0  0  0  0  0  0  0  0
    9.0512  -16.7100   19.1164 C   0  0  0  0  0  0  0  0  0  0  0  0
   10.2936  -16.5453   19.3191 O   0  0  0  0  0  0  0  0  0  0  0  0
    7.5306  -13.0103   19.9015 C   0  0  0  0  0  0  0  0  0  0  0  0
    7.6270  -13.8977   21.1520 C   0  0  2  0  0  0  0  0  0  0  0  0
    8.0873  -12.9689   22.2505 C   0  0  0  0  0  0  0  0  0  0  0  0
    8.6761  -14.9570   20.8870 C   0  0  2  0  0  0  0  0  0  0  0  0
    8.1816  -15.9083   19.8913 N   0  0  0  0  0  0  0  0  0  0  0  0
    8.9487  -15.7330   22.1143 C   0  0  0  0  0  0  0  0  0  0  0  0
    8.0028  -16.4645   22.5720 O   0  0  0  0  0  0  0  0  0  0  0  0
   11.7693  -17.1279   23.9937 C   0  0  0  0  0  0  0  0  0  0  0  0
   10.3391  -16.5945   24.0258 C   0  0  2  0  0  0  0  0  0  0  0  0
   10.1461  -15.7582   22.8417 N   0  0  0  0  0  0  0  0  0  0  0  0
   10.0543  -15.8632   25.2650 C   0  0  0  0  0  0  0  0  0  0  0  0
    9.8800  -14.6239   25.2292 O   0  0  0  0  0  0  0  0  0  0  0  0
    9.9696  -16.4998   26.4895 O   0  0  0  0  0  0  0  0  0  0  0  0
  2  1  1  6
  2  3  1  0
  4  3  1  0
  5  4  2  0
  6  7  1  0
  6  5  1  0
  7  8  2  0
  8  4  1  0
  9 15  1  0
  9  2  1  0
 10  9  2  0
 12 11  1  6
 12 14  1  0
 13 12  1  0
 14 15  1  6
 16 14  1  0
 17 16  2  0
 19 18  1  1
 19 21  1  0
 19 20  1  0
 20 16  1  0
 21 23  1  0
 22 21  2  0
M  END
$$$$
