HVA.pdb
     RDKit          3D

 23 23  0  0  1  0  0  0  0  0999 V2000
    9.1071  -17.6718   16.1718 N   0  0  0  0  0  0  0  0  0  0  0  0
    8.2013  -17.6515   17.2764 C   0  0  1  0  0  0  0  0  0  0  0  0
    7.7882  -19.0232   17.7319 C   0  0  0  0  0  0  0  0  0  0  0  0
    7.0265  -19.6638   16.6288 C   0  0  0  0  0  0  0  0  0  0  0  0
    5.7249  -19.5056   16.2628 C   0  0  0  0  0  0  0  0  0  0  0  0
    5.4210  -20.2747   15.2022 N   0  0  0  0  0  0  0  0  0  0  0  0
    6.5424  -20.9287   14.8911 C   0  0  0  0  0  0  0  0  0  0  0  0
    7.5364  -20.5719   15.7484 N   0  0  0  0  0  0  0  0  0  0  0  0
    8.7715  -16.8394   18.3929 C   0  0  0  0  0  0  0  0  0  0  0  0
    9.9913  -16.9510   18.7268 O   0  0  0  0  0  0  0  0  0  0  0  0
    7.3631  -13.0595   19.2669 C   0  0  0  0  0  0  0  0  0  0  0  0
    7.6132  -13.9345   20.5049 C   0  0  2  0  0  0  0  0  0  0  0  0
    8.2241  -12.9999   21.5218 C   0  0  0  0  0  0  0  0  0  0  0  0
    8.6064  -15.0098   20.1176 C   0  0  2  0  0  0  0  0  0  0  0  0
    8.0045  -15.9121   19.1354 N   0  0  0  0  0  0  0  0  0  0  0  0
    8.9575  -15.8360   21.2911 C   0  0  0  0  0  0  0  0  0  0  0  0
    8.0390  -16.5774   21.7867 O   0  0  0  0  0  0  0  0  0  0  0  0
   11.1772  -17.9815   22.6743 C   0  0  0  0  0  0  0  0  0  0  0  0
   10.4470  -16.7160   23.1176 C   0  0  2  0  0  0  0  0  0  0  0  0
   10.2036  -15.8996   21.9290 N   0  0  0  0  0  0  0  0  0  0  0  0
   11.1960  -15.9812   24.1426 C   0  0  0  0  0  0  0  0  0  0  0  0
   11.8174  -14.9398   23.8313 O   0  0  0  0  0  0  0  0  0  0  0  0
   11.2428  -16.4011   25.4592 O   0  0  0  0  0  0  0  0  0  0  0  0
  2  1  1  6
  2  3  1  0
  4  3  1  0
  5  4  2  0
  6  7  1  0
  6  5  1  0
  7  8  2  0
  8  4  1  0
  9 15  1  0
  9  2  1  0
 10  9  2  0
 12 11  1  6
 12 14  1  0
 13 12  1  0
 14 15  1  6
 16 14  1  0
 17 16  2  0
 19 18  1  6
 19 21  1  0
 19 20  1  0
 20 16  1  0
 21 23  1  0
 22 21  2  0
M  END
$$$$
