HVA.pdb
     RDKit          3D

 23 23  0  0  1  0  0  0  0  0999 V2000
    8.4060  -15.2966   20.7593 N   0  0  0  0  0  0  0  0  0  0  0  0
    8.4069  -16.0657   21.9632 C   0  0  1  0  0  0  0  0  0  0  0  0
    9.2317  -17.3188   21.8676 C   0  0  0  0  0  0  0  0  0  0  0  0
    8.6251  -18.1901   20.8282 C   0  0  0  0  0  0  0  0  0  0  0  0
    7.5361  -19.0037   20.9010 C   0  0  0  0  0  0  0  0  0  0  0  0
    7.3165  -19.6284   19.7303 N   0  0  0  0  0  0  0  0  0  0  0  0
    8.2771  -19.2065   18.9048 C   0  0  0  0  0  0  0  0  0  0  0  0
    9.0882  -18.3276   19.5530 N   0  0  0  0  0  0  0  0  0  0  0  0
    8.8186  -15.2117   23.1175 C   0  0  0  0  0  0  0  0  0  0  0  0
    9.9732  -14.6857   23.1635 O   0  0  0  0  0  0  0  0  0  0  0  0
    6.7588  -12.3146   24.9684 C   0  0  0  0  0  0  0  0  0  0  0  0
    7.1941  -13.4142   25.9492 C   0  0  2  0  0  0  0  0  0  0  0  0
    7.5982  -12.6758   27.2031 C   0  0  0  0  0  0  0  0  0  0  0  0
    8.3905  -14.1217   25.3486 C   0  0  2  0  0  0  0  0  0  0  0  0
    7.9657  -14.9394   24.2119 N   0  0  0  0  0  0  0  0  0  0  0  0
    8.9923  -15.0454   26.3323 C   0  0  0  0  0  0  0  0  0  0  0  0
    8.2536  -15.9880   26.7851 O   0  0  0  0  0  0  0  0  0  0  0  0
   12.3730  -15.9708   27.6121 C   0  0  0  0  0  0  0  0  0  0  0  0
   10.8507  -16.0348   27.7094 C   0  0  2  0  0  0  0  0  0  0  0  0
   10.3016  -15.0037   26.8296 N   0  0  0  0  0  0  0  0  0  0  0  0
   10.3825  -15.8819   29.0911 C   0  0  0  0  0  0  0  0  0  0  0  0
    9.9200  -14.7827   29.4724 O   0  0  0  0  0  0  0  0  0  0  0  0
   10.4333  -16.9208   30.0020 O   0  0  0  0  0  0  0  0  0  0  0  0
  2  1  1  6
  2  3  1  0
  4  3  1  0
  5  4  2  0
  6  7  1  0
  6  5  1  0
  7  8  2  0
  8  4  1  0
  9 15  1  0
  9  2  1  0
 10  9  2  0
 12 11  1  6
 12 14  1  0
 13 12  1  0
 14 15  1  6
 16 14  1  0
 17 16  2  0
 19 18  1  1
 19 21  1  0
 19 20  1  0
 20 16  1  0
 21 23  1  0
 22 21  2  0
M  END
$$$$
