HVA.pdb
     RDKit          3D

 23 23  0  0  1  0  0  0  0  0999 V2000
   13.8358  -14.1682   18.0225 N   0  0  0  0  0  0  0  0  0  0  0  0
   12.9995  -15.2149   18.5183 C   0  0  1  0  0  0  0  0  0  0  0  0
   13.7690  -16.4122   19.0020 C   0  0  0  0  0  0  0  0  0  0  0  0
   14.4300  -17.0386   17.8281 C   0  0  0  0  0  0  0  0  0  0  0  0
   14.1454  -16.9196   16.5022 C   0  0  0  0  0  0  0  0  0  0  0  0
   14.9869  -17.6571   15.7560 N   0  0  0  0  0  0  0  0  0  0  0  0
   15.8153  -18.2512   16.6180 C   0  0  0  0  0  0  0  0  0  0  0  0
   15.4947  -17.8886   17.8892 N   0  0  0  0  0  0  0  0  0  0  0  0
   12.0771  -14.6823   19.5656 C   0  0  0  0  0  0  0  0  0  0  0  0
   12.5246  -14.0517   20.5726 O   0  0  0  0  0  0  0  0  0  0  0  0
    8.5686  -12.9308   18.7466 C   0  0  0  0  0  0  0  0  0  0  0  0
    8.4128  -13.9974   19.8414 C   0  0  2  0  0  0  0  0  0  0  0  0
    7.4635  -13.3861   20.8444 C   0  0  0  0  0  0  0  0  0  0  0  0
    9.7726  -14.2150   20.4711 C   0  0  2  0  0  0  0  0  0  0  0  0
   10.6735  -14.8430   19.5042 N   0  0  0  0  0  0  0  0  0  0  0  0
    9.6692  -15.1423   21.6167 C   0  0  0  0  0  0  0  0  0  0  0  0
    9.5235  -16.3874   21.3566 O   0  0  0  0  0  0  0  0  0  0  0  0
    9.7579  -15.0695   25.3770 C   0  0  0  0  0  0  0  0  0  0  0  0
    9.5545  -15.7883   24.0454 C   0  0  2  0  0  0  0  0  0  0  0  0
    9.7157  -14.8042   22.9758 N   0  0  0  0  0  0  0  0  0  0  0  0
    8.2529  -16.4614   23.9787 C   0  0  0  0  0  0  0  0  0  0  0  0
    7.2495  -15.8347   23.5688 O   0  0  0  0  0  0  0  0  0  0  0  0
    8.0894  -17.7813   24.3569 O   0  0  0  0  0  0  0  0  0  0  0  0
  2  1  1  1
  2  3  1  0
  4  3  1  0
  5  4  2  0
  6  7  1  0
  6  5  1  0
  7  8  2  0
  8  4  1  0
  9 15  1  0
  9  2  1  0
 10  9  2  0
 12 11  1  6
 12 14  1  0
 13 12  1  0
 14 15  1  6
 16 14  1  0
 17 16  2  0
 19 18  1  1
 19 21  1  0
 19 20  1  0
 20 16  1  0
 21 23  1  0
 22 21  2  0
M  END
$$$$
