HVA.pdb
     RDKit          3D

 23 23  0  0  1  0  0  0  0  0999 V2000
    8.6924  -15.1939   20.5968 N   0  0  0  0  0  0  0  0  0  0  0  0
    7.8964  -15.4741   21.7494 C   0  0  1  0  0  0  0  0  0  0  0  0
    7.6191  -16.9394   21.9387 C   0  0  0  0  0  0  0  0  0  0  0  0
    6.7525  -17.3914   20.8197 C   0  0  0  0  0  0  0  0  0  0  0  0
    6.2512  -16.6880   19.7675 C   0  0  0  0  0  0  0  0  0  0  0  0
    5.5039  -17.4719   18.9702 N   0  0  0  0  0  0  0  0  0  0  0  0
    5.5308  -18.6870   19.5224 C   0  0  0  0  0  0  0  0  0  0  0  0
    6.2872  -18.6624   20.6528 N   0  0  0  0  0  0  0  0  0  0  0  0
    8.5157  -14.8608   22.9625 C   0  0  0  0  0  0  0  0  0  0  0  0
    9.7642  -14.9491   23.1756 O   0  0  0  0  0  0  0  0  0  0  0  0
    8.0409  -12.2652   27.1805 C   0  0  0  0  0  0  0  0  0  0  0  0
    7.4102  -12.6875   25.8447 C   0  0  2  0  0  0  0  0  0  0  0  0
    6.1403  -13.4096   26.2279 C   0  0  0  0  0  0  0  0  0  0  0  0
    8.3692  -13.6397   25.1617 C   0  0  2  0  0  0  0  0  0  0  0  0
    7.7662  -14.1561   23.9326 N   0  0  0  0  0  0  0  0  0  0  0  0
    8.6387  -14.8088   26.0240 C   0  0  0  0  0  0  0  0  0  0  0  0
    7.6830  -15.6414   26.2045 O   0  0  0  0  0  0  0  0  0  0  0  0
   11.2639  -17.0351   27.0190 C   0  0  0  0  0  0  0  0  0  0  0  0
   10.0184  -16.2997   27.5080 C   0  0  2  0  0  0  0  0  0  0  0  0
    9.8428  -15.1118   26.6734 N   0  0  0  0  0  0  0  0  0  0  0  0
   10.1059  -15.9602   28.9323 C   0  0  0  0  0  0  0  0  0  0  0  0
   10.1608  -14.7594   29.2827 O   0  0  0  0  0  0  0  0  0  0  0  0
   10.1305  -16.9301   29.9175 O   0  0  0  0  0  0  0  0  0  0  0  0
  2  1  1  6
  2  3  1  0
  4  3  1  0
  5  4  2  0
  6  7  1  0
  6  5  1  0
  7  8  2  0
  8  4  1  0
  9 15  1  0
  9  2  1  0
 10  9  2  0
 12 11  1  1
 12 14  1  0
 13 12  1  0
 14 15  1  6
 16 14  1  0
 17 16  2  0
 19 18  1  6
 19 21  1  0
 19 20  1  0
 20 16  1  0
 21 23  1  0
 22 21  2  0
M  END
$$$$
