YGS.pdb
     RDKit          3D

 23 23  0  0  1  0  0  0  0  0999 V2000
   28.3712  -20.3256   -4.9785 O   0  0  0  0  0  0  0  0  0  0  0  0
   27.8741  -20.1910   -6.2788 C   0  0  0  0  0  0  0  0  0  0  0  0
   28.4609  -19.3493   -7.1994 C   0  0  0  0  0  0  0  0  0  0  0  0
   27.9524  -19.2334   -8.4760 C   0  0  0  0  0  0  0  0  0  0  0  0
   26.8412  -19.9459   -8.8949 C   0  0  0  0  0  0  0  0  0  0  0  0
   26.3019  -19.8101  -10.2802 C   0  0  0  0  0  0  0  0  0  0  0  0
   26.5945  -21.0963  -11.0245 C   0  0  2  0  0  0  0  0  0  0  0  0
   28.0349  -21.2085  -11.1266 N   0  0  0  0  0  0  0  0  0  0  0  0
   26.0086  -21.1324  -12.3611 C   0  0  0  0  0  0  0  0  0  0  0  0
   26.5082  -20.4055  -13.2776 O   0  0  0  0  0  0  0  0  0  0  0  0
   26.2582  -20.7866   -7.9695 C   0  0  0  0  0  0  0  0  0  0  0  0
   26.7668  -20.9025   -6.6928 C   0  0  0  0  0  0  0  0  0  0  0  0
   24.9006  -21.9298  -12.7349 N   0  0  0  0  0  0  0  0  0  0  0  0
   24.3338  -21.8218  -14.0329 C   0  0  0  0  0  0  0  0  0  0  0  0
   22.9656  -21.2365  -14.0332 C   0  0  0  0  0  0  0  0  0  0  0  0
   22.3489  -21.1094  -12.9445 O   0  0  0  0  0  0  0  0  0  0  0  0
   19.4089  -19.4448  -16.7937 O   0  0  0  0  0  0  0  0  0  0  0  0
   20.6791  -20.0407  -16.7634 C   0  0  0  0  0  0  0  0  0  0  0  0
   20.9832  -20.3411  -15.3106 C   0  0  2  0  0  0  0  0  0  0  0  0
   22.3395  -20.8201  -15.2166 N   0  0  0  0  0  0  0  0  0  0  0  0
   20.0001  -21.3612  -14.8615 C   0  0  0  0  0  0  0  0  0  0  0  0
   20.1681  -22.5868  -15.0348 O   0  0  0  0  0  0  0  0  0  0  0  0
   18.8572  -20.9169  -14.2271 O   0  0  0  0  0  0  0  0  0  0  0  0
  2  1  1  0
  2  3  2  0
  4  3  1  0
  5  4  2  0
  6  5  1  0
  7  6  1  0
  7  8  1  6
  9  7  1  0
  9 13  1  0
 10  9  2  0
 11 12  2  0
 11  5  1  0
 12  2  1  0
 14 13  1  0
 14 15  1  0
 15 20  1  0
 16 15  2  0
 18 17  1  0
 19 21  1  0
 19 18  1  6
 20 19  1  0
 21 23  1  0
 22 21  2  0
M  END
$$$$
