YGS.pdb
     RDKit          3D

 23 23  0  0  1  0  0  0  0  0999 V2000
   26.7722  -22.1302  -14.5824 O   0  0  0  0  0  0  0  0  0  0  0  0
   25.5584  -21.5760  -15.0016 C   0  0  0  0  0  0  0  0  0  0  0  0
   25.2794  -20.2345  -14.8505 C   0  0  0  0  0  0  0  0  0  0  0  0
   24.0752  -19.7112  -15.2719 C   0  0  0  0  0  0  0  0  0  0  0  0
   23.0962  -20.4941  -15.8606 C   0  0  0  0  0  0  0  0  0  0  0  0
   21.7971  -19.9135  -16.3118 C   0  0  0  0  0  0  0  0  0  0  0  0
   20.8374  -19.9473  -15.1407 C   0  0  2  0  0  0  0  0  0  0  0  0
   21.3276  -18.9970  -14.1637 N   0  0  0  0  0  0  0  0  0  0  0  0
   20.7301  -21.2661  -14.5240 C   0  0  0  0  0  0  0  0  0  0  0  0
   20.4022  -22.2627  -15.2433 O   0  0  0  0  0  0  0  0  0  0  0  0
   23.3809  -21.8357  -16.0092 C   0  0  0  0  0  0  0  0  0  0  0  0
   24.5853  -22.3591  -15.5878 C   0  0  0  0  0  0  0  0  0  0  0  0
   20.9663  -21.5383  -13.1554 N   0  0  0  0  0  0  0  0  0  0  0  0
   20.7950  -22.8493  -12.6360 C   0  0  0  0  0  0  0  0  0  0  0  0
   19.3782  -23.1807  -12.3240 C   0  0  0  0  0  0  0  0  0  0  0  0
   18.4726  -22.3611  -12.6239 O   0  0  0  0  0  0  0  0  0  0  0  0
   18.6805  -26.2204   -9.8764 O   0  0  0  0  0  0  0  0  0  0  0  0
   17.7080  -26.2219  -10.8881 C   0  0  0  0  0  0  0  0  0  0  0  0
   17.6676  -24.8175  -11.4535 C   0  0  2  0  0  0  0  0  0  0  0  0
   19.0200  -24.3853  -11.7024 N   0  0  0  0  0  0  0  0  0  0  0  0
   16.9860  -23.9622  -10.4471 C   0  0  0  0  0  0  0  0  0  0  0  0
   17.5841  -23.0902   -9.7823 O   0  0  0  0  0  0  0  0  0  0  0  0
   15.6327  -24.1537  -10.2516 O   0  0  0  0  0  0  0  0  0  0  0  0
  2  1  1  0
  2  3  2  0
  4  3  1  0
  5  4  2  0
  6  5  1  0
  7  6  1  0
  7  8  1  1
  9  7  1  0
  9 13  1  0
 10  9  2  0
 11 12  2  0
 11  5  1  0
 12  2  1  0
 14 13  1  0
 14 15  1  0
 15 20  1  0
 16 15  2  0
 18 17  1  0
 19 21  1  0
 19 18  1  1
 20 19  1  0
 21 23  1  0
 22 21  2  0
M  END
$$$$
