YGS.pdb
     RDKit          3D

 23 23  0  0  1  0  0  0  0  0999 V2000
   19.3104  -16.7205  -22.4824 O   0  0  0  0  0  0  0  0  0  0  0  0
   19.0231  -15.8650  -21.4138 C   0  0  0  0  0  0  0  0  0  0  0  0
   18.8523  -16.3358  -20.1295 C   0  0  0  0  0  0  0  0  0  0  0  0
   18.5695  -15.4725  -19.0920 C   0  0  0  0  0  0  0  0  0  0  0  0
   18.4438  -14.1066  -19.2824 C   0  0  0  0  0  0  0  0  0  0  0  0
   18.1373  -13.1841  -18.1495 C   0  0  0  0  0  0  0  0  0  0  0  0
   19.4510  -12.7104  -17.5632 C   0  0  2  0  0  0  0  0  0  0  0  0
   20.0558  -13.8493  -16.9038 N   0  0  0  0  0  0  0  0  0  0  0  0
   19.2923  -11.6215  -16.6038 C   0  0  0  0  0  0  0  0  0  0  0  0
   19.2089  -11.8939  -15.3642 O   0  0  0  0  0  0  0  0  0  0  0  0
   18.6157  -13.6412  -20.5696 C   0  0  0  0  0  0  0  0  0  0  0  0
   18.8985  -14.5045  -21.6072 C   0  0  0  0  0  0  0  0  0  0  0  0
   19.2213  -10.2499  -16.9450 N   0  0  0  0  0  0  0  0  0  0  0  0
   19.0822   -9.2577  -15.9380 C   0  0  0  0  0  0  0  0  0  0  0  0
   18.6110   -7.9468  -16.4613 C   0  0  0  0  0  0  0  0  0  0  0  0
   18.4456   -7.8004  -17.6994 O   0  0  0  0  0  0  0  0  0  0  0  0
   16.0598   -5.5840  -14.5362 O   0  0  0  0  0  0  0  0  0  0  0  0
   17.2324   -4.8793  -14.8485 C   0  0  0  0  0  0  0  0  0  0  0  0
   17.8544   -5.5776  -16.0397 C   0  0  2  0  0  0  0  0  0  0  0  0
   18.3444   -6.8638  -15.6116 N   0  0  0  0  0  0  0  0  0  0  0  0
   18.9481   -4.7020  -16.5358 C   0  0  0  0  0  0  0  0  0  0  0  0
   20.1546   -5.0174  -16.4629 O   0  0  0  0  0  0  0  0  0  0  0  0
   18.5970   -3.4911  -17.0985 O   0  0  0  0  0  0  0  0  0  0  0  0
  2  1  1  0
  2  3  2  0
  4  3  1  0
  5  4  2  0
  6  5  1  0
  7  6  1  0
  7  8  1  1
  9  7  1  0
  9 13  1  0
 10  9  2  0
 11 12  2  0
 11  5  1  0
 12  2  1  0
 14 13  1  0
 14 15  1  0
 15 20  1  0
 16 15  2  0
 18 17  1  0
 19 21  1  0
 19 18  1  1
 20 19  1  0
 21 23  1  0
 22 21  2  0
M  END
$$$$
