YGS.pdb
     RDKit          3D

 23 23  0  0  1  0  0  0  0  0999 V2000
   21.4089  -16.5621  -21.5116 O   0  0  0  0  0  0  0  0  0  0  0  0
   21.5790  -15.2532  -21.0489 C   0  0  0  0  0  0  0  0  0  0  0  0
   20.5412  -14.5369  -20.4919 C   0  0  0  0  0  0  0  0  0  0  0  0
   20.7336  -13.2475  -20.0427 C   0  0  0  0  0  0  0  0  0  0  0  0
   21.9616  -12.6127  -20.1259 C   0  0  0  0  0  0  0  0  0  0  0  0
   22.1548  -11.2162  -19.6353 C   0  0  0  0  0  0  0  0  0  0  0  0
   23.0637  -11.2669  -18.4249 C   0  0  2  0  0  0  0  0  0  0  0  0
   22.3668  -12.0204  -17.4031 N   0  0  0  0  0  0  0  0  0  0  0  0
   23.4042   -9.9453  -17.9066 C   0  0  0  0  0  0  0  0  0  0  0  0
   24.0629   -9.1418  -18.6404 O   0  0  0  0  0  0  0  0  0  0  0  0
   22.9964  -13.3344  -20.6841 C   0  0  0  0  0  0  0  0  0  0  0  0
   22.8040  -14.6240  -21.1334 C   0  0  0  0  0  0  0  0  0  0  0  0
   23.0541   -9.4683  -16.6210 N   0  0  0  0  0  0  0  0  0  0  0  0
   23.2850   -8.1134  -16.2619 C   0  0  0  0  0  0  0  0  0  0  0  0
   22.0432   -7.3793  -15.8965 C   0  0  0  0  0  0  0  0  0  0  0  0
   20.9254   -7.9182  -16.1008 O   0  0  0  0  0  0  0  0  0  0  0  0
   22.4432   -4.0686  -13.6741 O   0  0  0  0  0  0  0  0  0  0  0  0
   21.2028   -4.7171  -13.5739 C   0  0  0  0  0  0  0  0  0  0  0  0
   20.9255   -5.3357  -14.9281 C   0  0  2  0  0  0  0  0  0  0  0  0
   22.0816   -6.0981  -15.3282 N   0  0  0  0  0  0  0  0  0  0  0  0
   20.6424   -4.2193  -15.8673 C   0  0  0  0  0  0  0  0  0  0  0  0
   21.4008   -3.9212  -16.8140 O   0  0  0  0  0  0  0  0  0  0  0  0
   19.4864   -3.4907  -15.6699 O   0  0  0  0  0  0  0  0  0  0  0  0
  2  1  1  0
  2  3  2  0
  4  3  1  0
  5  4  2  0
  6  5  1  0
  7  6  1  0
  7  8  1  1
  9  7  1  0
  9 13  1  0
 10  9  2  0
 11 12  2  0
 11  5  1  0
 12  2  1  0
 14 13  1  0
 14 15  1  0
 15 20  1  0
 16 15  2  0
 18 17  1  0
 19 21  1  0
 19 18  1  1
 20 19  1  0
 21 23  1  0
 22 21  2  0
M  END
$$$$
