YGS.pdb
     RDKit          3D

 23 23  0  0  1  0  0  0  0  0999 V2000
   35.4646   -7.4215   -5.8530 O   0  0  0  0  0  0  0  0  0  0  0  0
   36.5340   -8.0963   -6.4509 C   0  0  0  0  0  0  0  0  0  0  0  0
   36.9823   -9.3121   -5.9807 C   0  0  0  0  0  0  0  0  0  0  0  0
   38.0388   -9.9583   -6.5872 C   0  0  0  0  0  0  0  0  0  0  0  0
   38.6961   -9.4281   -7.6848 C   0  0  0  0  0  0  0  0  0  0  0  0
   39.8384  -10.1393   -8.3309 C   0  0  0  0  0  0  0  0  0  0  0  0
   41.0426  -10.0142   -7.4209 C   0  0  2  0  0  0  0  0  0  0  0  0
   41.4704   -8.6314   -7.4720 N   0  0  0  0  0  0  0  0  0  0  0  0
   42.1507  -10.8802   -7.8123 C   0  0  0  0  0  0  0  0  0  0  0  0
   42.8544  -10.5683   -8.8249 O   0  0  0  0  0  0  0  0  0  0  0  0
   38.2430   -8.2112   -8.1509 C   0  0  0  0  0  0  0  0  0  0  0  0
   37.1864   -7.5649   -7.5444 C   0  0  0  0  0  0  0  0  0  0  0  0
   42.5193  -12.0711   -7.1422 N   0  0  0  0  0  0  0  0  0  0  0  0
   43.5134  -12.9300   -7.6826 C   0  0  0  0  0  0  0  0  0  0  0  0
   44.8598  -12.7263   -7.0823 C   0  0  0  0  0  0  0  0  0  0  0  0
   45.0904  -11.6786   -6.4260 O   0  0  0  0  0  0  0  0  0  0  0  0
   46.9165  -15.8897   -6.4079 O   0  0  0  0  0  0  0  0  0  0  0  0
   47.8752  -14.9208   -6.7413 C   0  0  0  0  0  0  0  0  0  0  0  0
   47.1909  -13.5748   -6.6250 C   0  0  2  0  0  0  0  0  0  0  0  0
   45.8848  -13.6720   -7.2270 N   0  0  0  0  0  0  0  0  0  0  0  0
   48.0535  -12.5859   -7.3228 C   0  0  0  0  0  0  0  0  0  0  0  0
   47.8130  -12.1716   -8.4765 O   0  0  0  0  0  0  0  0  0  0  0  0
   49.1646  -12.1155   -6.6518 O   0  0  0  0  0  0  0  0  0  0  0  0
  2  1  1  0
  2  3  2  0
  4  3  1  0
  5  4  2  0
  6  5  1  0
  7  6  1  0
  7  8  1  6
  9  7  1  0
  9 13  1  0
 10  9  2  0
 11 12  2  0
 11  5  1  0
 12  2  1  0
 14 13  1  0
 14 15  1  0
 15 20  1  0
 16 15  2  0
 18 17  1  0
 19 21  1  0
 19 18  1  6
 20 19  1  0
 21 23  1  0
 22 21  2  0
M  END
$$$$
