YGS.pdb
     RDKit          3D

 23 23  0  0  1  0  0  0  0  0999 V2000
   20.8968  -18.9712  -14.2935 O   0  0  0  0  0  0  0  0  0  0  0  0
   20.7000  -17.7621  -14.9687 C   0  0  0  0  0  0  0  0  0  0  0  0
   20.1338  -17.7131  -16.2246 C   0  0  0  0  0  0  0  0  0  0  0  0
   19.9500  -16.5086  -16.8704 C   0  0  0  0  0  0  0  0  0  0  0  0
   20.3192  -15.3018  -16.3001 C   0  0  0  0  0  0  0  0  0  0  0  0
   20.1140  -14.0056  -17.0113 C   0  0  0  0  0  0  0  0  0  0  0  0
   18.8350  -13.3835  -16.4909 C   0  0  2  0  0  0  0  0  0  0  0  0
   17.7571  -14.2932  -16.8198 N   0  0  0  0  0  0  0  0  0  0  0  0
   18.5574  -12.0721  -17.0692 C   0  0  0  0  0  0  0  0  0  0  0  0
   18.2801  -11.9861  -18.3076 O   0  0  0  0  0  0  0  0  0  0  0  0
   20.8853  -15.3571  -15.0432 C   0  0  0  0  0  0  0  0  0  0  0  0
   21.0691  -16.5617  -14.3973 C   0  0  0  0  0  0  0  0  0  0  0  0
   18.5709  -10.8538  -16.3491 N   0  0  0  0  0  0  0  0  0  0  0  0
   18.2683   -9.6255  -16.9953 C   0  0  0  0  0  0  0  0  0  0  0  0
   18.3190   -8.4503  -16.0838 C   0  0  0  0  0  0  0  0  0  0  0  0
   18.4431   -8.6347  -14.8460 O   0  0  0  0  0  0  0  0  0  0  0  0
   18.5106   -3.6175  -15.8576 O   0  0  0  0  0  0  0  0  0  0  0  0
   18.2496   -4.7389  -16.6598 C   0  0  0  0  0  0  0  0  0  0  0  0
   18.3305   -5.9495  -15.7535 C   0  0  2  0  0  0  0  0  0  0  0  0
   18.2321   -7.1364  -16.5655 N   0  0  0  0  0  0  0  0  0  0  0  0
   17.2091   -5.8435  -14.7839 C   0  0  0  0  0  0  0  0  0  0  0  0
   16.0331   -6.1509  -15.0716 O   0  0  0  0  0  0  0  0  0  0  0  0
   17.4981   -5.3834  -13.5147 O   0  0  0  0  0  0  0  0  0  0  0  0
  2  1  1  0
  2  3  2  0
  4  3  1  0
  5  4  2  0
  6  5  1  0
  7  6  1  0
  7  8  1  6
  9  7  1  0
  9 13  1  0
 10  9  2  0
 11 12  2  0
 11  5  1  0
 12  2  1  0
 14 13  1  0
 14 15  1  0
 15 20  1  0
 16 15  2  0
 18 17  1  0
 19 21  1  0
 19 18  1  6
 20 19  1  0
 21 23  1  0
 22 21  2  0
M  END
$$$$
