YGS.pdb
     RDKit          3D

 23 23  0  0  1  0  0  0  0  0999 V2000
   23.3328  -21.4276   -8.2504 O   0  0  0  0  0  0  0  0  0  0  0  0
   24.2611  -21.1002   -9.2442 C   0  0  0  0  0  0  0  0  0  0  0  0
   25.6148  -21.2918   -9.0680 C   0  0  0  0  0  0  0  0  0  0  0  0
   26.5107  -20.9611  -10.0627 C   0  0  0  0  0  0  0  0  0  0  0  0
   26.1043  -20.4268  -11.2739 C   0  0  0  0  0  0  0  0  0  0  0  0
   27.0859  -20.0737  -12.3416 C   0  0  0  0  0  0  0  0  0  0  0  0
   26.4139  -20.2821  -13.6828 C   0  0  2  0  0  0  0  0  0  0  0  0
   26.1510  -21.7008  -13.8089 N   0  0  0  0  0  0  0  0  0  0  0  0
   27.2292  -19.8372  -14.8090 C   0  0  0  0  0  0  0  0  0  0  0  0
   28.0673  -20.6429  -15.3250 O   0  0  0  0  0  0  0  0  0  0  0  0
   24.7485  -20.2373  -11.4446 C   0  0  0  0  0  0  0  0  0  0  0  0
   23.8524  -20.5679  -10.4498 C   0  0  0  0  0  0  0  0  0  0  0  0
   27.1648  -18.5493  -15.3924 N   0  0  0  0  0  0  0  0  0  0  0  0
   27.9317  -18.2362  -16.5464 C   0  0  0  0  0  0  0  0  0  0  0  0
   27.4100  -18.8639  -17.7906 C   0  0  0  0  0  0  0  0  0  0  0  0
   28.0425  -19.8175  -18.3124 O   0  0  0  0  0  0  0  0  0  0  0  0
   23.4973  -19.3656  -18.4842 O   0  0  0  0  0  0  0  0  0  0  0  0
   24.5977  -20.0886  -18.9698 C   0  0  0  0  0  0  0  0  0  0  0  0
   25.5794  -19.0718  -19.5137 C   0  0  2  0  0  0  0  0  0  0  0  0
   26.2282  -18.4223  -18.4024 N   0  0  0  0  0  0  0  0  0  0  0  0
   24.8008  -18.1139  -20.3413 C   0  0  0  0  0  0  0  0  0  0  0  0
   24.6499  -16.9141  -20.0278 O   0  0  0  0  0  0  0  0  0  0  0  0
   24.2262  -18.5879  -21.5038 O   0  0  0  0  0  0  0  0  0  0  0  0
  2  1  1  0
  2  3  2  0
  4  3  1  0
  5  4  2  0
  6  5  1  0
  7  6  1  0
  7  8  1  6
  9  7  1  0
  9 13  1  0
 10  9  2  0
 11 12  2  0
 11  5  1  0
 12  2  1  0
 14 13  1  0
 14 15  1  0
 15 20  1  0
 16 15  2  0
 18 17  1  0
 19 21  1  0
 19 18  1  1
 20 19  1  0
 21 23  1  0
 22 21  2  0
M  END
$$$$
