WDE.pdb
     RDKit          3D

 32 33  0  0  1  0  0  0  0  0999 V2000
   25.9883  -11.3835  -15.3218 N   0  0  0  0  0  0  0  0  0  0  0  0
   25.7804  -10.1523  -16.0202 C   0  0  1  0  0  0  0  0  0  0  0  0
   25.9213  -10.3457  -17.5260 C   0  0  0  0  0  0  0  0  0  0  0  0
   27.2333  -10.9117  -17.9067 C   0  0  0  0  0  0  0  0  0  0  0  0
   27.4967  -12.2141  -18.2327 C   0  0  0  0  0  0  0  0  0  0  0  0
   28.8151  -12.2827  -18.4834 N   0  0  0  0  0  0  0  0  0  0  0  0
   29.3895  -11.0721  -18.3285 C   0  0  0  0  0  0  0  0  0  0  0  0
   30.6938  -10.6476  -18.4730 C   0  0  0  0  0  0  0  0  0  0  0  0
   31.0030   -9.3402  -18.2522 C   0  0  0  0  0  0  0  0  0  0  0  0
   30.0452   -8.3945  -17.8808 C   0  0  0  0  0  0  0  0  0  0  0  0
   28.7545   -8.8507  -17.7439 C   0  0  0  0  0  0  0  0  0  0  0  0
   28.4132  -10.1676  -17.9602 C   0  0  0  0  0  0  0  0  0  0  0  0
   24.4381   -9.5393  -15.7730 C   0  0  0  0  0  0  0  0  0  0  0  0
   23.4439  -10.1630  -15.4045 O   0  0  0  0  0  0  0  0  0  0  0  0
   24.3493   -8.1455  -15.9898 N   0  0  0  0  0  0  0  0  0  0  0  0
   23.1896   -7.3216  -15.6969 C   0  0  1  0  0  0  0  0  0  0  0  0
   23.5761   -5.9051  -15.6362 C   0  0  0  0  0  0  0  0  0  0  0  0
   22.5356   -4.9735  -15.1672 C   0  0  0  0  0  0  0  0  0  0  0  0
   22.1525   -4.0118  -15.8589 O   0  0  0  0  0  0  0  0  0  0  0  0
   22.0442   -7.6497  -16.5396 C   0  0  0  0  0  0  0  0  0  0  0  0
   22.1828   -7.6890  -17.7825 O   0  0  0  0  0  0  0  0  0  0  0  0
   21.9547   -5.1610  -13.9207 O   0  0  0  0  0  0  0  0  0  0  0  0
   20.7913   -7.9217  -15.9624 N   0  0  0  0  0  0  0  0  0  0  0  0
   19.5985   -8.2117  -16.7392 C   0  0  1  0  0  0  0  0  0  0  0  0
   18.5523   -8.8058  -15.7956 C   0  0  0  0  0  0  0  0  0  0  0  0
   17.2584   -9.0801  -16.4842 C   0  0  0  0  0  0  0  0  0  0  0  0
   16.8946  -10.4977  -16.2175 C   0  0  0  0  0  0  0  0  0  0  0  0
   16.1064  -10.8271  -15.3038 O   0  0  0  0  0  0  0  0  0  0  0  0
   19.1074   -6.9072  -17.2737 C   0  0  0  0  0  0  0  0  0  0  0  0
   18.3595   -6.8857  -18.4322 O   0  0  0  0  0  0  0  0  0  0  0  0
   17.4429  -11.5163  -17.0010 O   0  0  0  0  0  0  0  0  0  0  0  0
   19.3501   -5.8133  -16.7040 O   0  0  0  0  0  0  0  0  0  0  0  0
  2  3  1  0
  2  1  1  1
  3  4  1  0
  4  5  2  0
  5  6  1  0
  7  6  1  0
  8  7  2  0
  9  8  1  0
 10 11  1  0
 10  9  2  0
 11 12  2  0
 12  4  1  0
 12  7  1  0
 13 14  2  0
 13  2  1  0
 15 13  1  0
 16 15  1  0
 16 17  1  6
 18 17  1  0
 19 18  2  0
 20 16  1  0
 20 21  2  0
 22 18  1  0
 23 20  1  0
 24 23  1  0
 24 25  1  1
 26 27  1  0
 26 25  1  0
 27 31  1  0
 28 27  2  0
 29 24  1  0
 30 29  1  0
 32 29  2  0
M  END
$$$$
