WDE.pdb
     RDKit          3D

 32 33  0  0  1  0  0  0  0  0999 V2000
   16.9422  -16.5545    5.5833 N   0  0  0  0  0  0  0  0  0  0  0  0
   16.7312  -17.5975    4.6271 C   0  0  1  0  0  0  0  0  0  0  0  0
   17.8893  -17.6775    3.6385 C   0  0  0  0  0  0  0  0  0  0  0  0
   18.2745  -16.3533    3.1050 C   0  0  0  0  0  0  0  0  0  0  0  0
   17.5922  -15.1785    3.2661 C   0  0  0  0  0  0  0  0  0  0  0  0
   18.2861  -14.2424    2.5970 N   0  0  0  0  0  0  0  0  0  0  0  0
   19.3795  -14.7848    2.0226 C   0  0  0  0  0  0  0  0  0  0  0  0
   20.3807  -14.2353    1.2493 C   0  0  0  0  0  0  0  0  0  0  0  0
   21.3884  -15.0286    0.7925 C   0  0  0  0  0  0  0  0  0  0  0  0
   21.4563  -16.3942    1.0755 C   0  0  0  0  0  0  0  0  0  0  0  0
   20.4417  -16.9110    1.8479 C   0  0  0  0  0  0  0  0  0  0  0  0
   19.4096  -16.1324    2.3230 C   0  0  0  0  0  0  0  0  0  0  0  0
   16.5738  -18.9533    5.2402 C   0  0  0  0  0  0  0  0  0  0  0  0
   16.9832  -19.2651    6.3574 O   0  0  0  0  0  0  0  0  0  0  0  0
   15.9029  -19.9122    4.4478 N   0  0  0  0  0  0  0  0  0  0  0  0
   15.9076  -21.3460    4.6800 C   0  0  1  0  0  0  0  0  0  0  0  0
   14.9380  -22.0063    3.7948 C   0  0  0  0  0  0  0  0  0  0  0  0
   14.8280  -23.4684    3.9373 C   0  0  0  0  0  0  0  0  0  0  0  0
   15.0975  -24.2435    3.0010 O   0  0  0  0  0  0  0  0  0  0  0  0
   17.2560  -21.9038    4.7023 C   0  0  0  0  0  0  0  0  0  0  0  0
   18.0604  -21.6118    3.7894 O   0  0  0  0  0  0  0  0  0  0  0  0
   14.4147  -24.0133    5.1450 O   0  0  0  0  0  0  0  0  0  0  0  0
   17.6529  -22.7634    5.7416 N   0  0  0  0  0  0  0  0  0  0  0  0
   18.9807  -23.3452    5.8357 C   0  0  1  0  0  0  0  0  0  0  0  0
   19.4170  -23.2938    7.3002 C   0  0  0  0  0  0  0  0  0  0  0  0
   18.8839  -24.4399    8.0911 C   0  0  0  0  0  0  0  0  0  0  0  0
   18.7030  -23.9778    9.4936 C   0  0  0  0  0  0  0  0  0  0  0  0
   18.8271  -24.7451   10.4736 O   0  0  0  0  0  0  0  0  0  0  0  0
   18.8574  -24.7676    5.3996 C   0  0  0  0  0  0  0  0  0  0  0  0
   17.6053  -25.3168    5.2189 O   0  0  0  0  0  0  0  0  0  0  0  0
   18.3794  -22.6431    9.7505 O   0  0  0  0  0  0  0  0  0  0  0  0
   19.8604  -25.4948    5.1871 O   0  0  0  0  0  0  0  0  0  0  0  0
  2  3  1  0
  2  1  1  1
  3  4  1  0
  4  5  2  0
  5  6  1  0
  7  6  1  0
  8  7  2  0
  9  8  1  0
 10 11  1  0
 10  9  2  0
 11 12  2  0
 12  4  1  0
 12  7  1  0
 13 14  2  0
 13  2  1  0
 15 13  1  0
 16 15  1  0
 16 17  1  6
 18 17  1  0
 19 18  2  0
 20 16  1  0
 20 21  2  0
 22 18  1  0
 23 20  1  0
 24 23  1  0
 24 25  1  1
 26 27  1  0
 26 25  1  0
 27 31  1  0
 28 27  2  0
 29 24  1  0
 30 29  1  0
 32 29  2  0
M  END
$$$$
