WDE.pdb
     RDKit          3D

 32 33  0  0  1  0  0  0  0  0999 V2000
   30.1548  -36.0931   -6.5563 N   0  0  0  0  0  0  0  0  0  0  0  0
   29.6039  -35.3244   -5.4828 C   0  0  1  0  0  0  0  0  0  0  0  0
   28.1348  -35.0039   -5.7355 C   0  0  0  0  0  0  0  0  0  0  0  0
   27.9429  -34.0639   -6.8607 C   0  0  0  0  0  0  0  0  0  0  0  0
   28.5807  -34.0979   -8.0705 C   0  0  0  0  0  0  0  0  0  0  0  0
   28.1208  -33.0474   -8.7710 N   0  0  0  0  0  0  0  0  0  0  0  0
   27.2170  -32.3555   -8.0471 C   0  0  0  0  0  0  0  0  0  0  0  0
   26.4819  -31.2239   -8.3325 C   0  0  0  0  0  0  0  0  0  0  0  0
   25.6221  -30.7289   -7.4002 C   0  0  0  0  0  0  0  0  0  0  0  0
   25.4472  -31.3236   -6.1490 C   0  0  0  0  0  0  0  0  0  0  0  0
   26.1961  -32.4495   -5.8957 C   0  0  0  0  0  0  0  0  0  0  0  0
   27.0740  -32.9720   -6.8197 C   0  0  0  0  0  0  0  0  0  0  0  0
   29.6900  -36.0017   -4.1514 C   0  0  0  0  0  0  0  0  0  0  0  0
   29.0624  -37.0135   -3.8420 O   0  0  0  0  0  0  0  0  0  0  0  0
   30.5635  -35.4058   -3.2137 N   0  0  0  0  0  0  0  0  0  0  0  0
   30.7877  -35.8751   -1.8576 C   0  0  1  0  0  0  0  0  0  0  0  0
   32.1750  -35.6100   -1.4520 C   0  0  0  0  0  0  0  0  0  0  0  0
   33.2092  -36.4032   -2.1388 C   0  0  0  0  0  0  0  0  0  0  0  0
   34.3611  -35.9672   -2.3204 O   0  0  0  0  0  0  0  0  0  0  0  0
   29.7437  -35.4386   -0.9358 C   0  0  0  0  0  0  0  0  0  0  0  0
   29.3443  -34.2533   -0.9715 O   0  0  0  0  0  0  0  0  0  0  0  0
   32.9063  -37.6763   -2.6014 O   0  0  0  0  0  0  0  0  0  0  0  0
   29.1870  -36.3413   -0.0129 N   0  0  0  0  0  0  0  0  0  0  0  0
   28.1338  -35.9829    0.9213 C   0  0  1  0  0  0  0  0  0  0  0  0
   27.5181  -37.2751    1.4587 C   0  0  0  0  0  0  0  0  0  0  0  0
   26.3918  -37.0173    2.4012 C   0  0  0  0  0  0  0  0  0  0  0  0
   25.4243  -38.1397    2.2693 C   0  0  0  0  0  0  0  0  0  0  0  0
   25.6263  -39.2627    2.7818 O   0  0  0  0  0  0  0  0  0  0  0  0
   28.7867  -35.2372    2.0377 C   0  0  0  0  0  0  0  0  0  0  0  0
   28.0633  -34.2975    2.7418 O   0  0  0  0  0  0  0  0  0  0  0  0
   24.2412  -37.9579    1.5487 O   0  0  0  0  0  0  0  0  0  0  0  0
   29.9838  -35.4331    2.3672 O   0  0  0  0  0  0  0  0  0  0  0  0
  2  3  1  0
  2  1  1  6
  3  4  1  0
  4  5  2  0
  5  6  1  0
  7  6  1  0
  8  7  2  0
  9  8  1  0
 10 11  1  0
 10  9  2  0
 11 12  2  0
 12  4  1  0
 12  7  1  0
 13 14  2  0
 13  2  1  0
 15 13  1  0
 16 15  1  0
 16 17  1  1
 18 17  1  0
 19 18  2  0
 20 16  1  0
 20 21  2  0
 22 18  1  0
 23 20  1  0
 24 23  1  0
 24 25  1  1
 26 27  1  0
 26 25  1  0
 27 31  1  0
 28 27  2  0
 29 24  1  0
 30 29  1  0
 32 29  2  0
M  END
$$$$
