WDE.pdb
     RDKit          3D

 32 33  0  0  1  0  0  0  0  0999 V2000
   15.0652  -11.7638  -10.5551 N   0  0  0  0  0  0  0  0  0  0  0  0
   14.6355  -10.9363  -11.6401 C   0  0  1  0  0  0  0  0  0  0  0  0
   13.2887  -10.2894  -11.3363 C   0  0  0  0  0  0  0  0  0  0  0  0
   12.4089  -11.1600  -10.5272 C   0  0  0  0  0  0  0  0  0  0  0  0
   12.1620  -12.4895  -10.7347 C   0  0  0  0  0  0  0  0  0  0  0  0
   11.2910  -12.8662   -9.7833 N   0  0  0  0  0  0  0  0  0  0  0  0
   10.9825  -11.8235   -8.9851 C   0  0  0  0  0  0  0  0  0  0  0  0
   10.1499  -11.7177   -7.8906 C   0  0  0  0  0  0  0  0  0  0  0  0
   10.0229  -10.5196   -7.2567 C   0  0  0  0  0  0  0  0  0  0  0  0
   10.7079   -9.3751   -7.6698 C   0  0  0  0  0  0  0  0  0  0  0  0
   11.5288   -9.5142   -8.7651 C   0  0  0  0  0  0  0  0  0  0  0  0
   11.6760  -10.7137   -9.4261 C   0  0  0  0  0  0  0  0  0  0  0  0
   15.5933   -9.8363  -11.9741 C   0  0  0  0  0  0  0  0  0  0  0  0
   16.2701   -9.2262  -11.1477 O   0  0  0  0  0  0  0  0  0  0  0  0
   15.6973   -9.5066  -13.3445 N   0  0  0  0  0  0  0  0  0  0  0  0
   16.5108   -8.4349  -13.8917 C   0  0  1  0  0  0  0  0  0  0  0  0
   17.0715   -8.8359  -15.1895 C   0  0  0  0  0  0  0  0  0  0  0  0
   17.9282   -7.8398  -15.8560 C   0  0  0  0  0  0  0  0  0  0  0  0
   17.5026   -7.1132  -16.7731 O   0  0  0  0  0  0  0  0  0  0  0  0
   15.8365   -7.1416  -13.8437 C   0  0  0  0  0  0  0  0  0  0  0  0
   14.6600   -7.0427  -14.2579 O   0  0  0  0  0  0  0  0  0  0  0  0
   19.2505   -7.6939  -15.4602 O   0  0  0  0  0  0  0  0  0  0  0  0
   16.5008   -6.0116  -13.3352 N   0  0  0  0  0  0  0  0  0  0  0  0
   15.9078   -4.6861  -13.2937 C   0  0  1  0  0  0  0  0  0  0  0  0
   16.0896   -4.1304  -11.8809 C   0  0  0  0  0  0  0  0  0  0  0  0
   15.5520   -2.7465  -11.7425 C   0  0  0  0  0  0  0  0  0  0  0  0
   15.4795   -2.4315  -10.2903 C   0  0  0  0  0  0  0  0  0  0  0  0
   15.8295   -3.2472   -9.4091 O   0  0  0  0  0  0  0  0  0  0  0  0
   16.6693   -3.8454  -14.2643 C   0  0  0  0  0  0  0  0  0  0  0  0
   16.1628   -2.6208  -14.6461 O   0  0  0  0  0  0  0  0  0  0  0  0
   15.0036   -1.1866   -9.8710 O   0  0  0  0  0  0  0  0  0  0  0  0
   17.7674   -4.2119  -14.7540 O   0  0  0  0  0  0  0  0  0  0  0  0
  2  3  1  0
  2  1  1  1
  3  4  1  0
  4  5  2  0
  5  6  1  0
  7  6  1  0
  8  7  2  0
  9  8  1  0
 10 11  1  0
 10  9  2  0
 11 12  2  0
 12  4  1  0
 12  7  1  0
 13 14  2  0
 13  2  1  0
 15 13  1  0
 16 15  1  0
 16 17  1  6
 18 17  1  0
 19 18  2  0
 20 16  1  0
 20 21  2  0
 22 18  1  0
 23 20  1  0
 24 23  1  0
 24 25  1  1
 26 27  1  0
 26 25  1  0
 27 31  1  0
 28 27  2  0
 29 24  1  0
 30 29  1  0
 32 29  2  0
M  END
$$$$
