WDE.pdb
     RDKit          3D

 32 33  0  0  1  0  0  0  0  0999 V2000
   28.1636  -21.9775  -13.5093 N   0  0  0  0  0  0  0  0  0  0  0  0
   26.9340  -21.8607  -12.7873 C   0  0  1  0  0  0  0  0  0  0  0  0
   26.9452  -20.6353  -11.8801 C   0  0  0  0  0  0  0  0  0  0  0  0
   27.9880  -20.7109  -10.8345 C   0  0  0  0  0  0  0  0  0  0  0  0
   29.3221  -20.9446  -11.0277 C   0  0  0  0  0  0  0  0  0  0  0  0
   29.8859  -20.9531   -9.8080 N   0  0  0  0  0  0  0  0  0  0  0  0
   28.9562  -20.7322   -8.8558 C   0  0  0  0  0  0  0  0  0  0  0  0
   29.0480  -20.6502   -7.4821 C   0  0  0  0  0  0  0  0  0  0  0  0
   27.9272  -20.4105   -6.7473 C   0  0  0  0  0  0  0  0  0  0  0  0
   26.6695  -20.2407   -7.3296 C   0  0  0  0  0  0  0  0  0  0  0  0
   26.6123  -20.3298   -8.7013 C   0  0  0  0  0  0  0  0  0  0  0  0
   27.7296  -20.5720   -9.4697 C   0  0  0  0  0  0  0  0  0  0  0  0
   25.7278  -21.7539  -13.6662 C   0  0  0  0  0  0  0  0  0  0  0  0
   25.6650  -21.0651  -14.6834 O   0  0  0  0  0  0  0  0  0  0  0  0
   24.6050  -22.5124  -13.2641 N   0  0  0  0  0  0  0  0  0  0  0  0
   23.3990  -22.7093  -14.0491 C   0  0  1  0  0  0  0  0  0  0  0  0
   23.2200  -24.1354  -14.3550 C   0  0  0  0  0  0  0  0  0  0  0  0
   24.1619  -24.7071  -15.3330 C   0  0  0  0  0  0  0  0  0  0  0  0
   24.4884  -24.0965  -16.3676 O   0  0  0  0  0  0  0  0  0  0  0  0
   22.2464  -22.0131  -13.4863 C   0  0  0  0  0  0  0  0  0  0  0  0
   21.8834  -22.2655  -12.3158 O   0  0  0  0  0  0  0  0  0  0  0  0
   24.7113  -25.9617  -15.1076 O   0  0  0  0  0  0  0  0  0  0  0  0
   21.5462  -21.0634  -14.2508 N   0  0  0  0  0  0  0  0  0  0  0  0
   20.3255  -20.4167  -13.8011 C   0  0  1  0  0  0  0  0  0  0  0  0
   19.7469  -19.6286  -14.9766 C   0  0  0  0  0  0  0  0  0  0  0  0
   18.4856  -18.9191  -14.6174 C   0  0  0  0  0  0  0  0  0  0  0  0
   18.8578  -17.6297  -13.9754 C   0  0  0  0  0  0  0  0  0  0  0  0
   19.7811  -16.9064  -14.4098 O   0  0  0  0  0  0  0  0  0  0  0  0
   19.3806  -21.5061  -13.4150 C   0  0  0  0  0  0  0  0  0  0  0  0
   18.6008  -21.3611  -12.2868 O   0  0  0  0  0  0  0  0  0  0  0  0
   18.1672  -17.1912  -12.8427 O   0  0  0  0  0  0  0  0  0  0  0  0
   19.2644  -22.5636  -14.0845 O   0  0  0  0  0  0  0  0  0  0  0  0
  2  3  1  0
  2  1  1  6
  3  4  1  0
  4  5  2  0
  5  6  1  0
  7  6  1  0
  8  7  2  0
  9  8  1  0
 10 11  1  0
 10  9  2  0
 11 12  2  0
 12  4  1  0
 12  7  1  0
 13 14  2  0
 13  2  1  0
 15 13  1  0
 16 15  1  0
 16 17  1  1
 18 17  1  0
 19 18  2  0
 20 16  1  0
 20 21  2  0
 22 18  1  0
 23 20  1  0
 24 23  1  0
 24 25  1  6
 26 27  1  0
 26 25  1  0
 27 31  1  0
 28 27  2  0
 29 24  1  0
 30 29  1  0
 32 29  2  0
M  END
$$$$
