WDE.pdb
     RDKit          3D

 32 33  0  0  1  0  0  0  0  0999 V2000
   27.5667  -19.6970  -10.8413 N   0  0  0  0  0  0  0  0  0  0  0  0
   26.8043  -20.9075  -10.8284 C   0  0  1  0  0  0  0  0  0  0  0  0
   26.0858  -21.0886   -9.4959 C   0  0  0  0  0  0  0  0  0  0  0  0
   26.7018  -20.3021   -8.4057 C   0  0  0  0  0  0  0  0  0  0  0  0
   26.1818  -19.1853   -7.8106 C   0  0  0  0  0  0  0  0  0  0  0  0
   27.0829  -18.7890   -6.8959 N   0  0  0  0  0  0  0  0  0  0  0  0
   28.1488  -19.6156   -6.8932 C   0  0  0  0  0  0  0  0  0  0  0  0
   29.3070  -19.6207   -6.1442 C   0  0  0  0  0  0  0  0  0  0  0  0
   30.2357  -20.5947   -6.3501 C   0  0  0  0  0  0  0  0  0  0  0  0
   30.0667  -21.6049   -7.2992 C   0  0  0  0  0  0  0  0  0  0  0  0
   28.9016  -21.5703   -8.0301 C   0  0  0  0  0  0  0  0  0  0  0  0
   27.9452  -20.5966   -7.8436 C   0  0  0  0  0  0  0  0  0  0  0  0
   25.7690  -20.9783  -11.9064 C   0  0  0  0  0  0  0  0  0  0  0  0
   25.2562  -19.9991  -12.4461 O   0  0  0  0  0  0  0  0  0  0  0  0
   25.3817  -22.2786  -12.3024 N   0  0  0  0  0  0  0  0  0  0  0  0
   24.4345  -22.5882  -13.3591 C   0  0  1  0  0  0  0  0  0  0  0  0
   24.6832  -23.9381  -13.8837 C   0  0  0  0  0  0  0  0  0  0  0  0
   23.8038  -24.3740  -14.9823 C   0  0  0  0  0  0  0  0  0  0  0  0
   23.2480  -25.4880  -14.9786 O   0  0  0  0  0  0  0  0  0  0  0  0
   23.0587  -22.2769  -12.9847 C   0  0  0  0  0  0  0  0  0  0  0  0
   22.5684  -22.7884  -11.9534 O   0  0  0  0  0  0  0  0  0  0  0  0
   23.5771  -23.5285  -16.0594 O   0  0  0  0  0  0  0  0  0  0  0  0
   22.2861  -21.4075  -13.7746 N   0  0  0  0  0  0  0  0  0  0  0  0
   20.8656  -21.1859  -13.5655 C   0  0  1  0  0  0  0  0  0  0  0  0
   20.3927  -20.1517  -14.5875 C   0  0  0  0  0  0  0  0  0  0  0  0
   21.1850  -18.8901  -14.5256 C   0  0  0  0  0  0  0  0  0  0  0  0
   20.5943  -17.9354  -15.5018 C   0  0  0  0  0  0  0  0  0  0  0  0
   19.3974  -17.5760  -15.4478 O   0  0  0  0  0  0  0  0  0  0  0  0
   20.1861  -22.4902  -13.8218 C   0  0  0  0  0  0  0  0  0  0  0  0
   19.0488  -22.8149  -13.1125 O   0  0  0  0  0  0  0  0  0  0  0  0
   21.3847  -17.4099  -16.5271 O   0  0  0  0  0  0  0  0  0  0  0  0
   20.6128  -23.3154  -14.6686 O   0  0  0  0  0  0  0  0  0  0  0  0
  2  3  1  0
  2  1  1  1
  3  4  1  0
  4  5  2  0
  5  6  1  0
  7  6  1  0
  8  7  2  0
  9  8  1  0
 10 11  1  0
 10  9  2  0
 11 12  2  0
 12  4  1  0
 12  7  1  0
 13 14  2  0
 13  2  1  0
 15 13  1  0
 16 15  1  0
 16 17  1  1
 18 17  1  0
 19 18  2  0
 20 16  1  0
 20 21  2  0
 22 18  1  0
 23 20  1  0
 24 23  1  0
 24 25  1  6
 26 27  1  0
 26 25  1  0
 27 31  1  0
 28 27  2  0
 29 24  1  0
 30 29  1  0
 32 29  2  0
M  END
$$$$
