WDE.pdb
     RDKit          3D

 32 33  0  0  1  0  0  0  0  0999 V2000
   23.6481  -19.6300  -10.0868 N   0  0  0  0  0  0  0  0  0  0  0  0
   24.2763  -19.8774  -11.3481 C   0  0  1  0  0  0  0  0  0  0  0  0
   24.9459  -21.2471  -11.3677 C   0  0  0  0  0  0  0  0  0  0  0  0
   26.2109  -21.2731  -10.6024 C   0  0  0  0  0  0  0  0  0  0  0  0
   26.3445  -21.4480   -9.2521 C   0  0  0  0  0  0  0  0  0  0  0  0
   27.6603  -21.3766   -8.9890 N   0  0  0  0  0  0  0  0  0  0  0  0
   28.3585  -21.1647  -10.1236 C   0  0  0  0  0  0  0  0  0  0  0  0
   29.7101  -21.0236  -10.3591 C   0  0  0  0  0  0  0  0  0  0  0  0
   30.1523  -20.8162  -11.6299 C   0  0  0  0  0  0  0  0  0  0  0  0
   29.2869  -20.7390  -12.7230 C   0  0  0  0  0  0  0  0  0  0  0  0
   27.9454  -20.8824  -12.4537 C   0  0  0  0  0  0  0  0  0  0  0  0
   27.4698  -21.0924  -11.1781 C   0  0  0  0  0  0  0  0  0  0  0  0
   23.3351  -19.8246  -12.5101 C   0  0  0  0  0  0  0  0  0  0  0  0
   22.1121  -19.9236  -12.4218 O   0  0  0  0  0  0  0  0  0  0  0  0
   23.9332  -19.6479  -13.7783 N   0  0  0  0  0  0  0  0  0  0  0  0
   23.2157  -19.4849  -15.0306 C   0  0  1  0  0  0  0  0  0  0  0  0
   24.1465  -19.1061  -16.1028 C   0  0  0  0  0  0  0  0  0  0  0  0
   23.5347  -18.7975  -17.4070 C   0  0  0  0  0  0  0  0  0  0  0  0
   24.1800  -18.8650  -18.4696 O   0  0  0  0  0  0  0  0  0  0  0  0
   22.3185  -20.6016  -15.3097 C   0  0  0  0  0  0  0  0  0  0  0  0
   22.7824  -21.7607  -15.3928 O   0  0  0  0  0  0  0  0  0  0  0  0
   22.2004  -18.4204  -17.4696 O   0  0  0  0  0  0  0  0  0  0  0  0
   20.9410  -20.3808  -15.4836 N   0  0  0  0  0  0  0  0  0  0  0  0
   19.9825  -21.4477  -15.7150 C   0  0  1  0  0  0  0  0  0  0  0  0
   18.5790  -20.8732  -15.5207 C   0  0  0  0  0  0  0  0  0  0  0  0
   17.5154  -21.9035  -15.6956 C   0  0  0  0  0  0  0  0  0  0  0  0
   17.1746  -22.4365  -14.3491 C   0  0  0  0  0  0  0  0  0  0  0  0
   18.0237  -22.5472  -13.4373 O   0  0  0  0  0  0  0  0  0  0  0  0
   20.1551  -21.8786  -17.1339 C   0  0  0  0  0  0  0  0  0  0  0  0
   20.3109  -23.2180  -17.4232 O   0  0  0  0  0  0  0  0  0  0  0  0
   15.8656  -22.8374  -14.0700 O   0  0  0  0  0  0  0  0  0  0  0  0
   20.1642  -21.0607  -18.0884 O   0  0  0  0  0  0  0  0  0  0  0  0
  2  3  1  0
  2  1  1  1
  3  4  1  0
  4  5  2  0
  5  6  1  0
  7  6  1  0
  8  7  2  0
  9  8  1  0
 10 11  1  0
 10  9  2  0
 11 12  2  0
 12  4  1  0
 12  7  1  0
 13 14  2  0
 13  2  1  0
 15 13  1  0
 16 15  1  0
 16 17  1  6
 18 17  1  0
 19 18  2  0
 20 16  1  0
 20 21  2  0
 22 18  1  0
 23 20  1  0
 24 23  1  0
 24 25  1  6
 26 27  1  0
 26 25  1  0
 27 31  1  0
 28 27  2  0
 29 24  1  0
 30 29  1  0
 32 29  2  0
M  END
$$$$
