WDE.pdb
     RDKit          3D

 32 33  0  0  1  0  0  0  0  0999 V2000
   39.7744   -7.7766   -9.0271 N   0  0  0  0  0  0  0  0  0  0  0  0
   38.9518   -8.5841   -9.8745 C   0  0  1  0  0  0  0  0  0  0  0  0
   37.5334   -8.6874   -9.3247 C   0  0  0  0  0  0  0  0  0  0  0  0
   37.4083   -9.7071   -8.2611 C   0  0  0  0  0  0  0  0  0  0  0  0
   37.5910   -9.5134   -6.9192 C   0  0  0  0  0  0  0  0  0  0  0  0
   37.4027  -10.7087   -6.3347 N   0  0  0  0  0  0  0  0  0  0  0  0
   37.1073  -11.6457   -7.2590 C   0  0  0  0  0  0  0  0  0  0  0  0
   36.8350  -12.9933   -7.1482 C   0  0  0  0  0  0  0  0  0  0  0  0
   36.5611  -13.7173   -8.2682 C   0  0  0  0  0  0  0  0  0  0  0  0
   36.5424  -13.1494   -9.5437 C   0  0  0  0  0  0  0  0  0  0  0  0
   36.8194  -11.8039   -9.6195 C   0  0  0  0  0  0  0  0  0  0  0  0
   37.1006  -11.0471   -8.5034 C   0  0  0  0  0  0  0  0  0  0  0  0
   38.8501   -8.0746  -11.2776 C   0  0  0  0  0  0  0  0  0  0  0  0
   38.6793   -6.8946  -11.5803 O   0  0  0  0  0  0  0  0  0  0  0  0
   38.9632   -9.0488  -12.2952 N   0  0  0  0  0  0  0  0  0  0  0  0
   38.8136   -8.7991  -13.7182 C   0  0  1  0  0  0  0  0  0  0  0  0
   40.1254   -8.8319  -14.3796 C   0  0  0  0  0  0  0  0  0  0  0  0
   40.8008  -10.1410  -14.4053 C   0  0  0  0  0  0  0  0  0  0  0  0
   41.3904  -10.5975  -13.4083 O   0  0  0  0  0  0  0  0  0  0  0  0
   37.7592   -9.6093  -14.3196 C   0  0  0  0  0  0  0  0  0  0  0  0
   37.6775  -10.8255  -14.0368 O   0  0  0  0  0  0  0  0  0  0  0  0
   40.7868  -10.9002  -15.5671 O   0  0  0  0  0  0  0  0  0  0  0  0
   36.8385   -9.0307  -15.2107 N   0  0  0  0  0  0  0  0  0  0  0  0
   35.7153   -9.7536  -15.7820 C   0  0  1  0  0  0  0  0  0  0  0  0
   34.7301   -8.7288  -16.3451 C   0  0  0  0  0  0  0  0  0  0  0  0
   33.5338   -9.3713  -16.9609 C   0  0  0  0  0  0  0  0  0  0  0  0
   32.6486   -8.2888  -17.4685 C   0  0  0  0  0  0  0  0  0  0  0  0
   32.1130   -7.4501  -16.7107 O   0  0  0  0  0  0  0  0  0  0  0  0
   36.2623  -10.5858  -16.8942 C   0  0  0  0  0  0  0  0  0  0  0  0
   35.6105  -11.7450  -17.2595 O   0  0  0  0  0  0  0  0  0  0  0  0
   32.3886   -8.1866  -18.8375 O   0  0  0  0  0  0  0  0  0  0  0  0
   37.3056  -10.2696  -17.5199 O   0  0  0  0  0  0  0  0  0  0  0  0
  2  3  1  0
  2  1  1  1
  3  4  1  0
  4  5  2  0
  5  6  1  0
  7  6  1  0
  8  7  2  0
  9  8  1  0
 10 11  1  0
 10  9  2  0
 11 12  2  0
 12  4  1  0
 12  7  1  0
 13 14  2  0
 13  2  1  0
 15 13  1  0
 16 15  1  0
 16 17  1  6
 18 17  1  0
 19 18  2  0
 20 16  1  0
 20 21  2  0
 22 18  1  0
 23 20  1  0
 24 23  1  0
 24 25  1  6
 26 27  1  0
 26 25  1  0
 27 31  1  0
 28 27  2  0
 29 24  1  0
 30 29  1  0
 32 29  2  0
M  END
$$$$
