WDE.pdb
     RDKit          3D

 32 33  0  0  1  0  0  0  0  0999 V2000
   25.4581  -18.6667   -9.0601 N   0  0  0  0  0  0  0  0  0  0  0  0
   26.2022  -19.7816   -9.5601 C   0  0  1  0  0  0  0  0  0  0  0  0
   26.2341  -20.9189   -8.5452 C   0  0  0  0  0  0  0  0  0  0  0  0
   26.7421  -20.4891   -7.2247 C   0  0  0  0  0  0  0  0  0  0  0  0
   26.0095  -19.9426   -6.2067 C   0  0  0  0  0  0  0  0  0  0  0  0
   26.8759  -19.6835   -5.2129 N   0  0  0  0  0  0  0  0  0  0  0  0
   28.1253  -20.0479   -5.5678 C   0  0  0  0  0  0  0  0  0  0  0  0
   29.3284  -19.9821   -4.8965 C   0  0  0  0  0  0  0  0  0  0  0  0
   30.4612  -20.4322   -5.5028 C   0  0  0  0  0  0  0  0  0  0  0  0
   30.4610  -20.9664   -6.7929 C   0  0  0  0  0  0  0  0  0  0  0  0
   29.2454  -21.0165   -7.4352 C   0  0  0  0  0  0  0  0  0  0  0  0
   28.0837  -20.5677   -6.8465 C   0  0  0  0  0  0  0  0  0  0  0  0
   25.6628  -20.3403  -10.8391 C   0  0  0  0  0  0  0  0  0  0  0  0
   24.4665  -20.4282  -11.1119 O   0  0  0  0  0  0  0  0  0  0  0  0
   26.6277  -20.7866  -11.7704 N   0  0  0  0  0  0  0  0  0  0  0  0
   26.4260  -20.8905  -13.2050 C   0  0  1  0  0  0  0  0  0  0  0  0
   27.7213  -20.9575  -13.8957 C   0  0  0  0  0  0  0  0  0  0  0  0
   27.6632  -21.0683  -15.3636 C   0  0  0  0  0  0  0  0  0  0  0  0
   26.5829  -21.0594  -15.9824 O   0  0  0  0  0  0  0  0  0  0  0  0
   25.4444  -21.9109  -13.5586 C   0  0  0  0  0  0  0  0  0  0  0  0
   25.7636  -23.1196  -13.5056 O   0  0  0  0  0  0  0  0  0  0  0  0
   28.8387  -21.1853  -16.0923 O   0  0  0  0  0  0  0  0  0  0  0  0
   24.1471  -21.5424  -13.9559 N   0  0  0  0  0  0  0  0  0  0  0  0
   23.1035  -22.5028  -14.2703 C   0  0  1  0  0  0  0  0  0  0  0  0
   21.8680  -22.1468  -13.4429 C   0  0  0  0  0  0  0  0  0  0  0  0
   21.3726  -20.7696  -13.7277 C   0  0  0  0  0  0  0  0  0  0  0  0
   20.1507  -20.5489  -12.9083 C   0  0  0  0  0  0  0  0  0  0  0  0
   20.1091  -19.7137  -11.9780 O   0  0  0  0  0  0  0  0  0  0  0  0
   22.7968  -22.3425  -15.7225 C   0  0  0  0  0  0  0  0  0  0  0  0
   22.0838  -23.3237  -16.3789 O   0  0  0  0  0  0  0  0  0  0  0  0
   18.9959  -21.2918  -13.1663 O   0  0  0  0  0  0  0  0  0  0  0  0
   23.1659  -21.3369  -16.3803 O   0  0  0  0  0  0  0  0  0  0  0  0
  2  3  1  0
  2  1  1  1
  3  4  1  0
  4  5  2  0
  5  6  1  0
  7  6  1  0
  8  7  2  0
  9  8  1  0
 10 11  1  0
 10  9  2  0
 11 12  2  0
 12  4  1  0
 12  7  1  0
 13 14  2  0
 13  2  1  0
 15 13  1  0
 16 15  1  0
 16 17  1  6
 18 17  1  0
 19 18  2  0
 20 16  1  0
 20 21  2  0
 22 18  1  0
 23 20  1  0
 24 23  1  0
 24 25  1  1
 26 27  1  0
 26 25  1  0
 27 31  1  0
 28 27  2  0
 29 24  1  0
 30 29  1  0
 32 29  2  0
M  END
$$$$
