WDE.pdb
     RDKit          3D

 32 33  0  0  1  0  0  0  0  0999 V2000
   26.4011  -22.6990  -13.2587 N   0  0  0  0  0  0  0  0  0  0  0  0
   25.5504  -21.7621  -12.5915 C   0  0  1  0  0  0  0  0  0  0  0  0
   26.2805  -20.4498  -12.3276 C   0  0  0  0  0  0  0  0  0  0  0  0
   27.3780  -20.5964  -11.3475 C   0  0  0  0  0  0  0  0  0  0  0  0
   28.7058  -20.7682  -11.6287 C   0  0  0  0  0  0  0  0  0  0  0  0
   29.3324  -20.8802  -10.4452 N   0  0  0  0  0  0  0  0  0  0  0  0
   28.4481  -20.7839   -9.4311 C   0  0  0  0  0  0  0  0  0  0  0  0
   28.6091  -20.8359   -8.0623 C   0  0  0  0  0  0  0  0  0  0  0  0
   27.5223  -20.7053   -7.2528 C   0  0  0  0  0  0  0  0  0  0  0  0
   26.2320  -20.5178   -7.7524 C   0  0  0  0  0  0  0  0  0  0  0  0
   26.1058  -20.4719   -9.1217 C   0  0  0  0  0  0  0  0  0  0  0  0
   27.1875  -20.6018   -9.9646 C   0  0  0  0  0  0  0  0  0  0  0  0
   24.3038  -21.4338  -13.3512 C   0  0  0  0  0  0  0  0  0  0  0  0
   24.2832  -20.9745  -14.4922 O   0  0  0  0  0  0  0  0  0  0  0  0
   23.0881  -21.6835  -12.6752 N   0  0  0  0  0  0  0  0  0  0  0  0
   21.7612  -21.5081  -13.2395 C   0  0  1  0  0  0  0  0  0  0  0  0
   20.7834  -22.3150  -12.4965 C   0  0  0  0  0  0  0  0  0  0  0  0
   19.4177  -22.3405  -13.0484 C   0  0  0  0  0  0  0  0  0  0  0  0
   19.1117  -21.7115  -14.0783 O   0  0  0  0  0  0  0  0  0  0  0  0
   21.4242  -20.1036  -13.4481 C   0  0  0  0  0  0  0  0  0  0  0  0
   21.3807  -19.3267  -12.4682 O   0  0  0  0  0  0  0  0  0  0  0  0
   18.4325  -23.0844  -12.4139 O   0  0  0  0  0  0  0  0  0  0  0  0
   21.1504  -19.6222  -14.7404 N   0  0  0  0  0  0  0  0  0  0  0  0
   20.7820  -18.2451  -15.0199 C   0  0  1  0  0  0  0  0  0  0  0  0
   21.4052  -17.8511  -16.3594 C   0  0  0  0  0  0  0  0  0  0  0  0
   20.4105  -17.8544  -17.4702 C   0  0  0  0  0  0  0  0  0  0  0  0
   21.1633  -17.8183  -18.7529 C   0  0  0  0  0  0  0  0  0  0  0  0
   22.4122  -17.7657  -18.7960 O   0  0  0  0  0  0  0  0  0  0  0  0
   19.2936  -18.2138  -15.1316 C   0  0  0  0  0  0  0  0  0  0  0  0
   18.6111  -19.3709  -15.4436 O   0  0  0  0  0  0  0  0  0  0  0  0
   20.4717  -17.8398  -19.9667 O   0  0  0  0  0  0  0  0  0  0  0  0
   18.6279  -17.1631  -14.9503 O   0  0  0  0  0  0  0  0  0  0  0  0
  2  3  1  0
  2  1  1  6
  3  4  1  0
  4  5  2  0
  5  6  1  0
  7  6  1  0
  8  7  2  0
  9  8  1  0
 10 11  1  0
 10  9  2  0
 11 12  2  0
 12  4  1  0
 12  7  1  0
 13 14  2  0
 13  2  1  0
 15 13  1  0
 16 15  1  0
 16 17  1  1
 18 17  1  0
 19 18  2  0
 20 16  1  0
 20 21  2  0
 22 18  1  0
 23 20  1  0
 24 23  1  0
 24 25  1  6
 26 27  1  0
 26 25  1  0
 27 31  1  0
 28 27  2  0
 29 24  1  0
 30 29  1  0
 32 29  2  0
M  END
$$$$
