EVL.pdb
     RDKit          3D

 25 24  0  0  1  0  0  0  0  0999 V2000
   18.0826  -11.7582  -16.8259 N   0  0  0  0  0  0  0  0  0  0  0  0
   18.7480  -10.4815  -17.0884 C   0  0  1  0  0  0  0  0  0  0  0  0
   17.7542   -9.5540  -17.7302 C   0  0  0  0  0  0  0  0  0  0  0  0
   17.3885   -9.8990  -19.1258 C   0  0  0  0  0  0  0  0  0  0  0  0
   18.2917   -9.3820  -20.1641 C   0  0  0  0  0  0  0  0  0  0  0  0
   19.1980   -8.5712  -19.8843 O   0  0  0  0  0  0  0  0  0  0  0  0
   19.3139   -9.9193  -15.8115 C   0  0  0  0  0  0  0  0  0  0  0  0
   18.6863  -10.0709  -14.7494 O   0  0  0  0  0  0  0  0  0  0  0  0
   18.1690   -9.7754  -21.4847 O   0  0  0  0  0  0  0  0  0  0  0  0
   22.3701  -10.9472  -14.6660 C   0  0  0  0  0  0  0  0  0  0  0  0
   22.6341   -9.4369  -14.6273 C   0  0  1  0  0  0  0  0  0  0  0  0
   23.4094   -9.2315  -15.9593 C   0  0  0  0  0  0  0  0  0  0  0  0
   21.3258   -8.6959  -14.7920 C   0  0  2  0  0  0  0  0  0  0  0  0
   20.5333   -9.2456  -15.8832 N   0  0  0  0  0  0  0  0  0  0  0  0
   21.4111   -7.2454  -14.9053 C   0  0  0  0  0  0  0  0  0  0  0  0
   21.7397   -6.8004  -16.0736 O   0  0  0  0  0  0  0  0  0  0  0  0
   17.7305   -3.6946  -14.8244 C   0  0  0  0  0  0  0  0  0  0  0  0
   19.0470   -4.4009  -15.0453 C   0  0  1  0  0  0  0  0  0  0  0  0
   19.5596   -3.8914  -16.4033 C   0  0  0  0  0  0  0  0  0  0  0  0
   20.1028   -4.1025  -14.0548 C   0  0  0  0  0  0  0  0  0  0  0  0
   21.3847   -4.8321  -14.1578 C   0  0  2  0  0  0  0  0  0  0  0  0
   21.1857   -6.2647  -13.9395 N   0  0  0  0  0  0  0  0  0  0  0  0
   22.5022   -4.3044  -13.3779 C   0  0  0  0  0  0  0  0  0  0  0  0
   22.9617   -3.0210  -13.6335 O   0  0  0  0  0  0  0  0  0  0  0  0
   23.0983   -4.9413  -12.4666 O   0  0  0  0  0  0  0  0  0  0  0  0
  2  1  1  1
  2  3  1  0
  3  4  1  0
  5  6  2  0
  5  4  1  0
  7  8  2  0
  7  2  1  0
  9  5  1  0
 11 10  1  6
 11 13  1  0
 12 11  1  0
 13 14  1  6
 14  7  1  0
 15 22  1  0
 15 13  1  0
 16 15  2  0
 18 17  1  1
 18 20  1  0
 19 18  1  0
 21 20  1  1
 21 23  1  0
 21 22  1  0
 23 24  1  0
 25 23  2  0
M  END
$$$$
