EVL.pdb
     RDKit          3D

 25 24  0  0  1  0  0  0  0  0999 V2000
   16.1317  -11.0988  -15.0114 N   0  0  0  0  0  0  0  0  0  0  0  0
   17.1882  -10.3796  -15.7243 C   0  0  1  0  0  0  0  0  0  0  0  0
   16.5461   -9.3237  -16.5804 C   0  0  0  0  0  0  0  0  0  0  0  0
   15.7792   -9.8409  -17.7400 C   0  0  0  0  0  0  0  0  0  0  0  0
   16.5817  -10.4527  -18.8089 C   0  0  0  0  0  0  0  0  0  0  0  0
   16.5933  -11.6889  -18.9788 O   0  0  0  0  0  0  0  0  0  0  0  0
   18.1740   -9.8007  -14.7446 C   0  0  0  0  0  0  0  0  0  0  0  0
   17.7754   -9.4329  -13.6262 O   0  0  0  0  0  0  0  0  0  0  0  0
   17.3504   -9.6814  -19.6622 O   0  0  0  0  0  0  0  0  0  0  0  0
   22.3496  -10.1161  -15.9251 C   0  0  0  0  0  0  0  0  0  0  0  0
   21.8414  -10.0682  -14.4790 C   0  0  1  0  0  0  0  0  0  0  0  0
   22.9971   -9.2999  -13.7778 C   0  0  0  0  0  0  0  0  0  0  0  0
   20.6347   -9.1594  -14.4024 C   0  0  2  0  0  0  0  0  0  0  0  0
   19.5067   -9.7041  -15.1453 N   0  0  0  0  0  0  0  0  0  0  0  0
   20.8507   -7.7623  -14.7569 C   0  0  0  0  0  0  0  0  0  0  0  0
   21.1489   -7.5460  -15.9959 O   0  0  0  0  0  0  0  0  0  0  0  0
   17.5269   -3.8659  -15.1001 C   0  0  0  0  0  0  0  0  0  0  0  0
   18.7548   -4.7292  -15.2665 C   0  0  1  0  0  0  0  0  0  0  0  0
   19.2464   -4.4660  -16.7002 C   0  0  0  0  0  0  0  0  0  0  0  0
   19.8831   -4.4104  -14.3664 C   0  0  0  0  0  0  0  0  0  0  0  0
   21.0855   -5.2692  -14.4210 C   0  0  2  0  0  0  0  0  0  0  0  0
   20.7786   -6.6221  -13.9569 N   0  0  0  0  0  0  0  0  0  0  0  0
   22.2987   -4.7359  -13.8053 C   0  0  0  0  0  0  0  0  0  0  0  0
   22.9083   -3.6214  -14.3618 O   0  0  0  0  0  0  0  0  0  0  0  0
   22.8505   -5.2225  -12.7805 O   0  0  0  0  0  0  0  0  0  0  0  0
  2  1  1  1
  2  3  1  0
  3  4  1  0
  5  6  2  0
  5  4  1  0
  7  8  2  0
  7  2  1  0
  9  5  1  0
 11 10  1  6
 11 13  1  0
 12 11  1  0
 13 14  1  6
 14  7  1  0
 15 22  1  0
 15 13  1  0
 16 15  2  0
 18 17  1  1
 18 20  1  0
 19 18  1  0
 21 20  1  1
 21 23  1  0
 21 22  1  0
 23 24  1  0
 25 23  2  0
M  END
$$$$
