EVL.pdb
     RDKit          3D

 25 24  0  0  1  0  0  0  0  0999 V2000
   13.1155  -10.6975  -11.9078 N   0  0  0  0  0  0  0  0  0  0  0  0
   14.4805  -10.2299  -12.1520 C   0  0  1  0  0  0  0  0  0  0  0  0
   14.8042  -10.4539  -13.6028 C   0  0  0  0  0  0  0  0  0  0  0  0
   14.8060  -11.8743  -14.0304 C   0  0  0  0  0  0  0  0  0  0  0  0
   16.0771  -12.5898  -13.8477 C   0  0  0  0  0  0  0  0  0  0  0  0
   17.1675  -12.0439  -14.1123 O   0  0  0  0  0  0  0  0  0  0  0  0
   14.6130   -8.7843  -11.7526 C   0  0  0  0  0  0  0  0  0  0  0  0
   13.5944   -8.0748  -11.6902 O   0  0  0  0  0  0  0  0  0  0  0  0
   16.1090  -13.8904  -13.3771 O   0  0  0  0  0  0  0  0  0  0  0  0
   15.3412   -7.9639   -8.8518 C   0  0  0  0  0  0  0  0  0  0  0  0
   15.5302   -6.6773   -9.6647 C   0  0  1  0  0  0  0  0  0  0  0  0
   16.5418   -5.9026   -8.7735 C   0  0  0  0  0  0  0  0  0  0  0  0
   16.2688   -6.9983  -10.9451 C   0  0  2  0  0  0  0  0  0  0  0  0
   15.8913   -8.3043  -11.4674 N   0  0  0  0  0  0  0  0  0  0  0  0
   17.7196   -6.8645  -10.9087 C   0  0  0  0  0  0  0  0  0  0  0  0
   18.3324   -7.6982  -10.1340 O   0  0  0  0  0  0  0  0  0  0  0  0
   21.7614   -9.1317  -12.9716 C   0  0  0  0  0  0  0  0  0  0  0  0
   20.9572   -8.0506  -13.6537 C   0  0  1  0  0  0  0  0  0  0  0  0
   20.4574   -8.6808  -14.9650 C   0  0  0  0  0  0  0  0  0  0  0  0
   19.7587   -7.5911  -12.9206 C   0  0  0  0  0  0  0  0  0  0  0  0
   19.8454   -6.3245  -12.1627 C   0  0  2  0  0  0  0  0  0  0  0  0
   18.5462   -5.9718  -11.5906 N   0  0  0  0  0  0  0  0  0  0  0  0
   20.4734   -5.1954  -12.8455 C   0  0  0  0  0  0  0  0  0  0  0  0
   21.8490   -5.0366  -12.7698 O   0  0  0  0  0  0  0  0  0  0  0  0
   19.8460   -4.3301  -13.5158 O   0  0  0  0  0  0  0  0  0  0  0  0
  2  1  1  6
  2  3  1  0
  3  4  1  0
  5  6  2  0
  5  4  1  0
  7  8  2  0
  7  2  1  0
  9  5  1  0
 11 10  1  1
 11 13  1  0
 12 11  1  0
 13 14  1  1
 14  7  1  0
 15 22  1  0
 15 13  1  0
 16 15  2  0
 18 17  1  1
 18 20  1  0
 19 18  1  0
 21 20  1  6
 21 23  1  0
 21 22  1  0
 23 24  1  0
 25 23  2  0
M  END
$$$$
