EVL.pdb
     RDKit          3D

 25 24  0  0  1  0  0  0  0  0999 V2000
   16.7397  -11.7490  -15.6181 N   0  0  0  0  0  0  0  0  0  0  0  0
   17.5706  -10.7030  -16.2155 C   0  0  1  0  0  0  0  0  0  0  0  0
   16.6662   -9.7050  -16.8833 C   0  0  0  0  0  0  0  0  0  0  0  0
   15.9961  -10.1941  -18.1129 C   0  0  0  0  0  0  0  0  0  0  0  0
   16.8659  -10.3581  -19.2866 C   0  0  0  0  0  0  0  0  0  0  0  0
   17.0310   -9.4274  -20.1013 O   0  0  0  0  0  0  0  0  0  0  0  0
   18.4438  -10.0706  -15.1645 C   0  0  0  0  0  0  0  0  0  0  0  0
   17.9608   -9.8082  -14.0498 O   0  0  0  0  0  0  0  0  0  0  0  0
   17.5306  -11.5470  -19.5285 O   0  0  0  0  0  0  0  0  0  0  0  0
   22.6661   -9.9186  -16.1555 C   0  0  0  0  0  0  0  0  0  0  0  0
   22.0979   -9.9905  -14.7328 C   0  0  1  0  0  0  0  0  0  0  0  0
   23.1455   -9.1528  -13.9464 C   0  0  0  0  0  0  0  0  0  0  0  0
   20.8076   -9.2040  -14.6689 C   0  0  2  0  0  0  0  0  0  0  0  0
   19.7724   -9.8062  -15.4977 N   0  0  0  0  0  0  0  0  0  0  0  0
   20.9048   -7.7743  -14.9346 C   0  0  0  0  0  0  0  0  0  0  0  0
   21.1129   -7.4544  -16.1696 O   0  0  0  0  0  0  0  0  0  0  0  0
   17.3833   -3.9819  -14.8226 C   0  0  0  0  0  0  0  0  0  0  0  0
   18.6252   -4.7928  -15.1072 C   0  0  1  0  0  0  0  0  0  0  0  0
   19.0450   -4.4068  -16.5359 C   0  0  0  0  0  0  0  0  0  0  0  0
   19.7837   -4.5094  -14.2340 C   0  0  0  0  0  0  0  0  0  0  0  0
   21.0169   -5.3014  -14.4293 C   0  0  2  0  0  0  0  0  0  0  0  0
   20.8018   -6.6985  -14.0531 N   0  0  0  0  0  0  0  0  0  0  0  0
   22.2430   -4.7560  -13.8508 C   0  0  0  0  0  0  0  0  0  0  0  0
   22.8066   -3.6168  -14.4056 O   0  0  0  0  0  0  0  0  0  0  0  0
   22.8458   -5.2534  -12.8604 O   0  0  0  0  0  0  0  0  0  0  0  0
  2  1  1  1
  2  3  1  0
  3  4  1  0
  5  6  2  0
  5  4  1  0
  7  8  2  0
  7  2  1  0
  9  5  1  0
 11 10  1  6
 11 13  1  0
 12 11  1  0
 13 14  1  6
 14  7  1  0
 15 22  1  0
 15 13  1  0
 16 15  2  0
 18 17  1  1
 18 20  1  0
 19 18  1  0
 21 20  1  1
 21 23  1  0
 21 22  1  0
 23 24  1  0
 25 23  2  0
M  END
$$$$
