EVL.pdb
     RDKit          3D

 25 24  0  0  1  0  0  0  0  0999 V2000
   21.2074  -12.4802  -18.3520 N   0  0  0  0  0  0  0  0  0  0  0  0
   21.3738  -11.0348  -18.1950 C   0  0  1  0  0  0  0  0  0  0  0  0
   20.6767  -10.3520  -19.3385 C   0  0  0  0  0  0  0  0  0  0  0  0
   21.2423  -10.6434  -20.6785 C   0  0  0  0  0  0  0  0  0  0  0  0
   20.5139  -10.0604  -21.8146 C   0  0  0  0  0  0  0  0  0  0  0  0
   19.6230  -10.7028  -22.4067 O   0  0  0  0  0  0  0  0  0  0  0  0
   20.8440  -10.5939  -16.8563 C   0  0  0  0  0  0  0  0  0  0  0  0
   20.0675  -11.3388  -16.2343 O   0  0  0  0  0  0  0  0  0  0  0  0
   20.7900   -8.7822  -22.2660 O   0  0  0  0  0  0  0  0  0  0  0  0
   21.3836  -11.1974  -14.4165 C   0  0  0  0  0  0  0  0  0  0  0  0
   21.6335   -9.7491  -13.9785 C   0  0  1  0  0  0  0  0  0  0  0  0
   23.1821   -9.6634  -14.0872 C   0  0  0  0  0  0  0  0  0  0  0  0
   21.0925   -8.8075  -15.0314 C   0  0  2  0  0  0  0  0  0  0  0  0
   21.2567   -9.3526  -16.3718 N   0  0  0  0  0  0  0  0  0  0  0  0
   21.5706   -7.4316  -14.9792 C   0  0  0  0  0  0  0  0  0  0  0  0
   22.7436   -7.2344  -15.4851 O   0  0  0  0  0  0  0  0  0  0  0  0
   18.7630   -3.0176  -16.3722 C   0  0  0  0  0  0  0  0  0  0  0  0
   19.8226   -4.0607  -16.1077 C   0  0  1  0  0  0  0  0  0  0  0  0
   20.8763   -3.8595  -17.2102 C   0  0  0  0  0  0  0  0  0  0  0  0
   20.5309   -3.9345  -14.8164 C   0  0  0  0  0  0  0  0  0  0  0  0
   21.5410   -4.9572  -14.4700 C   0  0  2  0  0  0  0  0  0  0  0  0
   20.9468   -6.2938  -14.4678 N   0  0  0  0  0  0  0  0  0  0  0  0
   22.3417   -4.7066  -13.2735 C   0  0  0  0  0  0  0  0  0  0  0  0
   22.2901   -5.6087  -12.2214 O   0  0  0  0  0  0  0  0  0  0  0  0
   23.0960   -3.7074  -13.1177 O   0  0  0  0  0  0  0  0  0  0  0  0
  2  1  1  6
  2  3  1  0
  3  4  1  0
  5  6  2  0
  5  4  1  0
  7  8  2  0
  7  2  1  0
  9  5  1  0
 11 10  1  6
 11 13  1  0
 12 11  1  0
 13 14  1  6
 14  7  1  0
 15 22  1  0
 15 13  1  0
 16 15  2  0
 18 17  1  1
 18 20  1  0
 19 18  1  0
 21 20  1  1
 21 23  1  0
 21 22  1  0
 23 24  1  0
 25 23  2  0
M  END
$$$$
