EVL.pdb
     RDKit          3D

 25 24  0  0  1  0  0  0  0  0999 V2000
   19.7262  -20.7666  -14.8508 N   0  0  0  0  0  0  0  0  0  0  0  0
   20.2655  -20.1516  -13.6373 C   0  0  1  0  0  0  0  0  0  0  0  0
   19.1234  -19.8767  -12.6993 C   0  0  0  0  0  0  0  0  0  0  0  0
   18.5555  -18.5093  -12.7904 C   0  0  0  0  0  0  0  0  0  0  0  0
   17.9086  -18.1752  -14.0674 C   0  0  0  0  0  0  0  0  0  0  0  0
   17.0360  -18.9179  -14.5614 O   0  0  0  0  0  0  0  0  0  0  0  0
   21.3089  -21.0459  -13.0221 C   0  0  0  0  0  0  0  0  0  0  0  0
   20.9490  -22.0364  -12.3632 O   0  0  0  0  0  0  0  0  0  0  0  0
   18.2436  -17.0283  -14.7648 O   0  0  0  0  0  0  0  0  0  0  0  0
   24.9437  -21.0271  -15.0516 C   0  0  0  0  0  0  0  0  0  0  0  0
   24.4566  -22.1264  -14.0996 C   0  0  1  0  0  0  0  0  0  0  0  0
   25.8064  -22.7310  -13.6203 C   0  0  0  0  0  0  0  0  0  0  0  0
   23.8320  -21.4898  -12.8780 C   0  0  2  0  0  0  0  0  0  0  0  0
   22.6487  -20.7146  -13.2245 N   0  0  0  0  0  0  0  0  0  0  0  0
   24.7207  -20.7091  -12.0266 C   0  0  0  0  0  0  0  0  0  0  0  0
   24.8742  -19.4734  -12.3736 O   0  0  0  0  0  0  0  0  0  0  0  0
   27.5543  -19.6437   -6.6726 C   0  0  0  0  0  0  0  0  0  0  0  0
   27.6757  -19.6854   -8.1774 C   0  0  1  0  0  0  0  0  0  0  0  0
   28.9714  -20.4650   -8.4599 C   0  0  0  0  0  0  0  0  0  0  0  0
   26.5899  -20.3977   -8.8835 C   0  0  0  0  0  0  0  0  0  0  0  0
   26.5943  -20.3898  -10.3621 C   0  0  2  0  0  0  0  0  0  0  0  0
   25.4273  -21.0972  -10.8885 N   0  0  0  0  0  0  0  0  0  0  0  0
   27.8337  -20.8064  -11.0147 C   0  0  0  0  0  0  0  0  0  0  0  0
   28.6138  -19.8574  -11.6583 O   0  0  0  0  0  0  0  0  0  0  0  0
   28.2612  -21.9931  -11.0401 O   0  0  0  0  0  0  0  0  0  0  0  0
  2  1  1  6
  2  3  1  0
  3  4  1  0
  5  6  2  0
  5  4  1  0
  7  8  2  0
  7  2  1  0
  9  5  1  0
 11 10  1  6
 11 13  1  0
 12 11  1  0
 13 14  1  6
 14  7  1  0
 15 22  1  0
 15 13  1  0
 16 15  2  0
 18 17  1  1
 18 20  1  0
 19 18  1  0
 21 20  1  1
 21 23  1  0
 21 22  1  0
 23 24  1  0
 25 23  2  0
M  END
$$$$
