EHF.pdb
     RDKit          3D

 31 32  0  0  1  0  0  0  0  0999 V2000
   10.7366  -14.6109   19.1254 N   0  0  0  0  0  0  0  0  0  0  0  0
    9.5326  -14.0801   19.6697 C   0  0  1  0  0  0  0  0  0  0  0  0
    8.4622  -14.0105   18.6093 C   0  0  0  0  0  0  0  0  0  0  0  0
    9.0032  -13.8949   17.2234 C   0  0  0  0  0  0  0  0  0  0  0  0
    7.9884  -14.0126   16.1622 C   0  0  0  0  0  0  0  0  0  0  0  0
    6.7416  -14.0262   16.3474 O   0  0  0  0  0  0  0  0  0  0  0  0
    9.0015  -14.8608   20.8225 C   0  0  0  0  0  0  0  0  0  0  0  0
    7.8833  -14.5947   21.3734 O   0  0  0  0  0  0  0  0  0  0  0  0
    8.4352  -14.1200   14.8342 O   0  0  0  0  0  0  0  0  0  0  0  0
    9.7940  -15.9311   21.2983 N   0  0  0  0  0  0  0  0  0  0  0  0
    9.3571  -16.7922   22.4367 C   0  0  1  0  0  0  0  0  0  0  0  0
    9.7148  -18.2140   22.1038 C   0  0  0  0  0  0  0  0  0  0  0  0
    8.8031  -18.8369   21.1319 C   0  0  0  0  0  0  0  0  0  0  0  0
    7.4313  -19.0639   21.2819 C   0  0  0  0  0  0  0  0  0  0  0  0
    6.9657  -19.6502   20.1858 N   0  0  0  0  0  0  0  0  0  0  0  0
    8.0136  -19.7943   19.3562 C   0  0  0  0  0  0  0  0  0  0  0  0
    9.1137  -19.3058   19.9261 N   0  0  0  0  0  0  0  0  0  0  0  0
    9.9777  -16.2138   23.6163 C   0  0  0  0  0  0  0  0  0  0  0  0
   11.2633  -16.0854   23.6634 O   0  0  0  0  0  0  0  0  0  0  0  0
    9.3522  -15.7351   24.7906 N   0  0  0  0  0  0  0  0  0  0  0  0
   10.0850  -15.4329   26.0240 C   0  0  1  0  0  0  0  0  0  0  0  0
    9.9184  -13.9838   26.3911 C   0  0  0  0  0  0  0  0  0  0  0  0
    8.5081  -13.6003   26.3242 C   0  0  0  0  0  0  0  0  0  0  0  0
    7.7043  -13.4413   27.4236 C   0  0  0  0  0  0  0  0  0  0  0  0
    6.3798  -13.0664   27.3430 C   0  0  0  0  0  0  0  0  0  0  0  0
    5.8085  -12.8324   26.0992 C   0  0  0  0  0  0  0  0  0  0  0  0
    6.5972  -12.9861   24.9774 C   0  0  0  0  0  0  0  0  0  0  0  0
    7.9080  -13.3589   25.0844 C   0  0  0  0  0  0  0  0  0  0  0  0
    9.5673  -16.2876   27.0916 C   0  0  0  0  0  0  0  0  0  0  0  0
    8.5139  -17.1781   26.9730 O   0  0  0  0  0  0  0  0  0  0  0  0
   10.0972  -16.2467   28.2505 O   0  0  0  0  0  0  0  0  0  0  0  0
  2  1  1  6
  3  2  1  0
  3  4  1  0
  4  5  1  0
  5  9  1  0
  6  5  2  0
  7  2  1  0
  8  7  2  0
 10  7  1  0
 11 10  1  0
 11 12  1  6
 12 13  1  0
 13 17  1  0
 14 13  2  0
 14 15  1  0
 15 16  1  0
 17 16  2  0
 18 19  2  0
 18 11  1  0
 20 18  1  0
 21 22  1  1
 21 20  1  0
 23 28  1  0
 23 22  1  0
 24 23  2  0
 25 26  2  0
 25 24  1  0
 26 27  1  0
 27 28  2  0
 29 21  1  0
 30 29  1  0
 31 29  2  0
M  END
$$$$
