EHF.pdb
     RDKit          3D

 31 32  0  0  1  0  0  0  0  0999 V2000
   10.2202  -13.8612   19.8771 N   0  0  0  0  0  0  0  0  0  0  0  0
    8.8351  -13.5514   19.9930 C   0  0  1  0  0  0  0  0  0  0  0  0
    8.1724  -13.5912   18.6387 C   0  0  0  0  0  0  0  0  0  0  0  0
    8.7529  -14.6150   17.7212 C   0  0  0  0  0  0  0  0  0  0  0  0
    8.0880  -14.7039   16.4099 C   0  0  0  0  0  0  0  0  0  0  0  0
    7.1935  -13.9191   15.9941 O   0  0  0  0  0  0  0  0  0  0  0  0
    8.0919  -14.4645   20.9065 C   0  0  0  0  0  0  0  0  0  0  0  0
    6.8488  -14.3254   21.1520 O   0  0  0  0  0  0  0  0  0  0  0  0
    8.4733  -15.7434   15.5464 O   0  0  0  0  0  0  0  0  0  0  0  0
    8.8241  -15.5147   21.5070 N   0  0  0  0  0  0  0  0  0  0  0  0
    8.1786  -16.5107   22.4124 C   0  0  1  0  0  0  0  0  0  0  0  0
    8.5147  -17.8843   21.9021 C   0  0  0  0  0  0  0  0  0  0  0  0
    7.9992  -18.9689   22.7518 C   0  0  0  0  0  0  0  0  0  0  0  0
    7.2700  -18.8418   23.9383 C   0  0  0  0  0  0  0  0  0  0  0  0
    6.9923  -20.0515   24.4091 N   0  0  0  0  0  0  0  0  0  0  0  0
    7.5306  -20.9295   23.5451 C   0  0  0  0  0  0  0  0  0  0  0  0
    8.1336  -20.2775   22.5526 N   0  0  0  0  0  0  0  0  0  0  0  0
    8.6394  -16.1712   23.7479 C   0  0  0  0  0  0  0  0  0  0  0  0
    9.8438  -15.7318   23.9153 O   0  0  0  0  0  0  0  0  0  0  0  0
    7.9270  -16.2472   24.9670 N   0  0  0  0  0  0  0  0  0  0  0  0
    8.5006  -15.8538   26.2576 C   0  0  1  0  0  0  0  0  0  0  0  0
    7.4736  -15.1381   27.0915 C   0  0  0  0  0  0  0  0  0  0  0  0
    7.2385  -13.7930   26.5661 C   0  0  0  0  0  0  0  0  0  0  0  0
    8.2090  -12.8298   26.4640 C   0  0  0  0  0  0  0  0  0  0  0  0
    7.9728  -11.5707   25.9538 C   0  0  0  0  0  0  0  0  0  0  0  0
    6.6982  -11.2373   25.5152 C   0  0  0  0  0  0  0  0  0  0  0  0
    5.7041  -12.1899   25.6079 C   0  0  0  0  0  0  0  0  0  0  0  0
    5.9643  -13.4311   26.1178 C   0  0  0  0  0  0  0  0  0  0  0  0
    8.9607  -17.0588   26.9465 C   0  0  0  0  0  0  0  0  0  0  0  0
    9.7578  -17.0866   28.0782 O   0  0  0  0  0  0  0  0  0  0  0  0
    8.6267  -18.2079   26.5067 O   0  0  0  0  0  0  0  0  0  0  0  0
  2  1  1  6
  3  2  1  0
  3  4  1  0
  4  5  1  0
  5  9  1  0
  6  5  2  0
  7  2  1  0
  8  7  2  0
 10  7  1  0
 11 10  1  0
 11 12  1  6
 12 13  1  0
 13 17  1  0
 14 13  2  0
 14 15  1  0
 15 16  1  0
 17 16  2  0
 18 19  2  0
 18 11  1  0
 20 18  1  0
 21 22  1  1
 21 20  1  0
 23 28  1  0
 23 22  1  0
 24 23  2  0
 25 26  2  0
 25 24  1  0
 26 27  1  0
 27 28  2  0
 29 21  1  0
 30 29  1  0
 31 29  2  0
M  END
$$$$
