EHF.pdb
     RDKit          3D

 31 32  0  0  1  0  0  0  0  0999 V2000
    6.6896  -15.5061   19.2427 N   0  0  0  0  0  0  0  0  0  0  0  0
    7.5675  -15.1376   20.3015 C   0  0  1  0  0  0  0  0  0  0  0  0
    7.6484  -13.6361   20.4189 C   0  0  0  0  0  0  0  0  0  0  0  0
    8.0634  -12.9612   19.1544 C   0  0  0  0  0  0  0  0  0  0  0  0
    9.4849  -13.1352   18.8098 C   0  0  0  0  0  0  0  0  0  0  0  0
   10.3168  -13.8085   19.4758 O   0  0  0  0  0  0  0  0  0  0  0  0
    7.1723  -15.6917   21.6272 C   0  0  0  0  0  0  0  0  0  0  0  0
    5.9681  -15.6761   22.0450 O   0  0  0  0  0  0  0  0  0  0  0  0
    9.9621  -12.5035   17.6488 O   0  0  0  0  0  0  0  0  0  0  0  0
    8.1972  -16.2487   22.4266 N   0  0  0  0  0  0  0  0  0  0  0  0
    7.8986  -17.0199   23.6694 C   0  0  1  0  0  0  0  0  0  0  0  0
    8.1098  -18.4779   23.3699 C   0  0  0  0  0  0  0  0  0  0  0  0
    7.0292  -19.0758   22.5705 C   0  0  0  0  0  0  0  0  0  0  0  0
    7.1357  -19.6593   21.3040 C   0  0  0  0  0  0  0  0  0  0  0  0
    5.9373  -20.0794   20.9173 N   0  0  0  0  0  0  0  0  0  0  0  0
    5.0865  -19.7720   21.9116 C   0  0  0  0  0  0  0  0  0  0  0  0
    5.7440  -19.1703   22.9013 N   0  0  0  0  0  0  0  0  0  0  0  0
    8.7366  -16.4290   24.6989 C   0  0  0  0  0  0  0  0  0  0  0  0
    9.9918  -16.2283   24.4632 O   0  0  0  0  0  0  0  0  0  0  0  0
    8.3656  -16.0088   25.9971 N   0  0  0  0  0  0  0  0  0  0  0  0
    9.3288  -15.5190   26.9880 C   0  0  1  0  0  0  0  0  0  0  0  0
    8.6557  -14.5864   27.9572 C   0  0  0  0  0  0  0  0  0  0  0  0
    7.9349  -13.5366   27.2367 C   0  0  0  0  0  0  0  0  0  0  0  0
    8.4108  -12.2629   27.0605 C   0  0  0  0  0  0  0  0  0  0  0  0
    7.7237  -11.2891   26.3670 C   0  0  0  0  0  0  0  0  0  0  0  0
    6.4872  -11.5880   25.8102 C   0  0  0  0  0  0  0  0  0  0  0  0
    5.9867  -12.8635   25.9742 C   0  0  0  0  0  0  0  0  0  0  0  0
    6.6878  -13.8109   26.6664 C   0  0  0  0  0  0  0  0  0  0  0  0
    9.8881  -16.6686   27.6980 C   0  0  0  0  0  0  0  0  0  0  0  0
   10.9711  -16.6359   28.5598 O   0  0  0  0  0  0  0  0  0  0  0  0
    9.3697  -17.8231   27.5438 O   0  0  0  0  0  0  0  0  0  0  0  0
  2  1  1  6
  3  2  1  0
  3  4  1  0
  4  5  1  0
  5  9  1  0
  6  5  2  0
  7  2  1  0
  8  7  2  0
 10  7  1  0
 11 10  1  0
 11 12  1  6
 12 13  1  0
 13 17  1  0
 14 13  2  0
 14 15  1  0
 15 16  1  0
 17 16  2  0
 18 19  2  0
 18 11  1  0
 20 18  1  0
 21 22  1  1
 21 20  1  0
 23 28  1  0
 23 22  1  0
 24 23  2  0
 25 26  2  0
 25 24  1  0
 26 27  1  0
 27 28  2  0
 29 21  1  0
 30 29  1  0
 31 29  2  0
M  END
$$$$
