EHF.pdb
     RDKit          3D

 31 32  0  0  1  0  0  0  0  0999 V2000
   12.4539  -17.1327   19.2549 N   0  0  0  0  0  0  0  0  0  0  0  0
   11.2931  -17.5431   19.9703 C   0  0  1  0  0  0  0  0  0  0  0  0
   11.5576  -18.8330   20.7059 C   0  0  0  0  0  0  0  0  0  0  0  0
   12.7467  -18.7727   21.6055 C   0  0  0  0  0  0  0  0  0  0  0  0
   13.0751  -20.0475   22.2664 C   0  0  0  0  0  0  0  0  0  0  0  0
   12.4668  -21.1369   22.0868 O   0  0  0  0  0  0  0  0  0  0  0  0
   10.8071  -16.5334   20.9526 C   0  0  0  0  0  0  0  0  0  0  0  0
   11.5948  -15.8926   21.7231 O   0  0  0  0  0  0  0  0  0  0  0  0
   14.1495  -20.0609   23.1720 O   0  0  0  0  0  0  0  0  0  0  0  0
    9.4131  -16.3018   21.0056 N   0  0  0  0  0  0  0  0  0  0  0  0
    8.8219  -15.2327   21.8635 C   0  0  1  0  0  0  0  0  0  0  0  0
    7.4914  -14.8523   21.2759 C   0  0  0  0  0  0  0  0  0  0  0  0
    7.5876  -14.2877   19.9209 C   0  0  0  0  0  0  0  0  0  0  0  0
    8.0100  -13.0024   19.5667 C   0  0  0  0  0  0  0  0  0  0  0  0
    7.9522  -12.8747   18.2467 N   0  0  0  0  0  0  0  0  0  0  0  0
    7.5043  -14.0488   17.7694 C   0  0  0  0  0  0  0  0  0  0  0  0
    7.2865  -14.8939   18.7755 N   0  0  0  0  0  0  0  0  0  0  0  0
    8.8175  -15.7790   23.2099 C   0  0  0  0  0  0  0  0  0  0  0  0
    9.7906  -16.5388   23.5938 O   0  0  0  0  0  0  0  0  0  0  0  0
    7.8557  -15.5911   24.2292 N   0  0  0  0  0  0  0  0  0  0  0  0
    7.9991  -16.1435   25.5796 C   0  0  1  0  0  0  0  0  0  0  0  0
    8.4729  -15.0812   26.5332 C   0  0  0  0  0  0  0  0  0  0  0  0
    7.6110  -13.9018   26.4508 C   0  0  0  0  0  0  0  0  0  0  0  0
    6.3268  -13.8565   26.9289 C   0  0  0  0  0  0  0  0  0  0  0  0
    5.5325  -12.7317   26.8547 C   0  0  0  0  0  0  0  0  0  0  0  0
    6.0347  -11.5756   26.2721 C   0  0  0  0  0  0  0  0  0  0  0  0
    7.3250  -11.5964   25.7832 C   0  0  0  0  0  0  0  0  0  0  0  0
    8.0919  -12.7246   25.8689 C   0  0  0  0  0  0  0  0  0  0  0  0
    6.7014  -16.6644   26.0072 C   0  0  0  0  0  0  0  0  0  0  0  0
    6.4591  -17.3672   27.1752 O   0  0  0  0  0  0  0  0  0  0  0  0
    5.6726  -16.4823   25.2766 O   0  0  0  0  0  0  0  0  0  0  0  0
  2  1  1  1
  3  2  1  0
  3  4  1  0
  4  5  1  0
  5  9  1  0
  6  5  2  0
  7  2  1  0
  8  7  2  0
 10  7  1  0
 11 10  1  0
 11 12  1  6
 12 13  1  0
 13 17  1  0
 14 13  2  0
 14 15  1  0
 15 16  1  0
 17 16  2  0
 18 19  2  0
 18 11  1  0
 20 18  1  0
 21 22  1  1
 21 20  1  0
 23 28  1  0
 23 22  1  0
 24 23  2  0
 25 26  2  0
 25 24  1  0
 26 27  1  0
 27 28  2  0
 29 21  1  0
 30 29  1  0
 31 29  2  0
M  END
$$$$
