LDE.pdb
     RDKit          3D

 26 25  0  0  1  0  0  0  0  0999 V2000
   26.4772  -11.9289  -16.7538 C   0  0  0  0  0  0  0  0  0  0  0  0
   25.8168  -10.8304  -15.9685 C   0  0  1  0  0  0  0  0  0  0  0  0
   26.8709   -9.7961  -15.6452 C   0  0  0  0  0  0  0  0  0  0  0  0
   24.6339  -10.2172  -16.6560 C   0  0  0  0  0  0  0  0  0  0  0  0
   24.0155   -9.1341  -15.8342 C   0  0  2  0  0  0  0  0  0  0  0  0
   23.6790   -9.6798  -14.5271 N   0  0  0  0  0  0  0  0  0  0  0  0
   22.7575   -8.6428  -16.4342 C   0  0  0  0  0  0  0  0  0  0  0  0
   22.6778   -8.3536  -17.6610 O   0  0  0  0  0  0  0  0  0  0  0  0
   21.5533   -8.4634  -15.6697 N   0  0  0  0  0  0  0  0  0  0  0  0
   20.3455   -7.9957  -16.2920 C   0  0  1  0  0  0  0  0  0  0  0  0
   19.1071   -8.5557  -15.6629 C   0  0  0  0  0  0  0  0  0  0  0  0
   18.9463  -10.0136  -15.8354 C   0  0  0  0  0  0  0  0  0  0  0  0
   19.1932  -10.5634  -16.9357 O   0  0  0  0  0  0  0  0  0  0  0  0
   20.2692   -6.5115  -16.2706 C   0  0  0  0  0  0  0  0  0  0  0  0
   20.8110   -5.8882  -15.3249 O   0  0  0  0  0  0  0  0  0  0  0  0
   18.5192  -10.8181  -14.7915 O   0  0  0  0  0  0  0  0  0  0  0  0
   19.6107   -5.7873  -17.2740 N   0  0  0  0  0  0  0  0  0  0  0  0
   19.5183   -4.3111  -17.2750 C   0  0  1  0  0  0  0  0  0  0  0  0
   19.4516   -3.7908  -18.6708 C   0  0  0  0  0  0  0  0  0  0  0  0
   19.3945   -2.3161  -18.7660 C   0  0  0  0  0  0  0  0  0  0  0  0
   20.6952   -1.6537  -18.8640 C   0  0  0  0  0  0  0  0  0  0  0  0
   21.5181   -1.9302  -19.7689 O   0  0  0  0  0  0  0  0  0  0  0  0
   18.3404   -3.9525  -16.4721 C   0  0  0  0  0  0  0  0  0  0  0  0
   18.3287   -2.7901  -15.7237 O   0  0  0  0  0  0  0  0  0  0  0  0
   21.0720   -0.6763  -17.9404 O   0  0  0  0  0  0  0  0  0  0  0  0
   17.3032   -4.6622  -16.4202 O   0  0  0  0  0  0  0  0  0  0  0  0
  2  4  1  0
  2  1  1  6
  3  2  1  0
  4  5  1  0
  5  7  1  0
  5  6  1  1
  7  8  2  0
  9 10  1  0
  9  7  1  0
 11 12  1  0
 10 11  1  1
 12 16  1  0
 13 12  2  0
 14 10  1  0
 14 15  2  0
 17 14  1  0
 18 17  1  0
 18 23  1  0
 18 19  1  6
 20 19  1  0
 21 22  2  0
 21 20  1  0
 23 26  2  0
 23 24  1  0
 25 21  1  0
M  END
$$$$
