LDE.pdb
     RDKit          3D

 26 25  0  0  1  0  0  0  0  0999 V2000
   20.6754  -10.9292  -15.5698 C   0  0  0  0  0  0  0  0  0  0  0  0
   19.2367  -11.1707  -15.2072 C   0  0  1  0  0  0  0  0  0  0  0  0
   19.1194  -12.5920  -14.7056 C   0  0  0  0  0  0  0  0  0  0  0  0
   18.6853  -10.1884  -14.2177 C   0  0  0  0  0  0  0  0  0  0  0  0
   17.2604  -10.4828  -13.8802 C   0  0  2  0  0  0  0  0  0  0  0  0
   16.4739  -10.4270  -15.1041 N   0  0  0  0  0  0  0  0  0  0  0  0
   16.6972   -9.4743  -12.9584 C   0  0  0  0  0  0  0  0  0  0  0  0
   16.3219   -8.3399  -13.3673 O   0  0  0  0  0  0  0  0  0  0  0  0
   16.5406   -9.7147  -11.5497 N   0  0  0  0  0  0  0  0  0  0  0  0
   15.9440   -8.7271  -10.6931 C   0  0  1  0  0  0  0  0  0  0  0  0
   15.0778   -9.3227   -9.6263 C   0  0  0  0  0  0  0  0  0  0  0  0
   13.8043   -9.8822  -10.1225 C   0  0  0  0  0  0  0  0  0  0  0  0
   13.4294  -11.0304   -9.7834 O   0  0  0  0  0  0  0  0  0  0  0  0
   16.9793   -7.8735  -10.0539 C   0  0  0  0  0  0  0  0  0  0  0  0
   17.8564   -8.4151   -9.3371 O   0  0  0  0  0  0  0  0  0  0  0  0
   12.9856   -9.1598  -10.9752 O   0  0  0  0  0  0  0  0  0  0  0  0
   17.0056   -6.4828  -10.2271 N   0  0  0  0  0  0  0  0  0  0  0  0
   18.0756   -5.6215   -9.6788 C   0  0  1  0  0  0  0  0  0  0  0  0
   19.3685   -5.8851  -10.3732 C   0  0  0  0  0  0  0  0  0  0  0  0
   19.3852   -5.4833  -11.7964 C   0  0  0  0  0  0  0  0  0  0  0  0
   20.6392   -5.7549  -12.4991 C   0  0  0  0  0  0  0  0  0  0  0  0
   20.7602   -5.5887  -13.7361 O   0  0  0  0  0  0  0  0  0  0  0  0
   17.6227   -4.2301   -9.8182 C   0  0  0  0  0  0  0  0  0  0  0  0
   16.5089   -3.9275  -10.5794 O   0  0  0  0  0  0  0  0  0  0  0  0
   21.7619   -6.2153  -11.8077 O   0  0  0  0  0  0  0  0  0  0  0  0
   18.2055   -3.2602   -9.2686 O   0  0  0  0  0  0  0  0  0  0  0  0
  2  4  1  0
  2  1  1  1
  3  2  1  0
  4  5  1  0
  5  7  1  0
  5  6  1  6
  7  8  2  0
  9 10  1  0
  9  7  1  0
 11 12  1  0
 10 11  1  1
 12 16  1  0
 13 12  2  0
 14 10  1  0
 14 15  2  0
 17 14  1  0
 18 17  1  0
 18 23  1  0
 18 19  1  6
 20 19  1  0
 21 22  2  0
 21 20  1  0
 23 26  2  0
 23 24  1  0
 25 21  1  0
M  END
$$$$
