LDE.pdb
     RDKit          3D

 26 25  0  0  1  0  0  0  0  0999 V2000
   42.2509  -14.1837   -9.9936 C   0  0  0  0  0  0  0  0  0  0  0  0
   43.2754  -13.2648   -9.3888 C   0  0  1  0  0  0  0  0  0  0  0  0
   44.1574  -12.7572  -10.5069 C   0  0  0  0  0  0  0  0  0  0  0  0
   42.6881  -12.1377   -8.5935 C   0  0  0  0  0  0  0  0  0  0  0  0
   43.7420  -11.2065   -8.0904 C   0  0  2  0  0  0  0  0  0  0  0  0
   44.3869  -11.8174   -6.9369 N   0  0  0  0  0  0  0  0  0  0  0  0
   43.1664   -9.9240   -7.6347 C   0  0  0  0  0  0  0  0  0  0  0  0
   42.5518   -9.8275   -6.5357 O   0  0  0  0  0  0  0  0  0  0  0  0
   43.2666   -8.7135   -8.4038 N   0  0  0  0  0  0  0  0  0  0  0  0
   42.7433   -7.4731   -7.9013 C   0  0  1  0  0  0  0  0  0  0  0  0
   43.7551   -6.3689   -7.8972 C   0  0  0  0  0  0  0  0  0  0  0  0
   43.2669   -5.1023   -7.3153 C   0  0  0  0  0  0  0  0  0  0  0  0
   42.5500   -5.1002   -6.2858 O   0  0  0  0  0  0  0  0  0  0  0  0
   41.5548   -7.0361   -8.6795 C   0  0  0  0  0  0  0  0  0  0  0  0
   41.5624   -7.1700   -9.9278 O   0  0  0  0  0  0  0  0  0  0  0  0
   43.5839   -3.8801   -7.8854 O   0  0  0  0  0  0  0  0  0  0  0  0
   40.4265   -6.4793   -8.0617 N   0  0  0  0  0  0  0  0  0  0  0  0
   39.2396   -6.0184   -8.8142 C   0  0  1  0  0  0  0  0  0  0  0  0
   38.1501   -5.6149   -7.8795 C   0  0  0  0  0  0  0  0  0  0  0  0
   37.5231   -6.7424   -7.1565 C   0  0  0  0  0  0  0  0  0  0  0  0
   36.4446   -6.3656   -6.2428 C   0  0  0  0  0  0  0  0  0  0  0  0
   35.3661   -7.0027   -6.1851 O   0  0  0  0  0  0  0  0  0  0  0  0
   39.6819   -4.9218   -9.6874 C   0  0  0  0  0  0  0  0  0  0  0  0
   40.6269   -4.0130   -9.2486 O   0  0  0  0  0  0  0  0  0  0  0  0
   36.5796   -5.2675   -5.3904 O   0  0  0  0  0  0  0  0  0  0  0  0
   39.2391   -4.7506  -10.8522 O   0  0  0  0  0  0  0  0  0  0  0  0
  2  4  1  0
  2  1  1  6
  3  2  1  0
  4  5  1  0
  5  7  1  0
  5  6  1  1
  7  8  2  0
  9 10  1  0
  9  7  1  0
 11 12  1  0
 10 11  1  6
 12 16  1  0
 13 12  2  0
 14 10  1  0
 14 15  2  0
 17 14  1  0
 18 17  1  0
 18 23  1  0
 18 19  1  1
 20 19  1  0
 21 22  2  0
 21 20  1  0
 23 26  2  0
 23 24  1  0
 25 21  1  0
M  END
$$$$
