LDE.pdb
     RDKit          3D

 26 25  0  0  1  0  0  0  0  0999 V2000
   18.5863  -13.3601    2.9085 C   0  0  0  0  0  0  0  0  0  0  0  0
   17.7900  -14.6331    2.9793 C   0  0  1  0  0  0  0  0  0  0  0  0
   17.9992  -15.3811    1.6822 C   0  0  0  0  0  0  0  0  0  0  0  0
   18.1130  -15.4878    4.1680 C   0  0  0  0  0  0  0  0  0  0  0  0
   17.2926  -16.7357    4.1924 C   0  0  2  0  0  0  0  0  0  0  0  0
   15.8871  -16.3675    4.0998 N   0  0  0  0  0  0  0  0  0  0  0  0
   17.4624  -17.4771    5.4594 C   0  0  0  0  0  0  0  0  0  0  0  0
   18.5793  -17.9579    5.8007 O   0  0  0  0  0  0  0  0  0  0  0  0
   16.3791  -17.6983    6.3783 N   0  0  0  0  0  0  0  0  0  0  0  0
   16.5930  -18.3870    7.6212 C   0  0  1  0  0  0  0  0  0  0  0  0
   15.6680  -17.9347    8.7087 C   0  0  0  0  0  0  0  0  0  0  0  0
   15.9105  -16.5546    9.1751 C   0  0  0  0  0  0  0  0  0  0  0  0
   14.9873  -15.7051    9.1818 O   0  0  0  0  0  0  0  0  0  0  0  0
   16.4569  -19.8574    7.4518 C   0  0  0  0  0  0  0  0  0  0  0  0
   15.5495  -20.3022    6.7068 O   0  0  0  0  0  0  0  0  0  0  0  0
   17.1606  -16.1550    9.6186 O   0  0  0  0  0  0  0  0  0  0  0  0
   17.3106  -20.7615    8.0986 N   0  0  0  0  0  0  0  0  0  0  0  0
   17.2926  -22.2170    7.8364 C   0  0  1  0  0  0  0  0  0  0  0  0
   18.2435  -22.5644    6.7416 C   0  0  0  0  0  0  0  0  0  0  0  0
   18.3322  -24.0121    6.4524 C   0  0  0  0  0  0  0  0  0  0  0  0
   19.2465  -24.3693    5.3678 C   0  0  0  0  0  0  0  0  0  0  0  0
   19.8961  -23.5059    4.7313 O   0  0  0  0  0  0  0  0  0  0  0  0
   17.6090  -22.8875    9.1056 C   0  0  0  0  0  0  0  0  0  0  0  0
   17.3517  -24.2359    9.2700 O   0  0  0  0  0  0  0  0  0  0  0  0
   19.4312  -25.7032    4.9974 O   0  0  0  0  0  0  0  0  0  0  0  0
   18.1180  -22.2907   10.0889 O   0  0  0  0  0  0  0  0  0  0  0  0
  2  4  1  0
  2  1  1  6
  3  2  1  0
  4  5  1  0
  5  7  1  0
  5  6  1  1
  7  8  2  0
  9 10  1  0
  9  7  1  0
 11 12  1  0
 10 11  1  1
 12 16  1  0
 13 12  2  0
 14 10  1  0
 14 15  2  0
 17 14  1  0
 18 17  1  0
 18 23  1  0
 18 19  1  6
 20 19  1  0
 21 22  2  0
 21 20  1  0
 23 26  2  0
 23 24  1  0
 25 21  1  0
M  END
$$$$
