LDE.pdb
     RDKit          3D

 26 25  0  0  1  0  0  0  0  0999 V2000
   29.9960  -21.6808   -8.7888 C   0  0  0  0  0  0  0  0  0  0  0  0
   28.5260  -21.3748   -8.8614 C   0  0  1  0  0  0  0  0  0  0  0  0
   28.1847  -20.4711   -7.6986 C   0  0  0  0  0  0  0  0  0  0  0  0
   28.0917  -20.7815  -10.1681 C   0  0  0  0  0  0  0  0  0  0  0  0
   26.6420  -20.4221  -10.1587 C   0  0  2  0  0  0  0  0  0  0  0  0
   25.9642  -21.2583   -9.1783 N   0  0  0  0  0  0  0  0  0  0  0  0
   26.0048  -20.6857  -11.4657 C   0  0  0  0  0  0  0  0  0  0  0  0
   26.4074  -20.1256  -12.5236 O   0  0  0  0  0  0  0  0  0  0  0  0
   24.8958  -21.5877  -11.6186 N   0  0  0  0  0  0  0  0  0  0  0  0
   24.3079  -21.8245  -12.9083 C   0  0  1  0  0  0  0  0  0  0  0  0
   23.8948  -23.2496  -13.1114 C   0  0  0  0  0  0  0  0  0  0  0  0
   23.5325  -23.5826  -14.5040 C   0  0  0  0  0  0  0  0  0  0  0  0
   23.5164  -22.6991  -15.3945 O   0  0  0  0  0  0  0  0  0  0  0  0
   23.1318  -20.9440  -13.1332 C   0  0  0  0  0  0  0  0  0  0  0  0
   22.4726  -20.5448  -12.1420 O   0  0  0  0  0  0  0  0  0  0  0  0
   23.2001  -24.8766  -14.8703 O   0  0  0  0  0  0  0  0  0  0  0  0
   22.7369  -20.5463  -14.4180 N   0  0  0  0  0  0  0  0  0  0  0  0
   21.6035  -19.6290  -14.6659 C   0  0  1  0  0  0  0  0  0  0  0  0
   21.9203  -18.6941  -15.7835 C   0  0  0  0  0  0  0  0  0  0  0  0
   20.8720  -17.6840  -16.0445 C   0  0  0  0  0  0  0  0  0  0  0  0
   19.7599  -18.1494  -16.8731 C   0  0  0  0  0  0  0  0  0  0  0  0
   19.9407  -18.6855  -17.9922 O   0  0  0  0  0  0  0  0  0  0  0  0
   20.4238  -20.4641  -14.9334 C   0  0  0  0  0  0  0  0  0  0  0  0
   19.2250  -20.2111  -14.2927 O   0  0  0  0  0  0  0  0  0  0  0  0
   18.4389  -18.0115  -16.4412 O   0  0  0  0  0  0  0  0  0  0  0  0
   20.4353  -21.4308  -15.7381 O   0  0  0  0  0  0  0  0  0  0  0  0
  2  4  1  0
  2  1  1  6
  3  2  1  0
  4  5  1  0
  5  7  1  0
  5  6  1  1
  7  8  2  0
  9 10  1  0
  9  7  1  0
 11 12  1  0
 10 11  1  1
 12 16  1  0
 13 12  2  0
 14 10  1  0
 14 15  2  0
 17 14  1  0
 18 17  1  0
 18 23  1  0
 18 19  1  6
 20 19  1  0
 21 22  2  0
 21 20  1  0
 23 26  2  0
 23 24  1  0
 25 21  1  0
M  END
$$$$
