LDE.pdb
     RDKit          3D

 26 25  0  0  1  0  0  0  0  0999 V2000
   12.5114  -11.9460  -15.5004 C   0  0  0  0  0  0  0  0  0  0  0  0
   13.9562  -12.2484  -15.7847 C   0  0  1  0  0  0  0  0  0  0  0  0
   14.1789  -12.0818  -17.2707 C   0  0  0  0  0  0  0  0  0  0  0  0
   14.9194  -11.4227  -14.9859 C   0  0  0  0  0  0  0  0  0  0  0  0
   16.3376  -11.7235  -15.3452 C   0  0  2  0  0  0  0  0  0  0  0  0
   16.7377  -12.9472  -14.6653 N   0  0  0  0  0  0  0  0  0  0  0  0
   17.2548  -10.6574  -14.8912 C   0  0  0  0  0  0  0  0  0  0  0  0
   17.3723  -10.3611  -13.6692 O   0  0  0  0  0  0  0  0  0  0  0  0
   18.0658   -9.8945  -15.8006 N   0  0  0  0  0  0  0  0  0  0  0  0
   18.9895   -8.9061  -15.3162 C   0  0  1  0  0  0  0  0  0  0  0  0
   20.4165   -9.3565  -15.3790 C   0  0  0  0  0  0  0  0  0  0  0  0
   21.3844   -8.3789  -14.8418 C   0  0  0  0  0  0  0  0  0  0  0  0
   22.5205   -8.2470  -15.3574 O   0  0  0  0  0  0  0  0  0  0  0  0
   18.8527   -7.6293  -16.0648 C   0  0  0  0  0  0  0  0  0  0  0  0
   18.8153   -7.6610  -17.3193 O   0  0  0  0  0  0  0  0  0  0  0  0
   21.0701   -7.5791  -13.7552 O   0  0  0  0  0  0  0  0  0  0  0  0
   18.7643   -6.3919  -15.4124 N   0  0  0  0  0  0  0  0  0  0  0  0
   18.6118   -5.1091  -16.1326 C   0  0  1  0  0  0  0  0  0  0  0  0
   17.6943   -4.1971  -15.3911 C   0  0  0  0  0  0  0  0  0  0  0  0
   16.2587   -4.5009  -15.5748 C   0  0  0  0  0  0  0  0  0  0  0  0
   15.3442   -3.6209  -14.8473 C   0  0  0  0  0  0  0  0  0  0  0  0
   15.2882   -2.3877  -15.0680 O   0  0  0  0  0  0  0  0  0  0  0  0
   19.9599   -4.5497  -16.3065 C   0  0  0  0  0  0  0  0  0  0  0  0
   20.1517   -3.3986  -17.0479 O   0  0  0  0  0  0  0  0  0  0  0  0
   14.4890   -4.1298  -13.8674 O   0  0  0  0  0  0  0  0  0  0  0  0
   20.9892   -5.0707  -15.8052 O   0  0  0  0  0  0  0  0  0  0  0  0
  2  4  1  0
  2  1  1  6
  3  2  1  0
  4  5  1  0
  5  7  1  0
  5  6  1  1
  7  8  2  0
  9 10  1  0
  9  7  1  0
 11 12  1  0
 10 11  1  6
 12 16  1  0
 13 12  2  0
 14 10  1  0
 14 15  2  0
 17 14  1  0
 18 17  1  0
 18 23  1  0
 18 19  1  1
 20 19  1  0
 21 22  2  0
 21 20  1  0
 23 26  2  0
 23 24  1  0
 25 21  1  0
M  END
$$$$
