LDE.pdb
     RDKit          3D

 26 25  0  0  1  0  0  0  0  0999 V2000
   11.8507  -12.5555  -12.0994 C   0  0  0  0  0  0  0  0  0  0  0  0
   13.1481  -12.2311  -11.4130 C   0  0  1  0  0  0  0  0  0  0  0  0
   14.2118  -13.1423  -11.9820 C   0  0  0  0  0  0  0  0  0  0  0  0
   13.5453  -10.7888  -11.5126 C   0  0  0  0  0  0  0  0  0  0  0  0
   14.8414  -10.5220  -10.8198 C   0  0  2  0  0  0  0  0  0  0  0  0
   14.7313  -10.9764   -9.4410 N   0  0  0  0  0  0  0  0  0  0  0  0
   15.1506   -9.0776  -10.7754 C   0  0  0  0  0  0  0  0  0  0  0  0
   15.3646   -8.4136  -11.8281 O   0  0  0  0  0  0  0  0  0  0  0  0
   15.2275   -8.3398   -9.5439 N   0  0  0  0  0  0  0  0  0  0  0  0
   15.3816   -6.9111   -9.5466 C   0  0  1  0  0  0  0  0  0  0  0  0
   15.1138   -6.2901   -8.2103 C   0  0  0  0  0  0  0  0  0  0  0  0
   15.0837   -4.8136   -8.2237 C   0  0  0  0  0  0  0  0  0  0  0  0
   15.2518   -4.1753   -9.2906 O   0  0  0  0  0  0  0  0  0  0  0  0
   16.7419   -6.5176   -9.9980 C   0  0  0  0  0  0  0  0  0  0  0  0
   17.7400   -6.9564   -9.3753 O   0  0  0  0  0  0  0  0  0  0  0  0
   14.8696   -4.0885   -7.0628 O   0  0  0  0  0  0  0  0  0  0  0  0
   16.9437   -5.6718  -11.0974 N   0  0  0  0  0  0  0  0  0  0  0  0
   18.2736   -5.4349  -11.6998 C   0  0  1  0  0  0  0  0  0  0  0  0
   18.9055   -6.7249  -12.0998 C   0  0  0  0  0  0  0  0  0  0  0  0
   20.2134   -6.5760  -12.7738 C   0  0  0  0  0  0  0  0  0  0  0  0
   20.8240   -7.8287  -13.2187 C   0  0  0  0  0  0  0  0  0  0  0  0
   20.2647   -8.9389  -13.0538 O   0  0  0  0  0  0  0  0  0  0  0  0
   18.0770   -4.5172  -12.8311 C   0  0  0  0  0  0  0  0  0  0  0  0
   19.1480   -3.8300  -13.3715 O   0  0  0  0  0  0  0  0  0  0  0  0
   22.0689   -7.8328  -13.8519 O   0  0  0  0  0  0  0  0  0  0  0  0
   16.9544   -4.3091  -13.3589 O   0  0  0  0  0  0  0  0  0  0  0  0
  2  4  1  0
  2  1  1  6
  3  2  1  0
  4  5  1  0
  5  7  1  0
  5  6  1  1
  7  8  2  0
  9 10  1  0
  9  7  1  0
 11 12  1  0
 10 11  1  1
 12 16  1  0
 13 12  2  0
 14 10  1  0
 14 15  2  0
 17 14  1  0
 18 17  1  0
 18 23  1  0
 18 19  1  6
 20 19  1  0
 21 22  2  0
 21 20  1  0
 23 26  2  0
 23 24  1  0
 25 21  1  0
M  END
$$$$
