LDE.pdb
     RDKit          3D

 26 25  0  0  1  0  0  0  0  0999 V2000
   14.2562  -13.6042  -11.1138 C   0  0  0  0  0  0  0  0  0  0  0  0
   15.3910  -12.9638  -10.3642 C   0  0  1  0  0  0  0  0  0  0  0  0
   16.6381  -13.7747  -10.6336 C   0  0  0  0  0  0  0  0  0  0  0  0
   15.5938  -11.5142  -10.6892 C   0  0  0  0  0  0  0  0  0  0  0  0
   14.7167  -10.6330   -9.8616 C   0  0  2  0  0  0  0  0  0  0  0  0
   13.3277  -10.9647  -10.1452 N   0  0  0  0  0  0  0  0  0  0  0  0
   14.8982   -9.2063  -10.2014 C   0  0  0  0  0  0  0  0  0  0  0  0
   14.2834   -8.6721  -11.1665 O   0  0  0  0  0  0  0  0  0  0  0  0
   15.7775   -8.3404   -9.4638 N   0  0  0  0  0  0  0  0  0  0  0  0
   15.9186   -6.9549   -9.8178 C   0  0  1  0  0  0  0  0  0  0  0  0
   15.8844   -6.0406   -8.6321 C   0  0  0  0  0  0  0  0  0  0  0  0
   14.5633   -5.9448   -7.9790 C   0  0  0  0  0  0  0  0  0  0  0  0
   13.5105   -5.8911   -8.6592 O   0  0  0  0  0  0  0  0  0  0  0  0
   17.1760   -6.7182  -10.5741 C   0  0  0  0  0  0  0  0  0  0  0  0
   18.2484   -7.2049  -10.1385 O   0  0  0  0  0  0  0  0  0  0  0  0
   14.4444   -5.9113   -6.5991 O   0  0  0  0  0  0  0  0  0  0  0  0
   17.2005   -5.9684  -11.7581 N   0  0  0  0  0  0  0  0  0  0  0  0
   18.3852   -5.8918  -12.6403 C   0  0  1  0  0  0  0  0  0  0  0  0
   18.7155   -7.2367  -13.1928 C   0  0  0  0  0  0  0  0  0  0  0  0
   17.7648   -7.7217  -14.2167 C   0  0  0  0  0  0  0  0  0  0  0  0
   18.1590   -8.9610  -14.8865 C   0  0  0  0  0  0  0  0  0  0  0  0
   17.6647   -9.3125  -15.9840 O   0  0  0  0  0  0  0  0  0  0  0  0
   18.0823   -4.9014  -13.6834 C   0  0  0  0  0  0  0  0  0  0  0  0
   19.0798   -4.4362  -14.5200 O   0  0  0  0  0  0  0  0  0  0  0  0
   19.1132   -9.8087  -14.3195 O   0  0  0  0  0  0  0  0  0  0  0  0
   16.9304   -4.4323  -13.8707 O   0  0  0  0  0  0  0  0  0  0  0  0
  2  4  1  0
  2  1  1  6
  3  2  1  0
  4  5  1  0
  5  7  1  0
  5  6  1  6
  7  8  2  0
  9 10  1  0
  9  7  1  0
 11 12  1  0
 10 11  1  1
 12 16  1  0
 13 12  2  0
 14 10  1  0
 14 15  2  0
 17 14  1  0
 18 17  1  0
 18 23  1  0
 18 19  1  6
 20 19  1  0
 21 22  2  0
 21 20  1  0
 23 26  2  0
 23 24  1  0
 25 21  1  0
M  END
$$$$
