LDE.pdb
     RDKit          3D

 26 25  0  0  1  0  0  0  0  0999 V2000
   23.9579  -32.8078   -4.4132 C   0  0  0  0  0  0  0  0  0  0  0  0
   25.2711  -33.4440   -4.0520 C   0  0  1  0  0  0  0  0  0  0  0  0
   26.1052  -33.5273   -5.3101 C   0  0  0  0  0  0  0  0  0  0  0  0
   26.0043  -32.7420   -2.9486 C   0  0  0  0  0  0  0  0  0  0  0  0
   27.1984  -33.5169   -2.4964 C   0  0  2  0  0  0  0  0  0  0  0  0
   27.2877  -34.7343   -3.2898 N   0  0  0  0  0  0  0  0  0  0  0  0
   27.0786  -33.9305   -1.0827 C   0  0  0  0  0  0  0  0  0  0  0  0
   26.9979  -33.0833   -0.1496 O   0  0  0  0  0  0  0  0  0  0  0  0
   27.0464  -35.3101   -0.6795 N   0  0  0  0  0  0  0  0  0  0  0  0
   27.0116  -35.6734    0.7103 C   0  0  1  0  0  0  0  0  0  0  0  0
   25.6930  -36.2427    1.1346 C   0  0  0  0  0  0  0  0  0  0  0  0
   25.4806  -36.2548    2.5961 C   0  0  0  0  0  0  0  0  0  0  0  0
   26.3447  -35.7881    3.3767 O   0  0  0  0  0  0  0  0  0  0  0  0
   28.0860  -36.6465    1.0389 C   0  0  0  0  0  0  0  0  0  0  0  0
   28.1400  -37.7295    0.4059 O   0  0  0  0  0  0  0  0  0  0  0  0
   24.3245  -36.7801    3.1501 O   0  0  0  0  0  0  0  0  0  0  0  0
   29.0399  -36.3916    2.0338 N   0  0  0  0  0  0  0  0  0  0  0  0
   30.1817  -37.2913    2.3063 C   0  0  1  0  0  0  0  0  0  0  0  0
   31.3968  -36.5036    2.6620 C   0  0  0  0  0  0  0  0  0  0  0  0
   31.2986  -35.7869    3.9519 C   0  0  0  0  0  0  0  0  0  0  0  0
   32.5100  -35.0723    4.3541 C   0  0  0  0  0  0  0  0  0  0  0  0
   33.5457  -35.0646    3.6472 O   0  0  0  0  0  0  0  0  0  0  0  0
   29.7611  -38.2104    3.3734 C   0  0  0  0  0  0  0  0  0  0  0  0
   30.4376  -39.3976    3.5842 O   0  0  0  0  0  0  0  0  0  0  0  0
   32.5568  -34.3632    5.5564 O   0  0  0  0  0  0  0  0  0  0  0  0
   28.7882  -37.9775    4.1359 O   0  0  0  0  0  0  0  0  0  0  0  0
  2  4  1  0
  2  1  1  6
  3  2  1  0
  4  5  1  0
  5  7  1  0
  5  6  1  6
  7  8  2  0
  9 10  1  0
  9  7  1  0
 11 12  1  0
 10 11  1  6
 12 16  1  0
 13 12  2  0
 14 10  1  0
 14 15  2  0
 17 14  1  0
 18 17  1  0
 18 23  1  0
 18 19  1  1
 20 19  1  0
 21 22  2  0
 21 20  1  0
 23 26  2  0
 23 24  1  0
 25 21  1  0
M  END
$$$$
