LDE.pdb
     RDKit          3D

 26 25  0  0  1  0  0  0  0  0999 V2000
   18.2100  -13.7410  -15.1230 C   0  0  0  0  0  0  0  0  0  0  0  0
   18.7901  -12.6187  -15.9376 C   0  0  1  0  0  0  0  0  0  0  0  0
   17.9071  -12.4233  -17.1490 C   0  0  0  0  0  0  0  0  0  0  0  0
   18.9696  -11.3414  -15.1732 C   0  0  0  0  0  0  0  0  0  0  0  0
   19.4686  -10.2380  -16.0475 C   0  0  2  0  0  0  0  0  0  0  0  0
   20.7979  -10.5910  -16.5249 N   0  0  0  0  0  0  0  0  0  0  0  0
   19.5998   -8.9678  -15.3037 C   0  0  0  0  0  0  0  0  0  0  0  0
   18.7377   -8.6054  -14.4549 O   0  0  0  0  0  0  0  0  0  0  0  0
   20.7057   -8.0693  -15.4947 N   0  0  0  0  0  0  0  0  0  0  0  0
   20.8083   -6.8519  -14.7382 C   0  0  1  0  0  0  0  0  0  0  0  0
   22.2204   -6.4964  -14.3883 C   0  0  0  0  0  0  0  0  0  0  0  0
   22.3483   -5.3129  -13.5142 C   0  0  0  0  0  0  0  0  0  0  0  0
   22.6761   -4.1969  -13.9843 O   0  0  0  0  0  0  0  0  0  0  0  0
   20.1895   -5.7129  -15.4654 C   0  0  0  0  0  0  0  0  0  0  0  0
   20.4990   -5.5180  -16.6665 O   0  0  0  0  0  0  0  0  0  0  0  0
   22.1111   -5.3966  -12.1518 O   0  0  0  0  0  0  0  0  0  0  0  0
   19.2715   -4.8502  -14.8507 N   0  0  0  0  0  0  0  0  0  0  0  0
   18.6526   -3.7015  -15.5471 C   0  0  1  0  0  0  0  0  0  0  0  0
   17.2401   -3.5195  -15.1054 C   0  0  0  0  0  0  0  0  0  0  0  0
   16.3098   -4.5536  -15.6079 C   0  0  0  0  0  0  0  0  0  0  0  0
   14.9305   -4.4227  -15.1384 C   0  0  0  0  0  0  0  0  0  0  0  0
   14.5352   -4.9535  -14.0732 O   0  0  0  0  0  0  0  0  0  0  0  0
   19.4947   -2.5279  -15.2748 C   0  0  0  0  0  0  0  0  0  0  0  0
   19.6065   -1.5130  -16.2069 O   0  0  0  0  0  0  0  0  0  0  0  0
   13.9918   -3.6918  -15.8699 O   0  0  0  0  0  0  0  0  0  0  0  0
   20.1448   -2.3823  -14.2079 O   0  0  0  0  0  0  0  0  0  0  0  0
  2  4  1  0
  2  1  1  1
  3  2  1  0
  4  5  1  0
  5  7  1  0
  5  6  1  1
  7  8  2  0
  9 10  1  0
  9  7  1  0
 11 12  1  0
 10 11  1  6
 12 16  1  0
 13 12  2  0
 14 10  1  0
 14 15  2  0
 17 14  1  0
 18 17  1  0
 18 23  1  0
 18 19  1  1
 20 19  1  0
 21 22  2  0
 21 20  1  0
 23 26  2  0
 23 24  1  0
 25 21  1  0
M  END
$$$$
