LKK.pdb
     RDKit          3D

 27 26  0  0  1  0  0  0  0  0999 V2000
   18.9190  -25.8761  -18.7222 C   0  0  0  0  0  0  0  0  0  0  0  0
   20.2680  -26.0216  -19.3348 C   0  0  2  0  0  0  0  0  0  0  0  0
   20.6664  -27.5004  -19.2085 C   0  0  0  0  0  0  0  0  0  0  0  0
   21.3651  -25.2390  -18.7232 C   0  0  0  0  0  0  0  0  0  0  0  0
   21.1842  -23.7612  -18.6336 C   0  0  2  0  0  0  0  0  0  0  0  0
   21.1583  -23.0439  -19.8571 N   0  0  0  0  0  0  0  0  0  0  0  0
   22.1127  -23.1174  -17.6757 C   0  0  0  0  0  0  0  0  0  0  0  0
   22.5964  -23.7508  -16.6995 O   0  0  0  0  0  0  0  0  0  0  0  0
   22.4625  -21.7743  -17.8559 N   0  0  0  0  0  0  0  0  0  0  0  0
   23.3426  -21.0242  -16.9715 C   0  0  1  0  0  0  0  0  0  0  0  0
   23.8056  -19.7642  -17.6542 C   0  0  0  0  0  0  0  0  0  0  0  0
   24.8871  -19.9874  -18.6480 C   0  0  0  0  0  0  0  0  0  0  0  0
   25.2636  -18.6814  -19.3534 C   0  0  0  0  0  0  0  0  0  0  0  0
   26.2622  -19.0176  -20.4375 C   0  0  0  0  0  0  0  0  0  0  0  0
   26.6837  -17.8268  -21.1495 N   0  0  0  0  0  0  0  0  0  0  0  0
   22.6479  -20.7732  -15.7037 C   0  0  0  0  0  0  0  0  0  0  0  0
   21.4320  -20.4694  -15.6155 O   0  0  0  0  0  0  0  0  0  0  0  0
   23.3267  -20.8586  -14.4298 N   0  0  0  0  0  0  0  0  0  0  0  0
   22.6756  -20.5665  -13.1715 C   0  0  1  0  0  0  0  0  0  0  0  0
   23.6183  -20.7740  -12.0032 C   0  0  0  0  0  0  0  0  0  0  0  0
   22.9762  -20.5286  -10.6744 C   0  0  0  0  0  0  0  0  0  0  0  0
   23.8793  -20.8254   -9.5004 C   0  0  0  0  0  0  0  0  0  0  0  0
   23.1921  -20.4524   -8.1956 C   0  0  0  0  0  0  0  0  0  0  0  0
   24.0857  -20.7792   -7.1028 N   0  0  0  0  0  0  0  0  0  0  0  0
   22.3279  -19.1223  -13.1636 C   0  0  0  0  0  0  0  0  0  0  0  0
   21.1877  -18.6977  -12.4980 O   0  0  0  0  0  0  0  0  0  0  0  0
   23.0327  -18.2535  -13.7427 O   0  0  0  0  0  0  0  0  0  0  0  0
  2  1  1  1
  3  2  1  0
  4  5  1  0
  4  2  1  0
  5  6  1  6
  7  5  1  0
  7  8  2  0
  9  7  1  0
 10  9  1  0
 10 11  1  6
 12 11  1  0
 12 13  1  0
 14 13  1  0
 15 14  1  0
 16 10  1  0
 17 16  2  0
 18 16  1  0
 19 18  1  0
 19 20  1  1
 20 21  1  0
 21 22  1  0
 22 23  1  0
 23 24  1  0
 25 19  1  0
 26 25  1  0
 27 25  2  0
M  END
$$$$
