LKK.pdb
     RDKit          3D

 27 26  0  0  1  0  0  0  0  0999 V2000
   28.4788  -17.5072  -15.0923 C   0  0  0  0  0  0  0  0  0  0  0  0
   27.7614  -18.2376  -16.1730 C   0  0  2  0  0  0  0  0  0  0  0  0
   27.2980  -17.1905  -17.1979 C   0  0  0  0  0  0  0  0  0  0  0  0
   26.5549  -18.9971  -15.7761 C   0  0  0  0  0  0  0  0  0  0  0  0
   26.7211  -20.0493  -14.7322 C   0  0  2  0  0  0  0  0  0  0  0  0
   27.7019  -21.0446  -14.9765 N   0  0  0  0  0  0  0  0  0  0  0  0
   25.4410  -20.6731  -14.3244 C   0  0  0  0  0  0  0  0  0  0  0  0
   25.0068  -21.7143  -14.8859 O   0  0  0  0  0  0  0  0  0  0  0  0
   24.6937  -20.0947  -13.2920 N   0  0  0  0  0  0  0  0  0  0  0  0
   23.3986  -20.5803  -12.8378 C   0  0  1  0  0  0  0  0  0  0  0  0
   23.1416  -20.1179  -11.4277 C   0  0  0  0  0  0  0  0  0  0  0  0
   22.4620  -21.1328  -10.5818 C   0  0  0  0  0  0  0  0  0  0  0  0
   22.2964  -20.6291   -9.1452 C   0  0  0  0  0  0  0  0  0  0  0  0
   21.4822  -21.6556   -8.3909 C   0  0  0  0  0  0  0  0  0  0  0  0
   21.3127  -21.2729   -7.0025 N   0  0  0  0  0  0  0  0  0  0  0  0
   22.3651  -20.1484  -13.7854 C   0  0  0  0  0  0  0  0  0  0  0  0
   22.3458  -19.0214  -14.3404 O   0  0  0  0  0  0  0  0  0  0  0  0
   21.2645  -21.0079  -14.1610 N   0  0  0  0  0  0  0  0  0  0  0  0
   20.2612  -20.6220  -15.1290 C   0  0  1  0  0  0  0  0  0  0  0  0
   20.5573  -21.2121  -16.4931 C   0  0  0  0  0  0  0  0  0  0  0  0
   19.5069  -20.9020  -17.5123 C   0  0  0  0  0  0  0  0  0  0  0  0
   18.7543  -22.1189  -17.9968 C   0  0  0  0  0  0  0  0  0  0  0  0
   17.9507  -21.7831  -19.2440 C   0  0  0  0  0  0  0  0  0  0  0  0
   17.2690  -22.9844  -19.6815 N   0  0  0  0  0  0  0  0  0  0  0  0
   18.9664  -21.2117  -14.7019 C   0  0  0  0  0  0  0  0  0  0  0  0
   17.7881  -20.7651  -15.2812 O   0  0  0  0  0  0  0  0  0  0  0  0
   18.8897  -22.1123  -13.8244 O   0  0  0  0  0  0  0  0  0  0  0  0
  2  1  1  1
  3  2  1  0
  4  5  1  0
  4  2  1  0
  5  6  1  6
  7  5  1  0
  7  8  2  0
  9  7  1  0
 10  9  1  0
 10 11  1  1
 12 11  1  0
 12 13  1  0
 14 13  1  0
 15 14  1  0
 16 10  1  0
 17 16  2  0
 18 16  1  0
 19 18  1  0
 19 20  1  6
 20 21  1  0
 21 22  1  0
 22 23  1  0
 23 24  1  0
 25 19  1  0
 26 25  1  0
 27 25  2  0
M  END
$$$$
