LKK.pdb
     RDKit          3D

 27 26  0  0  1  0  0  0  0  0999 V2000
   26.0383  -26.1023  -19.0468 C   0  0  0  0  0  0  0  0  0  0  0  0
   26.2487  -27.0262  -20.1949 C   0  0  2  0  0  0  0  0  0  0  0  0
   25.0307  -26.8836  -21.1210 C   0  0  0  0  0  0  0  0  0  0  0  0
   26.3665  -28.4669  -19.8775 C   0  0  0  0  0  0  0  0  0  0  0  0
   27.4654  -28.8771  -18.9563 C   0  0  2  0  0  0  0  0  0  0  0  0
   28.7930  -28.6810  -19.4157 N   0  0  0  0  0  0  0  0  0  0  0  0
   27.2988  -30.2499  -18.4254 C   0  0  0  0  0  0  0  0  0  0  0  0
   27.6244  -31.2622  -19.1016 O   0  0  0  0  0  0  0  0  0  0  0  0
   26.7673  -30.4303  -17.1433 N   0  0  0  0  0  0  0  0  0  0  0  0
   26.6073  -31.7213  -16.4897 C   0  0  1  0  0  0  0  0  0  0  0  0
   27.5263  -31.8129  -15.3000 C   0  0  0  0  0  0  0  0  0  0  0  0
   28.9037  -32.2514  -15.6429 C   0  0  0  0  0  0  0  0  0  0  0  0
   28.9605  -33.7664  -15.8591 C   0  0  0  0  0  0  0  0  0  0  0  0
   30.4111  -34.1482  -16.0480 C   0  0  0  0  0  0  0  0  0  0  0  0
   30.5426  -35.5477  -16.4039 N   0  0  0  0  0  0  0  0  0  0  0  0
   25.1940  -31.9124  -16.1448 C   0  0  0  0  0  0  0  0  0  0  0  0
   24.5699  -31.2039  -15.3159 O   0  0  0  0  0  0  0  0  0  0  0  0
   24.3941  -32.9554  -16.7472 N   0  0  0  0  0  0  0  0  0  0  0  0
   22.9968  -33.1556  -16.4309 C   0  0  1  0  0  0  0  0  0  0  0  0
   22.1373  -33.1021  -17.6780 C   0  0  0  0  0  0  0  0  0  0  0  0
   22.0015  -31.7240  -18.2440 C   0  0  0  0  0  0  0  0  0  0  0  0
   21.0495  -31.6399  -19.4138 C   0  0  0  0  0  0  0  0  0  0  0  0
   21.1013  -30.2550  -20.0408 C   0  0  0  0  0  0  0  0  0  0  0  0
   20.2377  -30.2511  -21.2041 N   0  0  0  0  0  0  0  0  0  0  0  0
   22.8453  -34.5308  -15.8899 C   0  0  0  0  0  0  0  0  0  0  0  0
   23.7680  -35.5066  -16.2359 O   0  0  0  0  0  0  0  0  0  0  0  0
   21.9025  -34.8549  -15.1197 O   0  0  0  0  0  0  0  0  0  0  0  0
  2  1  1  1
  3  2  1  0
  4  5  1  0
  4  2  1  0
  5  6  1  6
  7  5  1  0
  7  8  2  0
  9  7  1  0
 10  9  1  0
 10 11  1  1
 12 11  1  0
 12 13  1  0
 14 13  1  0
 15 14  1  0
 16 10  1  0
 17 16  2  0
 18 16  1  0
 19 18  1  0
 19 20  1  6
 20 21  1  0
 21 22  1  0
 22 23  1  0
 23 24  1  0
 25 19  1  0
 26 25  1  0
 27 25  2  0
M  END
$$$$
