LKK.pdb
     RDKit          3D

 27 26  0  0  1  0  0  0  0  0999 V2000
   24.1092  -21.3155   -9.2793 C   0  0  0  0  0  0  0  0  0  0  0  0
   25.5378  -21.0102   -9.5659 C   0  0  2  0  0  0  0  0  0  0  0  0
   26.0238  -20.0464   -8.4722 C   0  0  0  0  0  0  0  0  0  0  0  0
   25.8324  -20.3568  -10.8606 C   0  0  0  0  0  0  0  0  0  0  0  0
   25.3507  -21.0385  -12.0966 C   0  0  2  0  0  0  0  0  0  0  0  0
   26.0269  -22.2257  -12.4782 N   0  0  0  0  0  0  0  0  0  0  0  0
   25.2193  -20.1230  -13.2536 C   0  0  0  0  0  0  0  0  0  0  0  0
   24.6104  -19.0238  -13.1586 O   0  0  0  0  0  0  0  0  0  0  0  0
   25.7830  -20.4846  -14.4826 N   0  0  0  0  0  0  0  0  0  0  0  0
   25.7702  -19.6492  -15.6748 C   0  0  1  0  0  0  0  0  0  0  0  0
   26.9092  -20.0315  -16.5830 C   0  0  0  0  0  0  0  0  0  0  0  0
   26.9621  -19.2396  -17.8389 C   0  0  0  0  0  0  0  0  0  0  0  0
   28.2986  -18.5035  -17.9687 C   0  0  0  0  0  0  0  0  0  0  0  0
   28.2565  -17.6996  -19.2483 C   0  0  0  0  0  0  0  0  0  0  0  0
   29.5117  -17.0100  -19.4757 N   0  0  0  0  0  0  0  0  0  0  0  0
   24.4563  -19.7538  -16.3196 C   0  0  0  0  0  0  0  0  0  0  0  0
   23.8390  -20.8350  -16.4878 O   0  0  0  0  0  0  0  0  0  0  0  0
   23.7564  -18.5925  -16.8220 N   0  0  0  0  0  0  0  0  0  0  0  0
   22.4175  -18.6565  -17.3658 C   0  0  1  0  0  0  0  0  0  0  0  0
   21.8724  -17.2713  -17.6501 C   0  0  0  0  0  0  0  0  0  0  0  0
   20.4747  -17.2837  -18.1833 C   0  0  0  0  0  0  0  0  0  0  0  0
   19.9413  -15.9107  -18.5185 C   0  0  0  0  0  0  0  0  0  0  0  0
   18.4788  -15.9959  -18.9282 C   0  0  0  0  0  0  0  0  0  0  0  0
   17.9403  -14.6514  -18.9694 N   0  0  0  0  0  0  0  0  0  0  0  0
   22.4930  -19.3429  -18.6811 C   0  0  0  0  0  0  0  0  0  0  0  0
   23.4252  -18.9232  -19.6182 O   0  0  0  0  0  0  0  0  0  0  0  0
   21.7373  -20.3030  -18.9877 O   0  0  0  0  0  0  0  0  0  0  0  0
  2  1  1  1
  3  2  1  0
  4  5  1  0
  4  2  1  0
  5  6  1  6
  7  5  1  0
  7  8  2  0
  9  7  1  0
 10  9  1  0
 10 11  1  6
 12 11  1  0
 12 13  1  0
 14 13  1  0
 15 14  1  0
 16 10  1  0
 17 16  2  0
 18 16  1  0
 19 18  1  0
 19 20  1  6
 20 21  1  0
 21 22  1  0
 22 23  1  0
 23 24  1  0
 25 19  1  0
 26 25  1  0
 27 25  2  0
M  END
$$$$
