LKK.pdb
     RDKit          3D

 27 26  0  0  1  0  0  0  0  0999 V2000
   22.1292  -34.6008  -12.2105 C   0  0  0  0  0  0  0  0  0  0  0  0
   22.4403  -34.8524  -10.7766 C   0  0  2  0  0  0  0  0  0  0  0  0
   21.7421  -36.1639  -10.3843 C   0  0  0  0  0  0  0  0  0  0  0  0
   21.9861  -33.8305   -9.8073 C   0  0  0  0  0  0  0  0  0  0  0  0
   22.5594  -32.4599   -9.9389 C   0  0  2  0  0  0  0  0  0  0  0  0
   23.8047  -32.2227   -9.3024 N   0  0  0  0  0  0  0  0  0  0  0  0
   21.5932  -31.3891   -9.6008 C   0  0  0  0  0  0  0  0  0  0  0  0
   21.1965  -31.2084   -8.4184 O   0  0  0  0  0  0  0  0  0  0  0  0
   21.1072  -30.5574  -10.6162 N   0  0  0  0  0  0  0  0  0  0  0  0
   20.1558  -29.4745  -10.4122 C   0  0  1  0  0  0  0  0  0  0  0  0
   20.2210  -28.5085  -11.5658 C   0  0  0  0  0  0  0  0  0  0  0  0
   19.2388  -27.3980  -11.4698 C   0  0  0  0  0  0  0  0  0  0  0  0
   19.7646  -26.2752  -10.5710 C   0  0  0  0  0  0  0  0  0  0  0  0
   18.6718  -25.2378  -10.4470 C   0  0  0  0  0  0  0  0  0  0  0  0
   19.0784  -24.1494   -9.5795 N   0  0  0  0  0  0  0  0  0  0  0  0
   18.8185  -30.0430  -10.2089 C   0  0  0  0  0  0  0  0  0  0  0  0
   18.2449  -30.8032  -11.0283 O   0  0  0  0  0  0  0  0  0  0  0  0
   18.0416  -29.7645   -9.0216 N   0  0  0  0  0  0  0  0  0  0  0  0
   16.7345  -30.3376   -8.7856 C   0  0  1  0  0  0  0  0  0  0  0  0
   16.1478  -29.8489   -7.4765 C   0  0  0  0  0  0  0  0  0  0  0  0
   15.1559  -30.7981   -6.8821 C   0  0  0  0  0  0  0  0  0  0  0  0
   15.7063  -31.6092   -5.7327 C   0  0  0  0  0  0  0  0  0  0  0  0
   14.6615  -32.5947   -5.2314 C   0  0  0  0  0  0  0  0  0  0  0  0
   15.2210  -33.3153   -4.1058 N   0  0  0  0  0  0  0  0  0  0  0  0
   15.8229  -29.8452   -9.8502 C   0  0  0  0  0  0  0  0  0  0  0  0
   14.8505  -30.6912  -10.3620 O   0  0  0  0  0  0  0  0  0  0  0  0
   15.8947  -28.6768  -10.3155 O   0  0  0  0  0  0  0  0  0  0  0  0
  2  1  1  6
  3  2  1  0
  4  5  1  0
  4  2  1  0
  5  6  1  1
  7  5  1  0
  7  8  2  0
  9  7  1  0
 10  9  1  0
 10 11  1  6
 12 11  1  0
 12 13  1  0
 14 13  1  0
 15 14  1  0
 16 10  1  0
 17 16  2  0
 18 16  1  0
 19 18  1  0
 19 20  1  1
 20 21  1  0
 21 22  1  0
 22 23  1  0
 23 24  1  0
 25 19  1  0
 26 25  1  0
 27 25  2  0
M  END
$$$$
