LKK.pdb
     RDKit          3D

 27 26  0  0  1  0  0  0  0  0999 V2000
   28.5192  -24.2900  -16.8861 C   0  0  0  0  0  0  0  0  0  0  0  0
   28.4388  -22.8038  -16.9159 C   0  0  2  0  0  0  0  0  0  0  0  0
   29.7904  -22.2665  -16.4199 C   0  0  0  0  0  0  0  0  0  0  0  0
   27.4019  -22.1758  -16.0672 C   0  0  0  0  0  0  0  0  0  0  0  0
   25.9890  -22.6003  -16.2859 C   0  0  2  0  0  0  0  0  0  0  0  0
   25.5055  -22.5548  -17.6187 N   0  0  0  0  0  0  0  0  0  0  0  0
   25.0334  -21.9412  -15.3659 C   0  0  0  0  0  0  0  0  0  0  0  0
   25.2549  -21.8670  -14.1276 O   0  0  0  0  0  0  0  0  0  0  0  0
   23.8557  -21.3871  -15.8808 N   0  0  0  0  0  0  0  0  0  0  0  0
   22.8683  -20.6654  -15.0911 C   0  0  1  0  0  0  0  0  0  0  0  0
   22.4076  -19.4412  -15.8377 C   0  0  0  0  0  0  0  0  0  0  0  0
   21.5317  -18.5484  -15.0360 C   0  0  0  0  0  0  0  0  0  0  0  0
   20.1546  -18.3987  -15.6888 C   0  0  0  0  0  0  0  0  0  0  0  0
   19.3757  -17.3807  -14.8870 C   0  0  0  0  0  0  0  0  0  0  0  0
   18.0378  -17.2074  -15.4185 N   0  0  0  0  0  0  0  0  0  0  0  0
   21.7727  -21.5772  -14.7435 C   0  0  0  0  0  0  0  0  0  0  0  0
   21.1100  -22.2342  -15.5848 O   0  0  0  0  0  0  0  0  0  0  0  0
   21.3633  -21.7936  -13.3736 N   0  0  0  0  0  0  0  0  0  0  0  0
   20.3150  -22.7193  -13.0038 C   0  0  1  0  0  0  0  0  0  0  0  0
   20.2680  -22.9264  -11.5033 C   0  0  0  0  0  0  0  0  0  0  0  0
   19.2978  -23.9846  -11.0824 C   0  0  0  0  0  0  0  0  0  0  0  0
   19.3266  -24.2790   -9.6010 C   0  0  0  0  0  0  0  0  0  0  0  0
   18.4028  -25.4424   -9.2739 C   0  0  0  0  0  0  0  0  0  0  0  0
   18.5058  -25.7184   -7.8553 N   0  0  0  0  0  0  0  0  0  0  0  0
   19.0139  -22.1038  -13.3715 C   0  0  0  0  0  0  0  0  0  0  0  0
   17.9272  -22.9188  -13.6512 O   0  0  0  0  0  0  0  0  0  0  0  0
   18.8512  -20.8566  -13.4415 O   0  0  0  0  0  0  0  0  0  0  0  0
  2  1  1  1
  3  2  1  0
  4  5  1  0
  4  2  1  0
  5  6  1  6
  7  5  1  0
  7  8  2  0
  9  7  1  0
 10  9  1  0
 10 11  1  6
 12 11  1  0
 12 13  1  0
 14 13  1  0
 15 14  1  0
 16 10  1  0
 17 16  2  0
 18 16  1  0
 19 18  1  0
 19 20  1  1
 20 21  1  0
 21 22  1  0
 22 23  1  0
 23 24  1  0
 25 19  1  0
 26 25  1  0
 27 25  2  0
M  END
$$$$
