EEY.pdb
     RDKit          3D

 31 31  0  0  1  0  0  0  0  0999 V2000
   10.6999  -20.8678   21.9260 N   0  0  0  0  0  0  0  0  0  0  0  0
    9.7944  -20.1207   22.7100 C   0  0  1  0  0  0  0  0  0  0  0  0
    9.6183  -20.5006   24.1406 C   0  0  0  0  0  0  0  0  0  0  0  0
   10.8301  -20.7187   24.9548 C   0  0  0  0  0  0  0  0  0  0  0  0
   10.5596  -21.0428   26.3596 C   0  0  0  0  0  0  0  0  0  0  0  0
   10.5078  -22.1875   26.8490 O   0  0  0  0  0  0  0  0  0  0  0  0
   10.0882  -18.6382   22.7084 C   0  0  0  0  0  0  0  0  0  0  0  0
   11.2741  -18.2307   22.6074 O   0  0  0  0  0  0  0  0  0  0  0  0
   10.3399  -19.9550   27.2253 O   0  0  0  0  0  0  0  0  0  0  0  0
    9.0757  -17.6530   22.8183 N   0  0  0  0  0  0  0  0  0  0  0  0
    9.3803  -16.2227   22.7537 C   0  0  1  0  0  0  0  0  0  0  0  0
    8.3941  -15.4855   21.9023 C   0  0  0  0  0  0  0  0  0  0  0  0
    8.7962  -15.3753   20.4625 C   0  0  0  0  0  0  0  0  0  0  0  0
    7.7192  -14.6491   19.7402 C   0  0  0  0  0  0  0  0  0  0  0  0
    6.9193  -15.2370   18.9555 O   0  0  0  0  0  0  0  0  0  0  0  0
    9.5078  -15.7091   24.1216 C   0  0  0  0  0  0  0  0  0  0  0  0
    9.1854  -14.5318   24.4339 O   0  0  0  0  0  0  0  0  0  0  0  0
    7.5343  -13.2813   19.8900 O   0  0  0  0  0  0  0  0  0  0  0  0
    6.5322  -10.6370   26.0927 O   0  0  0  0  0  0  0  0  0  0  0  0
    7.0185  -11.9270   26.2921 C   0  0  0  0  0  0  0  0  0  0  0  0
    8.1036  -12.1313   27.1214 C   0  0  0  0  0  0  0  0  0  0  0  0
    8.5831  -13.4088   27.3171 C   0  0  0  0  0  0  0  0  0  0  0  0
    8.0263  -14.5187   26.7170 C   0  0  0  0  0  0  0  0  0  0  0  0
    8.5132  -15.8864   26.8966 C   0  0  0  0  0  0  0  0  0  0  0  0
    9.9642  -16.0854   26.5590 C   0  0  2  0  0  0  0  0  0  0  0  0
   10.0083  -16.5260   25.1747 N   0  0  0  0  0  0  0  0  0  0  0  0
   10.5930  -17.1017   27.4058 C   0  0  0  0  0  0  0  0  0  0  0  0
   11.1953  -18.2369   26.8351 O   0  0  0  0  0  0  0  0  0  0  0  0
    6.9444  -14.2979   25.8925 C   0  0  0  0  0  0  0  0  0  0  0  0
    6.4492  -13.0213   25.6841 C   0  0  0  0  0  0  0  0  0  0  0  0
   10.5887  -16.9489   28.6567 O   0  0  0  0  0  0  0  0  0  0  0  0
  2  1  1  1
  2  3  1  0
  3  4  1  0
  4  5  1  0
  5  9  1  0
  6  5  2  0
  7  2  1  0
  8  7  2  0
 10  7  1  0
 11 10  1  0
 11 12  1  1
 13 12  1  0
 14 13  1  0
 14 15  2  0
 16 11  1  0
 16 26  1  0
 17 16  2  0
 18 14  1  0
 20 19  1  0
 21 20  2  0
 22 21  1  0
 23 29  1  0
 23 22  2  0
 24 23  1  0
 25 24  1  1
 25 26  1  0
 25 27  1  0
 27 28  1  0
 29 30  2  0
 30 20  1  0
 31 27  2  0
M  END
$$$$
