EEY.pdb
     RDKit          3D

 31 31  0  0  1  0  0  0  0  0999 V2000
   10.7750  -17.4494   17.2749 N   0  0  0  0  0  0  0  0  0  0  0  0
   10.2392  -16.4777   18.1475 C   0  0  1  0  0  0  0  0  0  0  0  0
    8.9507  -15.8274   17.7749 C   0  0  0  0  0  0  0  0  0  0  0  0
    9.0049  -14.5877   16.9755 C   0  0  0  0  0  0  0  0  0  0  0  0
    8.1453  -14.6013   15.7870 C   0  0  0  0  0  0  0  0  0  0  0  0
    6.9069  -14.7394   15.7818 O   0  0  0  0  0  0  0  0  0  0  0  0
   10.0548  -16.9829   19.5599 C   0  0  0  0  0  0  0  0  0  0  0  0
    8.9253  -17.3815   19.9444 O   0  0  0  0  0  0  0  0  0  0  0  0
    8.7871  -14.4432   14.5444 O   0  0  0  0  0  0  0  0  0  0  0  0
   11.1113  -17.0339   20.5029 N   0  0  0  0  0  0  0  0  0  0  0  0
   10.9266  -17.6030   21.8387 C   0  0  1  0  0  0  0  0  0  0  0  0
   12.0608  -18.5035   22.2176 C   0  0  0  0  0  0  0  0  0  0  0  0
   13.3984  -17.8270   22.2243 C   0  0  0  0  0  0  0  0  0  0  0  0
   14.4363  -18.8659   22.4534 C   0  0  0  0  0  0  0  0  0  0  0  0
   14.6430  -19.3714   23.5949 O   0  0  0  0  0  0  0  0  0  0  0  0
   10.6759  -16.5090   22.7830 C   0  0  0  0  0  0  0  0  0  0  0  0
   11.4241  -15.4982   22.8598 O   0  0  0  0  0  0  0  0  0  0  0  0
   15.2365  -19.3378   21.4217 O   0  0  0  0  0  0  0  0  0  0  0  0
    6.0513  -10.5744   27.3376 O   0  0  0  0  0  0  0  0  0  0  0  0
    6.5466  -11.6011   26.5369 C   0  0  0  0  0  0  0  0  0  0  0  0
    7.8612  -11.5699   26.1156 C   0  0  0  0  0  0  0  0  0  0  0  0
    8.3491  -12.5870   25.3232 C   0  0  0  0  0  0  0  0  0  0  0  0
    7.5794  -13.6577   24.9193 C   0  0  0  0  0  0  0  0  0  0  0  0
    8.0620  -14.7496   24.0739 C   0  0  0  0  0  0  0  0  0  0  0  0
    9.2958  -15.4400   24.5840 C   0  0  2  0  0  0  0  0  0  0  0  0
    9.5618  -16.5374   23.6689 N   0  0  0  0  0  0  0  0  0  0  0  0
    9.1093  -15.9762   25.9342 C   0  0  0  0  0  0  0  0  0  0  0  0
    9.4342  -15.2034   27.0630 O   0  0  0  0  0  0  0  0  0  0  0  0
    6.2699  -13.6738   25.3481 C   0  0  0  0  0  0  0  0  0  0  0  0
    5.7626  -12.6606   26.1445 C   0  0  0  0  0  0  0  0  0  0  0  0
    8.6534  -17.1425   26.0756 O   0  0  0  0  0  0  0  0  0  0  0  0
  2  1  1  6
  2  3  1  0
  3  4  1  0
  4  5  1  0
  5  9  1  0
  6  5  2  0
  7  2  1  0
  8  7  2  0
 10  7  1  0
 11 10  1  0
 11 12  1  1
 13 12  1  0
 14 13  1  0
 14 15  2  0
 16 11  1  0
 16 26  1  0
 17 16  2  0
 18 14  1  0
 20 19  1  0
 21 20  2  0
 22 21  1  0
 23 29  1  0
 23 22  2  0
 24 23  1  0
 25 24  1  6
 25 26  1  0
 25 27  1  0
 27 28  1  0
 29 30  2  0
 30 20  1  0
 31 27  2  0
M  END
$$$$
