EEY.pdb
     RDKit          3D

 31 31  0  0  1  0  0  0  0  0999 V2000
    9.6145  -13.4274   18.1213 N   0  0  0  0  0  0  0  0  0  0  0  0
    8.6019  -14.3746   18.3860 C   0  0  1  0  0  0  0  0  0  0  0  0
    8.0822  -15.1889   17.2507 C   0  0  0  0  0  0  0  0  0  0  0  0
    8.4351  -14.7723   15.8793 C   0  0  0  0  0  0  0  0  0  0  0  0
    7.4396  -15.1374   14.8657 C   0  0  0  0  0  0  0  0  0  0  0  0
    6.8325  -16.2233   14.7951 O   0  0  0  0  0  0  0  0  0  0  0  0
    8.9783  -15.3625   19.4659 C   0  0  0  0  0  0  0  0  0  0  0  0
    8.1324  -16.1964   19.8802 O   0  0  0  0  0  0  0  0  0  0  0  0
    7.1510  -14.1663   13.8887 O   0  0  0  0  0  0  0  0  0  0  0  0
   10.2660  -15.4038   20.0561 N   0  0  0  0  0  0  0  0  0  0  0  0
   10.5725  -16.2920   21.1783 C   0  0  1  0  0  0  0  0  0  0  0  0
   11.8977  -16.9661   21.0038 C   0  0  0  0  0  0  0  0  0  0  0  0
   11.9319  -17.9588   19.8812 C   0  0  0  0  0  0  0  0  0  0  0  0
   13.2915  -18.5580   19.8407 C   0  0  0  0  0  0  0  0  0  0  0  0
   13.4775  -19.8092   19.8739 O   0  0  0  0  0  0  0  0  0  0  0  0
   10.4344  -15.5341   22.4264 C   0  0  0  0  0  0  0  0  0  0  0  0
   10.7985  -14.3324   22.5308 O   0  0  0  0  0  0  0  0  0  0  0  0
   14.4332  -17.7719   19.7640 O   0  0  0  0  0  0  0  0  0  0  0  0
    5.0388  -11.3472   27.4564 O   0  0  0  0  0  0  0  0  0  0  0  0
    5.8185  -12.1191   26.5981 C   0  0  0  0  0  0  0  0  0  0  0  0
    6.9994  -11.6081   26.0969 C   0  0  0  0  0  0  0  0  0  0  0  0
    7.7693  -12.3738   25.2477 C   0  0  0  0  0  0  0  0  0  0  0  0
    7.4173  -13.6504   24.8627 C   0  0  0  0  0  0  0  0  0  0  0  0
    8.2061  -14.4876   23.9588 C   0  0  0  0  0  0  0  0  0  0  0  0
    9.2623  -15.3174   24.6333 C   0  0  2  0  0  0  0  0  0  0  0  0
    9.8759  -16.1272   23.5940 N   0  0  0  0  0  0  0  0  0  0  0  0
    8.6995  -16.1992   25.6585 C   0  0  0  0  0  0  0  0  0  0  0  0
    8.4696  -17.5592   25.3858 O   0  0  0  0  0  0  0  0  0  0  0  0
    6.2363  -14.1457   25.3714 C   0  0  0  0  0  0  0  0  0  0  0  0
    5.4500  -13.3906   26.2259 C   0  0  0  0  0  0  0  0  0  0  0  0
    8.4213  -15.7252   26.7925 O   0  0  0  0  0  0  0  0  0  0  0  0
  2  1  1  6
  2  3  1  0
  3  4  1  0
  4  5  1  0
  5  9  1  0
  6  5  2  0
  7  2  1  0
  8  7  2  0
 10  7  1  0
 11 10  1  0
 11 12  1  6
 13 12  1  0
 14 13  1  0
 14 15  2  0
 16 11  1  0
 16 26  1  0
 17 16  2  0
 18 14  1  0
 20 19  1  0
 21 20  2  0
 22 21  1  0
 23 29  1  0
 23 22  2  0
 24 23  1  0
 25 24  1  6
 25 26  1  0
 25 27  1  0
 27 28  1  0
 29 30  2  0
 30 20  1  0
 31 27  2  0
M  END
$$$$
