EEY.pdb
     RDKit          3D

 31 31  0  0  1  0  0  0  0  0999 V2000
    7.4491  -20.4212   18.7990 N   0  0  0  0  0  0  0  0  0  0  0  0
    8.1684  -19.2138   18.9309 C   0  0  1  0  0  0  0  0  0  0  0  0
    8.1987  -18.2792   17.7701 C   0  0  0  0  0  0  0  0  0  0  0  0
    9.0963  -18.6010   16.6434 C   0  0  0  0  0  0  0  0  0  0  0  0
    8.9861  -17.6814   15.5060 C   0  0  0  0  0  0  0  0  0  0  0  0
    7.9300  -17.3488   14.9343 O   0  0  0  0  0  0  0  0  0  0  0  0
    7.7304  -18.3865   20.1173 C   0  0  0  0  0  0  0  0  0  0  0  0
    6.8208  -17.5275   19.9855 O   0  0  0  0  0  0  0  0  0  0  0  0
   10.1879  -17.1297   15.0240 O   0  0  0  0  0  0  0  0  0  0  0  0
    8.3024  -18.5263   21.4062 N   0  0  0  0  0  0  0  0  0  0  0  0
    7.7946  -17.7835   22.5607 C   0  0  1  0  0  0  0  0  0  0  0  0
    6.8460  -18.6074   23.3744 C   0  0  0  0  0  0  0  0  0  0  0  0
    7.1584  -20.0734   23.3733 C   0  0  0  0  0  0  0  0  0  0  0  0
    7.0819  -20.5594   24.7758 C   0  0  0  0  0  0  0  0  0  0  0  0
    6.1600  -20.1993   25.5641 O   0  0  0  0  0  0  0  0  0  0  0  0
    8.9353  -17.2486   23.3117 C   0  0  0  0  0  0  0  0  0  0  0  0
   10.0268  -17.8695   23.4153 O   0  0  0  0  0  0  0  0  0  0  0  0
    8.0227  -21.4379   25.2958 O   0  0  0  0  0  0  0  0  0  0  0  0
    5.1699  -11.8859   27.0511 O   0  0  0  0  0  0  0  0  0  0  0  0
    6.3241  -12.3920   26.4576 C   0  0  0  0  0  0  0  0  0  0  0  0
    6.2433  -13.0376   25.2396 C   0  0  0  0  0  0  0  0  0  0  0  0
    7.3868  -13.5377   24.6543 C   0  0  0  0  0  0  0  0  0  0  0  0
    8.6346  -13.4262   25.2309 C   0  0  0  0  0  0  0  0  0  0  0  0
    9.8666  -13.9506   24.6418 C   0  0  0  0  0  0  0  0  0  0  0  0
   10.0000  -15.4468   24.6940 C   0  0  2  0  0  0  0  0  0  0  0  0
    8.8630  -15.9872   23.9677 N   0  0  0  0  0  0  0  0  0  0  0  0
    9.9769  -15.9549   26.0676 C   0  0  0  0  0  0  0  0  0  0  0  0
    8.9200  -16.7684   26.5126 O   0  0  0  0  0  0  0  0  0  0  0  0
    8.6981  -12.7795   26.4461 C   0  0  0  0  0  0  0  0  0  0  0  0
    7.5596  -12.2707   27.0490 C   0  0  0  0  0  0  0  0  0  0  0  0
   10.9172  -15.6541   26.8508 O   0  0  0  0  0  0  0  0  0  0  0  0
  2  1  1  6
  2  3  1  0
  3  4  1  0
  4  5  1  0
  5  9  1  0
  6  5  2  0
  7  2  1  0
  8  7  2  0
 10  7  1  0
 11 10  1  0
 11 12  1  1
 13 12  1  0
 14 13  1  0
 14 15  2  0
 16 11  1  0
 16 26  1  0
 17 16  2  0
 18 14  1  0
 20 19  1  0
 21 20  2  0
 22 21  1  0
 23 29  1  0
 23 22  2  0
 24 23  1  0
 25 24  1  1
 25 26  1  0
 25 27  1  0
 27 28  1  0
 29 30  2  0
 30 20  1  0
 31 27  2  0
M  END
$$$$
