EEY.pdb
     RDKit          3D

 31 31  0  0  1  0  0  0  0  0999 V2000
   13.3991  -18.6471   18.8387 N   0  0  0  0  0  0  0  0  0  0  0  0
   13.2921  -18.5959   20.2454 C   0  0  1  0  0  0  0  0  0  0  0  0
   14.2931  -17.7903   21.0010 C   0  0  0  0  0  0  0  0  0  0  0  0
   15.5635  -17.4544   20.3287 C   0  0  0  0  0  0  0  0  0  0  0  0
   16.5106  -16.7143   21.1695 C   0  0  0  0  0  0  0  0  0  0  0  0
   16.6846  -15.4805   21.1630 O   0  0  0  0  0  0  0  0  0  0  0  0
   11.9373  -18.1263   20.7226 C   0  0  0  0  0  0  0  0  0  0  0  0
   11.4822  -17.0186   20.3372 O   0  0  0  0  0  0  0  0  0  0  0  0
   17.2889  -17.4759   22.0612 O   0  0  0  0  0  0  0  0  0  0  0  0
   11.1274  -18.8834   21.6051 N   0  0  0  0  0  0  0  0  0  0  0  0
    9.7407  -18.5118   21.8907 C   0  0  1  0  0  0  0  0  0  0  0  0
    8.8837  -19.7159   22.1288 C   0  0  0  0  0  0  0  0  0  0  0  0
    8.5611  -20.4884   20.8854 C   0  0  0  0  0  0  0  0  0  0  0  0
    7.6439  -21.5965   21.2594 C   0  0  0  0  0  0  0  0  0  0  0  0
    6.4321  -21.3948   21.5625 O   0  0  0  0  0  0  0  0  0  0  0  0
    9.7339  -17.5336   22.9836 C   0  0  0  0  0  0  0  0  0  0  0  0
   10.5804  -17.5570   23.9165 O   0  0  0  0  0  0  0  0  0  0  0  0
    8.0717  -22.9168   21.2957 O   0  0  0  0  0  0  0  0  0  0  0  0
    6.6146  -10.8945   28.0361 O   0  0  0  0  0  0  0  0  0  0  0  0
    6.8528  -11.8072   27.0111 C   0  0  0  0  0  0  0  0  0  0  0  0
    5.8587  -12.6866   26.6299 C   0  0  0  0  0  0  0  0  0  0  0  0
    6.0968  -13.5889   25.6152 C   0  0  0  0  0  0  0  0  0  0  0  0
    7.2998  -13.6632   24.9451 C   0  0  0  0  0  0  0  0  0  0  0  0
    7.5889  -14.6118   23.8696 C   0  0  0  0  0  0  0  0  0  0  0  0
    8.6985  -15.5805   24.1687 C   0  0  2  0  0  0  0  0  0  0  0  0
    8.7583  -16.4984   23.0434 N   0  0  0  0  0  0  0  0  0  0  0  0
    8.4505  -16.3415   25.3954 C   0  0  0  0  0  0  0  0  0  0  0  0
    7.4690  -17.3478   25.4279 O   0  0  0  0  0  0  0  0  0  0  0  0
    8.2813  -12.7791   25.3374 C   0  0  0  0  0  0  0  0  0  0  0  0
    8.0599  -11.8657   26.3548 C   0  0  0  0  0  0  0  0  0  0  0  0
    9.1277  -16.0843   26.4266 O   0  0  0  0  0  0  0  0  0  0  0  0
  2  1  1  6
  2  3  1  0
  3  4  1  0
  4  5  1  0
  5  9  1  0
  6  5  2  0
  7  2  1  0
  8  7  2  0
 10  7  1  0
 11 10  1  0
 11 12  1  1
 13 12  1  0
 14 13  1  0
 14 15  2  0
 16 11  1  0
 16 26  1  0
 17 16  2  0
 18 14  1  0
 20 19  1  0
 21 20  2  0
 22 21  1  0
 23 29  1  0
 23 22  2  0
 24 23  1  0
 25 24  1  6
 25 26  1  0
 25 27  1  0
 27 28  1  0
 29 30  2  0
 30 20  1  0
 31 27  2  0
M  END
$$$$
