EEY.pdb
     RDKit          3D

 31 31  0  0  1  0  0  0  0  0999 V2000
    6.5434  -18.0813   24.2975 N   0  0  0  0  0  0  0  0  0  0  0  0
    6.9814  -19.2238   23.5935 C   0  0  1  0  0  0  0  0  0  0  0  0
    6.2601  -19.6042   22.3458 C   0  0  0  0  0  0  0  0  0  0  0  0
    4.8409  -19.9948   22.4563 C   0  0  0  0  0  0  0  0  0  0  0  0
    3.9780  -19.4238   21.4166 C   0  0  0  0  0  0  0  0  0  0  0  0
    3.2021  -18.4593   21.5588 O   0  0  0  0  0  0  0  0  0  0  0  0
    8.4462  -19.1708   23.2253 C   0  0  0  0  0  0  0  0  0  0  0  0
    8.8186  -19.5053   22.0712 O   0  0  0  0  0  0  0  0  0  0  0  0
    4.0394  -20.0272   20.1465 O   0  0  0  0  0  0  0  0  0  0  0  0
    9.4529  -18.7550   24.1318 N   0  0  0  0  0  0  0  0  0  0  0  0
   10.2415  -17.5427   23.9063 C   0  0  1  0  0  0  0  0  0  0  0  0
    9.7234  -16.7545   22.7438 C   0  0  0  0  0  0  0  0  0  0  0  0
   10.5451  -15.5448   22.4146 C   0  0  0  0  0  0  0  0  0  0  0  0
   11.1036  -15.7278   21.0495 C   0  0  0  0  0  0  0  0  0  0  0  0
   10.3815  -15.6655   20.0122 O   0  0  0  0  0  0  0  0  0  0  0  0
   10.3179  -16.7932   25.1648 C   0  0  0  0  0  0  0  0  0  0  0  0
   10.9955  -15.7374   25.2822 O   0  0  0  0  0  0  0  0  0  0  0  0
   12.4531  -15.9779   20.8408 O   0  0  0  0  0  0  0  0  0  0  0  0
    6.0767  -12.0131   24.5236 O   0  0  0  0  0  0  0  0  0  0  0  0
    6.6047  -13.0086   25.3425 C   0  0  0  0  0  0  0  0  0  0  0  0
    7.7879  -12.7858   26.0185 C   0  0  0  0  0  0  0  0  0  0  0  0
    8.3085  -13.7725   26.8284 C   0  0  0  0  0  0  0  0  0  0  0  0
    7.6989  -14.9969   27.0045 C   0  0  0  0  0  0  0  0  0  0  0  0
    8.2262  -16.0681   27.8498 C   0  0  0  0  0  0  0  0  0  0  0  0
    9.6490  -16.4548   27.5583 C   0  0  2  0  0  0  0  0  0  0  0  0
    9.6219  -17.2281   26.3280 N   0  0  0  0  0  0  0  0  0  0  0  0
   10.2280  -17.2732   28.6262 C   0  0  0  0  0  0  0  0  0  0  0  0
   10.4230  -16.7391   29.9122 O   0  0  0  0  0  0  0  0  0  0  0  0
    6.5191  -15.2035   26.3230 C   0  0  0  0  0  0  0  0  0  0  0  0
    5.9814  -14.2237   25.5050 C   0  0  0  0  0  0  0  0  0  0  0  0
   10.5519  -18.4660   28.3805 O   0  0  0  0  0  0  0  0  0  0  0  0
  2  1  1  6
  2  3  1  0
  3  4  1  0
  4  5  1  0
  5  9  1  0
  6  5  2  0
  7  2  1  0
  8  7  2  0
 10  7  1  0
 11 10  1  0
 11 12  1  6
 13 12  1  0
 14 13  1  0
 14 15  2  0
 16 11  1  0
 16 26  1  0
 17 16  2  0
 18 14  1  0
 20 19  1  0
 21 20  2  0
 22 21  1  0
 23 29  1  0
 23 22  2  0
 24 23  1  0
 25 24  1  1
 25 26  1  0
 25 27  1  0
 27 28  1  0
 29 30  2  0
 30 20  1  0
 31 27  2  0
M  END
$$$$
