EEY.pdb
     RDKit          3D

 31 31  0  0  1  0  0  0  0  0999 V2000
   11.4769  -16.6553   17.7451 N   0  0  0  0  0  0  0  0  0  0  0  0
   10.1375  -16.3324   18.0525 C   0  0  1  0  0  0  0  0  0  0  0  0
    9.0727  -16.7526   17.0978 C   0  0  0  0  0  0  0  0  0  0  0  0
    8.9699  -18.1859   16.7599 C   0  0  0  0  0  0  0  0  0  0  0  0
    7.8773  -18.5083   15.8359 C   0  0  0  0  0  0  0  0  0  0  0  0
    7.4647  -17.7835   14.9101 O   0  0  0  0  0  0  0  0  0  0  0  0
    9.7000  -16.8358   19.4086 C   0  0  0  0  0  0  0  0  0  0  0  0
    8.5372  -16.5965   19.8249 O   0  0  0  0  0  0  0  0  0  0  0  0
    7.2438  -19.7516   16.0198 O   0  0  0  0  0  0  0  0  0  0  0  0
   10.5490  -17.5825   20.2628 N   0  0  0  0  0  0  0  0  0  0  0  0
   10.1064  -18.0443   21.5794 C   0  0  1  0  0  0  0  0  0  0  0  0
   10.8950  -19.2291   22.0434 C   0  0  0  0  0  0  0  0  0  0  0  0
   10.3662  -20.5424   21.5509 C   0  0  0  0  0  0  0  0  0  0  0  0
   11.2476  -21.6175   22.0766 C   0  0  0  0  0  0  0  0  0  0  0  0
   11.8045  -22.4632   21.3178 O   0  0  0  0  0  0  0  0  0  0  0  0
   10.1183  -16.9051   22.5032 C   0  0  0  0  0  0  0  0  0  0  0  0
   11.0434  -16.0497   22.5092 O   0  0  0  0  0  0  0  0  0  0  0  0
   11.5065  -21.7500   23.4341 O   0  0  0  0  0  0  0  0  0  0  0  0
    6.4986  -10.9695   28.1070 O   0  0  0  0  0  0  0  0  0  0  0  0
    6.7953  -11.9504   27.1635 C   0  0  0  0  0  0  0  0  0  0  0  0
    8.1069  -12.1720   26.7926 C   0  0  0  0  0  0  0  0  0  0  0  0
    8.3981  -13.1432   25.8586 C   0  0  0  0  0  0  0  0  0  0  0  0
    7.4302  -13.9229   25.2611 C   0  0  0  0  0  0  0  0  0  0  0  0
    7.7025  -14.9565   24.2623 C   0  0  0  0  0  0  0  0  0  0  0  0
    9.0724  -15.5687   24.3501 C   0  0  2  0  0  0  0  0  0  0  0  0
    9.0725  -16.7091   23.4491 N   0  0  0  0  0  0  0  0  0  0  0  0
    9.3852  -16.0283   25.7052 C   0  0  0  0  0  0  0  0  0  0  0  0
    9.0878  -17.3441   26.1017 O   0  0  0  0  0  0  0  0  0  0  0  0
    6.1266  -13.6893   25.6419 C   0  0  0  0  0  0  0  0  0  0  0  0
    5.8153  -12.7178   26.5787 C   0  0  0  0  0  0  0  0  0  0  0  0
    9.9254  -15.2295   26.5166 O   0  0  0  0  0  0  0  0  0  0  0  0
  2  1  1  6
  2  3  1  0
  3  4  1  0
  4  5  1  0
  5  9  1  0
  6  5  2  0
  7  2  1  0
  8  7  2  0
 10  7  1  0
 11 10  1  0
 11 12  1  1
 13 12  1  0
 14 13  1  0
 14 15  2  0
 16 11  1  0
 16 26  1  0
 17 16  2  0
 18 14  1  0
 20 19  1  0
 21 20  2  0
 22 21  1  0
 23 29  1  0
 23 22  2  0
 24 23  1  0
 25 24  1  1
 25 26  1  0
 25 27  1  0
 27 28  1  0
 29 30  2  0
 30 20  1  0
 31 27  2  0
M  END
$$$$
