EEY.pdb
     RDKit          3D

 31 31  0  0  1  0  0  0  0  0999 V2000
    8.9798  -19.0546   16.9505 N   0  0  0  0  0  0  0  0  0  0  0  0
    9.7813  -17.9846   17.4037 C   0  0  1  0  0  0  0  0  0  0  0  0
    9.4180  -16.6020   16.9817 C   0  0  0  0  0  0  0  0  0  0  0  0
    9.2197  -16.3455   15.5417 C   0  0  0  0  0  0  0  0  0  0  0  0
    8.7158  -15.0026   15.2345 C   0  0  0  0  0  0  0  0  0  0  0  0
    8.9680  -13.9631   15.8737 O   0  0  0  0  0  0  0  0  0  0  0  0
    9.9150  -17.9368   18.9083 C   0  0  0  0  0  0  0  0  0  0  0  0
    8.9459  -18.2696   19.6382 O   0  0  0  0  0  0  0  0  0  0  0  0
    7.8716  -14.8883   14.1141 O   0  0  0  0  0  0  0  0  0  0  0  0
   11.1028  -17.5259   19.5626 N   0  0  0  0  0  0  0  0  0  0  0  0
   11.2878  -17.6951   21.0047 C   0  0  1  0  0  0  0  0  0  0  0  0
   12.6496  -18.2256   21.3288 C   0  0  0  0  0  0  0  0  0  0  0  0
   12.9376  -19.5689   20.7293 C   0  0  0  0  0  0  0  0  0  0  0  0
   14.3263  -19.9478   21.0997 C   0  0  0  0  0  0  0  0  0  0  0  0
   15.2526  -19.0923   21.2051 O   0  0  0  0  0  0  0  0  0  0  0  0
   10.9515  -16.4325   21.6711 C   0  0  0  0  0  0  0  0  0  0  0  0
   11.6338  -15.3846   21.5168 O   0  0  0  0  0  0  0  0  0  0  0  0
   14.6804  -21.2665   21.3505 O   0  0  0  0  0  0  0  0  0  0  0  0
    7.3402  -12.9822   17.6324 O   0  0  0  0  0  0  0  0  0  0  0  0
    7.5350  -13.4137   18.9425 C   0  0  0  0  0  0  0  0  0  0  0  0
    6.7304  -14.4068   19.4651 C   0  0  0  0  0  0  0  0  0  0  0  0
    6.9250  -14.8322   20.7619 C   0  0  0  0  0  0  0  0  0  0  0  0
    7.9007  -14.3089   21.5841 C   0  0  0  0  0  0  0  0  0  0  0  0
    8.1305  -14.7312   22.9657 C   0  0  0  0  0  0  0  0  0  0  0  0
    9.5509  -15.1108   23.2780 C   0  0  2  0  0  0  0  0  0  0  0  0
    9.8245  -16.3294   22.5348 N   0  0  0  0  0  0  0  0  0  0  0  0
    9.7525  -15.3648   24.7063 C   0  0  0  0  0  0  0  0  0  0  0  0
   10.0523  -16.6585   25.1684 O   0  0  0  0  0  0  0  0  0  0  0  0
    8.6950  -13.3188   21.0476 C   0  0  0  0  0  0  0  0  0  0  0  0
    8.5139  -12.8789   19.7468 C   0  0  0  0  0  0  0  0  0  0  0  0
    9.6537  -14.4087   25.5213 O   0  0  0  0  0  0  0  0  0  0  0  0
  2  1  1  1
  2  3  1  0
  3  4  1  0
  4  5  1  0
  5  9  1  0
  6  5  2  0
  7  2  1  0
  8  7  2  0
 10  7  1  0
 11 10  1  0
 11 12  1  6
 13 12  1  0
 14 13  1  0
 14 15  2  0
 16 11  1  0
 16 26  1  0
 17 16  2  0
 18 14  1  0
 20 19  1  0
 21 20  2  0
 22 21  1  0
 23 29  1  0
 23 22  2  0
 24 23  1  0
 25 24  1  1
 25 26  1  0
 25 27  1  0
 27 28  1  0
 29 30  2  0
 30 20  1  0
 31 27  2  0
M  END
$$$$
