EEY.pdb
     RDKit          3D

 31 31  0  0  1  0  0  0  0  0999 V2000
    5.9697  -15.5287   20.2990 N   0  0  0  0  0  0  0  0  0  0  0  0
    7.3572  -15.3359   20.4728 C   0  0  1  0  0  0  0  0  0  0  0  0
    7.8745  -13.9391   20.5299 C   0  0  0  0  0  0  0  0  0  0  0  0
    7.6137  -13.0548   19.3771 C   0  0  0  0  0  0  0  0  0  0  0  0
    8.4851  -13.2999   18.2228 C   0  0  0  0  0  0  0  0  0  0  0  0
    9.3852  -14.1588   18.1556 O   0  0  0  0  0  0  0  0  0  0  0  0
    7.9060  -16.0311   21.6973 C   0  0  0  0  0  0  0  0  0  0  0  0
    7.1510  -16.2805   22.6721 O   0  0  0  0  0  0  0  0  0  0  0  0
    8.2776  -12.4857   17.0937 O   0  0  0  0  0  0  0  0  0  0  0  0
    9.2611  -16.4286   21.8139 N   0  0  0  0  0  0  0  0  0  0  0  0
    9.7117  -17.3332   22.8727 C   0  0  1  0  0  0  0  0  0  0  0  0
   10.9635  -18.0571   22.4857 C   0  0  0  0  0  0  0  0  0  0  0  0
   11.5344  -18.9113   23.5771 C   0  0  0  0  0  0  0  0  0  0  0  0
   12.7272  -19.6124   23.0340 C   0  0  0  0  0  0  0  0  0  0  0  0
   13.4579  -19.1016   22.1360 O   0  0  0  0  0  0  0  0  0  0  0  0
    9.8085  -16.5762   24.1253 C   0  0  0  0  0  0  0  0  0  0  0  0
   10.2114  -15.3830   24.1641 O   0  0  0  0  0  0  0  0  0  0  0  0
   13.1029  -20.8700   23.4862 O   0  0  0  0  0  0  0  0  0  0  0  0
    6.4100  -10.8310   26.1053 O   0  0  0  0  0  0  0  0  0  0  0  0
    6.8351  -12.1367   26.3391 C   0  0  0  0  0  0  0  0  0  0  0  0
    6.0220  -13.1966   25.9893 C   0  0  0  0  0  0  0  0  0  0  0  0
    6.4449  -14.4879   26.2217 C   0  0  0  0  0  0  0  0  0  0  0  0
    7.6623  -14.7861   26.7970 C   0  0  0  0  0  0  0  0  0  0  0  0
    8.1395  -16.1429   27.0642 C   0  0  0  0  0  0  0  0  0  0  0  0
    9.5480  -16.4127   26.6146 C   0  0  2  0  0  0  0  0  0  0  0  0
    9.4477  -17.1606   25.3724 N   0  0  0  0  0  0  0  0  0  0  0  0
   10.2968  -17.2056   27.5924 C   0  0  0  0  0  0  0  0  0  0  0  0
   10.7592  -18.4930   27.2673 O   0  0  0  0  0  0  0  0  0  0  0  0
    8.4617  -13.7174   27.1403 C   0  0  0  0  0  0  0  0  0  0  0  0
    8.0533  -12.4134   26.9143 C   0  0  0  0  0  0  0  0  0  0  0  0
   10.5231  -16.7212   28.7336 O   0  0  0  0  0  0  0  0  0  0  0  0
  2  1  1  1
  2  3  1  0
  3  4  1  0
  4  5  1  0
  5  9  1  0
  6  5  2  0
  7  2  1  0
  8  7  2  0
 10  7  1  0
 11 10  1  0
 11 12  1  6
 13 12  1  0
 14 13  1  0
 14 15  2  0
 16 11  1  0
 16 26  1  0
 17 16  2  0
 18 14  1  0
 20 19  1  0
 21 20  2  0
 22 21  1  0
 23 29  1  0
 23 22  2  0
 24 23  1  0
 25 24  1  1
 25 26  1  0
 25 27  1  0
 27 28  1  0
 29 30  2  0
 30 20  1  0
 31 27  2  0
M  END
$$$$
