WLI.pdb
     RDKit          3D

 31 32  0  0  1  0  0  0  0  0999 V2000
    6.0125  -18.8348   24.6619 N   0  0  0  0  0  0  0  0  0  0  0  0
    6.3291  -17.4294   24.6890 C   0  0  1  0  0  0  0  0  0  0  0  0
    6.9524  -16.9529   25.9670 C   0  0  0  0  0  0  0  0  0  0  0  0
    6.4072  -15.6366   26.3636 C   0  0  0  0  0  0  0  0  0  0  0  0
    5.0916  -15.4386   26.7544 C   0  0  0  0  0  0  0  0  0  0  0  0
    4.9192  -14.1491   27.0702 N   0  0  0  0  0  0  0  0  0  0  0  0
    6.0744  -13.4525   26.9089 C   0  0  0  0  0  0  0  0  0  0  0  0
    6.4258  -12.1361   27.0859 C   0  0  0  0  0  0  0  0  0  0  0  0
    7.7062  -11.7273   26.8249 C   0  0  0  0  0  0  0  0  0  0  0  0
    8.6401  -12.6419   26.3838 C   0  0  0  0  0  0  0  0  0  0  0  0
    8.2822  -13.9745   26.2052 C   0  0  0  0  0  0  0  0  0  0  0  0
    6.9973  -14.3998   26.4649 C   0  0  0  0  0  0  0  0  0  0  0  0
    7.3168  -17.1349   23.6038 C   0  0  0  0  0  0  0  0  0  0  0  0
    8.0357  -18.0494   23.1432 O   0  0  0  0  0  0  0  0  0  0  0  0
    8.7238  -12.4318   19.9889 C   0  0  0  0  0  0  0  0  0  0  0  0
    8.9337  -13.9375   20.2151 C   0  0  2  0  0  0  0  0  0  0  0  0
    8.5564  -14.6907   18.9890 C   0  0  0  0  0  0  0  0  0  0  0  0
    8.1708  -14.2852   21.4366 C   0  0  0  0  0  0  0  0  0  0  0  0
    8.4617  -15.6368   22.0315 C   0  0  2  0  0  0  0  0  0  0  0  0
    7.4585  -15.8285   23.0791 N   0  0  0  0  0  0  0  0  0  0  0  0
    9.7943  -15.6359   22.6957 C   0  0  0  0  0  0  0  0  0  0  0  0
   10.8084  -15.6044   21.9606 O   0  0  0  0  0  0  0  0  0  0  0  0
   10.2835  -15.2732   28.4306 C   0  0  0  0  0  0  0  0  0  0  0  0
   10.3114  -15.8916   27.0650 C   0  0  0  0  0  0  0  0  0  0  0  0
   11.1301  -15.0028   26.1361 C   0  0  2  0  0  0  0  0  0  0  0  0
   10.5017  -13.6388   26.1458 C   0  0  0  0  0  0  0  0  0  0  0  0
   11.1891  -15.6129   24.7773 C   0  0  2  0  0  0  0  0  0  0  0  0
    9.9170  -15.6694   24.1069 N   0  0  0  0  0  0  0  0  0  0  0  0
   11.7880  -16.9889   24.7795 C   0  0  0  0  0  0  0  0  0  0  0  0
   11.0244  -18.0410   24.2975 O   0  0  0  0  0  0  0  0  0  0  0  0
   12.9354  -17.2536   25.1886 O   0  0  0  0  0  0  0  0  0  0  0  0
  2  1  1  1
  2 13  1  0
  3  4  1  0
  3  2  1  0
  4 12  1  0
  4  5  2  0
  5  6  1  0
  7  6  1  0
  7  8  2  0
  9  8  1  0
 10  9  2  0
 11 10  1  0
 11 12  2  0
 12  7  1  0
 13 14  2  0
 16 15  1  6
 17 16  1  0
 18 16  1  0
 19 18  1  1
 20 13  1  0
 20 19  1  0
 21 19  1  0
 21 22  2  0
 23 24  1  0
 25 24  1  0
 25 26  1  6
 27 28  1  1
 27 25  1  0
 28 21  1  0
 29 27  1  0
 30 29  1  0
 31 29  2  0
M  END
$$$$
