WLI.pdb
     RDKit          3D

 31 32  0  0  1  0  0  0  0  0999 V2000
    7.0025  -20.3460   22.8336 N   0  0  0  0  0  0  0  0  0  0  0  0
    6.8530  -19.0644   23.4750 C   0  0  1  0  0  0  0  0  0  0  0  0
    7.3486  -19.0108   24.8893 C   0  0  0  0  0  0  0  0  0  0  0  0
    6.9876  -17.7271   25.5288 C   0  0  0  0  0  0  0  0  0  0  0  0
    5.8286  -17.0245   25.2358 C   0  0  0  0  0  0  0  0  0  0  0  0
    5.7830  -15.9220   25.9938 N   0  0  0  0  0  0  0  0  0  0  0  0
    6.8741  -15.8426   26.7994 C   0  0  0  0  0  0  0  0  0  0  0  0
    7.3022  -14.9341   27.7369 C   0  0  0  0  0  0  0  0  0  0  0  0
    8.4851  -15.1353   28.3965 C   0  0  0  0  0  0  0  0  0  0  0  0
    9.2438  -16.2527   28.1154 C   0  0  0  0  0  0  0  0  0  0  0  0
    8.8085  -17.1716   27.1657 C   0  0  0  0  0  0  0  0  0  0  0  0
    7.6196  -16.9820   26.4950 C   0  0  0  0  0  0  0  0  0  0  0  0
    7.6433  -18.0469   22.7134 C   0  0  0  0  0  0  0  0  0  0  0  0
    8.8064  -18.3095   22.3347 O   0  0  0  0  0  0  0  0  0  0  0  0
    8.7501  -13.3152   20.4749 C   0  0  0  0  0  0  0  0  0  0  0  0
    7.4269  -13.9422   20.0077 C   0  0  2  0  0  0  0  0  0  0  0  0
    6.4838  -12.8738   19.5810 C   0  0  0  0  0  0  0  0  0  0  0  0
    6.9568  -14.7999   21.1205 C   0  0  0  0  0  0  0  0  0  0  0  0
    7.8886  -15.9058   21.5377 C   0  0  2  0  0  0  0  0  0  0  0  0
    7.0982  -16.7776   22.4071 N   0  0  0  0  0  0  0  0  0  0  0  0
    9.0046  -15.3621   22.3598 C   0  0  0  0  0  0  0  0  0  0  0  0
   10.1059  -15.1764   21.7921 O   0  0  0  0  0  0  0  0  0  0  0  0
    7.2138  -12.3022   26.3529 C   0  0  0  0  0  0  0  0  0  0  0  0
    7.7732  -13.1626   25.2600 C   0  0  0  0  0  0  0  0  0  0  0  0
    9.2218  -13.5025   25.5904 C   0  0  2  0  0  0  0  0  0  0  0  0
    9.9511  -12.2080   25.8093 C   0  0  0  0  0  0  0  0  0  0  0  0
    9.8075  -14.3293   24.4971 C   0  0  2  0  0  0  0  0  0  0  0  0
    8.8330  -15.0638   23.7344 N   0  0  0  0  0  0  0  0  0  0  0  0
   10.8523  -15.2896   24.9856 C   0  0  0  0  0  0  0  0  0  0  0  0
   10.5386  -16.6394   25.0286 O   0  0  0  0  0  0  0  0  0  0  0  0
   11.9934  -14.9540   25.3589 O   0  0  0  0  0  0  0  0  0  0  0  0
  2  1  1  6
  2 13  1  0
  3  4  1  0
  3  2  1  0
  4 12  1  0
  4  5  2  0
  5  6  1  0
  7  6  1  0
  7  8  2  0
  9  8  1  0
 10  9  2  0
 11 10  1  0
 11 12  2  0
 12  7  1  0
 13 14  2  0
 16 15  1  1
 17 16  1  0
 18 16  1  0
 19 18  1  1
 20 13  1  0
 20 19  1  0
 21 19  1  0
 21 22  2  0
 23 24  1  0
 25 24  1  0
 25 26  1  6
 27 28  1  1
 27 25  1  0
 28 21  1  0
 29 27  1  0
 30 29  1  0
 31 29  2  0
M  END
$$$$
