WLI.pdb
     RDKit          3D

 31 32  0  0  1  0  0  0  0  0999 V2000
    5.9600  -18.6392   23.7836 N   0  0  0  0  0  0  0  0  0  0  0  0
    6.3949  -17.2920   24.0524 C   0  0  1  0  0  0  0  0  0  0  0  0
    6.6928  -17.0066   25.4941 C   0  0  0  0  0  0  0  0  0  0  0  0
    6.2175  -15.6593   25.8765 C   0  0  0  0  0  0  0  0  0  0  0  0
    4.8788  -15.3371   26.0400 C   0  0  0  0  0  0  0  0  0  0  0  0
    4.7804  -14.0535   26.4074 N   0  0  0  0  0  0  0  0  0  0  0  0
    6.0090  -13.4812   26.5017 C   0  0  0  0  0  0  0  0  0  0  0  0
    6.4509  -12.2219   26.8277 C   0  0  0  0  0  0  0  0  0  0  0  0
    7.7917  -11.9442   26.8267 C   0  0  0  0  0  0  0  0  0  0  0  0
    8.6951  -12.9333   26.4971 C   0  0  0  0  0  0  0  0  0  0  0  0
    8.2455  -14.2080   26.1673 C   0  0  0  0  0  0  0  0  0  0  0  0
    6.8990  -14.5015   26.1651 C   0  0  0  0  0  0  0  0  0  0  0  0
    7.6636  -17.0342   23.3015 C   0  0  0  0  0  0  0  0  0  0  0  0
    8.4469  -17.9764   23.0489 O   0  0  0  0  0  0  0  0  0  0  0  0
    8.1226  -14.9163   19.5443 C   0  0  0  0  0  0  0  0  0  0  0  0
    8.0778  -13.8949   20.6919 C   0  0  2  0  0  0  0  0  0  0  0  0
    8.0325  -12.5146   20.1391 C   0  0  0  0  0  0  0  0  0  0  0  0
    9.2388  -14.1950   21.5619 C   0  0  0  0  0  0  0  0  0  0  0  0
    9.2745  -15.5765   22.1583 C   0  0  2  0  0  0  0  0  0  0  0  0
    8.0025  -15.7319   22.8644 N   0  0  0  0  0  0  0  0  0  0  0  0
   10.3561  -15.6746   23.1769 C   0  0  0  0  0  0  0  0  0  0  0  0
   11.5398  -15.5873   22.7759 O   0  0  0  0  0  0  0  0  0  0  0  0
    9.8572  -13.3441   28.0457 C   0  0  0  0  0  0  0  0  0  0  0  0
   10.4318  -13.8547   26.7585 C   0  0  0  0  0  0  0  0  0  0  0  0
   10.6596  -15.3568   26.8799 C   0  0  2  0  0  0  0  0  0  0  0  0
   11.6717  -15.5741   27.9680 C   0  0  0  0  0  0  0  0  0  0  0  0
   11.0850  -15.9102   25.5628 C   0  0  2  0  0  0  0  0  0  0  0  0
   10.0631  -15.8599   24.5508 N   0  0  0  0  0  0  0  0  0  0  0  0
   11.5933  -17.3191   25.6569 C   0  0  0  0  0  0  0  0  0  0  0  0
   12.7806  -17.5477   26.3353 O   0  0  0  0  0  0  0  0  0  0  0  0
   11.0160  -18.3072   25.1625 O   0  0  0  0  0  0  0  0  0  0  0  0
  2  1  1  1
  2 13  1  0
  3  4  1  0
  3  2  1  0
  4 12  1  0
  4  5  2  0
  5  6  1  0
  7  6  1  0
  7  8  2  0
  9  8  1  0
 10  9  2  0
 11 10  1  0
 11 12  2  0
 12  7  1  0
 13 14  2  0
 16 15  1  6
 17 16  1  0
 18 16  1  0
 19 18  1  1
 20 13  1  0
 20 19  1  0
 21 19  1  0
 21 22  2  0
 23 24  1  0
 25 24  1  0
 25 26  1  1
 27 28  1  6
 27 25  1  0
 28 21  1  0
 29 27  1  0
 30 29  1  0
 31 29  2  0
M  END
$$$$
