WLI.pdb
     RDKit          3D

 31 32  0  0  1  0  0  0  0  0999 V2000
    6.3432  -19.3437   24.4334 N   0  0  0  0  0  0  0  0  0  0  0  0
    6.3647  -17.9157   24.6243 C   0  0  1  0  0  0  0  0  0  0  0  0
    6.8390  -17.4720   25.9759 C   0  0  0  0  0  0  0  0  0  0  0  0
    6.6103  -16.0237   26.1684 C   0  0  0  0  0  0  0  0  0  0  0  0
    5.5538  -15.3322   25.5954 C   0  0  0  0  0  0  0  0  0  0  0  0
    5.6122  -14.0505   25.9777 N   0  0  0  0  0  0  0  0  0  0  0  0
    6.6759  -13.8372   26.7955 C   0  0  0  0  0  0  0  0  0  0  0  0
    7.1752  -12.7315   27.4404 C   0  0  0  0  0  0  0  0  0  0  0  0
    8.3019  -12.8380   28.2112 C   0  0  0  0  0  0  0  0  0  0  0  0
    8.9324  -14.0586   28.3366 C   0  0  0  0  0  0  0  0  0  0  0  0
    8.4251  -15.1771   27.6827 C   0  0  0  0  0  0  0  0  0  0  0  0
    7.2915  -15.0844   26.9045 C   0  0  0  0  0  0  0  0  0  0  0  0
    7.3029  -17.3085   23.6289 C   0  0  0  0  0  0  0  0  0  0  0  0
    8.2461  -17.9842   23.1609 O   0  0  0  0  0  0  0  0  0  0  0  0
    9.0314  -14.5992   19.9203 C   0  0  0  0  0  0  0  0  0  0  0  0
    7.9982  -13.5911   20.4481 C   0  0  2  0  0  0  0  0  0  0  0  0
    8.6241  -12.2481   20.5815 C   0  0  0  0  0  0  0  0  0  0  0  0
    7.4553  -14.1682   21.7000 C   0  0  0  0  0  0  0  0  0  0  0  0
    7.9756  -15.5294   22.0767 C   0  0  2  0  0  0  0  0  0  0  0  0
    7.1460  -15.9697   23.1985 N   0  0  0  0  0  0  0  0  0  0  0  0
    9.3741  -15.4301   22.5783 C   0  0  0  0  0  0  0  0  0  0  0  0
   10.2471  -15.0127   21.7826 O   0  0  0  0  0  0  0  0  0  0  0  0
   10.9419  -13.2287   27.5096 C   0  0  0  0  0  0  0  0  0  0  0  0
   11.1288  -13.6108   26.0719 C   0  0  0  0  0  0  0  0  0  0  0  0
   10.9268  -15.1148   25.9294 C   0  0  2  0  0  0  0  0  0  0  0  0
   11.9701  -15.7926   26.7706 C   0  0  0  0  0  0  0  0  0  0  0  0
   10.9923  -15.4981   24.4903 C   0  0  2  0  0  0  0  0  0  0  0  0
    9.7109  -15.7933   23.9059 N   0  0  0  0  0  0  0  0  0  0  0  0
   11.9107  -16.6572   24.2350 C   0  0  0  0  0  0  0  0  0  0  0  0
   11.3853  -17.7974   23.6467 O   0  0  0  0  0  0  0  0  0  0  0  0
   13.1247  -16.6654   24.5180 O   0  0  0  0  0  0  0  0  0  0  0  0
  2  1  1  1
  2 13  1  0
  3  4  1  0
  3  2  1  0
  4 12  1  0
  4  5  2  0
  5  6  1  0
  7  6  1  0
  7  8  2  0
  9  8  1  0
 10  9  2  0
 11 10  1  0
 11 12  2  0
 12  7  1  0
 13 14  2  0
 16 15  1  1
 17 16  1  0
 18 16  1  0
 19 18  1  1
 20 13  1  0
 20 19  1  0
 21 19  1  0
 21 22  2  0
 23 24  1  0
 25 24  1  0
 25 26  1  1
 27 28  1  1
 27 25  1  0
 28 21  1  0
 29 27  1  0
 30 29  1  0
 31 29  2  0
M  END
$$$$
