WLI.pdb
     RDKit          3D

 31 32  0  0  1  0  0  0  0  0999 V2000
   69.2089   -9.1219    8.9233 N   0  0  0  0  0  0  0  0  0  0  0  0
   69.6888  -10.4721    8.7722 C   0  0  1  0  0  0  0  0  0  0  0  0
   70.8418  -10.8296    9.6618 C   0  0  0  0  0  0  0  0  0  0  0  0
   72.1052  -10.8848    8.8950 C   0  0  0  0  0  0  0  0  0  0  0  0
   73.3575  -10.7285    9.4694 C   0  0  0  0  0  0  0  0  0  0  0  0
   74.2923  -10.8533    8.5193 N   0  0  0  0  0  0  0  0  0  0  0  0
   73.7236  -11.0902    7.3085 C   0  0  0  0  0  0  0  0  0  0  0  0
   74.2225  -11.2845    6.0432 C   0  0  0  0  0  0  0  0  0  0  0  0
   73.3682  -11.4997    4.9950 C   0  0  0  0  0  0  0  0  0  0  0  0
   72.0065  -11.5202    5.2151 C   0  0  0  0  0  0  0  0  0  0  0  0
   71.5033  -11.3232    6.4972 C   0  0  0  0  0  0  0  0  0  0  0  0
   72.3517  -11.1064    7.5614 C   0  0  0  0  0  0  0  0  0  0  0  0
   68.5827  -11.4200    9.1156 C   0  0  0  0  0  0  0  0  0  0  0  0
   68.7364  -12.2606   10.0294 O   0  0  0  0  0  0  0  0  0  0  0  0
   64.6705  -11.8404    6.6749 C   0  0  0  0  0  0  0  0  0  0  0  0
   65.2816  -10.6511    5.9170 C   0  0  2  0  0  0  0  0  0  0  0  0
   64.9875  -10.7722    4.4638 C   0  0  0  0  0  0  0  0  0  0  0  0
   66.7187  -10.6227    6.2760 C   0  0  0  0  0  0  0  0  0  0  0  0
   67.0386  -10.1684    7.6748 C   0  0  2  0  0  0  0  0  0  0  0  0
   67.3501  -11.3873    8.4216 N   0  0  0  0  0  0  0  0  0  0  0  0
   65.8376   -9.5597    8.3105 C   0  0  0  0  0  0  0  0  0  0  0  0
   65.5759   -8.3666    8.0319 O   0  0  0  0  0  0  0  0  0  0  0  0
   66.0084  -11.3289    7.2299 C   0  0  0  0  0  0  0  0  0  0  0  0
   65.0814  -12.5011    7.3506 C   0  0  0  0  0  0  0  0  0  0  0  0
   64.7353  -12.7088    8.8203 C   0  0  2  0  0  0  0  0  0  0  0  0
   63.2382  -12.7567    8.9298 C   0  0  0  0  0  0  0  0  0  0  0  0
   65.3500  -11.6266    9.6407 C   0  0  2  0  0  0  0  0  0  0  0  0
   65.0170  -10.2982    9.1989 N   0  0  0  0  0  0  0  0  0  0  0  0
   66.8439  -11.7380    9.7311 C   0  0  0  0  0  0  0  0  0  0  0  0
   67.6164  -10.7904    9.0774 O   0  0  0  0  0  0  0  0  0  0  0  0
   67.4436  -12.6323   10.3594 O   0  0  0  0  0  0  0  0  0  0  0  0
  2  1  1  1
  2 13  1  0
  3  4  1  0
  3  2  1  0
  4 12  1  0
  4  5  2  0
  5  6  1  0
  7  6  1  0
  7  8  2  0
  9  8  1  0
 10  9  2  0
 11 10  1  0
 11 12  2  0
 12  7  1  0
 13 14  2  0
 16 15  1  1
 17 16  1  0
 18 16  1  0
 19 18  1  6
 20 13  1  0
 20 19  1  0
 21 19  1  0
 21 22  2  0
 23 24  1  0
 25 24  1  0
 25 26  1  6
 27 28  1  6
 27 25  1  0
 28 21  1  0
 29 27  1  0
 30 29  1  0
 31 29  2  0
M  END
$$$$
