CIY.pdb
     RDKit          3D

 27 27  0  0  1  0  0  0  0  0999 V2000
    5.3467  -16.8790   21.4033 N   0  0  0  0  0  0  0  0  0  0  0  0
    5.8015  -16.8138   22.7548 C   0  0  1  0  0  0  0  0  0  0  0  0
    6.4682  -18.1345   23.0943 C   0  0  0  0  0  0  0  0  0  0  0  0
    5.1843  -19.4116   23.1386 S   0  0  0  0  0  0  0  0  0  0  0  0
    6.7774  -15.7383   22.9919 C   0  0  0  0  0  0  0  0  0  0  0  0
    7.4865  -15.3212   22.0430 O   0  0  0  0  0  0  0  0  0  0  0  0
    5.4597  -11.8724   26.5954 C   0  0  0  0  0  0  0  0  0  0  0  0
    6.0559  -12.5407   25.4177 C   0  0  0  0  0  0  0  0  0  0  0  0
    7.3098  -13.2877   25.5767 C   0  0  2  0  0  0  0  0  0  0  0  0
    8.3861  -12.3755   26.2226 C   0  0  0  0  0  0  0  0  0  0  0  0
    7.8848  -14.0726   24.4617 C   0  0  2  0  0  0  0  0  0  0  0  0
    6.8976  -15.1926   24.2935 N   0  0  0  0  0  0  0  0  0  0  0  0
    9.1614  -14.7805   24.7034 C   0  0  0  0  0  0  0  0  0  0  0  0
   10.2437  -14.0885   24.8159 O   0  0  0  0  0  0  0  0  0  0  0  0
   10.9967  -14.5753   31.2357 O   0  0  0  0  0  0  0  0  0  0  0  0
   10.8951  -15.3641   30.0865 C   0  0  0  0  0  0  0  0  0  0  0  0
   10.1458  -14.8749   29.0529 C   0  0  0  0  0  0  0  0  0  0  0  0
   10.0099  -15.6058   27.8980 C   0  0  0  0  0  0  0  0  0  0  0  0
   10.6142  -16.8450   27.7347 C   0  0  0  0  0  0  0  0  0  0  0  0
   10.4052  -17.5921   26.4996 C   0  0  0  0  0  0  0  0  0  0  0  0
   10.6197  -16.6757   25.3087 C   0  0  2  0  0  0  0  0  0  0  0  0
    9.3276  -16.1775   24.8381 N   0  0  0  0  0  0  0  0  0  0  0  0
   11.3012  -17.4313   24.2561 C   0  0  0  0  0  0  0  0  0  0  0  0
   10.7014  -17.6103   23.0306 O   0  0  0  0  0  0  0  0  0  0  0  0
   11.3624  -17.3189   28.7846 C   0  0  0  0  0  0  0  0  0  0  0  0
   11.5163  -16.5928   29.9723 C   0  0  0  0  0  0  0  0  0  0  0  0
   12.4275  -17.9205   24.4559 O   0  0  0  0  0  0  0  0  0  0  0  0
  2  1  1  6
  3  4  1  0
  3  2  1  0
  5  6  2  0
  5  2  1  0
  8  7  1  0
  8  9  1  0
  9 11  1  0
  9 10  1  6
 11 12  1  1
 12  5  1  0
 13 11  1  0
 14 13  2  0
 16 17  2  0
 16 15  1  0
 18 17  1  0
 19 18  2  0
 21 20  1  1
 20 19  1  0
 21 22  1  0
 22 13  1  0
 23 24  1  0
 23 21  1  0
 25 19  1  0
 25 26  2  0
 26 16  1  0
 27 23  2  0
M  END
$$$$
