CIY.pdb
     RDKit          3D

 27 27  0  0  1  0  0  0  0  0999 V2000
    7.0740  -15.1801   19.8241 N   0  0  0  0  0  0  0  0  0  0  0  0
    6.8554  -15.6062   21.1688 C   0  0  1  0  0  0  0  0  0  0  0  0
    7.0694  -17.1077   21.2305 C   0  0  0  0  0  0  0  0  0  0  0  0
    5.8356  -17.8907   20.1599 S   0  0  0  0  0  0  0  0  0  0  0  0
    7.7679  -14.9774   22.1370 C   0  0  0  0  0  0  0  0  0  0  0  0
    8.9232  -14.6422   21.7762 O   0  0  0  0  0  0  0  0  0  0  0  0
    5.4691  -12.0268   26.1603 C   0  0  0  0  0  0  0  0  0  0  0  0
    6.3958  -12.4920   25.1049 C   0  0  0  0  0  0  0  0  0  0  0  0
    7.4003  -13.5114   25.4325 C   0  0  2  0  0  0  0  0  0  0  0  0
    8.2201  -13.0620   26.6709 C   0  0  0  0  0  0  0  0  0  0  0  0
    8.2862  -14.0810   24.3929 C   0  0  2  0  0  0  0  0  0  0  0  0
    7.3215  -14.7620   23.4640 N   0  0  0  0  0  0  0  0  0  0  0  0
    9.2016  -15.1736   24.7901 C   0  0  0  0  0  0  0  0  0  0  0  0
    8.7060  -16.3353   25.0502 O   0  0  0  0  0  0  0  0  0  0  0  0
   11.6382  -15.3064   31.8029 O   0  0  0  0  0  0  0  0  0  0  0  0
   11.3499  -15.7572   30.5119 C   0  0  0  0  0  0  0  0  0  0  0  0
   10.9571  -14.8238   29.5935 C   0  0  0  0  0  0  0  0  0  0  0  0
   10.6605  -15.2079   28.3086 C   0  0  0  0  0  0  0  0  0  0  0  0
   10.7452  -16.5310   27.8968 C   0  0  0  0  0  0  0  0  0  0  0  0
   10.3833  -16.8851   26.5290 C   0  0  0  0  0  0  0  0  0  0  0  0
   11.3165  -16.1840   25.5586 C   0  0  2  0  0  0  0  0  0  0  0  0
   10.6068  -15.0819   24.9100 N   0  0  0  0  0  0  0  0  0  0  0  0
   11.7787  -17.1595   24.5695 C   0  0  0  0  0  0  0  0  0  0  0  0
   13.0153  -17.7487   24.7008 O   0  0  0  0  0  0  0  0  0  0  0  0
   11.1415  -17.4534   28.8343 C   0  0  0  0  0  0  0  0  0  0  0  0
   11.4494  -17.0871   30.1505 C   0  0  0  0  0  0  0  0  0  0  0  0
   11.0618  -17.4666   23.6001 O   0  0  0  0  0  0  0  0  0  0  0  0
  2  1  1  6
  3  4  1  0
  3  2  1  0
  5  6  2  0
  5  2  1  0
  8  7  1  0
  8  9  1  0
  9 11  1  0
  9 10  1  1
 11 12  1  6
 12  5  1  0
 13 11  1  0
 14 13  2  0
 16 17  2  0
 16 15  1  0
 18 17  1  0
 19 18  2  0
 21 20  1  1
 20 19  1  0
 21 22  1  0
 22 13  1  0
 23 24  1  0
 23 21  1  0
 25 19  1  0
 25 26  2  0
 26 16  1  0
 27 23  2  0
M  END
$$$$
