CIY.pdb
     RDKit          3D

 27 27  0  0  1  0  0  0  0  0999 V2000
    8.8672  -18.9326   18.2812 N   0  0  0  0  0  0  0  0  0  0  0  0
    8.3833  -18.4802   19.5456 C   0  0  1  0  0  0  0  0  0  0  0  0
    8.6632  -19.5611   20.5740 C   0  0  0  0  0  0  0  0  0  0  0  0
    7.5499  -20.9504   20.2391 S   0  0  0  0  0  0  0  0  0  0  0  0
    9.0240  -17.2383   20.0065 C   0  0  0  0  0  0  0  0  0  0  0  0
   10.1766  -16.9457   19.6024 O   0  0  0  0  0  0  0  0  0  0  0  0
    6.3029  -12.8466   19.5168 C   0  0  0  0  0  0  0  0  0  0  0  0
    7.4592  -13.7550   19.6802 C   0  0  0  0  0  0  0  0  0  0  0  0
    7.9132  -14.1000   21.0331 C   0  0  2  0  0  0  0  0  0  0  0  0
    8.1834  -12.8041   21.8427 C   0  0  0  0  0  0  0  0  0  0  0  0
    8.9879  -15.0930   21.2546 C   0  0  2  0  0  0  0  0  0  0  0  0
    8.3232  -16.3934   20.9018 N   0  0  0  0  0  0  0  0  0  0  0  0
    9.4471  -15.3138   22.6437 C   0  0  0  0  0  0  0  0  0  0  0  0
    8.6756  -15.9482   23.4593 O   0  0  0  0  0  0  0  0  0  0  0  0
   10.6560  -15.7849   30.8725 O   0  0  0  0  0  0  0  0  0  0  0  0
   10.4142  -15.5118   29.5234 C   0  0  0  0  0  0  0  0  0  0  0  0
    9.9338  -16.5331   28.7519 C   0  0  0  0  0  0  0  0  0  0  0  0
    9.6772  -16.3240   27.4189 C   0  0  0  0  0  0  0  0  0  0  0  0
    9.8901  -15.0938   26.8117 C   0  0  0  0  0  0  0  0  0  0  0  0
    9.6336  -14.9403   25.3841 C   0  0  0  0  0  0  0  0  0  0  0  0
   10.9246  -15.1405   24.6113 C   0  0  2  0  0  0  0  0  0  0  0  0
   10.6835  -14.9000   23.1889 N   0  0  0  0  0  0  0  0  0  0  0  0
   11.3945  -16.5088   24.8357 C   0  0  0  0  0  0  0  0  0  0  0  0
   10.5688  -17.5782   24.5741 O   0  0  0  0  0  0  0  0  0  0  0  0
   10.3731  -14.0809   27.6037 C   0  0  0  0  0  0  0  0  0  0  0  0
   10.6426  -14.2688   28.9651 C   0  0  0  0  0  0  0  0  0  0  0  0
   12.5426  -16.7216   25.2653 O   0  0  0  0  0  0  0  0  0  0  0  0
  2  1  1  6
  3  4  1  0
  3  2  1  0
  5  6  2  0
  5  2  1  0
  8  7  1  0
  8  9  1  0
  9 11  1  0
  9 10  1  6
 11 12  1  1
 12  5  1  0
 13 11  1  0
 14 13  2  0
 16 17  2  0
 16 15  1  0
 18 17  1  0
 19 18  2  0
 21 20  1  1
 20 19  1  0
 21 22  1  0
 22 13  1  0
 23 24  1  0
 23 21  1  0
 25 19  1  0
 25 26  2  0
 26 16  1  0
 27 23  2  0
M  END
$$$$
