CIY.pdb
     RDKit          3D

 27 27  0  0  1  0  0  0  0  0999 V2000
    8.1196  -19.2337   18.7315 N   0  0  0  0  0  0  0  0  0  0  0  0
    7.4127  -18.3523   19.6039 C   0  0  1  0  0  0  0  0  0  0  0  0
    6.7207  -19.1897   20.6640 C   0  0  0  0  0  0  0  0  0  0  0  0
    7.9927  -20.1202   21.5572 S   0  0  0  0  0  0  0  0  0  0  0  0
    8.2841  -17.3836   20.2879 C   0  0  0  0  0  0  0  0  0  0  0  0
    9.5301  -17.4636   20.1525 O   0  0  0  0  0  0  0  0  0  0  0  0
    7.2890  -12.5423   19.1359 C   0  0  0  0  0  0  0  0  0  0  0  0
    8.0471  -13.7124   19.6310 C   0  0  0  0  0  0  0  0  0  0  0  0
    7.9790  -14.0589   21.0561 C   0  0  2  0  0  0  0  0  0  0  0  0
    8.3709  -12.8278   21.9153 C   0  0  0  0  0  0  0  0  0  0  0  0
    8.6119  -15.2898   21.5800 C   0  0  2  0  0  0  0  0  0  0  0  0
    7.6958  -16.3749   21.0897 N   0  0  0  0  0  0  0  0  0  0  0  0
    8.6199  -15.4907   23.0459 C   0  0  0  0  0  0  0  0  0  0  0  0
    7.4982  -15.4697   23.6818 O   0  0  0  0  0  0  0  0  0  0  0  0
    6.4217  -10.8088   27.1942 O   0  0  0  0  0  0  0  0  0  0  0  0
    6.7693  -12.1026   26.7962 C   0  0  0  0  0  0  0  0  0  0  0  0
    8.0969  -12.4289   26.8100 C   0  0  0  0  0  0  0  0  0  0  0  0
    8.4985  -13.6859   26.4293 C   0  0  0  0  0  0  0  0  0  0  0  0
    7.5934  -14.6572   26.0231 C   0  0  0  0  0  0  0  0  0  0  0  0
    8.0812  -15.9636   25.5955 C   0  0  0  0  0  0  0  0  0  0  0  0
    9.5657  -15.8771   25.2910 C   0  0  2  0  0  0  0  0  0  0  0  0
    9.7594  -15.7201   23.8499 N   0  0  0  0  0  0  0  0  0  0  0  0
   10.2122  -17.0991   25.7732 C   0  0  0  0  0  0  0  0  0  0  0  0
   10.1852  -17.4169   27.1119 O   0  0  0  0  0  0  0  0  0  0  0  0
    6.2646  -14.3097   26.0160 C   0  0  0  0  0  0  0  0  0  0  0  0
    5.8298  -13.0348   26.3998 C   0  0  0  0  0  0  0  0  0  0  0  0
   10.7931  -17.8629   24.9814 O   0  0  0  0  0  0  0  0  0  0  0  0
  2  1  1  6
  3  4  1  0
  3  2  1  0
  5  6  2  0
  5  2  1  0
  8  7  1  0
  8  9  1  0
  9 11  1  0
  9 10  1  1
 11 12  1  6
 12  5  1  0
 13 11  1  0
 14 13  2  0
 16 17  2  0
 16 15  1  0
 18 17  1  0
 19 18  2  0
 21 20  1  6
 20 19  1  0
 21 22  1  0
 22 13  1  0
 23 24  1  0
 23 21  1  0
 25 19  1  0
 25 26  2  0
 26 16  1  0
 27 23  2  0
M  END
$$$$
