CIY.pdb
     RDKit          3D

 27 27  0  0  1  0  0  0  0  0999 V2000
    5.3003  -18.8523   24.1822 N   0  0  0  0  0  0  0  0  0  0  0  0
    6.0694  -18.1317   25.1449 C   0  0  1  0  0  0  0  0  0  0  0  0
    7.2125  -19.0210   25.5994 C   0  0  0  0  0  0  0  0  0  0  0  0
    6.6770  -19.8976   27.0916 S   0  0  0  0  0  0  0  0  0  0  0  0
    6.6462  -16.8849   24.6177 C   0  0  0  0  0  0  0  0  0  0  0  0
    7.0074  -16.8256   23.4163 O   0  0  0  0  0  0  0  0  0  0  0  0
    5.0341  -12.1759   26.7244 C   0  0  0  0  0  0  0  0  0  0  0  0
    5.5613  -13.1267   25.7209 C   0  0  0  0  0  0  0  0  0  0  0  0
    6.9911  -13.4599   25.7320 C   0  0  2  0  0  0  0  0  0  0  0  0
    7.8316  -12.1751   25.5075 C   0  0  0  0  0  0  0  0  0  0  0  0
    7.5254  -14.5851   24.9330 C   0  0  2  0  0  0  0  0  0  0  0  0
    6.7829  -15.7705   25.4815 N   0  0  0  0  0  0  0  0  0  0  0  0
    8.9447  -14.9557   25.1271 C   0  0  0  0  0  0  0  0  0  0  0  0
    9.4752  -14.7940   26.2912 O   0  0  0  0  0  0  0  0  0  0  0  0
   10.4587  -14.8794   30.6735 O   0  0  0  0  0  0  0  0  0  0  0  0
   10.6643  -15.4449   29.4122 C   0  0  0  0  0  0  0  0  0  0  0  0
   10.8145  -14.5890   28.3567 C   0  0  0  0  0  0  0  0  0  0  0  0
   11.0194  -15.0871   27.0933 C   0  0  0  0  0  0  0  0  0  0  0  0
   11.0813  -16.4507   26.8397 C   0  0  0  0  0  0  0  0  0  0  0  0
   11.2653  -16.9222   25.4718 C   0  0  0  0  0  0  0  0  0  0  0  0
   11.2001  -15.7453   24.5154 C   0  0  2  0  0  0  0  0  0  0  0  0
    9.8075  -15.4942   24.1458 N   0  0  0  0  0  0  0  0  0  0  0  0
   12.0040  -16.0606   23.3331 C   0  0  0  0  0  0  0  0  0  0  0  0
   13.3653  -16.2293   23.4440 O   0  0  0  0  0  0  0  0  0  0  0  0
   10.9279  -17.2937   27.9132 C   0  0  0  0  0  0  0  0  0  0  0  0
   10.7180  -16.8108   29.2109 C   0  0  0  0  0  0  0  0  0  0  0  0
   11.4685  -16.1787   22.2164 O   0  0  0  0  0  0  0  0  0  0  0  0
  2  1  1  6
  3  4  1  0
  3  2  1  0
  5  6  2  0
  5  2  1  0
  8  7  1  0
  8  9  1  0
  9 11  1  0
  9 10  1  6
 11 12  1  1
 12  5  1  0
 13 11  1  0
 14 13  2  0
 16 17  2  0
 16 15  1  0
 18 17  1  0
 19 18  2  0
 21 20  1  1
 20 19  1  0
 21 22  1  0
 22 13  1  0
 23 24  1  0
 23 21  1  0
 25 19  1  0
 25 26  2  0
 26 16  1  0
 27 23  2  0
M  END
$$$$
