CIY.pdb
     RDKit          3D

 27 27  0  0  1  0  0  0  0  0999 V2000
    7.1385  -14.2429   19.5511 N   0  0  0  0  0  0  0  0  0  0  0  0
    6.9205  -15.0609   20.7005 C   0  0  1  0  0  0  0  0  0  0  0  0
    7.1633  -16.5064   20.3060 C   0  0  0  0  0  0  0  0  0  0  0  0
    5.5923  -17.1970   19.7259 S   0  0  0  0  0  0  0  0  0  0  0  0
    7.8150  -14.7406   21.8242 C   0  0  0  0  0  0  0  0  0  0  0  0
    9.0281  -14.5004   21.6050 O   0  0  0  0  0  0  0  0  0  0  0  0
    5.5092  -12.0901   25.9716 C   0  0  0  0  0  0  0  0  0  0  0  0
    6.4739  -12.5589   24.9524 C   0  0  0  0  0  0  0  0  0  0  0  0
    7.3231  -13.7189   25.2503 C   0  0  2  0  0  0  0  0  0  0  0  0
    8.0731  -13.4907   26.5893 C   0  0  0  0  0  0  0  0  0  0  0  0
    8.2292  -14.2916   24.2301 C   0  0  2  0  0  0  0  0  0  0  0  0
    7.2860  -14.7096   23.1379 N   0  0  0  0  0  0  0  0  0  0  0  0
    8.9376  -15.5470   24.5639 C   0  0  0  0  0  0  0  0  0  0  0  0
    8.3081  -16.4588   25.2237 O   0  0  0  0  0  0  0  0  0  0  0  0
   11.1554  -16.5389   31.6443 O   0  0  0  0  0  0  0  0  0  0  0  0
   11.2075  -16.1915   30.2917 C   0  0  0  0  0  0  0  0  0  0  0  0
   10.7774  -14.9404   29.9472 C   0  0  0  0  0  0  0  0  0  0  0  0
   10.8052  -14.5430   28.6328 C   0  0  0  0  0  0  0  0  0  0  0  0
   11.2612  -15.3764   27.6204 C   0  0  0  0  0  0  0  0  0  0  0  0
   11.2340  -14.9129   26.2377 C   0  0  0  0  0  0  0  0  0  0  0  0
   11.2238  -16.1075   25.3013 C   0  0  2  0  0  0  0  0  0  0  0  0
   10.2695  -15.8700   24.2187 N   0  0  0  0  0  0  0  0  0  0  0  0
   10.8546  -17.2982   26.0690 C   0  0  0  0  0  0  0  0  0  0  0  0
   11.7328  -18.3518   26.1812 O   0  0  0  0  0  0  0  0  0  0  0  0
   11.6887  -16.6292   27.9870 C   0  0  0  0  0  0  0  0  0  0  0  0
   11.6704  -17.0580   29.3201 C   0  0  0  0  0  0  0  0  0  0  0  0
    9.7454  -17.3729   26.6274 O   0  0  0  0  0  0  0  0  0  0  0  0
  2  1  1  6
  3  4  1  0
  3  2  1  0
  5  6  2  0
  5  2  1  0
  8  7  1  0
  8  9  1  0
  9 11  1  0
  9 10  1  1
 11 12  1  6
 12  5  1  0
 13 11  1  0
 14 13  2  0
 16 17  2  0
 16 15  1  0
 18 17  1  0
 19 18  2  0
 21 20  1  1
 20 19  1  0
 21 22  1  0
 22 13  1  0
 23 24  1  0
 23 21  1  0
 25 19  1  0
 25 26  2  0
 26 16  1  0
 27 23  2  0
M  END
$$$$
