CIY.pdb
     RDKit          3D

 27 27  0  0  1  0  0  0  0  0999 V2000
    8.3015  -18.7184   18.2573 N   0  0  0  0  0  0  0  0  0  0  0  0
    7.7713  -18.3545   19.5317 C   0  0  1  0  0  0  0  0  0  0  0  0
    7.8656  -19.5623   20.4463 C   0  0  0  0  0  0  0  0  0  0  0  0
    6.2069  -20.2737   20.6025 S   0  0  0  0  0  0  0  0  0  0  0  0
    8.4950  -17.2438   20.1705 C   0  0  0  0  0  0  0  0  0  0  0  0
    9.7230  -17.0949   19.9537 O   0  0  0  0  0  0  0  0  0  0  0  0
    7.0309  -12.4077   19.4531 C   0  0  0  0  0  0  0  0  0  0  0  0
    7.8225  -13.6010   19.8255 C   0  0  0  0  0  0  0  0  0  0  0  0
    7.8448  -14.0365   21.2274 C   0  0  2  0  0  0  0  0  0  0  0  0
    8.1922  -12.8347   22.1453 C   0  0  0  0  0  0  0  0  0  0  0  0
    8.5834  -15.2490   21.6450 C   0  0  2  0  0  0  0  0  0  0  0  0
    7.7871  -16.3602   21.0218 N   0  0  0  0  0  0  0  0  0  0  0  0
    8.5810  -15.5966   23.0832 C   0  0  0  0  0  0  0  0  0  0  0  0
    7.4928  -16.0419   23.6127 O   0  0  0  0  0  0  0  0  0  0  0  0
    6.1481  -10.7686   27.2805 O   0  0  0  0  0  0  0  0  0  0  0  0
    6.6641  -12.0053   26.8838 C   0  0  0  0  0  0  0  0  0  0  0  0
    5.7684  -12.9754   26.5293 C   0  0  0  0  0  0  0  0  0  0  0  0
    6.2169  -14.2107   26.1305 C   0  0  0  0  0  0  0  0  0  0  0  0
    7.5690  -14.5202   26.0718 C   0  0  0  0  0  0  0  0  0  0  0  0
    7.9855  -15.8606   25.6752 C   0  0  0  0  0  0  0  0  0  0  0  0
    9.4720  -15.8610   25.3681 C   0  0  2  0  0  0  0  0  0  0  0  0
    9.6802  -15.4995   23.9663 N   0  0  0  0  0  0  0  0  0  0  0  0
   10.0049  -17.1959   25.6464 C   0  0  0  0  0  0  0  0  0  0  0  0
   10.4594  -17.9902   24.6186 O   0  0  0  0  0  0  0  0  0  0  0  0
    8.4526  -13.5323   26.4321 C   0  0  0  0  0  0  0  0  0  0  0  0
    8.0205  -12.2647   26.8420 C   0  0  0  0  0  0  0  0  0  0  0  0
   10.0526  -17.6283   26.8120 O   0  0  0  0  0  0  0  0  0  0  0  0
  2  1  1  6
  3  4  1  0
  3  2  1  0
  5  6  2  0
  5  2  1  0
  8  7  1  0
  8  9  1  0
  9 11  1  0
  9 10  1  1
 11 12  1  6
 12  5  1  0
 13 11  1  0
 14 13  2  0
 16 17  2  0
 16 15  1  0
 18 17  1  0
 19 18  2  0
 21 20  1  6
 20 19  1  0
 21 22  1  0
 22 13  1  0
 23 24  1  0
 23 21  1  0
 25 19  1  0
 25 26  2  0
 26 16  1  0
 27 23  2  0
M  END
$$$$
