CIY.pdb
     RDKit          3D

 27 27  0  0  1  0  0  0  0  0999 V2000
   12.3717  -17.0318   18.1890 N   0  0  0  0  0  0  0  0  0  0  0  0
   11.2769  -17.4753   18.9905 C   0  0  1  0  0  0  0  0  0  0  0  0
   11.6728  -18.7833   19.6510 C   0  0  0  0  0  0  0  0  0  0  0  0
   10.1698  -19.5546   20.3050 S   0  0  0  0  0  0  0  0  0  0  0  0
   10.9062  -16.5250   20.0512 C   0  0  0  0  0  0  0  0  0  0  0  0
   11.8023  -16.0007   20.7578 O   0  0  0  0  0  0  0  0  0  0  0  0
    7.2845  -12.7611   19.1586 C   0  0  0  0  0  0  0  0  0  0  0  0
    8.3988  -13.5683   19.7026 C   0  0  0  0  0  0  0  0  0  0  0  0
    8.1535  -14.4408   20.8577 C   0  0  2  0  0  0  0  0  0  0  0  0
    7.4625  -13.6335   21.9883 C   0  0  0  0  0  0  0  0  0  0  0  0
    9.2189  -15.3092   21.4062 C   0  0  2  0  0  0  0  0  0  0  0  0
    9.5380  -16.2196   20.2544 N   0  0  0  0  0  0  0  0  0  0  0  0
    8.8530  -16.2492   22.4888 C   0  0  0  0  0  0  0  0  0  0  0  0
    9.4531  -17.3888   22.5509 O   0  0  0  0  0  0  0  0  0  0  0  0
   10.6214  -14.9291   30.6687 O   0  0  0  0  0  0  0  0  0  0  0  0
   10.3393  -15.0072   29.3022 C   0  0  0  0  0  0  0  0  0  0  0  0
    9.7578  -13.9169   28.7173 C   0  0  0  0  0  0  0  0  0  0  0  0
    9.4574  -13.9356   27.3772 C   0  0  0  0  0  0  0  0  0  0  0  0
    9.7256  -15.0382   26.5772 C   0  0  0  0  0  0  0  0  0  0  0  0
    9.3517  -15.0143   25.1676 C   0  0  0  0  0  0  0  0  0  0  0  0
    8.3288  -16.1020   24.8946 C   0  0  2  0  0  0  0  0  0  0  0  0
    7.8929  -16.0224   23.5008 N   0  0  0  0  0  0  0  0  0  0  0  0
    7.1976  -15.9170   25.8054 C   0  0  0  0  0  0  0  0  0  0  0  0
    7.0506  -16.7320   26.9045 O   0  0  0  0  0  0  0  0  0  0  0  0
   10.3097  -16.1233   27.1837 C   0  0  0  0  0  0  0  0  0  0  0  0
   10.6257  -16.1289   28.5481 C   0  0  0  0  0  0  0  0  0  0  0  0
    6.3568  -15.0238   25.5975 O   0  0  0  0  0  0  0  0  0  0  0  0
  2  1  1  1
  3  4  1  0
  3  2  1  0
  5  6  2  0
  5  2  1  0
  8  7  1  0
  8  9  1  0
  9 11  1  0
  9 10  1  1
 11 12  1  6
 12  5  1  0
 13 11  1  0
 14 13  2  0
 16 17  2  0
 16 15  1  0
 18 17  1  0
 19 18  2  0
 21 20  1  1
 20 19  1  0
 21 22  1  0
 22 13  1  0
 23 24  1  0
 23 21  1  0
 25 19  1  0
 25 26  2  0
 26 16  1  0
 27 23  2  0
M  END
$$$$
