CIY.pdb
     RDKit          3D

 27 27  0  0  1  0  0  0  0  0999 V2000
    5.6528  -16.6438   20.7449 N   0  0  0  0  0  0  0  0  0  0  0  0
    5.8383  -16.6920   22.1594 C   0  0  1  0  0  0  0  0  0  0  0  0
    6.2418  -18.1060   22.5362 C   0  0  0  0  0  0  0  0  0  0  0  0
    4.8092  -19.1830   22.2731 S   0  0  0  0  0  0  0  0  0  0  0  0
    6.8843  -15.7772   22.6435 C   0  0  0  0  0  0  0  0  0  0  0  0
    7.8780  -15.5282   21.9170 O   0  0  0  0  0  0  0  0  0  0  0  0
    5.1354  -11.8820   25.9975 C   0  0  0  0  0  0  0  0  0  0  0  0
    5.8497  -12.6523   24.9556 C   0  0  0  0  0  0  0  0  0  0  0  0
    7.0976  -13.3425   25.3047 C   0  0  2  0  0  0  0  0  0  0  0  0
    8.0803  -12.3449   25.9732 C   0  0  0  0  0  0  0  0  0  0  0  0
    7.8025  -14.2002   24.3262 C   0  0  2  0  0  0  0  0  0  0  0  0
    6.7478  -15.1928   23.9266 N   0  0  0  0  0  0  0  0  0  0  0  0
    8.9010  -15.0566   24.8254 C   0  0  0  0  0  0  0  0  0  0  0  0
    8.6053  -16.1581   25.4271 O   0  0  0  0  0  0  0  0  0  0  0  0
   11.4289  -15.0343   31.3970 O   0  0  0  0  0  0  0  0  0  0  0  0
   11.2248  -15.5238   30.1040 C   0  0  0  0  0  0  0  0  0  0  0  0
   10.8863  -14.6196   29.1360 C   0  0  0  0  0  0  0  0  0  0  0  0
   10.6732  -15.0422   27.8467 C   0  0  0  0  0  0  0  0  0  0  0  0
   10.7900  -16.3760   27.4795 C   0  0  0  0  0  0  0  0  0  0  0  0
   10.5168  -16.7714   26.1025 C   0  0  0  0  0  0  0  0  0  0  0  0
   11.2230  -15.8223   25.1514 C   0  0  2  0  0  0  0  0  0  0  0  0
   10.2843  -14.7948   24.7019 N   0  0  0  0  0  0  0  0  0  0  0  0
   11.7333  -16.5939   24.0166 C   0  0  0  0  0  0  0  0  0  0  0  0
   12.6494  -17.6009   24.2176 O   0  0  0  0  0  0  0  0  0  0  0  0
   11.1307  -17.2685   28.4664 C   0  0  0  0  0  0  0  0  0  0  0  0
   11.3532  -16.8627   29.7882 C   0  0  0  0  0  0  0  0  0  0  0  0
   11.3471  -16.3491   22.8596 O   0  0  0  0  0  0  0  0  0  0  0  0
  2  1  1  6
  3  4  1  0
  3  2  1  0
  5  6  2  0
  5  2  1  0
  8  7  1  0
  8  9  1  0
  9 11  1  0
  9 10  1  6
 11 12  1  1
 12  5  1  0
 13 11  1  0
 14 13  2  0
 16 17  2  0
 16 15  1  0
 18 17  1  0
 19 18  2  0
 21 20  1  1
 20 19  1  0
 21 22  1  0
 22 13  1  0
 23 24  1  0
 23 21  1  0
 25 19  1  0
 25 26  2  0
 26 16  1  0
 27 23  2  0
M  END
$$$$
