KID.pdb
     RDKit          3D

 26 25  0  0  1  0  0  0  0  0999 V2000
   19.2315  -12.5722  -16.4331 N   0  0  0  0  0  0  0  0  0  0  0  0
   19.1089  -11.2168  -16.8738 C   0  0  1  0  0  0  0  0  0  0  0  0
   17.6882  -10.8281  -17.1842 C   0  0  0  0  0  0  0  0  0  0  0  0
   17.2627  -11.5868  -18.4136 C   0  0  0  0  0  0  0  0  0  0  0  0
   15.9100  -11.1602  -18.9214 C   0  0  0  0  0  0  0  0  0  0  0  0
   15.5027  -11.9054  -20.1674 C   0  0  0  0  0  0  0  0  0  0  0  0
   14.2621  -11.3118  -20.6430 N   0  0  0  0  0  0  0  0  0  0  0  0
   19.7371  -10.3070  -15.8674 C   0  0  0  0  0  0  0  0  0  0  0  0
   19.3868  -10.3380  -14.6635 O   0  0  0  0  0  0  0  0  0  0  0  0
   24.4966  -10.6405  -14.5866 C   0  0  0  0  0  0  0  0  0  0  0  0
   23.0774  -10.1945  -14.6188 C   0  0  0  0  0  0  0  0  0  0  0  0
   22.9466   -8.8588  -15.3788 C   0  0  2  0  0  0  0  0  0  0  0  0
   23.7805   -7.8990  -14.5389 C   0  0  0  0  0  0  0  0  0  0  0  0
   21.5041   -8.4792  -15.4845 C   0  0  2  0  0  0  0  0  0  0  0  0
   20.7254   -9.4204  -16.3029 N   0  0  0  0  0  0  0  0  0  0  0  0
   21.2121   -7.1010  -15.8989 C   0  0  0  0  0  0  0  0  0  0  0  0
   21.5789   -6.6907  -17.0738 O   0  0  0  0  0  0  0  0  0  0  0  0
   20.5434   -6.1081  -15.1468 N   0  0  0  0  0  0  0  0  0  0  0  0
   20.2213   -4.8159  -15.7408 C   0  0  1  0  0  0  0  0  0  0  0  0
   18.8559   -4.3191  -15.4118 C   0  0  0  0  0  0  0  0  0  0  0  0
   18.3432   -3.2766  -16.3241 C   0  0  0  0  0  0  0  0  0  0  0  0
   19.0327   -2.9362  -17.3096 O   0  0  0  0  0  0  0  0  0  0  0  0
   21.2194   -3.8251  -15.2597 C   0  0  0  0  0  0  0  0  0  0  0  0
   21.5513   -2.6845  -15.9744 O   0  0  0  0  0  0  0  0  0  0  0  0
   17.1221   -2.6618  -16.1247 O   0  0  0  0  0  0  0  0  0  0  0  0
   21.8218   -3.9825  -14.1551 O   0  0  0  0  0  0  0  0  0  0  0  0
  2  3  1  0
  2  1  1  1
  4  3  1  0
  5  6  1  0
  5  4  1  0
  7  6  1  0
  8  9  2  0
  8  2  1  0
 10 11  1  0
 12 11  1  0
 12 14  1  0
 12 13  1  1
 14 15  1  6
 15  8  1  0
 16 17  2  0
 16 14  1  0
 18 16  1  0
 19 18  1  0
 19 20  1  1
 20 21  1  0
 21 22  2  0
 21 25  1  0
 23 19  1  0
 24 23  1  0
 26 23  2  0
M  END
$$$$
