KID.pdb
     RDKit          3D

 26 25  0  0  1  0  0  0  0  0999 V2000
   27.4883  -37.7489  -10.1941 N   0  0  0  0  0  0  0  0  0  0  0  0
   26.6000  -37.4486   -9.1138 C   0  0  1  0  0  0  0  0  0  0  0  0
   26.3234  -38.6388   -8.2348 C   0  0  0  0  0  0  0  0  0  0  0  0
   25.6217  -39.6751   -9.0725 C   0  0  0  0  0  0  0  0  0  0  0  0
   26.5525  -40.7519   -9.5662 C   0  0  0  0  0  0  0  0  0  0  0  0
   25.8178  -41.8787  -10.2474 C   0  0  0  0  0  0  0  0  0  0  0  0
   25.5581  -41.4630  -11.6175 N   0  0  0  0  0  0  0  0  0  0  0  0
   27.1323  -36.2855   -8.3398 C   0  0  0  0  0  0  0  0  0  0  0  0
   28.3332  -35.9382   -8.4428 O   0  0  0  0  0  0  0  0  0  0  0  0
   24.8161  -31.7038   -8.6565 C   0  0  0  0  0  0  0  0  0  0  0  0
   25.7662  -32.8134   -8.3731 C   0  0  0  0  0  0  0  0  0  0  0  0
   25.6352  -33.2776   -6.9081 C   0  0  2  0  0  0  0  0  0  0  0  0
   25.9773  -32.0223   -6.1149 C   0  0  0  0  0  0  0  0  0  0  0  0
   26.5607  -34.4255   -6.6594 C   0  0  2  0  0  0  0  0  0  0  0  0
   26.2569  -35.5947   -7.4979 N   0  0  0  0  0  0  0  0  0  0  0  0
   26.7311  -34.8465   -5.2629 C   0  0  0  0  0  0  0  0  0  0  0  0
   25.7508  -35.4257   -4.6411 O   0  0  0  0  0  0  0  0  0  0  0  0
   27.8876  -34.6995   -4.4633 N   0  0  0  0  0  0  0  0  0  0  0  0
   27.9192  -35.2141   -3.0992 C   0  0  1  0  0  0  0  0  0  0  0  0
   29.2895  -35.3391   -2.5283 C   0  0  0  0  0  0  0  0  0  0  0  0
   29.5072  -36.5477   -1.7075 C   0  0  0  0  0  0  0  0  0  0  0  0
   28.5531  -37.3312   -1.5113 O   0  0  0  0  0  0  0  0  0  0  0  0
   27.1255  -34.2960   -2.2411 C   0  0  0  0  0  0  0  0  0  0  0  0
   26.6998  -34.6380   -0.9668 O   0  0  0  0  0  0  0  0  0  0  0  0
   30.7346  -36.8434   -1.1464 O   0  0  0  0  0  0  0  0  0  0  0  0
   26.7972  -33.1394   -2.6440 O   0  0  0  0  0  0  0  0  0  0  0  0
  2  3  1  0
  2  1  1  6
  4  3  1  0
  5  6  1  0
  5  4  1  0
  7  6  1  0
  8  9  2  0
  8  2  1  0
 10 11  1  0
 12 11  1  0
 12 14  1  0
 12 13  1  1
 14 15  1  6
 15  8  1  0
 16 17  2  0
 16 14  1  0
 18 16  1  0
 19 18  1  0
 19 20  1  1
 20 21  1  0
 21 22  2  0
 21 25  1  0
 23 19  1  0
 24 23  1  0
 26 23  2  0
M  END
$$$$
