KID.pdb
     RDKit          3D

 26 25  0  0  1  0  0  0  0  0999 V2000
   22.4776  -15.3034  -18.1311 N   0  0  0  0  0  0  0  0  0  0  0  0
   22.2408  -13.9283  -18.4464 C   0  0  1  0  0  0  0  0  0  0  0  0
   20.9089  -13.7005  -19.1098 C   0  0  0  0  0  0  0  0  0  0  0  0
   20.5626  -14.9451  -19.8839 C   0  0  0  0  0  0  0  0  0  0  0  0
   19.2987  -15.6022  -19.3940 C   0  0  0  0  0  0  0  0  0  0  0  0
   18.8255  -16.6972  -20.3162 C   0  0  0  0  0  0  0  0  0  0  0  0
   17.6315  -17.2800  -19.7227 N   0  0  0  0  0  0  0  0  0  0  0  0
   22.4079  -13.0987  -17.2140 C   0  0  0  0  0  0  0  0  0  0  0  0
   21.9409  -13.4782  -16.1134 O   0  0  0  0  0  0  0  0  0  0  0  0
   27.0151  -11.7504  -15.5085 C   0  0  0  0  0  0  0  0  0  0  0  0
   25.5411  -11.9464  -15.5661 C   0  0  0  0  0  0  0  0  0  0  0  0
   24.8440  -10.6662  -16.0698 C   0  0  2  0  0  0  0  0  0  0  0  0
   25.1671   -9.6459  -14.9851 C   0  0  0  0  0  0  0  0  0  0  0  0
   23.3817  -10.9254  -16.2452 C   0  0  2  0  0  0  0  0  0  0  0  0
   23.0983  -11.8885  -17.3196 N   0  0  0  0  0  0  0  0  0  0  0  0
   22.5148   -9.7491  -16.3911 C   0  0  0  0  0  0  0  0  0  0  0  0
   22.6364   -8.9851  -17.4326 O   0  0  0  0  0  0  0  0  0  0  0  0
   21.5066   -9.3171  -15.4991 N   0  0  0  0  0  0  0  0  0  0  0  0
   20.7564   -8.0943  -15.7603 C   0  0  1  0  0  0  0  0  0  0  0  0
   19.2914   -8.2167  -15.5187 C   0  0  0  0  0  0  0  0  0  0  0  0
   18.5318   -6.9615  -15.6900 C   0  0  0  0  0  0  0  0  0  0  0  0
   18.8257   -6.1950  -16.6326 O   0  0  0  0  0  0  0  0  0  0  0  0
   21.2980   -7.0242  -14.8825 C   0  0  0  0  0  0  0  0  0  0  0  0
   21.1209   -5.6746  -15.1455 O   0  0  0  0  0  0  0  0  0  0  0  0
   17.5028   -6.6038  -14.8402 O   0  0  0  0  0  0  0  0  0  0  0  0
   21.9576   -7.3035  -13.8362 O   0  0  0  0  0  0  0  0  0  0  0  0
  2  3  1  0
  2  1  1  1
  4  3  1  0
  5  6  1  0
  5  4  1  0
  7  6  1  0
  8  9  2  0
  8  2  1  0
 10 11  1  0
 12 11  1  0
 12 14  1  0
 12 13  1  1
 14 15  1  6
 15  8  1  0
 16 17  2  0
 16 14  1  0
 18 16  1  0
 19 18  1  0
 19 20  1  1
 20 21  1  0
 21 22  2  0
 21 25  1  0
 23 19  1  0
 24 23  1  0
 26 23  2  0
M  END
$$$$
