KID.pdb
     RDKit          3D

 26 25  0  0  1  0  0  0  0  0999 V2000
   26.5284  -21.8228  -16.4480 N   0  0  0  0  0  0  0  0  0  0  0  0
   25.9102  -23.0710  -16.1222 C   0  0  1  0  0  0  0  0  0  0  0  0
   26.7851  -24.2563  -16.4313 C   0  0  0  0  0  0  0  0  0  0  0  0
   27.0732  -24.2414  -17.9094 C   0  0  0  0  0  0  0  0  0  0  0  0
   25.8976  -24.6939  -18.7358 C   0  0  0  0  0  0  0  0  0  0  0  0
   26.1687  -24.6073  -20.2166 C   0  0  0  0  0  0  0  0  0  0  0  0
   24.9154  -24.8777  -20.9047 N   0  0  0  0  0  0  0  0  0  0  0  0
   25.4695  -23.0507  -14.6937 C   0  0  0  0  0  0  0  0  0  0  0  0
   24.8862  -24.0378  -14.1852 O   0  0  0  0  0  0  0  0  0  0  0  0
   28.6724  -20.5660  -11.2270 C   0  0  0  0  0  0  0  0  0  0  0  0
   27.6213  -21.4938  -11.7259 C   0  0  0  0  0  0  0  0  0  0  0  0
   26.2590  -20.7753  -11.8067 C   0  0  2  0  0  0  0  0  0  0  0  0
   25.8906  -20.5651  -10.3432 C   0  0  0  0  0  0  0  0  0  0  0  0
   25.2870  -21.6234  -12.5631 C   0  0  2  0  0  0  0  0  0  0  0  0
   25.7243  -21.9027  -13.9390 N   0  0  0  0  0  0  0  0  0  0  0  0
   23.8869  -21.1806  -12.5670 C   0  0  0  0  0  0  0  0  0  0  0  0
   23.2526  -21.0419  -11.4438 O   0  0  0  0  0  0  0  0  0  0  0  0
   23.0959  -20.8641  -13.6952 N   0  0  0  0  0  0  0  0  0  0  0  0
   21.7130  -20.4300  -13.5359 C   0  0  1  0  0  0  0  0  0  0  0  0
   21.3818  -19.1751  -14.2673 C   0  0  0  0  0  0  0  0  0  0  0  0
   19.9546  -18.7963  -14.2260 C   0  0  0  0  0  0  0  0  0  0  0  0
   19.4539  -18.4237  -13.1429 O   0  0  0  0  0  0  0  0  0  0  0  0
   20.8281  -21.5181  -14.0283 C   0  0  0  0  0  0  0  0  0  0  0  0
   19.5123  -21.6617  -13.6159 O   0  0  0  0  0  0  0  0  0  0  0  0
   19.1503  -18.8397  -15.3485 O   0  0  0  0  0  0  0  0  0  0  0  0
   21.2453  -22.3780  -14.8616 O   0  0  0  0  0  0  0  0  0  0  0  0
  2  3  1  0
  2  1  1  1
  4  3  1  0
  5  6  1  0
  5  4  1  0
  7  6  1  0
  8  9  2  0
  8  2  1  0
 10 11  1  0
 12 11  1  0
 12 14  1  0
 12 13  1  1
 14 15  1  6
 15  8  1  0
 16 17  2  0
 16 14  1  0
 18 16  1  0
 19 18  1  0
 19 20  1  6
 20 21  1  0
 21 22  2  0
 21 25  1  0
 23 19  1  0
 24 23  1  0
 26 23  2  0
M  END
$$$$
