KID.pdb
     RDKit          3D

 26 25  0  0  1  0  0  0  0  0999 V2000
   17.4956  -25.7943   -5.4645 N   0  0  0  0  0  0  0  0  0  0  0  0
   16.7143  -25.9368   -4.2747 C   0  0  1  0  0  0  0  0  0  0  0  0
   17.4225  -26.7159   -3.1989 C   0  0  0  0  0  0  0  0  0  0  0  0
   17.4844  -28.1548   -3.6391 C   0  0  0  0  0  0  0  0  0  0  0  0
   16.6823  -29.0700   -2.7510 C   0  0  0  0  0  0  0  0  0  0  0  0
   16.8492  -30.5220   -3.1218 C   0  0  0  0  0  0  0  0  0  0  0  0
   15.9981  -31.2984   -2.2326 N   0  0  0  0  0  0  0  0  0  0  0  0
   16.2772  -24.5879   -3.8012 C   0  0  0  0  0  0  0  0  0  0  0  0
   16.9928  -23.5753   -3.9907 O   0  0  0  0  0  0  0  0  0  0  0  0
   11.7613  -22.5504   -5.1380 C   0  0  0  0  0  0  0  0  0  0  0  0
   13.1044  -22.4760   -4.5018 C   0  0  0  0  0  0  0  0  0  0  0  0
   13.0538  -23.0303   -3.0635 C   0  0  2  0  0  0  0  0  0  0  0  0
   12.3042  -21.9452   -2.3000 C   0  0  0  0  0  0  0  0  0  0  0  0
   14.4438  -23.2728   -2.5685 C   0  0  2  0  0  0  0  0  0  0  0  0
   15.0498  -24.4839   -3.1415 N   0  0  0  0  0  0  0  0  0  0  0  0
   14.6387  -23.2607   -1.1130 C   0  0  0  0  0  0  0  0  0  0  0  0
   14.4173  -24.3382   -0.4250 O   0  0  0  0  0  0  0  0  0  0  0  0
   15.0629  -22.1710   -0.3187 N   0  0  0  0  0  0  0  0  0  0  0  0
   15.1651  -22.3017    1.1300 C   0  0  1  0  0  0  0  0  0  0  0  0
   16.4657  -21.8408    1.6917 C   0  0  0  0  0  0  0  0  0  0  0  0
   16.5791  -21.9583    3.1598 C   0  0  0  0  0  0  0  0  0  0  0  0
   15.6781  -22.5469    3.7956 O   0  0  0  0  0  0  0  0  0  0  0  0
   14.0702  -21.5057    1.7437 C   0  0  0  0  0  0  0  0  0  0  0  0
   13.3081  -20.5969    1.0259 O   0  0  0  0  0  0  0  0  0  0  0  0
   17.6518  -21.4376    3.8577 O   0  0  0  0  0  0  0  0  0  0  0  0
   13.7801  -21.6249    2.9723 O   0  0  0  0  0  0  0  0  0  0  0  0
  2  3  1  0
  2  1  1  6
  4  3  1  0
  5  6  1  0
  5  4  1  0
  7  6  1  0
  8  9  2  0
  8  2  1  0
 10 11  1  0
 12 11  1  0
 12 14  1  0
 12 13  1  1
 14 15  1  1
 15  8  1  0
 16 17  2  0
 16 14  1  0
 18 16  1  0
 19 18  1  0
 19 20  1  1
 20 21  1  0
 21 22  2  0
 21 25  1  0
 23 19  1  0
 24 23  1  0
 26 23  2  0
M  END
$$$$
