KID.pdb
     RDKit          3D

 26 25  0  0  1  0  0  0  0  0999 V2000
   24.5996  -20.5919   -7.6001 N   0  0  0  0  0  0  0  0  0  0  0  0
   23.7794  -20.8873   -8.7343 C   0  0  1  0  0  0  0  0  0  0  0  0
   22.3336  -20.5266   -8.5214 C   0  0  0  0  0  0  0  0  0  0  0  0
   21.8225  -21.3424   -7.3631 C   0  0  0  0  0  0  0  0  0  0  0  0
   21.3109  -22.6950   -7.7851 C   0  0  0  0  0  0  0  0  0  0  0  0
   19.8271  -22.8435   -7.5618 C   0  0  0  0  0  0  0  0  0  0  0  0
   19.4678  -24.2074   -7.9199 N   0  0  0  0  0  0  0  0  0  0  0  0
   24.3532  -20.2304   -9.9485 C   0  0  0  0  0  0  0  0  0  0  0  0
   24.7661  -19.0468   -9.9066 O   0  0  0  0  0  0  0  0  0  0  0  0
   28.6202  -21.3147  -12.0985 C   0  0  0  0  0  0  0  0  0  0  0  0
   27.3102  -20.6815  -11.7864 C   0  0  0  0  0  0  0  0  0  0  0  0
   26.2361  -21.1332  -12.7968 C   0  0  2  0  0  0  0  0  0  0  0  0
   26.7971  -20.6621  -14.1330 C   0  0  0  0  0  0  0  0  0  0  0  0
   24.9197  -20.5203  -12.4395 C   0  0  2  0  0  0  0  0  0  0  0  0
   24.4176  -20.9696  -11.1326 N   0  0  0  0  0  0  0  0  0  0  0  0
   23.8514  -20.6175  -13.4424 C   0  0  0  0  0  0  0  0  0  0  0  0
   23.1764  -21.7194  -13.5589 O   0  0  0  0  0  0  0  0  0  0  0  0
   23.4354  -19.6123  -14.3452 N   0  0  0  0  0  0  0  0  0  0  0  0
   22.1699  -19.7316  -15.0598 C   0  0  1  0  0  0  0  0  0  0  0  0
   21.1013  -18.8222  -14.5594 C   0  0  0  0  0  0  0  0  0  0  0  0
   19.8530  -18.8454  -15.3488 C   0  0  0  0  0  0  0  0  0  0  0  0
   19.5596  -19.8742  -15.9954 O   0  0  0  0  0  0  0  0  0  0  0  0
   22.4197  -19.4322  -16.4940 C   0  0  0  0  0  0  0  0  0  0  0  0
   21.5105  -19.7372  -17.4952 O   0  0  0  0  0  0  0  0  0  0  0  0
   18.9944  -17.7640  -15.3974 O   0  0  0  0  0  0  0  0  0  0  0  0
   23.4944  -18.8751  -16.8715 O   0  0  0  0  0  0  0  0  0  0  0  0
  2  3  1  0
  2  1  1  1
  4  3  1  0
  5  6  1  0
  5  4  1  0
  7  6  1  0
  8  9  2  0
  8  2  1  0
 10 11  1  0
 12 11  1  0
 12 14  1  0
 12 13  1  6
 14 15  1  1
 15  8  1  0
 16 17  2  0
 16 14  1  0
 18 16  1  0
 19 18  1  0
 19 20  1  1
 20 21  1  0
 21 22  2  0
 21 25  1  0
 23 19  1  0
 24 23  1  0
 26 23  2  0
M  END
$$$$
