KID.pdb
     RDKit          3D

 26 25  0  0  1  0  0  0  0  0999 V2000
   28.5340  -21.3080  -15.9887 N   0  0  0  0  0  0  0  0  0  0  0  0
   27.8207  -20.3067  -15.2573 C   0  0  1  0  0  0  0  0  0  0  0  0
   27.3364  -19.1787  -16.1284 C   0  0  0  0  0  0  0  0  0  0  0  0
   27.9605  -19.3483  -17.4886 C   0  0  0  0  0  0  0  0  0  0  0  0
   27.5136  -18.2955  -18.4691 C   0  0  0  0  0  0  0  0  0  0  0  0
   27.7374  -16.8968  -17.9524 C   0  0  0  0  0  0  0  0  0  0  0  0
   27.2571  -15.9750  -18.9708 N   0  0  0  0  0  0  0  0  0  0  0  0
   26.7081  -20.9473  -14.4912 C   0  0  0  0  0  0  0  0  0  0  0  0
   26.1600  -21.9962  -14.9067 O   0  0  0  0  0  0  0  0  0  0  0  0
   27.5968  -20.9574   -9.3494 C   0  0  0  0  0  0  0  0  0  0  0  0
   26.9917  -21.4166  -10.6290 C   0  0  0  0  0  0  0  0  0  0  0  0
   25.6909  -20.6414  -10.9218 C   0  0  2  0  0  0  0  0  0  0  0  0
   24.7076  -21.2205   -9.9120 C   0  0  0  0  0  0  0  0  0  0  0  0
   25.2917  -20.8489  -12.3479 C   0  0  2  0  0  0  0  0  0  0  0  0
   26.2941  -20.3469  -13.2993 N   0  0  0  0  0  0  0  0  0  0  0  0
   23.9571  -20.3752  -12.7362 C   0  0  0  0  0  0  0  0  0  0  0  0
   23.7477  -19.1055  -12.9016 O   0  0  0  0  0  0  0  0  0  0  0  0
   22.8073  -21.1637  -12.9706 N   0  0  0  0  0  0  0  0  0  0  0  0
   21.5736  -20.5548  -13.4539 C   0  0  1  0  0  0  0  0  0  0  0  0
   21.3222  -20.7624  -14.9075 C   0  0  0  0  0  0  0  0  0  0  0  0
   20.0197  -20.2558  -15.3861 C   0  0  0  0  0  0  0  0  0  0  0  0
   19.7867  -19.0288  -15.3344 O   0  0  0  0  0  0  0  0  0  0  0  0
   20.4410  -21.1341  -12.6852 C   0  0  0  0  0  0  0  0  0  0  0  0
   19.2349  -20.4732  -12.5105 O   0  0  0  0  0  0  0  0  0  0  0  0
   19.0457  -21.0954  -15.8912 O   0  0  0  0  0  0  0  0  0  0  0  0
   20.5299  -22.2783  -12.1460 O   0  0  0  0  0  0  0  0  0  0  0  0
  2  3  1  0
  2  1  1  6
  4  3  1  0
  5  6  1  0
  5  4  1  0
  7  6  1  0
  8  9  2  0
  8  2  1  0
 10 11  1  0
 12 11  1  0
 12 14  1  0
 12 13  1  1
 14 15  1  6
 15  8  1  0
 16 17  2  0
 16 14  1  0
 18 16  1  0
 19 18  1  0
 19 20  1  6
 20 21  1  0
 21 22  2  0
 21 25  1  0
 23 19  1  0
 24 23  1  0
 26 23  2  0
M  END
$$$$
