KID.pdb
     RDKit          3D

 26 25  0  0  1  0  0  0  0  0999 V2000
   28.6089  -21.4348  -15.7508 N   0  0  0  0  0  0  0  0  0  0  0  0
   27.8001  -20.4189  -15.1508 C   0  0  1  0  0  0  0  0  0  0  0  0
   27.2014  -19.4753  -16.1593 C   0  0  0  0  0  0  0  0  0  0  0  0
   28.3339  -18.8372  -16.9200 C   0  0  0  0  0  0  0  0  0  0  0  0
   27.8675  -17.7553  -17.8588 C   0  0  0  0  0  0  0  0  0  0  0  0
   28.8238  -16.5910  -17.9144 C   0  0  0  0  0  0  0  0  0  0  0  0
   28.3005  -15.6444  -18.8879 N   0  0  0  0  0  0  0  0  0  0  0  0
   26.7604  -21.0560  -14.2858 C   0  0  0  0  0  0  0  0  0  0  0  0
   26.2248  -22.1413  -14.6152 O   0  0  0  0  0  0  0  0  0  0  0  0
   27.4828  -20.4585   -8.9945 C   0  0  0  0  0  0  0  0  0  0  0  0
   26.9997  -21.0782  -10.2582 C   0  0  0  0  0  0  0  0  0  0  0  0
   25.6983  -20.3991  -10.7313 C   0  0  2  0  0  0  0  0  0  0  0  0
   24.6758  -20.8494   -9.6951 C   0  0  0  0  0  0  0  0  0  0  0  0
   25.3824  -20.8339  -12.1267 C   0  0  2  0  0  0  0  0  0  0  0  0
   26.4003  -20.4108  -13.0999 N   0  0  0  0  0  0  0  0  0  0  0  0
   24.0437  -20.5065  -12.6339 C   0  0  0  0  0  0  0  0  0  0  0  0
   23.7426  -19.2746  -12.9075 O   0  0  0  0  0  0  0  0  0  0  0  0
   22.9820  -21.4067  -12.8810 N   0  0  0  0  0  0  0  0  0  0  0  0
   21.7461  -20.9464  -13.5031 C   0  0  1  0  0  0  0  0  0  0  0  0
   21.3142  -21.7614  -14.6729 C   0  0  0  0  0  0  0  0  0  0  0  0
   20.0817  -21.2858  -15.3339 C   0  0  0  0  0  0  0  0  0  0  0  0
   19.5204  -20.2538  -14.9068 O   0  0  0  0  0  0  0  0  0  0  0  0
   20.6725  -20.9783  -12.4756 C   0  0  0  0  0  0  0  0  0  0  0  0
   20.6988  -21.8368  -11.3873 O   0  0  0  0  0  0  0  0  0  0  0  0
   19.5255  -21.9454  -16.4130 O   0  0  0  0  0  0  0  0  0  0  0  0
   19.6679  -20.2083  -12.5507 O   0  0  0  0  0  0  0  0  0  0  0  0
  2  3  1  0
  2  1  1  6
  4  3  1  0
  5  6  1  0
  5  4  1  0
  7  6  1  0
  8  9  2  0
  8  2  1  0
 10 11  1  0
 12 11  1  0
 12 14  1  0
 12 13  1  1
 14 15  1  6
 15  8  1  0
 16 17  2  0
 16 14  1  0
 18 16  1  0
 19 18  1  0
 19 20  1  6
 20 21  1  0
 21 22  2  0
 21 25  1  0
 23 19  1  0
 24 23  1  0
 26 23  2  0
M  END
$$$$
