KID.pdb
     RDKit          3D

 26 25  0  0  1  0  0  0  0  0999 V2000
   20.8972  -13.0557  -18.3717 N   0  0  0  0  0  0  0  0  0  0  0  0
   21.3480  -11.7432  -18.7186 C   0  0  1  0  0  0  0  0  0  0  0  0
   20.3006  -10.9348  -19.4365 C   0  0  0  0  0  0  0  0  0  0  0  0
   19.8184  -11.7466  -20.6098 C   0  0  0  0  0  0  0  0  0  0  0  0
   18.3179  -11.8744  -20.6516 C   0  0  0  0  0  0  0  0  0  0  0  0
   17.8329  -12.5429  -21.9130 C   0  0  0  0  0  0  0  0  0  0  0  0
   16.3791  -12.5735  -21.8577 N   0  0  0  0  0  0  0  0  0  0  0  0
   21.8557  -11.0511  -17.4945 C   0  0  0  0  0  0  0  0  0  0  0  0
   21.3083  -11.2287  -16.3800 O   0  0  0  0  0  0  0  0  0  0  0  0
   25.4386  -11.2932  -14.7893 C   0  0  0  0  0  0  0  0  0  0  0  0
   25.4914  -11.0587  -16.2578 C   0  0  0  0  0  0  0  0  0  0  0  0
   25.1168   -9.5992  -16.5869 C   0  0  2  0  0  0  0  0  0  0  0  0
   25.8445   -8.8034  -15.5103 C   0  0  0  0  0  0  0  0  0  0  0  0
   23.6299   -9.4429  -16.5586 C   0  0  2  0  0  0  0  0  0  0  0  0
   22.9566  -10.2004  -17.6240 N   0  0  0  0  0  0  0  0  0  0  0  0
   23.1103   -8.0699  -16.5208 C   0  0  0  0  0  0  0  0  0  0  0  0
   23.4369   -7.2321  -17.4561 O   0  0  0  0  0  0  0  0  0  0  0  0
   22.2504   -7.5101  -15.5482 N   0  0  0  0  0  0  0  0  0  0  0  0
   21.8522   -6.1095  -15.6251 C   0  0  1  0  0  0  0  0  0  0  0  0
   20.3778   -5.8968  -15.6409 C   0  0  0  0  0  0  0  0  0  0  0  0
   19.9598   -4.4802  -15.6608 C   0  0  0  0  0  0  0  0  0  0  0  0
   19.5977   -3.9365  -14.5950 O   0  0  0  0  0  0  0  0  0  0  0  0
   22.4248   -5.4017  -14.4503 C   0  0  0  0  0  0  0  0  0  0  0  0
   22.6302   -4.0309  -14.4251 O   0  0  0  0  0  0  0  0  0  0  0  0
   19.9552   -3.7319  -16.8222 O   0  0  0  0  0  0  0  0  0  0  0  0
   22.7566   -6.0317  -13.4011 O   0  0  0  0  0  0  0  0  0  0  0  0
  2  3  1  0
  2  1  1  1
  4  3  1  0
  5  6  1  0
  5  4  1  0
  7  6  1  0
  8  9  2  0
  8  2  1  0
 10 11  1  0
 12 11  1  0
 12 14  1  0
 12 13  1  1
 14 15  1  6
 15  8  1  0
 16 17  2  0
 16 14  1  0
 18 16  1  0
 19 18  1  0
 19 20  1  1
 20 21  1  0
 21 22  2  0
 21 25  1  0
 23 19  1  0
 24 23  1  0
 26 23  2  0
M  END
$$$$
